data_PCOD9279954
_publ_section_title
;
Structure prediction by ZEFSAII (Michael W. Deem and Ramdas Pophale) SiO2 
 PCOD9279954
Probable space group: C 2/C
;
_chemical_formula_sum "Si O2"
_cell_formula_units_Z 36
_cell_length_a 18.428455
_cell_length_b 6.870317
_cell_length_c 17.616139
_cell_angle_alpha 90.000000
_cell_angle_beta 53.077790
_cell_angle_gamma 90.000000
_cell_volume 1783.071443
_symmetry_space_group_name_H-M "C 2/C"
_symmetry_group_IT_number 15
_symmetry_cell_setting 'monoclinic'
loop_
_space_group_symop_operation_xyz
x,y,z
-x,y,1/2-z
-x,-y,-z
x,-y,1/2+z
1/2+x,1/2+y,z
1/2-x,1/2+y,1/2-z
1/2-x,1/2-y,-z
1/2+x,1/2-y,1/2+z
loop_
_atom_site_type_symbol
_atom_site_label
_atom_site_fract_x
_atom_site_fract_y
_atom_site_fract_z
Si Si1 0.823844 0.652097 0.113907
Si Si2 0.169060 0.165055 0.731475
Si Si3 0.500000 0.245078 0.250000
Si Si4 0.226046 0.035192 0.440932
Si Si5 0.885123 0.386165 0.954396
O O1 0.857398 0.758673 0.168795
O O2 0.738037 0.515533 0.189847
O O3 0.793541 0.822701 0.076511
O O4 0.893427 0.513935 0.024530
O O5 0.081176 0.129908 0.734797
O O6 0.221267 0.340988 0.656289
O O7 0.538406 0.112246 0.157549
O O8 0.135843 0.160535 0.513860
O O9 0.291477 0.041776 0.472905
#
# Coordination Sequence:
#
# PCOD9279954 Si02
#       5
#     8   8   4   8   8
#     4  11  19  36  64  88 107 158 201 233 271 358
#     4  10  21  36  62  85 120 148 195 237 290 332
#     4  10  22  42  52  86 128 152 176 252 296 334
#     4   9  18  37  58  87 112 153 195 238 276 351
#     4   9  20  35  59  83 121 150 190 236 292 335
#
# _framework density 20.189879999999999
#
# number of rings (size 3 to 8) (size 9 to 14) (size 15 to 20)
#    0.000    2.222    2.222    2.000    0.000    0.889 
#    0.000   11.111    0.000    0.000    0.000    0.000 
#    0.000    0.000    0.000    0.000    0.000    0.000 
#
# Total GULP energy -100425.379982 kJ/mol
# GULP energy per Si atom -5579.187777 kJ/mol
# Density = 2.014393 g / cm^3
# Si number density = 20.189880 Si / 1000 Ang^3
#
#
#
# Elastic Constant Matrix: (Units=GPa)
#
#
# Indices 1 2 3 4 5 6 
#
# 1 57.0564 19.4435 12.1496 0.0021 7.8283 0.0029
# 2 19.4435 88.7879 26.5296 0.0032 10.7307 0.0046
# 3 12.1496 26.5296 122.2956 0.0005 7.4476 0.0006
# 4 0.0021 0.0032 0.0005 5.6486 -0.0004 -12.4275
# 5 7.8283 10.7307 7.4476 -0.0004 28.3395 -0.0006
# 6 0.0029 0.0046 0.0006 -12.4275 -0.0006 -14.7689
#
#
#
# Elastic Compliance Matrix: (Units=1/GPa)
#
#
# Indices 1 2 3 4 5 6 
#
# 1 0.019446 -0.003520 -0.000937 0.000000 -0.003792 0.000003
# 2 -0.003520 0.013129 -0.002291 0.000000 -0.003397 0.000003
# 3 -0.000937 -0.002291 0.008840 0.000000 -0.001197 0.000000
# 4 0.000000 0.000000 0.000000 0.062089 0.000000 -0.052246
# 5 -0.003792 -0.003397 -0.001197 0.000000 0.037935 -0.000003
# 6 0.000003 0.000003 0.000000 -0.052246 -0.000003 -0.023747
#
#
# Mechanical properties :
#
#
# Convention : Reuss Voigt Hill
#
# Bulk Modulus (GPa) = 35.82030 42.70949 39.26489
# Shear Modulus (GPa) = 35.58852 17.84499 26.71676
#
# Velocity S-wave (km/s) = 4.20300 2.97620 3.64163
# Velocity P-wave (km/s) = 6.42914 5.74545 6.09688
#
# Compressibility (1/GPa) = 0.02791713
#
# Stress axis : x y z
#
# Youngs Moduli (GPa) = 51.42450 76.16818 113.12226
#
# Poissons Ratio (x) = 0.26811 0.10603
# Poissons Ratio (y) = 0.18102 0.25922
# Poissons Ratio (z) = 0.04820 0.17454
#
# Static dielectric constant tensor:
#      x y z
#    x 1.742750 0.000000 0.007580 
#    y 0.000000 1.679370 0.000000 
#    z 0.007580 0.000000 1.763540 
# 
# From -- ./inp_files/207943.got.cif
#   From: 2010.05.17/outbox.cif.g08.bks.cpg/sg15_104_cif.got.tgz:207943.got - 2010.06.03 18:47:42.
