data_PCOD9279386
_publ_section_title
;
Structure prediction by ZEFSAII (Michael W. Deem and Ramdas Pophale) SiO2 
 PCOD9279386
Probable space group: C 2/C
;
_chemical_formula_sum "Si O2"
_cell_formula_units_Z 52
_cell_length_a 12.253708
_cell_length_b 33.773107
_cell_length_c 5.298866
_cell_angle_alpha 90.000000
_cell_angle_beta 88.293585
_cell_angle_gamma 90.000000
_cell_volume 2191.940907
_symmetry_space_group_name_H-M "C 2/C"
_symmetry_group_IT_number 15
_symmetry_cell_setting 'monoclinic'
loop_
_space_group_symop_operation_xyz
x,y,z
-x,y,1/2-z
-x,-y,-z
x,-y,1/2+z
1/2+x,1/2+y,z
1/2-x,1/2+y,1/2-z
1/2-x,1/2-y,-z
1/2+x,1/2-y,1/2+z
loop_
_atom_site_type_symbol
_atom_site_label
_atom_site_fract_x
_atom_site_fract_y
_atom_site_fract_z
Si Si1 0.298136 0.815442 0.899240
Si Si2 0.177086 0.598422 0.206918
Si Si3 0.312274 0.597940 0.703873
Si Si4 0.408126 0.667656 0.442482
Si Si5 0.876668 0.984803 0.035238
Si Si6 0.659632 0.736053 0.806277
Si Si7 0.000000 0.528487 0.250000
O O1 0.361858 0.857665 0.894952
O O2 0.203220 0.826322 0.706035
O O3 0.370322 0.777273 0.822982
O O4 0.225970 0.795869 0.130106
O O5 0.216942 0.601158 0.496314
O O6 0.098287 0.560500 0.207514
O O7 0.271800 0.591632 0.990464
O O8 0.383620 0.636833 0.663527
O O9 0.379251 0.560547 0.605401
O O10 0.500000 0.652629 0.250000
O O11 0.432658 0.711363 0.543484
O O12 0.821050 0.006857 0.272888
O O13 0.000000 0.000000 0.000000
O O14 0.750000 0.750000 0.000000
O O15 0.000000 0.500000 0.500000
#
# Coordination Sequence:
#
# PCOD9279386 Si02
#       7
#     8   8   8   8   8   8   4
#     4   9  19  38  62  91 127 178 219 270 333 406
#     4  11  24  45  70  99 129 172 224 271 360 403
#     4  11  23  41  66  93 133 180 215 264 330 412
#     4  10  21  35  58  93 134 179 225 267 319 390
#     4  10  22  38  55  83 122 164 216 256 309 363
#     4   9  17  36  61  87 127 171 219 270 321 387
#     4  12  28  50  76 106 132 164 228 316 356 418
#
# _framework density 23.723265000000001
#
# number of rings (size 3 to 8) (size 9 to 14) (size 15 to 20)
#    0.000    1.846    1.538    1.846    2.154    4.308 
#    2.769    4.615    0.000    0.000    0.000    0.000 
#    0.000    0.000    0.000    0.000    0.000    0.000 
#
# Total GULP energy -144937.589127 kJ/mol
# GULP energy per Si atom -5574.522659 kJ/mol
# Density = 2.366927 g / cm^3
# Si number density = 23.723265 Si / 1000 Ang^3
#
#
#
# Elastic Constant Matrix: (Units=GPa)
#
#
# Indices 1 2 3 4 5 6 
#
# 1 41.7632 25.9706 15.0978 0.0000 -6.8088 0.0000
# 2 25.9706 206.0273 38.7272 0.0000 -17.4875 0.0000
# 3 15.0978 38.7272 118.9439 0.0000 1.7201 0.0000
# 4 0.0000 0.0000 0.0000 50.6648 0.0000 1.4854
# 5 -6.8088 -17.4875 1.7201 0.0000 30.1254 0.0000
# 6 0.0000 0.0000 0.0000 1.4854 0.0000 5.0671
#
#
#
# Elastic Compliance Matrix: (Units=1/GPa)
#
#
# Indices 1 2 3 4 5 6 
#
# 1 0.027283 -0.002516 -0.002714 0.000000 0.004861 0.000000
# 2 -0.002516 0.005709 -0.001580 0.000000 0.002835 0.000000
# 3 -0.002714 -0.001580 0.009296 0.000000 -0.002062 0.000000
# 4 0.000000 0.000000 0.000000 0.019909 0.000000 -0.005836
# 5 0.004861 0.002835 -0.002062 0.000000 0.036057 0.000000
# 6 0.000000 0.000000 0.000000 -0.005836 0.000000 0.199062
#
#
# Mechanical properties :
#
#
# Convention : Reuss Voigt Hill
#
# Bulk Modulus (GPa) = 34.88415 58.48061 46.68238
# Shear Modulus (GPa) = 15.60103 36.30072 25.95088
#
# Velocity S-wave (km/s) = 2.56720 3.91599 3.31100
# Velocity P-wave (km/s) = 4.85015 6.71947 5.85983
#
# Compressibility (1/GPa) = 0.02866631
#
# Stress axis : x y z
#
# Youngs Moduli (GPa) = 36.65288 175.17324 107.57123
#
# Poissons Ratio (x) = 0.44081 0.29195
# Poissons Ratio (y) = 0.09223 0.16999
# Poissons Ratio (z) = 0.09948 0.27682
#
# Static dielectric constant tensor:
#      x y z
#    x 1.963960 0.000000 0.053590 
#    y 0.000000 1.998430 0.000000 
#    z 0.053590 0.000000 1.984210 
# 
# From -- ./inp_files/9005.got.cif
#   From: 2010.05.17/outbox.cif.g08.bks.cpg/sg15_5_cif.got.tgz:9005.got - 2010.06.03 18:47:42.
