data_PCOD9279777
_publ_section_title
;
Structure prediction by ZEFSAII (Michael W. Deem and Ramdas Pophale) SiO2 
 PCOD9279777
Probable space group: C 2/C
;
_chemical_formula_sum "Si O2"
_cell_formula_units_Z 56
_cell_length_a 18.332325
_cell_length_b 9.211363
_cell_length_c 29.349010
_cell_angle_alpha 90.000000
_cell_angle_beta 32.766328
_cell_angle_gamma 90.000000
_cell_volume 2682.279468
_symmetry_space_group_name_H-M "C 2/C"
_symmetry_group_IT_number 15
_symmetry_cell_setting 'monoclinic'
loop_
_space_group_symop_operation_xyz
x,y,z
-x,y,1/2-z
-x,-y,-z
x,-y,1/2+z
1/2+x,1/2+y,z
1/2-x,1/2+y,1/2-z
1/2-x,1/2-y,-z
1/2+x,1/2-y,1/2+z
loop_
_atom_site_type_symbol
_atom_site_label
_atom_site_fract_x
_atom_site_fract_y
_atom_site_fract_z
Si Si1 0.037573 0.193476 0.607662
Si Si2 0.168520 0.564458 0.280837
Si Si3 0.004687 0.625868 0.695001
Si Si4 0.483399 0.632275 0.131986
Si Si5 0.371601 0.153531 0.350918
Si Si6 0.367765 0.833333 0.035226
Si Si7 0.980904 0.388050 0.451676
O O1 0.118953 0.255547 0.607569
O O2 0.078197 0.246308 0.536471
O O3 0.893740 0.273739 0.690067
O O4 0.049638 0.022668 0.602216
O O5 0.326589 0.589250 0.204638
O O6 0.093119 0.478476 0.362420
O O7 0.117175 0.471527 0.263734
O O8 0.130054 0.511970 0.629648
O O9 0.000000 0.667423 0.750000
O O10 0.003957 0.769313 0.665605
O O11 0.540539 0.737913 0.062985
O O12 0.500000 0.157890 0.250000
O O13 0.256452 0.235684 0.383785
O O14 0.466086 0.848721 0.026290
O O15 0.356979 0.999724 0.022857
#
# Coordination Sequence:
#
# PCOD9279777 Si02
#       7
#     8   8   8   8   8   8   8
#     4  10  21  36  58  91 117 163 204 254 318 366
#     4   9  19  37  61  89 121 165 209 257 307 376
#     4   9  20  37  56  88 123 160 202 258 321 360
#     4  11  21  35  61  90 130 155 208 260 312 367
#     4  10  22  38  65  85 116 164 216 250 308 376
#     4  10  21  41  61  85 122 161 214 251 298 392
#     4   9  21  38  62  87 122 166 202 252 319 359
#
# _framework density 20.877763999999999
#
# number of rings (size 3 to 8) (size 9 to 14) (size 15 to 20)
#    0.000    2.286    0.000    3.000    8.000    1.143 
#    0.000    2.857    0.000    0.000    0.000    0.000 
#    0.000    0.000    0.000    0.000    0.000    0.000 
#
# Total GULP energy -155912.875768 kJ/mol
# GULP energy per Si atom -5568.316992 kJ/mol
# Density = 2.083025 g / cm^3
# Si number density = 20.877764 Si / 1000 Ang^3
#
#
#
# Elastic Constant Matrix: (Units=GPa)
#
#
# Indices 1 2 3 4 5 6 
#
# 1 96.5682 59.9475 31.1903 0.0000 29.8130 -0.0004
# 2 59.9475 167.0176 7.3955 -0.0001 28.3774 -0.0010
# 3 31.1903 7.3955 23.3678 -0.0001 18.9101 -0.0001
# 4 0.0000 -0.0001 -0.0001 27.0488 0.0000 42.5606
# 5 29.8130 28.3774 18.9101 0.0000 29.1650 0.0000
# 6 -0.0004 -0.0010 -0.0001 42.5606 0.0000 77.4327
#
#
#
# Elastic Compliance Matrix: (Units=1/GPa)
#
#
# Indices 1 2 3 4 5 6 
#
# 1 0.025480 -0.008465 -0.035594 0.000000 0.005269 0.000000
# 2 -0.008465 0.010594 0.019534 -0.000001 -0.014321 0.000001
# 3 -0.035594 0.019534 0.147396 -0.000001 -0.078191 0.000001
# 4 0.000000 -0.000001 -0.000001 0.273553 0.000002 -0.150357
# 5 0.005269 -0.014321 -0.078191 0.000002 0.093534 -0.000001
# 6 0.000000 0.000001 0.000001 -0.150357 -0.000001 0.095558
#
#
# Mechanical properties :
#
#
# Convention : Reuss Voigt Hill
#
# Bulk Modulus (GPa) = 7.43929 53.78002 30.60966
# Shear Modulus (GPa) = 6.75702 39.29066 23.02384
#
# Velocity S-wave (km/s) = 1.80097 4.34284 3.32443
# Velocity P-wave (km/s) = 2.80992 7.13879 5.42485
#
# Compressibility (1/GPa) = 0.13442137
#
# Stress axis : x y z
#
# Youngs Moduli (GPa) = 39.24667 94.39499 6.78443
#
# Poissons Ratio (x) = 0.79901 0.24149
# Poissons Ratio (y) = 0.33220 -0.13253
# Poissons Ratio (z) = 1.39695 -1.84394
#
# Static dielectric constant tensor:
#      x y z
#    x 1.854250 0.000000 -0.128470 
#    y 0.000000 1.780020 0.000000 
#    z -0.128470 0.000000 1.909910 
# 
# From -- ./inp_files/315488.got.cif
#   From: 2010.05.17/outbox.cif.g08.bks.cpg/sg15_158_cif.got.tgz:315488.got - 2010.06.03 18:47:42.
