data_PCOD9279007
_publ_section_title
;
Structure prediction by ZEFSAII (Michael W. Deem and Ramdas Pophale) SiO2 
 PCOD9279007
Probable space group: C 2/C
;
_chemical_formula_sum "Si O2"
_cell_formula_units_Z 48
_cell_length_a 18.997982
_cell_length_b 31.918044
_cell_length_c 5.200488
_cell_angle_alpha 90.000000
_cell_angle_beta 71.411044
_cell_angle_gamma 90.000000
_cell_volume 2988.947122
_symmetry_space_group_name_H-M "C 2/C"
_symmetry_group_IT_number 15
_symmetry_cell_setting 'monoclinic'
loop_
_space_group_symop_operation_xyz
x,y,z
-x,y,1/2-z
-x,-y,-z
x,-y,1/2+z
1/2+x,1/2+y,z
1/2-x,1/2+y,1/2-z
1/2-x,1/2-y,-z
1/2+x,1/2-y,1/2+z
loop_
_atom_site_type_symbol
_atom_site_label
_atom_site_fract_x
_atom_site_fract_y
_atom_site_fract_z
Si Si1 0.089724 0.477199 0.618537
Si Si2 0.839619 0.656964 0.986123
Si Si3 0.912307 0.380573 0.905544
Si Si4 0.175447 0.833142 0.562701
Si Si5 0.087513 0.820643 0.177504
Si Si6 0.179840 0.250136 0.775460
O O1 0.117220 0.508537 0.365673
O O2 0.104547 0.429462 0.523066
O O3 0.000000 0.480443 0.750000
O O4 0.888006 0.647365 0.677030
O O5 0.869334 0.631783 0.196514
O O6 0.754943 0.645758 0.007716
O O7 0.839232 0.705024 0.086110
O O8 0.000000 0.376246 0.750000
O O9 0.125154 0.844571 0.375319
O O10 0.193916 0.784205 0.480892
O O11 0.128117 0.835316 0.873998
O O12 0.111486 0.772167 0.203555
O O13 0.000000 0.824864 0.250000
O O14 0.250000 0.250000 0.500000
#
# Coordination Sequence:
#
# PCOD9279007 Si02
#       6
#     8   8   8   8   8   8
#     4   9  17  33  55  70  93 133 170 202 241 298
#     4  12  21  35  52  69 101 135 164 213 270 307
#     4  11  24  36  48  79 107 128 171 220 260 302
#     4  10  21  35  52  67  88 131 172 203 256 317
#     4  10  21  34  51  70  89 113 177 230 244 277
#     4  10  21  34  53  64  92 130 180 205 250 321
#
# _framework density 16.059166000000001
#
# number of rings (size 3 to 8) (size 9 to 14) (size 15 to 20)
#    1.000    0.667    1.667    4.500    2.333    3.333 
#    3.000    0.000    0.000    0.000    0.000    0.000 
#    0.000    0.000    0.000    0.000    0.000  210.000 
#
# Total GULP energy -133680.905919 kJ/mol
# GULP energy per Si atom -5570.037747 kJ/mol
# Density = 1.602262 g / cm^3
# Si number density = 16.059166 Si / 1000 Ang^3
#
#
#
# Elastic Constant Matrix: (Units=GPa)
#
#
# Indices 1 2 3 4 5 6 
#
# 1 57.0529 25.1344 43.1527 0.0000 -5.2503 0.0000
# 2 25.1344 38.9532 28.2924 0.0000 -5.9703 0.0000
# 3 43.1527 28.2924 136.0671 0.0000 0.5515 0.0000
# 4 0.0000 0.0000 0.0000 20.3990 0.0000 1.2286
# 5 -5.2503 -5.9703 0.5515 0.0000 26.7298 0.0000
# 6 0.0000 0.0000 0.0000 1.2286 0.0000 1.7133
#
#
#
# Elastic Compliance Matrix: (Units=1/GPa)
#
#
# Indices 1 2 3 4 5 6 
#
# 1 0.028381 -0.013370 -0.006232 0.000000 0.002717 0.000000
# 2 -0.013370 0.037859 -0.003656 0.000000 0.005905 0.000000
# 3 -0.006232 -0.003656 0.010095 0.000000 -0.002249 0.000000
# 4 0.000000 0.000000 0.000000 0.051235 0.000000 -0.036739
# 5 0.002717 0.005905 -0.002249 0.000000 0.039310 0.000000
# 6 0.000000 0.000000 0.000000 -0.036739 0.000000 0.610004
#
#
# Mechanical properties :
#
#
# Convention : Reuss Voigt Hill
#
# Bulk Modulus (GPa) = 33.53468 47.24801 40.39134
# Shear Modulus (GPa) = 5.99995 18.80135 12.40065
#
# Velocity S-wave (km/s) = 1.93501 3.42534 2.78184
# Velocity P-wave (km/s) = 5.09113 6.71781 5.96023
#
# Compressibility (1/GPa) = 0.02981988
#
# Stress axis : x y z
#
# Youngs Moduli (GPa) = 35.23434 26.41363 99.05932
#
# Poissons Ratio (x) = 0.35316 0.61733
# Poissons Ratio (y) = 0.47109 0.36213
# Poissons Ratio (z) = 0.21958 0.09656
#
# Static dielectric constant tensor:
#      x y z
#    x 1.548150 0.000000 0.027830 
#    y 0.000000 1.552300 0.000000 
#    z 0.027830 0.000000 1.550980 
# 
# From -- ./inp_files/8753.got.cif
#   From: 2010.05.17/outbox.cif.g08.bks.cpg/sg15_5_cif.got.tgz:8753.got - 2010.06.03 18:47:42.
