data_PCOD9279762
_publ_section_title
;
Structure prediction by ZEFSAII (Michael W. Deem and Ramdas Pophale) SiO2 
 PCOD9279762
Probable space group: C 2/C
;
_chemical_formula_sum "Si O2"
_cell_formula_units_Z 64
_cell_length_a 12.559866
_cell_length_b 31.028594
_cell_length_c 8.587119
_cell_angle_alpha 90.000000
_cell_angle_beta 95.170394
_cell_angle_gamma 90.000000
_cell_volume 3332.912234
_symmetry_space_group_name_H-M "C 2/C"
_symmetry_group_IT_number 15
_symmetry_cell_setting 'monoclinic'
loop_
_space_group_symop_operation_xyz
x,y,z
-x,y,1/2-z
-x,-y,-z
x,-y,1/2+z
1/2+x,1/2+y,z
1/2-x,1/2+y,1/2-z
1/2-x,1/2-y,-z
1/2+x,1/2-y,1/2+z
loop_
_atom_site_type_symbol
_atom_site_label
_atom_site_fract_x
_atom_site_fract_y
_atom_site_fract_z
Si Si1 0.871854 0.201934 0.228987
Si Si2 0.744816 0.159750 0.491149
Si Si3 0.733586 0.636089 0.514053
Si Si4 0.305641 0.029345 0.859150
Si Si5 0.428459 0.909070 0.588778
Si Si6 0.874715 0.908539 0.203794
Si Si7 0.367582 0.940765 0.018838
Si Si8 0.871593 0.300695 0.223826
O O1 0.808470 0.189335 0.378166
O O2 0.844365 0.251158 0.182226
O O3 0.000000 0.200346 0.250000
O O4 0.836641 0.166226 0.101399
O O5 0.641711 0.134059 0.409310
O O6 0.830091 0.123964 0.564595
O O7 0.691891 0.186051 0.627192
O O8 0.671034 0.615365 0.649699
O O9 0.784579 0.594375 0.442770
O O10 0.827785 0.666201 0.591285
O O11 0.182044 0.044898 0.828436
O O12 0.348900 0.044867 0.695743
O O13 0.345987 0.055552 0.016010
O O14 0.348679 0.982049 0.906241
O O15 0.500000 0.916508 0.750000
O O16 0.519857 0.915892 0.470308
O O17 0.000000 0.912263 0.250000
O O18 0.000000 0.304482 0.250000
#
# Coordination Sequence:
#
# PCOD9279762 Si02
#       8
#     8   8   8   8   8   8   8   8
#     4  11  22  37  58  85 116 149 191 243 293 343
#     4  10  21  36  58  88 116 150 194 239 289 348
#     4  10  21  37  58  81 110 150 193 237 289 348
#     4  10  22  36  56  84 115 152 193 235 285 344
#     4  11  21  35  57  83 116 150 185 231 281 343
#     4   9  19  38  59  79 111 154 197 238 285 341
#     4  11  21  37  56  81 115 152 188 234 289 347
#     4  10  21  38  59  83 115 153 191 237 295 354
#
# _framework density 19.202425000000002
#
# number of rings (size 3 to 8) (size 9 to 14) (size 15 to 20)
#    0.000    1.750    0.000    5.250    0.000    1.000 
#    0.000    3.125    0.000    7.500    0.000    0.000 
#    0.000    0.000    0.000    0.000    0.000    0.000 
#
# Total GULP energy -178201.883764 kJ/mol
# GULP energy per Si atom -5568.808868 kJ/mol
# Density = 1.915872 g / cm^3
# Si number density = 19.202425 Si / 1000 Ang^3
#
#
#
# Elastic Constant Matrix: (Units=GPa)
#
#
# Indices 1 2 3 4 5 6 
#
# 1 100.4516 27.0333 7.5003 0.0000 11.7897 0.0000
# 2 27.0333 68.0878 18.8168 0.0000 -2.5747 0.0000
# 3 7.5003 18.8168 52.8397 0.0000 12.6067 0.0000
# 4 0.0000 0.0000 0.0000 18.4772 0.0000 -2.0583
# 5 11.7897 -2.5747 12.6067 0.0000 22.7019 0.0000
# 6 0.0000 0.0000 0.0000 -2.0583 0.0000 28.8736
#
#
#
# Elastic Compliance Matrix: (Units=1/GPa)
#
#
# Indices 1 2 3 4 5 6 
#
# 1 0.012340 -0.005860 0.002332 0.000000 -0.008368 0.000000
# 2 -0.005860 0.019775 -0.008612 0.000000 0.010069 0.000000
# 3 0.002332 -0.008612 0.025571 0.000000 -0.016388 0.000000
# 4 0.000000 0.000000 0.000000 0.054554 0.000000 0.003889
# 5 -0.008368 0.010069 -0.016388 0.000000 0.058637 0.000000
# 6 0.000000 0.000000 0.000000 0.003889 0.000000 0.034911
#
#
# Mechanical properties :
#
#
# Convention : Reuss Voigt Hill
#
# Bulk Modulus (GPa) = 29.93659 36.45333 33.19496
# Shear Modulus (GPa) = 20.72935 25.21246 22.97091
#
# Velocity S-wave (km/s) = 3.28917 3.62744 3.46244
# Velocity P-wave (km/s) = 5.48167 6.04726 5.77140
#
# Compressibility (1/GPa) = 0.03340394
#
# Stress axis : x y z
#
# Youngs Moduli (GPa) = 81.03587 50.57008 39.10697
#
# Poissons Ratio (x) = 0.29636 -0.09119
# Poissons Ratio (y) = 0.47490 0.33680
# Poissons Ratio (z) = -0.18896 0.43552
#
# Static dielectric constant tensor:
#      x y z
#    x 1.714010 0.000000 -0.028540 
#    y 0.000000 1.683770 0.000000 
#    z -0.028540 0.000000 1.698860 
# 
# From -- ./inp_files/35705.got.cif
#   From: 2010.05.17/outbox.cif.g08.bks.cpg/sg15_18_cif.got.tgz:35705.got - 2010.06.03 18:47:42.
