data_PCOD9279204
_publ_section_title
;
Structure prediction by ZEFSAII (Michael W. Deem and Ramdas Pophale) SiO2 
 PCOD9279204
Probable space group: C 2/C
;
_chemical_formula_sum "Si O2"
_cell_formula_units_Z 60
_cell_length_a 29.732562
_cell_length_b 13.699370
_cell_length_c 22.718906
_cell_angle_alpha 90.000000
_cell_angle_beta 17.380982
_cell_angle_gamma 90.000000
_cell_volume 2764.333994
_symmetry_space_group_name_H-M "C 2/C"
_symmetry_group_IT_number 15
_symmetry_cell_setting 'monoclinic'
loop_
_space_group_symop_operation_xyz
x,y,z
-x,y,1/2-z
-x,-y,-z
x,-y,1/2+z
1/2+x,1/2+y,z
1/2-x,1/2+y,1/2-z
1/2-x,1/2-y,-z
1/2+x,1/2-y,1/2+z
loop_
_atom_site_type_symbol
_atom_site_label
_atom_site_fract_x
_atom_site_fract_y
_atom_site_fract_z
Si Si1 0.081882 0.204788 0.367125
Si Si2 0.327757 0.336646 0.101296
Si Si3 0.140320 0.565508 0.944553
Si Si4 0.361524 0.462253 0.507211
Si Si5 0.899867 0.281635 0.776136
Si Si6 0.000000 0.156249 0.750000
Si Si7 0.086442 0.589205 0.423153
Si Si8 0.585091 0.391494 0.322481
O O1 0.000001 0.170988 0.409132
O O2 0.998266 0.309953 0.476787
O O3 0.030710 0.123733 0.478906
O O4 0.251629 0.239931 0.169134
O O5 0.227959 0.371618 0.283396
O O6 0.319954 0.424864 0.064599
O O7 0.113036 0.457856 0.953627
O O8 0.259592 0.564814 0.848483
O O9 0.982670 0.617403 0.158294
O O10 0.369871 0.420297 0.430862
O O11 0.241925 0.402347 0.694475
O O12 0.514499 0.445967 0.354288
O O13 0.886889 0.219078 0.733657
O O14 0.014837 0.227285 0.676398
O O15 0.750000 0.250000 0.000000
O O16 0.000000 0.500000 0.500000
#
# Coordination Sequence:
#
# PCOD9279204 Si02
#       8
#     8   8   8   8   8   4   8   8
#     4  11  20  34  55  87 109 156 182 251 289 354
#     4  10  21  35  59  81 120 145 200 242 303 351
#     4  10  21  35  50  84 114 156 187 245 291 344
#     4  10  22  39  54  85 111 158 193 242 296 349
#     4  11  21  33  53  80 115 158 191 230 281 354
#     4  10  24  34  58  80 110 158 194 228 276 362
#     4  11  20  33  58  81 118 146 193 240 292 347
#     4  10  21  35  54  76 121 145 194 239 293 349
#
# _framework density 21.705047
#
# number of rings (size 3 to 8) (size 9 to 14) (size 15 to 20)
#    0.000    1.600    4.000    1.600    9.333    5.867 
#    0.000    0.000    0.000    0.800    0.000    2.800 
#    0.000    0.000    0.000    0.000    0.000    0.000 
#
# Total GULP energy -167065.943314 kJ/mol
# GULP energy per Si atom -5568.864777 kJ/mol
# Density = 2.165565 g / cm^3
# Si number density = 21.705047 Si / 1000 Ang^3
#
#
#
# Elastic Constant Matrix: (Units=GPa)
#
#
# Indices 1 2 3 4 5 6 
#
# 1 58.8681 10.8049 8.4560 -0.0002 -9.8704 -0.0001
# 2 10.8049 73.9352 10.5359 -0.0005 9.5427 0.0000
# 3 8.4560 10.5359 66.6831 -0.0010 0.4029 -0.0006
# 4 -0.0002 -0.0005 -0.0010 28.2081 0.0002 -5.0022
# 5 -9.8704 9.5427 0.4029 0.0002 29.3660 0.0004
# 6 -0.0001 0.0000 -0.0006 -5.0022 0.0004 31.7435
#
#
#
# Elastic Compliance Matrix: (Units=1/GPa)
#
#
# Indices 1 2 3 4 5 6 
#
# 1 0.019185 -0.003513 -0.001924 0.000000 0.007616 0.000000
# 2 -0.003513 0.015092 -0.001902 0.000000 -0.006059 0.000000
# 3 -0.001924 -0.001902 0.015542 0.000001 -0.000242 0.000000
# 4 0.000000 0.000000 0.000001 0.036470 0.000000 0.005747
# 5 0.007616 -0.006059 -0.000242 0.000000 0.038585 0.000000
# 6 0.000000 0.000000 0.000000 0.005747 0.000000 0.032408
#
#
# Mechanical properties :
#
#
# Convention : Reuss Voigt Hill
#
# Bulk Modulus (GPa) = 28.45645 28.78668 28.62156
# Shear Modulus (GPa) = 27.22212 29.17617 28.19915
#
# Velocity S-wave (km/s) = 3.54529 3.67033 3.60835
# Velocity P-wave (km/s) = 5.46788 5.59045 5.52951
#
# Compressibility (1/GPa) = 0.03514142
#
# Stress axis : x y z
#
# Youngs Moduli (GPa) = 52.12346 66.26126 64.34051
#
# Poissons Ratio (x) = 0.23275 0.12378
# Poissons Ratio (y) = 0.18309 0.12240
# Poissons Ratio (z) = 0.10028 0.12606
#
# Static dielectric constant tensor:
#      x y z
#    x 2.009520 0.000000 -0.155470 
#    y 0.000000 1.840370 0.000000 
#    z -0.155470 0.000000 1.944020 
# 
# From -- ./inp_files/257846.got.cif
#   From: 2010.05.17/outbox.cif.g08.bks.cpg/sg15_129_cif.got.tgz:257846.got - 2010.06.03 18:47:42.
