data_PCOD9279943
_publ_section_title
;
Structure prediction by ZEFSAII (Michael W. Deem and Ramdas Pophale) SiO2 
 PCOD9279943
Probable space group: C 2/C
;
_chemical_formula_sum "Si O2"
_cell_formula_units_Z 52
_cell_length_a 26.596564
_cell_length_b 20.481433
_cell_length_c 5.144653
_cell_angle_alpha 90.000000
_cell_angle_beta 73.479333
_cell_angle_gamma 90.000000
_cell_volume 2686.782379
_symmetry_space_group_name_H-M "C 2/C"
_symmetry_group_IT_number 15
_symmetry_cell_setting 'monoclinic'
loop_
_space_group_symop_operation_xyz
x,y,z
-x,y,1/2-z
-x,-y,-z
x,-y,1/2+z
1/2+x,1/2+y,z
1/2-x,1/2+y,1/2-z
1/2-x,1/2-y,-z
1/2+x,1/2-y,1/2+z
loop_
_atom_site_type_symbol
_atom_site_label
_atom_site_fract_x
_atom_site_fract_y
_atom_site_fract_z
Si Si1 0.292268 0.292764 0.686890
Si Si2 0.714392 0.853860 0.439352
Si Si3 0.642473 0.665406 0.910890
Si Si4 0.062389 0.732349 0.677536
Si Si5 0.500000 0.953912 0.750000
Si Si6 0.200193 0.957533 0.359564
Si Si7 0.407176 0.150491 0.365007
O O1 0.281339 0.215722 0.715031
O O2 0.241091 0.333826 0.676122
O O3 0.332696 0.303895 0.386377
O O4 0.320388 0.316086 0.902261
O O5 0.749803 0.911282 0.272247
O O6 0.653342 0.870928 0.534269
O O7 0.649449 0.587873 0.880260
O O8 0.587815 0.698307 0.064806
O O9 0.083315 0.682774 0.428483
O O10 0.000000 0.734082 0.750000
O O11 0.080724 0.704054 0.928394
O O12 0.551044 0.907488 0.664786
O O13 0.500000 0.000000 0.500000
O O14 0.201001 0.984488 0.649227
#
# Coordination Sequence:
#
# PCOD9279943 Si02
#       7
#     8   8   8   8   4   8   8
#     4  10  21  36  61  98 123 154 198 255 328 377
#     4  10  22  38  63  91 128 158 203 255 309 366
#     4  11  21  40  64  91 124 163 198 256 325 370
#     4  12  22  40  65  97 124 147 209 270 328 353
#     4  12  26  46  62  82 124 180 212 246 302 362
#     4  11  25  40  58  86 129 169 204 236 293 384
#     4  12  24  41  64  94 121 162 208 269 303 360
#
# _framework density 19.354002999999999
#
# number of rings (size 3 to 8) (size 9 to 14) (size 15 to 20)
#    0.000    0.923    4.615    2.769    0.000   11.692 
#    0.000    0.000    0.000    0.923    0.000    0.000 
#    0.000    0.000    0.000    0.000    0.000    0.000 
#
# Total GULP energy -145364.074569 kJ/mol
# GULP energy per Si atom -5590.925945 kJ/mol
# Density = 1.930995 g / cm^3
# Si number density = 19.354003 Si / 1000 Ang^3
#
#
#
# Elastic Constant Matrix: (Units=GPa)
#
#
# Indices 1 2 3 4 5 6 
#
# 1 60.1753 8.6103 12.0337 0.0000 -12.8154 0.0000
# 2 8.6103 69.9702 3.8218 0.0000 -12.0437 0.0000
# 3 12.0337 3.8218 81.0907 0.0000 8.9563 0.0000
# 4 0.0000 0.0000 0.0000 37.7409 0.0000 -7.3068
# 5 -12.8154 -12.0437 8.9563 0.0000 32.3730 0.0000
# 6 0.0000 0.0000 0.0000 -7.3068 0.0000 32.7880
#
#
#
# Elastic Compliance Matrix: (Units=1/GPa)
#
#
# Indices 1 2 3 4 5 6 
#
# 1 0.019259 -0.000720 -0.003751 0.000000 0.008394 0.000000
# 2 -0.000720 0.015450 -0.001263 0.000000 0.005812 0.000000
# 3 -0.003751 -0.001263 0.013579 0.000000 -0.005712 0.000000
# 4 0.000000 0.000000 0.000000 0.027691 0.000000 0.006171
# 5 0.008394 0.005812 -0.005712 0.000000 0.037955 0.000000
# 6 0.000000 0.000000 0.000000 0.006171 0.000000 0.031874
#
#
# Mechanical properties :
#
#
# Convention : Reuss Voigt Hill
#
# Bulk Modulus (GPa) = 27.16025 28.90753 28.03389
# Shear Modulus (GPa) = 29.48980 33.03176 31.26078
#
# Velocity S-wave (km/s) = 3.90770 4.13572 4.02333
# Velocity P-wave (km/s) = 5.86720 6.14607 6.00826
#
# Compressibility (1/GPa) = 0.03681851
#
# Stress axis : x y z
#
# Youngs Moduli (GPa) = 51.92398 64.72561 73.64370
#
# Poissons Ratio (x) = 0.04662 0.27625
# Poissons Ratio (y) = 0.03740 0.09303
# Poissons Ratio (z) = 0.19477 0.08176
#
# Static dielectric constant tensor:
#      x y z
#    x 1.672730 0.000000 -0.006240 
#    y 0.000000 1.700530 0.000000 
#    z -0.006240 0.000000 1.708500 
# 
# From -- ./inp_files/17047.got.cif
#   From: 2010.05.17/outbox.cif.g08.bks.cpg/sg15_9_cif.got.tgz:17047.got - 2010.06.03 18:47:42.
