data_PCOD9279057
_publ_section_title
;
Structure prediction by ZEFSAII (Michael W. Deem and Ramdas Pophale) SiO2 
 PCOD9279057
Probable space group: C 2/C
;
_chemical_formula_sum "Si O2"
_cell_formula_units_Z 52
_cell_length_a 14.601917
_cell_length_b 24.330875
_cell_length_c 12.780105
_cell_angle_alpha 90.000000
_cell_angle_beta 150.893626
_cell_angle_gamma 90.000000
_cell_volume 2208.638723
_symmetry_space_group_name_H-M "C 2/C"
_symmetry_group_IT_number 15
_symmetry_cell_setting 'monoclinic'
loop_
_space_group_symop_operation_xyz
x,y,z
-x,y,1/2-z
-x,-y,-z
x,-y,1/2+z
1/2+x,1/2+y,z
1/2-x,1/2+y,1/2-z
1/2-x,1/2-y,-z
1/2+x,1/2-y,1/2+z
loop_
_atom_site_type_symbol
_atom_site_label
_atom_site_fract_x
_atom_site_fract_y
_atom_site_fract_z
Si Si1 0.274286 0.498876 0.264935
Si Si2 0.948114 0.798339 0.414267
Si Si3 0.760119 0.410846 0.921677
Si Si4 0.500000 0.649443 0.750000
Si Si5 0.816386 0.108186 0.918318
Si Si6 0.117822 0.672537 0.119762
Si Si7 0.642159 0.085602 0.304579
O O1 0.500000 0.500000 0.500000
O O2 0.208096 0.527715 0.091736
O O3 0.236092 0.436139 0.255956
O O4 0.193654 0.538487 0.273912
O O5 0.813972 0.832821 0.358717
O O6 0.952676 0.734487 0.447409
O O7 0.916397 0.812983 0.260613
O O8 0.158338 0.820127 0.640452
O O9 0.539964 0.401292 0.668080
O O10 0.886357 0.365786 0.986990
O O11 0.774323 0.402361 0.059177
O O12 0.334821 0.609674 0.544755
O O13 0.050974 0.636716 0.150894
O O14 0.500000 0.066567 0.250000
#
# Coordination Sequence:
#
# PCOD9279057 Si02
#       7
#     8   8   8   4   8   8   8
#     4   9  17  33  59  85 115 156 200 245 303 366
#     4  10  21  34  55  84 111 156 196 244 294 360
#     4   8  16  32  53  81 111 150 189 247 297 351
#     4  10  22  36  56  88 122 152 202 250 298 360
#     4   9  17  31  55  81 110 148 201 237 293 366
#     4   9  20  35  54  81 116 149 199 240 301 355
#     4  10  22  37  60  90 122 159 202 247 309 367
#
# _framework density 23.543914000000001
#
# number of rings (size 3 to 8) (size 9 to 14) (size 15 to 20)
#    0.000    2.769    0.000    2.769    3.231    5.538 
#    0.000    0.000    3.385    7.385    0.000    0.000 
#    0.000    0.000    0.000    0.000    0.000    0.000 
#
# Total GULP energy -145331.908465 kJ/mol
# GULP energy per Si atom -5589.688787 kJ/mol
# Density = 2.349033 g / cm^3
# Si number density = 23.543914 Si / 1000 Ang^3
#
#
#
# Elastic Constant Matrix: (Units=GPa)
#
#
# Indices 1 2 3 4 5 6 
#
# 1 142.3374 55.9349 35.2368 0.0000 -18.0200 0.0000
# 2 55.9349 152.8833 51.7475 0.0000 -16.6384 0.0000
# 3 35.2368 51.7475 85.9326 0.0000 -11.3329 0.0000
# 4 0.0000 0.0000 0.0000 30.0565 0.0000 7.8839
# 5 -18.0200 -16.6384 -11.3329 0.0000 25.9188 0.0000
# 6 0.0000 0.0000 0.0000 7.8839 0.0000 19.6375
#
#
#
# Elastic Compliance Matrix: (Units=1/GPa)
#
#
# Indices 1 2 3 4 5 6 
#
# 1 0.008830 -0.002200 -0.001775 0.000000 0.003951 0.000000
# 2 -0.002200 0.009039 -0.004221 0.000000 0.002427 0.000000
# 3 -0.001775 -0.004221 0.015267 0.000000 0.002732 0.000000
# 4 0.000000 0.000000 0.000000 0.037187 0.000000 -0.014929
# 5 0.003951 0.002427 0.002732 0.000000 0.044081 0.000000
# 6 0.000000 0.000000 0.000000 -0.014929 0.000000 0.056917
#
#
# Mechanical properties :
#
#
# Convention : Reuss Voigt Hill
#
# Bulk Modulus (GPa) = 59.72263 74.11018 66.91641
# Shear Modulus (GPa) = 25.86763 31.00483 28.43623
#
# Velocity S-wave (km/s) = 3.31826 3.63284 3.47911
# Velocity P-wave (km/s) = 6.33266 7.01017 6.68001
#
# Compressibility (1/GPa) = 0.01674407
#
# Stress axis : x y z
#
# Youngs Moduli (GPa) = 113.25630 110.63729 65.50162
#
# Poissons Ratio (x) = 0.24337 0.11626
# Poissons Ratio (y) = 0.24913 0.27647
# Poissons Ratio (z) = 0.20102 0.46697
#
# Static dielectric constant tensor:
#      x y z
#    x 1.905490 0.000000 0.044810 
#    y 0.000000 1.872050 0.000000 
#    z 0.044810 0.000000 1.932920 
# 
# From -- ./inp_files/100703.got.cif
#   From: 2010.05.17/outbox.cif.g08.bks.cpg/sg15_51_cif.got.tgz:100703.got - 2010.06.03 18:47:42.
