data_PCOD9279610
_publ_section_title
;
Structure prediction by ZEFSAII (Michael W. Deem and Ramdas Pophale) SiO2 
 PCOD9279610
Probable space group: C 2/C
;
_chemical_formula_sum "Si O2"
_cell_formula_units_Z 64
_cell_length_a 17.733967
_cell_length_b 11.136769
_cell_length_c 22.709293
_cell_angle_alpha 90.000000
_cell_angle_beta 56.406621
_cell_angle_gamma 90.000000
_cell_volume 3735.992521
_symmetry_space_group_name_H-M "C 2/C"
_symmetry_group_IT_number 15
_symmetry_cell_setting 'monoclinic'
loop_
_space_group_symop_operation_xyz
x,y,z
-x,y,1/2-z
-x,-y,-z
x,-y,1/2+z
1/2+x,1/2+y,z
1/2-x,1/2+y,1/2-z
1/2-x,1/2-y,-z
1/2+x,1/2-y,1/2+z
loop_
_atom_site_type_symbol
_atom_site_label
_atom_site_fract_x
_atom_site_fract_y
_atom_site_fract_z
Si Si1 0.312726 0.844092 0.327396
Si Si2 0.964013 0.635423 0.517456
Si Si3 0.061280 0.151185 0.169878
Si Si4 0.145230 0.273849 0.539482
Si Si5 0.401712 0.641390 0.565663
Si Si6 0.438425 0.143735 0.663978
Si Si7 0.051553 0.980295 0.067303
Si Si8 0.437069 0.049699 0.332286
O O1 0.353880 0.723726 0.339868
O O2 0.204819 0.843337 0.377756
O O3 0.350589 0.853299 0.244096
O O4 0.361191 0.955771 0.340778
O O5 0.884806 0.648916 0.503982
O O6 0.928181 0.659946 0.598974
O O7 0.000000 0.500000 0.500000
O O8 0.042535 0.733389 0.466949
O O9 0.000000 0.106567 0.250000
O O10 0.001768 0.250899 0.161747
O O11 0.074499 0.047344 0.117507
O O12 0.250000 0.250000 0.500000
O O13 0.102382 0.144836 0.546631
O O14 0.106630 0.341609 0.613407
O O15 0.417002 0.565898 0.499327
O O16 0.448701 0.560626 0.596541
O O17 0.495521 0.023515 0.653572
O O18 0.500000 0.086002 0.250000
#
# Coordination Sequence:
#
# PCOD9279610 Si02
#       8
#     8   8   8   8   8   8   8   8
#     4   9  19  35  62  86 108 139 200 239 273 330
#     4  11  21  37  62  79 113 151 189 237 288 337
#     4   9  18  35  59  83 108 144 185 234 277 331
#     4  11  23  36  53  86 114 147 194 231 281 347
#     4  10  21  37  55  83 111 149 186 231 284 343
#     4   9  17  37  59  84 106 146 190 235 282 327
#     4  10  21  36  55  75 117 153 179 223 297 340
#     4   9  18  36  59  79 112 152 186 233 287 338
#
# _framework density 17.130655999999998
#
# number of rings (size 3 to 8) (size 9 to 14) (size 15 to 20)
#    0.000    2.250    2.500    2.250    0.000    2.000 
#    0.000    6.250    0.000    0.000    0.000    0.000 
#    0.000    0.000    0.000    0.000    0.000    0.000 
#
# Total GULP energy -178306.943244 kJ/mol
# GULP energy per Si atom -5572.091976 kJ/mol
# Density = 1.709167 g / cm^3
# Si number density = 17.130656 Si / 1000 Ang^3
#
#
#
# Elastic Constant Matrix: (Units=GPa)
#
#
# Indices 1 2 3 4 5 6 
#
# 1 115.8900 28.5848 69.6365 0.0000 -18.5946 0.0000
# 2 28.5848 75.9208 28.1405 0.0000 -9.4857 0.0000
# 3 69.6365 28.1405 80.3395 0.0000 -2.3077 0.0000
# 4 0.0000 0.0000 0.0000 25.2744 0.0000 8.4306
# 5 -18.5946 -9.4857 -2.3077 0.0000 26.4556 0.0000
# 6 0.0000 0.0000 0.0000 8.4306 0.0000 19.7907
#
#
#
# Elastic Compliance Matrix: (Units=1/GPa)
#
#
# Indices 1 2 3 4 5 6 
#
# 1 0.022188 0.000443 -0.018982 0.000000 0.014098 0.000000
# 2 0.000443 0.015829 -0.005771 0.000000 0.005484 0.000000
# 3 -0.018982 -0.005771 0.030556 0.000000 -0.012746 0.000000
# 4 0.000000 0.000000 0.000000 0.046119 0.000000 -0.019646
# 5 0.014098 0.005484 -0.012746 0.000000 0.048563 0.000000
# 6 0.000000 0.000000 0.000000 -0.019646 0.000000 0.058898
#
#
# Mechanical properties :
#
#
# Convention : Reuss Voigt Hill
#
# Bulk Modulus (GPa) = 50.11884 58.31932 54.21908
# Shear Modulus (GPa) = 18.02307 24.02336 21.02322
#
# Velocity S-wave (km/s) = 3.24712 3.74887 3.50698
# Velocity P-wave (km/s) = 6.58625 7.27025 6.93668
#
# Compressibility (1/GPa) = 0.01995258
#
# Stress axis : x y z
#
# Youngs Moduli (GPa) = 45.07037 63.17534 32.72704
#
# Poissons Ratio (x) = -0.02802 0.62123
# Poissons Ratio (y) = -0.01999 0.18888
# Poissons Ratio (z) = 0.85553 0.36460
#
# Static dielectric constant tensor:
#      x y z
#    x 1.592060 0.000000 0.027100 
#    y 0.000000 1.642530 0.000000 
#    z 0.027100 0.000000 1.579010 
# 
# From -- ./inp_files/248592.got.cif
#   From: 2010.05.17/outbox.cif.g08.bks.cpg/sg15_125_cif.got.tgz:248592.got - 2010.06.03 18:47:42.
