data_PCOD9279417
_publ_section_title
;
Structure prediction by ZEFSAII (Michael W. Deem and Ramdas Pophale) SiO2 
 PCOD9279417
Probable space group: C 2/C
;
_chemical_formula_sum "Si O2"
_cell_formula_units_Z 64
_cell_length_a 26.762323
_cell_length_b 22.031068
_cell_length_c 11.243634
_cell_angle_alpha 90.000000
_cell_angle_beta 31.055406
_cell_angle_gamma 90.000000
_cell_volume 3419.822602
_symmetry_space_group_name_H-M "C 2/C"
_symmetry_group_IT_number 15
_symmetry_cell_setting 'monoclinic'
loop_
_space_group_symop_operation_xyz
x,y,z
-x,y,1/2-z
-x,-y,-z
x,-y,1/2+z
1/2+x,1/2+y,z
1/2-x,1/2+y,1/2-z
1/2-x,1/2-y,-z
1/2+x,1/2-y,1/2+z
loop_
_atom_site_type_symbol
_atom_site_label
_atom_site_fract_x
_atom_site_fract_y
_atom_site_fract_z
Si Si1 0.789032 0.075821 0.661115
Si Si2 0.112327 0.618121 0.485445
Si Si3 0.934298 0.939189 0.643019
Si Si4 0.248314 0.949085 0.635066
Si Si5 0.606420 0.025762 0.294644
Si Si6 0.438331 0.344293 0.997666
Si Si7 0.856046 0.722925 0.269651
Si Si8 0.897397 0.367607 0.892891
O O1 0.864431 0.064617 0.400995
O O2 0.845157 0.115714 0.647627
O O3 0.763614 0.008652 0.758503
O O4 0.692295 0.116082 0.836549
O O5 0.188702 0.604530 0.434396
O O6 0.116008 0.556446 0.401954
O O7 0.142658 0.671633 0.335183
O O8 0.000000 0.627613 0.750000
O O9 0.859333 0.932799 0.687660
O O10 0.006346 0.883743 0.516922
O O11 0.000000 0.000000 0.500000
O O12 0.312939 0.975567 0.395161
O O13 0.611403 0.078188 0.185248
O O14 0.500000 0.000000 0.500000
O O15 0.500000 0.337874 0.750000
O O16 0.418326 0.278928 0.093818
O O17 0.750000 0.750000 0.500000
O O18 0.886687 0.692271 0.332474
O O19 0.000000 0.368691 0.750000
#
# Coordination Sequence:
#
# PCOD9279417 Si02
#       8
#     8   8   8   8   8   8   8   8
#     4  10  21  38  62  88 126 166 199 242 311 379
#     4  11  23  38  60  91 124 162 200 250 311 368
#     4  11  23  38  62  94 127 163 208 255 307 365
#     4  11  22  36  60  96 129 155 196 255 302 366
#     4  10  21  35  59  90 129 161 189 238 315 382
#     4  10  21  42  64  84 118 171 209 246 310 372
#     4  11  23  44  64  82 118 163 217 255 304 370
#     4  10  23  38  63  92 120 160 207 259 309 368
#
# _framework density 18.714421000000002
#
# number of rings (size 3 to 8) (size 9 to 14) (size 15 to 20)
#    0.000    1.500    3.750    1.125    5.250    1.000 
#    2.250    0.000    0.000    3.750    0.000    0.000 
#    0.000    0.000    0.000    0.000    0.000    0.000 
#
# Total GULP energy -178455.233922 kJ/mol
# GULP energy per Si atom -5576.726060 kJ/mol
# Density = 1.867183 g / cm^3
# Si number density = 18.714421 Si / 1000 Ang^3
#
#
#
# Elastic Constant Matrix: (Units=GPa)
#
#
# Indices 1 2 3 4 5 6 
#
# 1 101.7597 45.2663 39.5964 0.0000 -32.9579 0.0000
# 2 45.2663 100.8048 41.0319 0.0000 -10.4725 0.0000
# 3 39.5964 41.0319 91.6232 0.0000 -17.8567 0.0000
# 4 0.0000 0.0000 0.0000 27.7111 0.0000 0.2556
# 5 -32.9579 -10.4725 -17.8567 0.0000 36.4851 0.0000
# 6 0.0000 0.0000 0.0000 0.2556 0.0000 25.0897
#
#
#
# Elastic Compliance Matrix: (Units=1/GPa)
#
#
# Indices 1 2 3 4 5 6 
#
# 1 0.017437 -0.005436 -0.002582 0.000000 0.012927 0.000000
# 2 -0.005436 0.013854 -0.004463 0.000000 -0.003118 0.000000
# 3 -0.002582 -0.004463 0.014729 0.000000 0.003596 0.000000
# 4 0.000000 0.000000 0.000000 0.036090 0.000000 -0.000368
# 5 0.012927 -0.003118 0.003596 0.000000 0.039951 0.000000
# 6 0.000000 0.000000 0.000000 -0.000368 0.000000 0.039861
#
#
# Mechanical properties :
#
#
# Convention : Reuss Voigt Hill
#
# Bulk Modulus (GPa) = 47.48567 60.66410 54.07488
# Shear Modulus (GPa) = 25.78633 29.07673 27.43153
#
# Velocity S-wave (km/s) = 3.71601 3.94599 3.83273
# Velocity P-wave (km/s) = 6.62122 7.29706 6.96734
#
# Compressibility (1/GPa) = 0.02105899
#
# Stress axis : x y z
#
# Youngs Moduli (GPa) = 57.35068 72.18260 67.89198
#
# Poissons Ratio (x) = 0.39239 0.17527
# Poissons Ratio (y) = 0.31176 0.30297
# Poissons Ratio (z) = 0.14806 0.32212
#
# Static dielectric constant tensor:
#      x y z
#    x 1.664150 0.000000 0.005740 
#    y 0.000000 1.623310 0.000000 
#    z 0.005740 0.000000 1.697760 
# 
# From -- ./inp_files/124269.got.cif
#   From: 2010.05.17/outbox.cif.g08.bks.cpg/sg15_63_cif.got.tgz:124269.got - 2010.06.03 18:47:42.
