data_PCOD9279645
_publ_section_title
;
Structure prediction by ZEFSAII (Michael W. Deem and Ramdas Pophale) SiO2 
 PCOD9279645
Probable space group: C 2/C
;
_chemical_formula_sum "Si O2"
_cell_formula_units_Z 64
_cell_length_a 20.299395
_cell_length_b 18.902731
_cell_length_c 10.918968
_cell_angle_alpha 90.000000
_cell_angle_beta 117.904120
_cell_angle_gamma 90.000000
_cell_volume 3702.625715
_symmetry_space_group_name_H-M "C 2/C"
_symmetry_group_IT_number 15
_symmetry_cell_setting 'monoclinic'
loop_
_space_group_symop_operation_xyz
x,y,z
-x,y,1/2-z
-x,-y,-z
x,-y,1/2+z
1/2+x,1/2+y,z
1/2-x,1/2+y,1/2-z
1/2-x,1/2-y,-z
1/2+x,1/2-y,1/2+z
loop_
_atom_site_type_symbol
_atom_site_label
_atom_site_fract_x
_atom_site_fract_y
_atom_site_fract_z
Si Si1 0.226160 0.792910 0.102715
Si Si2 0.714112 0.100219 0.295389
Si Si3 0.538340 0.802551 0.914282
Si Si4 0.899162 0.693967 0.467769
Si Si5 0.084465 0.571094 0.842665
Si Si6 0.136239 0.430219 0.979198
Si Si7 0.782678 0.437360 0.221628
Si Si8 0.200882 0.233600 0.081498
O O1 0.141866 0.767906 0.048389
O O2 0.237574 0.877664 0.108210
O O3 0.269824 0.768406 0.264698
O O4 0.250000 0.750000 0.000000
O O5 0.661200 0.143182 0.154748
O O6 0.661288 0.093236 0.367412
O O7 0.784021 0.150573 0.383563
O O8 0.739794 0.019556 0.294781
O O9 0.500000 0.790660 0.750000
O O10 0.474902 0.793400 0.960445
O O11 0.565117 0.883777 0.949440
O O12 0.615298 0.758017 0.990527
O O13 0.913836 0.649864 0.603417
O O14 0.119244 0.513218 0.964763
O O15 0.134829 0.565448 0.766480
O O16 0.000000 0.549205 0.750000
O O17 0.204636 0.414686 0.128100
O O18 0.250000 0.250000 0.000000
#
# Coordination Sequence:
#
# PCOD9279645 Si02
#       8
#     8   8   8   8   8   8   8   8
#     4  11  22  39  57  80 113 153 193 236 273 334
#     4  10  21  36  56  80 110 145 189 230 273 332
#     4  12  21  33  57  84 114 151 184 229 285 335
#     4  11  22  36  53  79 113 146 189 224 276 333
#     4  11  23  32  49  79 118 149 179 218 272 345
#     4  11  20  34  52  81 115 149 180 217 278 344
#     4  11  21  36  56  79 108 154 186 223 281 332
#     4  11  21  39  58  83 113 150 191 237 278 333
#
# _framework density 17.285031
#
# number of rings (size 3 to 8) (size 9 to 14) (size 15 to 20)
#    0.000    1.000    6.250    1.875    1.750    1.000 
#    0.000    0.000    0.000    0.750    0.000    0.875 
#    0.000    0.000    0.000    0.000    0.000    0.000 
#
# Total GULP energy -178269.373165 kJ/mol
# GULP energy per Si atom -5570.917911 kJ/mol
# Density = 1.724569 g / cm^3
# Si number density = 17.285031 Si / 1000 Ang^3
#
#
#
# Elastic Constant Matrix: (Units=GPa)
#
#
# Indices 1 2 3 4 5 6 
#
# 1 47.1719 18.1836 4.0890 0.0000 9.2343 0.0000
# 2 18.1836 88.8377 18.2760 0.0000 11.1141 0.0000
# 3 4.0890 18.2760 58.6099 0.0000 0.0846 0.0000
# 4 0.0000 0.0000 0.0000 23.1691 0.0000 -0.5336
# 5 9.2343 11.1141 0.0846 0.0000 22.0088 0.0000
# 6 0.0000 0.0000 0.0000 -0.5336 0.0000 11.7025
#
#
#
# Elastic Compliance Matrix: (Units=1/GPa)
#
#
# Indices 1 2 3 4 5 6 
#
# 1 0.024343 -0.003848 -0.000486 0.000000 -0.008269 0.000000
# 2 -0.003848 0.013503 -0.003935 0.000000 -0.005189 0.000000
# 3 -0.000486 -0.003935 0.018320 0.000000 0.002121 0.000000
# 4 0.000000 0.000000 0.000000 0.043206 0.000000 0.001970
# 5 -0.008269 -0.005189 0.002121 0.000000 0.051518 0.000000
# 6 0.000000 0.000000 0.000000 0.001970 0.000000 0.085541
#
#
# Mechanical properties :
#
#
# Convention : Reuss Voigt Hill
#
# Bulk Modulus (GPa) = 25.23503 30.63521 27.93512
# Shear Modulus (GPa) = 18.78437 21.64747 20.21592
#
# Velocity S-wave (km/s) = 3.30015 3.54274 3.42360
# Velocity P-wave (km/s) = 5.39930 5.87339 5.64133
#
# Compressibility (1/GPa) = 0.03962746
#
# Stress axis : x y z
#
# Youngs Moduli (GPa) = 41.07911 74.05912 54.58594
#
# Poissons Ratio (x) = 0.28499 0.02656
# Poissons Ratio (y) = 0.15808 0.21477
# Poissons Ratio (z) = 0.01998 0.29139
#
# Static dielectric constant tensor:
#      x y z
#    x 1.576260 0.000000 -0.032060 
#    y 0.000000 1.639110 0.000000 
#    z -0.032060 0.000000 1.636340 
# 
# From -- ./inp_files/107331.got.cif
#   From: 2010.05.17/outbox.cif.g08.bks.cpg/sg15_54_cif.got.tgz:107331.got - 2010.06.03 18:47:42.
