data_PCOD9279313
_publ_section_title
;
Structure prediction by ZEFSAII (Michael W. Deem and Ramdas Pophale) SiO2 
 PCOD9279313
Probable space group: C 2/C
;
_chemical_formula_sum "Si O2"
_cell_formula_units_Z 40
_cell_length_a 18.948892
_cell_length_b 20.910199
_cell_length_c 14.027788
_cell_angle_alpha 90.000000
_cell_angle_beta 20.015764
_cell_angle_gamma 90.000000
_cell_volume 1902.440216
_symmetry_space_group_name_H-M "C 2/C"
_symmetry_group_IT_number 15
_symmetry_cell_setting 'monoclinic'
loop_
_space_group_symop_operation_xyz
x,y,z
-x,y,1/2-z
-x,-y,-z
x,-y,1/2+z
1/2+x,1/2+y,z
1/2-x,1/2+y,1/2-z
1/2-x,1/2-y,-z
1/2+x,1/2-y,1/2+z
loop_
_atom_site_type_symbol
_atom_site_label
_atom_site_fract_x
_atom_site_fract_y
_atom_site_fract_z
Si Si1 0.017181 0.312218 0.874680
Si Si2 0.201638 0.410335 0.242025
Si Si3 0.650267 0.332151 0.189704
Si Si4 0.485234 0.985692 0.374218
Si Si5 0.065976 0.926385 0.907215
O O1 0.238627 0.336454 0.553862
O O2 0.037663 0.235784 0.845792
O O3 0.934280 0.345979 0.075221
O O4 0.840383 0.329985 0.022888
O O5 0.089302 0.458414 0.460617
O O6 0.180990 0.449611 0.170525
O O7 0.432146 0.399940 0.988532
O O8 0.505738 0.388823 0.407913
O O9 0.500000 0.013532 0.250000
O O10 0.309653 0.931093 0.589694
O O11 0.000000 0.000000 0.000000
#
# Coordination Sequence:
#
# PCOD9279313 Si02
#       5
#     8   8   8   8   8
#     4   9  18  31  53  78 115 141 174 221 281 334
#     4   9  20  36  53  82 108 144 180 225 280 321
#     4   9  18  31  51  83 111 144 173 222 281 336
#     4  10  21  35  57  78 108 144 187 228 273 328
#     4   9  19  34  54  79 112 142 183 222 272 328
#
# _framework density 21.025628999999999
#
# number of rings (size 3 to 8) (size 9 to 14) (size 15 to 20)
#    0.000    2.800    0.000    0.000   11.200    0.800 
#    0.000    0.000    0.000    1.200    0.000    0.000 
#    0.000    0.000    0.000    0.000    0.000    0.000 
#
# Total GULP energy -111506.682694 kJ/mol
# GULP energy per Si atom -5575.334135 kJ/mol
# Density = 2.097777 g / cm^3
# Si number density = 21.025629 Si / 1000 Ang^3
#
#
#
# Elastic Constant Matrix: (Units=GPa)
#
#
# Indices 1 2 3 4 5 6 
#
# 1 48.9231 6.1460 -7.1217 -0.0522 3.9799 0.0181
# 2 6.1460 68.8872 20.1988 -0.0038 1.8279 0.0112
# 3 -7.1217 20.1988 31.5718 -0.0376 -9.4546 0.0205
# 4 -0.0522 -0.0038 -0.0376 35.8958 0.0410 0.2354
# 5 3.9799 1.8279 -9.4546 0.0410 20.9538 -0.0154
# 6 0.0181 0.0112 0.0205 0.2354 -0.0154 20.4269
#
#
#
# Elastic Compliance Matrix: (Units=1/GPa)
#
#
# Indices 1 2 3 4 5 6 
#
# 1 0.022093 -0.004163 0.007514 0.000040 -0.000443 -0.000026
# 2 -0.004163 0.019817 -0.016070 -0.000011 -0.008189 0.000003
# 3 0.007514 -0.016070 0.050461 0.000036 0.022743 -0.000032
# 4 0.000040 -0.000011 0.000036 0.027861 -0.000045 -0.000321
# 5 -0.000443 -0.008189 0.022743 -0.000045 0.058785 0.000027
# 6 -0.000026 0.000003 -0.000032 -0.000321 0.000027 0.048959
#
#
# Mechanical properties :
#
#
# Convention : Reuss Voigt Hill
#
# Bulk Modulus (GPa) = 14.93997 20.86980 17.90489
# Shear Modulus (GPa) = 18.13416 24.13257 21.13336
#
# Velocity S-wave (km/s) = 2.93999 3.39155 3.17381
# Velocity P-wave (km/s) = 4.31807 5.02834 4.68668
#
# Compressibility (1/GPa) = 0.06693455
#
# Stress axis : x y z
#
# Youngs Moduli (GPa) = 45.26300 50.46156 19.81740
#
# Poissons Ratio (x) = 0.21005 -0.14891
# Poissons Ratio (y) = 0.18841 0.31846
# Poissons Ratio (z) = -0.34012 0.81090
#
# Static dielectric constant tensor:
#      x y z
#    x 1.891080 -0.000010 -0.010710 
#    y -0.000010 1.767690 0.000010 
#    z -0.010710 0.000010 1.807680 
# 
# From -- ./inp_files/58557.got.cif
#   From: 2010.05.17/outbox.cif.g08.bks.cpg/sg15_30_cif.got.tgz:58557.got - 2010.06.03 18:47:42.
