data_PCOD9279019
_publ_section_title
;
Structure prediction by ZEFSAII (Michael W. Deem and Ramdas Pophale) SiO2 
 PCOD9279019
Probable space group: C 2/C
;
_chemical_formula_sum "Si O2"
_cell_formula_units_Z 52
_cell_length_a 21.818090
_cell_length_b 9.200712
_cell_length_c 8.871613
_cell_angle_alpha 90.000000
_cell_angle_beta 84.851244
_cell_angle_gamma 90.000000
_cell_volume 1773.719159
_symmetry_space_group_name_H-M "C 2/C"
_symmetry_group_IT_number 15
_symmetry_cell_setting 'monoclinic'
loop_
_space_group_symop_operation_xyz
x,y,z
-x,y,1/2-z
-x,-y,-z
x,-y,1/2+z
1/2+x,1/2+y,z
1/2-x,1/2+y,1/2-z
1/2-x,1/2-y,-z
1/2+x,1/2-y,1/2+z
loop_
_atom_site_type_symbol
_atom_site_label
_atom_site_fract_x
_atom_site_fract_y
_atom_site_fract_z
Si Si1 0.728008 0.900319 0.612548
Si Si2 0.033920 0.776648 0.454888
Si Si3 0.500000 0.467845 0.750000
Si Si4 0.670252 0.243128 0.729879
Si Si5 0.332236 0.182101 0.105142
Si Si6 0.335528 0.434125 0.356358
Si Si7 0.097972 0.691967 0.002433
O O1 0.774118 0.767651 0.663444
O O2 0.703520 0.938205 0.786898
O O3 0.778439 0.957373 0.485249
O O4 0.658297 0.882192 0.563292
O O5 0.094197 0.676630 0.429711
O O6 0.039009 0.912190 0.337437
O O7 0.972828 0.678975 0.440535
O O8 0.025169 0.858519 0.616045
O O9 0.690733 0.183542 0.563040
O O10 0.649652 0.406925 0.700490
O O11 0.612165 0.171801 0.823693
O O12 0.326676 0.330075 0.210161
O O13 0.386855 0.357622 0.448447
#
# Coordination Sequence:
#
# PCOD9279019 Si02
#       7
#     8   8   4   8   8   8   8
#     4  10  22  40  52  73 109 145 181 228 273 317
#     4  11  23  32  51  81 111 151 187 203 273 313
#     4  10  22  30  46  70 124 140 182 218 234 314
#     4  11  21  33  55  81 104 143 185 227 266 317
#     4  11  21  32  54  77 109 146 183 219 263 319
#     4  10  21  34  52  76 105 143 183 225 270 314
#     4  10  21  36  54  76 116 147 177 217 270 323
#
# _framework density 29.316931
#
# number of rings (size 3 to 8) (size 9 to 14) (size 15 to 20)
#    0.000    1.538    0.000    9.231   12.923    0.000 
#    0.000    0.000    0.000    0.000    0.000    4.308 
#    0.000    0.000    0.000    1.538    0.000    0.000 
#
# Total GULP energy -145011.220821 kJ/mol
# GULP energy per Si atom -5577.354647 kJ/mol
# Density = 2.925020 g / cm^3
# Si number density = 29.316931 Si / 1000 Ang^3
#
#
#
# Elastic Constant Matrix: (Units=GPa)
#
#
# Indices 1 2 3 4 5 6 
#
# 1 178.1193 14.8707 42.5550 0.0000 -26.6636 0.0000
# 2 14.8707 46.5842 19.7944 0.0000 -4.3514 0.0000
# 3 42.5550 19.7944 209.3587 0.0000 -19.6434 0.0000
# 4 0.0000 0.0000 0.0000 51.4869 0.0000 -1.9256
# 5 -26.6636 -4.3514 -19.6434 0.0000 56.4084 0.0000
# 6 0.0000 0.0000 0.0000 -1.9256 0.0000 32.3732
#
#
#
# Elastic Compliance Matrix: (Units=1/GPa)
#
#
# Indices 1 2 3 4 5 6 
#
# 1 0.006333 -0.001393 -0.000915 0.000000 0.002568 0.000000
# 2 -0.001393 0.022729 -0.001823 0.000000 0.000460 0.000000
# 3 -0.000915 -0.001823 0.005253 0.000000 0.001256 0.000000
# 4 0.000000 0.000000 0.000000 0.019466 0.000000 0.001158
# 5 0.002568 0.000460 0.001256 0.000000 0.019415 0.000000
# 6 0.000000 0.000000 0.000000 0.001158 0.000000 0.030959
#
#
# Mechanical properties :
#
#
# Convention : Reuss Voigt Hill
#
# Bulk Modulus (GPa) = 38.38233 65.38916 51.88574
# Shear Modulus (GPa) = 41.28844 51.84317 46.56580
#
# Velocity S-wave (km/s) = 3.75687 4.20976 3.98975
# Velocity P-wave (km/s) = 5.65149 6.78101 6.24185
#
# Compressibility (1/GPa) = 0.02605365
#
# Stress axis : x y z
#
# Youngs Moduli (GPa) = 157.89189 43.99725 190.38186
#
# Poissons Ratio (x) = 0.06130 0.17414
# Poissons Ratio (y) = 0.21998 0.34699
# Poissons Ratio (z) = 0.14443 0.08019
#
# Static dielectric constant tensor:
#      x y z
#    x 2.346200 0.000000 0.017010 
#    y 0.000000 2.679730 0.000000 
#    z 0.017010 0.000000 2.360620 
# 
# From -- ./inp_files/55303.got.cif
#   From: 2010.05.17/outbox.cif.g08.bks.cpg/sg15_28_cif.got.tgz:55303.got - 2010.06.03 18:47:42.
