data_PCOD9279366
_publ_section_title
;
Structure prediction by ZEFSAII (Michael W. Deem and Ramdas Pophale) SiO2 
 PCOD9279366
Probable space group: C 2/C
;
_chemical_formula_sum "Si O2"
_cell_formula_units_Z 44
_cell_length_a 24.429061
_cell_length_b 18.712591
_cell_length_c 6.002570
_cell_angle_alpha 90.000000
_cell_angle_beta 49.544490
_cell_angle_gamma 90.000000
_cell_volume 2087.907440
_symmetry_space_group_name_H-M "C 2/C"
_symmetry_group_IT_number 15
_symmetry_cell_setting 'monoclinic'
loop_
_space_group_symop_operation_xyz
x,y,z
-x,y,1/2-z
-x,-y,-z
x,-y,1/2+z
1/2+x,1/2+y,z
1/2-x,1/2+y,1/2-z
1/2-x,1/2-y,-z
1/2+x,1/2-y,1/2+z
loop_
_atom_site_type_symbol
_atom_site_label
_atom_site_fract_x
_atom_site_fract_y
_atom_site_fract_z
Si Si1 0.765178 0.172049 0.710262
Si Si2 0.500000 0.815593 0.750000
Si Si3 0.808795 0.420831 0.725282
Si Si4 0.143065 0.706006 0.686348
Si Si5 0.452104 0.931898 0.565775
Si Si6 0.175323 0.020753 0.036960
O O1 0.822391 0.235644 0.570422
O O2 0.696729 0.203178 0.756476
O O3 0.805189 0.104507 0.487628
O O4 0.735470 0.136569 0.012069
O O5 0.560257 0.774199 0.453377
O O6 0.448375 0.871338 0.758205
O O7 0.848478 0.373271 0.436395
O O8 0.873859 0.454450 0.694541
O O9 0.751088 0.478946 0.808456
O O10 0.500000 0.000000 0.500000
O O11 0.500000 0.895291 0.250000
O O12 0.143324 0.993435 0.365177
#
# Coordination Sequence:
#
# PCOD9279366 Si02
#       6
#     8   4   8   8   8   8
#     4  10  22  37  56  82 112 154 194 253 294 350
#     4  12  24  38  52  78 110 160 190 242 286 370
#     4  11  22  36  58  82 116 156 199 243 292 359
#     4  11  22  39  55  79 116 151 203 240 302 354
#     4  12  25  33  52  79 118 158 193 226 285 351
#     4  10  21  35  58  87 117 152 193 247 299 355
#
# _framework density 21.073730000000001
#
# number of rings (size 3 to 8) (size 9 to 14) (size 15 to 20)
#    0.000    1.091    6.364    0.545    7.636    0.000 
#    0.000    0.000    0.000    0.000    0.000    5.091 
#    0.000    0.000    0.000    0.000    0.000    0.000 
#
# Total GULP energy -122607.685638 kJ/mol
# GULP energy per Si atom -5573.076620 kJ/mol
# Density = 2.102577 g / cm^3
# Si number density = 21.073730 Si / 1000 Ang^3
#
#
#
# Elastic Constant Matrix: (Units=GPa)
#
#
# Indices 1 2 3 4 5 6 
#
# 1 31.5411 10.0613 20.0152 0.0000 -0.8585 0.0000
# 2 10.0613 80.1914 10.5774 0.0000 -13.4687 0.0000
# 3 20.0152 10.5774 67.5464 0.0000 -1.9887 0.0000
# 4 0.0000 0.0000 0.0000 27.3699 0.0000 1.6053
# 5 -0.8585 -13.4687 -1.9887 0.0000 28.0713 0.0000
# 6 0.0000 0.0000 0.0000 1.6053 0.0000 20.8945
#
#
#
# Elastic Compliance Matrix: (Units=1/GPa)
#
#
# Indices 1 2 3 4 5 6 
#
# 1 0.040050 -0.003764 -0.011319 0.000000 -0.001383 0.000000
# 2 -0.003764 0.014174 -0.000909 0.000000 0.006621 0.000000
# 3 -0.011319 -0.000909 0.018316 0.000000 0.000515 0.000000
# 4 0.000000 0.000000 0.000000 0.036702 0.000000 -0.002820
# 5 -0.001383 0.006621 0.000515 0.000000 0.038795 0.000000
# 6 0.000000 0.000000 0.000000 -0.002820 0.000000 0.048076
#
#
# Mechanical properties :
#
#
# Convention : Reuss Voigt Hill
#
# Bulk Modulus (GPa) = 24.65713 28.95407 26.80560
# Shear Modulus (GPa) = 20.69385 24.50879 22.60132
#
# Velocity S-wave (km/s) = 3.13705 3.41398 3.27844
# Velocity P-wave (km/s) = 4.98470 5.41383 5.20369
#
# Compressibility (1/GPa) = 0.04055622
#
# Stress axis : x y z
#
# Youngs Moduli (GPa) = 24.96853 70.54923 54.59650
#
# Poissons Ratio (x) = 0.26557 0.61797
# Poissons Ratio (y) = 0.09399 0.04964
# Poissons Ratio (z) = 0.28262 0.06415
#
# Static dielectric constant tensor:
#      x y z
#    x 1.866370 0.000000 0.144760 
#    y 0.000000 1.760090 0.000000 
#    z 0.144760 0.000000 1.983190 
# 
# From -- ./inp_files/10270.got.cif
#   From: 2010.05.17/outbox.cif.g08.bks.cpg/sg15_6_cif.got.tgz:10270.got - 2010.06.03 18:47:42.
