data_PCOD9279447
_publ_section_title
;
Structure prediction by ZEFSAII (Michael W. Deem and Ramdas Pophale) SiO2 
 PCOD9279447
Probable space group: C 2/C
;
_chemical_formula_sum "Si O2"
_cell_formula_units_Z 48
_cell_length_a 11.512467
_cell_length_b 16.628619
_cell_length_c 12.786508
_cell_angle_alpha 90.000000
_cell_angle_beta 100.541946
_cell_angle_gamma 90.000000
_cell_volume 2406.487501
_symmetry_space_group_name_H-M "C 2/C"
_symmetry_group_IT_number 15
_symmetry_cell_setting 'monoclinic'
loop_
_space_group_symop_operation_xyz
x,y,z
-x,y,1/2-z
-x,-y,-z
x,-y,1/2+z
1/2+x,1/2+y,z
1/2-x,1/2+y,1/2-z
1/2-x,1/2-y,-z
1/2+x,1/2-y,1/2+z
loop_
_atom_site_type_symbol
_atom_site_label
_atom_site_fract_x
_atom_site_fract_y
_atom_site_fract_z
Si Si1 0.106627 0.593290 0.391634
Si Si2 0.741875 0.406823 0.392107
Si Si3 0.942804 0.220902 0.552794
Si Si4 0.700707 0.229014 0.104750
Si Si5 0.889728 0.729457 0.810527
Si Si6 0.846475 0.442631 0.837143
O O1 0.204127 0.565784 0.488615
O O2 0.090786 0.688974 0.412912
O O3 0.149144 0.585447 0.281388
O O4 0.986107 0.541400 0.382897
O O5 0.633018 0.347552 0.400645
O O6 0.840544 0.353882 0.348663
O O7 0.745396 0.490415 0.331092
O O8 0.918611 0.220962 0.422529
O O9 0.081784 0.218840 0.599433
O O10 0.786702 0.239647 0.217313
O O11 0.675142 0.134538 0.095582
O O12 0.750000 0.250000 0.000000
O O13 0.000000 0.721315 0.750000
#
# Coordination Sequence:
#
# PCOD9279447 Si02
#       6
#     8   8   8   8   8   8
#     4   9  19  37  58  87 126 163 206 258 312 375
#     4  11  22  36  61  94 125 154 210 268 320 360
#     4  10  21  41  64  92 123 169 213 261 312 383
#     4  11  22  40  63  90 125 169 215 254 314 390
#     4  11  22  38  66  91 119 165 213 254 305 384
#     4  10  21  35  60  90 124 163 207 264 314 365
#
# _framework density 19.946083999999999
#
# number of rings (size 3 to 8) (size 9 to 14) (size 15 to 20)
#    0.000    1.667    1.667    4.500    2.333    3.333 
#    0.000    0.833    3.667    0.000    0.000    1.167 
#    0.000    0.000    0.000    0.000    0.000    0.000 
#
# Total GULP energy -133698.626157 kJ/mol
# GULP energy per Si atom -5570.776090 kJ/mol
# Density = 1.990069 g / cm^3
# Si number density = 19.946084 Si / 1000 Ang^3
#
#
#
# Elastic Constant Matrix: (Units=GPa)
#
#
# Indices 1 2 3 4 5 6 
#
# 1 122.1581 48.0804 61.4443 0.0000 -9.2469 0.0000
# 2 48.0804 62.5617 29.0450 0.0000 -21.0868 0.0000
# 3 61.4443 29.0450 72.1995 0.0000 -18.3412 0.0000
# 4 0.0000 0.0000 0.0000 15.2547 0.0000 0.3337
# 5 -9.2469 -21.0868 -18.3412 0.0000 39.3099 0.0000
# 6 0.0000 0.0000 0.0000 0.3337 0.0000 18.0486
#
#
#
# Elastic Compliance Matrix: (Units=1/GPa)
#
#
# Indices 1 2 3 4 5 6 
#
# 1 0.018531 -0.010550 -0.013451 0.000000 -0.007576 0.000000
# 2 -0.010550 0.028007 0.001019 0.000000 0.013017 0.000000
# 3 -0.013451 0.001019 0.027480 0.000000 0.010204 0.000000
# 4 0.000000 0.000000 0.000000 0.065580 0.000000 -0.001213
# 5 -0.007576 0.013017 0.010204 0.000000 0.035400 0.000000
# 6 0.000000 0.000000 0.000000 -0.001213 0.000000 0.055428
#
#
# Mechanical properties :
#
#
# Convention : Reuss Voigt Hill
#
# Bulk Modulus (GPa) = 35.64702 59.33987 47.49344
# Shear Modulus (GPa) = 17.49833 22.41262 19.95547
#
# Velocity S-wave (km/s) = 2.96511 3.35574 3.16645
# Velocity P-wave (km/s) = 5.44362 6.69547 6.10174
#
# Compressibility (1/GPa) = 0.02805284
#
# Stress axis : x y z
#
# Youngs Moduli (GPa) = 53.96477 35.70530 36.39043
#
# Poissons Ratio (x) = 0.37670 0.48947
# Poissons Ratio (y) = 0.56934 -0.03707
# Poissons Ratio (z) = 0.72585 -0.03637
#
# Static dielectric constant tensor:
#      x y z
#    x 1.766580 0.000000 0.020460 
#    y 0.000000 1.743100 0.000000 
#    z 0.020460 0.000000 1.739180 
# 
# From -- ./inp_files/87462.got.cif
#   From: 2010.05.17/outbox.cif.g08.bks.cpg/sg15_44_cif.got.tgz:87462.got - 2010.06.03 18:47:42.
