data_PCOD9279338
_publ_section_title
;
Structure prediction by ZEFSAII (Michael W. Deem and Ramdas Pophale) SiO2 
 PCOD9279338
Probable space group: C 2/C
;
_chemical_formula_sum "Si O2"
_cell_formula_units_Z 60
_cell_length_a 28.522254
_cell_length_b 23.240059
_cell_length_c 5.363778
_cell_angle_alpha 90.000000
_cell_angle_beta 54.889885
_cell_angle_gamma 90.000000
_cell_volume 2908.511289
_symmetry_space_group_name_H-M "C 2/C"
_symmetry_group_IT_number 15
_symmetry_cell_setting 'monoclinic'
loop_
_space_group_symop_operation_xyz
x,y,z
-x,y,1/2-z
-x,-y,-z
x,-y,1/2+z
1/2+x,1/2+y,z
1/2-x,1/2+y,1/2-z
1/2-x,1/2-y,-z
1/2+x,1/2-y,1/2+z
loop_
_atom_site_type_symbol
_atom_site_label
_atom_site_fract_x
_atom_site_fract_y
_atom_site_fract_z
Si Si1 0.186533 0.317706 0.022669
Si Si2 0.187787 0.189339 0.212250
Si Si3 0.884628 0.651030 0.259258
Si Si4 0.568515 0.532578 0.000680
Si Si5 0.434039 0.025018 0.175858
Si Si6 0.580021 0.725602 0.868161
Si Si7 0.102866 0.134408 0.154089
Si Si8 0.500000 0.655208 0.750000
O O1 0.191647 0.247626 0.031971
O O2 0.151844 0.340785 0.372405
O O3 0.253545 0.332042 0.847062
O O4 0.156211 0.339877 0.861268
O O5 0.140859 0.208509 0.558759
O O6 0.160784 0.139924 0.124009
O O7 0.921098 0.591912 0.156557
O O8 0.926104 0.706408 0.118942
O O9 0.500000 0.540255 0.250000
O O10 0.585208 0.496236 0.192280
O O11 0.599930 0.593652 0.928180
O O12 0.408260 0.010125 0.523546
O O13 0.500000 0.000000 0.000000
O O14 0.531640 0.694015 0.857574
O O15 0.584256 0.698474 0.128063
O O16 0.049954 0.115713 0.487859
#
# Coordination Sequence:
#
# PCOD9279338 Si02
#       8
#     8   8   8   8   8   8   8   4
#     4  10  21  38  61  97 123 159 202 261 312 389
#     4   9  21  35  61  89 128 157 201 247 331 379
#     4  11  22  39  64  91 126 156 217 260 316 384
#     4  10  23  37  57  80 107 154 202 238 275 341
#     4  10  22  42  64  91 122 170 218 265 316 374
#     4  10  21  35  57  89 124 165 193 256 323 382
#     4  11  21  38  57  83 123 161 197 250 308 369
#     4  10  22  34  50  86 122 160 194 232 314 372
#
# _framework density 20.629109
#
# number of rings (size 3 to 8) (size 9 to 14) (size 15 to 20)
#    0.000    1.867    1.333    2.000    8.400    2.667 
#    4.800    0.000    0.000    4.800    0.000    0.000 
#    0.000    0.000    0.000    0.000    0.000    0.000 
#
# Total GULP energy -167280.990657 kJ/mol
# GULP energy per Si atom -5576.033022 kJ/mol
# Density = 2.058216 g / cm^3
# Si number density = 20.629109 Si / 1000 Ang^3
#
#
#
# Elastic Constant Matrix: (Units=GPa)
#
#
# Indices 1 2 3 4 5 6 
#
# 1 121.1445 42.1171 41.3905 0.0000 17.7686 0.0000
# 2 42.1171 110.9579 9.2935 0.0000 9.6268 0.0000
# 3 41.3905 9.2935 43.0855 0.0000 18.1248 0.0000
# 4 0.0000 0.0000 0.0000 23.0970 0.0000 11.1588
# 5 17.7686 9.6268 18.1248 0.0000 37.5251 0.0000
# 6 0.0000 0.0000 0.0000 11.1588 0.0000 33.3969
#
#
#
# Elastic Compliance Matrix: (Units=1/GPa)
#
#
# Indices 1 2 3 4 5 6 
#
# 1 0.014043 -0.004312 -0.012837 0.000000 0.000657 0.000000
# 2 -0.004312 0.010595 0.002688 0.000000 -0.001975 0.000000
# 3 -0.012837 0.002688 0.041032 0.000000 -0.014430 0.000000
# 4 0.000000 0.000000 0.000000 0.051630 0.000000 -0.017251
# 5 0.000657 -0.001975 -0.014430 0.000000 0.033814 0.000000
# 6 0.000000 0.000000 0.000000 -0.017251 0.000000 0.035707
#
#
# Mechanical properties :
#
#
# Convention : Reuss Voigt Hill
#
# Bulk Modulus (GPa) = 27.21246 51.19891 39.20568
# Shear Modulus (GPa) = 21.93034 30.96292 26.44663
#
# Velocity S-wave (km/s) = 3.26402 3.87839 3.58439
# Velocity P-wave (km/s) = 5.23689 6.70288 6.01472
#
# Compressibility (1/GPa) = 0.03674787
#
# Stress axis : x y z
#
# Youngs Moduli (GPa) = 71.20747 94.37984 24.37107
#
# Poissons Ratio (x) = 0.40700 0.31286
# Poissons Ratio (y) = 0.30707 -0.06551
# Poissons Ratio (z) = 0.91410 -0.25368
#
# Static dielectric constant tensor:
#      x y z
#    x 1.719140 0.000000 0.068140 
#    y 0.000000 1.809110 0.000000 
#    z 0.068140 0.000000 1.727870 
# 
# From -- ./inp_files/17507.got.cif
#   From: 2010.05.17/outbox.cif.g08.bks.cpg/sg15_9_cif.got.tgz:17507.got - 2010.06.03 18:47:42.
