data_PCOD9279921
_publ_section_title
;
Structure prediction by ZEFSAII (Michael W. Deem and Ramdas Pophale) SiO2 
 PCOD9279921
Probable space group: C 2/C
;
_chemical_formula_sum "Si O2"
_cell_formula_units_Z 44
_cell_length_a 10.314898
_cell_length_b 20.903825
_cell_length_c 9.018596
_cell_angle_alpha 90.000000
_cell_angle_beta 106.193593
_cell_angle_gamma 90.000000
_cell_volume 1867.444961
_symmetry_space_group_name_H-M "C 2/C"
_symmetry_group_IT_number 15
_symmetry_cell_setting 'monoclinic'
loop_
_space_group_symop_operation_xyz
x,y,z
-x,y,1/2-z
-x,-y,-z
x,-y,1/2+z
1/2+x,1/2+y,z
1/2-x,1/2+y,1/2-z
1/2-x,1/2-y,-z
1/2+x,1/2-y,1/2+z
loop_
_atom_site_type_symbol
_atom_site_label
_atom_site_fract_x
_atom_site_fract_y
_atom_site_fract_z
Si Si1 0.562924 0.215855 0.412147
Si Si2 0.792972 0.506802 0.818030
Si Si3 0.622030 0.452573 0.510305
Si Si4 0.655824 0.681640 0.146799
Si Si5 0.671865 0.133897 0.049632
Si Si6 0.500000 0.096711 0.750000
O O1 0.500000 0.253171 0.250000
O O2 0.571406 0.258164 0.562985
O O3 0.707680 0.189788 0.408423
O O4 0.460173 0.158655 0.406807
O O5 0.746858 0.481455 0.643403
O O6 0.674230 0.547179 0.858975
O O7 0.804440 0.440129 0.908454
O O8 0.924575 0.550183 0.842424
O O9 0.500000 0.500000 0.500000
O O10 0.589722 0.383925 0.569882
O O11 0.705527 0.672903 0.332802
O O12 0.621479 0.136762 0.864093
#
# Coordination Sequence:
#
# PCOD9279921 Si02
#       6
#     8   8   8   8   8   4
#     4   9  18  36  65  92 121 164 221 274 324 380
#     4  11  23  38  62  98 129 169 211 273 329 393
#     4  11  23  40  62  92 134 170 211 260 334 404
#     4   9  20  37  61  92 125 166 218 268 319 391
#     4  10  21  36  61  91 126 162 213 279 321 378
#     4  12  22  36  66  98 132 168 216 270 344 390
#
# _framework density 23.561603999999999
#
# number of rings (size 3 to 8) (size 9 to 14) (size 15 to 20)
#    0.000    1.818    1.818    2.182    6.364    1.455 
#    0.000    2.727    8.000    0.000    0.000    0.000 
#    0.000    0.000    0.000    0.000    0.000    0.000 
#
# Total GULP energy -122767.346911 kJ/mol
# GULP energy per Si atom -5580.333950 kJ/mol
# Density = 2.350798 g / cm^3
# Si number density = 23.561604 Si / 1000 Ang^3
#
#
#
# Elastic Constant Matrix: (Units=GPa)
#
#
# Indices 1 2 3 4 5 6 
#
# 1 40.2863 8.7575 -26.9640 0.0000 -9.9508 0.0000
# 2 8.7575 55.7675 33.5849 0.0000 15.1496 0.0000
# 3 -26.9640 33.5849 96.9550 0.0000 10.6660 0.0000
# 4 0.0000 0.0000 0.0000 17.6762 0.0000 -2.8760
# 5 -9.9508 15.1496 10.6660 0.0000 25.0833 0.0000
# 6 0.0000 0.0000 0.0000 -2.8760 0.0000 17.4524
#
#
#
# Elastic Compliance Matrix: (Units=1/GPa)
#
#
# Indices 1 2 3 4 5 6 
#
# 1 0.053055 -0.029439 0.021696 0.000000 0.029602 0.000000
# 2 -0.029439 0.042211 -0.019638 0.000000 -0.028823 0.000000
# 3 0.021696 -0.019638 0.021925 0.000000 0.011145 0.000000
# 4 0.000000 0.000000 0.000000 0.058132 0.000000 0.009579
# 5 0.029602 -0.028823 0.011145 0.000000 0.064279 0.000000
# 6 0.000000 0.000000 0.000000 0.009579 0.000000 0.058877
#
#
# Mechanical properties :
#
#
# Convention : Reuss Voigt Hill
#
# Bulk Modulus (GPa) = 16.01843 24.86284 20.44063
# Shear Modulus (GPa) = 13.36711 23.88441 18.62576
#
# Velocity S-wave (km/s) = 2.38444 3.18732 2.81466
# Velocity P-wave (km/s) = 3.79395 4.91127 4.38831
#
# Compressibility (1/GPa) = 0.06242810
#
# Stress axis : x y z
#
# Youngs Moduli (GPa) = 18.84825 23.69028 45.61089
#
# Poissons Ratio (x) = 0.69743 -0.98959
# Poissons Ratio (y) = 0.55488 0.89573
# Poissons Ratio (z) = -0.40894 0.46524
#
# Static dielectric constant tensor:
#      x y z
#    x 1.880170 0.000000 0.038750 
#    y 0.000000 1.861620 0.000000 
#    z 0.038750 0.000000 2.083090 
# 
# From -- ./inp_files/31008.got.cif
#   From: 2010.05.17/outbox.cif.g08.bks.cpg/sg15_16_cif.got.tgz:31008.got - 2010.06.03 18:47:42.
