data_PCOD9279387
_publ_section_title
;
Structure prediction by ZEFSAII (Michael W. Deem and Ramdas Pophale) SiO2 
 PCOD9279387
Probable space group: C 2/C
;
_chemical_formula_sum "Si O2"
_cell_formula_units_Z 64
_cell_length_a 23.646424
_cell_length_b 8.787804
_cell_length_c 19.813820
_cell_angle_alpha 90.000000
_cell_angle_beta 45.932560
_cell_angle_gamma 90.000000
_cell_volume 2958.379669
_symmetry_space_group_name_H-M "C 2/C"
_symmetry_group_IT_number 15
_symmetry_cell_setting 'monoclinic'
loop_
_space_group_symop_operation_xyz
x,y,z
-x,y,1/2-z
-x,-y,-z
x,-y,1/2+z
1/2+x,1/2+y,z
1/2-x,1/2+y,1/2-z
1/2-x,1/2-y,-z
1/2+x,1/2-y,1/2+z
loop_
_atom_site_type_symbol
_atom_site_label
_atom_site_fract_x
_atom_site_fract_y
_atom_site_fract_z
Si Si1 0.662538 0.604908 0.495088
Si Si2 0.787484 0.485876 0.779937
Si Si3 0.058797 0.711666 0.338955
Si Si4 0.906632 0.426059 0.930422
Si Si5 0.503910 0.519278 0.415421
Si Si6 0.261210 0.185281 0.165098
Si Si7 0.260431 0.079144 0.017425
Si Si8 0.440784 0.189645 0.005034
O O1 0.721011 0.561170 0.387304
O O2 0.650230 0.784969 0.506551
O O3 0.577401 0.535337 0.550244
O O4 0.700739 0.534079 0.530334
O O5 0.864374 0.388577 0.735011
O O6 0.794202 0.668725 0.777409
O O7 0.762662 0.428767 0.726534
O O8 0.033914 0.678736 0.438127
O O9 0.990312 0.652618 0.346043
O O10 0.065686 0.896684 0.334260
O O11 0.851005 0.527451 0.928864
O O12 0.926488 0.535472 0.976660
O O13 0.500000 0.500000 0.500000
O O14 0.500364 0.702077 0.414098
O O15 0.246120 0.094356 0.109111
O O16 0.350788 0.252562 0.084526
O O17 0.250000 0.250000 0.000000
#
# Coordination Sequence:
#
# PCOD9279387 Si02
#       8
#     8   8   8   8   8   8   8   8
#     4  11  21  37  65  92 126 167 221 267 323 391
#     4  11  22  39  60  95 132 168 205 277 343 383
#     4   9  20  33  53  87 126 161 209 261 329 379
#     4  10  21  35  58  94 116 161 218 275 310 385
#     4   9  17  35  58  87 124 163 209 261 311 384
#     4  10  22  37  61  93 127 164 211 279 327 388
#     4  11  21  41  64  89 118 171 228 260 315 403
#     4   9  16  34  56  84 122 160 212 257 315 385
#
# _framework density 21.633462999999999
#
# number of rings (size 3 to 8) (size 9 to 14) (size 15 to 20)
#    0.000    2.000    2.500    1.500    5.250    0.000 
#    0.000    0.625    0.000    0.000    6.500    0.000 
#    0.000    0.000    0.000    0.000    0.000    0.000 
#
# Total GULP energy -178389.042134 kJ/mol
# GULP energy per Si atom -5574.657567 kJ/mol
# Density = 2.158422 g / cm^3
# Si number density = 21.633463 Si / 1000 Ang^3
#
#
#
# Elastic Constant Matrix: (Units=GPa)
#
#
# Indices 1 2 3 4 5 6 
#
# 1 116.7230 40.8378 23.1596 -0.0014 5.1291 0.0025
# 2 40.8378 119.8411 24.1837 -0.0012 0.6958 0.0035
# 3 23.1596 24.1837 38.6639 -0.0005 7.2914 0.0012
# 4 -0.0014 -0.0012 -0.0005 21.8380 0.0006 -2.0866
# 5 5.1291 0.6958 7.2914 0.0006 20.9212 -0.0010
# 6 0.0025 0.0035 0.0012 -2.0866 -0.0010 39.2632
#
#
#
# Elastic Compliance Matrix: (Units=1/GPa)
#
#
# Indices 1 2 3 4 5 6 
#
# 1 0.010410 -0.002654 -0.004400 0.000000 -0.000930 0.000000
# 2 -0.002654 0.010297 -0.005254 0.000000 0.002139 -0.000001
# 3 -0.004400 -0.005254 0.033769 0.000000 -0.010516 -0.000001
# 4 0.000000 0.000000 0.000000 0.046025 -0.000001 0.002446
# 5 -0.000930 0.002139 -0.010516 -0.000001 0.051620 0.000001
# 6 0.000000 -0.000001 -0.000001 0.002446 0.000001 0.025599
#
#
# Mechanical properties :
#
#
# Convention : Reuss Voigt Hill
#
# Bulk Modulus (GPa) = 33.49047 50.17670 41.83358
# Shear Modulus (GPa) = 23.55277 28.87426 26.21351
#
# Velocity S-wave (km/s) = 3.30315 3.65732 3.48474
# Velocity P-wave (km/s) = 5.48290 6.40929 5.96411
#
# Compressibility (1/GPa) = 0.02985924
#
# Stress axis : x y z
#
# Youngs Moduli (GPa) = 96.06386 97.11921 29.61297
#
# Poissons Ratio (x) = 0.25775 0.13030
# Poissons Ratio (y) = 0.25495 0.15559
# Poissons Ratio (z) = 0.42268 0.51028
#
# Static dielectric constant tensor:
#      x y z
#    x 1.848030 0.000000 0.025760 
#    y 0.000000 1.962320 -0.000010 
#    z 0.025760 -0.000010 1.890040 
# 
# From -- ./inp_files/255026.got.cif
#   From: 2010.05.17/outbox.cif.g08.bks.cpg/sg15_128_cif.got.tgz:255026.got - 2010.06.03 18:47:42.
