data_PCOD9279105
_publ_section_title
;
Structure prediction by ZEFSAII (Michael W. Deem and Ramdas Pophale) SiO2 
 PCOD9279105
Probable space group: C 2/C
;
_chemical_formula_sum "Si O2"
_cell_formula_units_Z 56
_cell_length_a 8.523402
_cell_length_b 19.480956
_cell_length_c 14.525815
_cell_angle_alpha 90.000000
_cell_angle_beta 58.951733
_cell_angle_gamma 90.000000
_cell_volume 2066.375777
_symmetry_space_group_name_H-M "C 2/C"
_symmetry_group_IT_number 15
_symmetry_cell_setting 'monoclinic'
loop_
_space_group_symop_operation_xyz
x,y,z
-x,y,1/2-z
-x,-y,-z
x,-y,1/2+z
1/2+x,1/2+y,z
1/2-x,1/2+y,1/2-z
1/2-x,1/2-y,-z
1/2+x,1/2-y,1/2+z
loop_
_atom_site_type_symbol
_atom_site_label
_atom_site_fract_x
_atom_site_fract_y
_atom_site_fract_z
Si Si1 0.712317 0.453542 0.212840
Si Si2 0.291674 0.598458 0.287670
Si Si3 0.887899 0.300632 0.407826
Si Si4 0.731788 0.303180 0.248123
Si Si5 0.329039 0.407878 0.555650
Si Si6 0.523085 0.190047 0.137444
Si Si7 0.247650 0.559682 0.584603
O O1 0.500000 0.467948 0.250000
O O2 0.789441 0.525625 0.153122
O O3 0.720553 0.372818 0.193867
O O4 0.786851 0.451505 0.296101
O O5 0.500000 0.615114 0.250000
O O6 0.307716 0.591934 0.172391
O O7 0.150008 0.656480 0.360185
O O8 0.750000 0.250000 0.500000
O O9 0.819281 0.306322 0.323151
O O10 0.874005 0.383520 0.430745
O O11 0.092744 0.268405 0.356481
O O12 0.536795 0.268482 0.330895
O O13 0.256856 0.482244 0.542142
O O14 0.545596 0.409702 0.475052
O O15 0.212652 0.344106 0.551119
O O16 0.500000 0.165172 0.250000
#
# Coordination Sequence:
#
# PCOD9279105 Si02
#       7
#     8   8   8   8   8   8   8
#     4   9  18  37  57  80 109 148 191 240 294 343
#     4   9  19  32  58  82 112 153 196 237 291 352
#     4  10  23  38  60  84 116 159 198 241 298 354
#     4  10  22  39  58  84 119 152 200 245 292 363
#     4   9  19  36  59  85 120 150 195 248 293 351
#     4  10  21  34  57  86 116 156 193 242 297 346
#     4   9  19  37  60  84 114 155 194 239 299 357
#
# _framework density 27.100586
#
# number of rings (size 3 to 8) (size 9 to 14) (size 15 to 20)
#    0.000    2.571    0.000    0.429    8.000    0.000 
#    2.571    1.429    0.000    4.286    0.000    0.000 
#    0.000    0.000    0.000    0.000    0.000    0.000 
#
# Total GULP energy -155896.369057 kJ/mol
# GULP energy per Si atom -5567.727466 kJ/mol
# Density = 2.703890 g / cm^3
# Si number density = 27.100586 Si / 1000 Ang^3
#
#
#
# Elastic Constant Matrix: (Units=GPa)
#
#
# Indices 1 2 3 4 5 6 
#
# 1 78.3928 33.9143 13.9881 0.0000 -20.2873 0.0000
# 2 33.9143 136.4163 10.7995 0.0000 -28.0174 0.0000
# 3 13.9881 10.7995 37.4616 0.0000 -5.2129 0.0000
# 4 0.0000 0.0000 0.0000 22.7163 0.0000 15.9676
# 5 -20.2873 -28.0174 -5.2129 0.0000 49.3778 0.0000
# 6 0.0000 0.0000 0.0000 15.9676 0.0000 141.5512
#
#
#
# Elastic Compliance Matrix: (Units=1/GPa)
#
#
# Indices 1 2 3 4 5 6 
#
# 1 0.015891 -0.002659 -0.004535 0.000000 0.004542 0.000000
# 2 -0.002659 0.008859 -0.001029 0.000000 0.003825 0.000000
# 3 -0.004535 -0.001029 0.028766 0.000000 0.000590 0.000000
# 4 0.000000 0.000000 0.000000 0.047812 0.000000 -0.005393
# 5 0.004542 0.003825 0.000590 0.000000 0.024351 0.000000
# 6 0.000000 0.000000 0.000000 -0.005393 0.000000 0.007673
#
#
# Mechanical properties :
#
#
# Convention : Reuss Voigt Hill
#
# Bulk Modulus (GPa) = 26.97579 41.07495 34.02537
# Shear Modulus (GPa) = 30.83484 55.63366 43.23425
#
# Velocity S-wave (km/s) = 3.37678 4.53576 3.99849
# Velocity P-wave (km/s) = 5.01787 6.52842 5.82234
#
# Compressibility (1/GPa) = 0.03707028
#
# Stress axis : x y z
#
# Youngs Moduli (GPa) = 62.92824 112.88424 34.76317
#
# Poissons Ratio (x) = 0.30015 0.15766
# Poissons Ratio (y) = 0.16732 0.03576
# Poissons Ratio (z) = 0.28539 0.11612
#
# Static dielectric constant tensor:
#      x y z
#    x 2.167380 0.000000 0.006930 
#    y 0.000000 2.249610 0.000000 
#    z 0.006930 0.000000 2.196240 
# 
# From -- ./inp_files/192025.got.cif
#   From: 2010.05.17/outbox.cif.g08.bks.cpg/sg15_97_cif.got.tgz:192025.got - 2010.06.03 18:47:42.
