data_PCOD9279895
_publ_section_title
;
Structure prediction by ZEFSAII (Michael W. Deem and Ramdas Pophale) SiO2 
 PCOD9279895
Probable space group: C 2/C
;
_chemical_formula_sum "Si O2"
_cell_formula_units_Z 40
_cell_length_a 25.144523
_cell_length_b 12.194333
_cell_length_c 10.074723
_cell_angle_alpha 90.000000
_cell_angle_beta 32.870784
_cell_angle_gamma 90.000000
_cell_volume 1676.607455
_symmetry_space_group_name_H-M "C 2/C"
_symmetry_group_IT_number 15
_symmetry_cell_setting 'monoclinic'
loop_
_space_group_symop_operation_xyz
x,y,z
-x,y,1/2-z
-x,-y,-z
x,-y,1/2+z
1/2+x,1/2+y,z
1/2-x,1/2+y,1/2-z
1/2-x,1/2-y,-z
1/2+x,1/2-y,1/2+z
loop_
_atom_site_type_symbol
_atom_site_label
_atom_site_fract_x
_atom_site_fract_y
_atom_site_fract_z
Si Si1 0.103041 0.097438 0.570639
Si Si2 0.537494 0.827095 0.962676
Si Si3 0.706150 0.198765 0.888686
Si Si4 0.601450 0.610561 0.883166
Si Si5 0.909234 0.451888 0.039434
O O1 0.191648 0.181130 0.356331
O O2 0.106499 0.070050 0.720044
O O3 0.000000 0.156802 0.750000
O O4 0.098149 0.992122 0.487205
O O5 0.615481 0.806236 0.681796
O O6 0.518772 0.706174 0.059469
O O7 0.442341 0.889122 0.104204
O O8 0.591778 0.918013 0.937936
O O9 0.802704 0.175908 0.768607
O O10 0.685509 0.103718 0.825035
O O11 0.000000 0.434382 0.750000
#
# Coordination Sequence:
#
# PCOD9279895 Si02
#       5
#     8   8   8   8   8
#     4  11  23  43  63  88 121 168 204 244 305 374
#     4   9  18  36  57  85 116 160 198 244 300 366
#     4  10  21  36  61  83 122 157 201 246 308 360
#     4  11  24  38  65  88 125 157 206 252 304 357
#     4   9  18  33  59  88 114 151 200 249 298 358
#
# _framework density 23.857700999999999
#
# number of rings (size 3 to 8) (size 9 to 14) (size 15 to 20)
#    0.000    2.000    0.000    6.000    5.600    0.800 
#    0.000    5.000    0.000    0.000    0.000    0.000 
#    0.000    0.000    0.000    0.000    0.000    0.000 
#
# Total GULP energy -111701.409465 kJ/mol
# GULP energy per Si atom -5585.070473 kJ/mol
# Density = 2.380340 g / cm^3
# Si number density = 23.857701 Si / 1000 Ang^3
#
#
#
# Elastic Constant Matrix: (Units=GPa)
#
#
# Indices 1 2 3 4 5 6 
#
# 1 165.8126 78.5674 8.5923 0.0000 3.1029 0.0000
# 2 78.5674 162.3884 5.9938 0.0000 24.5230 0.0000
# 3 8.5923 5.9938 6.9640 0.0000 -0.3266 0.0000
# 4 0.0000 0.0000 0.0000 19.6190 0.0000 7.0329
# 5 3.1029 24.5230 -0.3266 0.0000 28.5145 0.0000
# 6 0.0000 0.0000 0.0000 7.0329 0.0000 56.7427
#
#
#
# Elastic Compliance Matrix: (Units=1/GPa)
#
#
# Indices 1 2 3 4 5 6 
#
# 1 0.008294 -0.004165 -0.006526 0.000000 0.002605 0.000000
# 2 -0.004165 0.009464 -0.003369 0.000000 -0.007725 0.000000
# 3 -0.006526 -0.003369 0.154800 0.000000 0.005380 0.000000
# 4 0.000000 0.000000 0.000000 0.053341 0.000000 -0.006611
# 5 0.002605 -0.007725 0.005380 0.000000 0.041491 0.000000
# 6 0.000000 0.000000 0.000000 -0.006611 0.000000 0.018443
#
#
# Mechanical properties :
#
#
# Convention : Reuss Voigt Hill
#
# Bulk Modulus (GPa) = 6.92340 57.94130 32.43235
# Shear Modulus (GPa) = 13.80836 37.10934 25.45885
#
# Velocity S-wave (km/s) = 2.40839 3.94819 3.27021
# Velocity P-wave (km/s) = 3.26222 6.71738 5.28040
#
# Compressibility (1/GPa) = 0.14443769
#
# Stress axis : x y z
#
# Youngs Moduli (GPa) = 120.56892 105.66061 6.45996
#
# Poissons Ratio (x) = 0.44011 0.04216
# Poissons Ratio (y) = 0.50221 0.02176
# Poissons Ratio (z) = 0.78684 0.35594
#
# Static dielectric constant tensor:
#      x y z
#    x 1.933400 0.000000 0.041310 
#    y 0.000000 2.040480 0.000000 
#    z 0.041310 0.000000 1.946300 
# 
# From -- ./inp_files/94525.got.cif
#   From: 2010.05.17/outbox.cif.g08.bks.cpg/sg15_48_cif.got.tgz:94525.got - 2010.06.03 18:47:42.
