data_PCOD9279322
_publ_section_title
;
Structure prediction by ZEFSAII (Michael W. Deem and Ramdas Pophale) SiO2 
 PCOD9279322
Probable space group: C 2/C
;
_chemical_formula_sum "Si O2"
_cell_formula_units_Z 40
_cell_length_a 16.374766
_cell_length_b 7.225600
_cell_length_c 17.032772
_cell_angle_alpha 90.000000
_cell_angle_beta 111.564618
_cell_angle_gamma 90.000000
_cell_volume 1874.213227
_symmetry_space_group_name_H-M "C 2/C"
_symmetry_group_IT_number 15
_symmetry_cell_setting 'monoclinic'
loop_
_space_group_symop_operation_xyz
x,y,z
-x,y,1/2-z
-x,-y,-z
x,-y,1/2+z
1/2+x,1/2+y,z
1/2-x,1/2+y,1/2-z
1/2-x,1/2-y,-z
1/2+x,1/2-y,1/2+z
loop_
_atom_site_type_symbol
_atom_site_label
_atom_site_fract_x
_atom_site_fract_y
_atom_site_fract_z
Si Si1 0.647013 0.578210 0.516912
Si Si2 0.020195 0.546906 0.841768
Si Si3 0.193230 0.219034 0.369006
Si Si4 0.502999 0.289585 0.447630
Si Si5 0.928782 0.076206 0.293608
O O1 0.720028 0.655781 0.602331
O O2 0.691599 0.593461 0.447081
O O3 0.596399 0.382458 0.502399
O O4 0.563893 0.714028 0.503161
O O5 0.113899 0.640795 0.859798
O O6 0.000000 0.452921 0.750000
O O7 0.016233 0.400862 0.908951
O O8 0.951449 0.714690 0.828340
O O9 0.164722 0.096928 0.283726
O O10 0.451927 0.428655 0.368576
O O11 0.000000 0.038088 0.250000
#
# Coordination Sequence:
#
# PCOD9279322 Si02
#       5
#     8   8   8   8   8
#     4  10  21  35  57  84 116 145 179 230 290 318
#     4   9  19  34  60  79 104 148 196 217 266 335
#     4   9  19  40  55  77 120 151 175 230 281 325
#     4  11  20  35  60  85 107 145 192 228 269 331
#     4   9  17  37  58  76 110 153 182 223 275 326
#
# _framework density 21.342289000000001
#
# number of rings (size 3 to 8) (size 9 to 14) (size 15 to 20)
#    0.000    2.800    4.000    0.600    0.000    1.600 
#    7.200    0.000    0.000    0.000    0.000    0.000 
#    0.000    0.000    0.000    0.000    0.000    0.000 
#
# Total GULP energy -111371.698978 kJ/mol
# GULP energy per Si atom -5568.584949 kJ/mol
# Density = 2.129371 g / cm^3
# Si number density = 21.342289 Si / 1000 Ang^3
#
#
#
# Elastic Constant Matrix: (Units=GPa)
#
#
# Indices 1 2 3 4 5 6 
#
# 1 46.6731 0.8074 8.5484 0.0000 14.0698 0.0000
# 2 0.8074 64.6347 12.0511 0.0000 -4.9850 0.0000
# 3 8.5484 12.0511 79.5244 0.0000 13.2810 0.0000
# 4 0.0000 0.0000 0.0000 54.6482 0.0000 -3.9944
# 5 14.0698 -4.9850 13.2810 0.0000 36.8319 0.0000
# 6 0.0000 0.0000 0.0000 -3.9944 0.0000 13.4506
#
#
#
# Elastic Compliance Matrix: (Units=1/GPa)
#
#
# Indices 1 2 3 4 5 6 
#
# 1 0.024350 -0.000820 -0.000980 0.000000 -0.009059 0.000000
# 2 -0.000820 0.016316 -0.002985 0.000000 0.003598 0.000000
# 3 -0.000980 -0.002985 0.013979 0.000000 -0.005070 0.000000
# 4 0.000000 0.000000 0.000000 0.018705 0.000000 0.005555
# 5 -0.009059 0.003598 -0.005070 0.000000 0.032926 0.000000
# 6 0.000000 0.000000 0.000000 0.005555 0.000000 0.075996
#
#
# Mechanical properties :
#
#
# Convention : Reuss Voigt Hill
#
# Bulk Modulus (GPa) = 22.18561 25.96066 24.07313
# Shear Modulus (GPa) = 24.16993 32.28115 28.22554
#
# Velocity S-wave (km/s) = 3.36890 3.89336 3.64059
# Velocity P-wave (km/s) = 5.05474 5.69222 5.38292
#
# Compressibility (1/GPa) = 0.04507427
#
# Stress axis : x y z
#
# Youngs Moduli (GPa) = 41.06718 61.28995 71.53449
#
# Poissons Ratio (x) = 0.05027 0.07012
# Poissons Ratio (y) = 0.03368 0.21355
# Poissons Ratio (z) = 0.04026 0.18296
#
# Static dielectric constant tensor:
#      x y z
#    x 1.753790 0.000000 0.006330 
#    y 0.000000 1.768390 0.000000 
#    z 0.006330 0.000000 1.924540 
# 
# From -- ./inp_files/208332.got.cif
#   From: 2010.05.17/outbox.cif.g08.bks.cpg/sg15_105_cif.got.tgz:208332.got - 2010.06.03 18:47:42.
