data_PCOD9279628
_publ_section_title
;
Structure prediction by ZEFSAII (Michael W. Deem and Ramdas Pophale) SiO2 
 PCOD9279628
Probable space group: C 2/C
;
_chemical_formula_sum "Si O2"
_cell_formula_units_Z 60
_cell_length_a 32.890590
_cell_length_b 8.359513
_cell_length_c 12.379860
_cell_angle_alpha 90.000000
_cell_angle_beta 119.750466
_cell_angle_gamma 90.000000
_cell_volume 2955.190926
_symmetry_space_group_name_H-M "C 2/C"
_symmetry_group_IT_number 15
_symmetry_cell_setting 'monoclinic'
loop_
_space_group_symop_operation_xyz
x,y,z
-x,y,1/2-z
-x,-y,-z
x,-y,1/2+z
1/2+x,1/2+y,z
1/2-x,1/2+y,1/2-z
1/2-x,1/2-y,-z
1/2+x,1/2-y,1/2+z
loop_
_atom_site_type_symbol
_atom_site_label
_atom_site_fract_x
_atom_site_fract_y
_atom_site_fract_z
Si Si1 0.738334 0.020863 0.932051
Si Si2 0.074451 0.661694 0.945751
Si Si3 0.105519 0.918251 0.835030
Si Si4 0.312415 0.685471 0.186742
Si Si5 0.500000 0.918073 0.750000
Si Si6 0.179240 0.108591 0.076393
Si Si7 0.074642 0.746121 0.198894
Si Si8 0.648246 0.070039 0.447620
O O1 0.711835 0.145723 0.818804
O O2 0.769318 0.892603 0.909388
O O3 0.697980 0.968030 0.960078
O O4 0.777911 0.111050 0.053121
O O5 0.070475 0.813093 0.859919
O O6 0.123426 0.575375 0.976872
O O7 0.035381 0.531573 0.863008
O O8 0.072753 0.713238 0.068452
O O9 0.135837 0.805615 0.795141
O O10 0.084878 0.068597 0.742269
O O11 0.143544 0.992018 0.968527
O O12 0.314863 0.568803 0.291255
O O13 0.471511 0.811203 0.797974
O O14 0.155644 0.281673 0.037276
O O15 0.115365 0.638350 0.308073
#
# Coordination Sequence:
#
# PCOD9279628 Si02
#       8
#     8   8   8   8   4   8   8   8
#     4  10  21  37  51  85 122 156 211 261 294 355
#     4  11  22  41  70  91 122 165 199 250 320 369
#     4  10  21  42  60  92 122 156 213 249 296 371
#     4  10  21  36  55  82 124 161 206 259 297 350
#     4  10  24  44  64 102 128 146 202 248 306 396
#     4  10  22  35  56  84 120 167 204 251 309 347
#     4  10  23  42  66  92 127 159 197 258 313 372
#     4  10  22  38  59  90 119 159 215 257 297 372
#
# _framework density 20.303256999999999
#
# number of rings (size 3 to 8) (size 9 to 14) (size 15 to 20)
#    0.000    1.867    1.333    1.600    3.733    0.533 
#    0.000    5.333    0.000    0.000    0.000    0.000 
#    0.000    0.000    0.000    0.000    0.000    0.000 
#
# Total GULP energy -167348.931657 kJ/mol
# GULP energy per Si atom -5578.297722 kJ/mol
# Density = 2.025705 g / cm^3
# Si number density = 20.303257 Si / 1000 Ang^3
#
#
#
# Elastic Constant Matrix: (Units=GPa)
#
#
# Indices 1 2 3 4 5 6 
#
# 1 104.5627 28.8520 29.0916 0.0000 -11.1193 0.0000
# 2 28.8520 68.0040 16.9864 0.0000 -4.5086 0.0000
# 3 29.0916 16.9864 78.7702 0.0000 -17.0317 0.0000
# 4 0.0000 0.0000 0.0000 -0.6976 0.0000 -4.2716
# 5 -11.1193 -4.5086 -17.0317 0.0000 23.9002 0.0000
# 6 0.0000 0.0000 0.0000 -4.2716 0.0000 26.1049
#
#
#
# Elastic Compliance Matrix: (Units=1/GPa)
#
#
# Indices 1 2 3 4 5 6 
#
# 1 0.011782 -0.004100 -0.002895 0.000000 0.002645 0.000000
# 2 -0.004100 0.016977 -0.002207 0.000000 -0.000277 0.000000
# 3 -0.002895 -0.002207 0.016383 0.000000 0.009912 0.000000
# 4 0.000000 0.000000 0.000000 -0.716070 0.000000 -0.117171
# 5 0.002645 -0.000277 0.009912 0.000000 0.050082 0.000000
# 6 0.000000 0.000000 0.000000 -0.117171 0.000000 0.019134
#
#
# Mechanical properties :
#
#
# Convention : Reuss Voigt Hill
#
# Bulk Modulus (GPa) = 37.39963 44.57743 40.98853
# Shear Modulus (GPa) = -8.70483 21.62198 6.45857
#
# Velocity S-wave (km/s) = -2.07285 3.26690 1.78549
# Velocity P-wave (km/s) = 3.56813 6.01944 4.94799
#
# Compressibility (1/GPa) = 0.02673823
#
# Stress axis : x y z
#
# Youngs Moduli (GPa) = 84.87708 58.90182 61.03711
#
# Poissons Ratio (x) = 0.24150 0.17672
# Poissons Ratio (y) = 0.34801 0.13470
# Poissons Ratio (z) = 0.24574 0.12999
#
# Static dielectric constant tensor:
#      x y z
#    x 1.720620 0.000000 -0.009160 
#    y 0.000000 1.766940 0.000000 
#    z -0.009160 0.000000 1.718340 
# 
# From -- ./inp_files/125953.got.cif
#   From: 2010.05.17/outbox.cif.g08.bks.cpg/sg15_63_cif.got.tgz:125953.got - 2010.06.03 18:47:42.
