data_PCOD9279601
_publ_section_title
;
Structure prediction by ZEFSAII (Michael W. Deem and Ramdas Pophale) SiO2 
 PCOD9279601
Probable space group: C 2/C
;
_chemical_formula_sum "Si O2"
_cell_formula_units_Z 56
_cell_length_a 19.338795
_cell_length_b 14.387618
_cell_length_c 21.852102
_cell_angle_alpha 90.000000
_cell_angle_beta 25.460749
_cell_angle_gamma 90.000000
_cell_volume 2613.795277
_symmetry_space_group_name_H-M "C 2/C"
_symmetry_group_IT_number 15
_symmetry_cell_setting 'monoclinic'
loop_
_space_group_symop_operation_xyz
x,y,z
-x,y,1/2-z
-x,-y,-z
x,-y,1/2+z
1/2+x,1/2+y,z
1/2-x,1/2+y,1/2-z
1/2-x,1/2-y,-z
1/2+x,1/2-y,1/2+z
loop_
_atom_site_type_symbol
_atom_site_label
_atom_site_fract_x
_atom_site_fract_y
_atom_site_fract_z
Si Si1 0.393582 0.195850 0.063576
Si Si2 0.824244 0.233866 0.075177
Si Si3 0.377455 0.486318 0.540540
Si Si4 0.469771 0.518024 0.709280
Si Si5 0.023768 0.768480 0.164115
Si Si6 0.327888 0.871219 0.238958
Si Si7 0.691580 0.000721 0.354075
O O1 0.279939 0.285465 0.152294
O O2 0.283906 0.110845 0.176026
O O3 0.539973 0.219788 0.992105
O O4 0.491995 0.162433 0.923701
O O5 0.845829 0.123243 0.061424
O O6 0.643903 0.256325 0.237860
O O7 0.844358 0.267001 0.988540
O O8 0.500000 0.500000 0.500000
O O9 0.457539 0.519457 0.412635
O O10 0.212358 0.543767 0.683166
O O11 0.500000 0.469567 0.750000
O O12 0.544225 0.621048 0.655174
O O13 0.279340 0.522481 0.847065
O O14 0.000000 0.724672 0.250000
O O15 0.258404 0.920335 0.232704
O O16 0.500000 0.000000 0.500000
#
# Coordination Sequence:
#
# PCOD9279601 Si02
#       7
#     8   8   8   8   8   8   8
#     4  11  23  36  61  94 126 161 206 270 327 372
#     4  11  21  34  58  87 121 163 202 256 316 367
#     4  11  21  37  62  89 127 163 219 262 312 383
#     4  10  21  39  62  90 127 174 212 257 328 398
#     4  10  21  36  54  83 123 164 205 240 305 399
#     4  11  23  38  60  98 125 163 211 273 323 378
#     4  10  21  38  60  95 131 161 214 272 315 379
#
# _framework density 21.424783999999999
#
# number of rings (size 3 to 8) (size 9 to 14) (size 15 to 20)
#    0.000    1.429    2.857    3.857    6.000    0.000 
#    0.000    0.000    0.000    0.857    0.000    0.000 
#    0.000    0.000    0.000    0.000    0.000    0.000 
#
# Total GULP energy -155965.259991 kJ/mol
# GULP energy per Si atom -5570.187857 kJ/mol
# Density = 2.137602 g / cm^3
# Si number density = 21.424784 Si / 1000 Ang^3
#
#
#
# Elastic Constant Matrix: (Units=GPa)
#
#
# Indices 1 2 3 4 5 6 
#
# 1 70.7229 1.3722 25.0025 -0.0008 16.4578 0.0005
# 2 1.3722 99.0663 19.7885 -0.0076 13.6024 -0.0003
# 3 25.0025 19.7885 104.7738 -0.0098 18.1908 0.0003
# 4 -0.0008 -0.0076 -0.0098 35.5984 0.0010 1.6255
# 5 16.4578 13.6024 18.1908 0.0010 27.9793 0.0001
# 6 0.0005 -0.0003 0.0003 1.6255 0.0001 14.7601
#
#
#
# Elastic Compliance Matrix: (Units=1/GPa)
#
#
# Indices 1 2 3 4 5 6 
#
# 1 0.017217 0.001570 -0.002834 0.000000 -0.009048 0.000000
# 2 0.001570 0.011112 -0.001550 0.000002 -0.005318 0.000000
# 3 -0.002834 -0.001550 0.011377 0.000003 -0.004976 0.000000
# 4 0.000000 0.000002 0.000003 0.028233 -0.000004 -0.003109
# 5 -0.009048 -0.005318 -0.004976 -0.000004 0.046883 0.000000
# 6 0.000000 0.000000 0.000000 -0.003109 0.000000 0.068093
#
#
# Mechanical properties :
#
#
# Convention : Reuss Voigt Hill
#
# Bulk Modulus (GPa) = 29.34457 40.76549 35.05503
# Shear Modulus (GPa) = 25.01207 30.89422 27.95315
#
# Velocity S-wave (km/s) = 3.42048 3.80147 3.61600
# Velocity P-wave (km/s) = 5.41534 6.19167 5.81647
#
# Compressibility (1/GPa) = 0.03407786
#
# Stress axis : x y z
#
# Youngs Moduli (GPa) = 58.08338 89.99010 87.89307
#
# Poissons Ratio (x) = -0.14128 0.24910
# Poissons Ratio (y) = -0.09119 0.13624
# Poissons Ratio (z) = 0.16462 0.13949
#
# Static dielectric constant tensor:
#      x y z
#    x 1.828190 0.000000 0.044510 
#    y 0.000000 1.816910 0.000000 
#    z 0.044510 0.000000 1.906020 
# 
# From -- ./inp_files/249242.got.cif
#   From: 2010.05.17/outbox.cif.g08.bks.cpg/sg15_125_cif.got.tgz:249242.got - 2010.06.03 18:47:42.
