data_PCOD9279321
_publ_section_title
;
Structure prediction by ZEFSAII (Michael W. Deem and Ramdas Pophale) SiO2 
 PCOD9279321
Probable space group: C 2/C
;
_chemical_formula_sum "Si O2"
_cell_formula_units_Z 40
_cell_length_a 12.968575
_cell_length_b 15.281735
_cell_length_c 11.850841
_cell_angle_alpha 90.000000
_cell_angle_beta 40.009106
_cell_angle_gamma 90.000000
_cell_volume 1509.954409
_symmetry_space_group_name_H-M "C 2/C"
_symmetry_group_IT_number 15
_symmetry_cell_setting 'monoclinic'
loop_
_space_group_symop_operation_xyz
x,y,z
-x,y,1/2-z
-x,-y,-z
x,-y,1/2+z
1/2+x,1/2+y,z
1/2-x,1/2+y,1/2-z
1/2-x,1/2-y,-z
1/2+x,1/2-y,1/2+z
loop_
_atom_site_type_symbol
_atom_site_label
_atom_site_fract_x
_atom_site_fract_y
_atom_site_fract_z
Si Si1 0.622100 0.094665 0.288477
Si Si2 0.536793 0.585756 0.542064
Si Si3 0.770455 0.525774 0.587639
Si Si4 0.123650 0.764211 0.432212
Si Si5 0.167868 0.631271 0.597423
O O1 0.435626 0.076693 0.419266
O O2 0.629650 0.192845 0.330632
O O3 0.672660 0.026351 0.344981
O O4 0.777351 0.085679 0.075703
O O5 0.500000 0.500000 0.500000
O O6 0.384680 0.584839 0.753767
O O7 0.518849 0.669891 0.475779
O O8 0.719751 0.440009 0.555015
O O9 0.122927 0.709047 0.548873
O O10 0.269134 0.830851 0.338316
O O11 0.000000 0.582122 0.750000
#
# Coordination Sequence:
#
# PCOD9279321 Si02
#       5
#     8   8   8   8   8
#     4   9  19  35  58  81 118 159 209 245 298 366
#     4  10  21  35  57  83 124 154 207 251 299 368
#     4   9  20  36  56  81 120 166 203 239 307 379
#     4  10  21  35  58  95 123 159 200 258 315 368
#     4  10  21  35  59  88 132 162 193 252 329 373
#
# _framework density 26.490866
#
# number of rings (size 3 to 8) (size 9 to 14) (size 15 to 20)
#    0.000    2.400    0.000    1.200   14.000    1.600 
#    0.000    0.000    0.000    0.000    0.000    5.600 
#    0.000    0.000    0.000    0.000    0.000    0.000 
#
# Total GULP energy -111699.001735 kJ/mol
# GULP energy per Si atom -5584.950087 kJ/mol
# Density = 2.643057 g / cm^3
# Si number density = 26.490866 Si / 1000 Ang^3
#
#
#
# Elastic Constant Matrix: (Units=GPa)
#
#
# Indices 1 2 3 4 5 6 
#
# 1 139.2954 64.3955 52.5717 0.0001 -53.2420 -0.0001
# 2 64.3955 139.3935 51.7492 -0.0001 -11.7193 0.0001
# 3 52.5717 51.7492 146.9009 0.0001 -33.5794 -0.0001
# 4 0.0001 -0.0001 0.0001 37.2060 0.0000 6.4736
# 5 -53.2420 -11.7193 -33.5794 0.0000 46.4251 0.0001
# 6 -0.0001 0.0001 -0.0001 6.4736 0.0001 34.5083
#
#
#
# Elastic Compliance Matrix: (Units=1/GPa)
#
#
# Indices 1 2 3 4 5 6 
#
# 1 0.016902 -0.006416 0.000326 0.000000 0.018000 0.000000
# 2 -0.006416 0.010689 -0.003036 0.000000 -0.006856 0.000000
# 3 0.000326 -0.003036 0.009190 0.000000 0.006254 0.000000
# 4 0.000000 0.000000 0.000000 0.027784 0.000000 -0.005212
# 5 0.018000 -0.006856 0.006254 0.000000 0.044976 0.000000
# 6 0.000000 0.000000 0.000000 -0.005212 0.000000 0.029956
#
#
# Mechanical properties :
#
#
# Convention : Reuss Voigt Hill
#
# Bulk Modulus (GPa) = 53.97262 84.78029 69.37646
# Shear Modulus (GPa) = 30.50142 40.75277 35.62710
#
# Velocity S-wave (km/s) = 3.39690 3.92646 3.67124
# Velocity P-wave (km/s) = 5.98360 7.25460 6.64954
#
# Compressibility (1/GPa) = 0.01852791
#
# Stress axis : x y z
#
# Youngs Moduli (GPa) = 59.16428 93.55625 108.81373
#
# Poissons Ratio (x) = 0.60025 -0.03547
# Poissons Ratio (y) = 0.37959 0.33041
# Poissons Ratio (z) = -0.01928 0.28408
#
# Static dielectric constant tensor:
#      x y z
#    x 2.167350 0.000000 0.031580 
#    y 0.000000 1.990140 0.000000 
#    z 0.031580 0.000000 2.207000 
# 
# From -- ./inp_files/54110.got.cif
#   From: 2010.05.17/outbox.cif.g08.bks.cpg/sg15_28_cif.got.tgz:54110.got - 2010.06.03 18:47:42.
