data_PCOD9279424
_publ_section_title
;
Structure prediction by ZEFSAII (Michael W. Deem and Ramdas Pophale) SiO2 
 PCOD9279424
Probable space group: C 2/C
;
_chemical_formula_sum "Si O2"
_cell_formula_units_Z 52
_cell_length_a 17.848866
_cell_length_b 16.521085
_cell_length_c 14.587047
_cell_angle_alpha 90.000000
_cell_angle_beta 33.594981
_cell_angle_gamma 90.000000
_cell_volume 2380.081532
_symmetry_space_group_name_H-M "C 2/C"
_symmetry_group_IT_number 15
_symmetry_cell_setting 'monoclinic'
loop_
_space_group_symop_operation_xyz
x,y,z
-x,y,1/2-z
-x,-y,-z
x,-y,1/2+z
1/2+x,1/2+y,z
1/2-x,1/2+y,1/2-z
1/2-x,1/2-y,-z
1/2+x,1/2-y,1/2+z
loop_
_atom_site_type_symbol
_atom_site_label
_atom_site_fract_x
_atom_site_fract_y
_atom_site_fract_z
Si Si1 0.750494 0.042478 0.459935
Si Si2 0.500000 0.634292 0.250000
Si Si3 0.487632 0.143301 0.470249
Si Si4 0.209539 0.790783 0.635652
Si Si5 0.792857 0.780920 0.238091
Si Si6 0.391985 0.975751 0.210759
Si Si7 0.859702 0.041421 0.670544
O O1 0.643052 0.023969 0.646453
O O2 0.807453 0.982004 0.325891
O O3 0.874925 0.076332 0.395379
O O4 0.717494 0.122674 0.435346
O O5 0.550816 0.687698 0.283177
O O6 0.352918 0.190275 0.571118
O O7 0.615429 0.203676 0.327595
O O8 0.516843 0.055858 0.394954
O O9 0.455467 0.107805 0.605883
O O10 0.250000 0.750000 0.500000
O O11 0.247050 0.739208 0.682417
O O12 0.879751 0.862319 0.150318
O O13 0.257878 0.983295 0.282287
O O14 0.000000 0.000000 0.500000
#
# Coordination Sequence:
#
# PCOD9279424 Si02
#       7
#     8   4   8   8   8   8   8
#     4  10  21  41  66 100 137 188 229 288 352 425
#     4   8  22  36  60 102 136 168 230 282 362 422
#     4  10  24  42  68  97 139 183 235 291 352 419
#     4  10  21  35  59  97 138 169 216 292 355 415
#     4  11  25  41  64 100 136 184 233 285 351 419
#     4  10  22  46  66  97 142 182 239 290 354 426
#     4  11  24  40  69 101 140 192 231 285 356 423
#
# _framework density 21.847992000000001
#
# number of rings (size 3 to 8) (size 9 to 14) (size 15 to 20)
#    0.923    0.923    0.000    3.692    8.615    0.000 
#    0.000   12.308    0.000    0.000    0.000    0.000 
#    0.000    0.000    0.000    0.000    0.000    0.000 
#
# Total GULP energy -144830.705943 kJ/mol
# GULP energy per Si atom -5570.411767 kJ/mol
# Density = 2.179826 g / cm^3
# Si number density = 21.847992 Si / 1000 Ang^3
#
#
#
# Elastic Constant Matrix: (Units=GPa)
#
#
# Indices 1 2 3 4 5 6 
#
# 1 49.2275 21.4042 35.0403 0.0000 -2.0224 0.0000
# 2 21.4042 129.7597 49.8044 -0.0001 4.9501 0.0001
# 3 35.0403 49.8044 110.1157 0.0000 -11.6968 0.0001
# 4 0.0000 -0.0001 0.0000 44.1357 0.0001 -13.8306
# 5 -2.0224 4.9501 -11.6968 0.0001 49.3596 0.0000
# 6 0.0000 0.0001 0.0001 -13.8306 0.0000 22.8482
#
#
#
# Elastic Compliance Matrix: (Units=1/GPa)
#
#
# Indices 1 2 3 4 5 6 
#
# 1 0.026483 -0.001309 -0.007905 0.000000 -0.000657 0.000000
# 2 -0.001309 0.009584 -0.004130 0.000000 -0.001993 0.000000
# 3 -0.007905 -0.004130 0.013822 0.000000 0.003366 0.000000
# 4 0.000000 0.000000 0.000000 0.027961 0.000000 0.016926
# 5 -0.000657 -0.001993 0.003366 0.000000 0.021230 0.000000
# 6 0.000000 0.000000 0.000000 0.016926 0.000000 0.054013
#
#
# Mechanical properties :
#
#
# Convention : Reuss Voigt Hill
#
# Bulk Modulus (GPa) = 43.10166 55.73340 49.41753
# Shear Modulus (GPa) = 26.66470 35.45896 31.06183
#
# Velocity S-wave (km/s) = 3.49730 4.03300 3.77467
# Velocity P-wave (km/s) = 6.00658 6.87399 6.45487
#
# Compressibility (1/GPa) = 0.02320096
#
# Stress axis : x y z
#
# Youngs Moduli (GPa) = 37.76039 104.34451 72.34795
#
# Poissons Ratio (x) = 0.13662 0.57189
# Poissons Ratio (y) = 0.04944 0.29877
# Poissons Ratio (z) = 0.29849 0.43091
#
# Static dielectric constant tensor:
#      x y z
#    x 1.861410 0.000000 -0.242180 
#    y 0.000000 1.865900 0.000000 
#    z -0.242180 0.000000 3.004630 
# 
# From -- ./inp_files/252941.got.cif
#   From: 2010.05.17/outbox.cif.g08.bks.cpg/sg15_127_cif.got.tgz:252941.got - 2010.06.03 18:47:42.
