data_PCOD9279028
_publ_section_title
;
Structure prediction by ZEFSAII (Michael W. Deem and Ramdas Pophale) SiO2 
 PCOD9279028
Probable space group: C 2/C
;
_chemical_formula_sum "Si O2"
_cell_formula_units_Z 48
_cell_length_a 22.408545
_cell_length_b 11.946035
_cell_length_c 17.180008
_cell_angle_alpha 90.000000
_cell_angle_beta 151.848445
_cell_angle_gamma 90.000000
_cell_volume 2169.820160
_symmetry_space_group_name_H-M "C 2/C"
_symmetry_group_IT_number 15
_symmetry_cell_setting 'monoclinic'
loop_
_space_group_symop_operation_xyz
x,y,z
-x,y,1/2-z
-x,-y,-z
x,-y,1/2+z
1/2+x,1/2+y,z
1/2-x,1/2+y,1/2-z
1/2-x,1/2-y,-z
1/2+x,1/2-y,1/2+z
loop_
_atom_site_type_symbol
_atom_site_label
_atom_site_fract_x
_atom_site_fract_y
_atom_site_fract_z
Si Si1 0.184588 0.655417 0.874040
Si Si2 0.519443 0.248764 0.975122
Si Si3 0.873701 0.387623 0.435419
Si Si4 0.655062 0.542284 0.579879
Si Si5 0.086680 0.428528 0.782375
Si Si6 0.745890 0.687576 0.148378
O O1 0.282601 0.611229 0.920531
O O2 0.151014 0.543204 0.883023
O O3 0.055627 0.702261 0.686351
O O4 0.250000 0.750000 0.000000
O O5 0.427728 0.206176 0.938312
O O6 0.543980 0.380653 0.986792
O O7 0.654869 0.202993 0.164378
O O8 0.767665 0.458473 0.272200
O O9 0.810153 0.310124 0.426878
O O10 0.988591 0.459196 0.599521
O O11 0.644360 0.412284 0.545077
O O12 0.180355 0.348075 0.844557
O O13 0.000000 0.380854 0.750000
#
# Coordination Sequence:
#
# PCOD9279028 Si02
#       6
#     8   8   8   8   8   8
#     4  10  21  34  53  81 116 145 183 229 279 335
#     4   9  18  33  56  81 109 145 179 230 281 330
#     4   9  18  35  56  81 110 145 186 229 271 329
#     4   9  18  33  54  82 108 142 182 233 278 323
#     4  10  21  35  56  81 108 153 187 219 276 335
#     4   9  18  35  57  80 113 139 187 233 271 327
#
# _framework density 22.121648
#
# number of rings (size 3 to 8) (size 9 to 14) (size 15 to 20)
#    0.000    2.667    0.000    1.000    2.333    5.333 
#    3.000    0.000    7.333    0.000    0.000    0.000 
#    0.000    0.000    0.000    0.000    0.000    0.000 
#
# Total GULP energy -133675.024314 kJ/mol
# GULP energy per Si atom -5569.792680 kJ/mol
# Density = 2.207130 g / cm^3
# Si number density = 22.121648 Si / 1000 Ang^3
#
#
#
# Elastic Constant Matrix: (Units=GPa)
#
#
# Indices 1 2 3 4 5 6 
#
# 1 38.0155 15.4749 -0.1991 0.0000 -3.4457 0.0000
# 2 15.4749 84.8469 14.9861 0.0000 -4.7881 0.0000
# 3 -0.1991 14.9861 49.6462 0.0000 -1.6089 0.0000
# 4 0.0000 0.0000 0.0000 21.0082 0.0000 -4.0130
# 5 -3.4457 -4.7881 -1.6089 0.0000 16.2858 0.0000
# 6 0.0000 0.0000 0.0000 -4.0130 0.0000 13.1572
#
#
#
# Elastic Compliance Matrix: (Units=1/GPa)
#
#
# Indices 1 2 3 4 5 6 
#
# 1 0.028917 -0.005339 0.001881 0.000000 0.004734 0.000000
# 2 -0.005339 0.013615 -0.004051 0.000000 0.002473 0.000000
# 3 0.001881 -0.004051 0.021416 0.000000 0.001323 0.000000
# 4 0.000000 0.000000 0.000000 0.050545 0.000000 0.015416
# 5 0.004734 0.002473 0.001323 0.000000 0.063263 0.000000
# 6 0.000000 0.000000 0.000000 0.015416 0.000000 0.080706
#
#
# Mechanical properties :
#
#
# Convention : Reuss Voigt Hill
#
# Bulk Modulus (GPa) = 20.43746 25.89250 23.16498
# Shear Modulus (GPa) = 17.25388 19.57337 18.41362
#
# Velocity S-wave (km/s) = 2.79580 2.97780 2.88823
# Velocity P-wave (km/s) = 4.43629 4.85315 4.64939
#
# Compressibility (1/GPa) = 0.04892976
#
# Stress axis : x y z
#
# Youngs Moduli (GPa) = 34.58114 73.44950 46.69462
#
# Poissons Ratio (x) = 0.39216 -0.08784
# Poissons Ratio (y) = 0.18464 0.18916
# Poissons Ratio (z) = -0.06505 0.29754
#
# Static dielectric constant tensor:
#      x y z
#    x 1.884360 0.000000 -0.001510 
#    y 0.000000 1.794510 0.000000 
#    z -0.001510 0.000000 1.832520 
# 
# From -- ./inp_files/104276.got.cif
#   From: 2010.05.17/outbox.cif.g08.bks.cpg/sg15_53_cif.got.tgz:104276.got - 2010.06.03 18:47:42.
