data_PCOD9279530
_publ_section_title
;
Structure prediction by ZEFSAII (Michael W. Deem and Ramdas Pophale) SiO2 
 PCOD9279530
Probable space group: C 2/C
;
_chemical_formula_sum "Si O2"
_cell_formula_units_Z 64
_cell_length_a 23.574212
_cell_length_b 22.077200
_cell_length_c 17.260730
_cell_angle_alpha 90.000000
_cell_angle_beta 161.007449
_cell_angle_gamma 90.000000
_cell_volume 2923.601931
_symmetry_space_group_name_H-M "C 2/C"
_symmetry_group_IT_number 15
_symmetry_cell_setting 'monoclinic'
loop_
_space_group_symop_operation_xyz
x,y,z
-x,y,1/2-z
-x,-y,-z
x,-y,1/2+z
1/2+x,1/2+y,z
1/2-x,1/2+y,1/2-z
1/2-x,1/2-y,-z
1/2+x,1/2-y,1/2+z
loop_
_atom_site_type_symbol
_atom_site_label
_atom_site_fract_x
_atom_site_fract_y
_atom_site_fract_z
Si Si1 0.081420 0.187173 0.599877
Si Si2 0.629389 0.090368 0.482436
Si Si3 0.146923 0.553485 0.761882
Si Si4 0.456582 0.620150 0.104747
Si Si5 0.351344 0.472415 0.749637
Si Si6 0.142435 0.426618 0.729543
Si Si7 0.561884 0.874289 0.408502
Si Si8 0.746692 0.812111 0.778046
O O1 0.209193 0.133339 0.790425
O O2 0.021386 0.169794 0.434378
O O3 0.192151 0.248608 0.743526
O O4 0.921360 0.191838 0.452750
O O5 0.505505 0.083417 0.397101
O O6 0.713943 0.027040 0.563050
O O7 0.500000 0.114921 0.250000
O O8 0.235594 0.488146 0.876931
O O9 0.956530 0.552324 0.476496
O O10 0.100049 0.580838 0.783917
O O11 0.256104 0.600673 0.853363
O O12 0.500000 0.636399 0.250000
O O13 0.550509 0.558688 0.195873
O O14 0.235539 0.415630 0.630172
O O15 0.500000 0.500000 0.000000
O O16 0.247583 0.366932 0.841690
O O17 0.500000 0.842904 0.250000
O O18 0.593308 0.828645 0.518879
#
# Coordination Sequence:
#
# PCOD9279530 Si02
#       8
#     8   8   8   8   8   8   8   8
#     4  12  26  50  67  99 133 186 242 290 348 405
#     4  12  25  44  72 104 140 180 228 289 350 420
#     4  10  21  35  64  95 139 174 213 272 344 412
#     4  12  26  40  66 104 146 181 226 287 343 417
#     4  12  22  42  67 102 145 182 223 280 349 418
#     4  10  21  41  64  99 129 178 224 275 346 411
#     4  11  22  40  66 104 137 178 227 279 344 423
#     4  11  26  45  74  92 133 186 237 291 347 414
#
# _framework density 21.890806000000001
#
# number of rings (size 3 to 8) (size 9 to 14) (size 15 to 20)
#    0.000    0.750    5.000    1.875    8.750    0.500 
#    0.000    4.375    0.000    0.000    0.000    0.000 
#    0.000    0.000    0.000    0.000    0.000    0.000 
#
# Total GULP energy -178547.668822 kJ/mol
# GULP energy per Si atom -5579.614651 kJ/mol
# Density = 2.184098 g / cm^3
# Si number density = 21.890806 Si / 1000 Ang^3
#
#
#
# Elastic Constant Matrix: (Units=GPa)
#
#
# Indices 1 2 3 4 5 6 
#
# 1 91.7235 15.0322 22.2233 0.0000 24.1498 0.0000
# 2 15.0322 81.6112 -9.3009 0.0000 21.7323 0.0000
# 3 22.2233 -9.3009 50.4517 0.0000 7.7288 0.0000
# 4 0.0000 0.0000 0.0000 18.1677 0.0000 11.0405
# 5 24.1498 21.7323 7.7288 0.0000 46.4293 0.0000
# 6 0.0000 0.0000 0.0000 11.0405 0.0000 30.7316
#
#
#
# Elastic Compliance Matrix: (Units=1/GPa)
#
#
# Indices 1 2 3 4 5 6 
#
# 1 0.014014 -0.001753 -0.005649 0.000000 -0.005528 0.000000
# 2 -0.001753 0.014916 0.004568 0.000000 -0.006830 0.000000
# 3 -0.005649 0.004568 0.023632 0.000000 -0.003134 0.000000
# 4 0.000000 0.000000 0.000000 0.070416 0.000000 -0.025297
# 5 -0.005528 -0.006830 -0.003134 0.000000 0.028132 0.000000
# 6 0.000000 0.000000 0.000000 -0.025297 0.000000 0.041628
#
#
# Mechanical properties :
#
#
# Convention : Reuss Voigt Hill
#
# Bulk Modulus (GPa) = 21.32508 31.07728 26.20118
# Shear Modulus (GPa) = 23.36055 32.12120 27.74088
#
# Velocity S-wave (km/s) = 3.27025 3.83474 3.56369
# Velocity P-wave (km/s) = 4.90124 5.81673 5.37850
#
# Compressibility (1/GPa) = 0.04689314
#
# Stress axis : x y z
#
# Youngs Moduli (GPa) = 71.35785 67.04417 42.31634
#
# Poissons Ratio (x) = 0.11752 0.23905
# Poissons Ratio (y) = 0.12508 -0.19331
# Poissons Ratio (z) = 0.40311 -0.30627
#
# Static dielectric constant tensor:
#      x y z
#    x 1.927980 0.000000 -0.014770 
#    y 0.000000 1.811130 0.000000 
#    z -0.014770 0.000000 1.838670 
# 
# From -- ./inp_files/220288.got.cif
#   From: 2010.05.17/outbox.cif.g08.bks.cpg/sg15_111_cif.got.tgz:220288.got - 2010.06.03 18:47:42.
