data_PCOD9279327
_publ_section_title
;
Structure prediction by ZEFSAII (Michael W. Deem and Ramdas Pophale) SiO2 
 PCOD9279327
Probable space group: C 2/C
;
_chemical_formula_sum "Si O2"
_cell_formula_units_Z 60
_cell_length_a 11.159079
_cell_length_b 29.393394
_cell_length_c 8.968670
_cell_angle_alpha 90.000000
_cell_angle_beta 101.667005
_cell_angle_gamma 90.000000
_cell_volume 2880.974220
_symmetry_space_group_name_H-M "C 2/C"
_symmetry_group_IT_number 15
_symmetry_cell_setting 'monoclinic'
loop_
_space_group_symop_operation_xyz
x,y,z
-x,y,1/2-z
-x,-y,-z
x,-y,1/2+z
1/2+x,1/2+y,z
1/2-x,1/2+y,1/2-z
1/2-x,1/2-y,-z
1/2+x,1/2-y,1/2+z
loop_
_atom_site_type_symbol
_atom_site_label
_atom_site_fract_x
_atom_site_fract_y
_atom_site_fract_z
Si Si1 0.740594 0.634986 0.213075
Si Si2 0.894541 0.939976 0.960712
Si Si3 0.633869 0.880415 0.295834
Si Si4 0.077414 0.314177 0.546808
Si Si5 0.000000 0.989815 0.250000
Si Si6 0.624401 0.626827 0.496485
Si Si7 0.122193 0.220560 0.681362
Si Si8 0.201161 0.681796 0.550442
O O1 0.724374 0.586361 0.129157
O O2 0.868057 0.649584 0.321804
O O3 0.648805 0.636255 0.328928
O O4 0.719848 0.670335 0.074304
O O5 0.004332 0.902974 0.985971
O O6 0.929553 0.978642 0.850419
O O7 0.904002 0.960560 0.128438
O O8 0.500000 0.904094 0.250000
O O9 0.602783 0.836244 0.392225
O O10 0.754293 0.899513 0.409388
O O11 0.679133 0.863290 0.146580
O O12 0.138541 0.265676 0.588592
O O13 0.934521 0.305312 0.530730
O O14 0.617259 0.674325 0.583478
O O15 0.232848 0.216677 0.825741
O O16 0.000000 0.222772 0.750000
#
# Coordination Sequence:
#
# PCOD9279327 Si02
#       8
#     8   8   8   8   4   8   8   8
#     4  11  21  36  59  83 120 152 200 244 291 373
#     4  11  22  41  61  98 121 159 190 243 318 366
#     4   8  18  36  56  78 108 155 203 245 287 351
#     4  10  22  40  55  81 120 162 211 255 303 344
#     4  10  24  40  66  88 134 148 190 248 314 388
#     4  10  21  35  57  85 122 152 201 245 298 363
#     4  11  23  36  55  83 119 165 212 261 297 350
#     4  10  21  36  55  80 110 159 206 245 297 351
#
# _framework density 20.826288000000002
#
# number of rings (size 3 to 8) (size 9 to 14) (size 15 to 20)
#    0.000    1.867    1.333    2.000    4.667    8.000 
#    0.000    5.333    0.000    0.000    0.000   12.133 
#    0.000    0.000    0.000    0.000    0.000    0.000 
#
# Total GULP energy -167406.119135 kJ/mol
# GULP energy per Si atom -5580.203971 kJ/mol
# Density = 2.077889 g / cm^3
# Si number density = 20.826288 Si / 1000 Ang^3
#
#
#
# Elastic Constant Matrix: (Units=GPa)
#
#
# Indices 1 2 3 4 5 6 
#
# 1 70.6725 20.7717 19.9425 0.0000 24.4295 0.0000
# 2 20.7717 71.7224 49.0189 0.0000 12.3407 0.0000
# 3 19.9425 49.0189 132.3544 0.0000 10.0679 0.0000
# 4 0.0000 0.0000 0.0000 36.6824 0.0000 8.6686
# 5 24.4295 12.3407 10.0679 0.0000 35.2312 0.0000
# 6 0.0000 0.0000 0.0000 8.6686 0.0000 13.1199
#
#
#
# Elastic Compliance Matrix: (Units=1/GPa)
#
#
# Indices 1 2 3 4 5 6 
#
# 1 0.019495 -0.002905 -0.000931 0.000000 -0.012235 0.000000
# 2 -0.002905 0.019882 -0.006695 0.000000 -0.003037 0.000000
# 3 -0.000931 -0.006695 0.010169 0.000000 0.000085 0.000000
# 4 0.000000 0.000000 0.000000 0.032305 0.000000 -0.021345
# 5 -0.012235 -0.003037 0.000085 0.000000 0.037907 0.000000
# 6 0.000000 0.000000 0.000000 -0.021345 0.000000 0.090323
#
#
# Mechanical properties :
#
#
# Convention : Reuss Voigt Hill
#
# Bulk Modulus (GPa) = 35.10600 50.46841 42.78720
# Shear Modulus (GPa) = 20.77812 29.34111 25.05962
#
# Velocity S-wave (km/s) = 3.16205 3.75754 3.47258
# Velocity P-wave (km/s) = 5.49769 6.56590 6.05540
#
# Compressibility (1/GPa) = 0.02848516
#
# Stress axis : x y z
#
# Youngs Moduli (GPa) = 51.29407 50.29659 98.33977
#
# Poissons Ratio (x) = 0.14610 0.09156
# Poissons Ratio (y) = 0.14899 0.65837
# Poissons Ratio (z) = 0.04776 0.33673
#
# Static dielectric constant tensor:
#      x y z
#    x 1.811690 0.000000 0.031410 
#    y 0.000000 1.751080 0.000000 
#    z 0.031410 0.000000 1.785480 
# 
# From -- ./inp_files/35264.got.cif
#   From: 2010.05.17/outbox.cif.g08.bks.cpg/sg15_18_cif.got.tgz:35264.got - 2010.06.03 18:47:42.
