data_PCOD9279247
_publ_section_title
;
Structure prediction by ZEFSAII (Michael W. Deem and Ramdas Pophale) SiO2 
 PCOD9279247
Probable space group: C 2/C
;
_chemical_formula_sum "Si O2"
_cell_formula_units_Z 64
_cell_length_a 7.842363
_cell_length_b 26.260131
_cell_length_c 13.424696
_cell_angle_alpha 90.000000
_cell_angle_beta 102.028811
_cell_angle_gamma 90.000000
_cell_volume 2703.997007
_symmetry_space_group_name_H-M "C 2/C"
_symmetry_group_IT_number 15
_symmetry_cell_setting 'monoclinic'
loop_
_space_group_symop_operation_xyz
x,y,z
-x,y,1/2-z
-x,-y,-z
x,-y,1/2+z
1/2+x,1/2+y,z
1/2-x,1/2+y,1/2-z
1/2-x,1/2-y,-z
1/2+x,1/2-y,1/2+z
loop_
_atom_site_type_symbol
_atom_site_label
_atom_site_fract_x
_atom_site_fract_y
_atom_site_fract_z
Si Si1 0.592523 0.679739 0.597455
Si Si2 0.922936 0.233670 0.397107
Si Si3 0.448924 0.163753 0.513416
Si Si4 0.721889 0.780027 0.688560
Si Si5 0.529746 0.053936 0.061627
Si Si6 0.918854 0.081000 0.152954
Si Si7 0.292821 0.519602 0.399225
Si Si8 0.032477 0.921760 0.060114
O O1 0.457337 0.703680 0.502430
O O2 0.780537 0.668898 0.565865
O O3 0.631291 0.725136 0.676499
O O4 0.522673 0.625971 0.629160
O O5 0.771855 0.210976 0.309151
O O6 0.918629 0.293702 0.427037
O O7 0.100550 0.227109 0.354116
O O8 0.387764 0.181424 0.394249
O O9 0.505535 0.104992 0.507521
O O10 0.723273 0.061328 0.128393
O O11 0.388050 0.047517 0.131283
O O12 0.500000 0.000000 0.000000
O O13 0.932156 0.037467 0.335194
O O14 0.943210 0.103712 0.046220
O O15 0.000000 0.115158 0.250000
O O16 0.304524 0.458975 0.402008
O O17 0.373055 0.540351 0.515305
#
# Coordination Sequence:
#
# PCOD9279247 Si02
#       8
#     8   8   8   8   8   8   8   8
#     4   9  14  26  48  70 100 143 180 219 283 326
#     4   8  15  26  43  70 106 133 183 237 271 326
#     4   9  16  27  45  76 104 137 188 224 272 342
#     4   8  15  26  43  71 102 139 179 234 277 326
#     4  12  19  34  59  79 111 154 184 224 280 338
#     4  10  21  35  54  81 112 143 183 238 276 325
#     4   9  19  35  54  78 110 144 186 221 272 342
#     4   9  16  35  52  77 107 142 182 226 268 340
#
# _framework density 23.668665000000001
#
# number of rings (size 3 to 8) (size 9 to 14) (size 15 to 20)
#    0.750    2.000    2.500    1.500    0.000    1.500 
#    0.000    1.250    0.000    6.000    0.000    1.750 
#    0.000    0.000    0.000    0.000    0.000    0.000 
#
# Total GULP energy -178151.596374 kJ/mol
# GULP energy per Si atom -5567.237387 kJ/mol
# Density = 2.361479 g / cm^3
# Si number density = 23.668665 Si / 1000 Ang^3
#
#
#
# Elastic Constant Matrix: (Units=GPa)
#
#
# Indices 1 2 3 4 5 6 
#
# 1 75.9861 13.5836 22.3663 0.0000 -6.1004 0.0000
# 2 13.5836 148.5717 3.4182 0.0000 -0.6127 0.0000
# 3 22.3663 3.4182 50.8972 0.0000 6.6795 0.0000
# 4 0.0000 0.0000 0.0000 -0.7596 0.0000 2.4894
# 5 -6.1004 -0.6127 6.6795 0.0000 15.9885 0.0000
# 6 0.0000 0.0000 0.0000 2.4894 0.0000 12.2991
#
#
#
# Elastic Compliance Matrix: (Units=1/GPa)
#
#
# Indices 1 2 3 4 5 6 
#
# 1 0.016703 -0.001290 -0.008552 0.000000 0.009896 0.000000
# 2 -0.001290 0.006844 0.000145 0.000000 -0.000290 0.000000
# 3 -0.008552 0.000145 0.025205 0.000000 -0.013787 0.000000
# 4 0.000000 0.000000 0.000000 -0.791477 0.000000 0.160201
# 5 0.009896 -0.000290 -0.013787 0.000000 0.072069 0.000000
# 6 0.000000 0.000000 0.000000 0.160201 0.000000 0.048881
#
#
# Mechanical properties :
#
#
# Convention : Reuss Voigt Hill
#
# Bulk Modulus (GPa) = 34.06085 39.35459 36.70772
# Shear Modulus (GPa) = -8.43746 21.24474 6.40364
#
# Velocity S-wave (km/s) = -1.89012 2.99923 1.64664
# Velocity P-wave (km/s) = 3.10782 5.35325 4.37697
#
# Compressibility (1/GPa) = 0.02935922
#
# Stress axis : x y z
#
# Youngs Moduli (GPa) = 59.87110 146.11090 39.67447
#
# Poissons Ratio (x) = 0.18841 0.33929
# Poissons Ratio (y) = 0.07720 -0.00576
# Poissons Ratio (z) = 0.51201 -0.02121
#
# Static dielectric constant tensor:
#      x y z
#    x 2.022590 0.000000 -0.063470 
#    y 0.000000 1.983620 0.000000 
#    z -0.063470 0.000000 2.085210 
# 
# From -- ./inp_files/138667.got.cif
#   From: 2010.05.17/outbox.cif.g08.bks.cpg/sg15_70_cif.got.tgz:138667.got - 2010.06.03 18:47:42.
