data_PCOD9279265
_publ_section_title
;
Structure prediction by ZEFSAII (Michael W. Deem and Ramdas Pophale) SiO2 
 PCOD9279265
Probable space group: C 2/C
;
_chemical_formula_sum "Si O2"
_cell_formula_units_Z 56
_cell_length_a 16.860939
_cell_length_b 30.500754
_cell_length_c 9.493102
_cell_angle_alpha 90.000000
_cell_angle_beta 141.106760
_cell_angle_gamma 90.000000
_cell_volume 3065.286450
_symmetry_space_group_name_H-M "C 2/C"
_symmetry_group_IT_number 15
_symmetry_cell_setting 'monoclinic'
loop_
_space_group_symop_operation_xyz
x,y,z
-x,y,1/2-z
-x,-y,-z
x,-y,1/2+z
1/2+x,1/2+y,z
1/2-x,1/2+y,1/2-z
1/2-x,1/2-y,-z
1/2+x,1/2-y,1/2+z
loop_
_atom_site_type_symbol
_atom_site_label
_atom_site_fract_x
_atom_site_fract_y
_atom_site_fract_z
Si Si1 0.190476 0.748299 0.762255
Si Si2 0.511626 0.955811 0.101994
Si Si3 0.320496 0.876286 0.842439
Si Si4 0.189047 0.619677 0.840909
Si Si5 0.427947 0.336489 0.006418
Si Si6 0.606804 0.321099 0.000792
Si Si7 0.500088 0.819326 0.581947
O O1 0.162252 0.795890 0.662882
O O2 0.289710 0.716235 0.819997
O O3 0.054557 0.724379 0.565381
O O4 0.250000 0.750000 0.000000
O O5 0.500000 0.966322 0.250000
O O6 0.645423 0.930471 0.265926
O O7 0.400003 0.920206 0.917378
O O8 0.500000 0.000000 0.000000
O O9 0.169435 0.876964 0.617651
O O10 0.373908 0.838352 0.813837
O O11 0.344006 0.867806 0.042560
O O12 0.324770 0.639575 0.990777
O O13 0.101333 0.644728 0.608323
O O14 0.500000 0.327749 0.250000
O O15 0.534735 0.339724 0.035333
O O16 0.500000 0.301685 0.750000
O O17 0.500000 0.814473 0.750000
#
# Coordination Sequence:
#
# PCOD9279265 Si02
#       7
#     8   8   8   8   8   8   8
#     4  11  23  38  55  78 109 156 205 248 280 337
#     4   9  19  37  63  95 117 143 184 234 291 346
#     4  10  21  39  61  82 116 158 191 228 291 357
#     4   9  19  38  61  83 116 157 190 228 282 363
#     4  12  26  38  56  84 117 155 195 255 289 336
#     4  11  21  40  59  82 109 159 209 232 290 344
#     4  10  21  35  55  84 110 144 196 247 294 327
#
# _framework density 18.269089999999998
#
# number of rings (size 3 to 8) (size 9 to 14) (size 15 to 20)
#    0.000    1.714    2.857    2.571    6.000    2.857 
#    2.571    0.000    0.000    1.714    0.000    0.000 
#    0.000    0.000    0.000    0.000    0.000    0.000 
#
# Total GULP energy -156028.349202 kJ/mol
# GULP energy per Si atom -5572.441043 kJ/mol
# Density = 1.822751 g / cm^3
# Si number density = 18.269090 Si / 1000 Ang^3
#
#
#
# Elastic Constant Matrix: (Units=GPa)
#
#
# Indices 1 2 3 4 5 6 
#
# 1 118.9151 43.9957 26.9029 0.0000 5.4235 0.0000
# 2 43.9957 89.8451 26.0842 0.0000 -0.1534 0.0000
# 3 26.9029 26.0842 81.9437 0.0000 -15.6114 0.0000
# 4 0.0000 0.0000 0.0000 21.0193 0.0000 -4.0097
# 5 5.4235 -0.1534 -15.6114 0.0000 30.9985 0.0000
# 6 0.0000 0.0000 0.0000 -4.0097 0.0000 19.9145
#
#
#
# Elastic Compliance Matrix: (Units=1/GPa)
#
#
# Indices 1 2 3 4 5 6 
#
# 1 0.010857 -0.004522 -0.002755 0.000000 -0.003310 0.000000
# 2 -0.004522 0.014273 -0.003202 0.000000 -0.000751 0.000000
# 3 -0.002755 -0.003202 0.015725 0.000000 0.008386 0.000000
# 4 0.000000 0.000000 0.000000 0.049476 0.000000 0.009962
# 5 -0.003310 -0.000751 0.008386 0.000000 0.037058 0.000000
# 6 0.000000 0.000000 0.000000 0.009962 0.000000 0.052220
#
#
# Mechanical properties :
#
#
# Convention : Reuss Voigt Hill
#
# Bulk Modulus (GPa) = 50.26103 53.85216 52.05659
# Shear Modulus (GPa) = 24.13140 27.30121 25.71631
#
# Velocity S-wave (km/s) = 3.63834 3.86993 3.75592
# Velocity P-wave (km/s) = 6.72468 7.03631 6.88226
#
# Compressibility (1/GPa) = 0.01989613
#
# Stress axis : x y z
#
# Youngs Moduli (GPa) = 92.10876 70.06293 63.59359
#
# Poissons Ratio (x) = 0.31683 0.17523
# Poissons Ratio (y) = 0.41652 0.20361
# Poissons Ratio (z) = 0.25380 0.22432
#
# Static dielectric constant tensor:
#      x y z
#    x 1.703090 0.000000 0.041450 
#    y 0.000000 1.669540 0.000000 
#    z 0.041450 0.000000 1.659640 
# 
# From -- ./inp_files/52665.got.cif
#   From: 2010.05.17/outbox.cif.g08.bks.cpg/sg15_27_cif.got.tgz:52665.got - 2010.06.03 18:47:42.
