data_PCOD9279052
_publ_section_title
;
Structure prediction by ZEFSAII (Michael W. Deem and Ramdas Pophale) SiO2 
 PCOD9279052
Probable space group: C 2/C
;
_chemical_formula_sum "Si O2"
_cell_formula_units_Z 52
_cell_length_a 7.755450
_cell_length_b 22.504450
_cell_length_c 17.809226
_cell_angle_alpha 90.000000
_cell_angle_beta 57.489263
_cell_angle_gamma 90.000000
_cell_volume 2621.185664
_symmetry_space_group_name_H-M "C 2/C"
_symmetry_group_IT_number 15
_symmetry_cell_setting 'monoclinic'
loop_
_space_group_symop_operation_xyz
x,y,z
-x,y,1/2-z
-x,-y,-z
x,-y,1/2+z
1/2+x,1/2+y,z
1/2-x,1/2+y,1/2-z
1/2-x,1/2-y,-z
1/2+x,1/2-y,1/2+z
loop_
_atom_site_type_symbol
_atom_site_label
_atom_site_fract_x
_atom_site_fract_y
_atom_site_fract_z
Si Si1 0.842235 0.593045 0.066803
Si Si2 0.428295 0.581631 0.967988
Si Si3 0.145878 0.539695 0.896754
Si Si4 0.113603 0.924204 0.851902
Si Si5 0.764502 0.549077 0.782411
Si Si6 0.500000 0.837531 0.750000
Si Si7 0.850618 0.691227 0.442390
O O1 0.876894 0.531827 0.106978
O O2 0.601724 0.603945 0.120701
O O3 0.971151 0.650988 0.059839
O O4 0.929952 0.570004 0.966725
O O5 0.281582 0.552162 0.939185
O O6 0.644100 0.583707 0.875225
O O7 0.408236 0.554570 0.055841
O O8 0.339464 0.646008 0.009111
O O9 0.237095 0.571352 0.802601
O O10 0.302620 0.880933 0.790159
O O11 0.154209 0.985639 0.801441
O O12 0.000000 0.540395 0.750000
O O13 0.556217 0.800425 0.662708
O O14 0.750000 0.750000 0.500000
#
# Coordination Sequence:
#
# PCOD9279052 Si02
#       7
#     8   8   8   8   8   4   8
#     4  10  21  36  61  85 124 157 204 257 305 379
#     4  10  22  38  58  84 127 161 201 262 315 383
#     4  10  21  34  54  91 125 160 201 246 320 388
#     4  11  21  36  60  91 123 163 203 248 316 383
#     4  12  22  31  54  90 130 164 197 243 319 395
#     4  10  22  40  64  88 114 160 208 252 312 374
#     4  10  23  45  64  86 117 163 216 270 315 362
#
# _framework density 19.838349999999998
#
# number of rings (size 3 to 8) (size 9 to 14) (size 15 to 20)
#    0.000    1.538    2.308    2.769    6.462    1.846 
#    5.538    3.077    3.385    0.000    0.000    0.000 
#    0.000    0.000    0.000    0.000    0.000    0.000 
#
# Total GULP energy -144848.060538 kJ/mol
# GULP energy per Si atom -5571.079251 kJ/mol
# Density = 1.979320 g / cm^3
# Si number density = 19.838350 Si / 1000 Ang^3
#
#
#
# Elastic Constant Matrix: (Units=GPa)
#
#
# Indices 1 2 3 4 5 6 
#
# 1 65.0444 24.3569 42.1435 0.0000 -25.3293 0.0000
# 2 24.3569 70.5949 47.7689 0.0000 -6.3230 0.0000
# 3 42.1435 47.7689 197.4527 0.0000 -10.9882 0.0000
# 4 0.0000 0.0000 0.0000 31.4443 0.0000 -5.1968
# 5 -25.3293 -6.3230 -10.9882 0.0000 44.3515 0.0000
# 6 0.0000 0.0000 0.0000 -5.1968 0.0000 12.3784
#
#
#
# Elastic Compliance Matrix: (Units=1/GPa)
#
#
# Indices 1 2 3 4 5 6 
#
# 1 0.024141 -0.005029 -0.003253 0.000000 0.012264 0.000000
# 2 -0.005029 0.018074 -0.003362 0.000000 -0.001128 0.000000
# 3 -0.003253 -0.003362 0.006532 0.000000 -0.000719 0.000000
# 4 0.000000 0.000000 0.000000 0.034173 0.000000 0.014347
# 5 0.012264 -0.001128 -0.000719 0.000000 0.029212 0.000000
# 6 0.000000 0.000000 0.000000 0.014347 0.000000 0.086809
#
#
# Mechanical properties :
#
#
# Convention : Reuss Voigt Hill
#
# Bulk Modulus (GPa) = 39.27987 62.40341 50.84164
# Shear Modulus (GPa) = 21.67148 32.22304 26.94726
#
# Velocity S-wave (km/s) = 3.30874 4.03461 3.68957
# Velocity P-wave (km/s) = 5.86856 7.29577 6.62074
#
# Compressibility (1/GPa) = 0.02545833
#
# Stress axis : x y z
#
# Youngs Moduli (GPa) = 41.42301 55.32662 153.08691
#
# Poissons Ratio (x) = 0.27826 0.49805
# Poissons Ratio (y) = 0.20833 0.51468
# Poissons Ratio (z) = 0.13476 0.18601
#
# Static dielectric constant tensor:
#      x y z
#    x 1.797740 0.000000 0.024030 
#    y 0.000000 1.687920 0.000000 
#    z 0.024030 0.000000 1.800600 
# 
# From -- ./inp_files/192457.got.cif
#   From: 2010.05.17/outbox.cif.g08.bks.cpg/sg15_97_cif.got.tgz:192457.got - 2010.06.03 18:47:42.
