data_PCOD9279520
_publ_section_title
;
Structure prediction by ZEFSAII (Michael W. Deem and Ramdas Pophale) SiO2 
 PCOD9279520
Probable space group: C 2/C
;
_chemical_formula_sum "Si O2"
_cell_formula_units_Z 44
_cell_length_a 5.165992
_cell_length_b 20.971856
_cell_length_c 19.025306
_cell_angle_alpha 90.000000
_cell_angle_beta 69.650065
_cell_angle_gamma 90.000000
_cell_volume 1932.562107
_symmetry_space_group_name_H-M "C 2/C"
_symmetry_group_IT_number 15
_symmetry_cell_setting 'monoclinic'
loop_
_space_group_symop_operation_xyz
x,y,z
-x,y,1/2-z
-x,-y,-z
x,-y,1/2+z
1/2+x,1/2+y,z
1/2-x,1/2+y,1/2-z
1/2-x,1/2-y,-z
1/2+x,1/2-y,1/2+z
loop_
_atom_site_type_symbol
_atom_site_label
_atom_site_fract_x
_atom_site_fract_y
_atom_site_fract_z
Si Si1 0.217572 0.372292 0.497894
Si Si2 0.192805 0.098472 0.862441
Si Si3 0.958163 0.288314 0.104348
Si Si4 0.500000 0.993375 0.750000
Si Si5 0.500000 0.682553 0.750000
Si Si6 0.500000 0.406910 0.750000
Si Si7 0.114915 0.149773 0.089532
O O1 0.410535 0.416698 0.430727
O O2 0.202779 0.308013 0.451207
O O3 0.374605 0.365555 0.556658
O O4 0.897995 0.386045 0.542940
O O5 0.367646 0.148825 0.891802
O O6 0.364465 0.037721 0.822693
O O7 0.126230 0.136609 0.797226
O O8 0.734590 0.278227 0.187495
O O9 0.145239 0.226279 0.081400
O O10 0.264464 0.951003 0.737715
O O11 0.461213 0.366703 0.824093
#
# Coordination Sequence:
#
# PCOD9279520 Si02
#       7
#     8   8   8   4   4   4   8
#     4  11  25  44  72 111 140 185 219 291 363 416
#     4  11  23  42  75 109 134 178 237 305 347 397
#     4  11  23  39  74 111 144 181 220 291 361 415
#     4  12  26  52  72  99 139 182 256 298 340 400
#     4  10  21  35  64 118 141 173 232 280 364 404
#     4  12  31  49  72  95 140 207 232 290 354 410
#     4  12  27  47  68 102 154 180 233 271 357 456
#
# _framework density 22.767703000000001
#
# number of rings (size 3 to 8) (size 9 to 14) (size 15 to 20)
#    0.000    0.727    3.636    2.727   10.182    0.727 
#    0.000    5.455    0.000    0.000    0.000    0.000 
#    0.000    0.000    0.000    0.000    0.000    0.000 
#
# Total GULP energy -123104.016270 kJ/mol
# GULP energy per Si atom -5595.637103 kJ/mol
# Density = 2.271588 g / cm^3
# Si number density = 22.767703 Si / 1000 Ang^3
#
#
#
# Elastic Constant Matrix: (Units=GPa)
#
#
# Indices 1 2 3 4 5 6 
#
# 1 151.2257 35.4700 56.8207 0.0000 14.0865 0.0000
# 2 35.4700 63.2771 19.0860 0.0000 8.3784 0.0000
# 3 56.8207 19.0860 120.2529 0.0000 9.1009 0.0000
# 4 0.0000 0.0000 0.0000 -7.2199 0.0000 -17.5601
# 5 14.0865 8.3784 9.1009 0.0000 52.4608 0.0000
# 6 0.0000 0.0000 0.0000 -17.5601 0.0000 -75.1912
#
#
#
# Elastic Compliance Matrix: (Units=1/GPa)
#
#
# Indices 1 2 3 4 5 6 
#
# 1 0.008939 -0.003788 -0.003533 0.000000 -0.001182 0.000000
# 2 -0.003788 0.018464 -0.001007 0.000000 -0.001757 0.000000
# 3 -0.003533 -0.001007 0.010195 0.000000 -0.000659 0.000000
# 4 0.000000 0.000000 0.000000 -0.320623 0.000000 0.074878
# 5 -0.001182 -0.001757 -0.000659 0.000000 0.019774 0.000000
# 6 0.000000 0.000000 0.000000 0.074878 0.000000 -0.030787
#
#
# Mechanical properties :
#
#
# Convention : Reuss Voigt Hill
#
# Bulk Modulus (GPa) = 47.75614 61.94545 54.85080
# Shear Modulus (GPa) = -18.49107 8.90188 -4.79460
#
# Velocity S-wave (km/s) = -2.85294 1.97948 -1.45274
# Velocity P-wave (km/s) = 3.18882 5.70010 4.61843
#
# Compressibility (1/GPa) = 0.02093972
#
# Stress axis : x y z
#
# Youngs Moduli (GPa) = 111.87209 54.16060 98.08823
#
# Poissons Ratio (x) = 0.20519 0.34654
# Poissons Ratio (y) = 0.42383 0.09882
# Poissons Ratio (z) = 0.39523 0.05456
#
# Static dielectric constant tensor:
#      x y z
#    x 1.874270 0.000000 -0.028910 
#    y 0.000000 1.804220 0.000000 
#    z -0.028910 0.000000 1.875870 
# 
# From -- ./inp_files/184861.got.cif
#   From: 2010.05.17/outbox.cif.g08.bks.cpg/sg15_93_cif.got.tgz:184861.got - 2010.06.03 18:47:42.
