data_PCOD9279488
_publ_section_title
;
Structure prediction by ZEFSAII (Michael W. Deem and Ramdas Pophale) SiO2 
 PCOD9279488
Probable space group: C 2/C
;
_chemical_formula_sum "Si O2"
_cell_formula_units_Z 56
_cell_length_a 18.070972
_cell_length_b 24.090383
_cell_length_c 9.376657
_cell_angle_alpha 90.000000
_cell_angle_beta 44.774452
_cell_angle_gamma 90.000000
_cell_volume 2875.026669
_symmetry_space_group_name_H-M "C 2/C"
_symmetry_group_IT_number 15
_symmetry_cell_setting 'monoclinic'
loop_
_space_group_symop_operation_xyz
x,y,z
-x,y,1/2-z
-x,-y,-z
x,-y,1/2+z
1/2+x,1/2+y,z
1/2-x,1/2+y,1/2-z
1/2-x,1/2-y,-z
1/2+x,1/2-y,1/2+z
loop_
_atom_site_type_symbol
_atom_site_label
_atom_site_fract_x
_atom_site_fract_y
_atom_site_fract_z
Si Si1 0.586290 0.771680 0.256931
Si Si2 0.486632 0.863902 0.939111
Si Si3 0.625283 0.561204 0.065539
Si Si4 0.785626 0.595271 0.289042
Si Si5 0.291825 0.661885 0.374719
Si Si6 0.391075 0.978840 0.083234
Si Si7 0.221239 0.037281 0.622976
O O1 0.500000 0.769071 0.250000
O O2 0.548544 0.806409 0.444969
O O3 0.622910 0.710626 0.252639
O O4 0.684382 0.806465 0.059953
O O5 0.500000 0.864202 0.750000
O O6 0.601562 0.876831 0.844731
O O7 0.405049 0.913055 0.098563
O O8 0.500000 0.561740 0.250000
O O9 0.672578 0.619396 0.052055
O O10 0.668225 0.514473 0.116501
O O11 0.665242 0.548961 0.850475
O O12 0.726525 0.625071 0.241505
O O13 0.813568 0.530175 0.226534
O O14 0.718440 0.591086 0.525312
O O15 0.346869 0.973502 0.981612
O O16 0.500000 0.000000 0.000000
#
# Coordination Sequence:
#
# PCOD9279488 Si02
#       7
#     8   8   8   8   8   8   8
#     4  11  24  44  69  97 130 182 232 283 336 395
#     4  11  22  39  64 100 143 174 215 274 337 415
#     4  12  25  43  65  94 135 184 228 284 333 409
#     4  11  22  41  64 102 140 174 217 276 338 408
#     4  11  24  45  68  93 132 178 236 282 334 398
#     4  10  21  35  62 102 143 173 205 258 349 412
#     4  12  22  40  65 100 137 177 221 275 348 409
#
# _framework density 19.478079999999999
#
# number of rings (size 3 to 8) (size 9 to 14) (size 15 to 20)
#    0.000    0.857    5.714    1.714    0.000    0.000 
#    2.571    3.571    0.000    0.000    0.000    0.000 
#    0.000    0.000    0.000    0.000    0.000    0.000 
#
# Total GULP energy -155932.656944 kJ/mol
# GULP energy per Si atom -5569.023462 kJ/mol
# Density = 1.943375 g / cm^3
# Si number density = 19.478080 Si / 1000 Ang^3
#
#
#
# Elastic Constant Matrix: (Units=GPa)
#
#
# Indices 1 2 3 4 5 6 
#
# 1 119.2985 72.6833 43.7160 0.0000 -1.4377 0.0000
# 2 72.6833 135.7655 76.5557 0.0000 4.9676 0.0000
# 3 43.7160 76.5557 96.0424 0.0000 14.3108 0.0000
# 4 0.0000 0.0000 0.0000 23.8182 0.0000 -4.0536
# 5 -1.4377 4.9676 14.3108 0.0000 31.9846 0.0000
# 6 0.0000 0.0000 0.0000 -4.0536 0.0000 38.7284
#
#
#
# Elastic Compliance Matrix: (Units=1/GPa)
#
#
# Indices 1 2 3 4 5 6 
#
# 1 0.012579 -0.006195 -0.001088 0.000000 0.002014 0.000000
# 2 -0.006195 0.016683 -0.010769 0.000000 0.001949 0.000000
# 3 -0.001088 -0.010769 0.020624 0.000000 -0.007604 0.000000
# 4 0.000000 0.000000 0.000000 0.042746 0.000000 0.004474
# 5 0.002014 0.001949 -0.007604 0.000000 0.034455 0.000000
# 6 0.000000 0.000000 0.000000 0.004474 0.000000 0.026289
#
#
# Mechanical properties :
#
#
# Convention : Reuss Voigt Hill
#
# Bulk Modulus (GPa) = 72.55083 81.89070 77.22077
# Shear Modulus (GPa) = 25.76317 29.44967 27.60642
#
# Velocity S-wave (km/s) = 3.64081 3.89258 3.76880
# Velocity P-wave (km/s) = 7.41635 7.89536 7.65960
#
# Compressibility (1/GPa) = 0.01378344
#
# Stress axis : x y z
#
# Youngs Moduli (GPa) = 79.49449 59.94124 48.48625
#
# Poissons Ratio (x) = 0.37131 0.05277
# Poissons Ratio (y) = 0.49243 0.52214
# Poissons Ratio (z) = 0.08652 0.64550
#
# Static dielectric constant tensor:
#      x y z
#    x 1.712670 0.000000 0.007250 
#    y 0.000000 1.669450 0.000000 
#    z 0.007250 0.000000 1.783620 
# 
# From -- ./inp_files/51482.got.cif
#   From: 2010.05.17/outbox.cif.g08.bks.cpg/sg15_26_cif.got.tgz:51482.got - 2010.06.03 18:47:42.
