data_PCOD9279755
_publ_section_title
;
Structure prediction by ZEFSAII (Michael W. Deem and Ramdas Pophale) SiO2 
 PCOD9279755
Probable space group: C 2/C
;
_chemical_formula_sum "Si O2"
_cell_formula_units_Z 40
_cell_length_a 15.266815
_cell_length_b 24.607659
_cell_length_c 15.548452
_cell_angle_alpha 90.000000
_cell_angle_beta 160.655719
_cell_angle_gamma 90.000000
_cell_volume 1934.877793
_symmetry_space_group_name_H-M "C 2/C"
_symmetry_group_IT_number 15
_symmetry_cell_setting 'monoclinic'
loop_
_space_group_symop_operation_xyz
x,y,z
-x,y,1/2-z
-x,-y,-z
x,-y,1/2+z
1/2+x,1/2+y,z
1/2-x,1/2+y,1/2-z
1/2-x,1/2-y,-z
1/2+x,1/2-y,1/2+z
loop_
_atom_site_type_symbol
_atom_site_label
_atom_site_fract_x
_atom_site_fract_y
_atom_site_fract_z
Si Si1 0.213415 0.861518 0.111572
Si Si2 0.500000 0.787678 0.250000
Si Si3 0.490094 0.712550 0.925086
Si Si4 0.500000 0.984539 0.250000
Si Si5 0.790464 0.485188 0.233653
Si Si6 0.000000 0.211155 0.750000
Si Si7 0.500000 0.409741 0.750000
O O1 0.439032 0.826234 0.274436
O O2 0.091415 0.826651 0.074312
O O3 0.297175 0.920502 0.222608
O O4 0.013015 0.874084 0.847662
O O5 0.750000 0.750000 0.500000
O O6 0.479237 0.681826 0.822387
O O7 0.270913 0.760080 0.708480
O O8 0.375168 0.011946 0.219935
O O9 0.741369 0.947432 0.507835
O O10 0.000000 0.500000 0.500000
O O11 0.500000 0.500000 0.000000
O O12 0.750000 0.250000 0.500000
#
# Coordination Sequence:
#
# PCOD9279755 Si02
#       7
#     8   4   8   4   8   4   4
#     4  11  23  41  63  91 132 164 206 271 320 380
#     4  12  26  40  62  98 132 172 218 256 322 412
#     4  10  21  36  58  85 116 158 202 251 313 376
#     4  10  21  42  64  88 126 164 212 274 321 384
#     4  11  24  41  65  94 122 169 223 263 328 402
#     4   8  16  34  54  74 104 146 192 230 284 356
#     4  10  21  36  62  88 120 176 208 244 335 400
#
# _framework density 20.67314
#
# number of rings (size 3 to 8) (size 9 to 14) (size 15 to 20)
#    0.000    1.600    0.000    6.600    0.000    8.000 
#    0.000    2.000    0.000    2.400    0.000    0.000 
#    0.000    0.000    0.000    0.000    0.000    0.000 
#
# Total GULP energy -111654.329882 kJ/mol
# GULP energy per Si atom -5582.716494 kJ/mol
# Density = 2.062609 g / cm^3
# Si number density = 20.673140 Si / 1000 Ang^3
#
#
#
# Elastic Constant Matrix: (Units=GPa)
#
#
# Indices 1 2 3 4 5 6 
#
# 1 199.3309 33.0472 45.2529 0.0001 -14.6459 -0.0005
# 2 33.0472 64.8680 30.4001 0.0006 -3.2739 -0.0004
# 3 45.2529 30.4001 160.3246 -0.0061 3.7958 -0.0009
# 4 0.0001 0.0006 -0.0061 19.5141 -0.0041 -15.2641
# 5 -14.6459 -3.2739 3.7958 -0.0041 45.1325 -0.0001
# 6 -0.0005 -0.0004 -0.0009 -15.2641 -0.0001 31.0717
#
#
#
# Elastic Compliance Matrix: (Units=1/GPa)
#
#
# Indices 1 2 3 4 5 6 
#
# 1 0.005814 -0.002283 -0.001251 0.000000 0.001826 0.000000
# 2 -0.002283 0.017918 -0.002772 -0.000002 0.000792 -0.000001
# 3 -0.001251 -0.002772 0.007145 0.000004 -0.001208 0.000002
# 4 0.000000 -0.000002 0.000004 0.083226 0.000007 0.040885
# 5 0.001826 0.000792 -0.001208 0.000007 0.022909 0.000004
# 6 0.000000 -0.000001 0.000002 0.040885 0.000004 0.052268
#
#
# Mechanical properties :
#
#
# Convention : Reuss Voigt Hill
#
# Bulk Modulus (GPa) = 54.75310 71.32487 63.03899
# Shear Modulus (GPa) = 24.04085 40.19853 32.11969
#
# Velocity S-wave (km/s) = 3.41384 4.41441 3.94597
# Velocity P-wave (km/s) = 6.48704 7.78196 7.16382
#
# Compressibility (1/GPa) = 0.01826380
#
# Stress axis : x y z
#
# Youngs Moduli (GPa) = 172.01191 55.80947 139.96377
#
# Poissons Ratio (x) = 0.12742 0.17513
# Poissons Ratio (y) = 0.39274 0.38796
# Poissons Ratio (z) = 0.21523 0.15470
#
# Static dielectric constant tensor:
#      x y z
#    x 1.833620 0.000000 0.022110 
#    y 0.000000 1.724310 0.000000 
#    z 0.022110 0.000000 1.734840 
# 
# From -- ./inp_files/7331.got.cif
#   From: 2010.05.17/outbox.cif.g08.bks.cpg/sg15_4_cif.got.tgz:7331.got - 2010.06.03 18:47:42.
