data_PCOD9279541
_publ_section_title
;
Structure prediction by ZEFSAII (Michael W. Deem and Ramdas Pophale) SiO2 
 PCOD9279541
Probable space group: C 2/C
;
_chemical_formula_sum "Si O2"
_cell_formula_units_Z 56
_cell_length_a 18.392112
_cell_length_b 8.816286
_cell_length_c 17.627894
_cell_angle_alpha 90.000000
_cell_angle_beta 67.427357
_cell_angle_gamma 90.000000
_cell_volume 2639.396061
_symmetry_space_group_name_H-M "C 2/C"
_symmetry_group_IT_number 15
_symmetry_cell_setting 'monoclinic'
loop_
_space_group_symop_operation_xyz
x,y,z
-x,y,1/2-z
-x,-y,-z
x,-y,1/2+z
1/2+x,1/2+y,z
1/2-x,1/2+y,1/2-z
1/2-x,1/2-y,-z
1/2+x,1/2-y,1/2+z
loop_
_atom_site_type_symbol
_atom_site_label
_atom_site_fract_x
_atom_site_fract_y
_atom_site_fract_z
Si Si1 0.754016 0.888210 0.685443
Si Si2 0.345286 0.447720 0.440781
Si Si3 0.077183 0.453749 0.925511
Si Si4 0.817803 0.673151 0.528010
Si Si5 0.585924 0.033744 0.749453
Si Si6 0.317136 0.673739 0.328490
Si Si7 0.165421 0.833060 0.422999
O O1 0.784487 0.760678 0.615612
O O2 0.774351 0.851424 0.764487
O O3 0.661994 0.923996 0.706142
O O4 0.804530 0.037878 0.646260
O O5 0.253836 0.399042 0.490747
O O6 0.376452 0.282932 0.456001
O O7 0.349259 0.521263 0.356102
O O8 0.367059 0.578913 0.490710
O O9 0.141593 0.529196 0.952917
O O10 0.077360 0.528914 0.843343
O O11 0.100461 0.277658 0.914052
O O12 0.000000 0.500000 0.000000
O O13 0.500000 0.995072 0.750000
O O14 0.615880 0.198670 0.708896
O O15 0.246493 0.742664 0.407692
#
# Coordination Sequence:
#
# PCOD9279541 Si02
#       7
#     8   8   8   8   8   8   8
#     4  10  21  42  71  94 128 174 223 271 317 405
#     4  10  21  35  65  95 124 156 219 278 307 380
#     4  12  25  41  63  91 136 176 212 270 339 397
#     4  10  21  41  63 100 127 168 225 266 326 395
#     4  11  25  41  65 104 132 167 218 286 337 374
#     4  11  20  38  69  92 131 171 224 265 322 396
#     4  10  22  38  62  98 123 171 223 260 320 398
#
# _framework density 21.216974
#
# number of rings (size 3 to 8) (size 9 to 14) (size 15 to 20)
#    0.000    1.429    4.286    0.429    4.000    3.429 
#    0.000    4.286    0.000    0.857    0.000    0.000 
#    0.000    0.000    0.000    0.000    0.000    0.000 
#
# Total GULP energy -156101.491516 kJ/mol
# GULP energy per Si atom -5575.053268 kJ/mol
# Density = 2.116868 g / cm^3
# Si number density = 21.216974 Si / 1000 Ang^3
#
#
#
# Elastic Constant Matrix: (Units=GPa)
#
#
# Indices 1 2 3 4 5 6 
#
# 1 49.4739 1.7037 0.7457 0.0000 -3.2615 0.0000
# 2 1.7037 62.8780 1.8298 0.0000 -6.5945 0.0000
# 3 0.7457 1.8298 43.7165 0.0000 1.0522 0.0000
# 4 0.0000 0.0000 0.0000 2.0726 0.0000 19.0354
# 5 -3.2615 -6.5945 1.0522 0.0000 35.9729 0.0000
# 6 0.0000 0.0000 0.0000 19.0354 0.0000 13.7070
#
#
#
# Elastic Compliance Matrix: (Units=1/GPa)
#
#
# Indices 1 2 3 4 5 6 
#
# 1 0.020349 -0.000353 -0.000375 0.000000 0.001791 0.000000
# 2 -0.000353 0.016246 -0.000745 0.000000 0.002968 0.000000
# 3 -0.000375 -0.000745 0.022933 0.000000 -0.000841 0.000000
# 4 0.000000 0.000000 0.000000 -0.041047 0.000000 0.057003
# 5 0.001791 0.002968 -0.000841 0.000000 0.028530 0.000000
# 6 0.000000 0.000000 0.000000 0.057003 0.000000 -0.006207
#
#
# Mechanical properties :
#
#
# Convention : Reuss Voigt Hill
#
# Bulk Modulus (GPa) = 17.67392 18.29187 17.98290
# Shear Modulus (GPa) = 79.85827 20.46979 50.16403
#
# Velocity S-wave (km/s) = 6.14171 3.10947 4.86772
# Velocity P-wave (km/s) = 7.65782 4.64023 6.33143
#
# Compressibility (1/GPa) = 0.05658054
#
# Stress axis : x y z
#
# Youngs Moduli (GPa) = 49.14347 61.55225 43.60623
#
# Poissons Ratio (x) = 0.02170 0.01637
# Poissons Ratio (y) = 0.01733 0.03251
# Poissons Ratio (z) = 0.01845 0.04588
#
# Static dielectric constant tensor:
#      x y z
#    x 2.169440 0.000000 -0.107250 
#    y 0.000000 1.837440 0.000000 
#    z -0.107250 0.000000 1.824190 
# 
# From -- ./inp_files/209547.got.cif
#   From: 2010.05.17/outbox.cif.g08.bks.cpg/sg15_105_cif.got.tgz:209547.got - 2010.06.03 18:47:42.
