data_PCOD9279086
_publ_section_title
;
Structure prediction by ZEFSAII (Michael W. Deem and Ramdas Pophale) SiO2 
 PCOD9279086
Probable space group: C 2/C
;
_chemical_formula_sum "Si O2"
_cell_formula_units_Z 52
_cell_length_a 29.564415
_cell_length_b 16.586125
_cell_length_c 9.260588
_cell_angle_alpha 90.000000
_cell_angle_beta 141.891218
_cell_angle_gamma 90.000000
_cell_volume 2802.515892
_symmetry_space_group_name_H-M "C 2/C"
_symmetry_group_IT_number 15
_symmetry_cell_setting 'monoclinic'
loop_
_space_group_symop_operation_xyz
x,y,z
-x,y,1/2-z
-x,-y,-z
x,-y,1/2+z
1/2+x,1/2+y,z
1/2-x,1/2+y,1/2-z
1/2-x,1/2-y,-z
1/2+x,1/2-y,1/2+z
loop_
_atom_site_type_symbol
_atom_site_label
_atom_site_fract_x
_atom_site_fract_y
_atom_site_fract_z
Si Si1 0.500000 0.371290 0.750000
Si Si2 0.602967 0.501361 0.859933
Si Si3 0.695179 0.429301 0.836528
Si Si4 0.968002 0.828204 0.369974
Si Si5 0.552268 0.029980 0.763090
Si Si6 0.138622 0.582770 0.710167
Si Si7 0.881606 0.230457 0.400712
O O1 0.561300 0.429682 0.836259
O O2 0.467459 0.319184 0.539173
O O3 0.636089 0.467801 0.796248
O O4 0.547961 0.576937 0.701116
O O5 0.671042 0.534498 0.123042
O O6 0.681151 0.333308 0.795324
O O7 0.777869 0.447084 0.087608
O O8 0.045833 0.799427 0.503507
O O9 0.905492 0.781061 0.127083
O O10 0.500000 0.074937 0.750000
O O11 0.612176 0.072027 0.810890
O O12 0.500000 0.000000 0.500000
O O13 0.590574 0.963401 0.965373
O O14 0.134572 0.677573 0.669669
#
# Coordination Sequence:
#
# PCOD9279086 Si02
#       7
#     4   8   8   8   8   8   8
#     4  12  18  34  54  86 122 150 206 240 280 332
#     4  11  20  34  57  87 124 158 201 247 275 356
#     4  11  21  36  58  87 122 164 193 231 298 358
#     4  10  21  34  56  86 117 163 198 237 296 334
#     4   9  21  40  64  87 103 142 199 254 296 331
#     4  11  22  41  63  86 118 152 197 248 302 360
#     4  10  22  37  57  85 121 158 196 238 297 353
#
# _framework density 18.554756000000001
#
# number of rings (size 3 to 8) (size 9 to 14) (size 15 to 20)
#    0.000    1.538    3.077    3.692    6.462    0.000 
#    1.385    0.000    0.000    0.923    0.000    0.000 
#    0.000    0.000    0.000    0.000    0.000    0.000 
#
# Total GULP energy -144900.401404 kJ/mol
# GULP energy per Si atom -5573.092362 kJ/mol
# Density = 1.851252 g / cm^3
# Si number density = 18.554756 Si / 1000 Ang^3
#
#
#
# Elastic Constant Matrix: (Units=GPa)
#
#
# Indices 1 2 3 4 5 6 
#
# 1 71.0113 6.9115 25.1993 0.0000 -20.0523 0.0000
# 2 6.9115 54.5976 14.4534 0.0000 -12.6142 0.0000
# 3 25.1993 14.4534 94.1352 0.0000 -9.4640 0.0000
# 4 0.0000 0.0000 0.0000 19.5048 0.0000 9.6833
# 5 -20.0523 -12.6142 -9.4640 0.0000 39.2796 0.0000
# 6 0.0000 0.0000 0.0000 9.6833 0.0000 86.8074
#
#
#
# Elastic Compliance Matrix: (Units=1/GPa)
#
#
# Indices 1 2 3 4 5 6 
#
# 1 0.017803 0.000746 -0.004040 0.000000 0.008354 0.000000
# 2 0.000746 0.020386 -0.002699 0.000000 0.006277 0.000000
# 3 -0.004040 -0.002699 0.012118 0.000000 -0.000010 0.000000
# 4 0.000000 0.000000 0.000000 0.054275 0.000000 -0.006054
# 5 0.008354 0.006277 -0.000010 0.000000 0.031737 0.000000
# 6 0.000000 0.000000 0.000000 -0.006054 0.000000 0.012195
#
#
# Mechanical properties :
#
#
# Convention : Reuss Voigt Hill
#
# Bulk Modulus (GPa) = 26.09537 34.76360 30.42948
# Shear Modulus (GPa) = 28.85616 40.66367 34.75992
#
# Velocity S-wave (km/s) = 3.94787 4.68648 4.33294
# Velocity P-wave (km/s) = 5.90554 6.93256 6.43956
#
# Compressibility (1/GPa) = 0.03832098
#
# Stress axis : x y z
#
# Youngs Moduli (GPa) = 56.17188 49.05300 82.52216
#
# Poissons Ratio (x) = -0.03660 0.33341
# Poissons Ratio (y) = -0.04191 0.22270
# Poissons Ratio (z) = 0.22695 0.13238
#
# Static dielectric constant tensor:
#      x y z
#    x 1.662520 0.000000 -0.005510 
#    y 0.000000 1.628710 0.000000 
#    z -0.005510 0.000000 1.676000 
# 
# From -- ./inp_files/48559.got.cif
#   From: 2010.05.17/outbox.cif.g08.bks.cpg/sg15_25_cif.got.tgz:48559.got - 2010.06.03 18:47:42.
