data_PCOD9279663
_publ_section_title
;
Structure prediction by ZEFSAII (Michael W. Deem and Ramdas Pophale) SiO2 
 PCOD9279663
Probable space group: C 2/C
;
_chemical_formula_sum "Si O2"
_cell_formula_units_Z 56
_cell_length_a 27.482203
_cell_length_b 20.759130
_cell_length_c 5.285806
_cell_angle_alpha 90.000000
_cell_angle_beta 93.464483
_cell_angle_gamma 90.000000
_cell_volume 3010.076203
_symmetry_space_group_name_H-M "C 2/C"
_symmetry_group_IT_number 15
_symmetry_cell_setting 'monoclinic'
loop_
_space_group_symop_operation_xyz
x,y,z
-x,y,1/2-z
-x,-y,-z
x,-y,1/2+z
1/2+x,1/2+y,z
1/2-x,1/2+y,1/2-z
1/2-x,1/2-y,-z
1/2+x,1/2-y,1/2+z
loop_
_atom_site_type_symbol
_atom_site_label
_atom_site_fract_x
_atom_site_fract_y
_atom_site_fract_z
Si Si1 0.390085 0.805914 0.247633
Si Si2 0.714775 0.285105 0.289029
Si Si3 0.877699 0.825866 0.987753
Si Si4 0.557828 0.224848 0.248756
Si Si5 0.745250 0.961133 0.797123
Si Si6 0.861575 0.960081 0.786258
Si Si7 0.701035 0.842005 0.521003
O O1 0.369838 0.733201 0.290868
O O2 0.419528 0.817864 0.515375
O O3 0.344479 0.852069 0.178578
O O4 0.424645 0.801182 0.015403
O O5 0.750000 0.250000 0.500000
O O6 0.673619 0.331361 0.383608
O O7 0.749666 0.323322 0.111221
O O8 0.687414 0.223616 0.162808
O O9 0.918753 0.795601 0.184130
O O10 0.887801 0.892749 0.855247
O O11 0.500000 0.227501 0.250000
O O12 0.803074 0.948134 0.782489
O O13 0.714125 0.898957 0.712927
O O14 0.735125 0.014366 0.576355
O O15 0.872665 0.989854 0.516161
#
# Coordination Sequence:
#
# PCOD9279663 Si02
#       7
#     8   8   8   8   8   8   8
#     4  10  21  36  56  85 106 142 176 225 287 336
#     4  11  20  32  51  84 111 153 172 236 271 324
#     4  10  22  33  57  79 112 139 195 218 287 324
#     4  10  21  37  58  82 112 137 173 229 300 349
#     4  10  24  37  51  73 111 163 194 218 258 310
#     4  10  23  36  51  73 107 153 197 230 256 313
#     4  11  22  33  54  80 120 143 193 221 272 324
#
# _framework density 18.604179999999999
#
# number of rings (size 3 to 8) (size 9 to 14) (size 15 to 20)
#    0.857    0.857    2.857    1.286   12.000    0.000 
#    0.000    0.000    0.000    0.857    0.000    0.000 
#    0.000   11.429    0.000    0.000    0.000    0.000 
#
# Total GULP energy -156183.746706 kJ/mol
# GULP energy per Si atom -5577.990954 kJ/mol
# Density = 1.856184 g / cm^3
# Si number density = 18.604180 Si / 1000 Ang^3
#
#
#
# Elastic Constant Matrix: (Units=GPa)
#
#
# Indices 1 2 3 4 5 6 
#
# 1 46.2008 2.5019 2.4305 0.0000 0.5850 0.0000
# 2 2.5019 25.4657 4.9954 0.0000 -0.7772 0.0000
# 3 2.4305 4.9954 68.3804 0.0000 0.2513 0.0000
# 4 0.0000 0.0000 0.0000 36.0181 0.0000 5.0136
# 5 0.5850 -0.7772 0.2513 0.0000 21.1353 0.0000
# 6 0.0000 0.0000 0.0000 5.0136 0.0000 9.9325
#
#
#
# Elastic Compliance Matrix: (Units=1/GPa)
#
#
# Indices 1 2 3 4 5 6 
#
# 1 0.021796 -0.002040 -0.000623 0.000000 -0.000671 0.000000
# 2 -0.002040 0.040078 -0.002861 0.000000 0.001564 0.000000
# 3 -0.000623 -0.002861 0.014856 0.000000 -0.000265 0.000000
# 4 0.000000 0.000000 0.000000 0.029862 0.000000 -0.015073
# 5 -0.000671 0.001564 -0.000265 0.000000 0.047393 0.000000
# 6 0.000000 0.000000 0.000000 -0.015073 0.000000 0.108288
#
#
# Mechanical properties :
#
#
# Convention : Reuss Voigt Hill
#
# Bulk Modulus (GPa) = 15.22475 17.76694 16.49584
# Shear Modulus (GPa) = 16.93674 22.09179 19.51426
#
# Velocity S-wave (km/s) = 3.02051 3.44970 3.24221
# Velocity P-wave (km/s) = 4.51286 5.04360 4.78560
#
# Compressibility (1/GPa) = 0.06568253
#
# Stress axis : x y z
#
# Youngs Moduli (GPa) = 45.87913 24.95143 67.31194
#
# Poissons Ratio (x) = 0.05089 0.04195
# Poissons Ratio (y) = 0.09358 0.19258
# Poissons Ratio (z) = 0.02859 0.07139
#
# Static dielectric constant tensor:
#      x y z
#    x 1.644400 0.000000 -0.004710 
#    y 0.000000 1.655330 0.000000 
#    z -0.004710 0.000000 1.726430 
# 
# From -- ./inp_files/17209.got.cif
#   From: 2010.05.17/outbox.cif.g08.bks.cpg/sg15_9_cif.got.tgz:17209.got - 2010.06.03 18:47:42.
