data_PCOD9279935
_publ_section_title
;
Structure prediction by ZEFSAII (Michael W. Deem and Ramdas Pophale) SiO2 
 PCOD9279935
Probable space group: C 2/C
;
_chemical_formula_sum "Si O2"
_cell_formula_units_Z 52
_cell_length_a 11.468494
_cell_length_b 14.742889
_cell_length_c 20.149189
_cell_angle_alpha 90.000000
_cell_angle_beta 134.370361
_cell_angle_gamma 90.000000
_cell_volume 2435.297786
_symmetry_space_group_name_H-M "C 2/C"
_symmetry_group_IT_number 15
_symmetry_cell_setting 'monoclinic'
loop_
_space_group_symop_operation_xyz
x,y,z
-x,y,1/2-z
-x,-y,-z
x,-y,1/2+z
1/2+x,1/2+y,z
1/2-x,1/2+y,1/2-z
1/2-x,1/2-y,-z
1/2+x,1/2-y,1/2+z
loop_
_atom_site_type_symbol
_atom_site_label
_atom_site_fract_x
_atom_site_fract_y
_atom_site_fract_z
Si Si1 0.992337 0.790297 0.618041
Si Si2 0.752594 0.661977 0.589901
Si Si3 0.500000 0.411232 0.750000
Si Si4 0.757385 0.501988 0.267303
Si Si5 0.187227 0.789706 0.211934
Si Si6 0.320925 0.532932 0.410269
Si Si7 0.959627 0.367655 0.655499
O O1 0.894975 0.699671 0.600579
O O2 0.911763 0.825271 0.518618
O O3 0.960404 0.853618 0.668867
O O4 0.180429 0.764390 0.692269
O O5 0.734056 0.713254 0.652568
O O6 0.785806 0.557962 0.620260
O O7 0.342978 0.468154 0.708489
O O8 0.717004 0.394950 0.242908
O O9 0.681540 0.545570 0.169688
O O10 0.933685 0.552582 0.337953
O O11 0.021499 0.731497 0.156143
O O12 0.500000 0.500000 0.500000
O O13 0.233455 0.608921 0.420148
O O14 0.000000 0.374259 0.750000
#
# Coordination Sequence:
#
# PCOD9279935 Si02
#       7
#     8   8   4   8   8   8   8
#     4  11  20  36  65  90 124 167 216 265 312 378
#     4  10  21  36  61  95 122 167 218 260 314 384
#     4  12  20  38  62  90 122 166 208 270 318 372
#     4  10  22  37  60  91 124 166 209 258 321 380
#     4  11  21  40  61  91 130 165 214 266 316 386
#     4  10  21  39  60  87 125 166 214 262 315 384
#     4  10  21  38  63  89 122 173 215 258 323 376
#
# _framework density 21.352625
#
# number of rings (size 3 to 8) (size 9 to 14) (size 15 to 20)
#    0.000    1.538    3.077    1.846    3.231    2.462 
#    0.000    6.154    0.000    8.308    0.000    0.000 
#    0.000    0.000    0.000    0.000    0.000    0.000 
#
# Total GULP energy -144911.215287 kJ/mol
# GULP energy per Si atom -5573.508280 kJ/mol
# Density = 2.130403 g / cm^3
# Si number density = 21.352625 Si / 1000 Ang^3
#
#
#
# Elastic Constant Matrix: (Units=GPa)
#
#
# Indices 1 2 3 4 5 6 
#
# 1 86.1143 32.2286 -8.4816 0.0000 13.3442 0.0000
# 2 32.2286 119.0407 -5.9654 0.0000 2.6469 0.0000
# 3 -8.4816 -5.9654 47.1248 0.0000 12.3801 0.0000
# 4 0.0000 0.0000 0.0000 18.5511 0.0000 -2.3709
# 5 13.3442 2.6469 12.3801 0.0000 23.2981 0.0000
# 6 0.0000 0.0000 0.0000 -2.3709 0.0000 40.7017
#
#
#
# Elastic Compliance Matrix: (Units=1/GPa)
#
#
# Indices 1 2 3 4 5 6 
#
# 1 0.015182 -0.003605 0.005175 0.000000 -0.011036 0.000000
# 2 -0.003605 0.009374 0.000320 0.000000 0.000830 0.000000
# 3 0.005175 0.000320 0.026709 0.000000 -0.017193 0.000000
# 4 0.000000 0.000000 0.000000 0.054310 0.000000 0.003164
# 5 -0.011036 0.000830 -0.017193 0.000000 0.058285 0.000000
# 6 0.000000 0.000000 0.000000 0.003164 0.000000 0.024753
#
#
# Mechanical properties :
#
#
# Convention : Reuss Voigt Hill
#
# Bulk Modulus (GPa) = 18.16741 31.98253 25.07497
# Shear Modulus (GPa) = 24.60854 32.14339 28.37597
#
# Velocity S-wave (km/s) = 3.39851 3.88411 3.64939
# Velocity P-wave (km/s) = 4.89148 5.92670 5.43380
#
# Compressibility (1/GPa) = 0.05504361
#
# Stress axis : x y z
#
# Youngs Moduli (GPa) = 65.86883 106.67594 37.44061
#
# Poissons Ratio (x) = 0.38462 -0.19377
# Poissons Ratio (y) = 0.23749 -0.01197
# Poissons Ratio (z) = -0.34089 -0.03410
#
# Static dielectric constant tensor:
#      x y z
#    x 1.801820 0.000000 0.079400 
#    y 0.000000 1.895020 0.000000 
#    z 0.079400 0.000000 1.787740 
# 
# From -- ./inp_files/198031.got.cif
#   From: 2010.05.17/outbox.cif.g08.bks.cpg/sg15_100_cif.got.tgz:198031.got - 2010.06.03 18:47:42.
