data_PCOD9279562
_publ_section_title
;
Structure prediction by ZEFSAII (Michael W. Deem and Ramdas Pophale) SiO2 
 PCOD9279562
Probable space group: C 2/C
;
_chemical_formula_sum "Si O2"
_cell_formula_units_Z 60
_cell_length_a 20.306671
_cell_length_b 12.875681
_cell_length_c 11.278172
_cell_angle_alpha 90.000000
_cell_angle_beta 79.267793
_cell_angle_gamma 90.000000
_cell_volume 2897.235989
_symmetry_space_group_name_H-M "C 2/C"
_symmetry_group_IT_number 15
_symmetry_cell_setting 'monoclinic'
loop_
_space_group_symop_operation_xyz
x,y,z
-x,y,1/2-z
-x,-y,-z
x,-y,1/2+z
1/2+x,1/2+y,z
1/2-x,1/2+y,1/2-z
1/2-x,1/2-y,-z
1/2+x,1/2-y,1/2+z
loop_
_atom_site_type_symbol
_atom_site_label
_atom_site_fract_x
_atom_site_fract_y
_atom_site_fract_z
Si Si1 0.142411 0.534059 0.177402
Si Si2 0.770392 0.958322 0.265297
Si Si3 0.826535 0.666747 0.548236
Si Si4 0.000000 0.376926 0.750000
Si Si5 0.676063 0.326970 0.766122
Si Si6 0.524682 0.118905 0.979637
Si Si7 0.898823 0.312732 0.402937
Si Si8 0.295512 0.730199 0.600409
O O1 0.200655 0.509290 0.247970
O O2 0.068374 0.559233 0.247772
O O3 0.132984 0.426851 0.106984
O O4 0.166096 0.630909 0.088979
O O5 0.741980 0.886558 0.381086
O O6 0.795928 0.885702 0.149871
O O7 0.823098 0.051223 0.263531
O O8 0.831757 0.784031 0.597118
O O9 0.896813 0.620381 0.576504
O O10 0.014628 0.329098 0.614390
O O11 0.626657 0.262324 0.694612
O O12 0.751339 0.290712 0.709549
O O13 0.477489 0.173115 0.898963
O O14 0.500000 0.000000 0.000000
O O15 0.867113 0.270521 0.536347
O O16 0.250000 0.750000 0.500000
#
# Coordination Sequence:
#
# PCOD9279562 Si02
#       8
#     8   8   8   4   8   8   8   8
#     4  11  20  32  55  79 120 154 186 245 291 363
#     4  11  21  35  58  81 122 159 196 250 281 360
#     4  10  21  36  52  86 119 153 197 243 309 352
#     4  10  22  32  48  86 118 154 184 230 322 354
#     4  10  22  34  54  82 119 158 198 240 292 356
#     4  11  21  33  58  86 122 155 188 257 308 352
#     4  11  20  34  58  88 114 155 197 239 302 365
#     4   9  18  35  52  82 112 154 199 231 291 349
#
# _framework density 20.709392999999999
#
# number of rings (size 3 to 8) (size 9 to 14) (size 15 to 20)
#    0.000    1.600    6.667    1.600    3.733    1.067 
#    0.000    0.000    0.000    0.800    0.000    0.000 
#    0.000    0.000    0.000    0.000    0.000    0.000 
#
# Total GULP energy -167037.744207 kJ/mol
# GULP energy per Si atom -5567.924807 kJ/mol
# Density = 2.066226 g / cm^3
# Si number density = 20.709393 Si / 1000 Ang^3
#
#
#
# Elastic Constant Matrix: (Units=GPa)
#
#
# Indices 1 2 3 4 5 6 
#
# 1 59.4412 21.6703 12.3498 0.0000 7.7848 0.0000
# 2 21.6703 70.3041 19.4221 0.0000 -3.5170 0.0000
# 3 12.3498 19.4221 69.4747 0.0000 -7.6013 0.0000
# 4 0.0000 0.0000 0.0000 26.0207 0.0000 3.8243
# 5 7.7848 -3.5170 -7.6013 0.0000 26.6608 0.0000
# 6 0.0000 0.0000 0.0000 3.8243 0.0000 21.5999
#
#
#
# Elastic Compliance Matrix: (Units=1/GPa)
#
#
# Indices 1 2 3 4 5 6 
#
# 1 0.020571 -0.005940 -0.002827 0.000000 -0.007596 0.000000
# 2 -0.005940 0.017147 -0.003407 0.000000 0.003025 0.000000
# 3 -0.002827 -0.003407 0.016401 0.000000 0.005052 0.000000
# 4 0.000000 0.000000 0.000000 0.039458 0.000000 -0.006986
# 5 -0.007596 0.003025 0.005052 0.000000 0.041566 0.000000
# 6 0.000000 0.000000 0.000000 -0.006986 0.000000 0.047533
#
#
# Mechanical properties :
#
#
# Convention : Reuss Voigt Hill
#
# Bulk Modulus (GPa) = 33.58848 34.01160 33.80004
# Shear Modulus (GPa) = 23.04695 24.57480 23.81087
#
# Velocity S-wave (km/s) = 3.33960 3.44852 3.39449
# Velocity P-wave (km/s) = 5.57895 5.68465 5.63205
#
# Compressibility (1/GPa) = 0.02977212
#
# Stress axis : x y z
#
# Youngs Moduli (GPa) = 48.61201 58.31842 60.97005
#
# Poissons Ratio (x) = 0.34639 0.17238
# Poissons Ratio (y) = 0.28874 0.20771
# Poissons Ratio (z) = 0.13744 0.19868
#
# Static dielectric constant tensor:
#      x y z
#    x 1.757660 0.000000 0.031240 
#    y 0.000000 1.824880 0.000000 
#    z 0.031240 0.000000 1.872350 
# 
# From -- ./inp_files/117521.got.cif
#   From: 2010.05.17/outbox.cif.g08.bks.cpg/sg15_59_cif.got.tgz:117521.got - 2010.06.03 18:47:42.
