data_PCOD9279095
_publ_section_title
;
Structure prediction by ZEFSAII (Michael W. Deem and Ramdas Pophale) SiO2 
 PCOD9279095
Probable space group: C 2/C
;
_chemical_formula_sum "Si O2"
_cell_formula_units_Z 56
_cell_length_a 6.843186
_cell_length_b 15.424650
_cell_length_c 30.932746
_cell_angle_alpha 90.000000
_cell_angle_beta 127.772454
_cell_angle_gamma 90.000000
_cell_volume 2580.871104
_symmetry_space_group_name_H-M "C 2/C"
_symmetry_group_IT_number 15
_symmetry_cell_setting 'monoclinic'
loop_
_space_group_symop_operation_xyz
x,y,z
-x,y,1/2-z
-x,-y,-z
x,-y,1/2+z
1/2+x,1/2+y,z
1/2-x,1/2+y,1/2-z
1/2-x,1/2-y,-z
1/2+x,1/2-y,1/2+z
loop_
_atom_site_type_symbol
_atom_site_label
_atom_site_fract_x
_atom_site_fract_y
_atom_site_fract_z
Si Si1 0.249921 0.792687 0.303776
Si Si2 0.777957 0.374973 0.149193
Si Si3 0.600223 0.455246 0.344577
Si Si4 0.861005 0.447598 0.064698
Si Si5 0.413434 0.369320 0.625378
Si Si6 0.048412 0.108344 0.049501
Si Si7 0.910046 0.267520 0.564517
O O1 0.466444 0.830280 0.302328
O O2 0.151502 0.877218 0.317559
O O3 0.401143 0.712535 0.345256
O O4 0.000000 0.755962 0.250000
O O5 0.659801 0.435281 0.168687
O O6 0.841209 0.417609 0.111647
O O7 0.553613 0.310951 0.106345
O O8 0.585547 0.559807 0.335571
O O9 0.851220 0.450553 0.407673
O O10 0.721573 0.539665 0.047497
O O11 0.702878 0.386505 0.012030
O O12 0.483871 0.415282 0.589670
O O13 0.137364 0.331489 0.584528
O O14 0.211439 0.194077 0.070724
O O15 0.750000 0.250000 0.500000
#
# Coordination Sequence:
#
# PCOD9279095 Si02
#       7
#     8   8   8   8   8   8   8
#     4  10  25  49  66  93 128 155 212 290 336 393
#     4  10  21  40  63  89 126 164 208 263 320 381
#     4  11  22  42  68  93 125 172 212 265 332 385
#     4  10  21  34  56  92 132 169 214 253 298 377
#     4  11  24  41  67  95 128 172 220 265 325 394
#     4  11  21  35  57  91 132 174 214 256 303 376
#     4  11  22  36  56  90 134 173 214 258 307 377
#
# _framework density 21.698101999999999
#
# number of rings (size 3 to 8) (size 9 to 14) (size 15 to 20)
#    0.000    1.429    4.286    0.857    2.000    1.714 
#    2.571    0.000    0.000    0.000    0.000    0.000 
#    0.000    0.000    0.000    0.000    0.000    0.000 
#
# Total GULP energy -155921.885730 kJ/mol
# GULP energy per Si atom -5568.638776 kJ/mol
# Density = 2.164872 g / cm^3
# Si number density = 21.698102 Si / 1000 Ang^3
#
#
#
# Elastic Constant Matrix: (Units=GPa)
#
#
# Indices 1 2 3 4 5 6 
#
# 1 93.9444 33.0017 35.4765 0.0000 17.7608 0.0000
# 2 33.0017 67.7871 14.4913 0.0000 9.9220 0.0000
# 3 35.4765 14.4913 49.5133 0.0000 25.3086 0.0000
# 4 0.0000 0.0000 0.0000 13.3858 0.0000 3.9685
# 5 17.7608 9.9220 25.3086 0.0000 25.5104 0.0000
# 6 0.0000 0.0000 0.0000 3.9685 0.0000 42.5936
#
#
#
# Elastic Compliance Matrix: (Units=1/GPa)
#
#
# Indices 1 2 3 4 5 6 
#
# 1 0.016571 -0.005965 -0.010989 0.000000 0.001685 0.000000
# 2 -0.005965 0.018009 0.000935 0.000000 -0.003779 0.000000
# 3 -0.010989 0.000935 0.048838 0.000000 -0.041164 0.000000
# 4 0.000000 0.000000 0.000000 0.076828 0.000000 -0.007158
# 5 0.001685 -0.003779 -0.041164 0.000000 0.080336 0.000000
# 6 0.000000 0.000000 0.000000 -0.007158 0.000000 0.024145
#
#
# Mechanical properties :
#
#
# Convention : Reuss Voigt Hill
#
# Bulk Modulus (GPa) = 19.46272 41.90930 30.68601
# Shear Modulus (GPa) = 15.92905 24.84962 20.38934
#
# Velocity S-wave (km/s) = 2.71241 3.38782 3.06875
# Velocity P-wave (km/s) = 4.33576 5.88725 5.17004
#
# Compressibility (1/GPa) = 0.05138028
#
# Stress axis : x y z
#
# Youngs Moduli (GPa) = 60.34545 55.52645 20.47603
#
# Poissons Ratio (x) = 0.33122 0.22500
# Poissons Ratio (y) = 0.35996 -0.01914
# Poissons Ratio (z) = 0.66311 -0.05190
#
# Static dielectric constant tensor:
#      x y z
#    x 1.485570 0.000000 -0.010350 
#    y 0.000000 1.009160 0.000000 
#    z -0.010350 0.000000 1.815390 
# 
# From -- ./inp_files/286035.got.cif
#   From: 2010.05.17/outbox.cif.g08.bks.cpg/sg15_144_cif.got.tgz:286035.got - 2010.06.03 18:47:42.
