data_PCOD9279482
_publ_section_title
;
Structure prediction by ZEFSAII (Michael W. Deem and Ramdas Pophale) SiO2 
 PCOD9279482
Probable space group: C 2/C
;
_chemical_formula_sum "Si O2"
_cell_formula_units_Z 36
_cell_length_a 16.774205
_cell_length_b 9.626526
_cell_length_c 23.695430
_cell_angle_alpha 90.000000
_cell_angle_beta 21.143920
_cell_angle_gamma 90.000000
_cell_volume 1380.182595
_symmetry_space_group_name_H-M "C 2/C"
_symmetry_group_IT_number 15
_symmetry_cell_setting 'monoclinic'
loop_
_space_group_symop_operation_xyz
x,y,z
-x,y,1/2-z
-x,-y,-z
x,-y,1/2+z
1/2+x,1/2+y,z
1/2-x,1/2+y,1/2-z
1/2-x,1/2-y,-z
1/2+x,1/2-y,1/2+z
loop_
_atom_site_type_symbol
_atom_site_label
_atom_site_fract_x
_atom_site_fract_y
_atom_site_fract_z
Si Si1 0.077435 0.863030 0.636266
Si Si2 0.000000 0.211413 0.750000
Si Si3 0.725019 0.218143 0.828268
Si Si4 0.256914 0.679640 0.683564
Si Si5 0.443957 0.937511 0.868543
O O1 0.250000 0.750000 0.500000
O O2 0.222593 0.000838 0.540037
O O3 0.000000 0.836157 0.750000
O O4 0.865542 0.829286 0.738914
O O5 0.164725 0.148645 0.688509
O O6 0.140478 0.329884 0.623287
O O7 0.721337 0.134348 0.772367
O O8 0.902304 0.337995 0.696627
O O9 0.497300 0.291924 0.998429
O O10 0.113713 0.564982 0.742618
#
# Coordination Sequence:
#
# PCOD9279482 Si02
#       5
#     8   4   8   8   8
#     4  10  21  35  61  96 131 167 210 266 325 378
#     4   8  22  40  64  84 130 176 212 246 340 388
#     4  10  23  39  62  96 125 172 217 269 323 387
#     4  11  21  36  67  95 126 164 226 267 313 387
#     4   9  21  39  62  91 129 174 211 258 325 392
#
# _framework density 26.083506
#
# number of rings (size 3 to 8) (size 9 to 14) (size 15 to 20)
#    1.333    0.889    0.000    3.333    9.333    0.889 
#    0.000    6.667    0.000    0.000    0.000    0.000 
#    0.000    0.000    0.000    0.000    0.000    0.000 
#
# Total GULP energy -100282.926809 kJ/mol
# GULP energy per Si atom -5571.273712 kJ/mol
# Density = 2.602414 g / cm^3
# Si number density = 26.083506 Si / 1000 Ang^3
#
#
#
# Elastic Constant Matrix: (Units=GPa)
#
#
# Indices 1 2 3 4 5 6 
#
# 1 121.9128 18.9046 38.2417 -0.0065 9.5734 0.0007
# 2 18.9046 46.8524 27.7415 -0.0078 -6.9523 0.0013
# 3 38.2417 27.7415 175.3014 -0.0374 1.0872 0.0025
# 4 -0.0065 -0.0078 -0.0374 23.5852 0.0039 3.5678
# 5 9.5734 -6.9523 1.0872 0.0039 44.1773 0.0015
# 6 0.0007 0.0013 0.0025 3.5678 0.0015 34.3192
#
#
#
# Elastic Compliance Matrix: (Units=1/GPa)
#
#
# Indices 1 2 3 4 5 6 
#
# 1 0.009380 -0.003260 -0.001515 -0.000001 -0.002509 0.000000
# 2 -0.003260 0.025338 -0.003328 0.000002 0.004776 -0.000001
# 3 -0.001515 -0.003328 0.006564 0.000009 -0.000357 -0.000001
# 4 -0.000001 0.000002 0.000009 0.043077 -0.000004 -0.004478
# 5 -0.002509 0.004776 -0.000357 -0.000004 0.023940 -0.000001
# 6 0.000000 -0.000001 -0.000001 -0.004478 -0.000001 0.029604
#
#
# Mechanical properties :
#
#
# Convention : Reuss Voigt Hill
#
# Bulk Modulus (GPa) = 39.87861 57.09359 48.48610
# Shear Modulus (GPa) = 30.77521 37.69494 34.23508
#
# Velocity S-wave (km/s) = 3.43865 3.80566 3.62680
# Velocity P-wave (km/s) = 5.57564 6.42238 6.01393
#
# Compressibility (1/GPa) = 0.02507610
#
# Stress axis : x y z
#
# Youngs Moduli (GPa) = 106.60662 39.46570 152.35025
#
# Poissons Ratio (x) = 0.12867 0.23078
# Poissons Ratio (y) = 0.34756 0.50706
# Poissons Ratio (z) = 0.16149 0.13135
#
# Static dielectric constant tensor:
#      x y z
#    x 2.080320 0.000550 -0.019600 
#    y 0.000550 2.603700 0.000190 
#    z -0.019600 0.000190 1.955120 
# 
# From -- ./inp_files/299006.got.cif
#   From: 2010.05.17/outbox.cif.g08.bks.cpg/sg15_150_cif.got.tgz:299006.got - 2010.06.03 18:47:42.
