data_PCOD9279016
_publ_section_title
;
Structure prediction by ZEFSAII (Michael W. Deem and Ramdas Pophale) SiO2 
 PCOD9279016
Probable space group: C 2/C
;
_chemical_formula_sum "Si O2"
_cell_formula_units_Z 56
_cell_length_a 27.771327
_cell_length_b 14.044699
_cell_length_c 10.090024
_cell_angle_alpha 90.000000
_cell_angle_beta 37.094309
_cell_angle_gamma 90.000000
_cell_volume 2373.620631
_symmetry_space_group_name_H-M "C 2/C"
_symmetry_group_IT_number 15
_symmetry_cell_setting 'monoclinic'
loop_
_space_group_symop_operation_xyz
x,y,z
-x,y,1/2-z
-x,-y,-z
x,-y,1/2+z
1/2+x,1/2+y,z
1/2-x,1/2+y,1/2-z
1/2-x,1/2-y,-z
1/2+x,1/2-y,1/2+z
loop_
_atom_site_type_symbol
_atom_site_label
_atom_site_fract_x
_atom_site_fract_y
_atom_site_fract_z
Si Si1 0.437797 0.897297 0.290861
Si Si2 0.171285 0.714728 0.310906
Si Si3 0.293753 0.771381 0.267144
Si Si4 0.470783 0.828546 0.664283
Si Si5 0.801736 0.098588 0.904031
Si Si6 0.685448 0.940784 0.445188
Si Si7 0.423425 0.368524 0.346140
O O1 0.500000 0.950487 0.250000
O O2 0.411556 0.808983 0.439476
O O3 0.359306 0.959913 0.449145
O O4 0.473481 0.871421 0.071180
O O5 0.229366 0.754165 0.295261
O O6 0.168967 0.797482 0.208571
O O7 0.218423 0.621430 0.159020
O O8 0.250000 0.750000 0.500000
O O9 0.310019 0.884721 0.206213
O O10 0.365444 0.696505 0.071432
O O11 0.500000 0.847586 0.750000
O O12 0.466198 0.714801 0.667157
O O13 0.382255 0.871394 0.840009
O O14 0.769183 0.049170 0.841247
O O15 0.867160 0.069706 0.870675
O O16 0.500000 0.416686 0.250000
#
# Coordination Sequence:
#
# PCOD9279016 Si02
#       7
#     8   8   8   8   8   8   8
#     4  12  23  35  55  92 132 171 203 237 306 389
#     4   9  19  33  56  77 109 163 207 241 286 361
#     4   9  19  36  55  76 112 159 209 255 288 351
#     4  10  21  34  51  84 131 170 193 237 297 369
#     4   9  17  38  54  75 111 158 212 250 297 349
#     4  10  21  35  54  73 119 173 202 240 292 355
#     4   9  18  32  58  84 108 151 202 258 306 348
#
# _framework density 23.592649999999999
#
# number of rings (size 3 to 8) (size 9 to 14) (size 15 to 20)
#    0.000    2.286    0.000    5.143    6.000    1.714 
#    0.000    0.000    0.000    0.000    0.000    4.000 
#    0.000    0.000    0.000    0.000    0.000    0.000 
#
# Total GULP energy -156016.180514 kJ/mol
# GULP energy per Si atom -5572.006447 kJ/mol
# Density = 2.353895 g / cm^3
# Si number density = 23.592650 Si / 1000 Ang^3
#
#
#
# Elastic Constant Matrix: (Units=GPa)
#
#
# Indices 1 2 3 4 5 6 
#
# 1 193.5836 0.0107 39.7913 0.0000 -17.2930 0.0000
# 2 0.0107 16.2750 20.2280 0.0000 3.3751 0.0000
# 3 39.7913 20.2280 121.7809 0.0000 18.2953 0.0000
# 4 0.0000 0.0000 0.0000 17.1499 0.0000 -5.0425
# 5 -17.2930 3.3751 18.2953 0.0000 37.7484 0.0000
# 6 0.0000 0.0000 0.0000 -5.0425 0.0000 6.3492
#
#
#
# Elastic Compliance Matrix: (Units=1/GPa)
#
#
# Indices 1 2 3 4 5 6 
#
# 1 0.006174 0.003049 -0.003136 0.000000 0.004076 0.000000
# 2 0.003049 0.078953 -0.014301 0.000000 0.001269 0.000000
# 3 -0.003136 -0.014301 0.012549 0.000000 -0.006240 0.000000
# 4 0.000000 0.000000 0.000000 0.076073 0.000000 0.060416
# 5 0.004076 0.001269 -0.006240 0.000000 0.031269 0.000000
# 6 0.000000 0.000000 0.000000 0.060416 0.000000 0.205481
#
#
# Mechanical properties :
#
#
# Convention : Reuss Voigt Hill
#
# Bulk Modulus (GPa) = 14.51386 50.18884 32.35135
# Shear Modulus (GPa) = 10.81681 30.35682 20.58682
#
# Velocity S-wave (km/s) = 2.14354 3.59096 2.95718
# Velocity P-wave (km/s) = 3.50594 6.20585 5.04005
#
# Compressibility (1/GPa) = 0.06889965
#
# Stress axis : x y z
#
# Youngs Moduli (GPa) = 161.96181 12.66570 79.68725
#
# Poissons Ratio (x) = -0.03861 0.24991
# Poissons Ratio (y) = -0.49375 1.13960
# Poissons Ratio (z) = 0.50793 0.18113
#
# Static dielectric constant tensor:
#      x y z
#    x 1.988510 0.000000 0.016580 
#    y 0.000000 1.975760 0.000000 
#    z 0.016580 0.000000 2.032750 
# 
# From -- ./inp_files/67133.got.cif
#   From: 2010.05.17/outbox.cif.g08.bks.cpg/sg15_34_cif.got.tgz:67133.got - 2010.06.03 18:47:42.
