data_PCOD9279334
_publ_section_title
;
Structure prediction by ZEFSAII (Michael W. Deem and Ramdas Pophale) SiO2 
 PCOD9279334
Probable space group: C 2/C
;
_chemical_formula_sum "Si O2"
_cell_formula_units_Z 44
_cell_length_a 12.131965
_cell_length_b 27.238758
_cell_length_c 10.508457
_cell_angle_alpha 90.000000
_cell_angle_beta 38.830445
_cell_angle_gamma 90.000000
_cell_volume 2177.395377
_symmetry_space_group_name_H-M "C 2/C"
_symmetry_group_IT_number 15
_symmetry_cell_setting 'monoclinic'
loop_
_space_group_symop_operation_xyz
x,y,z
-x,y,1/2-z
-x,-y,-z
x,-y,1/2+z
1/2+x,1/2+y,z
1/2-x,1/2+y,1/2-z
1/2-x,1/2-y,-z
1/2+x,1/2-y,1/2+z
loop_
_atom_site_type_symbol
_atom_site_label
_atom_site_fract_x
_atom_site_fract_y
_atom_site_fract_z
Si Si1 0.063889 0.055722 0.939082
Si Si2 0.794954 0.803423 0.771712
Si Si3 0.078509 0.305103 0.313594
Si Si4 0.261134 0.622539 0.108304
Si Si5 0.000000 0.882523 0.750000
Si Si6 0.632455 0.888781 0.441451
O O1 0.256458 0.064043 0.704094
O O2 0.060698 0.082235 0.080571
O O3 0.914942 0.083574 0.990871
O O4 0.000000 0.000000 0.000000
O O5 0.848950 0.749390 0.765717
O O6 0.842117 0.827332 0.594438
O O7 0.858674 0.844256 0.816466
O O8 0.587705 0.798533 0.947109
O O9 0.183544 0.347315 0.290573
O O10 0.000000 0.321984 0.250000
O O11 0.080460 0.606878 0.348338
O O12 0.204563 0.626810 0.013989
#
# Coordination Sequence:
#
# PCOD9279334 Si02
#       6
#     8   8   8   8   4   8
#     4  11  24  40  68  90 119 162 209 261 316 363
#     4  10  21  35  57  87 126 160 204 254 301 369
#     4  11  21  33  59  89 121 167 206 243 312 366
#     4   9  22  42  60  89 126 162 208 254 305 371
#     4  10  22  40  58  92 128 154 206 266 304 378
#     4  10  22  41  63  87 127 165 201 259 306 369
#
# _framework density 20.207630999999999
#
# number of rings (size 3 to 8) (size 9 to 14) (size 15 to 20)
#    0.000    1.818    0.909    2.182    7.636    1.455 
#    0.000    0.000    4.000    0.000    0.000    0.000 
#    0.000    0.000    0.000    0.000    0.000    0.000 
#
# Total GULP energy -122503.842513 kJ/mol
# GULP energy per Si atom -5568.356478 kJ/mol
# Density = 2.016164 g / cm^3
# Si number density = 20.207631 Si / 1000 Ang^3
#
#
#
# Elastic Constant Matrix: (Units=GPa)
#
#
# Indices 1 2 3 4 5 6 
#
# 1 64.0002 16.4169 17.0071 0.0000 8.6571 0.0000
# 2 16.4169 92.2700 35.2156 0.0000 5.1274 0.0000
# 3 17.0071 35.2156 65.1796 0.0000 1.8732 0.0000
# 4 0.0000 0.0000 0.0000 14.6710 0.0000 -8.0354
# 5 8.6571 5.1274 1.8732 0.0000 31.7484 0.0000
# 6 0.0000 0.0000 0.0000 -8.0354 0.0000 23.1564
#
#
#
# Elastic Compliance Matrix: (Units=1/GPa)
#
#
# Indices 1 2 3 4 5 6 
#
# 1 0.017564 -0.001490 -0.003653 0.000000 -0.004333 0.000000
# 2 -0.001490 0.013880 -0.007070 0.000000 -0.001418 0.000000
# 3 -0.003653 -0.007070 0.020088 0.000000 0.000953 0.000000
# 4 0.000000 0.000000 0.000000 0.084156 0.000000 0.029203
# 5 -0.004333 -0.001418 0.000953 0.000000 0.032852 0.000000
# 6 0.000000 0.000000 0.000000 0.029203 0.000000 0.053318
#
#
# Mechanical properties :
#
#
# Convention : Reuss Voigt Hill
#
# Bulk Modulus (GPa) = 36.89240 39.85876 38.37558
# Shear Modulus (GPa) = 19.58333 24.10249 21.84291
#
# Velocity S-wave (km/s) = 3.11642 3.45736 3.29131
# Velocity P-wave (km/s) = 5.58979 5.97538 5.78580
#
# Compressibility (1/GPa) = 0.02710585
#
# Stress axis : x y z
#
# Youngs Moduli (GPa) = 56.93429 72.04716 49.78175
#
# Poissons Ratio (x) = 0.10734 0.18187
# Poissons Ratio (y) = 0.08483 0.35193
# Poissons Ratio (z) = 0.20801 0.50934
#
# Static dielectric constant tensor:
#      x y z
#    x 1.720520 0.000000 -0.020670 
#    y 0.000000 1.788160 0.000000 
#    z -0.020670 0.000000 1.797710 
# 
# From -- ./inp_files/33977.got.cif
#   From: 2010.05.17/outbox.cif.g08.bks.cpg/sg15_17_cif.got.tgz:33977.got - 2010.06.03 18:47:42.
