data_PCOD9279106
_publ_section_title
;
Structure prediction by ZEFSAII (Michael W. Deem and Ramdas Pophale) SiO2 
 PCOD9279106
Probable space group: C 2/C
;
_chemical_formula_sum "Si O2"
_cell_formula_units_Z 56
_cell_length_a 11.313009
_cell_length_b 29.112310
_cell_length_c 8.467384
_cell_angle_alpha 90.000000
_cell_angle_beta 112.066910
_cell_angle_gamma 90.000000
_cell_volume 2584.429334
_symmetry_space_group_name_H-M "C 2/C"
_symmetry_group_IT_number 15
_symmetry_cell_setting 'monoclinic'
loop_
_space_group_symop_operation_xyz
x,y,z
-x,y,1/2-z
-x,-y,-z
x,-y,1/2+z
1/2+x,1/2+y,z
1/2-x,1/2+y,1/2-z
1/2-x,1/2-y,-z
1/2+x,1/2-y,1/2+z
loop_
_atom_site_type_symbol
_atom_site_label
_atom_site_fract_x
_atom_site_fract_y
_atom_site_fract_z
Si Si1 0.862782 0.851474 0.235855
Si Si2 0.841860 0.292263 0.007790
Si Si3 0.997421 0.417952 0.559674
Si Si4 0.779991 0.951436 0.694764
Si Si5 0.094794 0.679546 0.604532
Si Si6 0.868393 0.143403 0.115787
Si Si7 0.779742 0.049688 0.571079
O O1 0.738278 0.824183 0.107700
O O2 0.865583 0.850974 0.426760
O O3 0.842973 0.904524 0.173099
O O4 0.000000 0.834370 0.250000
O O5 0.876056 0.311911 0.197437
O O6 0.981009 0.285463 0.998970
O O7 0.750000 0.250000 0.000000
O O8 0.752746 0.329167 0.875624
O O9 0.130239 0.441512 0.580268
O O10 0.000000 0.409407 0.750000
O O11 0.970193 0.369849 0.459718
O O12 0.871323 0.447633 0.463940
O O13 0.854132 0.909614 0.652721
O O14 0.824830 0.000990 0.658854
O O15 0.793792 0.948790 0.889938
O O16 0.000000 0.162186 0.250000
#
# Coordination Sequence:
#
# PCOD9279106 Si02
#       7
#     8   8   8   8   8   8   8
#     4  10  21  40  61  87 123 169 214 255 312 370
#     4  10  21  38  65  95 122 151 199 260 318 379
#     4   9  18  34  58  88 124 168 209 256 308 372
#     4  11  20  36  53  89 126 166 221 257 318 362
#     4   9  19  38  63  92 119 162 197 250 314 375
#     4  11  23  37  60  90 119 164 206 263 316 376
#     4  10  21  34  57  86 127 173 211 267 302 371
#
# _framework density 21.668225
#
# number of rings (size 3 to 8) (size 9 to 14) (size 15 to 20)
#    0.000    2.000    1.429    2.143    2.000    0.571 
#    0.000    2.857    0.000    7.714    0.000    0.000 
#    0.000    0.000    0.000    0.000    0.000    0.000 
#
# Total GULP energy -156201.370712 kJ/mol
# GULP energy per Si atom -5578.620383 kJ/mol
# Density = 2.161891 g / cm^3
# Si number density = 21.668225 Si / 1000 Ang^3
#
#
#
# Elastic Constant Matrix: (Units=GPa)
#
#
# Indices 1 2 3 4 5 6 
#
# 1 157.7990 30.0967 30.4224 0.0000 32.4248 0.0000
# 2 30.0967 58.6528 10.9772 0.0000 15.5229 0.0000
# 3 30.4224 10.9772 46.6184 0.0000 23.1176 0.0000
# 4 0.0000 0.0000 0.0000 -40.3391 0.0000 -38.9095
# 5 32.4248 15.5229 23.1176 0.0000 31.2166 0.0000
# 6 0.0000 0.0000 0.0000 -38.9095 0.0000 -5.5660
#
#
#
# Elastic Compliance Matrix: (Units=1/GPa)
#
#
# Indices 1 2 3 4 5 6 
#
# 1 0.008415 -0.002328 -0.001870 0.000000 -0.006199 0.000000
# 2 -0.002328 0.020281 0.000862 0.000000 -0.008306 0.000000
# 3 -0.001870 0.000862 0.034322 0.000000 -0.023904 0.000000
# 4 0.000000 0.000000 0.000000 0.004317 0.000000 -0.030176
# 5 -0.006199 -0.008306 -0.023904 0.000000 0.060305 0.000000
# 6 0.000000 0.000000 0.000000 -0.030176 0.000000 0.031285
#
#
# Mechanical properties :
#
#
# Convention : Reuss Voigt Hill
#
# Bulk Modulus (GPa) = 17.74704 45.11807 31.43256
# Shear Modulus (GPa) = 27.11836 9.83388 18.47612
#
# Velocity S-wave (km/s) = 3.54153 2.13266 2.92324
# Velocity P-wave (km/s) = 4.99313 5.18958 5.09230
#
# Compressibility (1/GPa) = 0.05634743
#
# Stress axis : x y z
#
# Youngs Moduli (GPa) = 118.83027 49.30804 29.13625
#
# Poissons Ratio (x) = 0.11477 0.05447
# Poissons Ratio (y) = 0.27660 -0.02512
# Poissons Ratio (z) = 0.22216 -0.04251
#
# Static dielectric constant tensor:
#      x y z
#    x 1.989890 0.000000 -0.006810 
#    y 0.000000 1.795350 0.000000 
#    z -0.006810 0.000000 1.756060 
# 
# From -- ./inp_files/34327.got.cif
#   From: 2010.05.17/outbox.cif.g08.bks.cpg/sg15_18_cif.got.tgz:34327.got - 2010.06.03 18:47:42.
