data_PCOD9279177
_publ_section_title
;
Structure prediction by ZEFSAII (Michael W. Deem and Ramdas Pophale) SiO2 
 PCOD9279177
Probable space group: C 2/C
;
_chemical_formula_sum "Si O2"
_cell_formula_units_Z 60
_cell_length_a 19.350458
_cell_length_b 8.226890
_cell_length_c 27.274002
_cell_angle_alpha 90.000000
_cell_angle_beta 42.572773
_cell_angle_gamma 90.000000
_cell_volume 2937.381551
_symmetry_space_group_name_H-M "C 2/C"
_symmetry_group_IT_number 15
_symmetry_cell_setting 'monoclinic'
loop_
_space_group_symop_operation_xyz
x,y,z
-x,y,1/2-z
-x,-y,-z
x,-y,1/2+z
1/2+x,1/2+y,z
1/2-x,1/2+y,1/2-z
1/2-x,1/2-y,-z
1/2+x,1/2-y,1/2+z
loop_
_atom_site_type_symbol
_atom_site_label
_atom_site_fract_x
_atom_site_fract_y
_atom_site_fract_z
Si Si1 0.240917 0.080721 0.118848
Si Si2 0.278127 0.528688 0.705202
Si Si3 0.081371 0.963496 0.624499
Si Si4 0.623577 0.294525 0.769895
Si Si5 0.283261 0.796003 0.848433
Si Si6 0.610648 0.585142 0.500307
Si Si7 0.000000 0.210282 0.750000
Si Si8 0.422023 0.287122 0.055290
O O1 0.189225 0.087879 0.092292
O O2 0.166502 0.188986 0.192295
O O3 0.355608 0.142292 0.067491
O O4 0.234057 0.895937 0.140376
O O5 0.327351 0.448162 0.726902
O O6 0.174680 0.632488 0.765558
O O7 0.259463 0.381967 0.677214
O O8 0.357991 0.645898 0.635577
O O9 0.997662 0.819603 0.664037
O O10 0.095826 0.049339 0.564805
O O11 0.031955 0.092188 0.688610
O O12 0.403730 0.818636 0.787127
O O13 0.225186 0.872231 0.925090
O O14 0.579868 0.423395 0.486262
O O15 0.536453 0.724053 0.516237
#
# Coordination Sequence:
#
# PCOD9279177 Si02
#       8
#     8   8   8   8   8   8   4   8
#     4  10  21  36  62  83 126 155 212 247 314 372
#     4  10  21  34  62  86 121 152 209 258 315 362
#     4  11  20  38  62  87 118 176 198 256 312 383
#     4  11  19  36  58  91 117 160 206 260 310 374
#     4  10  21  41  58  93 118 166 201 266 307 373
#     4  10  21  37  64  84 128 159 210 253 322 361
#     4  10  22  38  60  86 128 158 212 246 318 366
#     4   9  20  39  56  90 115 165 199 261 303 379
#
# _framework density 20.426355999999998
#
# number of rings (size 3 to 8) (size 9 to 14) (size 15 to 20)
#    0.000    1.867    4.000    0.800    0.000    3.200 
#    7.200    0.000    2.933    0.000    0.000    0.000 
#    0.000    0.000    0.000    0.000    0.000    0.000 
#
# Total GULP energy -167401.300216 kJ/mol
# GULP energy per Si atom -5580.043341 kJ/mol
# Density = 2.037986 g / cm^3
# Si number density = 20.426356 Si / 1000 Ang^3
#
#
#
# Elastic Constant Matrix: (Units=GPa)
#
#
# Indices 1 2 3 4 5 6 
#
# 1 71.3363 17.8374 24.7885 0.0000 6.8109 0.0015
# 2 17.8374 38.9563 -7.2629 0.0000 0.3057 0.0023
# 3 24.7885 -7.2629 63.9666 -0.0001 18.0545 0.0002
# 4 0.0000 0.0000 -0.0001 17.9518 0.0000 -8.6177
# 5 6.8109 0.3057 18.0545 0.0000 23.0981 -0.0001
# 6 0.0015 0.0023 0.0002 -8.6177 -0.0001 14.3439
#
#
#
# Elastic Compliance Matrix: (Units=1/GPa)
#
#
# Indices 1 2 3 4 5 6 
#
# 1 0.019831 -0.010841 -0.009374 0.000000 0.001623 -0.000001
# 2 -0.010841 0.032365 0.009103 -0.000003 -0.004347 -0.000006
# 3 -0.009374 0.009103 0.025088 0.000000 -0.016966 -0.000001
# 4 0.000000 -0.000003 0.000000 0.078282 0.000001 0.047031
# 5 0.001623 -0.004347 -0.016966 0.000001 0.056134 0.000002
# 6 -0.000001 -0.000006 -0.000001 0.047031 0.000002 0.097972
#
#
# Mechanical properties :
#
#
# Convention : Reuss Voigt Hill
#
# Bulk Modulus (GPa) = 18.16206 27.22060 22.69133
# Shear Modulus (GPa) = 14.27554 20.33850 17.30702
#
# Velocity S-wave (km/s) = 2.64650 3.15889 2.91398
# Velocity P-wave (km/s) = 4.27193 5.16333 4.73864
#
# Compressibility (1/GPa) = 0.05505983
#
# Stress axis : x y z
#
# Youngs Moduli (GPa) = 50.42557 30.89775 39.85958
#
# Poissons Ratio (x) = 0.33496 0.37364
# Poissons Ratio (y) = 0.54665 -0.36283
# Poissons Ratio (z) = 0.47269 -0.28125
#
# Static dielectric constant tensor:
#      x y z
#    x 1.764720 0.000000 -0.032230 
#    y 0.000000 1.733650 0.000000 
#    z -0.032230 0.000000 1.742330 
# 
# From -- ./inp_files/298367.got.cif
#   From: 2010.05.17/outbox.cif.g08.bks.cpg/sg15_150_cif.got.tgz:298367.got - 2010.06.03 18:47:42.
