data_PCOD9279407
_publ_section_title
;
Structure prediction by ZEFSAII (Michael W. Deem and Ramdas Pophale) SiO2 
 PCOD9279407
Probable space group: C 2/C
;
_chemical_formula_sum "Si O2"
_cell_formula_units_Z 60
_cell_length_a 30.911064
_cell_length_b 11.522494
_cell_length_c 8.073103
_cell_angle_alpha 90.000000
_cell_angle_beta 79.847516
_cell_angle_gamma 90.000000
_cell_volume 2830.394755
_symmetry_space_group_name_H-M "C 2/C"
_symmetry_group_IT_number 15
_symmetry_cell_setting 'monoclinic'
loop_
_space_group_symop_operation_xyz
x,y,z
-x,y,1/2-z
-x,-y,-z
x,-y,1/2+z
1/2+x,1/2+y,z
1/2-x,1/2+y,1/2-z
1/2-x,1/2-y,-z
1/2+x,1/2-y,1/2+z
loop_
_atom_site_type_symbol
_atom_site_label
_atom_site_fract_x
_atom_site_fract_y
_atom_site_fract_z
Si Si1 0.352890 0.064142 0.238852
Si Si2 0.902280 0.639909 0.899492
Si Si3 0.591445 0.557218 0.703767
Si Si4 0.136716 0.129305 0.998548
Si Si5 0.466819 0.605675 0.053608
Si Si6 0.261510 0.642282 0.611744
Si Si7 0.786689 0.431765 0.042050
Si Si8 0.500000 0.803738 0.250000
O O1 0.321731 0.128668 0.393637
O O2 0.377347 0.959422 0.315120
O O3 0.317728 0.012730 0.134209
O O4 0.389376 0.124999 0.101530
O O5 0.879902 0.764418 0.876969
O O6 0.953901 0.634443 0.822650
O O7 0.632662 0.495119 0.590601
O O8 0.563276 0.625161 0.587034
O O9 0.562243 0.446961 0.779075
O O10 0.604794 0.620654 0.861384
O O11 0.186232 0.145537 0.908962
O O12 0.490331 0.719957 0.100520
O O13 0.500000 0.500000 0.000000
O O14 0.250000 0.750000 0.500000
O O15 0.244536 0.521737 0.537599
O O16 0.239078 0.646841 0.808419
#
# Coordination Sequence:
#
# PCOD9279407 Si02
#       8
#     8   8   8   8   8   8   8   4
#     4   9  20  42  64  83 119 164 215 265 322 354
#     4  11  23  42  65  87 122 168 214 273 311 374
#     4  10  21  35  59  88 129 164 191 238 310 379
#     4  11  21  39  58  95 130 162 201 248 313 375
#     4  11  18  36  59  88 122 165 197 240 301 379
#     4  11  21  37  65  94 128 166 207 260 309 374
#     4   9  19  39  63  91 121 164 205 254 316 381
#     4  12  22  38  66  92 122 162 220 258 320 370
#
# _framework density 21.198456
#
# number of rings (size 3 to 8) (size 9 to 14) (size 15 to 20)
#    0.000    1.600    2.667    4.000    0.000    0.533 
#    4.800    8.667    0.000    0.000    0.000    0.000 
#    0.000    0.000    0.000    0.000    0.000    0.000 
#
# Total GULP energy -167352.330009 kJ/mol
# GULP energy per Si atom -5578.411000 kJ/mol
# Density = 2.115021 g / cm^3
# Si number density = 21.198456 Si / 1000 Ang^3
#
#
#
# Elastic Constant Matrix: (Units=GPa)
#
#
# Indices 1 2 3 4 5 6 
#
# 1 91.3495 6.1831 10.5891 0.0000 -30.9173 0.0000
# 2 6.1831 46.5965 3.9548 0.0000 -7.1279 0.0000
# 3 10.5891 3.9548 68.2330 0.0000 -26.4223 0.0000
# 4 0.0000 0.0000 0.0000 34.9651 0.0000 -1.2790
# 5 -30.9173 -7.1279 -26.4223 0.0000 42.0893 0.0000
# 6 0.0000 0.0000 0.0000 -1.2790 0.0000 21.8541
#
#
#
# Elastic Compliance Matrix: (Units=1/GPa)
#
#
# Indices 1 2 3 4 5 6 
#
# 1 0.014900 -0.000282 0.002542 0.000000 0.012492 0.000000
# 2 -0.000282 0.022039 0.000174 0.000000 0.003634 0.000000
# 3 0.002542 0.000174 0.019798 0.000000 0.014325 0.000000
# 4 0.000000 0.000000 0.000000 0.028661 0.000000 0.001677
# 5 0.012492 0.003634 0.014325 0.000000 0.042544 0.000000
# 6 0.000000 0.000000 0.000000 0.001677 0.000000 0.045856
#
#
# Mechanical properties :
#
#
# Convention : Reuss Voigt Hill
#
# Bulk Modulus (GPa) = 16.23263 27.51480 21.87372
# Shear Modulus (GPa) = 26.38987 32.14516 29.26751
#
# Velocity S-wave (km/s) = 3.53214 3.89831 3.71973
# Velocity P-wave (km/s) = 4.93039 5.76804 5.36558
#
# Compressibility (1/GPa) = 0.06160432
#
# Stress axis : x y z
#
# Youngs Moduli (GPa) = 67.11633 45.37323 50.50910
#
# Poissons Ratio (x) = 0.01279 -0.12837
# Poissons Ratio (y) = 0.01892 -0.00877
# Poissons Ratio (z) = -0.17058 -0.00788
#
# Static dielectric constant tensor:
#      x y z
#    x 1.764000 0.000000 -0.055140 
#    y 0.000000 1.895620 0.000000 
#    z -0.055140 0.000000 1.871540 
# 
# From -- ./inp_files/69073.got.cif
#   From: 2010.05.17/outbox.cif.g08.bks.cpg/sg15_35_cif.got.tgz:69073.got - 2010.06.03 18:47:42.
