data_PCOD9279699
_publ_section_title
;
Structure prediction by ZEFSAII (Michael W. Deem and Ramdas Pophale) SiO2 
 PCOD9279699
Probable space group: C 2/C
;
_chemical_formula_sum "Si O2"
_cell_formula_units_Z 52
_cell_length_a 11.617437
_cell_length_b 7.655972
_cell_length_c 25.545386
_cell_angle_alpha 90.000000
_cell_angle_beta 104.561179
_cell_angle_gamma 90.000000
_cell_volume 2199.097732
_symmetry_space_group_name_H-M "C 2/C"
_symmetry_group_IT_number 15
_symmetry_cell_setting 'monoclinic'
loop_
_space_group_symop_operation_xyz
x,y,z
-x,y,1/2-z
-x,-y,-z
x,-y,1/2+z
1/2+x,1/2+y,z
1/2-x,1/2+y,1/2-z
1/2-x,1/2-y,-z
1/2+x,1/2-y,1/2+z
loop_
_atom_site_type_symbol
_atom_site_label
_atom_site_fract_x
_atom_site_fract_y
_atom_site_fract_z
Si Si1 0.787545 0.653662 0.204589
Si Si2 0.250000 0.750000 0.500000
Si Si3 0.644284 0.586469 0.618688
Si Si4 0.482821 0.330217 0.961708
Si Si5 0.303315 0.067719 0.537453
Si Si6 0.576636 0.091833 0.710018
Si Si7 0.943253 0.651717 0.126512
O O1 0.730663 0.475677 0.174585
O O2 0.683732 0.783860 0.207483
O O3 0.868675 0.590750 0.261694
O O4 0.868534 0.726171 0.166450
O O5 0.367651 0.759941 0.473272
O O6 0.273656 0.530081 0.514472
O O7 0.563623 0.416460 0.597255
O O8 0.724903 0.632345 0.577229
O O9 0.554262 0.738022 0.621666
O O10 0.593126 0.196181 0.968407
O O11 0.500000 0.500000 0.000000
O O12 0.354689 0.879678 0.567259
O O13 0.500000 0.163438 0.750000
O O14 0.491507 0.035182 0.652622
#
# Coordination Sequence:
#
# PCOD9279699 Si02
#       7
#     8   4   8   8   8   8   8
#     4  10  21  37  56  84 113 144 187 228 278 338
#     4  10  22  38  58  82 110 148 186 232 284 332
#     4  10  22  37  57  84 112 147 189 231 283 338
#     4  11  23  38  58  85 113 148 191 235 285 340
#     4  10  22  39  58  83 115 147 190 236 282 341
#     4  10  21  36  57  82 112 147 184 229 279 335
#     4  10  21  38  57  81 113 148 185 231 280 333
#
# _framework density 23.646059999999999
#
# number of rings (size 3 to 8) (size 9 to 14) (size 15 to 20)
#    0.000    1.846    0.000    3.231    0.000    6.154 
#    0.000    0.000    0.000    0.000    0.000    0.000 
#    0.000    0.000    0.000    0.000    0.000    0.000 
#
# Total GULP energy -144875.262204 kJ/mol
# GULP energy per Si atom -5572.125469 kJ/mol
# Density = 2.359224 g / cm^3
# Si number density = 23.646060 Si / 1000 Ang^3
#
#
#
# Elastic Constant Matrix: (Units=GPa)
#
#
# Indices 1 2 3 4 5 6 
#
# 1 189.2079 89.0318 13.1335 0.0000 -37.9462 0.0000
# 2 89.0318 85.3984 22.6704 0.0000 -30.1260 0.0000
# 3 13.1335 22.6704 52.4449 0.0000 -5.2755 0.0000
# 4 0.0000 0.0000 0.0000 25.7590 0.0000 5.1006
# 5 -37.9462 -30.1260 -5.2755 0.0000 34.2698 0.0000
# 6 0.0000 0.0000 0.0000 5.1006 0.0000 79.0442
#
#
#
# Elastic Compliance Matrix: (Units=1/GPa)
#
#
# Indices 1 2 3 4 5 6 
#
# 1 0.010809 -0.010913 0.002285 0.000000 0.002726 0.000000
# 2 -0.010913 0.030024 -0.008945 0.000000 0.012933 0.000000
# 3 0.002285 -0.008945 0.022169 0.000000 -0.001920 0.000000
# 4 0.000000 0.000000 0.000000 0.039324 0.000000 -0.002537
# 5 0.002726 0.012933 -0.001920 0.000000 0.043272 0.000000
# 6 0.000000 0.000000 0.000000 -0.002537 0.000000 0.012815
#
#
# Mechanical properties :
#
#
# Convention : Reuss Voigt Hill
#
# Bulk Modulus (GPa) = 35.89947 64.08028 49.98987
# Shear Modulus (GPa) = 24.64949 41.29565 32.97257
#
# Velocity S-wave (km/s) = 3.23218 4.18354 3.73825
# Velocity P-wave (km/s) = 5.39854 7.10595 6.31026
#
# Compressibility (1/GPa) = 0.02785557
#
# Stress axis : x y z
#
# Youngs Moduli (GPa) = 92.51900 33.30632 45.10847
#
# Poissons Ratio (x) = 0.36348 -0.10307
# Poissons Ratio (y) = 1.00969 0.40348
# Poissons Ratio (z) = -0.21141 0.29792
#
# Static dielectric constant tensor:
#      x y z
#    x 1.822640 0.000000 -0.073170 
#    y 0.000000 1.475600 0.000000 
#    z -0.073170 0.000000 1.674170 
# 
# From -- ./inp_files/291221.got.cif
#   From: 2010.05.17/outbox.cif.g08.bks.cpg/sg15_146_cif.got.tgz:291221.got - 2010.06.03 18:47:42.
