data_PCOD9279616
_publ_section_title
;
Structure prediction by ZEFSAII (Michael W. Deem and Ramdas Pophale) SiO2 
 PCOD9279616
Probable space group: C 2/C
;
_chemical_formula_sum "Si O2"
_cell_formula_units_Z 48
_cell_length_a 7.342706
_cell_length_b 19.926075
_cell_length_c 20.201826
_cell_angle_alpha 90.000000
_cell_angle_beta 68.686706
_cell_angle_gamma 90.000000
_cell_volume 2753.602403
_symmetry_space_group_name_H-M "C 2/C"
_symmetry_group_IT_number 15
_symmetry_cell_setting 'monoclinic'
loop_
_space_group_symop_operation_xyz
x,y,z
-x,y,1/2-z
-x,-y,-z
x,-y,1/2+z
1/2+x,1/2+y,z
1/2-x,1/2+y,1/2-z
1/2-x,1/2-y,-z
1/2+x,1/2-y,1/2+z
loop_
_atom_site_type_symbol
_atom_site_label
_atom_site_fract_x
_atom_site_fract_y
_atom_site_fract_z
Si Si1 0.705913 0.311911 0.917775
Si Si2 0.500000 0.646584 0.250000
Si Si3 0.783116 0.431617 0.808664
Si Si4 0.379249 0.250000 0.870750
Si Si5 0.458536 0.688089 0.917775
Si Si6 0.500000 0.853416 0.250000
Si Si7 0.400443 0.568383 0.691336
O O1 0.779653 0.377668 0.868941
O O2 0.505554 0.282681 0.912338
O O3 0.856742 0.250000 0.893257
O O4 0.666344 0.326804 0.000000
O O5 0.346518 0.603691 0.230067
O O6 0.627520 0.692060 0.183665
O O7 0.662084 0.500000 0.837916
O O8 0.000000 0.444009 0.750000
O O9 0.494850 0.192060 0.816335
O O10 0.169770 0.217320 0.912338
O O11 0.482465 0.622333 0.868941
O O12 0.306652 0.896309 0.269933
O O13 0.500000 0.555991 0.750000
#
# Coordination Sequence:
#
# PCOD9279616 Si02
#       7
#     8   4   8   8   8   4   8
#     4  10  21  36  55  80 110 142 178 223 273 323
#     4   9  18  32  52  82 103 136 178 226 267 314
#     4  11  21  35  56  79 109 142 181 222 268 321
#     4   9  17  32  56  78 105 135 180 220 267 319
#     4  10  21  36  55  80 110 142 178 223 273 323
#     4   9  18  32  52  82 103 136 178 226 267 314
#     4  11  21  35  56  79 109 142 181 222 268 321
#
# _framework density 17.431712000000001
#
# number of rings (size 3 to 8) (size 9 to 14) (size 15 to 20)
#    0.000    2.000    1.667    2.500    0.000    4.000 
#    0.000    0.000    0.000    1.000    0.000    0.000 
#    0.000    0.000    0.000    0.000    0.000    0.000 
#
# Total GULP energy -133671.901466 kJ/mol
# GULP energy per Si atom -5569.662561 kJ/mol
# Density = 1.739204 g / cm^3
# Si number density = 17.431712 Si / 1000 Ang^3
#
#
#
# Elastic Constant Matrix: (Units=GPa)
#
#
# Indices 1 2 3 4 5 6 
#
# 1 37.8548 35.0849 24.3958 0.0000 0.4920 0.0000
# 2 35.0849 136.4265 53.1763 0.0000 0.6585 0.0000
# 3 24.3958 53.1763 65.5782 0.0000 0.5171 0.0000
# 4 0.0000 0.0000 0.0000 25.5221 0.0000 -0.3802
# 5 0.4920 0.6585 0.5171 0.0000 13.4875 0.0000
# 6 0.0000 0.0000 0.0000 -0.3802 0.0000 35.9666
#
#
#
# Elastic Compliance Matrix: (Units=1/GPa)
#
#
# Indices 1 2 3 4 5 6 
#
# 1 0.038074 -0.006242 -0.009096 0.000000 -0.000735 0.000000
# 2 -0.006242 0.011741 -0.007198 0.000000 -0.000070 0.000000
# 3 -0.009096 -0.007198 0.024472 0.000000 -0.000255 0.000000
# 4 0.000000 0.000000 0.000000 0.039188 0.000000 0.000414
# 5 -0.000735 -0.000070 -0.000255 0.000000 0.074183 0.000000
# 6 0.000000 0.000000 0.000000 0.000414 0.000000 0.027808
#
#
# Mechanical properties :
#
#
# Convention : Reuss Voigt Hill
#
# Bulk Modulus (GPa) = 34.23068 51.68595 42.95832
# Shear Modulus (GPa) = 18.49951 23.47538 20.98744
#
# Velocity S-wave (km/s) = 3.26123 3.67373 3.47361
# Velocity P-wave (km/s) = 5.81897 6.90724 6.38633
#
# Compressibility (1/GPa) = 0.02921356
#
# Stress axis : x y z
#
# Youngs Moduli (GPa) = 26.26453 85.16936 40.86348
#
# Poissons Ratio (x) = 0.53166 0.37171
# Poissons Ratio (y) = 0.16395 0.29414
# Poissons Ratio (z) = 0.23891 0.61305
#
# Static dielectric constant tensor:
#      x y z
#    x 1.604200 0.000000 -0.000200 
#    y 0.000000 1.617370 0.000000 
#    z -0.000200 0.000000 1.598800 
# 
# From -- ./inp_files/189899.got.cif
#   From: 2010.05.17/outbox.cif.g08.bks.cpg/sg15_95_cif.got.tgz:189899.got - 2010.06.03 18:47:42.
