data_PCOD9279307
_publ_section_title
;
Structure prediction by ZEFSAII (Michael W. Deem and Ramdas Pophale) SiO2 
 PCOD9279307
Probable space group: C 2/C
;
_chemical_formula_sum "Si O2"
_cell_formula_units_Z 60
_cell_length_a 5.189051
_cell_length_b 23.853696
_cell_length_c 23.588589
_cell_angle_alpha 90.000000
_cell_angle_beta 96.282809
_cell_angle_gamma 90.000000
_cell_volume 2902.212937
_symmetry_space_group_name_H-M "C 2/C"
_symmetry_group_IT_number 15
_symmetry_cell_setting 'monoclinic'
loop_
_space_group_symop_operation_xyz
x,y,z
-x,y,1/2-z
-x,-y,-z
x,-y,1/2+z
1/2+x,1/2+y,z
1/2-x,1/2+y,1/2-z
1/2-x,1/2-y,-z
1/2+x,1/2-y,1/2+z
loop_
_atom_site_type_symbol
_atom_site_label
_atom_site_fract_x
_atom_site_fract_y
_atom_site_fract_z
Si Si1 0.340501 0.318178 0.059867
Si Si2 0.199396 0.123732 0.640994
Si Si3 0.014523 0.304523 0.548611
Si Si4 0.084025 0.717708 0.671906
Si Si5 0.507383 0.976435 0.317186
Si Si6 0.500000 0.347966 0.250000
Si Si7 0.544657 0.332150 0.620717
Si Si8 0.008415 0.948667 0.817173
O O1 0.526516 0.369385 0.081290
O O2 0.491214 0.263073 0.041183
O O3 0.230180 0.297880 0.117270
O O4 0.106595 0.330051 0.011559
O O5 0.317031 0.184864 0.657110
O O6 0.045908 0.113166 0.696115
O O7 0.428176 0.078876 0.645285
O O8 0.814868 0.325289 0.593033
O O9 0.305646 0.319064 0.572776
O O10 0.259807 0.691549 0.725599
O O11 0.046029 0.783991 0.669249
O O12 0.500000 0.960496 0.250000
O O13 0.255517 0.010701 0.329541
O O14 0.752674 0.017289 0.327548
O O15 0.492937 0.392188 0.646707
O O16 0.000000 0.934563 0.750000
#
# Coordination Sequence:
#
# PCOD9279307 Si02
#       8
#     8   8   8   8   8   4   8   8
#     4   9  21  35  58  91 121 154 200 240 300 358
#     4  11  21  36  59  88 122 154 196 242 309 356
#     4  10  21  38  62  88 123 156 200 247 291 361
#     4  10  21  35  56  90 121 159 189 240 310 363
#     4  10  22  38  61  82 115 155 204 242 291 347
#     4  10  22  34  50  92 128 154 186 240 316 376
#     4  11  22  40  62  86 120 157 200 246 299 347
#     4  10  23  41  59  86 112 160 205 244 285 355
#
# _framework density 20.673881000000002
#
# number of rings (size 3 to 8) (size 9 to 14) (size 15 to 20)
#    0.000    1.867    1.333    2.000    8.400    2.667 
#    3.600    0.000    0.000    4.800    0.000    0.000 
#    0.000    0.000    0.000    0.000    0.000    0.000 
#
# Total GULP energy -167588.224797 kJ/mol
# GULP energy per Si atom -5586.274160 kJ/mol
# Density = 2.062683 g / cm^3
# Si number density = 20.673881 Si / 1000 Ang^3
#
#
#
# Elastic Constant Matrix: (Units=GPa)
#
#
# Indices 1 2 3 4 5 6 
#
# 1 78.9004 14.6213 20.5381 0.0000 15.9713 0.0000
# 2 14.6213 84.1507 30.8184 0.0000 9.1903 0.0000
# 3 20.5381 30.8184 63.5970 0.0000 13.7809 0.0000
# 4 0.0000 0.0000 0.0000 23.7921 0.0000 7.7762
# 5 15.9713 9.1903 13.7809 0.0000 22.6730 0.0000
# 6 0.0000 0.0000 0.0000 7.7762 0.0000 24.0994
#
#
#
# Elastic Compliance Matrix: (Units=1/GPa)
#
#
# Indices 1 2 3 4 5 6 
#
# 1 0.015296 -0.000710 -0.002676 0.000000 -0.008861 0.000000
# 2 -0.000710 0.014548 -0.006508 0.000000 -0.001441 0.000000
# 3 -0.002676 -0.006508 0.021608 0.000000 -0.008611 0.000000
# 4 0.000000 0.000000 0.000000 0.046986 0.000000 -0.015161
# 5 -0.008861 -0.001441 -0.008611 0.000000 0.056165 0.000000
# 6 0.000000 0.000000 0.000000 -0.015161 0.000000 0.046387
#
#
# Mechanical properties :
#
#
# Convention : Reuss Voigt Hill
#
# Bulk Modulus (GPa) = 31.58195 39.84486 35.71340
# Shear Modulus (GPa) = 21.61408 24.82425 23.21917
#
# Velocity S-wave (km/s) = 3.23689 3.46895 3.35493
# Velocity P-wave (km/s) = 5.41104 5.94640 5.68503
#
# Compressibility (1/GPa) = 0.03166365
#
# Stress axis : x y z
#
# Youngs Moduli (GPa) = 65.37716 68.73974 46.27995
#
# Poissons Ratio (x) = 0.04881 0.12382
# Poissons Ratio (y) = 0.04643 0.30119
# Poissons Ratio (z) = 0.17492 0.44736
#
# Static dielectric constant tensor:
#      x y z
#    x 1.817280 0.000000 -0.031560 
#    y 0.000000 1.734440 0.000000 
#    z -0.031560 0.000000 1.768490 
# 
# From -- ./inp_files/261742.got.cif
#   From: 2010.05.17/outbox.cif.g08.bks.cpg/sg15_131_cif.got.tgz:261742.got - 2010.06.03 18:47:42.
