data_PCOD9279229
_publ_section_title
;
Structure prediction by ZEFSAII (Michael W. Deem and Ramdas Pophale) SiO2 
 PCOD9279229
Probable space group: C 2/C
;
_chemical_formula_sum "Si O2"
_cell_formula_units_Z 56
_cell_length_a 10.355178
_cell_length_b 7.305145
_cell_length_c 31.057563
_cell_angle_alpha 90.000000
_cell_angle_beta 72.163360
_cell_angle_gamma 90.000000
_cell_volume 2236.456679
_symmetry_space_group_name_H-M "C 2/C"
_symmetry_group_IT_number 15
_symmetry_cell_setting 'monoclinic'
loop_
_space_group_symop_operation_xyz
x,y,z
-x,y,1/2-z
-x,-y,-z
x,-y,1/2+z
1/2+x,1/2+y,z
1/2-x,1/2+y,1/2-z
1/2-x,1/2-y,-z
1/2+x,1/2-y,1/2+z
loop_
_atom_site_type_symbol
_atom_site_label
_atom_site_fract_x
_atom_site_fract_y
_atom_site_fract_z
Si Si1 0.998424 0.934613 0.199807
Si Si2 0.007131 0.518357 0.935705
Si Si3 0.793352 0.567292 0.654307
Si Si4 0.207737 0.007772 0.356633
Si Si5 0.499086 0.992370 0.201072
Si Si6 0.502278 0.539489 0.448657
Si Si7 0.716602 0.047898 0.487476
O O1 0.142452 0.009182 0.167243
O O2 0.999776 0.713354 0.200655
O O3 0.000000 0.991720 0.250000
O O4 0.877984 0.981513 0.178863
O O5 0.084511 0.471713 0.884228
O O6 0.104059 0.443416 0.962741
O O7 0.007336 0.740850 0.940201
O O8 0.855404 0.455276 0.963671
O O9 0.858183 0.572579 0.694883
O O10 0.778376 0.774034 0.639974
O O11 0.360511 0.932756 0.336518
O O12 0.117951 0.950552 0.407218
O O13 0.500000 0.930420 0.250000
O O14 0.500000 0.500000 0.500000
O O15 0.351737 0.470789 0.452237
O O16 0.750000 0.250000 0.500000
#
# Coordination Sequence:
#
# PCOD9279229 Si02
#       7
#     8   8   8   8   8   8   8
#     4  10  21  39  59  84 117 150 187 240 294 346
#     4   9  19  36  54  78 108 146 186 236 281 335
#     4  10  21  37  60  83 115 150 190 235 289 345
#     4  10  22  39  58  87 119 149 197 240 283 351
#     4  10  22  39  59  88 118 148 191 241 292 348
#     4  10  21  35  53  80 114 148 187 232 285 342
#     4   9  18  35  54  75 108 144 186 230 275 334
#
# _framework density 25.039608000000001
#
# number of rings (size 3 to 8) (size 9 to 14) (size 15 to 20)
#    0.000    2.286    0.000    1.714    2.000    2.286 
#    7.714    0.000    0.000    0.000    0.000    0.000 
#    0.000    0.000    0.000    0.000    0.000    0.000 
#
# Total GULP energy -156340.351163 kJ/mol
# GULP energy per Si atom -5583.583970 kJ/mol
# Density = 2.498262 g / cm^3
# Si number density = 25.039608 Si / 1000 Ang^3
#
#
#
# Elastic Constant Matrix: (Units=GPa)
#
#
# Indices 1 2 3 4 5 6 
#
# 1 99.7388 -4.0226 -5.8196 0.0000 -17.9231 0.0000
# 2 -4.0226 93.7374 1.0933 0.0000 -11.6538 0.0000
# 3 -5.8196 1.0933 74.6431 0.0000 -17.0227 0.0000
# 4 0.0000 0.0000 0.0000 5.6959 0.0000 20.7508
# 5 -17.9231 -11.6538 -17.0227 0.0000 43.0498 0.0000
# 6 0.0000 0.0000 0.0000 20.7508 0.0000 14.1870
#
#
#
# Elastic Compliance Matrix: (Units=1/GPa)
#
#
# Indices 1 2 3 4 5 6 
#
# 1 0.011259 0.001188 0.002201 0.000000 0.005880 0.000000
# 2 0.001188 0.011187 0.000805 0.000000 0.003842 0.000000
# 3 0.002201 0.000805 0.015185 0.000000 0.007139 0.000000
# 4 0.000000 0.000000 0.000000 -0.040559 0.000000 0.059324
# 5 0.005880 0.003842 0.007139 0.000000 0.029540 0.000000
# 6 0.000000 0.000000 0.000000 0.059324 0.000000 -0.016284
#
#
# Mechanical properties :
#
#
# Convention : Reuss Voigt Hill
#
# Bulk Modulus (GPa) = 21.72928 27.84683 24.78805
# Shear Modulus (GPa) = 289.36206 31.04442 160.20324
#
# Velocity S-wave (km/s) = 10.76163 3.52492 8.00742
# Velocity P-wave (km/s) = 12.77159 5.26422 9.76795
#
# Compressibility (1/GPa) = 0.04602084
#
# Stress axis : x y z
#
# Youngs Moduli (GPa) = 88.81662 89.38695 65.85461
#
# Poissons Ratio (x) = -0.10624 -0.14497
# Poissons Ratio (y) = -0.10556 -0.05301
# Poissons Ratio (z) = -0.19551 -0.07195
#
# Static dielectric constant tensor:
#      x y z
#    x 2.081660 0.000000 -0.042080 
#    y 0.000000 1.980390 0.000000 
#    z -0.042080 0.000000 2.072890 
# 
# From -- ./inp_files/309923.got.cif
#   From: 2010.05.17/outbox.cif.g08.bks.cpg/sg15_155_cif.got.tgz:309923.got - 2010.06.03 18:47:42.
