data_PCOD9279173
_publ_section_title
;
Structure prediction by ZEFSAII (Michael W. Deem and Ramdas Pophale) SiO2 
 PCOD9279173
Probable space group: C 2/C
;
_chemical_formula_sum "Si O2"
_cell_formula_units_Z 48
_cell_length_a 15.810068
_cell_length_b 9.782367
_cell_length_c 20.346831
_cell_angle_alpha 90.000000
_cell_angle_beta 141.897226
_cell_angle_gamma 90.000000
_cell_volume 1941.832197
_symmetry_space_group_name_H-M "C 2/C"
_symmetry_group_IT_number 15
_symmetry_cell_setting 'monoclinic'
loop_
_space_group_symop_operation_xyz
x,y,z
-x,y,1/2-z
-x,-y,-z
x,-y,1/2+z
1/2+x,1/2+y,z
1/2-x,1/2+y,1/2-z
1/2-x,1/2-y,-z
1/2+x,1/2-y,1/2+z
loop_
_atom_site_type_symbol
_atom_site_label
_atom_site_fract_x
_atom_site_fract_y
_atom_site_fract_z
Si Si1 0.796841 0.560514 0.082947
Si Si2 0.302371 0.259353 0.615206
Si Si3 0.829702 0.823360 0.779988
Si Si4 0.582410 0.896938 0.702479
Si Si5 0.966529 0.010734 0.656415
Si Si6 0.498522 0.882257 0.054831
O O1 0.811990 0.394725 0.095724
O O2 0.827866 0.603535 0.176635
O O3 0.923485 0.629046 0.121378
O O4 0.650801 0.583118 0.958750
O O5 0.338958 0.257712 0.713890
O O6 0.397132 0.364819 0.633620
O O7 0.153694 0.330389 0.524670
O O8 0.671376 0.814810 0.704386
O O9 0.913200 0.756124 0.891195
O O10 0.899162 0.971839 0.804595
O O11 0.567803 0.041921 0.658336
O O12 0.000000 0.072057 0.750000
O O13 0.500000 0.000000 0.000000
#
# Coordination Sequence:
#
# PCOD9279173 Si02
#       6
#     8   8   8   8   8   8
#     4  11  21  38  63  93 135 181 232 274 338 407
#     4  11  20  36  64 100 131 173 228 286 331 406
#     4  11  23  39  59 102 140 170 230 284 343 410
#     4  11  24  37  64  98 135 184 222 281 351 405
#     4  10  21  34  61  93 137 170 221 287 332 391
#     4  12  22  39  67  97 138 183 224 283 349 404
#
# _framework density 24.718924000000001
#
# number of rings (size 3 to 8) (size 9 to 14) (size 15 to 20)
#    0.000    1.000    6.667    1.500    4.667    0.667 
#    0.000    0.000    0.000    8.000    0.000    0.000 
#    0.000    0.000    0.000    0.000    0.000    0.000 
#
# Total GULP energy -133846.675437 kJ/mol
# GULP energy per Si atom -5576.944810 kJ/mol
# Density = 2.466266 g / cm^3
# Si number density = 24.718924 Si / 1000 Ang^3
#
#
#
# Elastic Constant Matrix: (Units=GPa)
#
#
# Indices 1 2 3 4 5 6 
#
# 1 113.2966 38.6337 44.1252 0.0000 4.9020 0.0000
# 2 38.6337 71.3666 32.2643 0.0000 6.1200 0.0000
# 3 44.1252 32.2643 149.1952 0.0000 -10.3759 0.0000
# 4 0.0000 0.0000 0.0000 18.2071 0.0000 -0.6208
# 5 4.9020 6.1200 -10.3759 0.0000 36.8377 0.0000
# 6 0.0000 0.0000 0.0000 -0.6208 0.0000 0.2047
#
#
#
# Elastic Compliance Matrix: (Units=1/GPa)
#
#
# Indices 1 2 3 4 5 6 
#
# 1 0.011547 -0.005038 -0.002422 0.000000 -0.001382 0.000000
# 2 -0.005038 0.018210 -0.002664 0.000000 -0.003105 0.000000
# 3 -0.002422 -0.002664 0.008209 0.000000 0.003077 0.000000
# 4 0.000000 0.000000 0.000000 0.061256 0.000000 0.185726
# 5 -0.001382 -0.003105 0.003077 0.000000 0.028713 0.000000
# 6 0.000000 0.000000 0.000000 0.185726 0.000000 5.447388
#
#
# Mechanical properties :
#
#
# Convention : Reuss Voigt Hill
#
# Bulk Modulus (GPa) = 56.43611 62.65608 59.54610
# Shear Modulus (GPa) = 0.89262 25.63892 13.26577
#
# Velocity S-wave (km/s) = 0.60158 3.22408 2.31912
# Velocity P-wave (km/s) = 4.83355 6.26594 5.59577
#
# Compressibility (1/GPa) = 0.01771915
#
# Stress axis : x y z
#
# Youngs Moduli (GPa) = 86.60114 54.91516 121.81730
#
# Poissons Ratio (x) = 0.27664 0.29502
# Poissons Ratio (y) = 0.43626 0.32453
# Poissons Ratio (z) = 0.20973 0.14630
#
# Static dielectric constant tensor:
#      x y z
#    x 1.961230 0.000000 -0.006620 
#    y 0.000000 2.027440 0.000000 
#    z -0.006620 0.000000 2.027200 
# 
# From -- ./inp_files/244000.got.cif
#   From: 2010.05.17/outbox.cif.g08.bks.cpg/sg15_122_cif.got.tgz:244000.got - 2010.06.03 18:47:42.
