data_PCOD9279449
_publ_section_title
;
Structure prediction by ZEFSAII (Michael W. Deem and Ramdas Pophale) SiO2 
 PCOD9279449
Probable space group: C 2/C
;
_chemical_formula_sum "Si O2"
_cell_formula_units_Z 40
_cell_length_a 13.293581
_cell_length_b 14.009150
_cell_length_c 24.964923
_cell_angle_alpha 90.000000
_cell_angle_beta 156.608231
_cell_angle_gamma 90.000000
_cell_volume 1845.831528
_symmetry_space_group_name_H-M "C 2/C"
_symmetry_group_IT_number 15
_symmetry_cell_setting 'monoclinic'
loop_
_space_group_symop_operation_xyz
x,y,z
-x,y,1/2-z
-x,-y,-z
x,-y,1/2+z
1/2+x,1/2+y,z
1/2-x,1/2+y,1/2-z
1/2-x,1/2-y,-z
1/2+x,1/2-y,1/2+z
loop_
_atom_site_type_symbol
_atom_site_label
_atom_site_fract_x
_atom_site_fract_y
_atom_site_fract_z
Si Si1 0.343434 0.220872 0.842279
Si Si2 0.382015 0.596416 0.582171
Si Si3 0.915464 0.896164 0.810936
Si Si4 0.533198 0.109721 0.032866
Si Si5 0.494467 0.105768 0.304506
O O1 0.478442 0.293472 0.867030
O O2 0.147156 0.294096 0.774367
O O3 0.157357 0.143310 0.724326
O O4 0.514490 0.173042 0.970784
O O5 0.388241 0.481947 0.592841
O O6 0.194165 0.634815 0.536736
O O7 0.259544 0.617681 0.464519
O O8 0.788078 0.881287 0.691466
O O9 0.691810 0.936835 0.741213
O O10 0.500000 0.000000 0.000000
O O11 0.500000 0.054692 0.250000
#
# Coordination Sequence:
#
# PCOD9279449 Si02
#       5
#     8   8   8   8   8
#     4  10  21  35  60  91 114 156 200 255 290 354
#     4  11  20  38  61  87 124 156 205 254 295 362
#     4   9  23  35  56  97 117 155 204 256 300 352
#     4  11  21  37  64  90 118 158 212 251 299 359
#     4   9  20  34  57  86 118 155 203 240 306 352
#
# _framework density 21.670449000000001
#
# number of rings (size 3 to 8) (size 9 to 14) (size 15 to 20)
#    1.200    0.800    2.000    2.400    2.800    0.800 
#    0.000    1.000    0.000    0.000    0.000    0.000 
#    0.000    0.000    0.000    0.000    0.000    0.000 
#
# Total GULP energy -111491.769152 kJ/mol
# GULP energy per Si atom -5574.588458 kJ/mol
# Density = 2.162113 g / cm^3
# Si number density = 21.670449 Si / 1000 Ang^3
#
#
#
# Elastic Constant Matrix: (Units=GPa)
#
#
# Indices 1 2 3 4 5 6 
#
# 1 73.5209 14.4369 33.1647 -0.0055 -13.9262 -0.0054
# 2 14.4369 92.9458 19.9135 0.0008 -7.4678 -0.0002
# 3 33.1647 19.9135 57.7529 -0.0107 -25.7790 -0.0105
# 4 -0.0055 0.0008 -0.0107 33.0423 -0.0042 -0.0334
# 5 -13.9262 -7.4678 -25.7790 -0.0042 30.7283 -0.0049
# 6 -0.0054 -0.0002 -0.0105 -0.0334 -0.0049 24.6306
#
#
#
# Elastic Compliance Matrix: (Units=1/GPa)
#
#
# Indices 1 2 3 4 5 6 
#
# 1 0.018404 -0.000629 -0.010706 0.000000 -0.000794 -0.000001
# 2 -0.000629 0.011653 -0.004029 -0.000002 -0.000833 -0.000002
# 3 -0.010706 -0.004029 0.035569 0.000013 0.024009 0.000018
# 4 0.000000 -0.000002 0.000013 0.030264 0.000014 0.000041
# 5 -0.000794 -0.000833 0.024009 0.000014 0.052123 0.000020
# 6 -0.000001 -0.000002 0.000018 0.000041 0.000020 0.040600
#
#
# Mechanical properties :
#
#
# Convention : Reuss Voigt Hill
#
# Bulk Modulus (GPa) = 28.65397 39.91664 34.28531
# Shear Modulus (GPa) = 21.64751 28.12720 24.88735
#
# Velocity S-wave (km/s) = 3.16403 3.60662 3.39255
# Velocity P-wave (km/s) = 5.15746 5.98360 5.58582
#
# Compressibility (1/GPa) = 0.03489918
#
# Stress axis : x y z
#
# Youngs Moduli (GPa) = 54.33566 85.81601 28.11429
#
# Poissons Ratio (x) = 0.05395 0.30100
# Poissons Ratio (y) = 0.03416 0.11326
# Poissons Ratio (z) = 0.58172 0.34573
#
# Static dielectric constant tensor:
#      x y z
#    x 1.846670 0.000000 0.052530 
#    y 0.000000 1.770720 0.000000 
#    z 0.052530 0.000000 1.793350 
# 
# From -- ./inp_files/296654.got.cif
#   From: 2010.05.17/outbox.cif.g08.bks.cpg/sg15_149_cif.got.tgz:296654.got - 2010.06.03 18:47:42.
