data_PCOD9279038
_publ_section_title
;
Structure prediction by ZEFSAII (Michael W. Deem and Ramdas Pophale) SiO2 
 PCOD9279038
Probable space group: C 2/C
;
_chemical_formula_sum "Si O2"
_cell_formula_units_Z 44
_cell_length_a 21.254914
_cell_length_b 19.805062
_cell_length_c 5.404098
_cell_angle_alpha 90.000000
_cell_angle_beta 102.083907
_cell_angle_gamma 90.000000
_cell_volume 2224.474824
_symmetry_space_group_name_H-M "C 2/C"
_symmetry_group_IT_number 15
_symmetry_cell_setting 'monoclinic'
loop_
_space_group_symop_operation_xyz
x,y,z
-x,y,1/2-z
-x,-y,-z
x,-y,1/2+z
1/2+x,1/2+y,z
1/2-x,1/2+y,1/2-z
1/2-x,1/2-y,-z
1/2+x,1/2-y,1/2+z
loop_
_atom_site_type_symbol
_atom_site_label
_atom_site_fract_x
_atom_site_fract_y
_atom_site_fract_z
Si Si1 0.725980 0.485911 0.286259
Si Si2 0.084843 0.960979 0.677062
Si Si3 0.000000 0.161649 0.250000
Si Si4 0.683999 0.808274 0.702093
Si Si5 0.242051 0.161468 0.736332
Si Si6 0.035618 0.704966 0.024558
O O1 0.763264 0.496832 0.569119
O O2 0.662823 0.533504 0.237463
O O3 0.704884 0.408199 0.249537
O O4 0.053997 0.887351 0.678300
O O5 0.065494 0.997668 0.407405
O O6 0.031071 0.213606 0.472208
O O7 0.722913 0.839192 0.501478
O O8 0.698586 0.727917 0.705667
O O9 0.608767 0.818011 0.601951
O O10 0.709211 0.832135 0.990827
O O11 0.000000 0.689400 0.250000
O O12 0.000000 0.677162 0.750000
#
# Coordination Sequence:
#
# PCOD9279038 Si02
#       6
#     8   8   4   8   8   8
#     4  10  21  34  54  81 111 149 189 238 287 336
#     4  10  22  34  48  72 107 155 198 224 268 314
#     4  10  24  34  54  76 118 158 192 234 260 336
#     4  10  21  38  58  81 110 155 198 251 290 339
#     4  10  21  37  58  80 112 153 205 243 290 338
#     4  10  23  35  57  83 115 148 193 238 288 333
#
# _framework density 19.779948000000001
#
# number of rings (size 3 to 8) (size 9 to 14) (size 15 to 20)
#    0.545    1.455    0.000    2.727    7.636    1.455 
#    3.273    0.000    0.000    0.000    0.000    0.000 
#    0.000   50.909    0.000    0.000    0.000    0.000 
#
# Total GULP energy -122683.498090 kJ/mol
# GULP energy per Si atom -5576.522640 kJ/mol
# Density = 1.973493 g / cm^3
# Si number density = 19.779948 Si / 1000 Ang^3
#
#
#
# Elastic Constant Matrix: (Units=GPa)
#
#
# Indices 1 2 3 4 5 6 
#
# 1 66.7719 -6.1136 29.0173 0.0000 11.1001 0.0000
# 2 -6.1136 39.4983 -5.7569 0.0000 -7.7672 0.0000
# 3 29.0173 -5.7569 165.6566 0.0000 -15.5544 0.0000
# 4 0.0000 0.0000 0.0000 11.8245 0.0000 -1.4805
# 5 11.1001 -7.7672 -15.5544 0.0000 29.8977 0.0000
# 6 0.0000 0.0000 0.0000 -1.4805 0.0000 8.3874
#
#
#
# Elastic Compliance Matrix: (Units=1/GPa)
#
#
# Indices 1 2 3 4 5 6 
#
# 1 0.018203 0.000526 -0.003987 0.000000 -0.008695 0.000000
# 2 0.000526 0.027137 0.001571 0.000000 0.007672 0.000000
# 3 -0.003987 0.001571 0.007325 0.000000 0.005699 0.000000
# 4 0.000000 0.000000 0.000000 0.086481 0.000000 0.015265
# 5 -0.008695 0.007672 0.005699 0.000000 0.041634 0.000000
# 6 0.000000 0.000000 0.000000 0.015265 0.000000 0.121921
#
#
# Mechanical properties :
#
#
# Convention : Reuss Voigt Hill
#
# Bulk Modulus (GPa) = 20.45581 34.02449 27.24015
# Shear Modulus (GPa) = 15.49076 27.00726 21.24901
#
# Velocity S-wave (km/s) = 2.80153 3.69912 3.28116
# Velocity P-wave (km/s) = 4.56387 5.95680 5.30624
#
# Compressibility (1/GPa) = 0.04888586
#
# Stress axis : x y z
#
# Youngs Moduli (GPa) = 54.93740 36.85049 136.52614
#
# Poissons Ratio (x) = -0.01940 0.54428
# Poissons Ratio (y) = -0.02892 -0.21451
# Poissons Ratio (z) = 0.21901 -0.05790
#
# Static dielectric constant tensor:
#      x y z
#    x 1.688760 0.000000 -0.013290 
#    y 0.000000 1.708470 0.000000 
#    z -0.013290 0.000000 1.776040 
# 
# From -- ./inp_files/10372.got.cif
#   From: 2010.05.17/outbox.cif.g08.bks.cpg/sg15_6_cif.got.tgz:10372.got - 2010.06.03 18:47:42.
