data_PCOD9279528
_publ_section_title
;
Structure prediction by ZEFSAII (Michael W. Deem and Ramdas Pophale) SiO2 
 PCOD9279528
Probable space group: C 2/C
;
_chemical_formula_sum "Si O2"
_cell_formula_units_Z 64
_cell_length_a 9.228401
_cell_length_b 29.291310
_cell_length_c 23.791637
_cell_angle_alpha 90.000000
_cell_angle_beta 149.414817
_cell_angle_gamma 90.000000
_cell_volume 3272.297137
_symmetry_space_group_name_H-M "C 2/C"
_symmetry_group_IT_number 15
_symmetry_cell_setting 'monoclinic'
loop_
_space_group_symop_operation_xyz
x,y,z
-x,y,1/2-z
-x,-y,-z
x,-y,1/2+z
1/2+x,1/2+y,z
1/2-x,1/2+y,1/2-z
1/2-x,1/2-y,-z
1/2+x,1/2-y,1/2+z
loop_
_atom_site_type_symbol
_atom_site_label
_atom_site_fract_x
_atom_site_fract_y
_atom_site_fract_z
Si Si1 0.799074 0.735971 0.815567
Si Si2 0.422381 0.496266 0.164582
Si Si3 0.385465 0.055087 0.027199
Si Si4 0.731711 0.856796 0.621869
Si Si5 0.810396 0.175316 0.024274
Si Si6 0.018314 0.724849 0.115412
Si Si7 0.666194 0.149292 0.359204
Si Si8 0.530747 0.047050 0.195378
O O1 0.500000 0.731732 0.750000
O O2 0.709131 0.743961 0.720337
O O3 0.993382 0.779819 0.897754
O O4 0.009221 0.693586 0.900162
O O5 0.500000 0.473784 0.250000
O O6 0.663807 0.530279 0.223199
O O7 0.153566 0.527620 0.090734
O O8 0.365759 0.459350 0.097819
O O9 0.478626 0.107927 0.052316
O O10 0.339090 0.037021 0.075544
O O11 0.784787 0.853914 0.572981
O O12 0.676335 0.804013 0.620302
O O13 0.000000 0.871402 0.750000
O O14 0.001014 0.146604 0.044033
O O15 0.894128 0.684765 0.112764
O O16 0.750000 0.750000 0.000000
O O17 0.500000 0.168123 0.250000
O O18 0.514964 0.101221 0.317827
O O19 0.500000 0.030845 0.250000
#
# Coordination Sequence:
#
# PCOD9279528 Si02
#       8
#     8   8   8   8   8   8   8   8
#     4  11  21  40  56  82 123 166 215 263 312 370
#     4   9  20  40  63  92 126 161 199 255 319 384
#     4  10  21  37  61  94 126 158 207 256 313 385
#     4  12  22  35  59  96 117 161 216 268 304 375
#     4  11  23  36  62  85 118 166 215 265 315 362
#     4  12  23  36  59  88 128 166 212 269 317 365
#     4  11  20  38  58  90 123 161 210 269 308 369
#     4  10  21  35  64  94 124 160 199 260 316 376
#
# _framework density 19.558126999999999
#
# number of rings (size 3 to 8) (size 9 to 14) (size 15 to 20)
#    0.000    1.250    5.000    1.875    7.000    0.500 
#    0.000    1.875    0.000    0.000    0.000    0.000 
#    0.000    0.000    0.000    0.000    0.000    0.000 
#
# Total GULP energy -178278.559037 kJ/mol
# GULP energy per Si atom -5571.204970 kJ/mol
# Density = 1.951361 g / cm^3
# Si number density = 19.558127 Si / 1000 Ang^3
#
#
#
# Elastic Constant Matrix: (Units=GPa)
#
#
# Indices 1 2 3 4 5 6 
#
# 1 87.0109 12.3200 28.4458 0.0046 -12.5500 0.0014
# 2 12.3200 52.5870 42.0857 0.0005 -7.1679 0.0002
# 3 28.4458 42.0857 113.1166 -0.0011 -10.7496 -0.0044
# 4 0.0046 0.0005 -0.0011 36.0691 -0.0011 9.4445
# 5 -12.5500 -7.1679 -10.7496 -0.0011 26.8624 -0.0023
# 6 0.0014 0.0002 -0.0044 9.4445 -0.0023 34.4656
#
#
#
# Elastic Compliance Matrix: (Units=1/GPa)
#
#
# Indices 1 2 3 4 5 6 
#
# 1 0.013141 -0.000190 -0.002760 -0.000002 0.004984 0.000000
# 2 -0.000190 0.027370 -0.009823 0.000000 0.003283 -0.000001
# 3 -0.002760 -0.009823 0.013324 0.000000 0.001421 0.000002
# 4 -0.000002 0.000000 0.000000 0.029868 0.000000 -0.008185
# 5 0.004984 0.003283 0.001421 0.000000 0.041000 0.000003
# 6 0.000000 -0.000001 0.000002 -0.008185 0.000003 0.031257
#
#
# Mechanical properties :
#
#
# Convention : Reuss Voigt Hill
#
# Bulk Modulus (GPa) = 35.35091 46.49084 40.92088
# Shear Modulus (GPa) = 26.18666 30.80363 28.49515
#
# Velocity S-wave (km/s) = 3.66309 3.97291 3.82114
# Velocity P-wave (km/s) = 6.00042 6.69832 6.35895
#
# Compressibility (1/GPa) = 0.02828781
#
# Stress axis : x y z
#
# Youngs Moduli (GPa) = 76.09772 36.53661 75.05034
#
# Poissons Ratio (x) = 0.00695 0.20715
# Poissons Ratio (y) = 0.01448 0.73724
# Poissons Ratio (z) = 0.21004 0.35891
#
# Static dielectric constant tensor:
#      x y z
#    x 1.764120 -0.000050 -0.175970 
#    y -0.000050 1.692070 -0.000100 
#    z -0.175970 -0.000100 1.412190 
# 
# From -- ./inp_files/266760.got.cif
#   From: 2010.05.17/outbox.cif.g08.bks.cpg/sg15_134_cif.got.tgz:266760.got - 2010.06.03 18:47:42.
