data_PCOD9279723
_publ_section_title
;
Structure prediction by ZEFSAII (Michael W. Deem and Ramdas Pophale) SiO2 
 PCOD9279723
Probable space group: C 2/C
;
_chemical_formula_sum "Si O2"
_cell_formula_units_Z 48
_cell_length_a 11.894356
_cell_length_b 7.660870
_cell_length_c 22.706214
_cell_angle_alpha 90.000000
_cell_angle_beta 87.901607
_cell_angle_gamma 90.000000
_cell_volume 2067.628100
_symmetry_space_group_name_H-M "C 2/C"
_symmetry_group_IT_number 15
_symmetry_cell_setting 'monoclinic'
loop_
_space_group_symop_operation_xyz
x,y,z
-x,y,1/2-z
-x,-y,-z
x,-y,1/2+z
1/2+x,1/2+y,z
1/2-x,1/2+y,1/2-z
1/2-x,1/2-y,-z
1/2+x,1/2-y,1/2+z
loop_
_atom_site_type_symbol
_atom_site_label
_atom_site_fract_x
_atom_site_fract_y
_atom_site_fract_z
Si Si1 0.847647 0.528413 0.021719
Si Si2 0.602034 0.251744 0.211032
Si Si3 0.447875 0.911195 0.907453
Si Si4 0.844773 0.631791 0.733645
Si Si5 0.094906 0.907298 0.536833
Si Si6 0.440920 0.245953 0.843716
O O1 0.717168 0.504280 0.035797
O O2 0.925483 0.530862 0.077980
O O3 0.889992 0.389883 0.972067
O O4 0.876609 0.719171 0.993513
O O5 0.500000 0.334965 0.250000
O O6 0.624608 0.061487 0.242176
O O7 0.562329 0.226715 0.144324
O O8 0.719748 0.350132 0.212368
O O9 0.390216 0.078542 0.878715
O O10 0.862233 0.763434 0.788624
O O11 0.938400 0.692150 0.685052
O O12 0.053091 0.884734 0.604618
O O13 0.000000 0.000000 0.500000
#
# Coordination Sequence:
#
# PCOD9279723 Si02
#       6
#     8   8   8   8   8   8
#     4   9  20  38  57  84 117 152 193 245 293 349
#     4  11  22  41  63  91 119 159 206 247 306 360
#     4   9  18  39  61  79 115 157 194 240 297 356
#     4  10  21  41  63  85 121 162 198 251 308 353
#     4  10  21  36  57  88 119 152 197 243 301 353
#     4   9  19  39  61  80 120 161 187 248 310 348
#
# _framework density 23.215008000000001
#
# number of rings (size 3 to 8) (size 9 to 14) (size 15 to 20)
#    0.000    2.333    3.333    0.000    4.667    0.000 
#    9.000    2.500    0.000    0.000    0.000    0.000 
#    0.000    0.000    0.000    0.000    0.000    0.000 
#
# Total GULP energy -133951.584286 kJ/mol
# GULP energy per Si atom -5581.316012 kJ/mol
# Density = 2.316217 g / cm^3
# Si number density = 23.215008 Si / 1000 Ang^3
#
#
#
# Elastic Constant Matrix: (Units=GPa)
#
#
# Indices 1 2 3 4 5 6 
#
# 1 112.3453 11.0777 32.2769 0.0000 5.5439 0.0000
# 2 11.0777 60.6053 21.2268 0.0000 -5.5618 0.0000
# 3 32.2769 21.2268 111.5109 0.0000 23.4954 0.0000
# 4 0.0000 0.0000 0.0000 9.8570 0.0000 5.2400
# 5 5.5439 -5.5618 23.4954 0.0000 26.3321 0.0000
# 6 0.0000 0.0000 0.0000 5.2400 0.0000 30.6522
#
#
#
# Elastic Compliance Matrix: (Units=1/GPa)
#
#
# Indices 1 2 3 4 5 6 
#
# 1 0.009750 -0.000817 -0.002707 0.000000 0.000190 0.000000
# 2 -0.000817 0.019353 -0.005351 0.000000 0.009034 0.000000
# 3 -0.002707 -0.005351 0.013409 0.000000 -0.012525 0.000000
# 4 0.000000 0.000000 0.000000 0.111592 0.000000 -0.019076
# 5 0.000190 0.009034 -0.012525 0.000000 0.051020 0.000000
# 6 0.000000 0.000000 0.000000 -0.019076 0.000000 0.035885
#
#
# Mechanical properties :
#
#
# Convention : Reuss Voigt Hill
#
# Bulk Modulus (GPa) = 40.38347 45.95825 43.17086
# Shear Modulus (GPa) = 18.72581 28.02693 23.37637
#
# Velocity S-wave (km/s) = 2.84320 3.47836 3.17669
# Velocity P-wave (km/s) = 5.31145 5.99764 5.66495
#
# Compressibility (1/GPa) = 0.02476261
#
# Stress axis : x y z
#
# Youngs Moduli (GPa) = 102.56493 51.67231 74.57831
#
# Poissons Ratio (x) = 0.04220 0.20186
# Poissons Ratio (y) = 0.08377 0.39907
# Poissons Ratio (z) = 0.27761 0.27650
#
# Static dielectric constant tensor:
#      x y z
#    x 1.855000 0.000000 0.024950 
#    y 0.000000 1.998700 0.000000 
#    z 0.024950 0.000000 1.912070 
# 
# From -- ./inp_files/236548.got.cif
#   From: 2010.05.17/outbox.cif.g08.bks.cpg/sg15_119_cif.got.tgz:236548.got - 2010.06.03 18:47:42.
