data_PCOD9279825
_publ_section_title
;
Structure prediction by ZEFSAII (Michael W. Deem and Ramdas Pophale) SiO2 
 PCOD9279825
Probable space group: C 2/C
;
_chemical_formula_sum "Si O2"
_cell_formula_units_Z 56
_cell_length_a 29.018605
_cell_length_b 10.884960
_cell_length_c 26.181374
_cell_angle_alpha 90.000000
_cell_angle_beta 19.456881
_cell_angle_gamma 90.000000
_cell_volume 2754.653620
_symmetry_space_group_name_H-M "C 2/C"
_symmetry_group_IT_number 15
_symmetry_cell_setting 'monoclinic'
loop_
_space_group_symop_operation_xyz
x,y,z
-x,y,1/2-z
-x,-y,-z
x,-y,1/2+z
1/2+x,1/2+y,z
1/2-x,1/2+y,1/2-z
1/2-x,1/2-y,-z
1/2+x,1/2-y,1/2+z
loop_
_atom_site_type_symbol
_atom_site_label
_atom_site_fract_x
_atom_site_fract_y
_atom_site_fract_z
Si Si1 0.847022 0.493780 0.136027
Si Si2 0.766310 0.623969 0.411274
Si Si3 0.296776 0.258853 0.163831
Si Si4 0.528863 0.007377 0.102235
Si Si5 0.501678 0.537311 0.307253
Si Si6 0.218390 0.393544 0.485792
Si Si7 0.929976 0.239339 0.179932
O O1 0.765692 0.379939 0.245086
O O2 0.782112 0.630244 0.209660
O O3 0.872017 0.473536 0.049710
O O4 0.000000 0.500000 0.000000
O O5 0.645837 0.525335 0.527037
O O6 0.815416 0.610867 0.418996
O O7 0.704569 0.760242 0.474461
O O8 0.901123 0.602112 0.236504
O O9 0.218648 0.236930 0.191523
O O10 0.457382 0.278992 0.982840
O O11 0.459205 0.874581 0.170514
O O12 0.619495 0.017173 0.058215
O O13 0.500000 0.582177 0.250000
O O14 0.622345 0.435311 0.183553
O O15 0.542714 0.640832 0.304731
#
# Coordination Sequence:
#
# PCOD9279825 Si02
#       7
#     8   8   8   8   8   8   8
#     4  11  24  45  65  98 127 163 219 265 321 387
#     4  10  21  38  61  87 127 166 202 251 314 364
#     4  11  23  46  70  88 132 167 207 271 319 384
#     4  11  22  39  64  88 122 159 210 255 304 380
#     4  10  21  36  59  91 122 157 210 248 294 382
#     4  10  21  39  58  91 127 163 201 256 311 364
#     4  11  23  42  65  88 126 168 200 256 329 361
#
# _framework density 20.329235000000001
#
# number of rings (size 3 to 8) (size 9 to 14) (size 15 to 20)
#    0.000    1.429    2.857    3.857    0.000    5.143 
#    2.571    3.571    0.000    0.000    0.000    0.000 
#    0.000    0.000    0.000    0.000    0.000    0.000 
#
# Total GULP energy -156448.669027 kJ/mol
# GULP energy per Si atom -5587.452465 kJ/mol
# Density = 2.028296 g / cm^3
# Si number density = 20.329235 Si / 1000 Ang^3
#
#
#
# Elastic Constant Matrix: (Units=GPa)
#
#
# Indices 1 2 3 4 5 6 
#
# 1 35.3306 23.3100 -17.4202 0.0006 -5.6016 -0.0002
# 2 23.3100 83.0701 -8.8700 -0.0015 15.1912 0.0000
# 3 -17.4202 -8.8700 42.4502 -0.0015 5.2794 0.0006
# 4 0.0006 -0.0015 -0.0015 27.1390 0.0007 1.7011
# 5 -5.6016 15.1912 5.2794 0.0007 22.6173 -0.0001
# 6 -0.0002 0.0000 0.0006 1.7011 -0.0001 34.4827
#
#
#
# Elastic Compliance Matrix: (Units=1/GPa)
#
#
# Indices 1 2 3 4 5 6 
#
# 1 0.048773 -0.015677 0.014344 -0.000002 0.019261 0.000000
# 2 -0.015677 0.019505 -0.000253 0.000002 -0.016925 0.000000
# 3 0.014344 -0.000253 0.029792 0.000001 -0.003232 -0.000001
# 4 -0.000002 0.000002 0.000001 0.036962 -0.000003 -0.001823
# 5 0.019261 -0.016925 -0.003232 -0.000003 0.061106 0.000001
# 6 0.000000 0.000000 -0.000001 -0.001823 0.000001 0.029090
#
#
# Mechanical properties :
#
#
# Convention : Reuss Voigt Hill
#
# Bulk Modulus (GPa) = 10.53747 17.21006 13.87377
# Shear Modulus (GPa) = 19.22830 27.76988 23.49909
#
# Velocity S-wave (km/s) = 3.07880 3.69996 3.40358
# Velocity P-wave (km/s) = 4.22295 5.17078 4.72072
#
# Compressibility (1/GPa) = 0.09489943
#
# Stress axis : x y z
#
# Youngs Moduli (GPa) = 20.50298 51.26871 33.56557
#
# Poissons Ratio (x) = 0.80373 -0.48146
# Poissons Ratio (y) = 0.32142 0.00849
# Poissons Ratio (z) = -0.29409 0.01296
#
# Static dielectric constant tensor:
#      x y z
#    x 1.729140 0.000000 0.018140 
#    y 0.000000 1.714090 0.000000 
#    z 0.018140 0.000000 1.710690 
# 
# From -- ./inp_files/304265.got.cif
#   From: 2010.05.17/outbox.cif.g08.bks.cpg/sg15_153_cif.got.tgz:304265.got - 2010.06.03 18:47:42.
