data_PCOD9279035
_publ_section_title
;
Structure prediction by ZEFSAII (Michael W. Deem and Ramdas Pophale) SiO2 
 PCOD9279035
Probable space group: C 2/C
;
_chemical_formula_sum "Si O2"
_cell_formula_units_Z 32
_cell_length_a 11.773499
_cell_length_b 13.932767
_cell_length_c 18.239701
_cell_angle_alpha 90.000000
_cell_angle_beta 30.613440
_cell_angle_gamma 90.000000
_cell_volume 1523.652649
_symmetry_space_group_name_H-M "C 2/C"
_symmetry_group_IT_number 15
_symmetry_cell_setting 'monoclinic'
loop_
_space_group_symop_operation_xyz
x,y,z
-x,y,1/2-z
-x,-y,-z
x,-y,1/2+z
1/2+x,1/2+y,z
1/2-x,1/2+y,1/2-z
1/2-x,1/2-y,-z
1/2+x,1/2-y,1/2+z
loop_
_atom_site_type_symbol
_atom_site_label
_atom_site_fract_x
_atom_site_fract_y
_atom_site_fract_z
Si Si1 0.268203 0.362703 0.472002
Si Si2 0.721308 0.156480 0.841058
Si Si3 0.677857 0.621651 0.398353
Si Si4 0.323980 0.076875 0.782845
O O1 0.250000 0.250000 0.500000
O O2 0.528019 0.381944 0.311396
O O3 0.143105 0.379645 0.464723
O O4 0.218826 0.405565 0.578894
O O5 0.742069 0.272306 0.836532
O O6 0.595681 0.125146 0.837580
O O7 0.411438 0.622160 0.559018
O O8 0.754457 0.533835 0.305939
O O9 0.500000 0.088636 0.750000
#
# Coordination Sequence:
#
# PCOD9279035 Si02
#       4
#     8   8   8   8
#     4   8  15  28  54  79  96 129 176 222 253 290
#     4   9  17  32  54  78 105 134 177 217 258 307
#     4   9  19  35  55  76 107 136 177 217 260 308
#     4  10  21  34  54  79 107 141 171 210 269 315
#
# _framework density 21.002161000000001
#
# number of rings (size 3 to 8) (size 9 to 14) (size 15 to 20)
#    0.000    3.000    0.000    0.000    7.000    1.000 
#    0.000    1.250   16.500    0.000    0.000    0.000 
#    0.000    0.000    0.000    0.000    0.000    0.000 
#
# Total GULP energy -89114.426061 kJ/mol
# GULP energy per Si atom -5569.651629 kJ/mol
# Density = 2.095436 g / cm^3
# Si number density = 21.002161 Si / 1000 Ang^3
#
#
#
# Elastic Constant Matrix: (Units=GPa)
#
#
# Indices 1 2 3 4 5 6 
#
# 1 172.6964 40.1287 35.9574 -0.0014 34.1975 0.0000
# 2 40.1287 62.2205 18.3029 -0.0042 27.1140 0.0010
# 3 35.9574 18.3029 61.4047 -0.0139 12.6576 0.0034
# 4 -0.0014 -0.0042 -0.0139 24.5455 0.0038 8.8864
# 5 34.1975 27.1140 12.6576 0.0038 36.6302 0.0000
# 6 0.0000 0.0010 0.0034 8.8864 0.0000 24.6182
#
#
#
# Elastic Compliance Matrix: (Units=1/GPa)
#
#
# Indices 1 2 3 4 5 6 
#
# 1 0.007839 -0.002123 -0.002986 -0.000001 -0.004716 0.000001
# 2 -0.002123 0.025114 -0.003036 0.000006 -0.015559 -0.000003
# 3 -0.002986 -0.003036 0.019274 0.000013 -0.001626 -0.000007
# 4 -0.000001 0.000006 0.000013 0.046865 -0.000013 -0.016917
# 5 -0.004716 -0.015559 -0.001626 -0.000013 0.043781 0.000005
# 6 0.000001 -0.000003 -0.000007 -0.016917 0.000005 0.046727
#
#
# Mechanical properties :
#
#
# Convention : Reuss Voigt Hill
#
# Bulk Modulus (GPa) = 27.82477 53.89997 40.86237
# Shear Modulus (GPa) = 22.94972 30.62093 26.78533
#
# Velocity S-wave (km/s) = 3.30924 3.82251 3.57509
# Velocity P-wave (km/s) = 5.28003 6.72323 6.04485
#
# Compressibility (1/GPa) = 0.03593920
#
# Stress axis : x y z
#
# Youngs Moduli (GPa) = 127.56417 39.81843 51.88419
#
# Poissons Ratio (x) = 0.08452 0.15491
# Poissons Ratio (y) = 0.27077 0.15750
# Poissons Ratio (z) = 0.38087 0.12087
#
# Static dielectric constant tensor:
#      x y z
#    x 1.871280 0.000000 0.030420 
#    y 0.000000 1.767030 0.000000 
#    z 0.030420 0.000000 1.838680 
# 
# From -- ./inp_files/75599.got.cif
#   From: 2010.05.17/outbox.cif.g08.bks.cpg/sg15_38_cif.got.tgz:75599.got - 2010.06.03 18:47:42.
