data_PCOD9279465
_publ_section_title
;
Structure prediction by ZEFSAII (Michael W. Deem and Ramdas Pophale) SiO2 
 PCOD9279465
Probable space group: C 2/C
;
_chemical_formula_sum "Si O2"
_cell_formula_units_Z 52
_cell_length_a 10.757666
_cell_length_b 12.504148
_cell_length_c 24.512924
_cell_angle_alpha 90.000000
_cell_angle_beta 45.783587
_cell_angle_gamma 90.000000
_cell_volume 2363.258727
_symmetry_space_group_name_H-M "C 2/C"
_symmetry_group_IT_number 15
_symmetry_cell_setting 'monoclinic'
loop_
_space_group_symop_operation_xyz
x,y,z
-x,y,1/2-z
-x,-y,-z
x,-y,1/2+z
1/2+x,1/2+y,z
1/2-x,1/2+y,1/2-z
1/2-x,1/2-y,-z
1/2+x,1/2-y,1/2+z
loop_
_atom_site_type_symbol
_atom_site_label
_atom_site_fract_x
_atom_site_fract_y
_atom_site_fract_z
Si Si1 0.806074 0.035234 0.398634
Si Si2 0.990287 0.805182 0.459354
Si Si3 0.355517 0.087405 0.452416
Si Si4 0.163775 0.713614 0.600758
Si Si5 0.892223 0.415351 0.138012
Si Si6 0.842012 0.071678 0.693214
Si Si7 0.500000 0.081539 0.750000
O O1 0.726657 0.995271 0.479666
O O2 0.700327 0.966007 0.386337
O O3 0.007688 0.005826 0.334023
O O4 0.805828 0.162464 0.396851
O O5 0.139553 0.830261 0.457498
O O6 0.066810 0.849499 0.378171
O O7 0.807215 0.860733 0.528681
O O8 0.945507 0.681938 0.459676
O O9 0.493410 0.018223 0.376695
O O10 0.035948 0.679211 0.590679
O O11 0.063731 0.659754 0.682178
O O12 0.743832 0.380653 0.225841
O O13 0.674910 0.021752 0.713873
#
# Coordination Sequence:
#
# PCOD9279465 Si02
#       7
#     8   8   8   8   8   8   4
#     4  11  22  38  60  90 125 163 200 258 310 371
#     4   9  19  40  61  84 117 164 206 254 310 377
#     4  10  21  38  62  86 122 164 203 252 317 367
#     4  10  21  35  61  86 119 160 210 253 312 374
#     4  11  22  35  59  94 120 157 210 255 302 382
#     4   9  20  36  63  85 118 157 206 253 310 367
#     4   8  18  38  58  84 114 158 206 252 310 376
#
# _framework density 22.003515
#
# number of rings (size 3 to 8) (size 9 to 14) (size 15 to 20)
#    0.000    2.154    1.538    0.923    2.154    2.462 
#    0.000    0.000   30.462    0.000    0.000    0.000 
#    0.000    0.000    0.000    0.000    0.000    0.000 
#
# Total GULP energy -144870.145561 kJ/mol
# GULP energy per Si atom -5571.928675 kJ/mol
# Density = 2.195343 g / cm^3
# Si number density = 22.003515 Si / 1000 Ang^3
#
#
#
# Elastic Constant Matrix: (Units=GPa)
#
#
# Indices 1 2 3 4 5 6 
#
# 1 114.0544 53.8351 24.7640 0.0000 -42.8380 0.0000
# 2 53.8351 46.4806 17.1272 0.0000 -15.5757 0.0000
# 3 24.7640 17.1272 75.9682 0.0000 -19.5660 0.0000
# 4 0.0000 0.0000 0.0000 21.2230 0.0000 -3.5214
# 5 -42.8380 -15.5757 -19.5660 0.0000 43.6742 0.0000
# 6 0.0000 0.0000 0.0000 -3.5214 0.0000 20.9922
#
#
#
# Elastic Compliance Matrix: (Units=1/GPa)
#
#
# Indices 1 2 3 4 5 6 
#
# 1 0.028198 -0.026997 0.001739 0.000000 0.018809 0.000000
# 2 -0.026997 0.051233 -0.005499 0.000000 -0.010672 0.000000
# 3 0.001739 -0.005499 0.015567 0.000000 0.006718 0.000000
# 4 0.000000 0.000000 0.000000 0.048468 0.000000 0.008130
# 5 0.018809 -0.010672 0.006718 0.000000 0.040549 0.000000
# 6 0.000000 0.000000 0.000000 0.008130 0.000000 0.049001
#
#
# Mechanical properties :
#
#
# Convention : Reuss Voigt Hill
#
# Bulk Modulus (GPa) = 29.86551 47.55064 38.70808
# Shear Modulus (GPa) = 16.35644 26.56299 21.45971
#
# Velocity S-wave (km/s) = 2.72941 3.47827 3.12634
# Velocity P-wave (km/s) = 4.85134 6.14724 5.53733
#
# Compressibility (1/GPa) = 0.03348343
#
# Stress axis : x y z
#
# Youngs Moduli (GPa) = 35.46406 19.51859 64.24009
#
# Poissons Ratio (x) = 0.52695 -0.11171
# Poissons Ratio (y) = 0.95743 0.35324
# Poissons Ratio (z) = -0.06167 0.10733
#
# Static dielectric constant tensor:
#      x y z
#    x 1.934170 0.000000 0.013420 
#    y 0.000000 1.803560 0.000000 
#    z 0.013420 0.000000 1.812960 
# 
# From -- ./inp_files/310755.got.cif
#   From: 2010.05.17/outbox.cif.g08.bks.cpg/sg15_156_cif.got.tgz:310755.got - 2010.06.03 18:47:42.
