data_PCOD9279856
_publ_section_title
;
Structure prediction by ZEFSAII (Michael W. Deem and Ramdas Pophale) SiO2 
 PCOD9279856
Probable space group: C 2/C
;
_chemical_formula_sum "Si O2"
_cell_formula_units_Z 64
_cell_length_a 21.514627
_cell_length_b 20.562768
_cell_length_c 11.972633
_cell_angle_alpha 90.000000
_cell_angle_beta 142.752749
_cell_angle_gamma 90.000000
_cell_volume 3205.856095
_symmetry_space_group_name_H-M "C 2/C"
_symmetry_group_IT_number 15
_symmetry_cell_setting 'monoclinic'
loop_
_space_group_symop_operation_xyz
x,y,z
-x,y,1/2-z
-x,-y,-z
x,-y,1/2+z
1/2+x,1/2+y,z
1/2-x,1/2+y,1/2-z
1/2-x,1/2-y,-z
1/2+x,1/2-y,1/2+z
loop_
_atom_site_type_symbol
_atom_site_label
_atom_site_fract_x
_atom_site_fract_y
_atom_site_fract_z
Si Si1 0.439610 0.951395 0.270342
Si Si2 0.224888 0.095347 0.532840
Si Si3 0.967996 0.598059 0.366923
Si Si4 0.438263 0.601818 0.388272
Si Si5 0.183848 0.663148 0.627447
Si Si6 0.917071 0.009325 0.035761
Si Si7 0.404707 0.303341 0.035602
Si Si8 0.760121 0.328025 0.530550
O O1 0.500000 0.928723 0.250000
O O2 0.325665 0.924614 0.111172
O O3 0.499460 0.923656 0.462595
O O4 0.435918 0.029691 0.266659
O O5 0.141092 0.117855 0.323860
O O6 0.257033 0.144745 0.675858
O O7 0.181252 0.032693 0.536725
O O8 0.873373 0.648376 0.229785
O O9 0.073146 0.626966 0.466003
O O10 0.535071 0.571584 0.461113
O O11 0.400272 0.544006 0.416623
O O12 0.448265 0.660662 0.488965
O O13 0.156653 0.739165 0.586992
O O14 0.247561 0.645253 0.607036
O O15 0.000000 0.988293 0.250000
O O16 0.500000 0.284755 0.250000
O O17 0.326502 0.345408 0.001927
O O18 0.750000 0.250000 0.500000
#
# Coordination Sequence:
#
# PCOD9279856 Si02
#       8
#     8   8   8   8   8   8   8   8
#     4  10  22  36  59  91 122 157 198 246 303 372
#     4  10  23  38  63  89 121 163 193 245 312 366
#     4  10  21  39  61  86 122 160 199 247 304 356
#     4  10  22  39  63  87 121 154 204 259 293 368
#     4  10  21  41  59  86 126 157 200 248 298 365
#     4   9  20  41  60  87 122 160 201 248 311 355
#     4  11  24  38  62  92 118 159 206 253 300 352
#     4  10  21  36  60  88 116 160 204 253 296 354
#
# _framework density 19.963464999999999
#
# number of rings (size 3 to 8) (size 9 to 14) (size 15 to 20)
#    0.000    2.000    0.000    3.000    5.250    3.500 
#    0.000    0.000    0.000    0.750    0.000    0.000 
#    0.000    0.000    0.000    0.000    0.000    0.000 
#
# Total GULP energy -178591.767684 kJ/mol
# GULP energy per Si atom -5580.992740 kJ/mol
# Density = 1.991803 g / cm^3
# Si number density = 19.963465 Si / 1000 Ang^3
#
#
#
# Elastic Constant Matrix: (Units=GPa)
#
#
# Indices 1 2 3 4 5 6 
#
# 1 91.6732 3.2035 2.9560 0.0000 0.7754 0.0000
# 2 3.2035 50.2489 25.2503 0.0000 -4.0540 0.0000
# 3 2.9560 25.2503 71.8695 0.0000 1.9738 0.0000
# 4 0.0000 0.0000 0.0000 18.5456 0.0000 -6.1188
# 5 0.7754 -4.0540 1.9738 0.0000 19.1581 0.0000
# 6 0.0000 0.0000 0.0000 -6.1188 0.0000 29.7036
#
#
#
# Elastic Compliance Matrix: (Units=1/GPa)
#
#
# Indices 1 2 3 4 5 6 
#
# 1 0.010942 -0.000636 -0.000211 0.000000 -0.000556 0.000000
# 2 -0.000636 0.024914 -0.008898 0.000000 0.006214 0.000000
# 3 -0.000211 -0.008898 0.017149 0.000000 -0.003641 0.000000
# 4 0.000000 0.000000 0.000000 0.057853 0.000000 0.011917
# 5 -0.000556 0.006214 -0.003641 0.000000 0.053910 0.000000
# 6 0.000000 0.000000 0.000000 0.011917 0.000000 0.036121
#
#
# Mechanical properties :
#
#
# Convention : Reuss Voigt Hill
#
# Bulk Modulus (GPa) = 29.83779 30.73458 30.28619
# Shear Modulus (GPa) = 21.59357 25.64026 23.61692
#
# Velocity S-wave (km/s) = 3.29242 3.58768 3.44322
# Velocity P-wave (km/s) = 5.42513 5.70884 5.56879
#
# Compressibility (1/GPa) = 0.03351455
#
# Stress axis : x y z
#
# Youngs Moduli (GPa) = 91.39047 40.13815 58.31300
#
# Poissons Ratio (x) = 0.02554 0.01232
# Poissons Ratio (y) = 0.05815 0.51885
# Poissons Ratio (z) = 0.01931 0.35713
#
# Static dielectric constant tensor:
#      x y z
#    x 1.738030 0.000000 0.003420 
#    y 0.000000 1.710070 0.000000 
#    z 0.003420 0.000000 1.695120 
# 
# From -- ./inp_files/114265.got.cif
#   From: 2010.05.17/outbox.cif.g08.bks.cpg/sg15_58_cif.got.tgz:114265.got - 2010.06.03 18:47:42.
