data_PCOD9279642
_publ_section_title
;
Structure prediction by ZEFSAII (Michael W. Deem and Ramdas Pophale) SiO2 
 PCOD9279642
Probable space group: C 2/C
;
_chemical_formula_sum "Si O2"
_cell_formula_units_Z 32
_cell_length_a 15.064457
_cell_length_b 18.949582
_cell_length_c 5.496892
_cell_angle_alpha 90.000000
_cell_angle_beta 59.603348
_cell_angle_gamma 90.000000
_cell_volume 1353.477982
_symmetry_space_group_name_H-M "C 2/C"
_symmetry_group_IT_number 15
_symmetry_cell_setting 'monoclinic'
loop_
_space_group_symop_operation_xyz
x,y,z
-x,y,1/2-z
-x,-y,-z
x,-y,1/2+z
1/2+x,1/2+y,z
1/2-x,1/2+y,1/2-z
1/2-x,1/2-y,-z
1/2+x,1/2-y,1/2+z
loop_
_atom_site_type_symbol
_atom_site_label
_atom_site_fract_x
_atom_site_fract_y
_atom_site_fract_z
Si Si1 0.055365 0.724469 0.415798
Si Si2 0.244568 0.675504 0.370271
Si Si3 0.376112 0.961131 0.394621
Si Si4 0.024891 0.880612 0.970457
O O1 0.170427 0.695161 0.248711
O O2 0.000000 0.698104 0.250000
O O3 0.046620 0.809558 0.426439
O O4 0.000000 0.705869 0.750000
O O5 0.250000 0.750000 0.500000
O O6 0.181086 0.612110 0.580245
O O7 0.358742 0.647314 0.177569
O O8 0.500000 0.954048 0.250000
O O9 0.347591 0.989217 0.704764
O O10 0.000000 0.915694 0.750000
O O11 0.000000 0.921242 0.250000
#
# Coordination Sequence:
#
# PCOD9279642 Si02
#       4
#     8   8   8   8
#     4  10  21  36  55  94 139 165 212 286 355 397
#     4  12  23  42  75 107 134 190 240 301 350 411
#     4  10  25  49  70 100 144 190 231 286 358 434
#     4  10  22  38  55  96 142 168 216 290 355 403
#
# _framework density 23.642795
#
# number of rings (size 3 to 8) (size 9 to 14) (size 15 to 20)
#    0.000    1.500    5.000    0.750    0.000   13.000 
#    0.000    0.000    0.000    4.500    0.000    0.000 
#    0.000    0.000    0.000    0.000    0.000    0.000 
#
# Total GULP energy -89341.568030 kJ/mol
# GULP energy per Si atom -5583.848002 kJ/mol
# Density = 2.358898 g / cm^3
# Si number density = 23.642795 Si / 1000 Ang^3
#
#
#
# Elastic Constant Matrix: (Units=GPa)
#
#
# Indices 1 2 3 4 5 6 
#
# 1 157.5361 38.5680 71.3032 0.0000 27.5291 0.0000
# 2 38.5680 104.7614 30.0766 0.0000 1.2495 0.0000
# 3 71.3032 30.0766 136.0639 0.0000 42.0038 0.0000
# 4 0.0000 0.0000 0.0000 -29.8705 0.0000 85.3920
# 5 27.5291 1.2495 42.0038 0.0000 47.6316 0.0000
# 6 0.0000 0.0000 0.0000 85.3920 0.0000 -252.6262
#
#
#
# Elastic Compliance Matrix: (Units=1/GPa)
#
#
# Indices 1 2 3 4 5 6 
#
# 1 0.008829 -0.002209 -0.003546 0.000000 -0.001917 0.000000
# 2 -0.002209 0.010942 -0.002153 0.000000 0.002888 0.000000
# 3 -0.003546 -0.002153 0.012413 0.000000 -0.008840 0.000000
# 4 0.000000 0.000000 0.000000 -0.993516 0.000000 -0.335826
# 5 -0.001917 0.002888 -0.008840 0.000000 0.029822 0.000000
# 6 0.000000 0.000000 0.000000 -0.335826 0.000000 -0.117473
#
#
# Mechanical properties :
#
#
# Convention : Reuss Voigt Hill
#
# Bulk Modulus (GPa) = 61.09727 75.36189 68.22958
# Shear Modulus (GPa) = -4.86518 -29.74544 -17.30531
#
# Velocity S-wave (km/s) = -1.43605 -3.55084 -2.70839
# Velocity P-wave (km/s) = 4.81126 3.89012 4.37500
#
# Compressibility (1/GPa) = 0.01636734
#
# Stress axis : x y z
#
# Youngs Moduli (GPa) = 113.26497 91.38742 80.56215
#
# Poissons Ratio (x) = 0.20190 0.28571
# Poissons Ratio (y) = 0.25024 0.17342
# Poissons Ratio (z) = 0.40169 0.19672
#
# Static dielectric constant tensor:
#      x y z
#    x 1.925680 0.000000 0.042600 
#    y 0.000000 1.886930 0.000000 
#    z 0.042600 0.000000 2.049840 
# 
# From -- ./inp_files/6495.got.cif
#   From: 2010.05.17/outbox.cif.g08.bks.cpg/sg15_4_cif.got.tgz:6495.got - 2010.06.03 18:47:42.
