data_PCOD9279780
_publ_section_title
;
Structure prediction by ZEFSAII (Michael W. Deem and Ramdas Pophale) SiO2 
 PCOD9279780
Probable space group: C 2/C
;
_chemical_formula_sum "Si O2"
_cell_formula_units_Z 60
_cell_length_a 22.545098
_cell_length_b 17.705332
_cell_length_c 8.254868
_cell_angle_alpha 90.000000
_cell_angle_beta 120.835722
_cell_angle_gamma 90.000000
_cell_volume 2829.291525
_symmetry_space_group_name_H-M "C 2/C"
_symmetry_group_IT_number 15
_symmetry_cell_setting 'monoclinic'
loop_
_space_group_symop_operation_xyz
x,y,z
-x,y,1/2-z
-x,-y,-z
x,-y,1/2+z
1/2+x,1/2+y,z
1/2-x,1/2+y,1/2-z
1/2-x,1/2-y,-z
1/2+x,1/2-y,1/2+z
loop_
_atom_site_type_symbol
_atom_site_label
_atom_site_fract_x
_atom_site_fract_y
_atom_site_fract_z
Si Si1 0.132312 0.241028 0.864500
Si Si2 0.090266 0.083239 0.665490
Si Si3 0.378670 0.882065 0.479051
Si Si4 0.170479 0.600481 0.943492
Si Si5 0.448546 0.966459 0.061289
Si Si6 0.242919 0.683184 0.280977
Si Si7 0.746661 0.554435 0.952663
Si Si8 0.500000 0.467344 0.750000
O O1 0.093203 0.166970 0.748043
O O2 0.184134 0.270309 0.795743
O O3 0.091475 0.311395 0.881661
O O4 0.183849 0.221092 0.084959
O O5 0.170343 0.056417 0.770031
O O6 0.050501 0.022932 0.721379
O O7 0.048247 0.080612 0.438658
O O8 0.374699 0.883094 0.278986
O O9 0.299239 0.895927 0.419185
O O10 0.418378 0.956289 0.594814
O O11 0.120757 0.583252 0.031183
O O12 0.218421 0.668769 0.065811
O O13 0.218304 0.527174 0.978640
O O14 0.500000 0.922917 0.250000
O O15 0.500000 0.000000 0.000000
O O16 0.254461 0.600710 0.380871
#
# Coordination Sequence:
#
# PCOD9279780 Si02
#       8
#     8   8   8   8   8   8   8   4
#     4   9  20  40  60  81 122 163 189 242 317 366
#     4  10  22  43  65  88 119 156 202 257 320 364
#     4  10  21  36  58  93 119 158 209 242 291 363
#     4  11  21  33  58  97 121 150 214 254 287 348
#     4  11  22  38  58  85 127 167 201 247 289 342
#     4   9  19  36  57  88 121 156 193 249 305 361
#     4   9  19  34  62  89 120 157 198 255 310 343
#     4  10  24  42  66  94 114 148 208 266 300 378
#
# _framework density 21.206721999999999
#
# number of rings (size 3 to 8) (size 9 to 14) (size 15 to 20)
#    0.000    2.133    1.333    2.400    9.333    0.533 
#    1.200    2.667    1.467    0.000    0.000    0.000 
#    0.000    0.000    0.000    0.000    0.000    0.000 
#
# Total GULP energy -167112.480681 kJ/mol
# GULP energy per Si atom -5570.416023 kJ/mol
# Density = 2.115845 g / cm^3
# Si number density = 21.206722 Si / 1000 Ang^3
#
#
#
# Elastic Constant Matrix: (Units=GPa)
#
#
# Indices 1 2 3 4 5 6 
#
# 1 71.5970 8.2007 9.4064 0.0000 16.2599 0.0000
# 2 8.2007 86.4798 29.0434 0.0000 12.1138 0.0000
# 3 9.4064 29.0434 100.0924 0.0000 21.6402 0.0000
# 4 0.0000 0.0000 0.0000 20.7942 0.0000 -0.1663
# 5 16.2599 12.1138 21.6402 0.0000 27.0914 0.0000
# 6 0.0000 0.0000 0.0000 -0.1663 0.0000 14.6425
#
#
#
# Elastic Compliance Matrix: (Units=1/GPa)
#
#
# Indices 1 2 3 4 5 6 
#
# 1 0.016223 -0.000375 0.000789 0.000000 -0.010200 0.000000
# 2 -0.000375 0.013075 -0.003074 0.000000 -0.003166 0.000000
# 3 0.000789 -0.003074 0.012829 0.000000 -0.009347 0.000000
# 4 0.000000 0.000000 0.000000 0.048095 0.000000 0.000546
# 5 -0.010200 -0.003166 -0.009347 0.000000 0.051916 0.000000
# 6 0.000000 0.000000 0.000000 0.000546 0.000000 0.068300
#
#
# Mechanical properties :
#
#
# Convention : Reuss Voigt Hill
#
# Bulk Modulus (GPa) = 27.16816 39.05225 33.11021
# Shear Modulus (GPa) = 21.92730 26.60685 24.26707
#
# Velocity S-wave (km/s) = 3.21904 3.54594 3.38644
# Velocity P-wave (km/s) = 5.16287 5.93464 5.56215
#
# Compressibility (1/GPa) = 0.03680779
#
# Stress axis : x y z
#
# Youngs Moduli (GPa) = 61.64221 76.48283 77.94540
#
# Poissons Ratio (x) = 0.02866 -0.06153
# Poissons Ratio (y) = 0.02310 0.23962
# Poissons Ratio (z) = -0.04866 0.23512
#
# Static dielectric constant tensor:
#      x y z
#    x 1.819970 0.000000 -0.043640 
#    y 0.000000 1.777270 0.000000 
#    z -0.043640 0.000000 1.822040 
# 
# From -- ./inp_files/57052.got.cif
#   From: 2010.05.17/outbox.cif.g08.bks.cpg/sg15_29_cif.got.tgz:57052.got - 2010.06.03 18:47:42.
