data_PCOD9279083
_publ_section_title
;
Structure prediction by ZEFSAII (Michael W. Deem and Ramdas Pophale) SiO2 
 PCOD9279083
Probable space group: C 2/C
;
_chemical_formula_sum "Si O2"
_cell_formula_units_Z 40
_cell_length_a 14.313278
_cell_length_b 12.731961
_cell_length_c 19.178555
_cell_angle_alpha 90.000000
_cell_angle_beta 153.840801
_cell_angle_gamma 90.000000
_cell_volume 1540.840468
_symmetry_space_group_name_H-M "C 2/C"
_symmetry_group_IT_number 15
_symmetry_cell_setting 'monoclinic'
loop_
_space_group_symop_operation_xyz
x,y,z
-x,y,1/2-z
-x,-y,-z
x,-y,1/2+z
1/2+x,1/2+y,z
1/2-x,1/2+y,1/2-z
1/2-x,1/2-y,-z
1/2+x,1/2-y,1/2+z
loop_
_atom_site_type_symbol
_atom_site_label
_atom_site_fract_x
_atom_site_fract_y
_atom_site_fract_z
Si Si1 0.237079 0.663882 0.379165
Si Si2 0.211310 0.118913 0.343947
Si Si3 0.263589 0.942277 0.097504
Si Si4 0.935889 0.243774 0.383991
Si Si5 0.999031 0.918692 0.328821
O O1 0.250107 0.542634 0.360139
O O2 0.294273 0.745980 0.358262
O O3 0.420587 0.666269 0.561104
O O4 0.000000 0.669297 0.250000
O O5 0.191448 0.203553 0.268019
O O6 0.422937 0.152021 0.526780
O O7 0.000000 0.132457 0.250000
O O8 0.196781 0.001489 0.301020
O O9 0.500000 0.902681 0.250000
O O10 0.190953 0.998641 0.976706
O O11 0.102606 0.851338 0.005455
O O12 0.000000 0.883141 0.250000
#
# Coordination Sequence:
#
# PCOD9279083 Si02
#       5
#     8   8   8   8   8
#     4   9  19  37  59  79 106 155 196 226 264 327
#     4  10  21  34  56  85 120 145 175 232 292 342
#     4   8  16  30  55  78 103 143 183 223 274 324
#     4  11  20  35  56  83 115 148 188 224 281 340
#     4   8  16  32  54  83 111 139 181 233 282 320
#
# _framework density 25.959857
#
# number of rings (size 3 to 8) (size 9 to 14) (size 15 to 20)
#    1.200    1.600    0.000    1.800    0.000    3.200 
#    0.000    3.000    0.000    8.400    0.000    0.000 
#    0.000    0.000    0.000    0.000    0.000    0.000 
#
# Total GULP energy -111539.544455 kJ/mol
# GULP energy per Si atom -5576.977223 kJ/mol
# Density = 2.590077 g / cm^3
# Si number density = 25.959857 Si / 1000 Ang^3
#
#
#
# Elastic Constant Matrix: (Units=GPa)
#
#
# Indices 1 2 3 4 5 6 
#
# 1 110.4975 3.1470 17.2738 0.0003 -6.9669 -0.0003
# 2 3.1470 65.8818 26.6136 0.0018 -8.0695 0.0002
# 3 17.2738 26.6136 66.8146 0.0043 -0.3404 0.0004
# 4 0.0003 0.0018 0.0043 32.6054 -0.0001 -7.9027
# 5 -6.9669 -8.0695 -0.3404 -0.0001 31.2088 -0.0005
# 6 -0.0003 0.0002 0.0004 -7.9027 -0.0005 34.9569
#
#
#
# Elastic Compliance Matrix: (Units=1/GPa)
#
#
# Indices 1 2 3 4 5 6 
#
# 1 0.009620 0.000990 -0.002869 0.000000 0.002372 0.000000
# 2 0.000990 0.018876 -0.007749 0.000000 0.005017 0.000000
# 3 -0.002869 -0.007749 0.018783 -0.000002 -0.002439 -0.000001
# 4 0.000000 0.000000 -0.000002 0.032448 0.000000 0.007335
# 5 0.002372 0.005017 -0.002439 0.000000 0.033842 0.000001
# 6 0.000000 0.000000 -0.000001 0.007335 0.000001 0.030265
#
#
# Mechanical properties :
#
#
# Convention : Reuss Voigt Hill
#
# Bulk Modulus (GPa) = 35.68603 37.47363 36.57983
# Shear Modulus (GPa) = 28.99698 32.83153 30.91426
#
# Velocity S-wave (km/s) = 3.34577 3.56013 3.45461
# Velocity P-wave (km/s) = 5.35743 5.60053 5.48032
#
# Compressibility (1/GPa) = 0.02802217
#
# Stress axis : x y z
#
# Youngs Moduli (GPa) = 103.95114 52.97647 53.24000
#
# Poissons Ratio (x) = -0.05245 0.15277
# Poissons Ratio (y) = -0.10293 0.41257
# Poissons Ratio (z) = 0.29827 0.41053
#
# Static dielectric constant tensor:
#      x y z
#    x 2.167170 0.000000 -0.000810 
#    y 0.000000 2.110160 0.000000 
#    z -0.000810 0.000000 2.038910 
# 
# From -- ./inp_files/274748.got.cif
#   From: 2010.05.17/outbox.cif.g08.bks.cpg/sg15_138_cif.got.tgz:274748.got - 2010.06.03 18:47:42.
