data_PCOD9279499
_publ_section_title
;
Structure prediction by ZEFSAII (Michael W. Deem and Ramdas Pophale) SiO2 
 PCOD9279499
Probable space group: C 2/C
;
_chemical_formula_sum "Si O2"
_cell_formula_units_Z 56
_cell_length_a 15.102181
_cell_length_b 12.567173
_cell_length_c 13.220099
_cell_angle_alpha 90.000000
_cell_angle_beta 65.041449
_cell_angle_gamma 90.000000
_cell_volume 2274.751965
_symmetry_space_group_name_H-M "C 2/C"
_symmetry_group_IT_number 15
_symmetry_cell_setting 'monoclinic'
loop_
_space_group_symop_operation_xyz
x,y,z
-x,y,1/2-z
-x,-y,-z
x,-y,1/2+z
1/2+x,1/2+y,z
1/2-x,1/2+y,1/2-z
1/2-x,1/2-y,-z
1/2+x,1/2-y,1/2+z
loop_
_atom_site_type_symbol
_atom_site_label
_atom_site_fract_x
_atom_site_fract_y
_atom_site_fract_z
Si Si1 0.731558 0.624837 0.842798
Si Si2 0.436838 0.193810 0.371669
Si Si3 0.232887 0.890760 0.922809
Si Si4 0.048784 0.242982 0.024972
Si Si5 0.302886 0.465757 0.358012
Si Si6 0.086060 0.520324 0.536024
Si Si7 0.629627 0.319356 0.766312
O O1 0.763479 0.512263 0.876213
O O2 0.639503 0.671371 0.947975
O O3 0.694398 0.600323 0.746641
O O4 0.816694 0.712649 0.797160
O O5 0.500000 0.240612 0.250000
O O6 0.320583 0.189777 0.408035
O O7 0.481417 0.233035 0.457203
O O8 0.446201 0.064733 0.365980
O O9 0.183210 0.847785 0.846461
O O10 0.163493 0.909961 0.054135
O O11 0.089015 0.354486 0.047756
O O12 0.980735 0.196355 0.144962
O O13 0.187924 0.483990 0.436922
O O14 0.351546 0.579509 0.313977
O O15 0.000000 0.500000 0.500000
#
# Coordination Sequence:
#
# PCOD9279499 Si02
#       7
#     8   8   8   8   8   8   8
#     4  11  23  41  69  93 134 175 216 271 339 387
#     4  10  21  35  62  93 128 159 217 280 323 373
#     4  10  24  41  62  96 130 174 222 269 327 401
#     4  11  23  39  62  96 125 169 223 265 319 404
#     4  10  22  42  62  89 131 173 208 270 330 388
#     4   9  18  36  59  85 120 159 212 265 318 372
#     4  11  23  41  66  90 133 174 216 268 339 384
#
# _framework density 24.618069999999999
#
# number of rings (size 3 to 8) (size 9 to 14) (size 15 to 20)
#    0.000    1.714    1.429    3.429    8.000    6.286 
#    0.000    2.143    0.000    0.000    0.000    0.000 
#    0.000    0.000    0.000    0.000    0.000    0.000 
#
# Total GULP energy -156550.311739 kJ/mol
# GULP energy per Si atom -5591.082562 kJ/mol
# Density = 2.456204 g / cm^3
# Si number density = 24.618070 Si / 1000 Ang^3
#
#
#
# Elastic Constant Matrix: (Units=GPa)
#
#
# Indices 1 2 3 4 5 6 
#
# 1 71.5995 22.7388 38.1682 0.0000 -4.0504 0.0000
# 2 22.7388 113.4177 52.7671 0.0000 -1.0429 0.0000
# 3 38.1682 52.7671 166.2404 0.0000 -12.0317 0.0000
# 4 0.0000 0.0000 0.0000 41.7439 0.0000 1.6591
# 5 -4.0504 -1.0429 -12.0317 0.0000 51.5652 0.0000
# 6 0.0000 0.0000 0.0000 1.6591 0.0000 29.3070
#
#
#
# Elastic Compliance Matrix: (Units=1/GPa)
#
#
# Indices 1 2 3 4 5 6 
#
# 1 0.016229 -0.001798 -0.003118 0.000000 0.000511 0.000000
# 2 -0.001798 0.010560 -0.002984 0.000000 -0.000624 0.000000
# 3 -0.003118 -0.002984 0.007788 0.000000 0.001512 0.000000
# 4 0.000000 0.000000 0.000000 0.024010 0.000000 -0.001359
# 5 0.000511 -0.000624 0.001512 0.000000 0.019773 0.000000
# 6 0.000000 0.000000 0.000000 -0.001359 0.000000 0.034198
#
#
# Mechanical properties :
#
#
# Convention : Reuss Voigt Hill
#
# Bulk Modulus (GPa) = 53.26099 64.28953 58.77526
# Shear Modulus (GPa) = 37.14203 40.36213 38.75208
#
# Velocity S-wave (km/s) = 3.88845 4.05351 3.97184
# Velocity P-wave (km/s) = 6.46854 6.93393 6.70527
#
# Compressibility (1/GPa) = 0.01877547
#
# Stress axis : x y z
#
# Youngs Moduli (GPa) = 61.61855 94.69557 128.40239
#
# Poissons Ratio (x) = 0.17028 0.40040
# Poissons Ratio (y) = 0.11080 0.38318
# Poissons Ratio (z) = 0.19215 0.28260
#
# Static dielectric constant tensor:
#      x y z
#    x 1.966370 0.000000 0.105520 
#    y 0.000000 2.045340 0.000000 
#    z 0.105520 0.000000 1.817980 
# 
# From -- ./inp_files/161245.got.cif
#   From: 2010.05.17/outbox.cif.g08.bks.cpg/sg15_81_cif.got.tgz:161245.got - 2010.06.03 18:47:42.
