data_PCOD9279956
_publ_section_title
;
Structure prediction by ZEFSAII (Michael W. Deem and Ramdas Pophale) SiO2 
 PCOD9279956
Probable space group: C 2/C
;
_chemical_formula_sum "Si O2"
_cell_formula_units_Z 40
_cell_length_a 9.339397
_cell_length_b 5.355728
_cell_length_c 31.693979
_cell_angle_alpha 90.000000
_cell_angle_beta 113.035006
_cell_angle_gamma 90.000000
_cell_volume 1458.906542
_symmetry_space_group_name_H-M "C 2/C"
_symmetry_group_IT_number 15
_symmetry_cell_setting 'monoclinic'
loop_
_space_group_symop_operation_xyz
x,y,z
-x,y,1/2-z
-x,-y,-z
x,-y,1/2+z
1/2+x,1/2+y,z
1/2-x,1/2+y,1/2-z
1/2-x,1/2-y,-z
1/2+x,1/2-y,1/2+z
loop_
_atom_site_type_symbol
_atom_site_label
_atom_site_fract_x
_atom_site_fract_y
_atom_site_fract_z
Si Si1 0.945719 0.633139 0.536759
Si Si2 0.719899 0.460838 0.571738
Si Si3 0.277318 0.035054 0.383259
Si Si4 0.422293 0.622829 0.784943
Si Si5 0.363799 0.123865 0.804138
O O1 0.034431 0.898572 0.549489
O O2 0.038759 0.488981 0.585114
O O3 0.000000 0.500000 0.500000
O O4 0.772373 0.570738 0.532445
O O5 0.762330 0.685011 0.608302
O O6 0.783795 0.189707 0.593935
O O7 0.265188 0.959734 0.333260
O O8 0.500000 0.557218 0.750000
O O9 0.474655 0.892560 0.806886
O O10 0.241193 0.660171 0.750151
O O11 0.435728 0.396778 0.819042
#
# Coordination Sequence:
#
# PCOD9279956 Si02
#       5
#     8   8   8   8   8
#     4  10  24  43  65  94 127 170 216 267 327 391
#     4  10  24  40  65  91 126 169 211 265 324 384
#     4  10  24  39  63  91 127 166 213 266 320 388
#     4  10  21  36  62  86 120 159 196 249 305 372
#     4  10  21  39  57  89 120 153 206 245 308 372
#
# _framework density 27.417798000000001
#
# number of rings (size 3 to 8) (size 9 to 14) (size 15 to 20)
#    1.200    0.800    0.000    2.400    2.800    4.800 
#    0.000    0.000    0.000    0.000    0.000    0.000 
#    0.000    0.000    0.000    0.000    0.000    0.000 
#
# Total GULP energy -111676.444235 kJ/mol
# GULP energy per Si atom -5583.822212 kJ/mol
# Density = 2.735539 g / cm^3
# Si number density = 27.417798 Si / 1000 Ang^3
#
#
#
# Elastic Constant Matrix: (Units=GPa)
#
#
# Indices 1 2 3 4 5 6 
#
# 1 94.6559 42.0839 20.1591 0.0000 -30.0332 0.0000
# 2 42.0839 220.2562 39.7623 0.0000 -24.8830 0.0000
# 3 20.1591 39.7623 103.1016 0.0000 -9.8034 0.0000
# 4 0.0000 0.0000 0.0000 48.9571 0.0000 -14.5302
# 5 -30.0332 -24.8830 -9.8034 0.0000 51.1929 0.0000
# 6 0.0000 0.0000 0.0000 -14.5302 0.0000 46.4414
#
#
#
# Elastic Compliance Matrix: (Units=1/GPa)
#
#
# Indices 1 2 3 4 5 6 
#
# 1 0.013812 -0.001585 -0.001418 0.000000 0.007061 0.000000
# 2 -0.001585 0.005282 -0.001601 0.000000 0.001331 0.000000
# 3 -0.001418 -0.001601 0.010634 0.000000 0.000427 0.000000
# 4 0.000000 0.000000 0.000000 0.022517 0.000000 0.007045
# 5 0.007061 0.001331 0.000427 0.000000 0.024405 0.000000
# 6 0.000000 0.000000 0.000000 0.007045 0.000000 0.023737
#
#
# Mechanical properties :
#
#
# Convention : Reuss Voigt Hill
#
# Bulk Modulus (GPa) = 48.73115 69.11379 58.92247
# Shear Modulus (GPa) = 42.94254 50.38553 46.66403
#
# Velocity S-wave (km/s) = 3.96185 4.29148 4.12996
# Velocity P-wave (km/s) = 6.22419 7.05820 6.65427
#
# Compressibility (1/GPa) = 0.02052076
#
# Stress axis : x y z
#
# Youngs Moduli (GPa) = 72.40253 189.30753 94.03561
#
# Poissons Ratio (x) = 0.30012 0.13332
# Poissons Ratio (y) = 0.11478 0.15052
# Poissons Ratio (z) = 0.10265 0.30302
#
# Static dielectric constant tensor:
#      x y z
#    x 2.310330 0.000000 0.128610 
#    y 0.000000 2.150190 0.000000 
#    z 0.128610 0.000000 2.146740 
# 
# From -- ./inp_files/309477.got.cif
#   From: 2010.05.17/outbox.cif.g08.bks.cpg/sg15_155_cif.got.tgz:309477.got - 2010.06.03 18:47:42.
