data_PCOD9279816
_publ_section_title
;
Structure prediction by ZEFSAII (Michael W. Deem and Ramdas Pophale) SiO2 
 PCOD9279816
Probable space group: C 2/C
;
_chemical_formula_sum "Si O2"
_cell_formula_units_Z 48
_cell_length_a 16.957853
_cell_length_b 8.789062
_cell_length_c 14.945020
_cell_angle_alpha 90.000000
_cell_angle_beta 89.654912
_cell_angle_gamma 90.000000
_cell_volume 2227.419502
_symmetry_space_group_name_H-M "C 2/C"
_symmetry_group_IT_number 15
_symmetry_cell_setting 'monoclinic'
loop_
_space_group_symop_operation_xyz
x,y,z
-x,y,1/2-z
-x,-y,-z
x,-y,1/2+z
1/2+x,1/2+y,z
1/2-x,1/2+y,1/2-z
1/2-x,1/2-y,-z
1/2+x,1/2-y,1/2+z
loop_
_atom_site_type_symbol
_atom_site_label
_atom_site_fract_x
_atom_site_fract_y
_atom_site_fract_z
Si Si1 0.014885 0.736183 0.049000
Si Si2 0.500000 0.812809 0.250000
Si Si3 0.364155 0.432281 0.762146
Si Si4 0.267703 0.916140 0.885762
Si Si5 0.336555 0.412229 0.438291
Si Si6 0.000000 0.179315 0.750000
Si Si7 0.920529 0.423249 0.421014
O O1 0.073829 0.875449 0.030586
O O2 0.063543 0.582046 0.027586
O O3 0.000388 0.736871 0.155170
O O4 0.937826 0.715295 0.988712
O O5 0.577682 0.708256 0.256716
O O6 0.482550 0.903830 0.340083
O O7 0.290663 0.426390 0.697113
O O8 0.336984 0.455822 0.864563
O O9 0.421857 0.576014 0.746950
O O10 0.305655 0.746108 0.892389
O O11 0.334793 0.045451 0.881345
O O12 0.218107 0.940174 0.976658
#
# Coordination Sequence:
#
# PCOD9279816 Si02
#       7
#     8   4   8   8   8   4   8
#     4   9  18  38  59  84 114 158 200 240 289 361
#     4  11  23  38  58  88 123 159 198 248 294 355
#     4  10  22  38  60  86 118 161 200 241 300 357
#     4  10  21  39  60  91 120 158 196 254 299 351
#     4   9  20  40  61  83 122 163 197 240 307 356
#     4   9  19  38  60  82 115 161 198 236 296 355
#     4  10  21  36  59  90 115 154 201 243 298 347
#
# _framework density 21.549600000000002
#
# number of rings (size 3 to 8) (size 9 to 14) (size 15 to 20)
#    0.000    2.333    0.000    1.500    2.333    2.667 
#    9.000    6.667    0.000    0.000    0.000    0.000 
#    0.000    0.000    0.000    0.000    0.000    0.000 
#
# Total GULP energy -133917.688547 kJ/mol
# GULP energy per Si atom -5579.903689 kJ/mol
# Density = 2.150055 g / cm^3
# Si number density = 21.549600 Si / 1000 Ang^3
#
#
#
# Elastic Constant Matrix: (Units=GPa)
#
#
# Indices 1 2 3 4 5 6 
#
# 1 89.6814 36.1501 44.6887 0.0000 16.0451 0.0000
# 2 36.1501 57.6301 39.0495 0.0000 5.3722 0.0000
# 3 44.6887 39.0495 94.5236 0.0000 -4.5581 0.0000
# 4 0.0000 0.0000 0.0000 43.0055 0.0000 -5.4629
# 5 16.0451 5.3722 -4.5581 0.0000 45.8872 0.0000
# 6 0.0000 0.0000 0.0000 -5.4629 0.0000 25.3347
#
#
#
# Elastic Compliance Matrix: (Units=1/GPa)
#
#
# Indices 1 2 3 4 5 6 
#
# 1 0.017898 -0.006564 -0.006044 0.000000 -0.006090 0.000000
# 2 -0.006564 0.027193 -0.008213 0.000000 -0.001704 0.000000
# 3 -0.006044 -0.008213 0.017060 0.000000 0.004769 0.000000
# 4 0.000000 0.000000 0.000000 0.023908 0.000000 0.005155
# 5 -0.006090 -0.001704 0.004769 0.000000 0.024595 0.000000
# 6 0.000000 0.000000 0.000000 0.005155 0.000000 0.040583
#
#
# Mechanical properties :
#
#
# Convention : Reuss Voigt Hill
#
# Bulk Modulus (GPa) = 48.75798 53.51242 51.13520
# Shear Modulus (GPa) = 25.03577 30.97527 28.00552
#
# Velocity S-wave (km/s) = 3.41218 3.79541 3.60889
# Velocity P-wave (km/s) = 6.18053 6.64025 6.41451
#
# Compressibility (1/GPa) = 0.02050946
#
# Stress axis : x y z
#
# Youngs Moduli (GPa) = 55.87331 36.77363 58.61826
#
# Poissons Ratio (x) = 0.24138 0.35426
# Poissons Ratio (y) = 0.36676 0.48143
# Poissons Ratio (z) = 0.33767 0.30202
#
# Static dielectric constant tensor:
#      x y z
#    x 1.813950 0.000000 0.032010 
#    y 0.000000 1.818790 0.000000 
#    z 0.032010 0.000000 1.776820 
# 
# From -- ./inp_files/159773.got.cif
#   From: 2010.05.17/outbox.cif.g08.bks.cpg/sg15_80_cif.got.tgz:159773.got - 2010.06.03 18:47:42.
