data_PCOD9279184
_publ_section_title
;
Structure prediction by ZEFSAII (Michael W. Deem and Ramdas Pophale) SiO2 
 PCOD9279184
Probable space group: C 2/C
;
_chemical_formula_sum "Si O2"
_cell_formula_units_Z 36
_cell_length_a 9.619792
_cell_length_b 17.892933
_cell_length_c 10.043324
_cell_angle_alpha 90.000000
_cell_angle_beta 114.764092
_cell_angle_gamma 90.000000
_cell_volume 1569.747338
_symmetry_space_group_name_H-M "C 2/C"
_symmetry_group_IT_number 15
_symmetry_cell_setting 'monoclinic'
loop_
_space_group_symop_operation_xyz
x,y,z
-x,y,1/2-z
-x,-y,-z
x,-y,1/2+z
1/2+x,1/2+y,z
1/2-x,1/2+y,1/2-z
1/2-x,1/2-y,-z
1/2+x,1/2-y,1/2+z
loop_
_atom_site_type_symbol
_atom_site_label
_atom_site_fract_x
_atom_site_fract_y
_atom_site_fract_z
Si Si1 0.576869 0.420890 0.913303
Si Si2 0.500000 0.723885 0.250000
Si Si3 0.593021 0.645968 0.917920
Si Si4 0.920993 0.555899 0.572354
Si Si5 0.417878 0.805507 0.459656
O O1 0.500000 0.455005 0.750000
O O2 0.598569 0.333591 0.877514
O O3 0.459329 0.410259 0.987249
O O4 0.739676 0.454975 0.013003
O O5 0.391098 0.771925 0.300904
O O6 0.500000 0.627032 0.750000
O O7 0.773126 0.650431 0.960008
O O8 0.552561 0.732171 0.940918
O O9 0.000000 0.553056 0.750000
O O10 0.000000 0.500000 0.500000
O O11 0.948516 0.636362 0.514213
#
# Coordination Sequence:
#
# PCOD9279184 Si02
#       5
#     8   4   8   8   8
#     4   9  22  44  69  97 133 177 224 274 347 396
#     4   8  18  38  72  98 126 174 212 282 344 392
#     4  10  21  34  63 103 131 167 213 283 339 391
#     4  12  27  46  67  94 134 186 231 274 330 405
#     4  10  21  37  63  96 136 166 224 266 340 397
#
# _framework density 22.933624999999999
#
# number of rings (size 3 to 8) (size 9 to 14) (size 15 to 20)
#    0.667    1.333    1.111    1.333    3.111    4.444 
#    0.000    5.556    0.000    0.000    0.000    0.000 
#    0.000    0.000    0.000    0.000    0.000    0.000 
#
# Total GULP energy -100479.926999 kJ/mol
# GULP energy per Si atom -5582.218167 kJ/mol
# Density = 2.288143 g / cm^3
# Si number density = 22.933625 Si / 1000 Ang^3
#
#
#
# Elastic Constant Matrix: (Units=GPa)
#
#
# Indices 1 2 3 4 5 6 
#
# 1 176.6121 60.1027 86.3393 0.0000 -6.2096 0.0000
# 2 60.1027 74.1560 19.4454 0.0000 -3.8419 0.0000
# 3 86.3393 19.4454 128.2329 0.0000 -8.7889 0.0000
# 4 0.0000 0.0000 0.0000 -2.8392 0.0000 -13.7050
# 5 -6.2096 -3.8419 -8.7889 0.0000 39.1616 0.0000
# 6 0.0000 0.0000 0.0000 -13.7050 0.0000 68.8821
#
#
#
# Elastic Compliance Matrix: (Units=1/GPa)
#
#
# Indices 1 2 3 4 5 6 
#
# 1 0.011442 -0.007568 -0.006584 0.000000 -0.000406 0.000000
# 2 -0.007568 0.019082 0.002283 0.000000 0.001184 0.000000
# 3 -0.006584 0.002283 0.012014 0.000000 0.001876 0.000000
# 4 0.000000 0.000000 0.000000 -0.179661 0.000000 -0.035746
# 5 -0.000406 0.001184 0.001876 0.000000 0.026008 0.000000
# 6 0.000000 0.000000 0.000000 -0.035746 0.000000 0.007405
#
#
# Mechanical properties :
#
#
# Convention : Reuss Voigt Hill
#
# Bulk Modulus (GPa) = 53.19315 78.97510 66.08413
# Shear Modulus (GPa) = -67.83754 35.24848 -16.29453
#
# Velocity S-wave (km/s) = -5.44465 3.92468 -2.66843
# Velocity P-wave (km/s) = 4.03495 7.41948 4.40272
#
# Compressibility (1/GPa) = 0.01879941
#
# Stress axis : x y z
#
# Youngs Moduli (GPa) = 87.39602 52.40623 83.23770
#
# Poissons Ratio (x) = 0.39662 0.54805
# Poissons Ratio (y) = 0.66144 -0.19006
# Poissons Ratio (z) = 0.57543 -0.11966
#
# Static dielectric constant tensor:
#      x y z
#    x 1.826820 0.000000 -0.016070 
#    y 0.000000 1.890410 0.000000 
#    z -0.016070 0.000000 1.811650 
# 
# From -- ./inp_files/77418.got.cif
#   From: 2010.05.17/outbox.cif.g08.bks.cpg/sg15_39_cif.got.tgz:77418.got - 2010.06.03 18:47:42.
