data_PCOD9279961
_publ_section_title
;
Structure prediction by ZEFSAII (Michael W. Deem and Ramdas Pophale) SiO2 
 PCOD9279961
Probable space group: C 2/C
;
_chemical_formula_sum "Si O2"
_cell_formula_units_Z 36
_cell_length_a 11.998124
_cell_length_b 21.137245
_cell_length_c 9.592875
_cell_angle_alpha 90.000000
_cell_angle_beta 123.524181
_cell_angle_gamma 90.000000
_cell_volume 2028.129728
_symmetry_space_group_name_H-M "C 2/C"
_symmetry_group_IT_number 15
_symmetry_cell_setting 'monoclinic'
loop_
_space_group_symop_operation_xyz
x,y,z
-x,y,1/2-z
-x,-y,-z
x,-y,1/2+z
1/2+x,1/2+y,z
1/2-x,1/2+y,1/2-z
1/2-x,1/2-y,-z
1/2+x,1/2-y,1/2+z
loop_
_atom_site_type_symbol
_atom_site_label
_atom_site_fract_x
_atom_site_fract_y
_atom_site_fract_z
Si Si1 0.500000 0.897924 0.750000
Si Si2 0.188761 0.500439 0.235910
Si Si3 0.212711 0.678410 0.944175
Si Si4 0.943297 0.633067 0.912474
Si Si5 0.352524 0.553419 0.093439
O O1 0.444706 0.859454 0.579581
O O2 0.387926 0.943709 0.738067
O O3 0.089636 0.440905 0.142696
O O4 0.247541 0.525573 0.132348
O O5 0.309877 0.476735 0.417011
O O6 0.168597 0.670032 0.752765
O O7 0.084104 0.655059 0.944815
O O8 0.250000 0.750000 0.000000
O O9 0.327999 0.628444 0.060441
O O10 0.500000 0.539679 0.250000
#
# Coordination Sequence:
#
# PCOD9279961 Si02
#       5
#     4   8   8   8   8
#     4  12  18  34  62  86 120 140 196 252 290 344
#     4  11  20  36  57  92 121 147 194 243 301 350
#     4  10  22  39  58  84 115 155 209 237 281 348
#     4  10  21  36  62  88 110 156 196 250 287 338
#     4  11  22  35  57  87 123 160 186 240 303 353
#
# _framework density 17.750343999999998
#
# number of rings (size 3 to 8) (size 9 to 14) (size 15 to 20)
#    0.000    1.333    4.444    4.000    3.111    0.000 
#    0.000    1.111    0.000    0.000    0.000    0.000 
#    0.000    0.000    0.000    0.000    0.000    0.000 
#
# Total GULP energy -100479.131757 kJ/mol
# GULP energy per Si atom -5582.173986 kJ/mol
# Density = 1.770994 g / cm^3
# Si number density = 17.750344 Si / 1000 Ang^3
#
#
#
# Elastic Constant Matrix: (Units=GPa)
#
#
# Indices 1 2 3 4 5 6 
#
# 1 45.2290 17.7761 26.0859 0.0000 1.9390 0.0000
# 2 17.7761 97.5524 45.7098 0.0000 -3.9611 0.0000
# 3 26.0859 45.7098 138.8703 0.0000 -16.1554 0.0000
# 4 0.0000 0.0000 0.0000 20.0004 0.0000 -0.7862
# 5 1.9390 -3.9611 -16.1554 0.0000 34.7397 0.0000
# 6 0.0000 0.0000 0.0000 -0.7862 0.0000 6.1045
#
#
#
# Elastic Compliance Matrix: (Units=1/GPa)
#
#
# Indices 1 2 3 4 5 6 
#
# 1 0.025909 -0.002823 -0.004380 0.000000 -0.003805 0.000000
# 2 -0.002823 0.012436 -0.003573 0.000000 -0.000086 0.000000
# 3 -0.004380 -0.003573 0.009706 0.000000 0.004351 0.000000
# 4 0.000000 0.000000 0.000000 0.050253 0.000000 0.006472
# 5 -0.003805 -0.000086 0.004351 0.000000 0.031011 0.000000
# 6 0.000000 0.000000 0.000000 0.006472 0.000000 0.164647
#
#
# Mechanical properties :
#
#
# Convention : Reuss Voigt Hill
#
# Bulk Modulus (GPa) = 37.73889 51.19946 44.46918
# Shear Modulus (GPa) = 15.41554 24.97424 20.19489
#
# Velocity S-wave (km/s) = 2.95017 3.75503 3.37667
# Velocity P-wave (km/s) = 5.73688 6.90704 6.34897
#
# Compressibility (1/GPa) = 0.02649786
#
# Stress axis : x y z
#
# Youngs Moduli (GPa) = 38.59703 80.41111 103.02918
#
# Poissons Ratio (x) = 0.22702 0.45128
# Poissons Ratio (y) = 0.10897 0.36813
# Poissons Ratio (z) = 0.16906 0.28732
#
# Static dielectric constant tensor:
#      x y z
#    x 1.593120 0.000000 0.004690 
#    y 0.000000 1.583140 0.000000 
#    z 0.004690 0.000000 1.645950 
# 
# From -- ./inp_files/29416.got.cif
#   From: 2010.05.17/outbox.cif.g08.bks.cpg/sg15_15_cif.got.tgz:29416.got - 2010.06.03 18:47:42.
