data_PCOD9279971
_publ_section_title
;
Structure prediction by ZEFSAII (Michael W. Deem and Ramdas Pophale) SiO2 
 PCOD9279971
Probable space group: C 2/C
;
_chemical_formula_sum "Si O2"
_cell_formula_units_Z 40
_cell_length_a 5.221524
_cell_length_b 19.144709
_cell_length_c 19.355881
_cell_angle_alpha 90.000000
_cell_angle_beta 132.796600
_cell_angle_gamma 90.000000
_cell_volume 1419.773451
_symmetry_space_group_name_H-M "C 2/C"
_symmetry_group_IT_number 15
_symmetry_cell_setting 'monoclinic'
loop_
_space_group_symop_operation_xyz
x,y,z
-x,y,1/2-z
-x,-y,-z
x,-y,1/2+z
1/2+x,1/2+y,z
1/2-x,1/2+y,1/2-z
1/2-x,1/2-y,-z
1/2+x,1/2-y,1/2+z
loop_
_atom_site_type_symbol
_atom_site_label
_atom_site_fract_x
_atom_site_fract_y
_atom_site_fract_z
Si Si1 0.660226 0.041489 0.155281
Si Si2 0.500000 0.794755 0.250000
Si Si3 0.500000 0.148113 0.250000
Si Si4 0.602663 0.864895 0.999831
Si Si5 0.180423 0.425573 0.349167
Si Si6 0.721124 0.267083 0.594138
O O1 0.588906 0.100727 0.200550
O O2 0.671255 0.082759 0.085245
O O3 0.000000 0.006783 0.250000
O O4 0.379707 0.979561 0.100845
O O5 0.487717 0.850508 0.311855
O O6 0.866101 0.756111 0.326266
O O7 0.812572 0.196787 0.337379
O O8 0.785761 0.822528 0.969646
O O9 0.507928 0.802297 0.034274
O O10 0.915641 0.910191 0.088620
O O11 0.000000 0.461271 0.250000
#
# Coordination Sequence:
#
# PCOD9279971 Si02
#       6
#     8   4   4   8   8   8
#     4  11  22  39  65  86 120 164 205 246 298 351
#     4   8  17  34  64  84 117 162 192 242 300 352
#     4  10  21  36  62  90 123 156 200 246 300 354
#     4   9  19  35  64  90 118 164 190 248 309 351
#     4   9  18  38  62  84 122 161 198 246 302 345
#     4   9  18  35  60  90 123 155 200 238 307 359
#
# _framework density 28.173508999999999
#
# number of rings (size 3 to 8) (size 9 to 14) (size 15 to 20)
#    0.600    2.000    1.000    0.600    5.600    0.000 
#    1.800    2.000    8.800    0.000    0.000    0.000 
#    0.000    0.000    0.000    0.000    0.000    0.000 
#
# Total GULP energy -111780.876582 kJ/mol
# GULP energy per Si atom -5589.043829 kJ/mol
# Density = 2.810939 g / cm^3
# Si number density = 28.173509 Si / 1000 Ang^3
#
#
#
# Elastic Constant Matrix: (Units=GPa)
#
#
# Indices 1 2 3 4 5 6 
#
# 1 52.6396 27.6241 16.7230 0.0000 -7.6813 0.0000
# 2 27.6241 116.0928 26.7939 0.0000 -1.5660 0.0000
# 3 16.7230 26.7939 140.0743 0.0000 -1.8758 0.0000
# 4 0.0000 0.0000 0.0000 13.5488 0.0000 3.9065
# 5 -7.6813 -1.5660 -1.8758 0.0000 39.8027 0.0000
# 6 0.0000 0.0000 0.0000 3.9065 0.0000 35.5285
#
#
#
# Elastic Compliance Matrix: (Units=1/GPa)
#
#
# Indices 1 2 3 4 5 6 
#
# 1 0.022745 -0.004962 -0.001711 0.000000 0.004114 0.000000
# 2 -0.004962 0.010097 -0.001347 0.000000 -0.000624 0.000000
# 3 -0.001711 -0.001347 0.007601 0.000000 -0.000025 0.000000
# 4 0.000000 0.000000 0.000000 0.076224 0.000000 -0.008381
# 5 0.004114 -0.000624 -0.000025 0.000000 0.025892 0.000000
# 6 0.000000 0.000000 0.000000 -0.008381 0.000000 0.029068
#
#
# Mechanical properties :
#
#
# Convention : Reuss Voigt Hill
#
# Bulk Modulus (GPa) = 40.98035 50.12098 45.55066
# Shear Modulus (GPa) = 25.53615 33.62037 29.57826
#
# Velocity S-wave (km/s) = 3.01390 3.45821 3.24367
# Velocity P-wave (km/s) = 5.16611 5.81157 5.49832
#
# Compressibility (1/GPa) = 0.02440194
#
# Stress axis : x y z
#
# Youngs Moduli (GPa) = 43.96616 99.03951 131.56573
#
# Poissons Ratio (x) = 0.49140 0.22514
# Poissons Ratio (y) = 0.21814 0.17727
# Poissons Ratio (z) = 0.07524 0.13344
#
# Static dielectric constant tensor:
#      x y z
#    x 2.297410 0.000000 0.019800 
#    y 0.000000 2.211170 0.000000 
#    z 0.019800 0.000000 2.190710 
# 
# From -- ./inp_files/227636.got.cif
#   From: 2010.05.17/outbox.cif.g08.bks.cpg/sg15_114_cif.got.tgz:227636.got - 2010.06.03 18:47:42.
