data_PCOD9279912
_publ_section_title
;
Structure prediction by ZEFSAII (Michael W. Deem and Ramdas Pophale) SiO2 
 PCOD9279912
Probable space group: C 2/C
;
_chemical_formula_sum "Si O2"
_cell_formula_units_Z 48
_cell_length_a 11.965032
_cell_length_b 20.291128
_cell_length_c 14.386736
_cell_angle_alpha 90.000000
_cell_angle_beta 42.708734
_cell_angle_gamma 90.000000
_cell_volume 2369.114332
_symmetry_space_group_name_H-M "C 2/C"
_symmetry_group_IT_number 15
_symmetry_cell_setting 'monoclinic'
loop_
_space_group_symop_operation_xyz
x,y,z
-x,y,1/2-z
-x,-y,-z
x,-y,1/2+z
1/2+x,1/2+y,z
1/2-x,1/2+y,1/2-z
1/2-x,1/2-y,-z
1/2+x,1/2-y,1/2+z
loop_
_atom_site_type_symbol
_atom_site_label
_atom_site_fract_x
_atom_site_fract_y
_atom_site_fract_z
Si Si1 0.654787 0.652097 0.598271
Si Si2 0.916393 0.543544 0.395483
Si Si3 0.646169 0.125852 0.371535
Si Si4 0.429543 0.243743 0.505571
Si Si5 0.000999 0.826335 0.640220
Si Si6 0.140427 0.388685 0.089320
O O1 0.500000 0.629434 0.750000
O O2 0.762230 0.589525 0.507463
O O3 0.598131 0.693463 0.543412
O O4 0.764877 0.700423 0.595127
O O5 0.865293 0.468190 0.413125
O O6 0.000000 0.567009 0.250000
O O7 0.052446 0.562211 0.389608
O O8 0.569321 0.194147 0.379728
O O9 0.841164 0.125744 0.234407
O O10 0.604346 0.131889 0.505824
O O11 0.469798 0.269546 0.583810
O O12 0.000000 0.804337 0.750000
O O13 0.175351 0.860269 0.507224
O O14 0.000000 0.368777 0.250000
#
# Coordination Sequence:
#
# PCOD9279912 Si02
#       6
#     8   8   8   8   8   8
#     4  10  21  36  61  90 115 148 191 239 287 341
#     4  10  21  40  60  82 115 150 189 237 289 338
#     4  10  21  38  61  83 112 153 189 232 284 341
#     4  10  21  37  58  87 120 149 187 237 290 341
#     4  10  22  38  59  86 116 153 193 233 285 348
#     4  10  23  40  57  83 116 151 191 236 285 339
#
# _framework density 20.260736000000001
#
# number of rings (size 3 to 8) (size 9 to 14) (size 15 to 20)
#    0.000    2.000    0.000    2.500    0.000   14.000 
#    0.000    7.500    0.000    0.000    0.000    0.000 
#    0.000    0.000    0.000    0.000    0.000    0.000 
#
# Total GULP energy -133922.542645 kJ/mol
# GULP energy per Si atom -5580.105944 kJ/mol
# Density = 2.021462 g / cm^3
# Si number density = 20.260736 Si / 1000 Ang^3
#
#
#
# Elastic Constant Matrix: (Units=GPa)
#
#
# Indices 1 2 3 4 5 6 
#
# 1 97.0712 29.4300 56.3631 0.0000 -3.7788 0.0001
# 2 29.4300 66.3375 56.8195 0.0002 1.0342 0.0000
# 3 56.3631 56.8195 165.3051 -0.0013 -18.8725 0.0008
# 4 0.0000 0.0002 -0.0013 33.9572 0.0009 0.0769
# 5 -3.7788 1.0342 -18.8725 0.0009 12.5023 -0.0004
# 6 0.0001 0.0000 0.0008 0.0769 -0.0004 13.1103
#
#
#
# Elastic Compliance Matrix: (Units=1/GPa)
#
#
# Indices 1 2 3 4 5 6 
#
# 1 0.013232 -0.002601 -0.003790 0.000000 -0.001506 0.000000
# 2 -0.002601 0.024701 -0.009577 0.000000 -0.017286 0.000000
# 3 -0.003790 -0.009577 0.012799 0.000000 0.018967 0.000000
# 4 0.000000 0.000000 0.000000 0.029449 -0.000002 -0.000173
# 5 -0.001506 -0.017286 0.018967 -0.000002 0.109591 0.000002
# 6 0.000000 0.000000 0.000000 -0.000173 0.000002 0.076277
#
#
# Mechanical properties :
#
#
# Convention : Reuss Voigt Hill
#
# Bulk Modulus (GPa) = 53.20116 68.21545 60.70830
# Shear Modulus (GPa) = 16.43392 24.32072 20.37732
#
# Velocity S-wave (km/s) = 2.85111 3.46842 3.17480
# Velocity P-wave (km/s) = 6.09538 7.05562 6.59301
#
# Compressibility (1/GPa) = 0.01879658
#
# Stress axis : x y z
#
# Youngs Moduli (GPa) = 75.57438 40.48474 78.13252
#
# Poissons Ratio (x) = 0.10530 0.29609
# Poissons Ratio (y) = 0.19656 0.74827
# Poissons Ratio (z) = 0.28639 0.38772
#
# Static dielectric constant tensor:
#      x y z
#    x 1.755790 0.000000 0.007950 
#    y 0.000000 1.704360 0.000000 
#    z 0.007950 0.000000 1.706740 
# 
# From -- ./inp_files/147375.got.cif
#   From: 2010.05.17/outbox.cif.g08.bks.cpg/sg15_74_cif.got.tgz:147375.got - 2010.06.03 18:47:42.
