data_PCOD9279800
_publ_section_title
;
Structure prediction by ZEFSAII (Michael W. Deem and Ramdas Pophale) SiO2 
 PCOD9279800
Probable space group: C 2/C
;
_chemical_formula_sum "Si O2"
_cell_formula_units_Z 40
_cell_length_a 9.042447
_cell_length_b 12.155228
_cell_length_c 17.564477
_cell_angle_alpha 90.000000
_cell_angle_beta 105.604915
_cell_angle_gamma 90.000000
_cell_volume 1859.402866
_symmetry_space_group_name_H-M "C 2/C"
_symmetry_group_IT_number 15
_symmetry_cell_setting 'monoclinic'
loop_
_space_group_symop_operation_xyz
x,y,z
-x,y,1/2-z
-x,-y,-z
x,-y,1/2+z
1/2+x,1/2+y,z
1/2-x,1/2+y,1/2-z
1/2-x,1/2-y,-z
1/2+x,1/2-y,1/2+z
loop_
_atom_site_type_symbol
_atom_site_label
_atom_site_fract_x
_atom_site_fract_y
_atom_site_fract_z
Si Si1 0.533905 0.167366 0.066804
Si Si2 0.488530 0.081716 0.581219
Si Si3 0.000000 0.010363 0.750000
Si Si4 0.330022 0.313166 0.126991
Si Si5 0.500000 0.144682 0.750000
Si Si6 0.249693 0.173093 0.255150
O O1 0.412769 0.264223 0.064187
O O2 0.647330 0.167482 0.154801
O O3 0.460660 0.045628 0.058862
O O4 0.602887 0.160195 0.990653
O O5 0.662410 0.131413 0.596488
O O6 0.459142 0.083972 0.667174
O O7 0.935299 0.091048 0.676683
O O8 0.860984 0.933364 0.760909
O O9 0.327281 0.209170 0.186294
O O10 0.358378 0.222524 0.747627
#
# Coordination Sequence:
#
# PCOD9279800 Si02
#       6
#     8   8   4   8   4   8
#     4  11  21  36  59  87 114 150 188 238 288 337
#     4  10  23  38  58  85 117 147 192 238 283 340
#     4  11  20  35  60  86 116 155 190 239 270 340
#     4  11  21  38  61  85 115 159 187 232 288 339
#     4   9  22  39  58  80 112 155 186 239 282 340
#     4  10  21  36  59  87 115 147 199 230 281 343
#
# _framework density 21.512283
#
# number of rings (size 3 to 8) (size 9 to 14) (size 15 to 20)
#    0.000    1.600    4.000    0.600    2.800    0.800 
#    0.000    0.000    0.000    4.800    0.000    0.000 
#    0.000    0.000    0.000    0.000    0.000    0.000 
#
# Total GULP energy -111414.631404 kJ/mol
# GULP energy per Si atom -5570.731570 kJ/mol
# Density = 2.146332 g / cm^3
# Si number density = 21.512283 Si / 1000 Ang^3
#
#
#
# Elastic Constant Matrix: (Units=GPa)
#
#
# Indices 1 2 3 4 5 6 
#
# 1 34.4666 16.7557 9.6625 0.0000 9.8866 0.0000
# 2 16.7557 100.2596 26.9145 0.0000 3.1900 0.0000
# 3 9.6625 26.9145 107.0103 0.0000 2.7694 0.0000
# 4 0.0000 0.0000 0.0000 40.3895 0.0000 3.6627
# 5 9.8866 3.1900 2.7694 0.0000 23.8776 0.0000
# 6 0.0000 0.0000 0.0000 3.6627 0.0000 78.0559
#
#
#
# Elastic Compliance Matrix: (Units=1/GPa)
#
#
# Indices 1 2 3 4 5 6 
#
# 1 0.035982 -0.005139 -0.001593 0.000000 -0.014027 0.000000
# 2 -0.005139 0.011460 -0.002441 0.000000 0.000880 0.000000
# 3 -0.001593 -0.002441 0.010108 0.000000 -0.000186 0.000000
# 4 0.000000 0.000000 0.000000 0.024865 0.000000 -0.001167
# 5 -0.014027 0.000880 -0.000186 0.000000 0.047592 0.000000
# 6 0.000000 0.000000 0.000000 -0.001167 0.000000 0.012866
#
#
# Mechanical properties :
#
#
# Convention : Reuss Voigt Hill
#
# Bulk Modulus (GPa) = 25.50859 38.71130 32.10995
# Shear Modulus (GPa) = 28.68800 41.02485 34.85642
#
# Velocity S-wave (km/s) = 3.65576 4.37171 4.02967
# Velocity P-wave (km/s) = 5.45003 6.59670 6.05059
#
# Compressibility (1/GPa) = 0.03920247
#
# Stress axis : x y z
#
# Youngs Moduli (GPa) = 27.79130 87.25739 98.93573
#
# Poissons Ratio (x) = 0.44846 0.15764
# Poissons Ratio (y) = 0.14283 0.24152
# Poissons Ratio (z) = 0.04428 0.21301
#
# Static dielectric constant tensor:
#      x y z
#    x 1.839520 0.000000 -0.088220 
#    y 0.000000 1.735640 0.000000 
#    z -0.088220 0.000000 1.995650 
# 
# From -- ./inp_files/141795.got.cif
#   From: 2010.05.17/outbox.cif.g08.bks.cpg/sg15_71_cif.got.tgz:141795.got - 2010.06.03 18:47:42.
