data_PCOD9279565
_publ_section_title
;
Structure prediction by ZEFSAII (Michael W. Deem and Ramdas Pophale) SiO2 
 PCOD9279565
Probable space group: C 2/C
;
_chemical_formula_sum "Si O2"
_cell_formula_units_Z 60
_cell_length_a 22.087650
_cell_length_b 28.839364
_cell_length_c 5.432517
_cell_angle_alpha 90.000000
_cell_angle_beta 76.636541
_cell_angle_gamma 90.000000
_cell_volume 3366.781786
_symmetry_space_group_name_H-M "C 2/C"
_symmetry_group_IT_number 15
_symmetry_cell_setting 'monoclinic'
loop_
_space_group_symop_operation_xyz
x,y,z
-x,y,1/2-z
-x,-y,-z
x,-y,1/2+z
1/2+x,1/2+y,z
1/2-x,1/2+y,1/2-z
1/2-x,1/2-y,-z
1/2+x,1/2-y,1/2+z
loop_
_atom_site_type_symbol
_atom_site_label
_atom_site_fract_x
_atom_site_fract_y
_atom_site_fract_z
Si Si1 0.272612 0.326282 0.972658
Si Si2 0.000000 0.111834 0.250000
Si Si3 0.915500 0.025591 0.448860
Si Si4 0.302186 0.380983 0.444936
Si Si5 0.352952 0.767093 0.388228
Si Si6 0.927933 0.739790 0.315084
Si Si7 0.225125 0.988459 0.952798
Si Si8 0.564672 0.347788 0.094426
O O1 0.281895 0.358906 0.203305
O O2 0.206036 0.301243 0.055841
O O3 0.277911 0.352553 0.706193
O O4 0.324069 0.285058 0.922988
O O5 0.051087 0.074992 0.096643
O O6 0.049226 0.148046 0.323360
O O7 0.934517 0.000898 0.682427
O O8 0.839429 0.019178 0.509192
O O9 0.287367 0.434525 0.494969
O O10 0.376380 0.376830 0.391017
O O11 0.393186 0.774525 0.597512
O O12 0.392028 0.773364 0.100051
O O13 0.928385 0.796026 0.318583
O O14 0.000000 0.724699 0.250000
O O15 0.258873 0.006028 0.163046
O O16 0.500000 0.368905 0.250000
#
# Coordination Sequence:
#
# PCOD9279565 Si02
#       8
#     8   4   8   8   8   8   8   8
#     4  11  23  38  63  81 104 145 186 249 284 334
#     4  12  26  34  54  64 102 140 202 240 296 336
#     4  10  22  38  48  64  85 130 180 234 290 335
#     4  12  23  39  56  81 104 138 200 244 298 335
#     4  11  21  42  59  83 112 141 187 230 295 351
#     4  11  23  38  57  82 118 145 180 222 297 353
#     4  10  21  36  53  70 102 139 182 239 292 340
#     4  11  26  33  50  74 104 142 184 249 296 338
#
# _framework density 17.821173000000002
#
# number of rings (size 3 to 8) (size 9 to 14) (size 15 to 20)
#    0.000    1.067    2.667    4.000   11.200    2.133 
#    0.000    0.000    0.000    0.000    0.000    0.000 
#    0.000    0.000    0.000    0.000    0.000  168.000 
#
# Total GULP energy -167362.101030 kJ/mol
# GULP energy per Si atom -5578.736701 kJ/mol
# Density = 1.778061 g / cm^3
# Si number density = 17.821173 Si / 1000 Ang^3
#
#
#
# Elastic Constant Matrix: (Units=GPa)
#
#
# Indices 1 2 3 4 5 6 
#
# 1 81.8737 20.8294 48.7530 0.0000 4.2962 0.0000
# 2 20.8294 51.9485 25.7685 0.0000 2.0557 0.0000
# 3 48.7530 25.7685 148.3238 0.0000 9.1081 0.0000
# 4 0.0000 0.0000 0.0000 28.9215 0.0000 5.6617
# 5 4.2962 2.0557 9.1081 0.0000 31.4446 0.0000
# 6 0.0000 0.0000 0.0000 5.6617 0.0000 22.9202
#
#
#
# Elastic Compliance Matrix: (Units=1/GPa)
#
#
# Indices 1 2 3 4 5 6 
#
# 1 0.015978 -0.004154 -0.004493 0.000000 -0.000610 0.000000
# 2 -0.004154 0.022148 -0.002472 0.000000 -0.000164 0.000000
# 3 -0.004493 -0.002472 0.008756 0.000000 -0.001761 0.000000
# 4 0.000000 0.000000 0.000000 0.036333 0.000000 -0.008975
# 5 -0.000610 -0.000164 -0.001761 0.000000 0.032406 0.000000
# 6 0.000000 0.000000 0.000000 -0.008975 0.000000 0.045847
#
#
# Mechanical properties :
#
#
# Convention : Reuss Voigt Hill
#
# Bulk Modulus (GPa) = 40.57674 52.53863 46.55769
# Shear Modulus (GPa) = 26.05229 29.11027 27.58128
#
# Velocity S-wave (km/s) = 3.82759 4.04600 3.93831
# Velocity P-wave (km/s) = 6.50786 7.16741 6.84558
#
# Compressibility (1/GPa) = 0.02464466
#
# Stress axis : x y z
#
# Youngs Moduli (GPa) = 62.58607 45.15027 114.20215
#
# Poissons Ratio (x) = 0.18755 0.51308
# Poissons Ratio (y) = 0.25997 0.28235
# Poissons Ratio (z) = 0.28118 0.11163
#
# Static dielectric constant tensor:
#      x y z
#    x 1.922930 0.000000 1.117820 
#    y 0.000000 1.583060 0.000000 
#    z 1.117820 0.000000 5.568020 
# 
# From -- ./inp_files/14264.got.cif
#   From: 2010.05.17/outbox.cif.g08.bks.cpg/sg15_8_cif.got.tgz:14264.got - 2010.06.03 18:47:42.
