data_PCOD9279512
_publ_section_title
;
Structure prediction by ZEFSAII (Michael W. Deem and Ramdas Pophale) SiO2 
 PCOD9279512
Probable space group: C 2/C
;
_chemical_formula_sum "Si O2"
_cell_formula_units_Z 40
_cell_length_a 21.275492
_cell_length_b 9.971784
_cell_length_c 13.441104
_cell_angle_alpha 90.000000
_cell_angle_beta 139.715831
_cell_angle_gamma 90.000000
_cell_volume 1843.779702
_symmetry_space_group_name_H-M "C 2/C"
_symmetry_group_IT_number 15
_symmetry_cell_setting 'monoclinic'
loop_
_space_group_symop_operation_xyz
x,y,z
-x,y,1/2-z
-x,-y,-z
x,-y,1/2+z
1/2+x,1/2+y,z
1/2-x,1/2+y,1/2-z
1/2-x,1/2-y,-z
1/2+x,1/2-y,1/2+z
loop_
_atom_site_type_symbol
_atom_site_label
_atom_site_fract_x
_atom_site_fract_y
_atom_site_fract_z
Si Si1 0.114665 0.255323 0.771505
Si Si2 0.593512 0.421649 0.069915
Si Si3 0.409775 0.875975 0.446904
Si Si4 0.973955 0.643247 0.603431
Si Si5 0.691350 0.654145 0.067684
O O1 0.138420 0.133189 0.726018
O O2 0.010457 0.315615 0.616501
O O3 0.201879 0.356368 0.850360
O O4 0.124580 0.201815 0.894520
O O5 0.565171 0.290146 0.972043
O O6 0.500000 0.500000 0.000000
O O7 0.655658 0.520605 0.077687
O O8 0.434449 0.879353 0.359997
O O9 0.325447 0.773065 0.372490
O O10 0.400646 0.024082 0.481839
O O11 0.000000 0.631419 0.750000
#
# Coordination Sequence:
#
# PCOD9279512 Si02
#       5
#     8   8   8   8   8
#     4  10  23  39  63  93 124 167 218 247 328 382
#     4  11  23  38  60  94 122 163 206 270 310 366
#     4  10  21  40  62  86 126 166 204 260 314 385
#     4  10  21  35  63  91 117 159 212 251 322 374
#     4  11  22  40  66  87 125 170 209 262 313 384
#
# _framework density 21.694565999999998
#
# number of rings (size 3 to 8) (size 9 to 14) (size 15 to 20)
#    0.000    1.600    4.000    1.800    2.800    4.800 
#    0.000    0.000    0.000    9.600    0.000    0.000 
#    0.000    0.000    0.000    0.000    0.000    0.000 
#
# Total GULP energy -111731.387897 kJ/mol
# GULP energy per Si atom -5586.569395 kJ/mol
# Density = 2.164519 g / cm^3
# Si number density = 21.694566 Si / 1000 Ang^3
#
#
#
# Elastic Constant Matrix: (Units=GPa)
#
#
# Indices 1 2 3 4 5 6 
#
# 1 113.9725 51.9259 35.9692 0.0000 -29.2731 0.0000
# 2 51.9259 156.8361 1.4910 0.0000 -7.6078 0.0000
# 3 35.9692 1.4910 28.4180 0.0000 -8.1559 0.0000
# 4 0.0000 0.0000 0.0000 23.8703 0.0000 6.0139
# 5 -29.2731 -7.6078 -8.1559 0.0000 50.9482 0.0000
# 6 0.0000 0.0000 0.0000 6.0139 0.0000 33.8658
#
#
#
# Elastic Compliance Matrix: (Units=1/GPa)
#
#
# Indices 1 2 3 4 5 6 
#
# 1 0.021402 -0.006493 -0.024629 0.000000 0.007385 0.000000
# 2 -0.006493 0.008393 0.007408 0.000000 -0.001292 0.000000
# 3 -0.024629 0.007408 0.065226 0.000000 -0.002603 0.000000
# 4 0.000000 0.000000 0.000000 0.043855 0.000000 -0.007788
# 5 0.007385 -0.001292 -0.002603 0.000000 0.023261 0.000000
# 6 0.000000 0.000000 0.000000 -0.007788 0.000000 0.030911
#
#
# Mechanical properties :
#
#
# Convention : Reuss Voigt Hill
#
# Bulk Modulus (GPa) = 21.01182 53.11100 37.06141
# Shear Modulus (GPa) = 19.50525 35.72623 27.61574
#
# Velocity S-wave (km/s) = 3.00173 4.06246 3.57169
# Velocity P-wave (km/s) = 4.66049 6.82196 5.84206
#
# Compressibility (1/GPa) = 0.04759225
#
# Stress axis : x y z
#
# Youngs Moduli (GPa) = 46.72491 119.14866 15.33125
#
# Poissons Ratio (x) = 0.77369 0.37759
# Poissons Ratio (y) = 0.30341 -0.11357
# Poissons Ratio (z) = 1.15077 -0.88263
#
# Static dielectric constant tensor:
#      x y z
#    x 1.816530 0.000000 0.058300 
#    y 0.000000 1.832700 0.000000 
#    z 0.058300 0.000000 1.861470 
# 
# From -- ./inp_files/167410.got.cif
#   From: 2010.05.17/outbox.cif.g08.bks.cpg/sg15_84_cif.got.tgz:167410.got - 2010.06.03 18:47:42.
