data_PCOD9279171
_publ_section_title
;
Structure prediction by ZEFSAII (Michael W. Deem and Ramdas Pophale) SiO2 
 PCOD9279171
Probable space group: C 2/C
;
_chemical_formula_sum "Si O2"
_cell_formula_units_Z 48
_cell_length_a 5.894999
_cell_length_b 27.679961
_cell_length_c 12.540591
_cell_angle_alpha 90.000000
_cell_angle_beta 100.090408
_cell_angle_gamma 90.000000
_cell_volume 2014.639207
_symmetry_space_group_name_H-M "C 2/C"
_symmetry_group_IT_number 15
_symmetry_cell_setting 'monoclinic'
loop_
_space_group_symop_operation_xyz
x,y,z
-x,y,1/2-z
-x,-y,-z
x,-y,1/2+z
1/2+x,1/2+y,z
1/2-x,1/2+y,1/2-z
1/2-x,1/2-y,-z
1/2+x,1/2-y,1/2+z
loop_
_atom_site_type_symbol
_atom_site_label
_atom_site_fract_x
_atom_site_fract_y
_atom_site_fract_z
Si Si1 0.924669 0.781891 0.128198
Si Si2 0.470723 0.389649 0.075487
Si Si3 0.959836 0.432326 0.573880
Si Si4 0.336995 0.362045 0.641816
Si Si5 0.581191 0.248171 0.871730
Si Si6 0.219220 0.021678 0.577459
O O1 0.661923 0.762651 0.086532
O O2 0.000000 0.761377 0.250000
O O3 0.163262 0.772870 0.079984
O O4 0.919151 0.839986 0.130437
O O5 0.577771 0.376338 0.968682
O O6 0.230300 0.412650 0.022855
O O7 0.635666 0.431554 0.137399
O O8 0.088055 0.386625 0.636042
O O9 0.136351 0.458402 0.509857
O O10 0.847287 0.474886 0.635962
O O11 0.500000 0.380843 0.750000
O O12 0.360848 0.304364 0.644051
O O13 0.500000 0.226357 0.750000
O O14 0.000000 0.000000 0.500000
#
# Coordination Sequence:
#
# PCOD9279171 Si02
#       6
#     8   8   8   8   8   8
#     4  10  22  40  61  86 124 161 207 254 311 366
#     4  10  21  34  61  89 112 158 199 251 305 367
#     4   9  18  34  58  83 114 155 193 247 304 364
#     4  10  22  37  56  86 122 161 205 243 305 367
#     4   9  21  39  58  85 124 166 202 257 305 361
#     4   8  16  34  57  82 111 146 191 240 307 358
#
# _framework density 23.825607999999999
#
# number of rings (size 3 to 8) (size 9 to 14) (size 15 to 20)
#    0.000    2.667    0.000    0.000    7.000    2.000 
#    0.000    0.000    0.000   46.000    0.000    0.000 
#    0.000    0.000    0.000    0.000    0.000    0.000 
#
# Total GULP energy -133610.019502 kJ/mol
# GULP energy per Si atom -5567.084146 kJ/mol
# Density = 2.377138 g / cm^3
# Si number density = 23.825608 Si / 1000 Ang^3
#
#
#
# Elastic Constant Matrix: (Units=GPa)
#
#
# Indices 1 2 3 4 5 6 
#
# 1 167.3442 83.7729 38.1749 0.0000 30.7107 0.0000
# 2 83.7729 157.3518 11.8358 0.0000 27.0266 0.0000
# 3 38.1749 11.8358 51.1588 0.0000 11.0169 0.0000
# 4 0.0000 0.0000 0.0000 -81.0946 0.0000 72.5787
# 5 30.7107 27.0266 11.0169 0.0000 40.1208 0.0000
# 6 0.0000 0.0000 0.0000 72.5787 0.0000 8.7970
#
#
#
# Elastic Compliance Matrix: (Units=1/GPa)
#
#
# Indices 1 2 3 4 5 6 
#
# 1 0.010081 -0.004385 -0.005827 0.000000 -0.003162 0.000000
# 2 -0.004385 0.009115 0.001874 0.000000 -0.003298 0.000000
# 3 -0.005827 0.001874 0.024204 0.000000 -0.003448 0.000000
# 4 0.000000 0.000000 0.000000 -0.001471 0.000000 0.012135
# 5 -0.003162 -0.003298 -0.003448 0.000000 0.030514 0.000000
# 6 0.000000 0.000000 0.000000 0.012135 0.000000 0.013559
#
#
# Mechanical properties :
#
#
# Convention : Reuss Voigt Hill
#
# Bulk Modulus (GPa) = 37.42034 71.49133 54.45584
# Shear Modulus (GPa) = 44.80853 9.70273 27.25563
#
# Velocity S-wave (km/s) = 4.34139 2.02021 3.38592
# Velocity P-wave (km/s) = 6.39299 5.95927 6.17993
#
# Compressibility (1/GPa) = 0.02672343
#
# Stress axis : x y z
#
# Youngs Moduli (GPa) = 99.20098 109.70333 41.31560
#
# Poissons Ratio (x) = 0.48109 0.24073
# Poissons Ratio (y) = 0.43504 -0.07742
# Poissons Ratio (z) = 0.57801 -0.20556
#
# Static dielectric constant tensor:
#      x y z
#    x 1.811220 0.000000 -0.018740 
#    y 0.000000 1.958960 0.000000 
#    z -0.018740 0.000000 1.938960 
# 
# From -- ./inp_files/185523.got.cif
#   From: 2010.05.17/outbox.cif.g08.bks.cpg/sg15_93_cif.got.tgz:185523.got - 2010.06.03 18:47:42.
