data_PCOD9279039
_publ_section_title
;
Structure prediction by ZEFSAII (Michael W. Deem and Ramdas Pophale) SiO2 
 PCOD9279039
Probable space group: C 2/C
;
_chemical_formula_sum "Si O2"
_cell_formula_units_Z 60
_cell_length_a 21.432141
_cell_length_b 11.772882
_cell_length_c 13.758118
_cell_angle_alpha 90.000000
_cell_angle_beta 49.914253
_cell_angle_gamma 90.000000
_cell_volume 2655.920935
_symmetry_space_group_name_H-M "C 2/C"
_symmetry_group_IT_number 15
_symmetry_cell_setting 'monoclinic'
loop_
_space_group_symop_operation_xyz
x,y,z
-x,y,1/2-z
-x,-y,-z
x,-y,1/2+z
1/2+x,1/2+y,z
1/2-x,1/2+y,1/2-z
1/2-x,1/2-y,-z
1/2+x,1/2-y,1/2+z
loop_
_atom_site_type_symbol
_atom_site_label
_atom_site_fract_x
_atom_site_fract_y
_atom_site_fract_z
Si Si1 0.660665 0.179791 0.872544
Si Si2 0.000000 0.949537 0.250000
Si Si3 0.049486 0.900778 0.398406
Si Si4 0.827934 0.080798 0.422143
Si Si5 0.665257 0.738602 0.899564
Si Si6 0.667617 0.947559 0.783095
Si Si7 0.701439 0.869617 0.546893
Si Si8 0.167193 0.094570 0.294111
O O1 0.755237 0.210852 0.748343
O O2 0.618774 0.301646 0.893113
O O3 0.636045 0.074589 0.829145
O O4 0.656961 0.138648 0.987299
O O5 0.987714 0.873559 0.167535
O O6 0.919416 0.027902 0.342501
O O7 0.130057 0.975825 0.297387
O O8 0.081253 0.808390 0.438967
O O9 0.000000 0.000000 0.500000
O O10 0.820430 0.174014 0.514457
O O11 0.813192 0.142063 0.332951
O O12 0.762680 0.977745 0.488648
O O13 0.651004 0.872428 0.896242
O O14 0.649509 0.887252 0.698562
O O15 0.766326 0.946347 0.694907
O O16 0.750000 0.750000 0.500000
#
# Coordination Sequence:
#
# PCOD9279039 Si02
#       8
#     8   4   8   8   8   8   8   8
#     4  11  21  37  53  80 118 149 183 232 284 346
#     4  10  22  32  58  80 112 148 188 236 282 322
#     4  11  20  37  56  85 110 149 185 241 277 330
#     4  11  21  37  55  85 114 151 196 230 279 342
#     4  11  21  35  55  81 118 145 190 228 287 335
#     4  11  22  36  54  81 117 153 181 232 286 348
#     4  12  21  31  54  80 118 151 182 231 289 340
#     4  10  21  34  54  81 113 143 192 226 281 336
#
# _framework density 22.591035000000002
#
# number of rings (size 3 to 8) (size 9 to 14) (size 15 to 20)
#    0.000    1.067    8.000    0.800    0.000    3.200 
#    0.000    0.000    0.000    0.800    0.000    0.933 
#    0.000    0.000    0.000    0.000    0.000    0.000 
#
# Total GULP energy -167062.680104 kJ/mol
# GULP energy per Si atom -5568.756003 kJ/mol
# Density = 2.253962 g / cm^3
# Si number density = 22.591035 Si / 1000 Ang^3
#
#
#
# Elastic Constant Matrix: (Units=GPa)
#
#
# Indices 1 2 3 4 5 6 
#
# 1 52.9456 -3.6648 18.4381 0.0000 35.4214 0.0000
# 2 -3.6648 98.9838 -3.3662 0.0000 16.2478 0.0000
# 3 18.4381 -3.3662 60.0406 0.0000 38.6823 0.0000
# 4 0.0000 0.0000 0.0000 30.0115 0.0000 12.5037
# 5 35.4214 16.2478 38.6823 0.0000 45.0547 0.0000
# 6 0.0000 0.0000 0.0000 12.5037 0.0000 14.2274
#
#
#
# Elastic Compliance Matrix: (Units=1/GPa)
#
#
# Indices 1 2 3 4 5 6 
#
# 1 0.079191 0.023353 0.050414 0.000000 -0.113964 0.000000
# 2 0.023353 0.019090 0.022743 0.000000 -0.044770 0.000000
# 3 0.050414 0.022743 0.074449 0.000000 -0.111756 0.000000
# 4 0.000000 0.000000 0.000000 0.052569 0.000000 -0.046200
# 5 -0.113964 -0.044770 -0.111756 0.000000 0.223887 0.000000
# 6 0.000000 0.000000 0.000000 -0.046200 0.000000 0.110890
#
#
# Mechanical properties :
#
#
# Convention : Reuss Voigt Hill
#
# Bulk Modulus (GPa) = 2.73411 26.08711 14.41061
# Shear Modulus (GPa) = 10.22551 31.22958 20.72755
#
# Velocity S-wave (km/s) = 2.12983 3.72208 3.03233
# Velocity P-wave (km/s) = 2.69465 5.48128 4.31889
#
# Compressibility (1/GPa) = 0.36574944
#
# Stress axis : x y z
#
# Youngs Moduli (GPa) = 12.62764 52.38468 13.43195
#
# Poissons Ratio (x) = -1.22335 -0.67716
# Poissons Ratio (y) = -0.29490 -0.30548
# Poissons Ratio (z) = -0.63661 -1.19136
#
# Static dielectric constant tensor:
#      x y z
#    x 1.858760 0.000000 0.014670 
#    y 0.000000 1.278980 0.000000 
#    z 0.014670 0.000000 1.939160 
# 
# From -- ./inp_files/172943.got.cif
#   From: 2010.05.17/outbox.cif.g08.bks.cpg/sg15_87_cif.got.tgz:172943.got - 2010.06.03 18:47:42.
