data_PCOD9279848
_publ_section_title
;
Structure prediction by ZEFSAII (Michael W. Deem and Ramdas Pophale) SiO2 
 PCOD9279848
Probable space group: C 2/C
;
_chemical_formula_sum "Si O2"
_cell_formula_units_Z 52
_cell_length_a 13.814364
_cell_length_b 20.291235
_cell_length_c 11.812895
_cell_angle_alpha 90.000000
_cell_angle_beta 128.337440
_cell_angle_gamma 90.000000
_cell_volume 2597.271577
_symmetry_space_group_name_H-M "C 2/C"
_symmetry_group_IT_number 15
_symmetry_cell_setting 'monoclinic'
loop_
_space_group_symop_operation_xyz
x,y,z
-x,y,1/2-z
-x,-y,-z
x,-y,1/2+z
1/2+x,1/2+y,z
1/2-x,1/2+y,1/2-z
1/2-x,1/2-y,-z
1/2+x,1/2-y,1/2+z
loop_
_atom_site_type_symbol
_atom_site_label
_atom_site_fract_x
_atom_site_fract_y
_atom_site_fract_z
Si Si1 0.184769 0.137986 0.524305
Si Si2 0.974943 0.029068 0.355342
Si Si3 0.224719 0.134622 0.299317
Si Si4 0.988113 0.759674 0.877393
Si Si5 0.404247 0.941168 0.271830
Si Si6 0.500000 0.929987 0.750000
Si Si7 0.501037 0.133720 0.463433
O O1 0.250423 0.147398 0.451300
O O2 0.277816 0.099225 0.672354
O O3 0.072134 0.088827 0.417201
O O4 0.116337 0.205070 0.509031
O O5 0.839940 0.062942 0.258147
O O6 0.000000 0.993014 0.250000
O O7 0.000000 0.000000 0.500000
O O8 0.124299 0.188811 0.190323
O O9 0.355324 0.139348 0.334824
O O10 0.000000 0.747567 0.750000
O O11 0.962789 0.696473 0.935570
O O12 0.500000 0.911314 0.250000
O O13 0.467069 0.928933 0.436395
O O14 0.403033 0.017572 0.234290
O O15 0.439203 0.883359 0.612648
#
# Coordination Sequence:
#
# PCOD9279848 Si02
#       7
#     8   8   8   8   8   4   8
#     4   9  18  37  57  90 120 141 189 254 293 339
#     4   9  19  35  57  83 115 153 193 241 298 350
#     4   9  19  36  58  85 116 148 191 248 294 340
#     4   9  21  35  63  92 112 145 198 246 297 337
#     4  10  21  36  60  87 114 151 194 238 297 343
#     4  10  26  40  52  84 122 164 192 230 294 364
#     4  12  22  39  60  84 119 156 194 242 294 350
#
# _framework density 20.02101
#
# number of rings (size 3 to 8) (size 9 to 14) (size 15 to 20)
#    0.462    1.846    1.538    2.769    4.308    1.231 
#    2.769    0.769    6.769    0.000    0.000    0.000 
#    0.000    0.000    0.000    0.000    0.000    0.000 
#
# Total GULP energy -144739.672248 kJ/mol
# GULP energy per Si atom -5566.910471 kJ/mol
# Density = 1.997544 g / cm^3
# Si number density = 20.021010 Si / 1000 Ang^3
#
#
#
# Elastic Constant Matrix: (Units=GPa)
#
#
# Indices 1 2 3 4 5 6 
#
# 1 33.2412 21.6886 27.9740 0.0000 -5.0199 0.0000
# 2 21.6886 92.6495 40.3829 0.0000 -11.1029 0.0000
# 3 27.9740 40.3829 87.4773 0.0000 -10.1523 0.0000
# 4 0.0000 0.0000 0.0000 26.2072 0.0000 2.8112
# 5 -5.0199 -11.1029 -10.1523 0.0000 39.3798 0.0000
# 6 0.0000 0.0000 0.0000 2.8112 0.0000 -6.6015
#
#
#
# Elastic Compliance Matrix: (Units=1/GPa)
#
#
# Indices 1 2 3 4 5 6 
#
# 1 0.043052 -0.005004 -0.011323 0.000000 0.001158 0.000000
# 2 -0.005004 0.014294 -0.004747 0.000000 0.002168 0.000000
# 3 -0.011323 -0.004747 0.017443 0.000000 0.001715 0.000000
# 4 0.000000 0.000000 0.000000 0.036491 0.000000 0.015539
# 5 0.001158 0.002168 0.001715 0.000000 0.026595 0.000000
# 6 0.000000 0.000000 0.000000 0.015539 0.000000 -0.144862
#
#
# Mechanical properties :
#
#
# Convention : Reuss Voigt Hill
#
# Bulk Modulus (GPa) = 30.63636 43.71767 37.17701
# Shear Modulus (GPa) = 108.60509 20.01857 64.31183
#
# Velocity S-wave (km/s) = 7.37315 3.16552 5.67379
# Velocity P-wave (km/s) = 9.37122 5.93666 7.84422
#
# Compressibility (1/GPa) = 0.03264095
#
# Stress axis : x y z
#
# Youngs Moduli (GPa) = 23.22787 69.96184 57.33058
#
# Poissons Ratio (x) = 0.35009 0.64915
# Poissons Ratio (y) = 0.11623 0.27212
# Poissons Ratio (z) = 0.26301 0.33208
#
# Static dielectric constant tensor:
#      x y z
#    x 1.750160 0.000000 0.004570 
#    y 0.000000 1.758310 0.000000 
#    z 0.004570 0.000000 1.785170 
# 
# From -- ./inp_files/100522.got.cif
#   From: 2010.05.17/outbox.cif.g08.bks.cpg/sg15_51_cif.got.tgz:100522.got - 2010.06.03 18:47:42.
