data_PCOD9279555
_publ_section_title
;
Structure prediction by ZEFSAII (Michael W. Deem and Ramdas Pophale) SiO2 
 PCOD9279555
Probable space group: C 2/C
;
_chemical_formula_sum "Si O2"
_cell_formula_units_Z 56
_cell_length_a 29.627660
_cell_length_b 13.003916
_cell_length_c 8.793612
_cell_angle_alpha 90.000000
_cell_angle_beta 61.970477
_cell_angle_gamma 90.000000
_cell_volume 2990.574830
_symmetry_space_group_name_H-M "C 2/C"
_symmetry_group_IT_number 15
_symmetry_cell_setting 'monoclinic'
loop_
_space_group_symop_operation_xyz
x,y,z
-x,y,1/2-z
-x,-y,-z
x,-y,1/2+z
1/2+x,1/2+y,z
1/2-x,1/2+y,1/2-z
1/2-x,1/2-y,-z
1/2+x,1/2-y,1/2+z
loop_
_atom_site_type_symbol
_atom_site_label
_atom_site_fract_x
_atom_site_fract_y
_atom_site_fract_z
Si Si1 0.211959 0.595685 0.766257
Si Si2 0.759618 0.389292 0.623266
Si Si3 0.031006 0.082277 0.055533
Si Si4 0.874552 0.939191 0.890037
Si Si5 0.352739 0.707449 0.162171
Si Si6 0.804318 0.803166 0.200481
Si Si7 0.886205 0.838146 0.287053
O O1 0.212954 0.481229 0.829885
O O2 0.238280 0.589555 0.558877
O O3 0.164594 0.672787 0.810247
O O4 0.248506 0.655402 0.829328
O O5 0.701151 0.358353 0.761464
O O6 0.792993 0.288311 0.603233
O O7 0.077127 0.033136 0.080574
O O8 0.000000 0.127628 0.250000
O O9 0.061147 0.156959 0.891177
O O10 0.000000 0.000000 0.000000
O O11 0.881399 0.846221 0.758830
O O12 0.863537 0.045329 0.824384
O O13 0.832284 0.895503 0.069002
O O14 0.387321 0.693975 0.959029
O O15 0.843034 0.771935 0.270395
#
# Coordination Sequence:
#
# PCOD9279555 Si02
#       7
#     8   8   8   8   8   8   8
#     4  11  22  36  55  76 116 155 199 247 280 323
#     4  11  22  37  54  77 119 155 203 243 282 314
#     4  11  23  38  53  81 113 150 181 224 295 351
#     4  11  19  37  56  78 114 153 187 231 279 343
#     4  11  22  37  55  83 112 154 207 234 277 338
#     4  10  21  36  51  79 113 157 201 239 276 333
#     4  11  23  33  58  82 110 153 193 227 281 353
#
# _framework density 18.725496
#
# number of rings (size 3 to 8) (size 9 to 14) (size 15 to 20)
#    0.000    1.143    4.286    4.286    4.000    1.143 
#    0.000    0.000    0.000    0.000    0.000    0.000 
#    0.000   18.286    1.714    0.143    0.000    0.000 
#
# Total GULP energy -155870.825215 kJ/mol
# GULP energy per Si atom -5566.815186 kJ/mol
# Density = 1.868288 g / cm^3
# Si number density = 18.725496 Si / 1000 Ang^3
#
#
#
# Elastic Constant Matrix: (Units=GPa)
#
#
# Indices 1 2 3 4 5 6 
#
# 1 83.5206 15.2291 16.5019 0.0000 18.9744 0.0000
# 2 15.2291 72.2197 10.0982 0.0000 -1.4531 0.0000
# 3 16.5019 10.0982 100.6435 0.0000 0.0902 0.0000
# 4 0.0000 0.0000 0.0000 24.6322 0.0000 7.8813
# 5 18.9744 -1.4531 0.0902 0.0000 23.6542 0.0000
# 6 0.0000 0.0000 0.0000 7.8813 0.0000 20.0857
#
#
#
# Elastic Compliance Matrix: (Units=1/GPa)
#
#
# Indices 1 2 3 4 5 6 
#
# 1 0.015984 -0.003314 -0.002277 0.000000 -0.013017 0.000000
# 2 -0.003314 0.014749 -0.000940 0.000000 0.003568 0.000000
# 3 -0.002277 -0.000940 0.010402 0.000000 0.001729 0.000000
# 4 0.000000 0.000000 0.000000 0.046426 0.000000 -0.018217
# 5 -0.013017 0.003568 0.001729 0.000000 0.052930 0.000000
# 6 0.000000 0.000000 0.000000 -0.018217 0.000000 0.056935
#
#
# Mechanical properties :
#
#
# Convention : Reuss Voigt Hill
#
# Bulk Modulus (GPa) = 35.61992 37.78248 36.70120
# Shear Modulus (GPa) = 22.74331 27.97805 25.36068
#
# Velocity S-wave (km/s) = 3.48884 3.86957 3.68413
# Velocity P-wave (km/s) = 5.94077 6.33921 6.14322
#
# Compressibility (1/GPa) = 0.02807418
#
# Stress axis : x y z
#
# Youngs Moduli (GPa) = 62.56082 67.80259 96.13462
#
# Poissons Ratio (x) = 0.22471 0.21887
# Poissons Ratio (y) = 0.20734 0.09033
# Poissons Ratio (z) = 0.14243 0.06371
#
# Static dielectric constant tensor:
#      x y z
#    x 1.716030 0.000000 -0.011240 
#    y 0.000000 1.650220 0.000000 
#    z -0.011240 0.000000 1.713210 
# 
# From -- ./inp_files/65453.got.cif
#   From: 2010.05.17/outbox.cif.g08.bks.cpg/sg15_33_cif.got.tgz:65453.got - 2010.06.03 18:47:42.
