data_PCOD9279347
_publ_section_title
;
Structure prediction by ZEFSAII (Michael W. Deem and Ramdas Pophale) SiO2 
 PCOD9279347
Probable space group: C 2/C
;
_chemical_formula_sum "Si O2"
_cell_formula_units_Z 40
_cell_length_a 21.941627
_cell_length_b 7.929340
_cell_length_c 9.275031
_cell_angle_alpha 90.000000
_cell_angle_beta 111.331846
_cell_angle_gamma 90.000000
_cell_volume 1503.138691
_symmetry_space_group_name_H-M "C 2/C"
_symmetry_group_IT_number 15
_symmetry_cell_setting 'monoclinic'
loop_
_space_group_symop_operation_xyz
x,y,z
-x,y,1/2-z
-x,-y,-z
x,-y,1/2+z
1/2+x,1/2+y,z
1/2-x,1/2+y,1/2-z
1/2-x,1/2-y,-z
1/2+x,1/2-y,1/2+z
loop_
_atom_site_type_symbol
_atom_site_label
_atom_site_fract_x
_atom_site_fract_y
_atom_site_fract_z
Si Si1 0.112354 0.986548 0.365564
Si Si2 0.860275 0.674575 0.794503
Si Si3 0.081824 0.208997 0.577464
Si Si4 0.065344 0.528679 0.387722
Si Si5 0.278033 0.365203 0.396436
O O1 0.127674 0.141883 0.266722
O O2 0.066122 0.058760 0.451364
O O3 0.184090 0.971843 0.504586
O O4 0.079871 0.846605 0.239685
O O5 0.886927 0.546701 0.694381
O O6 0.785134 0.620096 0.756650
O O7 0.899917 0.659060 0.976286
O O8 0.049132 0.371561 0.481736
O O9 0.160685 0.229530 0.622233
O O10 0.000000 0.574312 0.250000
O O11 0.250000 0.250000 0.500000
#
# Coordination Sequence:
#
# PCOD9279347 Si02
#       5
#     8   8   8   8   8
#     4   8  18  34  53  82 109 134 173 220 278 321
#     4  10  21  35  58  78 108 145 177 228 267 319
#     4   9  19  34  57  79 113 140 174 228 270 322
#     4  11  23  39  53  78 110 149 185 219 265 321
#     4   8  16  33  56  78 115 133 172 218 287 308
#
# _framework density 26.610987000000002
#
# number of rings (size 3 to 8) (size 9 to 14) (size 15 to 20)
#    1.200    1.600    2.000    0.600    2.800    1.600 
#    0.000    6.000    0.000    0.000    0.000    0.000 
#    0.000    0.000    0.000    0.000    0.000    0.000 
#
# Total GULP energy -111806.696965 kJ/mol
# GULP energy per Si atom -5590.334848 kJ/mol
# Density = 2.655042 g / cm^3
# Si number density = 26.610987 Si / 1000 Ang^3
#
#
#
# Elastic Constant Matrix: (Units=GPa)
#
#
# Indices 1 2 3 4 5 6 
#
# 1 87.2858 39.5143 55.7529 0.0000 13.4915 0.0000
# 2 39.5143 75.3305 56.1722 0.0000 16.0900 0.0000
# 3 55.7529 56.1722 231.8392 0.0000 11.5504 0.0000
# 4 0.0000 0.0000 0.0000 53.1888 0.0000 -5.1516
# 5 13.4915 16.0900 11.5504 0.0000 48.9454 0.0000
# 6 0.0000 0.0000 0.0000 -5.1516 0.0000 31.1293
#
#
#
# Elastic Compliance Matrix: (Units=1/GPa)
#
#
# Indices 1 2 3 4 5 6 
#
# 1 0.016039 -0.006370 -0.002224 0.000000 -0.001802 0.000000
# 2 -0.006370 0.019751 -0.003053 0.000000 -0.004016 0.000000
# 3 -0.002224 -0.003053 0.005573 0.000000 0.000302 0.000000
# 4 0.000000 0.000000 0.000000 0.019107 0.000000 0.003162
# 5 -0.001802 -0.004016 0.000302 0.000000 0.022177 0.000000
# 6 0.000000 0.000000 0.000000 0.003162 0.000000 0.032647
#
#
# Mechanical properties :
#
#
# Convention : Reuss Voigt Hill
#
# Bulk Modulus (GPa) = 55.34552 77.48159 66.41356
# Shear Modulus (GPa) = 34.57510 42.85377 38.71443
#
# Velocity S-wave (km/s) = 3.60846 4.01731 3.81836
# Velocity P-wave (km/s) = 6.18098 7.12025 6.66717
#
# Compressibility (1/GPa) = 0.01806831
#
# Stress axis : x y z
#
# Youngs Moduli (GPa) = 62.34616 50.63034 179.43790
#
# Poissons Ratio (x) = 0.32252 0.39907
# Poissons Ratio (y) = 0.39715 0.54791
# Poissons Ratio (z) = 0.13866 0.15460
#
# Static dielectric constant tensor:
#      x y z
#    x 2.109490 0.000000 -0.008990 
#    y 0.000000 2.236820 0.000000 
#    z -0.008990 0.000000 2.118100 
# 
# From -- ./inp_files/64832.got.cif
#   From: 2010.05.17/outbox.cif.g08.bks.cpg/sg15_33_cif.got.tgz:64832.got - 2010.06.03 18:47:42.
