data_PCOD9279174
_publ_section_title
;
Structure prediction by ZEFSAII (Michael W. Deem and Ramdas Pophale) SiO2 
 PCOD9279174
Probable space group: C 2/C
;
_chemical_formula_sum "Si O2"
_cell_formula_units_Z 60
_cell_length_a 13.472133
_cell_length_b 17.249951
_cell_length_c 24.000821
_cell_angle_alpha 90.000000
_cell_angle_beta 33.085251
_cell_angle_gamma 90.000000
_cell_volume 3044.756170
_symmetry_space_group_name_H-M "C 2/C"
_symmetry_group_IT_number 15
_symmetry_cell_setting 'monoclinic'
loop_
_space_group_symop_operation_xyz
x,y,z
-x,y,1/2-z
-x,-y,-z
x,-y,1/2+z
1/2+x,1/2+y,z
1/2-x,1/2+y,1/2-z
1/2-x,1/2-y,-z
1/2+x,1/2-y,1/2+z
loop_
_atom_site_type_symbol
_atom_site_label
_atom_site_fract_x
_atom_site_fract_y
_atom_site_fract_z
Si Si1 0.736091 0.185556 0.957192
Si Si2 0.004304 0.906928 0.094452
Si Si3 0.678305 0.704426 0.979841
Si Si4 0.318177 0.002158 0.258868
Si Si5 0.274845 0.025701 0.912359
Si Si6 0.137914 0.743759 0.381966
Si Si7 0.000000 0.736418 0.250000
Si Si8 0.277322 0.674602 0.206276
O O1 0.849074 0.114232 0.927716
O O2 0.844494 0.215047 0.852947
O O3 0.750000 0.250000 0.000000
O O4 0.524471 0.180806 0.043172
O O5 0.955786 0.828308 0.083762
O O6 0.810235 0.936801 0.207541
O O7 0.106818 0.972180 0.010303
O O8 0.459952 0.698438 0.088758
O O9 0.750000 0.750000 0.000000
O O10 0.745770 0.615824 0.941084
O O11 0.727727 0.749811 0.899894
O O12 0.231557 0.082925 0.280681
O O13 0.534384 0.999451 0.148980
O O14 0.294371 0.987286 0.336723
O O15 0.259801 0.722867 0.271523
O O16 0.100897 0.689087 0.250622
#
# Coordination Sequence:
#
# PCOD9279174 Si02
#       8
#     8   8   8   8   8   8   4   8
#     4  10  21  34  61  95 124 164 201 274 326 386
#     4  11  20  39  63  93 129 165 212 275 327 390
#     4  12  27  43  67  95 136 179 224 273 331 408
#     4  11  23  36  67  93 129 174 215 273 336 395
#     4  11  23  39  63  97 133 167 221 278 334 385
#     4  11  23  41  65  95 135 169 217 277 337 391
#     4  12  20  34  64  96 128 158 220 260 334 396
#     4  12  24  40  66 103 131 174 219 275 336 400
#
# _framework density 19.706012999999999
#
# number of rings (size 3 to 8) (size 9 to 14) (size 15 to 20)
#    0.000    0.800    6.667    2.800    5.600    0.533 
#    0.000    0.000    2.933    1.600    0.000    0.000 
#    0.000    0.000    0.000    0.000    0.000    0.000 
#
# Total GULP energy -167452.241604 kJ/mol
# GULP energy per Si atom -5581.741387 kJ/mol
# Density = 1.966116 g / cm^3
# Si number density = 19.706013 Si / 1000 Ang^3
#
#
#
# Elastic Constant Matrix: (Units=GPa)
#
#
# Indices 1 2 3 4 5 6 
#
# 1 69.9722 39.6995 4.9495 0.0001 8.6639 0.0007
# 2 39.6995 69.3448 13.9701 0.0000 9.4034 0.0003
# 3 4.9495 13.9701 76.8482 0.0002 3.6929 0.0015
# 4 0.0001 0.0000 0.0002 25.8461 0.0001 -9.8634
# 5 8.6639 9.4034 3.6929 0.0001 36.7932 -0.0006
# 6 0.0007 0.0003 0.0015 -9.8634 -0.0006 26.4262
#
#
#
# Elastic Compliance Matrix: (Units=1/GPa)
#
#
# Indices 1 2 3 4 5 6 
#
# 1 0.021367 -0.012145 0.000929 0.000000 -0.002021 -0.000001
# 2 -0.012145 0.022354 -0.003160 0.000000 -0.002536 0.000000
# 3 0.000929 -0.003160 0.013564 0.000000 -0.000773 -0.000001
# 4 0.000000 0.000000 0.000000 0.045117 0.000000 0.016840
# 5 -0.002021 -0.002536 -0.000773 0.000000 0.028380 0.000001
# 6 -0.000001 0.000000 -0.000001 0.016840 0.000001 0.044126
#
#
# Mechanical properties :
#
#
# Convention : Reuss Voigt Hill
#
# Bulk Modulus (GPa) = 35.04726 37.04484 36.04605
# Shear Modulus (GPa) = 23.45515 28.31618 25.88567
#
# Velocity S-wave (km/s) = 3.45375 3.79480 3.62828
# Velocity P-wave (km/s) = 5.80760 6.16768 5.99034
#
# Compressibility (1/GPa) = 0.02853290
#
# Stress axis : x y z
#
# Youngs Moduli (GPa) = 46.80167 44.73402 73.72266
#
# Poissons Ratio (x) = 0.54332 -0.06848
# Poissons Ratio (y) = 0.56843 0.23294
# Poissons Ratio (z) = -0.04347 0.14134
#
# Static dielectric constant tensor:
#      x y z
#    x 1.737170 0.000000 -0.008320 
#    y 0.000000 1.721880 0.000000 
#    z -0.008320 0.000000 1.696530 
# 
# From -- ./inp_files/239966.got.cif
#   From: 2010.05.17/outbox.cif.g08.bks.cpg/sg15_120_cif.got.tgz:239966.got - 2010.06.03 18:47:42.
