data_PCOD9279305
_publ_section_title
;
Structure prediction by ZEFSAII (Michael W. Deem and Ramdas Pophale) SiO2 
 PCOD9279305
Probable space group: C 2/C
;
_chemical_formula_sum "Si O2"
_cell_formula_units_Z 64
_cell_length_a 14.628284
_cell_length_b 8.885794
_cell_length_c 25.232857
_cell_angle_alpha 90.000000
_cell_angle_beta 64.182878
_cell_angle_gamma 90.000000
_cell_volume 2952.497866
_symmetry_space_group_name_H-M "C 2/C"
_symmetry_group_IT_number 15
_symmetry_cell_setting 'monoclinic'
loop_
_space_group_symop_operation_xyz
x,y,z
-x,y,1/2-z
-x,-y,-z
x,-y,1/2+z
1/2+x,1/2+y,z
1/2-x,1/2+y,1/2-z
1/2-x,1/2-y,-z
1/2+x,1/2-y,1/2+z
loop_
_atom_site_type_symbol
_atom_site_label
_atom_site_fract_x
_atom_site_fract_y
_atom_site_fract_z
Si Si1 0.100575 0.804706 0.003439
Si Si2 0.127267 0.877064 0.440779
Si Si3 0.800278 0.205935 0.255786
Si Si4 0.211006 0.845791 0.086247
Si Si5 0.011516 0.387092 0.311723
Si Si6 0.456517 0.217390 0.319521
Si Si7 0.122922 0.093542 0.817806
Si Si8 0.676160 0.690200 0.122851
O O1 0.171313 0.693892 0.951497
O O2 0.120519 0.975769 0.978835
O O3 0.146960 0.792151 0.050736
O O4 0.979223 0.785449 0.028938
O O5 0.134020 0.925566 0.377548
O O6 0.230044 0.784943 0.424636
O O7 0.686054 0.262882 0.280739
O O8 0.816503 0.192741 0.314914
O O9 0.873893 0.330979 0.211049
O O10 0.832757 0.050723 0.221925
O O11 0.162927 0.747724 0.145965
O O12 0.190615 0.020916 0.100055
O O13 0.985613 0.555692 0.336352
O O14 0.932189 0.271619 0.358660
O O15 0.000000 0.384354 0.250000
O O16 0.500000 0.216251 0.250000
O O17 0.508699 0.362276 0.333169
#
# Coordination Sequence:
#
# PCOD9279305 Si02
#       8
#     8   8   8   8   8   8   8   8
#     4  10  23  42  63  84 120 162 208 248 297 354
#     4  10  22  42  61  83 121 163 199 253 301 350
#     4  10  21  35  56  89 127 155 197 242 302 368
#     4  11  22  39  65  92 116 159 204 254 296 355
#     4   9  19  35  54  85 120 158 190 237 294 367
#     4  11  21  36  61  88 120 156 200 244 308 366
#     4  11  21  36  58  86 121 164 197 248 304 362
#     4  10  21  37  62  89 122 152 199 250 303 352
#
# _framework density 21.676559999999998
#
# number of rings (size 3 to 8) (size 9 to 14) (size 15 to 20)
#    0.000    1.750    1.250    3.000    0.000    6.000 
#    0.000    0.000    0.000    0.000    0.000    0.000 
#    0.000    0.000    0.000    0.000    0.000    0.000 
#
# Total GULP energy -178696.298400 kJ/mol
# GULP energy per Si atom -5584.259325 kJ/mol
# Density = 2.162722 g / cm^3
# Si number density = 21.676560 Si / 1000 Ang^3
#
#
#
# Elastic Constant Matrix: (Units=GPa)
#
#
# Indices 1 2 3 4 5 6 
#
# 1 30.7911 -10.6641 16.8614 0.0000 -22.6049 0.0000
# 2 -10.6641 67.0014 25.2792 0.0000 -10.6706 0.0000
# 3 16.8614 25.2792 103.0832 0.0000 -35.1047 0.0000
# 4 0.0000 0.0000 0.0000 34.4215 0.0000 -11.5189
# 5 -22.6049 -10.6706 -35.1047 0.0000 30.9566 0.0000
# 6 0.0000 0.0000 0.0000 -11.5189 0.0000 22.5423
#
#
#
# Elastic Compliance Matrix: (Units=1/GPa)
#
#
# Indices 1 2 3 4 5 6 
#
# 1 0.117594 0.032280 0.009580 0.000000 0.107859 0.000000
# 2 0.032280 0.025368 -0.000808 0.000000 0.031399 0.000000
# 3 0.009580 -0.000808 0.017301 0.000000 0.026336 0.000000
# 4 0.000000 0.000000 0.000000 0.035044 0.000000 0.017907
# 5 0.107859 0.031399 0.026336 0.000000 0.151751 0.000000
# 6 0.000000 0.000000 0.000000 0.017907 0.000000 0.053511
#
#
# Mechanical properties :
#
#
# Convention : Reuss Voigt Hill
#
# Bulk Modulus (GPa) = 4.12599 29.31431 16.72015
# Shear Modulus (GPa) = 12.52330 28.87737 20.70034
#
# Velocity S-wave (km/s) = 2.40622 3.65388 3.09360
# Velocity P-wave (km/s) = 3.10281 5.59946 4.52667
#
# Compressibility (1/GPa) = 0.24236616
#
# Stress axis : x y z
#
# Youngs Moduli (GPa) = 8.50381 39.41931 57.80108
#
# Poissons Ratio (x) = -1.27244 -0.55375
# Poissons Ratio (y) = -0.27450 0.04673
# Poissons Ratio (z) = -0.08147 0.03187
#
# Static dielectric constant tensor:
#      x y z
#    x 1.779690 0.000000 0.000060 
#    y 0.000000 1.761440 0.000000 
#    z 0.000060 0.000000 1.810560 
# 
# From -- ./inp_files/313121.got.cif
#   From: 2010.05.17/outbox.cif.g08.bks.cpg/sg15_157_cif.got.tgz:313121.got - 2010.06.03 18:47:42.
