data_PCOD9279698
_publ_section_title
;
Structure prediction by ZEFSAII (Michael W. Deem and Ramdas Pophale) SiO2 
 PCOD9279698
Probable space group: C 2/C
;
_chemical_formula_sum "Si O2"
_cell_formula_units_Z 32
_cell_length_a 16.398518
_cell_length_b 13.338851
_cell_length_c 5.362287
_cell_angle_alpha 90.000000
_cell_angle_beta 91.939189
_cell_angle_gamma 90.000000
_cell_volume 1172.260920
_symmetry_space_group_name_H-M "C 2/C"
_symmetry_group_IT_number 15
_symmetry_cell_setting 'monoclinic'
loop_
_space_group_symop_operation_xyz
x,y,z
-x,y,1/2-z
-x,-y,-z
x,-y,1/2+z
1/2+x,1/2+y,z
1/2-x,1/2+y,1/2-z
1/2-x,1/2-y,-z
1/2+x,1/2-y,1/2+z
loop_
_atom_site_type_symbol
_atom_site_label
_atom_site_fract_x
_atom_site_fract_y
_atom_site_fract_z
Si Si1 0.319276 0.363404 0.769709
Si Si2 0.280242 0.870673 0.230580
Si Si3 0.058374 0.407231 0.061747
Si Si4 0.000000 0.751198 0.250000
Si Si5 0.000000 0.125386 0.250000
O O1 0.319540 0.241875 0.723263
O O2 0.265518 0.397451 0.527987
O O3 0.408031 0.415226 0.783439
O O4 0.278355 0.373581 0.036202
O O5 0.358818 0.937609 0.299387
O O6 0.000000 0.349015 0.250000
O O7 0.070375 0.328925 0.837041
O O8 0.000000 0.500000 0.000000
O O9 0.984513 0.820545 0.482259
#
# Coordination Sequence:
#
# PCOD9279698 Si02
#       5
#     8   8   8   4   4
#     4  10  21  36  57  80 115 154 201 252 295 369
#     4  10  22  36  54  82 116 157 202 245 300 355
#     4  12  25  38  58  83 123 168 204 244 297 369
#     4  12  22  35  56  84 116 162 201 246 282 374
#     4  12  22  37  62  86 116 160 205 248 314 362
#
# _framework density 27.297678999999999
#
# number of rings (size 3 to 8) (size 9 to 14) (size 15 to 20)
#    0.000    1.000    5.000    1.500   10.500    0.000 
#    0.000    0.000    0.000    0.000    0.000    0.000 
#    0.000   20.000    0.000    0.000    0.000    0.000 
#
# Total GULP energy -89481.705147 kJ/mol
# GULP energy per Si atom -5592.606572 kJ/mol
# Density = 2.723555 g / cm^3
# Si number density = 27.297679 Si / 1000 Ang^3
#
#
#
# Elastic Constant Matrix: (Units=GPa)
#
#
# Indices 1 2 3 4 5 6 
#
# 1 212.7767 11.3368 56.2520 0.0000 25.8646 0.0000
# 2 11.3368 54.0966 9.9598 0.0000 4.4714 0.0000
# 3 56.2520 9.9598 186.8040 0.0000 23.0857 0.0000
# 4 0.0000 0.0000 0.0000 24.6567 0.0000 8.8940
# 5 25.8646 4.4714 23.0857 0.0000 49.9126 0.0000
# 6 0.0000 0.0000 0.0000 8.8940 0.0000 24.7215
#
#
#
# Elastic Compliance Matrix: (Units=1/GPa)
#
#
# Indices 1 2 3 4 5 6 
#
# 1 0.005339 -0.000704 -0.001311 0.000000 -0.002097 0.000000
# 2 -0.000704 0.018840 -0.000667 0.000000 -0.001014 0.000000
# 3 -0.001311 -0.000667 0.006037 0.000000 -0.002053 0.000000
# 4 0.000000 0.000000 0.000000 0.046605 0.000000 -0.016767
# 5 -0.002097 -0.001014 -0.002053 0.000000 0.022162 0.000000
# 6 0.000000 0.000000 0.000000 -0.016767 0.000000 0.046483
#
#
# Mechanical properties :
#
#
# Convention : Reuss Voigt Hill
#
# Bulk Modulus (GPa) = 40.23919 67.64163 53.94041
# Shear Modulus (GPa) = 31.42400 44.93340 38.17870
#
# Velocity S-wave (km/s) = 3.39656 4.06156 3.74385
# Velocity P-wave (km/s) = 5.49136 6.84310 6.20415
#
# Compressibility (1/GPa) = 0.02485139
#
# Stress axis : x y z
#
# Youngs Moduli (GPa) = 187.30876 53.07951 165.63735
#
# Poissons Ratio (x) = 0.03737 0.21714
# Poissons Ratio (y) = 0.13189 0.11049
# Poissons Ratio (z) = 0.24555 0.03541
#
# Static dielectric constant tensor:
#      x y z
#    x 2.166600 0.000000 -0.073380 
#    y 0.000000 2.270360 0.000000 
#    z -0.073380 0.000000 2.361350 
# 
# From -- ./inp_files/6542.got.cif
#   From: 2010.05.17/outbox.cif.g08.bks.cpg/sg15_4_cif.got.tgz:6542.got - 2010.06.03 18:47:42.
