data_PCOD9279199
_publ_section_title
;
Structure prediction by ZEFSAII (Michael W. Deem and Ramdas Pophale) SiO2 
 PCOD9279199
Probable space group: C 2/C
;
_chemical_formula_sum "Si O2"
_cell_formula_units_Z 56
_cell_length_a 20.774734
_cell_length_b 27.743423
_cell_length_c 5.175343
_cell_angle_alpha 90.000000
_cell_angle_beta 79.153641
_cell_angle_gamma 90.000000
_cell_volume 2929.584178
_symmetry_space_group_name_H-M "C 2/C"
_symmetry_group_IT_number 15
_symmetry_cell_setting 'monoclinic'
loop_
_space_group_symop_operation_xyz
x,y,z
-x,y,1/2-z
-x,-y,-z
x,-y,1/2+z
1/2+x,1/2+y,z
1/2-x,1/2+y,1/2-z
1/2-x,1/2-y,-z
1/2+x,1/2-y,1/2+z
loop_
_atom_site_type_symbol
_atom_site_label
_atom_site_fract_x
_atom_site_fract_y
_atom_site_fract_z
Si Si1 0.778817 0.527919 0.503104
Si Si2 0.039666 0.902606 0.980377
Si Si3 0.243276 0.357018 0.493491
Si Si4 0.111113 0.184499 0.645242
Si Si5 0.376044 0.479304 0.410706
Si Si6 0.078433 0.759029 0.677912
Si Si7 0.797042 0.298086 0.471997
O O1 0.806192 0.500405 0.733611
O O2 0.778311 0.586580 0.499304
O O3 0.701084 0.516907 0.562383
O O4 0.058138 0.849603 0.051288
O O5 0.106712 0.932106 0.938347
O O6 0.000000 0.924429 0.250000
O O7 0.000000 0.904334 0.750000
O O8 0.320688 0.344687 0.394026
O O9 0.225928 0.332561 0.779164
O O10 0.209929 0.327145 0.288264
O O11 0.109325 0.227455 0.435916
O O12 0.090718 0.200117 0.948525
O O13 0.401482 0.518450 0.598277
O O14 0.127560 0.717347 0.544867
O O15 0.000000 0.749796 0.750000
O O16 0.750000 0.250000 0.500000
#
# Coordination Sequence:
#
# PCOD9279199 Si02
#       7
#     8   8   8   8   8   8   8
#     4  10  21  38  59  83 115 153 196 253 313 361
#     4  12  24  35  49  70  99 139 196 248 286 334
#     4  12  22  39  64  90 120 157 208 251 305 365
#     4  12  22  39  57  81 113 156 203 245 292 343
#     4  10  21  35  50  67  94 136 184 238 300 346
#     4  12  25  40  60  84 123 162 200 242 297 361
#     4  12  23  39  62  92 124 160 201 255 300 365
#
# _framework density 19.115341000000001
#
# number of rings (size 3 to 8) (size 9 to 14) (size 15 to 20)
#    0.000    0.571    4.286    5.571    0.000    1.714 
#    0.000    0.000    0.000    0.000    0.000    0.000 
#    0.000   11.429    0.000    0.000    0.000    0.000 
#
# Total GULP energy -156048.141366 kJ/mol
# GULP energy per Si atom -5573.147906 kJ/mol
# Density = 1.907183 g / cm^3
# Si number density = 19.115341 Si / 1000 Ang^3
#
#
#
# Elastic Constant Matrix: (Units=GPa)
#
#
# Indices 1 2 3 4 5 6 
#
# 1 48.3775 18.5706 10.9410 0.0000 -4.5073 0.0000
# 2 18.5706 88.2220 32.1119 0.0000 6.0834 0.0000
# 3 10.9410 32.1119 103.6555 0.0000 19.7210 0.0000
# 4 0.0000 0.0000 0.0000 29.4283 0.0000 7.2145
# 5 -4.5073 6.0834 19.7210 0.0000 28.0761 0.0000
# 6 0.0000 0.0000 0.0000 7.2145 0.0000 28.3427
#
#
#
# Elastic Compliance Matrix: (Units=1/GPa)
#
#
# Indices 1 2 3 4 5 6 
#
# 1 0.023531 -0.004562 -0.002282 0.000000 0.006369 0.000000
# 2 -0.004562 0.013660 -0.003518 0.000000 -0.001221 0.000000
# 3 -0.002282 -0.003518 0.012585 0.000000 -0.008444 0.000000
# 4 0.000000 0.000000 0.000000 0.036242 0.000000 -0.009225
# 5 0.006369 -0.001221 -0.008444 0.000000 0.042835 0.000000
# 6 0.000000 0.000000 0.000000 -0.009225 0.000000 0.037631
#
#
# Mechanical properties :
#
#
# Convention : Reuss Voigt Hill
#
# Bulk Modulus (GPa) = 34.42129 40.38912 37.40520
# Shear Modulus (GPa) = 25.39453 29.07820 27.23637
#
# Velocity S-wave (km/s) = 3.64880 3.90448 3.77880
# Velocity P-wave (km/s) = 5.98313 6.44218 6.21690
#
# Compressibility (1/GPa) = 0.02905179
#
# Stress axis : x y z
#
# Youngs Moduli (GPa) = 42.49630 73.20650 79.46257
#
# Poissons Ratio (x) = 0.33395 0.18136
# Poissons Ratio (y) = 0.19386 0.27955
# Poissons Ratio (z) = 0.09699 0.25754
#
# Static dielectric constant tensor:
#      x y z
#    x 1.688720 0.000000 -0.000220 
#    y 0.000000 1.759880 0.000000 
#    z -0.000220 0.000000 1.775170 
# 
# From -- ./inp_files/13689.got.cif
#   From: 2010.05.17/outbox.cif.g08.bks.cpg/sg15_7_cif.got.tgz:13689.got - 2010.06.03 18:47:42.
