data_PCOD9279069
_publ_section_title
;
Structure prediction by ZEFSAII (Michael W. Deem and Ramdas Pophale) SiO2 
 PCOD9279069
Probable space group: C 2/C
;
_chemical_formula_sum "Si O2"
_cell_formula_units_Z 60
_cell_length_a 26.566904
_cell_length_b 13.481658
_cell_length_c 8.494871
_cell_angle_alpha 90.000000
_cell_angle_beta 93.115274
_cell_angle_gamma 90.000000
_cell_volume 3038.076976
_symmetry_space_group_name_H-M "C 2/C"
_symmetry_group_IT_number 15
_symmetry_cell_setting 'monoclinic'
loop_
_space_group_symop_operation_xyz
x,y,z
-x,y,1/2-z
-x,-y,-z
x,-y,1/2+z
1/2+x,1/2+y,z
1/2-x,1/2+y,1/2-z
1/2-x,1/2-y,-z
1/2+x,1/2-y,1/2+z
loop_
_atom_site_type_symbol
_atom_site_label
_atom_site_fract_x
_atom_site_fract_y
_atom_site_fract_z
Si Si1 0.352730 0.915471 0.803251
Si Si2 0.336458 0.729834 0.004789
Si Si3 0.548746 0.959396 0.870386
Si Si4 0.790288 0.552869 0.004466
Si Si5 0.500000 0.496924 0.250000
Si Si6 0.739978 0.146069 0.814106
Si Si7 0.941922 0.130466 0.985263
Si Si8 0.990375 0.667948 0.568647
O O1 0.358723 0.824639 0.919794
O O2 0.402141 0.942732 0.719009
O O3 0.311275 0.891138 0.660847
O O4 0.334723 0.009165 0.902009
O O5 0.292168 0.689540 0.885439
O O6 0.305707 0.776665 0.149700
O O7 0.383333 0.652886 0.021406
O O8 0.500000 0.949005 0.750000
O O9 0.545287 0.070821 0.934849
O O10 0.541046 0.876496 0.001586
O O11 0.759455 0.615212 0.869804
O O12 0.767074 0.453164 0.078865
O O13 0.469707 0.566941 0.124767
O O14 0.457928 0.429538 0.331297
O O15 0.968144 0.238179 0.977899
O O16 0.000000 0.696788 0.750000
#
# Coordination Sequence:
#
# PCOD9279069 Si02
#       8
#     8   8   8   8   4   8   8   8
#     4  10  21  34  55  89 117 163 190 235 299 367
#     4  10  22  37  63  87 119 153 209 246 317 355
#     4  10  22  34  52  89 128 156 190 231 288 374
#     4   9  20  36  58  78 124 154 190 241 303 354
#     4  10  26  46  62  82 120 158 226 250 308 338
#     4   9  20  40  58  90 117 157 197 257 298 379
#     4  11  23  44  63  85 115 163 200 267 294 359
#     4  10  22  35  56  85 121 160 189 238 297 353
#
# _framework density 19.749337000000001
#
# number of rings (size 3 to 8) (size 9 to 14) (size 15 to 20)
#    0.000    2.133    0.667    0.800   14.000    1.600 
#    0.000    0.000    0.000    0.000    0.000    0.000 
#    0.000    0.000    0.000    0.000    0.000    0.000 
#
# Total GULP energy -167262.027645 kJ/mol
# GULP energy per Si atom -5575.400922 kJ/mol
# Density = 1.970439 g / cm^3
# Si number density = 19.749337 Si / 1000 Ang^3
#
#
#
# Elastic Constant Matrix: (Units=GPa)
#
#
# Indices 1 2 3 4 5 6 
#
# 1 57.0193 18.4248 -0.9107 0.0000 -0.5142 0.0000
# 2 18.4248 61.8084 -0.2366 0.0000 2.8461 0.0000
# 3 -0.9107 -0.2366 51.5002 0.0000 10.2985 0.0000
# 4 0.0000 0.0000 0.0000 16.6389 0.0000 4.3612
# 5 -0.5142 2.8461 10.2985 0.0000 23.6532 0.0000
# 6 0.0000 0.0000 0.0000 4.3612 0.0000 28.6781
#
#
#
# Elastic Compliance Matrix: (Units=1/GPa)
#
#
# Indices 1 2 3 4 5 6 
#
# 1 0.019438 -0.005844 0.000101 0.000000 0.001082 0.000000
# 2 -0.005844 0.018038 0.000481 0.000000 -0.002507 0.000000
# 3 0.000101 0.000481 0.021286 0.000000 -0.009323 0.000000
# 4 0.000000 0.000000 0.000000 0.062595 0.000000 -0.009519
# 5 0.001082 -0.002507 -0.009323 0.000000 0.046662 0.000000
# 6 0.000000 0.000000 0.000000 -0.009519 0.000000 0.036317
#
#
# Mechanical properties :
#
#
# Convention : Reuss Voigt Hill
#
# Bulk Modulus (GPa) = 20.73095 22.76475 21.74785
# Shear Modulus (GPa) = 21.65062 23.99738 22.82400
#
# Velocity S-wave (km/s) = 3.31459 3.48961 3.40322
# Velocity P-wave (km/s) = 5.01682 5.27147 5.14572
#
# Compressibility (1/GPa) = 0.04823705
#
# Stress axis : x y z
#
# Youngs Moduli (GPa) = 51.44673 55.43760 46.97965
#
# Poissons Ratio (x) = 0.32396 -0.00472
# Poissons Ratio (y) = 0.30064 -0.02259
# Poissons Ratio (z) = -0.00517 -0.02666
#
# Static dielectric constant tensor:
#      x y z
#    x 1.721710 0.000000 0.021690 
#    y 0.000000 1.700050 0.000000 
#    z 0.021690 0.000000 1.733040 
# 
# From -- ./inp_files/69085.got.cif
#   From: 2010.05.17/outbox.cif.g08.bks.cpg/sg15_35_cif.got.tgz:69085.got - 2010.06.03 18:47:42.
