data_PCOD9279862
_publ_section_title
;
Structure prediction by ZEFSAII (Michael W. Deem and Ramdas Pophale) SiO2 
 PCOD9279862
Probable space group: C 2/C
;
_chemical_formula_sum "Si O2"
_cell_formula_units_Z 28
_cell_length_a 19.960707
_cell_length_b 9.241601
_cell_length_c 17.224447
_cell_angle_alpha 90.000000
_cell_angle_beta 18.832684
_cell_angle_gamma 90.000000
_cell_volume 1025.674486
_symmetry_space_group_name_H-M "C 2/C"
_symmetry_group_IT_number 15
_symmetry_cell_setting 'monoclinic'
loop_
_space_group_symop_operation_xyz
x,y,z
-x,y,1/2-z
-x,-y,-z
x,-y,1/2+z
1/2+x,1/2+y,z
1/2-x,1/2+y,1/2-z
1/2-x,1/2-y,-z
1/2+x,1/2-y,1/2+z
loop_
_atom_site_type_symbol
_atom_site_label
_atom_site_fract_x
_atom_site_fract_y
_atom_site_fract_z
Si Si1 0.596975 0.339391 0.959053
Si Si2 0.000000 0.049881 0.250000
Si Si3 0.808187 0.893387 0.804997
Si Si4 0.591180 0.935615 0.770226
O O1 0.643896 0.289261 0.820021
O O2 0.799479 0.425552 0.765577
O O3 0.413312 0.454611 0.163411
O O4 0.534570 0.215099 0.088462
O O5 0.926527 0.139320 0.255311
O O6 0.794568 0.956024 0.493821
O O7 0.569065 0.938121 0.073022
#
# Coordination Sequence:
#
# PCOD9279862 Si02
#       4
#     8   4   8   8
#     4  10  21  36  60  89 120 163 202 249 296 362
#     4  10  24  38  60  92 130 158 192 252 312 362
#     4  10  21  39  57  87 127 161 201 244 305 362
#     4  11  20  38  60  93 122 157 202 253 302 358
#
# _framework density 27.299109000000001
#
# number of rings (size 3 to 8) (size 9 to 14) (size 15 to 20)
#    0.000    1.714    2.857    1.714    0.000    4.571 
#    0.000    0.000    0.000    1.714    0.000    0.000 
#    0.000    2.286    0.000    0.000    0.000    0.000 
#
# Total GULP energy -78263.949010 kJ/mol
# GULP energy per Si atom -5590.282072 kJ/mol
# Density = 2.723698 g / cm^3
# Si number density = 27.299109 Si / 1000 Ang^3
#
#
#
# Elastic Constant Matrix: (Units=GPa)
#
#
# Indices 1 2 3 4 5 6 
#
# 1 172.1208 23.1622 56.0608 -0.0013 2.4024 0.0006
# 2 23.1622 124.0293 71.6375 -0.0029 8.4839 0.0021
# 3 56.0608 71.6375 195.6528 -0.0049 -14.0342 0.0024
# 4 -0.0013 -0.0029 -0.0049 13.4422 0.0018 13.1086
# 5 2.4024 8.4839 -14.0342 0.0018 44.5318 -0.0009
# 6 0.0006 0.0021 0.0024 13.1086 -0.0009 16.0971
#
#
#
# Elastic Compliance Matrix: (Units=1/GPa)
#
#
# Indices 1 2 3 4 5 6 
#
# 1 0.006447 -0.000043 -0.001899 0.000000 -0.000938 0.000000
# 2 -0.000043 0.010691 -0.004142 0.000010 -0.003340 -0.000009
# 3 -0.001899 -0.004142 0.007403 0.000007 0.003225 -0.000006
# 4 0.000000 0.000010 0.000007 0.361353 -0.000021 -0.294265
# 5 -0.000938 -0.003340 0.003225 -0.000021 0.024159 0.000018
# 6 0.000000 -0.000009 -0.000006 -0.294265 0.000018 0.301755
#
#
# Mechanical properties :
#
#
# Convention : Reuss Voigt Hill
#
# Bulk Modulus (GPa) = 80.81422 88.16931 84.49177
# Shear Modulus (GPa) = 6.86718 37.54374 22.20546
#
# Velocity S-wave (km/s) = 1.58776 3.71249 2.85513
# Velocity P-wave (km/s) = 5.74707 7.12351 6.47199
#
# Compressibility (1/GPa) = 0.01237406
#
# Stress axis : x y z
#
# Youngs Moduli (GPa) = 155.10535 93.53347 135.08068
#
# Poissons Ratio (x) = 0.00403 0.25650
# Poissons Ratio (y) = 0.00668 0.55948
# Poissons Ratio (z) = 0.29452 0.38740
#
# Static dielectric constant tensor:
#      x y z
#    x 2.165270 0.000000 0.034060 
#    y 0.000000 2.103990 0.000000 
#    z 0.034060 0.000000 2.152360 
# 
# From -- ./inp_files/9383.got.cif
#   From: 2010.05.17/outbox.cif.g08.bks.cpg/sg15_5_cif.got.tgz:9383.got - 2010.06.03 18:47:42.
