data_PCOD9279364
_publ_section_title
;
Structure prediction by ZEFSAII (Michael W. Deem and Ramdas Pophale) SiO2 
 PCOD9279364
Probable space group: C 2/C
;
_chemical_formula_sum "Si O2"
_cell_formula_units_Z 56
_cell_length_a 8.431438
_cell_length_b 27.747633
_cell_length_c 14.625143
_cell_angle_alpha 90.000000
_cell_angle_beta 58.197086
_cell_angle_gamma 90.000000
_cell_volume 2907.890933
_symmetry_space_group_name_H-M "C 2/C"
_symmetry_group_IT_number 15
_symmetry_cell_setting 'monoclinic'
loop_
_space_group_symop_operation_xyz
x,y,z
-x,y,1/2-z
-x,-y,-z
x,-y,1/2+z
1/2+x,1/2+y,z
1/2-x,1/2+y,1/2-z
1/2-x,1/2-y,-z
1/2+x,1/2-y,1/2+z
loop_
_atom_site_type_symbol
_atom_site_label
_atom_site_fract_x
_atom_site_fract_y
_atom_site_fract_z
Si Si1 0.444656 0.553076 0.488754
Si Si2 0.201830 0.368846 0.144560
Si Si3 0.880235 0.452676 0.561749
Si Si4 0.793125 0.796516 0.273096
Si Si5 0.289633 0.912207 0.776215
Si Si6 0.980696 0.654204 0.986828
Si Si7 0.842316 0.691756 0.217903
O O1 0.500000 0.500000 0.500000
O O2 0.339390 0.585833 0.595289
O O3 0.295748 0.549907 0.451955
O O4 0.638062 0.575630 0.397268
O O5 0.283287 0.327815 0.184414
O O6 0.165098 0.348628 0.053507
O O7 0.000000 0.382493 0.250000
O O8 0.800605 0.449494 0.688754
O O9 0.994420 0.402082 0.513973
O O10 0.000000 0.500000 0.500000
O O11 0.662596 0.822864 0.386054
O O12 0.735623 0.741639 0.266747
O O13 0.000000 0.795125 0.250000
O O14 0.500000 0.911230 0.750000
O O15 0.235045 0.858665 0.759411
O O16 0.926949 0.686519 0.090474
O O17 0.000000 0.690798 0.250000
#
# Coordination Sequence:
#
# PCOD9279364 Si02
#       7
#     8   8   8   8   8   8   8
#     4  11  23  37  59  87 114 151 194 237 292 349
#     4   9  21  41  58  81 118 154 192 238 289 348
#     4  10  21  39  60  81 113 153 191 238 292 345
#     4  10  21  35  58  87 112 148 196 241 286 343
#     4  10  21  38  58  84 117 150 191 239 289 347
#     4   9  20  39  57  80 116 152 188 234 290 345
#     4   9  20  36  57  85 115 150 190 237 291 343
#
# _framework density 19.257943999999998
#
# number of rings (size 3 to 8) (size 9 to 14) (size 15 to 20)
#    0.000    2.286    0.000    1.286    0.000   12.571 
#    0.000   11.429    0.000    0.000    0.000    0.000 
#    0.000    0.000    0.000    0.000    0.000    0.000 
#
# Total GULP energy -156080.292608 kJ/mol
# GULP energy per Si atom -5574.296165 kJ/mol
# Density = 1.921411 g / cm^3
# Si number density = 19.257944 Si / 1000 Ang^3
#
#
#
# Elastic Constant Matrix: (Units=GPa)
#
#
# Indices 1 2 3 4 5 6 
#
# 1 50.2893 27.9163 28.8567 0.0000 -10.2447 0.0000
# 2 27.9163 105.7509 48.3769 0.0000 -16.9560 0.0000
# 3 28.8567 48.3769 90.8364 0.0000 5.7503 0.0000
# 4 0.0000 0.0000 0.0000 17.4602 0.0000 5.3924
# 5 -10.2447 -16.9560 5.7503 0.0000 27.2424 0.0000
# 6 0.0000 0.0000 0.0000 5.3924 0.0000 -14.4564
#
#
#
# Elastic Compliance Matrix: (Units=1/GPa)
#
#
# Indices 1 2 3 4 5 6 
#
# 1 0.028164 -0.001540 -0.008855 0.000000 0.011502 0.000000
# 2 -0.001540 0.015450 -0.008424 0.000000 0.010816 0.000000
# 3 -0.008855 -0.008424 0.019106 0.000000 -0.012606 0.000000
# 4 0.000000 0.000000 0.000000 0.051357 0.000000 0.019157
# 5 0.011502 0.010816 -0.012606 0.000000 0.050426 0.000000
# 6 0.000000 0.000000 0.000000 0.019157 0.000000 -0.062028
#
#
# Mechanical properties :
#
#
# Convention : Reuss Voigt Hill
#
# Bulk Modulus (GPa) = 39.86761 50.79738 45.33249
# Shear Modulus (GPa) = 33.67586 15.49769 24.58678
#
# Velocity S-wave (km/s) = 4.18625 2.83988 3.57698
# Velocity P-wave (km/s) = 6.64177 6.09818 6.37577
#
# Compressibility (1/GPa) = 0.02508302
#
# Stress axis : x y z
#
# Youngs Moduli (GPa) = 35.50626 64.72303 52.33860
#
# Poissons Ratio (x) = 0.09965 0.46347
# Poissons Ratio (y) = 0.05466 0.44090
# Poissons Ratio (z) = 0.31442 0.54523
#
# Static dielectric constant tensor:
#      x y z
#    x 1.915190 0.000000 0.113290 
#    y 0.000000 1.691290 0.000000 
#    z 0.113290 0.000000 1.701680 
# 
# From -- ./inp_files/138511.got.cif
#   From: 2010.05.17/outbox.cif.g08.bks.cpg/sg15_70_cif.got.tgz:138511.got - 2010.06.03 18:47:42.
