data_PCOD9279873
_publ_section_title
;
Structure prediction by ZEFSAII (Michael W. Deem and Ramdas Pophale) SiO2 
 PCOD9279873
Probable space group: C 2/C
;
_chemical_formula_sum "Si O2"
_cell_formula_units_Z 44
_cell_length_a 8.044955
_cell_length_b 23.922365
_cell_length_c 11.320457
_cell_angle_alpha 90.000000
_cell_angle_beta 74.221570
_cell_angle_gamma 90.000000
_cell_volume 2096.579799
_symmetry_space_group_name_H-M "C 2/C"
_symmetry_group_IT_number 15
_symmetry_cell_setting 'monoclinic'
loop_
_space_group_symop_operation_xyz
x,y,z
-x,y,1/2-z
-x,-y,-z
x,-y,1/2+z
1/2+x,1/2+y,z
1/2-x,1/2+y,1/2-z
1/2-x,1/2-y,-z
1/2+x,1/2-y,1/2+z
loop_
_atom_site_type_symbol
_atom_site_label
_atom_site_fract_x
_atom_site_fract_y
_atom_site_fract_z
Si Si1 0.261635 0.055884 0.836937
Si Si2 0.500000 0.045931 0.250000
Si Si3 0.770246 0.594159 0.100545
Si Si4 0.000000 0.995960 0.750000
Si Si5 0.371697 0.159301 0.670717
Si Si6 0.000000 0.781407 0.250000
Si Si7 0.361851 0.790919 0.561544
O O1 0.338328 0.094904 0.717357
O O2 0.357181 0.996870 0.825125
O O3 0.279636 0.086771 0.957448
O O4 0.071164 0.037375 0.836611
O O5 0.434033 0.080924 0.151859
O O6 0.638550 0.546399 0.168170
O O7 0.734616 0.659453 0.129632
O O8 0.500000 0.181875 0.750000
O O9 0.483451 0.176311 0.535917
O O10 0.178000 0.183837 0.698698
O O11 0.047948 0.743635 0.352837
O O12 0.250000 0.750000 0.500000
#
# Coordination Sequence:
#
# PCOD9279873 Si02
#       7
#     8   4   8   4   8   4   8
#     4  11  20  41  66  92 130 175 221 279 343 412
#     4  10  21  36  60  92 122 168 219 270 344 404
#     4  11  22  40  61  93 133 175 222 279 340 408
#     4  10  25  38  64 102 134 170 229 284 346 412
#     4  12  23  45  71 101 135 182 235 282 344 414
#     4  12  26  44  70 104 138 184 236 288 352 392
#     4  12  25  45  70  98 141 186 233 290 341 406
#
# _framework density 20.986561999999999
#
# number of rings (size 3 to 8) (size 9 to 14) (size 15 to 20)
#    0.000    0.727    4.545    2.727    0.000    2.909 
#    0.000   10.909    0.000    0.000    0.000    0.000 
#    0.000    0.000    0.000    0.000    0.000    0.000 
#
# Total GULP energy -122644.708192 kJ/mol
# GULP energy per Si atom -5574.759463 kJ/mol
# Density = 2.093880 g / cm^3
# Si number density = 20.986562 Si / 1000 Ang^3
#
#
#
# Elastic Constant Matrix: (Units=GPa)
#
#
# Indices 1 2 3 4 5 6 
#
# 1 106.7051 47.1208 43.8747 0.0000 26.4131 0.0000
# 2 47.1208 130.3329 47.1193 0.0000 26.0926 0.0000
# 3 43.8747 47.1193 79.0650 0.0000 27.7069 0.0000
# 4 0.0000 0.0000 0.0000 59.3014 0.0000 16.8226
# 5 26.4131 26.0926 27.7069 0.0000 44.7284 0.0000
# 6 0.0000 0.0000 0.0000 16.8226 0.0000 46.5218
#
#
#
# Elastic Compliance Matrix: (Units=1/GPa)
#
#
# Indices 1 2 3 4 5 6 
#
# 1 0.013220 -0.002382 -0.004684 0.000000 -0.003515 0.000000
# 2 -0.002382 0.010466 -0.004175 0.000000 -0.002112 0.000000
# 3 -0.004684 -0.004175 0.020325 0.000000 -0.007388 0.000000
# 4 0.000000 0.000000 0.000000 0.018791 0.000000 -0.006795
# 5 -0.003515 -0.002112 -0.007388 0.000000 0.030242 0.000000
# 6 0.000000 0.000000 0.000000 -0.006795 0.000000 0.023952
#
#
# Mechanical properties :
#
#
# Convention : Reuss Voigt Hill
#
# Bulk Modulus (GPa) = 46.45337 65.81476 56.13407
# Shear Modulus (GPa) = 34.09362 41.97620 38.03491
#
# Velocity S-wave (km/s) = 4.03494 4.47715 4.26178
# Velocity P-wave (km/s) = 6.62499 7.62594 7.14302
#
# Compressibility (1/GPa) = 0.02152696
#
# Stress axis : x y z
#
# Youngs Moduli (GPa) = 75.64373 95.54436 49.20147
#
# Poissons Ratio (x) = 0.22761 0.23048
# Poissons Ratio (y) = 0.18020 0.20543
# Poissons Ratio (z) = 0.35435 0.39892
#
# Static dielectric constant tensor:
#      x y z
#    x 1.860140 0.000000 -0.019150 
#    y 0.000000 1.732160 0.000000 
#    z -0.019150 0.000000 1.764300 
# 
# From -- ./inp_files/78320.got.cif
#   From: 2010.05.17/outbox.cif.g08.bks.cpg/sg15_40_cif.got.tgz:78320.got - 2010.06.03 18:47:42.
