data_PCOD9279051
_publ_section_title
;
Structure prediction by ZEFSAII (Michael W. Deem and Ramdas Pophale) SiO2 
 PCOD9279051
Probable space group: C 2/C
;
_chemical_formula_sum "Si O2"
_cell_formula_units_Z 52
_cell_length_a 10.357737
_cell_length_b 23.580206
_cell_length_c 13.420034
_cell_angle_alpha 90.000000
_cell_angle_beta 43.556264
_cell_angle_gamma 90.000000
_cell_volume 2258.537271
_symmetry_space_group_name_H-M "C 2/C"
_symmetry_group_IT_number 15
_symmetry_cell_setting 'monoclinic'
loop_
_space_group_symop_operation_xyz
x,y,z
-x,y,1/2-z
-x,-y,-z
x,-y,1/2+z
1/2+x,1/2+y,z
1/2-x,1/2+y,1/2-z
1/2-x,1/2-y,-z
1/2+x,1/2-y,1/2+z
loop_
_atom_site_type_symbol
_atom_site_label
_atom_site_fract_x
_atom_site_fract_y
_atom_site_fract_z
Si Si1 0.754124 0.781494 0.640919
Si Si2 0.351069 0.609856 0.986102
Si Si3 0.500000 0.533193 0.750000
Si Si4 0.234316 0.369920 0.946798
Si Si5 0.108859 0.929878 0.817382
Si Si6 0.822032 0.751203 0.100845
Si Si7 0.500000 0.683688 0.750000
Si Si8 0.500000 0.842373 0.250000
O O1 0.720433 0.839088 0.599090
O O2 0.657482 0.777223 0.802093
O O3 0.675092 0.724590 0.635686
O O4 0.974498 0.775089 0.539900
O O5 0.335559 0.567750 0.900419
O O6 0.519595 0.646514 0.839190
O O7 0.375388 0.574603 0.073267
O O8 0.586945 0.492567 0.785621
O O9 0.419836 0.395406 0.894166
O O10 0.232292 0.399234 0.839230
O O11 0.244186 0.301925 0.928511
O O12 0.065149 0.378498 0.118302
O O13 0.669690 0.800767 0.185807
#
# Coordination Sequence:
#
# PCOD9279051 Si02
#       8
#     8   8   4   8   8   8   4   4
#     4  12  24  40  62  94 134 181 211 256 310 393
#     4  11  21  39  65  93 128 173 210 269 327 376
#     4   9  22  39  64  98 122 159 230 281 322 382
#     4  10  21  34  54  91 124 166 211 256 313 383
#     4  10  21  40  66  92 124 165 220 279 327 376
#     4  12  23  35  58  90 138 177 213 249 314 383
#     4  11  26  42  62 100 138 168 224 251 310 402
#     4  12  22  33  54  94 138 179 202 254 308 398
#
# _framework density 23.02375
#
# number of rings (size 3 to 8) (size 9 to 14) (size 15 to 20)
#    0.000    1.231    4.615    3.231    2.154    0.000 
#    0.000    0.000    0.000    3.692    0.000   39.846 
#    0.000    0.000    0.000    0.000    0.000    0.000 
#
# Total GULP energy -144941.453704 kJ/mol
# GULP energy per Si atom -5574.671296 kJ/mol
# Density = 2.297135 g / cm^3
# Si number density = 23.023750 Si / 1000 Ang^3
#
#
#
# Elastic Constant Matrix: (Units=GPa)
#
#
# Indices 1 2 3 4 5 6 
#
# 1 58.3538 16.9695 37.2899 0.0000 15.6190 0.0000
# 2 16.9695 78.3556 30.0449 0.0000 16.0797 0.0000
# 3 37.2899 30.0449 133.0703 0.0000 35.2240 0.0000
# 4 0.0000 0.0000 0.0000 36.0928 0.0000 23.2910
# 5 15.6190 16.0797 35.2240 0.0000 56.1741 0.0000
# 6 0.0000 0.0000 0.0000 23.2910 0.0000 21.0689
#
#
#
# Elastic Compliance Matrix: (Units=1/GPa)
#
#
# Indices 1 2 3 4 5 6 
#
# 1 0.021558 -0.002321 -0.004924 0.000000 -0.002243 0.000000
# 2 -0.002321 0.014502 -0.002034 0.000000 -0.002231 0.000000
# 3 -0.004924 -0.002034 0.010596 0.000000 -0.004693 0.000000
# 4 0.000000 0.000000 0.000000 0.096662 0.000000 -0.106856
# 5 -0.002243 -0.002231 -0.004693 0.000000 0.022007 0.000000
# 6 0.000000 0.000000 0.000000 -0.106856 0.000000 0.165589
#
#
# Mechanical properties :
#
#
# Convention : Reuss Voigt Hill
#
# Bulk Modulus (GPa) = 35.58603 48.70982 42.14793
# Shear Modulus (GPa) = 13.93388 35.03220 24.48304
#
# Velocity S-wave (km/s) = 2.46274 3.90496 3.26449
# Velocity P-wave (km/s) = 4.85557 6.44468 5.70572
#
# Compressibility (1/GPa) = 0.02810091
#
# Stress axis : x y z
#
# Youngs Moduli (GPa) = 46.38582 68.95369 94.37552
#
# Poissons Ratio (x) = 0.16002 0.46467
# Poissons Ratio (y) = 0.10765 0.19192
# Poissons Ratio (z) = 0.22839 0.14022
#
# Static dielectric constant tensor:
#      x y z
#    x 1.921160 0.000000 0.056030 
#    y 0.000000 1.955820 0.000000 
#    z 0.056030 0.000000 1.889860 
# 
# From -- ./inp_files/148074.got.cif
#   From: 2010.05.17/outbox.cif.g08.bks.cpg/sg15_75_cif.got.tgz:148074.got - 2010.06.03 18:47:42.
