data_PCOD9279241
_publ_section_title
;
Structure prediction by ZEFSAII (Michael W. Deem and Ramdas Pophale) SiO2 
 PCOD9279241
Probable space group: C 2/C
;
_chemical_formula_sum "Si O2"
_cell_formula_units_Z 60
_cell_length_a 11.013078
_cell_length_b 25.203659
_cell_length_c 22.562521
_cell_angle_alpha 90.000000
_cell_angle_beta 149.792441
_cell_angle_gamma 90.000000
_cell_volume 3150.964936
_symmetry_space_group_name_H-M "C 2/C"
_symmetry_group_IT_number 15
_symmetry_cell_setting 'monoclinic'
loop_
_space_group_symop_operation_xyz
x,y,z
-x,y,1/2-z
-x,-y,-z
x,-y,1/2+z
1/2+x,1/2+y,z
1/2-x,1/2+y,1/2-z
1/2-x,1/2-y,-z
1/2+x,1/2-y,1/2+z
loop_
_atom_site_type_symbol
_atom_site_label
_atom_site_fract_x
_atom_site_fract_y
_atom_site_fract_z
Si Si1 0.520462 0.073039 0.826055
Si Si2 0.433089 0.393396 0.926165
Si Si3 0.915424 0.231655 0.805991
Si Si4 0.500000 0.970370 0.750000
Si Si5 0.271605 0.621619 0.687632
Si Si6 0.911544 0.784135 0.987866
Si Si7 0.374270 0.172274 0.441273
Si Si8 0.150772 0.831207 0.724427
O O1 0.500000 0.097707 0.750000
O O2 0.344579 0.094679 0.803023
O O3 0.460318 0.011524 0.787407
O O4 0.798102 0.082400 0.962100
O O5 0.337737 0.373660 0.822353
O O6 0.233273 0.435197 0.862657
O O7 0.444356 0.340033 0.970184
O O8 0.860489 0.179233 0.747025
O O9 0.693297 0.271998 0.717517
O O10 0.998051 0.213609 0.906283
O O11 0.133492 0.266093 0.871331
O O12 0.500000 0.595677 0.750000
O O13 0.063508 0.633842 0.552145
O O14 0.050847 0.733775 0.019078
O O15 0.346763 0.162416 0.359326
O O16 0.113136 0.164973 0.359257
#
# Coordination Sequence:
#
# PCOD9279241 Si02
#       8
#     8   8   8   4   8   8   8   8
#     4  10  25  45  66  97 126 164 222 286 344 379
#     4  12  21  41  71  94 124 176 222 270 335 391
#     4  10  21  35  53  94 138 172 208 262 304 394
#     4  10  26  46  68  96 126 156 228 302 334 380
#     4  12  22  39  67  93 131 177 215 265 333 397
#     4  10  21  35  58  95 134 173 215 248 319 394
#     4  10  21  39  53  94 140 174 209 258 303 400
#     4  10  22  35  61  89 134 176 217 250 317 391
#
# _framework density 19.041785999999998
#
# number of rings (size 3 to 8) (size 9 to 14) (size 15 to 20)
#    0.400    1.067    2.667    2.800    1.867    1.067 
#    2.400    0.000    2.933    1.600    0.000    0.000 
#    0.000    0.000    0.000    0.000    0.000    0.000 
#
# Total GULP energy -167425.839857 kJ/mol
# GULP energy per Si atom -5580.861329 kJ/mol
# Density = 1.899845 g / cm^3
# Si number density = 19.041786 Si / 1000 Ang^3
#
#
#
# Elastic Constant Matrix: (Units=GPa)
#
#
# Indices 1 2 3 4 5 6 
#
# 1 90.2120 29.4145 38.5558 -0.0050 0.8445 0.0000
# 2 29.4145 59.8858 30.7740 -0.0080 -4.0576 -0.0007
# 3 38.5558 30.7740 92.4393 -0.0112 -1.8446 -0.0024
# 4 -0.0050 -0.0080 -0.0112 19.6864 -0.0007 1.1223
# 5 0.8445 -4.0576 -1.8446 -0.0007 30.6195 0.0008
# 6 0.0000 -0.0007 -0.0024 1.1223 0.0008 19.6818
#
#
#
# Elastic Compliance Matrix: (Units=1/GPa)
#
#
# Indices 1 2 3 4 5 6 
#
# 1 0.014632 -0.004979 -0.004472 -0.000001 -0.001333 -0.000001
# 2 -0.004979 0.021998 -0.005192 0.000005 0.002740 0.000000
# 3 -0.004472 -0.005192 0.014418 0.000005 0.000304 0.000001
# 4 -0.000001 0.000005 0.000005 0.050962 0.000002 -0.002906
# 5 -0.001333 0.002740 0.000304 0.000002 0.033077 -0.000001
# 6 -0.000001 0.000000 0.000001 -0.002906 -0.000001 0.050974
#
#
# Mechanical properties :
#
#
# Convention : Reuss Voigt Hill
#
# Bulk Modulus (GPa) = 45.95262 48.89176 47.42219
# Shear Modulus (GPa) = 22.46171 23.58371 23.02271
#
# Velocity S-wave (km/s) = 3.43826 3.52309 3.48093
# Velocity P-wave (km/s) = 6.32037 6.50241 6.41203
#
# Compressibility (1/GPa) = 0.02176154
#
# Stress axis : x y z
#
# Youngs Moduli (GPa) = 68.34190 45.45915 69.35963
#
# Poissons Ratio (x) = 0.22636 0.31017
# Poissons Ratio (y) = 0.34030 0.36010
# Poissons Ratio (z) = 0.30562 0.23601
#
# Static dielectric constant tensor:
#      x y z
#    x 1.717150 0.000000 -0.020110 
#    y 0.000000 1.629090 0.000000 
#    z -0.020110 0.000000 1.681180 
# 
# From -- ./inp_files/271048.got.cif
#   From: 2010.05.17/outbox.cif.g08.bks.cpg/sg15_136_cif.got.tgz:271048.got - 2010.06.03 18:47:42.
