data_PCOD9279005
_publ_section_title
;
Structure prediction by ZEFSAII (Michael W. Deem and Ramdas Pophale) SiO2 
 PCOD9279005
Probable space group: C 2/C
;
_chemical_formula_sum "Si O2"
_cell_formula_units_Z 56
_cell_length_a 13.604252
_cell_length_b 26.272069
_cell_length_c 9.005057
_cell_angle_alpha 90.000000
_cell_angle_beta 114.229915
_cell_angle_gamma 90.000000
_cell_volume 2934.982166
_symmetry_space_group_name_H-M "C 2/C"
_symmetry_group_IT_number 15
_symmetry_cell_setting 'monoclinic'
loop_
_space_group_symop_operation_xyz
x,y,z
-x,y,1/2-z
-x,-y,-z
x,-y,1/2+z
1/2+x,1/2+y,z
1/2-x,1/2+y,1/2-z
1/2-x,1/2-y,-z
1/2+x,1/2-y,1/2+z
loop_
_atom_site_type_symbol
_atom_site_label
_atom_site_fract_x
_atom_site_fract_y
_atom_site_fract_z
Si Si1 0.691037 0.572379 0.130233
Si Si2 0.200588 0.830088 0.221139
Si Si3 0.289156 0.314117 0.916265
Si Si4 0.068494 0.069060 0.555713
Si Si5 0.923938 0.722912 0.845531
Si Si6 0.421968 0.238008 0.324539
Si Si7 0.168779 0.999708 0.364982
O O1 0.721344 0.630710 0.163297
O O2 0.729219 0.537228 0.289458
O O3 0.559514 0.576006 0.038421
O O4 0.726604 0.542377 0.003464
O O5 0.191049 0.825107 0.396030
O O6 0.141423 0.880777 0.127950
O O7 0.324744 0.816401 0.260161
O O8 0.131799 0.782894 0.114905
O O9 0.370899 0.275264 0.881943
O O10 0.173531 0.288395 0.823213
O O11 0.108973 0.037979 0.438777
O O12 0.093421 0.032910 0.710024
O O13 0.000000 0.731117 0.750000
O O14 0.005390 0.703841 0.024382
O O15 0.500000 0.261209 0.250000
#
# Coordination Sequence:
#
# PCOD9279005 Si02
#       7
#     8   8   8   8   8   8   8
#     4  11  20  33  54  82 117 148 184 225 279 337
#     4  11  22  36  60  87 109 153 194 221 277 344
#     4  11  22  36  60  87 110 151 198 218 276 344
#     4  11  20  33  56  80 119 147 184 227 282 331
#     4  11  24  40  57  85 119 144 183 241 281 322
#     4  11  20  38  61  79 113 148 186 233 271 330
#     4  10  21  34  50  82 116 151 180 228 283 339
#
# _framework density 19.080183000000002
#
# number of rings (size 3 to 8) (size 9 to 14) (size 15 to 20)
#    0.000    1.143    4.286    5.143    0.000    5.714 
#    0.000    0.000    0.000    0.000    0.000   20.000 
#    0.000    0.000    0.000    0.000    0.000    0.000 
#
# Total GULP energy -156039.298172 kJ/mol
# GULP energy per Si atom -5572.832078 kJ/mol
# Density = 1.903676 g / cm^3
# Si number density = 19.080183 Si / 1000 Ang^3
#
#
#
# Elastic Constant Matrix: (Units=GPa)
#
#
# Indices 1 2 3 4 5 6 
#
# 1 74.9048 16.3797 23.5674 0.0000 0.1015 0.0000
# 2 16.3797 110.1755 11.9059 0.0000 4.5788 0.0000
# 3 23.5674 11.9059 63.3764 0.0000 -7.5273 0.0000
# 4 0.0000 0.0000 0.0000 19.3082 0.0000 5.5007
# 5 0.1015 4.5788 -7.5273 0.0000 29.4725 0.0000
# 6 0.0000 0.0000 0.0000 5.5007 0.0000 15.8897
#
#
#
# Elastic Compliance Matrix: (Units=1/GPa)
#
#
# Indices 1 2 3 4 5 6 
#
# 1 0.015470 -0.001645 -0.005589 0.000000 -0.001225 0.000000
# 2 -0.001645 0.009549 -0.001400 0.000000 -0.001835 0.000000
# 3 -0.005589 -0.001400 0.018716 0.000000 0.005017 0.000000
# 4 0.000000 0.000000 0.000000 0.057458 0.000000 -0.019891
# 5 -0.001225 -0.001835 0.005017 0.000000 0.035501 0.000000
# 6 0.000000 0.000000 0.000000 -0.019891 0.000000 0.069820
#
#
# Mechanical properties :
#
#
# Convention : Reuss Voigt Hill
#
# Bulk Modulus (GPa) = 37.78420 39.12919 38.45669
# Shear Modulus (GPa) = 21.49572 26.04098 23.76835
#
# Velocity S-wave (km/s) = 3.36013 3.69835 3.53329
# Velocity P-wave (km/s) = 5.90760 6.22811 6.06997
#
# Compressibility (1/GPa) = 0.02646609
#
# Stress axis : x y z
#
# Youngs Moduli (GPa) = 64.64020 104.72780 53.42998
#
# Poissons Ratio (x) = 0.17228 0.29864
# Poissons Ratio (y) = 0.10634 0.07480
# Poissons Ratio (z) = 0.36129 0.14662
#
# Static dielectric constant tensor:
#      x y z
#    x 1.684770 0.000000 -0.038050 
#    y 0.000000 1.698570 0.000000 
#    z -0.038050 0.000000 1.732120 
# 
# From -- ./inp_files/43215.got.cif
#   From: 2010.05.17/outbox.cif.g08.bks.cpg/sg15_22_cif.got.tgz:43215.got - 2010.06.03 18:47:42.
