data_PCOD9279036
_publ_section_title
;
Structure prediction by ZEFSAII (Michael W. Deem and Ramdas Pophale) SiO2 
 PCOD9279036
Probable space group: C 2/C
;
_chemical_formula_sum "Si O2"
_cell_formula_units_Z 60
_cell_length_a 13.952930
_cell_length_b 19.572898
_cell_length_c 26.186068
_cell_angle_alpha 90.000000
_cell_angle_beta 158.422854
_cell_angle_gamma 90.000000
_cell_volume 2629.952103
_symmetry_space_group_name_H-M "C 2/C"
_symmetry_group_IT_number 15
_symmetry_cell_setting 'monoclinic'
loop_
_space_group_symop_operation_xyz
x,y,z
-x,y,1/2-z
-x,-y,-z
x,-y,1/2+z
1/2+x,1/2+y,z
1/2-x,1/2+y,1/2-z
1/2-x,1/2-y,-z
1/2+x,1/2-y,1/2+z
loop_
_atom_site_type_symbol
_atom_site_label
_atom_site_fract_x
_atom_site_fract_y
_atom_site_fract_z
Si Si1 0.158576 0.007543 0.733486
Si Si2 0.223501 0.711985 0.603506
Si Si3 0.143904 0.143904 0.939082
Si Si4 0.731347 0.738841 0.682162
Si Si5 0.500000 0.573073 0.250000
Si Si6 0.749982 0.681780 0.533760
Si Si7 0.549312 0.889560 0.464764
Si Si8 0.222407 0.362817 0.751882
O O1 0.407065 0.039207 0.885641
O O2 0.995550 0.069942 0.629029
O O3 0.235815 0.943463 0.736928
O O4 0.002203 0.973978 0.701853
O O5 0.500000 0.748457 0.750000
O O6 0.272600 0.664597 0.577307
O O7 0.965512 0.754109 0.462371
O O8 0.163707 0.665993 0.623389
O O9 0.941737 0.198306 0.861766
O O10 0.412494 0.146363 0.104954
O O11 0.782093 0.814167 0.731734
O O12 0.999234 0.697406 0.807031
O O13 0.753724 0.615457 0.390048
O O14 0.750000 0.750000 0.500000
O O15 0.828527 0.626334 0.529677
O O16 0.455990 0.662723 0.404617
#
# Coordination Sequence:
#
# PCOD9279036 Si02
#       8
#     8   8   8   8   4   8   8   8
#     4  12  21  35  53  81 119 160 193 224 281 349
#     4  11  20  35  55  81 109 148 202 237 285 339
#     4  11  21  37  56  78 114 163 196 238 286 338
#     4  10  21  39  59  74 110 160 201 246 285 331
#     4  12  22  32  48  76 126 160 186 222 282 342
#     4  10  21  40  56  77 111 162 198 240 280 329
#     4  12  23  36  52  81 119 164 190 235 280 347
#     4  10  21  34  54  79 109 150 202 232 272 335
#
# _framework density 22.814104
#
# number of rings (size 3 to 8) (size 9 to 14) (size 15 to 20)
#    0.000    1.067    4.000    5.200    1.867    1.067 
#    0.000    0.000    0.000    0.000    0.000    0.000 
#    0.000   26.667    1.067    0.000    0.000    0.000 
#
# Total GULP energy -167416.636999 kJ/mol
# GULP energy per Si atom -5580.554567 kJ/mol
# Density = 2.276218 g / cm^3
# Si number density = 22.814104 Si / 1000 Ang^3
#
#
#
# Elastic Constant Matrix: (Units=GPa)
#
#
# Indices 1 2 3 4 5 6 
#
# 1 39.2152 27.0950 17.0234 -0.0013 -2.1925 0.0015
# 2 27.0950 74.7100 50.2513 0.0057 -17.2466 -0.0089
# 3 17.0234 50.2513 233.2552 -0.0215 -8.8347 -0.0298
# 4 -0.0013 0.0057 -0.0215 32.9365 -0.0054 -3.3289
# 5 -2.1925 -17.2466 -8.8347 -0.0054 24.1664 -0.0064
# 6 0.0015 -0.0089 -0.0298 -3.3289 -0.0064 20.0311
#
#
#
# Elastic Compliance Matrix: (Units=1/GPa)
#
#
# Indices 1 2 3 4 5 6 
#
# 1 0.035019 -0.014545 0.000309 0.000002 -0.007090 -0.000011
# 2 -0.014545 0.024558 -0.003666 -0.000004 0.014866 0.000011
# 3 0.000309 -0.003666 0.005026 0.000004 -0.000751 0.000006
# 4 0.000002 -0.000004 0.000004 0.030880 0.000007 0.005132
# 5 -0.007090 0.014866 -0.000751 0.000007 0.051072 0.000024
# 6 -0.000011 0.000011 0.000006 0.005132 0.000024 0.050775
#
#
# Mechanical properties :
#
#
# Convention : Reuss Voigt Hill
#
# Bulk Modulus (GPa) = 34.72318 59.54663 47.13491
# Shear Modulus (GPa) = 20.59871 32.28085 26.43978
#
# Velocity S-wave (km/s) = 3.00808 3.76567 3.40799
# Velocity P-wave (km/s) = 5.22664 6.71301 6.01591
#
# Compressibility (1/GPa) = 0.02879921
#
# Stress axis : x y z
#
# Youngs Moduli (GPa) = 28.55557 40.72018 198.96808
#
# Poissons Ratio (x) = 0.59228 -0.06153
# Poissons Ratio (y) = 0.41535 0.72942
# Poissons Ratio (z) = -0.00883 0.14928
#
# Static dielectric constant tensor:
#      x y z
#    x 1.972100 -0.000160 0.181860 
#    y -0.000160 2.794540 -0.000380 
#    z 0.181860 -0.000380 2.309740 
# 
# From -- ./inp_files/314471.got.cif
#   From: 2010.05.17/outbox.cif.g08.bks.cpg/sg15_158_cif.got.tgz:314471.got - 2010.06.03 18:47:42.
