data_PCOD9279476
_publ_section_title
;
Structure prediction by ZEFSAII (Michael W. Deem and Ramdas Pophale) SiO2 
 PCOD9279476
Probable space group: C 2/C
;
_chemical_formula_sum "Si O2"
_cell_formula_units_Z 56
_cell_length_a 14.122702
_cell_length_b 21.990823
_cell_length_c 21.268377
_cell_angle_alpha 90.000000
_cell_angle_beta 155.951589
_cell_angle_gamma 90.000000
_cell_volume 2691.721809
_symmetry_space_group_name_H-M "C 2/C"
_symmetry_group_IT_number 15
_symmetry_cell_setting 'monoclinic'
loop_
_space_group_symop_operation_xyz
x,y,z
-x,y,1/2-z
-x,-y,-z
x,-y,1/2+z
1/2+x,1/2+y,z
1/2-x,1/2+y,1/2-z
1/2-x,1/2-y,-z
1/2+x,1/2-y,1/2+z
loop_
_atom_site_type_symbol
_atom_site_label
_atom_site_fract_x
_atom_site_fract_y
_atom_site_fract_z
Si Si1 0.752897 0.194464 0.749313
Si Si2 0.232174 0.464115 0.567719
Si Si3 0.911468 0.173215 0.361150
Si Si4 0.250142 0.819633 0.397127
Si Si5 0.911107 0.580169 0.384155
Si Si6 0.110056 0.626118 0.883057
Si Si7 0.739168 0.681863 0.086916
O O1 0.722132 0.266729 0.746853
O O2 0.676208 0.187929 0.630633
O O3 0.590984 0.158744 0.698950
O O4 0.013882 0.166293 0.908929
O O5 0.500000 0.480063 0.750000
O O6 0.054121 0.520507 0.452072
O O7 0.211708 0.424783 0.492025
O O8 0.135731 0.427154 0.569839
O O9 0.824914 0.105868 0.288345
O O10 0.865916 0.177535 0.407316
O O11 0.182312 0.173164 0.507467
O O12 0.426896 0.863621 0.536958
O O13 0.226150 0.752610 0.410491
O O14 0.000000 0.849744 0.250000
O O15 0.000000 0.604130 0.750000
O O16 0.000000 0.654605 0.250000
#
# Coordination Sequence:
#
# PCOD9279476 Si02
#       7
#     8   8   8   8   8   8   8
#     4  11  22  39  62  98 134 174 214 260 337 400
#     4  11  24  44  68  94 125 172 229 281 318 377
#     4  11  23  40  66  96 133 174 218 269 331 399
#     4  10  21  35  61  92 126 168 212 271 321 385
#     4  11  22  41  66  92 125 168 227 276 323 372
#     4  12  24  44  66  97 139 175 215 272 330 398
#     4  10  22  37  58  94 135 170 209 265 330 406
#
# _framework density 20.804527
#
# number of rings (size 3 to 8) (size 9 to 14) (size 15 to 20)
#    0.000    1.143    5.714    0.857    2.000    1.714 
#    2.571    1.429    0.000    0.000    0.000    0.000 
#    0.000    0.000    0.000    0.000    0.000    0.000 
#
# Total GULP energy -155931.548639 kJ/mol
# GULP energy per Si atom -5568.983880 kJ/mol
# Density = 2.075718 g / cm^3
# Si number density = 20.804527 Si / 1000 Ang^3
#
#
#
# Elastic Constant Matrix: (Units=GPa)
#
#
# Indices 1 2 3 4 5 6 
#
# 1 83.2665 14.8739 17.4422 -0.0074 -0.9321 0.0046
# 2 14.8739 54.2886 16.8234 -0.0076 -7.2671 0.0014
# 3 17.4422 16.8234 94.9557 -0.0106 17.1017 0.0168
# 4 -0.0074 -0.0076 -0.0106 21.0786 -0.0105 5.3638
# 5 -0.9321 -7.2671 17.1017 -0.0105 42.4681 0.0075
# 6 0.0046 0.0014 0.0168 5.3638 0.0075 18.5692
#
#
#
# Elastic Compliance Matrix: (Units=1/GPa)
#
#
# Indices 1 2 3 4 5 6 
#
# 1 0.012940 -0.002853 -0.001978 0.000003 0.000592 -0.000002
# 2 -0.002853 0.021198 -0.004177 0.000008 0.005247 -0.000001
# 3 -0.001978 -0.004177 0.012692 0.000004 -0.005869 -0.000009
# 4 0.000003 0.000008 0.000004 0.051205 0.000015 -0.014791
# 5 0.000592 0.005247 -0.005869 0.000015 0.026821 -0.000010
# 6 -0.000002 -0.000001 -0.000009 -0.014791 -0.000010 0.058125
#
#
# Mechanical properties :
#
#
# Convention : Reuss Voigt Hill
#
# Bulk Modulus (GPa) = 34.70471 36.75443 35.72957
# Shear Modulus (GPa) = 23.74139 28.64792 26.19465
#
# Velocity S-wave (km/s) = 3.38178 3.71483 3.55221
# Velocity P-wave (km/s) = 5.65386 6.00873 5.83399
#
# Compressibility (1/GPa) = 0.02881453
#
# Stress axis : x y z
#
# Youngs Moduli (GPa) = 77.27805 47.17347 78.79236
#
# Poissons Ratio (x) = 0.13459 0.15587
# Poissons Ratio (y) = 0.22048 0.32909
# Poissons Ratio (z) = 0.15287 0.19703
#
# Static dielectric constant tensor:
#      x y z
#    x 1.731550 0.000000 0.000950 
#    y 0.000000 1.745770 -0.000010 
#    z 0.000950 -0.000010 1.904750 
# 
# From -- ./inp_files/275194.got.cif
#   From: 2010.05.17/outbox.cif.g08.bks.cpg/sg15_138_cif.got.tgz:275194.got - 2010.06.03 18:47:42.
