data_PCOD9279740
_publ_section_title
;
Structure prediction by ZEFSAII (Michael W. Deem and Ramdas Pophale) SiO2 
 PCOD9279740
Probable space group: C 2/C
;
_chemical_formula_sum "Si O2"
_cell_formula_units_Z 40
_cell_length_a 16.337850
_cell_length_b 18.700982
_cell_length_c 9.205069
_cell_angle_alpha 90.000000
_cell_angle_beta 144.950767
_cell_angle_gamma 90.000000
_cell_volume 1615.139860
_symmetry_space_group_name_H-M "C 2/C"
_symmetry_group_IT_number 15
_symmetry_cell_setting 'monoclinic'
loop_
_space_group_symop_operation_xyz
x,y,z
-x,y,1/2-z
-x,-y,-z
x,-y,1/2+z
1/2+x,1/2+y,z
1/2-x,1/2+y,1/2-z
1/2-x,1/2-y,-z
1/2+x,1/2-y,1/2+z
loop_
_atom_site_type_symbol
_atom_site_label
_atom_site_fract_x
_atom_site_fract_y
_atom_site_fract_z
Si Si1 0.308796 0.440056 0.238722
Si Si2 0.227922 0.669714 0.036975
Si Si3 0.034877 0.662388 0.032518
Si Si4 0.972877 0.184887 0.043574
Si Si5 0.500000 0.063004 0.250000
Si Si6 0.000000 0.022644 0.750000
O O1 0.325993 0.356794 0.311891
O O2 0.401215 0.478427 0.496183
O O3 0.388057 0.440618 0.198075
O O4 0.149985 0.472890 0.009216
O O5 0.107482 0.636716 0.759126
O O6 0.250000 0.750000 0.000000
O O7 0.162465 0.666010 0.102011
O O8 0.385681 0.636915 0.274610
O O9 0.051198 0.612560 0.192167
O O10 0.017087 0.746324 0.043904
O O11 0.000000 0.208430 0.250000
#
# Coordination Sequence:
#
# PCOD9279740 Si02
#       6
#     8   8   8   8   4   4
#     4  11  26  47  73  97 128 173 227 288 346 392
#     4   9  17  35  58  87 130 192 227 246 300 393
#     4  10  21  36  57  99 147 176 217 258 316 413
#     4  11  19  36  67  93 133 183 218 258 326 399
#     4  12  28  41  64 108 146 173 210 278 348 404
#     4  10  26  53  74  94 120 167 242 298 336 398
#
# _framework density 24.765658999999999
#
# number of rings (size 3 to 8) (size 9 to 14) (size 15 to 20)
#    0.000    1.600    5.000    1.200    5.600    2.400 
#    0.000    0.000    0.000    0.000    0.000    0.000 
#    0.000    0.000    0.000    0.000    0.000    0.000 
#
# Total GULP energy -111638.401623 kJ/mol
# GULP energy per Si atom -5581.920081 kJ/mol
# Density = 2.470929 g / cm^3
# Si number density = 24.765659 Si / 1000 Ang^3
#
#
#
# Elastic Constant Matrix: (Units=GPa)
#
#
# Indices 1 2 3 4 5 6 
#
# 1 154.1287 4.7328 41.2865 0.0000 7.5994 0.0000
# 2 4.7328 25.9049 10.5972 0.0000 -7.9633 0.0000
# 3 41.2865 10.5972 108.4525 0.0000 27.8178 0.0000
# 4 0.0000 0.0000 0.0000 -40.6912 0.0000 -32.1995
# 5 7.5994 -7.9633 27.8178 0.0000 53.8852 0.0000
# 6 0.0000 0.0000 0.0000 -32.1995 0.0000 3.3649
#
#
#
# Elastic Compliance Matrix: (Units=1/GPa)
#
#
# Indices 1 2 3 4 5 6 
#
# 1 0.007235 -0.000005 -0.002872 0.000000 0.000462 0.000000
# 2 -0.000005 0.044585 -0.006968 0.000000 0.010187 0.000000
# 3 -0.002872 -0.006968 0.012858 0.000000 -0.007262 0.000000
# 4 0.000000 0.000000 0.000000 -0.002867 0.000000 -0.027433
# 5 0.000462 0.010187 -0.007262 0.000000 0.023747 0.000000
# 6 0.000000 0.000000 0.000000 -0.027433 0.000000 0.034668
#
#
# Mechanical properties :
#
#
# Convention : Reuss Voigt Hill
#
# Bulk Modulus (GPa) = 22.22786 44.63546 33.43166
# Shear Modulus (GPa) = 32.27639 18.76974 25.52307
#
# Velocity S-wave (km/s) = 3.61400 2.75597 3.21375
# Velocity P-wave (km/s) = 5.13901 5.30937 5.22489
#
# Compressibility (1/GPa) = 0.04498859
#
# Stress axis : x y z
#
# Youngs Moduli (GPa) = 138.22006 22.42887 77.77510
#
# Poissons Ratio (x) = 0.00011 0.22338
# Poissons Ratio (y) = 0.00068 0.54190
# Poissons Ratio (z) = 0.39699 0.15627
#
# Static dielectric constant tensor:
#      x y z
#    x 2.028720 0.000000 0.092520 
#    y 0.000000 2.043890 0.000000 
#    z 0.092520 0.000000 2.030790 
# 
# From -- ./inp_files/43315.got.cif
#   From: 2010.05.17/outbox.cif.g08.bks.cpg/sg15_22_cif.got.tgz:43315.got - 2010.06.03 18:47:42.
