data_PCOD9279153
_publ_section_title
;
Structure prediction by ZEFSAII (Michael W. Deem and Ramdas Pophale) SiO2 
 PCOD9279153
Probable space group: C 2/C
;
_chemical_formula_sum "Si O2"
_cell_formula_units_Z 40
_cell_length_a 19.017696
_cell_length_b 7.213949
_cell_length_c 14.548962
_cell_angle_alpha 90.000000
_cell_angle_beta 71.337381
_cell_angle_gamma 90.000000
_cell_volume 1891.059455
_symmetry_space_group_name_H-M "C 2/C"
_symmetry_group_IT_number 15
_symmetry_cell_setting 'monoclinic'
loop_
_space_group_symop_operation_xyz
x,y,z
-x,y,1/2-z
-x,-y,-z
x,-y,1/2+z
1/2+x,1/2+y,z
1/2-x,1/2+y,1/2-z
1/2-x,1/2-y,-z
1/2+x,1/2-y,1/2+z
loop_
_atom_site_type_symbol
_atom_site_label
_atom_site_fract_x
_atom_site_fract_y
_atom_site_fract_z
Si Si1 0.776081 0.290512 0.093376
Si Si2 0.583204 0.815445 0.913108
Si Si3 0.347042 0.962399 0.794615
Si Si4 0.741849 0.774463 0.894068
Si Si5 0.424133 0.153479 0.452453
O O1 0.726593 0.166120 0.179621
O O2 0.760861 0.505300 0.121685
O O3 0.750000 0.250000 0.000000
O O4 0.863221 0.255514 0.045218
O O5 0.603532 0.939109 0.815426
O O6 0.659220 0.703773 0.900129
O O7 0.501805 0.738883 0.923848
O O8 0.570208 0.946465 0.006922
O O9 0.392068 0.883665 0.863956
O O10 0.311259 0.164346 0.823345
O O11 0.750000 0.750000 0.000000
#
# Coordination Sequence:
#
# PCOD9279153 Si02
#       5
#     8   8   8   8   8
#     4   9  18  35  60  83 112 153 196 235 293 344
#     4  10  21  34  60  88 116 154 199 238 294 349
#     4  11  21  37  63  83 118 158 196 243 288 353
#     4  11  20  37  58  86 113 153 198 245 288 347
#     4   9  19  38  55  86 119 153 194 238 297 349
#
# _framework density 21.152163000000002
#
# number of rings (size 3 to 8) (size 9 to 14) (size 15 to 20)
#    0.000    2.000    6.000    0.600    5.600    0.000 
#    0.000    1.000    0.000   14.400    0.000    0.000 
#    0.000    0.000    0.000    0.000    0.000    0.000 
#
# Total GULP energy -111433.198328 kJ/mol
# GULP energy per Si atom -5571.659916 kJ/mol
# Density = 2.110402 g / cm^3
# Si number density = 21.152163 Si / 1000 Ang^3
#
#
#
# Elastic Constant Matrix: (Units=GPa)
#
#
# Indices 1 2 3 4 5 6 
#
# 1 141.7431 4.5079 31.2500 0.0000 -11.1790 0.0000
# 2 4.5079 58.4046 11.6037 0.0000 -7.6973 0.0000
# 3 31.2500 11.6037 88.0504 0.0000 -1.9263 0.0000
# 4 0.0000 0.0000 0.0000 28.0225 0.0000 -3.6598
# 5 -11.1790 -7.6973 -1.9263 0.0000 35.3410 0.0000
# 6 0.0000 0.0000 0.0000 -3.6598 0.0000 19.2293
#
#
#
# Elastic Compliance Matrix: (Units=1/GPa)
#
#
# Indices 1 2 3 4 5 6 
#
# 1 0.007845 0.000259 -0.002766 0.000000 0.002387 0.000000
# 2 0.000259 0.018090 -0.002391 0.000000 0.003891 0.000000
# 3 -0.002766 -0.002391 0.012638 0.000000 -0.000707 0.000000
# 4 0.000000 0.000000 0.000000 0.036595 0.000000 0.006965
# 5 0.002387 0.003891 -0.000707 0.000000 0.029860 0.000000
# 6 0.000000 0.000000 0.000000 0.006965 0.000000 0.053329
#
#
# Mechanical properties :
#
#
# Convention : Reuss Voigt Hill
#
# Bulk Modulus (GPa) = 34.74996 42.54681 38.64838
# Shear Modulus (GPa) = 28.12999 32.57432 30.35216
#
# Velocity S-wave (km/s) = 3.65072 3.92854 3.79217
# Velocity P-wave (km/s) = 5.85103 6.38249 6.12253
#
# Compressibility (1/GPa) = 0.02877701
#
# Stress axis : x y z
#
# Youngs Moduli (GPa) = 127.47147 55.27972 79.12371
#
# Poissons Ratio (x) = -0.01430 0.21886
# Poissons Ratio (y) = -0.03297 0.18915
# Poissons Ratio (z) = 0.35260 0.13215
#
# Static dielectric constant tensor:
#      x y z
#    x 1.885540 0.000000 0.014990 
#    y 0.000000 1.775310 0.000000 
#    z 0.014990 0.000000 1.761220 
# 
# From -- ./inp_files/165379.got.cif
#   From: 2010.05.17/outbox.cif.g08.bks.cpg/sg15_83_cif.got.tgz:165379.got - 2010.06.03 18:47:42.
