data_PCOD9279141
_publ_section_title
;
Structure prediction by ZEFSAII (Michael W. Deem and Ramdas Pophale) SiO2 
 PCOD9279141
Probable space group: C 2/C
;
_chemical_formula_sum "Si O2"
_cell_formula_units_Z 64
_cell_length_a 24.810010
_cell_length_b 9.368761
_cell_length_c 14.547915
_cell_angle_alpha 90.000000
_cell_angle_beta 99.858834
_cell_angle_gamma 90.000000
_cell_volume 3331.567585
_symmetry_space_group_name_H-M "C 2/C"
_symmetry_group_IT_number 15
_symmetry_cell_setting 'monoclinic'
loop_
_space_group_symop_operation_xyz
x,y,z
-x,y,1/2-z
-x,-y,-z
x,-y,1/2+z
1/2+x,1/2+y,z
1/2-x,1/2+y,1/2-z
1/2-x,1/2-y,-z
1/2+x,1/2-y,1/2+z
loop_
_atom_site_type_symbol
_atom_site_label
_atom_site_fract_x
_atom_site_fract_y
_atom_site_fract_z
Si Si1 0.580811 0.922565 0.531109
Si Si2 0.562446 0.235615 0.303447
Si Si3 0.039252 0.169150 0.184357
Si Si4 0.682353 0.272761 0.085199
Si Si5 0.096012 0.591312 0.818638
Si Si6 0.469315 0.217041 0.007865
Si Si7 0.138045 0.033598 0.728353
Si Si8 0.308283 0.305607 0.626419
O O1 0.636290 0.851070 0.582723
O O2 0.578748 0.894192 0.420585
O O3 0.526433 0.852810 0.557272
O O4 0.571424 0.091393 0.538921
O O5 0.500000 0.237959 0.250000
O O6 0.558507 0.279219 0.410041
O O7 0.603228 0.342309 0.265869
O O8 0.587210 0.075932 0.298342
O O9 0.058231 0.314924 0.240517
O O10 0.015404 0.190577 0.076224
O O11 0.000000 0.099541 0.250000
O O12 0.092749 0.077557 0.181842
O O13 0.670118 0.397438 0.153441
O O14 0.743850 0.218747 0.117822
O O15 0.678908 0.323406 0.978197
O O16 0.155700 0.667147 0.831396
O O17 0.173694 0.943376 0.810751
#
# Coordination Sequence:
#
# PCOD9279141 Si02
#       8
#     8   8   8   8   8   8   8   8
#     4   9  18  35  58  92 112 160 203 244 293 354
#     4  11  23  38  57  93 127 157 200 251 300 354
#     4  11  21  37  56  89 123 166 195 238 297 373
#     4  10  21  42  67  82 121 159 204 252 308 354
#     4   9  19  36  61  84 122 157 205 245 286 358
#     4  10  21  34  59  87 125 156 201 245 299 354
#     4  11  25  39  60  92 121 155 199 249 309 359
#     4   9  22  44  65  88 115 161 208 248 305 365
#
# _framework density 19.210175
#
# number of rings (size 3 to 8) (size 9 to 14) (size 15 to 20)
#    0.000    2.000    1.250    1.500    7.000    1.000 
#    2.250    1.875    0.000    3.750    0.000    0.000 
#    0.000    0.000    0.000    0.000    0.000    0.000 
#
# Total GULP energy -178514.619239 kJ/mol
# GULP energy per Si atom -5578.581851 kJ/mol
# Density = 1.916645 g / cm^3
# Si number density = 19.210175 Si / 1000 Ang^3
#
#
#
# Elastic Constant Matrix: (Units=GPa)
#
#
# Indices 1 2 3 4 5 6 
#
# 1 100.2869 42.5734 43.2263 0.0000 2.0527 0.0000
# 2 42.5734 74.9273 36.5587 0.0000 -0.1398 0.0000
# 3 43.2263 36.5587 85.6416 0.0000 -4.4796 0.0000
# 4 0.0000 0.0000 0.0000 10.2960 0.0000 -3.0591
# 5 2.0527 -0.1398 -4.4796 0.0000 27.2632 0.0000
# 6 0.0000 0.0000 0.0000 -3.0591 0.0000 15.7342
#
#
#
# Elastic Compliance Matrix: (Units=1/GPa)
#
#
# Indices 1 2 3 4 5 6 
#
# 1 0.014666 -0.005905 -0.004984 0.000000 -0.001953 0.000000
# 2 -0.005905 0.019268 -0.005261 0.000000 -0.000321 0.000000
# 3 -0.004984 -0.005261 0.016599 0.000000 0.003076 0.000000
# 4 0.000000 0.000000 0.000000 0.103079 0.000000 0.020041
# 5 -0.001953 -0.000321 0.003076 0.000000 0.037330 0.000000
# 6 0.000000 0.000000 0.000000 0.020041 0.000000 0.067452
#
#
# Mechanical properties :
#
#
# Convention : Reuss Voigt Hill
#
# Bulk Modulus (GPa) = 54.84766 56.17473 55.51119
# Shear Modulus (GPa) = 16.84782 19.89185 18.36983
#
# Velocity S-wave (km/s) = 2.96467 3.22139 3.09569
# Velocity P-wave (km/s) = 6.35078 6.56826 6.46044
#
# Compressibility (1/GPa) = 0.01823232
#
# Stress axis : x y z
#
# Youngs Moduli (GPa) = 68.18260 51.89901 60.24442
#
# Poissons Ratio (x) = 0.30648 0.30026
# Poissons Ratio (y) = 0.40264 0.31697
# Poissons Ratio (z) = 0.33982 0.27306
#
# Static dielectric constant tensor:
#      x y z
#    x 1.645050 0.000000 0.004410 
#    y 0.000000 1.677360 0.000000 
#    z 0.004410 0.000000 1.708080 
# 
# From -- ./inp_files/172398.got.cif
#   From: 2010.05.17/outbox.cif.g08.bks.cpg/sg15_87_cif.got.tgz:172398.got - 2010.06.03 18:47:42.
