data_PCOD9279784
_publ_section_title
;
Structure prediction by ZEFSAII (Michael W. Deem and Ramdas Pophale) SiO2 
 PCOD9279784
Probable space group: C 2/C
;
_chemical_formula_sum "Si O2"
_cell_formula_units_Z 60
_cell_length_a 15.060973
_cell_length_b 24.999266
_cell_length_c 9.002144
_cell_angle_alpha 90.000000
_cell_angle_beta 129.254685
_cell_angle_gamma 90.000000
_cell_volume 2624.571724
_symmetry_space_group_name_H-M "C 2/C"
_symmetry_group_IT_number 15
_symmetry_cell_setting 'monoclinic'
loop_
_space_group_symop_operation_xyz
x,y,z
-x,y,1/2-z
-x,-y,-z
x,-y,1/2+z
1/2+x,1/2+y,z
1/2-x,1/2+y,1/2-z
1/2-x,1/2-y,-z
1/2+x,1/2-y,1/2+z
loop_
_atom_site_type_symbol
_atom_site_label
_atom_site_fract_x
_atom_site_fract_y
_atom_site_fract_z
Si Si1 0.235247 0.548408 0.184190
Si Si2 0.183691 0.255279 0.641393
Si Si3 0.748993 0.942930 0.360749
Si Si4 0.694167 0.856274 0.870250
Si Si5 0.504130 0.581695 0.094328
Si Si6 0.000000 0.305579 0.250000
Si Si7 0.862461 0.663481 0.870498
Si Si8 0.075703 0.167455 0.709770
O O1 0.201053 0.490347 0.208814
O O2 0.193190 0.592306 0.260305
O O3 0.373845 0.554656 0.307515
O O4 0.199095 0.555206 0.974445
O O5 0.190011 0.304792 0.760046
O O6 0.301671 0.221429 0.785648
O O7 0.098878 0.210232 0.610104
O O8 0.118489 0.275359 0.424221
O O9 0.887357 0.951970 0.494867
O O10 0.722764 0.883736 0.273934
O O11 0.614133 0.849225 0.931933
O O12 0.815734 0.853778 0.084980
O O13 0.500000 0.612334 0.250000
O O14 0.485787 0.618619 0.933728
O O15 0.966421 0.337316 0.364006
O O16 0.000000 0.196658 0.750000
#
# Coordination Sequence:
#
# PCOD9279784 Si02
#       8
#     8   8   8   8   8   4   8   8
#     4  11  23  37  65  92 134 177 218 264 329 386
#     4  11  26  42  67  96 133 173 220 270 332 382
#     4  11  22  40  61  94 134 177 215 271 323 387
#     4  11  23  43  64  94 134 173 219 273 320 392
#     4  10  21  36  58  96 137 176 217 256 317 398
#     4  12  28  42  70  94 130 174 222 278 324 404
#     4  11  24  46  66  97 133 171 222 273 334 386
#     4  11  21  36  64  92 136 176 215 258 323 394
#
# _framework density 22.860873000000002
#
# number of rings (size 3 to 8) (size 9 to 14) (size 15 to 20)
#    0.000    1.067    4.000    4.000    4.667    0.000 
#    0.000    0.000    0.000    7.200    0.000    0.000 
#    0.000    0.000    0.000    0.000    0.000    0.000 
#
# Total GULP energy -167149.627460 kJ/mol
# GULP energy per Si atom -5571.654249 kJ/mol
# Density = 2.280884 g / cm^3
# Si number density = 22.860873 Si / 1000 Ang^3
#
#
#
# Elastic Constant Matrix: (Units=GPa)
#
#
# Indices 1 2 3 4 5 6 
#
# 1 93.3465 13.8691 27.3684 0.0000 -37.5111 0.0000
# 2 13.8691 67.7972 34.9643 0.0000 -24.6064 0.0000
# 3 27.3684 34.9643 114.0628 0.0000 -28.3783 0.0000
# 4 0.0000 0.0000 0.0000 9.9912 0.0000 -7.2077
# 5 -37.5111 -24.6064 -28.3783 0.0000 46.4081 0.0000
# 6 0.0000 0.0000 0.0000 -7.2077 0.0000 16.2199
#
#
#
# Elastic Compliance Matrix: (Units=1/GPa)
#
#
# Indices 1 2 3 4 5 6 
#
# 1 0.016162 0.002212 -0.001196 0.000000 0.013505 0.000000
# 2 0.002212 0.020047 -0.004230 0.000000 0.009831 0.000000
# 3 -0.001196 -0.004230 0.011266 0.000000 0.003680 0.000000
# 4 0.000000 0.000000 0.000000 0.147313 0.000000 0.065462
# 5 0.013505 0.009831 0.003680 0.000000 0.039926 0.000000
# 6 0.000000 0.000000 0.000000 0.065462 0.000000 0.090742
#
#
# Mechanical properties :
#
#
# Convention : Reuss Voigt Hill
#
# Bulk Modulus (GPa) = 24.36245 47.51224 35.93734
# Shear Modulus (GPa) = 14.46902 27.79081 21.12992
#
# Velocity S-wave (km/s) = 2.51851 3.49040 3.04350
# Velocity P-wave (km/s) = 4.37461 6.08869 5.30138
#
# Compressibility (1/GPa) = 0.04104678
#
# Stress axis : x y z
#
# Youngs Moduli (GPa) = 61.87492 49.88339 88.76095
#
# Poissons Ratio (x) = -0.11035 0.10616
# Poissons Ratio (y) = -0.13687 0.37546
# Poissons Ratio (z) = 0.07400 0.21101
#
# Static dielectric constant tensor:
#      x y z
#    x 2.021520 0.000000 -0.004730 
#    y 0.000000 1.829220 0.000000 
#    z -0.004730 0.000000 1.916780 
# 
# From -- ./inp_files/51549.got.cif
#   From: 2010.05.17/outbox.cif.g08.bks.cpg/sg15_26_cif.got.tgz:51549.got - 2010.06.03 18:47:42.
