data_PCOD9279890
_publ_section_title
;
Structure prediction by ZEFSAII (Michael W. Deem and Ramdas Pophale) SiO2 
 PCOD9279890
Probable space group: C 2/C
;
_chemical_formula_sum "Si O2"
_cell_formula_units_Z 36
_cell_length_a 11.691234
_cell_length_b 24.638555
_cell_length_c 9.134230
_cell_angle_alpha 90.000000
_cell_angle_beta 139.505610
_cell_angle_gamma 90.000000
_cell_volume 1708.606888
_symmetry_space_group_name_H-M "C 2/C"
_symmetry_group_IT_number 15
_symmetry_cell_setting 'monoclinic'
loop_
_space_group_symop_operation_xyz
x,y,z
-x,y,1/2-z
-x,-y,-z
x,-y,1/2+z
1/2+x,1/2+y,z
1/2-x,1/2+y,1/2-z
1/2-x,1/2-y,-z
1/2+x,1/2-y,1/2+z
loop_
_atom_site_type_symbol
_atom_site_label
_atom_site_fract_x
_atom_site_fract_y
_atom_site_fract_z
Si Si1 0.957702 0.355767 0.042613
Si Si2 0.500000 0.615925 0.750000
Si Si3 0.684944 0.194728 0.360906
Si Si4 0.304722 0.038940 0.489876
Si Si5 0.717883 0.564993 0.714994
O O1 0.816200 0.404736 0.913740
O O2 0.000000 0.339003 0.250000
O O3 0.134443 0.386593 0.153246
O O4 0.871190 0.307857 0.863979
O O5 0.335645 0.652258 0.542611
O O6 0.559172 0.583960 0.662930
O O7 0.500000 0.177752 0.250000
O O8 0.750000 0.250000 0.500000
O O9 0.500000 0.033307 0.750000
O O10 0.182187 0.046644 0.513293
O O11 0.282841 0.988063 0.364538
#
# Coordination Sequence:
#
# PCOD9279890 Si02
#       5
#     8   4   8   8   8
#     4   9  20  42  69  96 137 180 219 279 343 391
#     4  12  26  38  68 100 132 182 222 274 348 384
#     4  12  25  46  73  96 130 168 235 287 338 403
#     4   9  19  35  62  97 137 181 224 261 332 391
#     4  10  21  36  60  98 138 181 220 266 328 402
#
# _framework density 21.069797000000001
#
# number of rings (size 3 to 8) (size 9 to 14) (size 15 to 20)
#    0.000    2.222    3.333    2.667    6.222    0.889 
#    0.000    4.444    0.000    0.000    0.000    0.000 
#    0.000    0.000    0.000    0.000    0.000    0.000 
#
# Total GULP energy -100368.912773 kJ/mol
# GULP energy per Si atom -5576.050710 kJ/mol
# Density = 2.102184 g / cm^3
# Si number density = 21.069797 Si / 1000 Ang^3
#
#
#
# Elastic Constant Matrix: (Units=GPa)
#
#
# Indices 1 2 3 4 5 6 
#
# 1 143.2682 26.1748 39.2883 0.0000 -8.7008 0.0000
# 2 26.1748 52.6073 44.7680 0.0000 -10.6657 0.0000
# 3 39.2883 44.7680 118.0118 0.0000 -10.7228 0.0000
# 4 0.0000 0.0000 0.0000 38.1759 0.0000 -2.5503
# 5 -8.7008 -10.6657 -10.7228 0.0000 24.7498 0.0000
# 6 0.0000 0.0000 0.0000 -2.5503 0.0000 22.1097
#
#
#
# Elastic Compliance Matrix: (Units=1/GPa)
#
#
# Indices 1 2 3 4 5 6 
#
# 1 0.007923 -0.002309 -0.001665 0.000000 0.001069 0.000000
# 2 -0.002309 0.030264 -0.009994 0.000000 0.007900 0.000000
# 3 -0.001665 -0.009994 0.012882 0.000000 0.000689 0.000000
# 4 0.000000 0.000000 0.000000 0.026398 0.000000 0.003045
# 5 0.001069 0.007900 0.000689 0.000000 0.044483 0.000000
# 6 0.000000 0.000000 0.000000 0.003045 0.000000 0.045580
#
#
# Mechanical properties :
#
#
# Convention : Reuss Voigt Hill
#
# Bulk Modulus (GPa) = 43.22706 59.37217 51.29962
# Shear Modulus (GPa) = 24.60899 30.58414 27.59656
#
# Velocity S-wave (km/s) = 3.42127 3.81407 3.62300
# Velocity P-wave (km/s) = 6.01394 6.90190 6.47316
#
# Compressibility (1/GPa) = 0.02313366
#
# Stress axis : x y z
#
# Youngs Moduli (GPa) = 126.21186 33.04235 77.62801
#
# Poissons Ratio (x) = 0.07628 0.12924
# Poissons Ratio (y) = 0.29138 0.77584
# Poissons Ratio (z) = 0.21012 0.33024
#
# Static dielectric constant tensor:
#      x y z
#    x 1.845670 0.000000 -0.021970 
#    y 0.000000 1.750840 0.000000 
#    z -0.021970 0.000000 1.778450 
# 
# From -- ./inp_files/33940.got.cif
#   From: 2010.05.17/outbox.cif.g08.bks.cpg/sg15_17_cif.got.tgz:33940.got - 2010.06.03 18:47:42.
