data_PCOD9279185
_publ_section_title
;
Structure prediction by ZEFSAII (Michael W. Deem and Ramdas Pophale) SiO2 
 PCOD9279185
Probable space group: C 2/C
;
_chemical_formula_sum "Si O2"
_cell_formula_units_Z 44
_cell_length_a 6.484408
_cell_length_b 25.711292
_cell_length_c 12.964629
_cell_angle_alpha 90.000000
_cell_angle_beta 116.895954
_cell_angle_gamma 90.000000
_cell_volume 1927.685361
_symmetry_space_group_name_H-M "C 2/C"
_symmetry_group_IT_number 15
_symmetry_cell_setting 'monoclinic'
loop_
_space_group_symop_operation_xyz
x,y,z
-x,y,1/2-z
-x,-y,-z
x,-y,1/2+z
1/2+x,1/2+y,z
1/2-x,1/2+y,1/2-z
1/2-x,1/2-y,-z
1/2+x,1/2-y,1/2+z
loop_
_atom_site_type_symbol
_atom_site_label
_atom_site_fract_x
_atom_site_fract_y
_atom_site_fract_z
Si Si1 0.937298 0.644299 0.405226
Si Si2 0.292916 0.452526 0.133701
Si Si3 0.383373 0.192843 0.619806
Si Si4 0.939683 0.866301 0.021877
Si Si5 0.500000 0.706735 0.250000
Si Si6 0.794465 0.445969 0.999989
O O1 0.947188 0.669869 0.523084
O O2 0.728644 0.672125 0.299764
O O3 0.872426 0.584181 0.412858
O O4 0.193181 0.647586 0.416975
O O5 0.500000 0.472157 0.250000
O O6 0.370019 0.396402 0.109929
O O7 0.033413 0.447523 0.118981
O O8 0.273782 0.495444 0.039281
O O9 0.500000 0.168482 0.750000
O O10 0.110986 0.181961 0.573629
O O11 0.460282 0.252741 0.647244
O O12 0.093776 0.909620 0.998295
#
# Coordination Sequence:
#
# PCOD9279185 Si02
#       6
#     8   8   8   8   4   8
#     4  10  21  40  62  85 121 162 204 254 314 370
#     4  10  21  34  63  87 119 163 198 248 305 365
#     4   9  22  38  59  88 120 154 204 260 306 366
#     4  10  21  37  62  86 122 159 202 255 306 367
#     4  10  22  40  64  84 126 164 204 264 312 372
#     4   9  21  40  54  88 125 154 203 250 301 370
#
# _framework density 22.825302000000001
#
# number of rings (size 3 to 8) (size 9 to 14) (size 15 to 20)
#    0.545    1.818    0.000    1.091    8.909    0.727 
#    0.000    7.273    0.000    0.000    0.000    0.000 
#    0.000    0.000    0.000    0.000    0.000    0.000 
#
# Total GULP energy -122634.540986 kJ/mol
# GULP energy per Si atom -5574.297318 kJ/mol
# Density = 2.277335 g / cm^3
# Si number density = 22.825302 Si / 1000 Ang^3
#
#
#
# Elastic Constant Matrix: (Units=GPa)
#
#
# Indices 1 2 3 4 5 6 
#
# 1 106.3510 21.7701 81.2414 0.0000 43.6663 0.0000
# 2 21.7701 80.1406 53.5333 0.0000 17.1332 0.0000
# 3 81.2414 53.5333 117.3651 0.0000 45.5135 0.0000
# 4 0.0000 0.0000 0.0000 30.5560 0.0000 19.6026
# 5 43.6663 17.1332 45.5135 0.0000 53.7963 0.0000
# 6 0.0000 0.0000 0.0000 19.6026 0.0000 10.3362
#
#
#
# Elastic Compliance Matrix: (Units=1/GPa)
#
#
# Indices 1 2 3 4 5 6 
#
# 1 0.023558 0.005986 -0.016196 0.000000 -0.007325 0.000000
# 2 0.005986 0.019585 -0.013058 0.000000 -0.000049 0.000000
# 3 -0.016196 -0.013058 0.028243 0.000000 -0.006589 0.000000
# 4 0.000000 0.000000 0.000000 -0.151046 0.000000 0.286460
# 5 -0.007325 -0.000049 -0.006589 0.000000 0.030125 0.000000
# 6 0.000000 0.000000 0.000000 0.286460 0.000000 -0.446524
#
#
# Mechanical properties :
#
#
# Convention : Reuss Voigt Hill
#
# Bulk Modulus (GPa) = 40.24318 68.54959 54.39638
# Shear Modulus (GPa) = -11.33168 28.75850 8.71341
#
# Velocity S-wave (km/s) = -2.23054 3.55341 1.95594
# Velocity P-wave (km/s) = 3.32197 6.85078 5.38371
#
# Compressibility (1/GPa) = 0.02484893
#
# Stress axis : x y z
#
# Youngs Moduli (GPa) = 42.44914 51.05980 35.40708
#
# Poissons Ratio (x) = -0.30563 0.57347
# Poissons Ratio (y) = -0.25409 0.46233
# Poissons Ratio (z) = 0.68752 0.66672
#
# Static dielectric constant tensor:
#      x y z
#    x 1.895460 0.000000 0.004310 
#    y 0.000000 1.854310 0.000000 
#    z 0.004310 0.000000 1.931520 
# 
# From -- ./inp_files/186346.got.cif
#   From: 2010.05.17/outbox.cif.g08.bks.cpg/sg15_94_cif.got.tgz:186346.got - 2010.06.03 18:47:42.
