data_PCOD9279968
_publ_section_title
;
Structure prediction by ZEFSAII (Michael W. Deem and Ramdas Pophale) SiO2 
 PCOD9279968
Probable space group: C 2/C
;
_chemical_formula_sum "Si O2"
_cell_formula_units_Z 64
_cell_length_a 14.682953
_cell_length_b 20.624499
_cell_length_c 11.985218
_cell_angle_alpha 90.000000
_cell_angle_beta 90.302191
_cell_angle_gamma 90.000000
_cell_volume 3629.415701
_symmetry_space_group_name_H-M "C 2/C"
_symmetry_group_IT_number 15
_symmetry_cell_setting 'monoclinic'
loop_
_space_group_symop_operation_xyz
x,y,z
-x,y,1/2-z
-x,-y,-z
x,-y,1/2+z
1/2+x,1/2+y,z
1/2-x,1/2+y,1/2-z
1/2-x,1/2-y,-z
1/2+x,1/2-y,1/2+z
loop_
_atom_site_type_symbol
_atom_site_label
_atom_site_fract_x
_atom_site_fract_y
_atom_site_fract_z
Si Si1 0.106337 0.734682 0.736044
Si Si2 0.753668 0.803117 0.400998
Si Si3 0.109902 0.886646 0.754139
Si Si4 0.249184 0.564402 0.414935
Si Si5 0.741263 0.431843 0.953535
Si Si6 0.172758 0.696699 0.498511
Si Si7 0.604217 0.084035 0.218936
Si Si8 0.600676 0.765205 0.757950
O O1 0.159846 0.697208 0.832121
O O2 0.135906 0.810200 0.747379
O O3 0.123932 0.705220 0.615184
O O4 0.000000 0.734093 0.750000
O O5 0.750000 0.750000 0.500000
O O6 0.766649 0.872354 0.459496
O O7 0.828049 0.779211 0.309187
O O8 0.157621 0.917851 0.647395
O O9 0.162179 0.917529 0.860908
O O10 0.000000 0.892822 0.750000
O O11 0.265589 0.499739 0.483650
O O12 0.215521 0.625675 0.486675
O O13 0.169999 0.560667 0.319932
O O14 0.839577 0.435488 0.891161
O O15 0.250000 0.750000 0.500000
O O16 0.118254 0.717480 0.387560
O O17 0.500000 0.064840 0.250000
O O18 0.603074 0.162402 0.206994
O O19 0.500000 0.736550 0.750000
#
# Coordination Sequence:
#
# PCOD9279968 Si02
#       8
#     8   8   8   8   8   8   8   8
#     4  11  23  37  63  94 118 154 203 254 300 347
#     4  12  21  38  59  88 120 152 198 249 293 351
#     4  10  21  40  60  84 117 159 200 242 305 361
#     4  10  22  39  58  86 117 158 197 237 301 358
#     4  11  23  38  61  86 121 159 193 248 299 357
#     4  11  20  40  62  83 120 157 196 248 294 350
#     4   9  19  38  60  83 114 157 196 237 302 363
#     4  10  21  36  62  90 118 155 199 247 300 352
#
# _framework density 17.633692
#
# number of rings (size 3 to 8) (size 9 to 14) (size 15 to 20)
#    0.000    1.500    5.000    0.750    1.750    4.000 
#    0.000    1.875    0.000    0.000    0.000    0.000 
#    0.000    0.000    0.000    0.000    0.000    0.000 
#
# Total GULP energy -178319.129803 kJ/mol
# GULP energy per Si atom -5572.472806 kJ/mol
# Density = 1.759356 g / cm^3
# Si number density = 17.633692 Si / 1000 Ang^3
#
#
#
# Elastic Constant Matrix: (Units=GPa)
#
#
# Indices 1 2 3 4 5 6 
#
# 1 83.1022 40.2715 36.6131 0.0000 -1.4019 0.0000
# 2 40.2715 120.6927 70.1149 0.0000 -1.3589 0.0000
# 3 36.6131 70.1149 106.1865 0.0000 -14.0394 0.0000
# 4 0.0000 0.0000 0.0000 27.5444 0.0000 8.7540
# 5 -1.4019 -1.3589 -14.0394 0.0000 14.4634 0.0000
# 6 0.0000 0.0000 0.0000 8.7540 0.0000 -23.2097
#
#
#
# Elastic Compliance Matrix: (Units=1/GPa)
#
#
# Indices 1 2 3 4 5 6 
#
# 1 0.014983 -0.003008 -0.003471 0.000000 -0.002199 0.000000
# 2 -0.003008 0.015007 -0.010008 0.000000 -0.008596 0.000000
# 3 -0.003471 -0.010008 0.019565 0.000000 0.017714 0.000000
# 4 0.000000 0.000000 0.000000 0.032419 0.000000 0.012227
# 5 -0.002199 -0.008596 0.017714 0.000000 0.085314 0.000000
# 6 0.000000 0.000000 0.000000 0.012227 0.000000 -0.038474
#
#
# Mechanical properties :
#
#
# Convention : Reuss Voigt Hill
#
# Bulk Modulus (GPa) = 60.31246 67.10893 63.71070
# Shear Modulus (GPa) = 29.88385 14.62509 22.25447
#
# Velocity S-wave (km/s) = 4.12114 2.88303 3.55638
# Velocity P-wave (km/s) = 7.54469 7.01586 7.28507
#
# Compressibility (1/GPa) = 0.01658032
#
# Stress axis : x y z
#
# Youngs Moduli (GPa) = 66.74207 66.63775 51.11232
#
# Poissons Ratio (x) = 0.20043 0.17741
# Poissons Ratio (y) = 0.20074 0.51155
# Poissons Ratio (z) = 0.23166 0.66693
#
# Static dielectric constant tensor:
#      x y z
#    x 1.611370 0.000000 0.038570 
#    y 0.000000 1.582350 0.000000 
#    z 0.038570 0.000000 0.726520 
# 
# From -- ./inp_files/98768.got.cif
#   From: 2010.05.17/outbox.cif.g08.bks.cpg/sg15_50_cif.got.tgz:98768.got - 2010.06.03 18:47:42.
