data_PCOD9279706
_publ_section_title
;
Structure prediction by ZEFSAII (Michael W. Deem and Ramdas Pophale) SiO2 
 PCOD9279706
Probable space group: C 2/C
;
_chemical_formula_sum "Si O2"
_cell_formula_units_Z 48
_cell_length_a 13.789312
_cell_length_b 19.027900
_cell_length_c 14.457974
_cell_angle_alpha 90.000000
_cell_angle_beta 39.411117
_cell_angle_gamma 90.000000
_cell_volume 2408.423413
_symmetry_space_group_name_H-M "C 2/C"
_symmetry_group_IT_number 15
_symmetry_cell_setting 'monoclinic'
loop_
_space_group_symop_operation_xyz
x,y,z
-x,y,1/2-z
-x,-y,-z
x,-y,1/2+z
1/2+x,1/2+y,z
1/2-x,1/2+y,1/2-z
1/2-x,1/2-y,-z
1/2+x,1/2-y,1/2+z
loop_
_atom_site_type_symbol
_atom_site_label
_atom_site_fract_x
_atom_site_fract_y
_atom_site_fract_z
Si Si1 0.502644 0.931718 0.565543
Si Si2 0.615086 0.713716 0.244785
Si Si3 0.970025 0.019196 0.880954
Si Si4 0.152672 0.530884 0.577685
Si Si5 0.155012 0.909852 0.858591
Si Si6 0.563253 0.167913 0.536553
O O1 0.337438 0.920280 0.734626
O O2 0.522842 0.862189 0.489882
O O3 0.500000 0.000000 0.500000
O O4 0.631040 0.955936 0.542295
O O5 0.500000 0.685962 0.250000
O O6 0.616628 0.661095 0.331235
O O7 0.553732 0.790512 0.314736
O O8 0.791728 0.717827 0.085965
O O9 0.000000 0.032745 0.750000
O O10 0.932372 0.082359 0.979602
O O11 0.103576 0.973521 0.828776
O O12 0.816737 0.971620 0.002899
O O13 0.142440 0.598478 0.519836
O O14 0.000000 0.537782 0.750000
#
# Coordination Sequence:
#
# PCOD9279706 Si02
#       6
#     8   8   8   8   8   8
#     4   9  18  36  56  82 113 151 196 243 284 343
#     4  11  21  38  55  83 120 156 188 231 291 361
#     4  11  21  36  57  88 116 152 193 248 297 344
#     4  11  20  36  60  85 112 149 199 243 292 343
#     4  10  21  36  57  83 123 154 187 243 298 346
#     4  10  22  35  56  82 118 151 190 232 293 351
#
# _framework density 19.930050000000001
#
# number of rings (size 3 to 8) (size 9 to 14) (size 15 to 20)
#    0.000    1.667    1.667    5.500    0.000    1.333 
#    6.000    0.000    0.000    2.000    0.000    0.000 
#    0.000    0.000    0.000    0.000    0.000    0.000 
#
# Total GULP energy -133812.672610 kJ/mol
# GULP energy per Si atom -5575.528025 kJ/mol
# Density = 1.988469 g / cm^3
# Si number density = 19.930050 Si / 1000 Ang^3
#
#
#
# Elastic Constant Matrix: (Units=GPa)
#
#
# Indices 1 2 3 4 5 6 
#
# 1 49.8798 18.2502 15.4801 0.0005 -1.0392 -0.0004
# 2 18.2502 45.7613 10.0533 0.0005 -8.0746 -0.0004
# 3 15.4801 10.0533 67.3319 0.0000 5.5875 -0.0002
# 4 0.0005 0.0005 0.0000 20.6256 -0.0003 10.2949
# 5 -1.0392 -8.0746 5.5875 -0.0003 33.7962 0.0003
# 6 -0.0004 -0.0004 -0.0002 10.2949 0.0003 10.4696
#
#
#
# Elastic Compliance Matrix: (Units=1/GPa)
#
#
# Indices 1 2 3 4 5 6 
#
# 1 0.024657 -0.009019 -0.004265 -0.000001 -0.000691 0.000002
# 2 -0.009019 0.027177 -0.002535 -0.000001 0.006635 0.000001
# 3 -0.004265 -0.002535 0.016498 0.000000 -0.003464 0.000000
# 4 -0.000001 -0.000001 0.000000 0.095216 0.000001 -0.093627
# 5 -0.000691 0.006635 -0.003464 0.000001 0.031726 -0.000002
# 6 0.000002 0.000001 0.000000 -0.093627 -0.000002 0.187579
#
#
# Mechanical properties :
#
#
# Convention : Reuss Voigt Hill
#
# Bulk Modulus (GPa) = 27.25135 27.83781 27.54458
# Shear Modulus (GPa) = 11.71723 20.92424 16.32074
#
# Velocity S-wave (km/s) = 2.42733 3.24371 2.86475
# Velocity P-wave (km/s) = 4.64318 5.29405 4.97926
#
# Compressibility (1/GPa) = 0.03669543
#
# Stress axis : x y z
#
# Youngs Moduli (GPa) = 40.55610 36.79597 60.61228
#
# Poissons Ratio (x) = 0.33185 0.25851
# Poissons Ratio (y) = 0.36576 0.15365
# Poissons Ratio (z) = 0.17297 0.09327
#
# Static dielectric constant tensor:
#      x y z
#    x 1.771880 0.000000 0.062440 
#    y 0.000000 1.679210 0.000000 
#    z 0.062440 0.000000 1.765130 
# 
# From -- ./inp_files/155085.got.cif
#   From: 2010.05.17/outbox.cif.g08.bks.cpg/sg15_78_cif.got.tgz:155085.got - 2010.06.03 18:47:42.
