data_PCOD9279060
_publ_section_title
;
Structure prediction by ZEFSAII (Michael W. Deem and Ramdas Pophale) SiO2 
 PCOD9279060
Probable space group: C 2/C
;
_chemical_formula_sum "Si O2"
_cell_formula_units_Z 48
_cell_length_a 19.754027
_cell_length_b 14.635155
_cell_length_c 8.823277
_cell_angle_alpha 90.000000
_cell_angle_beta 80.077061
_cell_angle_gamma 90.000000
_cell_volume 2512.678548
_symmetry_space_group_name_H-M "C 2/C"
_symmetry_group_IT_number 15
_symmetry_cell_setting 'monoclinic'
loop_
_space_group_symop_operation_xyz
x,y,z
-x,y,1/2-z
-x,-y,-z
x,-y,1/2+z
1/2+x,1/2+y,z
1/2-x,1/2+y,1/2-z
1/2-x,1/2-y,-z
1/2+x,1/2-y,1/2+z
loop_
_atom_site_type_symbol
_atom_site_label
_atom_site_fract_x
_atom_site_fract_y
_atom_site_fract_z
Si Si1 0.871714 0.920694 0.694536
Si Si2 0.928186 0.088072 0.863822
Si Si3 0.222935 0.596140 0.124126
Si Si4 0.667159 0.714718 0.766428
Si Si5 0.168815 0.251846 0.086030
Si Si6 0.297519 0.089677 0.719776
O O1 0.931198 0.917150 0.544679
O O2 0.803511 0.926872 0.615024
O O3 0.854807 0.832591 0.802724
O O4 0.888083 0.002114 0.804005
O O5 0.886315 0.178924 0.834899
O O6 0.000000 0.090858 0.750000
O O7 0.208463 0.697170 0.191884
O O8 0.190765 0.513571 0.232274
O O9 0.196282 0.594259 0.963165
O O10 0.720309 0.630972 0.773359
O O11 0.632390 0.742965 0.937957
O O12 0.159367 0.341980 0.190598
O O13 0.250000 0.250000 0.000000
#
# Coordination Sequence:
#
# PCOD9279060 Si02
#       6
#     8   8   8   8   8   8
#     4  12  21  37  58  81 120 159 203 253 292 356
#     4  12  26  40  58  86 123 174 212 240 287 355
#     4  12  20  33  56  87 116 157 188 250 317 354
#     4  11  21  36  57  81 121 152 198 249 300 362
#     4  10  21  34  55  85 116 151 190 247 317 365
#     4  11  21  32  52  85 120 145 189 235 312 370
#
# _framework density 19.103121000000002
#
# number of rings (size 3 to 8) (size 9 to 14) (size 15 to 20)
#    0.000    0.667    6.667    4.000    4.667    0.000 
#    0.000    0.000    0.000    0.000    0.000   11.667 
#    0.000    0.000    0.000    0.000    0.000    0.000 
#
# Total GULP energy -133799.568143 kJ/mol
# GULP energy per Si atom -5574.982006 kJ/mol
# Density = 1.905964 g / cm^3
# Si number density = 19.103121 Si / 1000 Ang^3
#
#
#
# Elastic Constant Matrix: (Units=GPa)
#
#
# Indices 1 2 3 4 5 6 
#
# 1 13.5833 19.4218 -0.8992 0.0000 -9.6461 0.0000
# 2 19.4218 86.7117 9.1441 0.0000 -14.8976 0.0000
# 3 -0.8992 9.1441 116.8815 0.0000 -0.8842 0.0000
# 4 0.0000 0.0000 0.0000 37.4028 0.0000 8.0562
# 5 -9.6461 -14.8976 -0.8842 0.0000 21.7911 0.0000
# 6 0.0000 0.0000 0.0000 8.0562 0.0000 13.4409
#
#
#
# Elastic Compliance Matrix: (Units=1/GPa)
#
#
# Indices 1 2 3 4 5 6 
#
# 1 0.140858 -0.023979 0.003308 0.000000 0.046093 0.000000
# 2 -0.023979 0.017257 -0.001526 0.000000 0.001121 0.000000
# 3 0.003308 -0.001526 0.008706 0.000000 0.000774 0.000000
# 4 0.000000 0.000000 0.000000 0.030699 0.000000 -0.018400
# 5 0.046093 0.001121 0.000774 0.000000 0.067092 0.000000
# 6 0.000000 0.000000 0.000000 -0.018400 0.000000 0.085428
#
#
# Mechanical properties :
#
#
# Convention : Reuss Voigt Hill
#
# Bulk Modulus (GPa) = 8.16813 30.27887 19.22350
# Shear Modulus (GPa) = 11.48783 27.16095 19.32439
#
# Velocity S-wave (km/s) = 2.45492 3.77478 3.18399
# Velocity P-wave (km/s) = 3.51007 5.90620 4.85818
#
# Compressibility (1/GPa) = 0.12242697
#
# Stress axis : x y z
#
# Youngs Moduli (GPa) = 7.09937 57.94774 114.85831
#
# Poissons Ratio (x) = 1.38954 -0.38000
# Poissons Ratio (y) = 0.17024 0.17528
# Poissons Ratio (z) = -0.02349 0.08843
#
# Static dielectric constant tensor:
#      x y z
#    x 1.915160 0.000000 0.386320 
#    y 0.000000 1.661960 0.000000 
#    z 0.386320 0.000000 2.390250 
# 
# From -- ./inp_files/55225.got.cif
#   From: 2010.05.17/outbox.cif.g08.bks.cpg/sg15_28_cif.got.tgz:55225.got - 2010.06.03 18:47:42.
