data_PCOD9279254
_publ_section_title
;
Structure prediction by ZEFSAII (Michael W. Deem and Ramdas Pophale) SiO2 
 PCOD9279254
Probable space group: C 2/C
;
_chemical_formula_sum "Si O2"
_cell_formula_units_Z 40
_cell_length_a 13.322489
_cell_length_b 24.954463
_cell_length_c 14.089096
_cell_angle_alpha 90.000000
_cell_angle_beta 159.685164
_cell_angle_gamma 90.000000
_cell_volume 1626.183471
_symmetry_space_group_name_H-M "C 2/C"
_symmetry_group_IT_number 15
_symmetry_cell_setting 'monoclinic'
loop_
_space_group_symop_operation_xyz
x,y,z
-x,y,1/2-z
-x,-y,-z
x,-y,1/2+z
1/2+x,1/2+y,z
1/2-x,1/2+y,1/2-z
1/2-x,1/2-y,-z
1/2+x,1/2-y,1/2+z
loop_
_atom_site_type_symbol
_atom_site_label
_atom_site_fract_x
_atom_site_fract_y
_atom_site_fract_z
Si Si1 0.752707 0.070871 0.110520
Si Si2 0.631429 0.603638 0.075187
Si Si3 0.674015 0.815264 0.494890
Si Si4 0.861270 0.720131 0.322508
Si Si5 0.283680 0.051158 0.934600
O O1 0.875643 0.082197 0.323739
O O2 0.564464 0.123851 0.919606
O O3 0.000000 0.068291 0.250000
O O4 0.630250 0.011004 0.003771
O O5 0.712987 0.666139 0.154329
O O6 0.911994 0.578383 0.272519
O O7 0.341942 0.584005 0.767085
O O8 0.676246 0.783412 0.595635
O O9 0.000000 0.821484 0.750000
O O10 0.500000 0.793975 0.250000
O O11 0.200233 0.732429 0.622918
O O12 0.000000 0.052608 0.750000
#
# Coordination Sequence:
#
# PCOD9279254 Si02
#       5
#     8   8   8   8   8
#     4   9  21  37  60  93 130 165 196 233 294 371
#     4  11  23  41  63  89 123 159 202 254 305 361
#     4  10  21  35  54  85 125 162 199 239 284 357
#     4  11  23  39  60  84 114 158 205 254 310 356
#     4  11  23  40  64  91 121 158 203 253 305 364
#
# _framework density 24.597470999999999
#
# number of rings (size 3 to 8) (size 9 to 14) (size 15 to 20)
#    0.000    1.600    0.000    4.200    0.000   15.200 
#    0.000    0.000    0.000   12.000    0.000    0.000 
#    0.000    0.000    0.000    0.000    0.000    0.000 
#
# Total GULP energy -111726.420064 kJ/mol
# GULP energy per Si atom -5586.321003 kJ/mol
# Density = 2.454149 g / cm^3
# Si number density = 24.597471 Si / 1000 Ang^3
#
#
#
# Elastic Constant Matrix: (Units=GPa)
#
#
# Indices 1 2 3 4 5 6 
#
# 1 64.2131 0.1014 -2.3447 -0.0011 0.1504 0.0037
# 2 0.1014 106.7499 31.9776 -0.0095 -16.8632 0.0016
# 3 -2.3447 31.9776 128.8373 -0.0057 2.7240 0.0121
# 4 -0.0011 -0.0095 -0.0057 11.8342 -0.0018 -7.4809
# 5 0.1504 -16.8632 2.7240 -0.0018 28.1738 0.0057
# 6 0.0037 0.0016 0.0121 -7.4809 0.0057 25.8618
#
#
#
# Elastic Compliance Matrix: (Units=1/GPa)
#
#
# Indices 1 2 3 4 5 6 
#
# 1 0.015586 -0.000143 0.000323 0.000000 -0.000200 -0.000002
# 2 -0.000143 0.011382 -0.002978 0.000010 0.007101 0.000002
# 3 0.000323 -0.002978 0.008562 -0.000001 -0.002612 -0.000004
# 4 0.000000 0.000010 -0.000001 0.103410 0.000007 0.029913
# 5 -0.000200 0.007101 -0.002612 0.000007 0.039998 -0.000006
# 6 -0.000002 0.000002 -0.000004 0.029913 -0.000006 0.047320
#
#
# Mechanical properties :
#
#
# Convention : Reuss Voigt Hill
#
# Bulk Modulus (GPa) = 33.40681 39.91877 36.66279
# Shear Modulus (GPa) = 20.67568 31.17836 25.92702
#
# Velocity S-wave (km/s) = 2.90239 3.56412 3.25014
# Velocity P-wave (km/s) = 4.98424 5.76206 5.38721
#
# Compressibility (1/GPa) = 0.02993402
#
# Stress axis : x y z
#
# Youngs Moduli (GPa) = 64.16157 87.86156 116.79663
#
# Poissons Ratio (x) = 0.01259 -0.03778
# Poissons Ratio (y) = 0.00920 0.34778
# Poissons Ratio (z) = -0.02075 0.26162
#
# Static dielectric constant tensor:
#      x y z
#    x 1.782200 -0.000030 -0.062720 
#    y -0.000030 2.019100 -0.000020 
#    z -0.062720 -0.000020 1.857770 
# 
# From -- ./inp_files/157156.got.cif
#   From: 2010.05.17/outbox.cif.g08.bks.cpg/sg15_79_cif.got.tgz:157156.got - 2010.06.03 18:47:42.
