data_PCOD9279107
_publ_section_title
;
Structure prediction by ZEFSAII (Michael W. Deem and Ramdas Pophale) SiO2 
 PCOD9279107
Probable space group: C 2/C
;
_chemical_formula_sum "Si O2"
_cell_formula_units_Z 44
_cell_length_a 13.612322
_cell_length_b 20.395553
_cell_length_c 12.151902
_cell_angle_alpha 90.000000
_cell_angle_beta 43.470471
_cell_angle_gamma 90.000000
_cell_volume 2321.069667
_symmetry_space_group_name_H-M "C 2/C"
_symmetry_group_IT_number 15
_symmetry_cell_setting 'monoclinic'
loop_
_space_group_symop_operation_xyz
x,y,z
-x,y,1/2-z
-x,-y,-z
x,-y,1/2+z
1/2+x,1/2+y,z
1/2-x,1/2+y,1/2-z
1/2-x,1/2-y,-z
1/2+x,1/2-y,1/2+z
loop_
_atom_site_type_symbol
_atom_site_label
_atom_site_fract_x
_atom_site_fract_y
_atom_site_fract_z
Si Si1 0.403258 0.548321 0.422132
Si Si2 0.633907 0.082862 0.492906
Si Si3 0.000000 0.481610 0.750000
Si Si4 0.815494 0.273373 0.562759
Si Si5 0.947740 0.171243 0.084485
Si Si6 0.234543 0.069160 0.356773
O O1 0.500000 0.514792 0.250000
O O2 0.262363 0.574109 0.475550
O O3 0.489867 0.610142 0.396516
O O4 0.357320 0.496269 0.550298
O O5 0.594672 0.159426 0.527752
O O6 0.693234 0.069562 0.322625
O O7 0.520090 0.030372 0.629375
O O8 0.861597 0.437420 0.841638
O O9 0.750000 0.250000 0.500000
O O10 0.919608 0.220378 0.534193
O O11 0.678203 0.292155 0.747376
O O12 0.865754 0.133177 0.053176
#
# Coordination Sequence:
#
# PCOD9279107 Si02
#       6
#     8   8   4   8   8   8
#     4  11  18  35  56  88 117 149 190 239 293 355
#     4  10  21  34  57  87 117 154 188 241 300 353
#     4  10  22  38  58  84 120 152 204 246 294 346
#     4  11  20  33  54  85 126 151 189 229 298 363
#     4  11  22  35  56  87 123 157 185 238 295 365
#     4  10  22  36  57  83 121 154 198 245 295 347
#
# _framework density 18.956776999999999
#
# number of rings (size 3 to 8) (size 9 to 14) (size 15 to 20)
#    0.000    1.455    5.455    1.636    2.545    0.000 
#    0.000    0.000    0.000    4.364    2.364    0.000 
#    0.000    0.000    0.000    0.000    0.000    0.000 
#
# Total GULP energy -122640.812003 kJ/mol
# GULP energy per Si atom -5574.582364 kJ/mol
# Density = 1.891363 g / cm^3
# Si number density = 18.956777 Si / 1000 Ang^3
#
#
#
# Elastic Constant Matrix: (Units=GPa)
#
#
# Indices 1 2 3 4 5 6 
#
# 1 70.0740 49.5133 6.6522 0.0002 -22.6508 -0.0001
# 2 49.5133 120.5433 43.3051 0.0001 -6.2636 -0.0001
# 3 6.6522 43.3051 52.3000 0.0000 -3.9537 -0.0001
# 4 0.0002 0.0001 0.0000 29.6763 -0.0001 -17.5260
# 5 -22.6508 -6.2636 -3.9537 -0.0001 29.4110 0.0002
# 6 -0.0001 -0.0001 -0.0001 -17.5260 0.0002 38.0874
#
#
#
# Elastic Compliance Matrix: (Units=1/GPa)
#
#
# Indices 1 2 3 4 5 6 
#
# 1 0.031506 -0.015582 0.010586 0.000000 0.022369 0.000000
# 2 -0.015582 0.019557 -0.014956 0.000000 -0.009846 0.000000
# 3 0.010586 -0.014956 0.030847 0.000000 0.009114 0.000000
# 4 0.000000 0.000000 0.000000 0.046271 0.000000 0.021292
# 5 0.022369 -0.009846 0.009114 0.000000 0.050357 0.000000
# 6 0.000000 0.000000 0.000000 0.021292 0.000000 0.036053
#
#
# Mechanical properties :
#
#
# Convention : Reuss Voigt Hill
#
# Bulk Modulus (GPa) = 23.80622 49.09540 36.45081
# Shear Modulus (GPa) = 18.62209 28.99805 23.81007
#
# Velocity S-wave (km/s) = 3.13764 3.91537 3.54788
# Velocity P-wave (km/s) = 5.07068 6.81139 6.00445
#
# Compressibility (1/GPa) = 0.04200583
#
# Stress axis : x y z
#
# Youngs Moduli (GPa) = 31.73977 51.13146 32.41805
#
# Poissons Ratio (x) = 0.79672 -0.34316
# Poissons Ratio (y) = 0.49456 0.48485
# Poissons Ratio (z) = -0.33598 0.76473
#
# Static dielectric constant tensor:
#      x y z
#    x 1.700870 0.000000 -0.035570 
#    y 0.000000 1.682830 0.000000 
#    z -0.035570 0.000000 1.682730 
# 
# From -- ./inp_files/99674.got.cif
#   From: 2010.05.17/outbox.cif.g08.bks.cpg/sg15_50_cif.got.tgz:99674.got - 2010.06.03 18:47:42.
