data_PCOD9279238
_publ_section_title
;
Structure prediction by ZEFSAII (Michael W. Deem and Ramdas Pophale) SiO2 
 PCOD9279238
Probable space group: C 2/C
;
_chemical_formula_sum "Si O2"
_cell_formula_units_Z 56
_cell_length_a 26.284134
_cell_length_b 6.964668
_cell_length_c 18.006901
_cell_angle_alpha 90.000000
_cell_angle_beta 61.101349
_cell_angle_gamma 90.000000
_cell_volume 2885.873341
_symmetry_space_group_name_H-M "C 2/C"
_symmetry_group_IT_number 15
_symmetry_cell_setting 'monoclinic'
loop_
_space_group_symop_operation_xyz
x,y,z
-x,y,1/2-z
-x,-y,-z
x,-y,1/2+z
1/2+x,1/2+y,z
1/2-x,1/2+y,1/2-z
1/2-x,1/2-y,-z
1/2+x,1/2-y,1/2+z
loop_
_atom_site_type_symbol
_atom_site_label
_atom_site_fract_x
_atom_site_fract_y
_atom_site_fract_z
Si Si1 0.743182 0.476883 0.512051
Si Si2 0.849985 0.272539 0.922855
Si Si3 0.085496 0.547861 0.984954
Si Si4 0.833570 0.597640 0.709018
Si Si5 0.614172 0.741524 0.761321
Si Si6 0.028174 0.802056 0.451075
Si Si7 0.222567 0.981387 0.698863
O O1 0.750000 0.250000 0.500000
O O2 0.796024 0.590708 0.436780
O O3 0.683371 0.578010 0.527153
O O4 0.745475 0.511827 0.599241
O O5 0.889075 0.216985 0.824701
O O6 0.883796 0.395340 0.960008
O O7 0.126754 0.633590 0.891278
O O8 0.071411 0.323598 0.974748
O O9 0.024959 0.659311 0.026512
O O10 0.873953 0.464220 0.730742
O O11 0.810462 0.780991 0.768588
O O12 0.775463 0.497178 0.718335
O O13 0.562843 0.668120 0.849770
O O14 0.672814 0.637269 0.746601
O O15 0.000000 0.000000 0.500000
#
# Coordination Sequence:
#
# PCOD9279238 Si02
#       7
#     8   8   8   8   8   8   8
#     4  10  21  35  53  84 126 161 195 236 302 371
#     4  10  21  38  57  85 123 159 198 244 306 370
#     4  10  22  39  61  86 116 158 204 248 307 366
#     4  11  20  34  55  86 118 152 197 245 294 359
#     4  10  22  38  57  86 120 153 198 252 299 360
#     4  10  22  42  63  87 115 155 208 260 304 361
#     4  11  20  32  55  84 116 154 196 239 298 360
#
# _framework density 19.404872000000001
#
# number of rings (size 3 to 8) (size 9 to 14) (size 15 to 20)
#    0.000    1.714    2.857    1.714    0.000    2.857 
#    0.000    0.000    0.000    5.143    0.000    0.000 
#    0.000    0.000    0.000    0.000    0.000    0.000 
#
# Total GULP energy -156100.752423 kJ/mol
# GULP energy per Si atom -5575.026872 kJ/mol
# Density = 1.936071 g / cm^3
# Si number density = 19.404872 Si / 1000 Ang^3
#
#
#
# Elastic Constant Matrix: (Units=GPa)
#
#
# Indices 1 2 3 4 5 6 
#
# 1 55.4892 15.0843 22.4141 0.0002 0.5568 -0.0034
# 2 15.0843 85.6346 35.9141 0.0006 2.1572 -0.0063
# 3 22.4141 35.9141 119.3334 0.0002 -21.7178 0.0000
# 4 0.0002 0.0006 0.0002 31.7658 0.0003 -11.4248
# 5 0.5568 2.1572 -21.7178 0.0003 20.7415 0.0005
# 6 -0.0034 -0.0063 0.0000 -11.4248 0.0005 16.5620
#
#
#
# Elastic Compliance Matrix: (Units=1/GPa)
#
#
# Indices 1 2 3 4 5 6 
#
# 1 0.020203 -0.001706 -0.004136 0.000002 -0.004695 0.000005
# 2 -0.001706 0.014364 -0.005270 0.000002 -0.006966 0.000007
# 3 -0.004136 -0.005270 0.013420 -0.000002 0.014711 -0.000004
# 4 0.000002 0.000002 -0.000002 0.041868 -0.000003 0.028881
# 5 -0.004695 -0.006966 0.014711 -0.000003 0.064466 -0.000008
# 6 0.000005 0.000007 -0.000004 0.028881 -0.000008 0.080302
#
#
# Mechanical properties :
#
#
# Convention : Reuss Voigt Hill
#
# Bulk Modulus (GPa) = 38.81553 45.25355 42.03454
# Shear Modulus (GPa) = 18.83703 26.28353 22.56028
#
# Velocity S-wave (km/s) = 3.11905 3.68432 3.41340
# Velocity P-wave (km/s) = 5.74610 6.43974 6.10278
#
# Compressibility (1/GPa) = 0.02576288
#
# Stress axis : x y z
#
# Youngs Moduli (GPa) = 49.49768 69.61951 74.51515
#
# Poissons Ratio (x) = 0.11876 0.30818
# Poissons Ratio (y) = 0.08444 0.39272
# Poissons Ratio (z) = 0.20471 0.36691
#
# Static dielectric constant tensor:
#      x y z
#    x 1.676600 0.000000 -0.004340 
#    y 0.000000 1.715080 0.000000 
#    z -0.004340 0.000000 1.726910 
# 
# From -- ./inp_files/256512.got.cif
#   From: 2010.05.17/outbox.cif.g08.bks.cpg/sg15_129_cif.got.tgz:256512.got - 2010.06.03 18:47:42.
