data_PCOD9279507
_publ_section_title
;
Structure prediction by ZEFSAII (Michael W. Deem and Ramdas Pophale) SiO2 
 PCOD9279507
Probable space group: C 2/C
;
_chemical_formula_sum "Si O2"
_cell_formula_units_Z 56
_cell_length_a 17.632471
_cell_length_b 8.638166
_cell_length_c 17.120507
_cell_angle_alpha 90.000000
_cell_angle_beta 112.336161
_cell_angle_gamma 90.000000
_cell_volume 2412.009508
_symmetry_space_group_name_H-M "C 2/C"
_symmetry_group_IT_number 15
_symmetry_cell_setting 'monoclinic'
loop_
_space_group_symop_operation_xyz
x,y,z
-x,y,1/2-z
-x,-y,-z
x,-y,1/2+z
1/2+x,1/2+y,z
1/2-x,1/2+y,1/2-z
1/2-x,1/2-y,-z
1/2+x,1/2-y,1/2+z
loop_
_atom_site_type_symbol
_atom_site_label
_atom_site_fract_x
_atom_site_fract_y
_atom_site_fract_z
Si Si1 0.428750 0.292313 0.990696
Si Si2 0.814189 0.523693 0.792734
Si Si3 0.691285 0.823254 0.569622
Si Si4 0.436926 0.615279 0.072806
Si Si5 0.125789 0.713320 0.815483
Si Si6 0.868036 0.560673 0.070416
Si Si7 0.256172 0.782728 0.642084
O O1 0.485922 0.304137 0.938209
O O2 0.334448 0.299744 0.927509
O O3 0.445361 0.436486 0.054085
O O4 0.435654 0.134391 0.041565
O O5 0.849214 0.403291 0.869985
O O6 0.871689 0.650443 0.772072
O O7 0.745303 0.621765 0.811981
O O8 0.774624 0.420562 0.709588
O O9 0.638750 0.691037 0.506101
O O10 0.779204 0.758581 0.629720
O O11 0.694651 0.962792 0.508112
O O12 0.424399 0.652996 0.159282
O O13 0.099861 0.562961 0.855373
O O14 0.821355 0.694879 0.098954
#
# Coordination Sequence:
#
# PCOD9279507 Si02
#       7
#     8   8   8   8   8   8   8
#     4  11  22  38  62  93 114 160 200 249 299 357
#     4  11  22  35  59  88 119 155 195 241 309 339
#     4  11  20  38  60  89 119 154 199 258 295 348
#     4  10  23  39  62  86 126 154 202 251 300 350
#     4  10  21  39  58  92 118 158 195 249 304 356
#     4  10  21  35  63  87 115 149 206 246 292 344
#     4  11  22  37  59  92 116 154 199 250 292 365
#
# _framework density 23.217155999999999
#
# number of rings (size 3 to 8) (size 9 to 14) (size 15 to 20)
#    0.000    1.429    2.857    4.714    2.000    2.286 
#    0.000    0.714    3.143    0.000    0.000    0.000 
#    0.000    0.000    0.000    0.000    0.000    0.000 
#
# Total GULP energy -156393.602585 kJ/mol
# GULP energy per Si atom -5585.485807 kJ/mol
# Density = 2.316431 g / cm^3
# Si number density = 23.217156 Si / 1000 Ang^3
#
#
#
# Elastic Constant Matrix: (Units=GPa)
#
#
# Indices 1 2 3 4 5 6 
#
# 1 58.4807 7.5115 6.6533 0.0000 -5.0205 0.0000
# 2 7.5115 71.1158 17.4725 0.0000 -4.8473 0.0000
# 3 6.6533 17.4725 68.8866 0.0000 -19.0504 0.0000
# 4 0.0000 0.0000 0.0000 47.2765 0.0000 -25.4005
# 5 -5.0205 -4.8473 -19.0504 0.0000 19.8953 0.0000
# 6 0.0000 0.0000 0.0000 -25.4005 0.0000 35.4648
#
#
#
# Elastic Compliance Matrix: (Units=1/GPa)
#
#
# Indices 1 2 3 4 5 6 
#
# 1 0.017656 -0.001541 -0.000253 0.000000 0.003838 0.000000
# 2 -0.001541 0.015131 -0.003777 0.000000 -0.000319 0.000000
# 3 -0.000253 -0.003777 0.020711 0.000000 0.018848 0.000000
# 4 0.000000 0.000000 0.000000 0.034383 0.000000 0.024626
# 5 0.003838 -0.000319 0.018848 0.000000 0.069201 0.000000
# 6 0.000000 0.000000 0.000000 0.024626 0.000000 0.045834
#
#
# Mechanical properties :
#
#
# Convention : Reuss Voigt Hill
#
# Bulk Modulus (GPa) = 23.60997 29.08420 26.34708
# Shear Modulus (GPa) = 21.91279 31.65037 26.78158
#
# Velocity S-wave (km/s) = 3.07550 3.69620 3.40004
# Velocity P-wave (km/s) = 4.77523 5.54708 5.17557
#
# Compressibility (1/GPa) = 0.04235499
#
# Stress axis : x y z
#
# Youngs Moduli (GPa) = 56.63845 66.09122 48.28268
#
# Poissons Ratio (x) = 0.10185 0.01222
# Poissons Ratio (y) = 0.08729 0.18237
# Poissons Ratio (z) = 0.01433 0.24964
#
# Static dielectric constant tensor:
#      x y z
#    x 1.883330 0.000000 -0.021780 
#    y 0.000000 1.903320 0.000000 
#    z -0.021780 0.000000 1.909740 
# 
# From -- ./inp_files/209656.got.cif
#   From: 2010.05.17/outbox.cif.g08.bks.cpg/sg15_105_cif.got.tgz:209656.got - 2010.06.03 18:47:42.
