data_PCOD9279127
_publ_section_title
;
Structure prediction by ZEFSAII (Michael W. Deem and Ramdas Pophale) SiO2 
 PCOD9279127
Probable space group: C 2/C
;
_chemical_formula_sum "Si O2"
_cell_formula_units_Z 36
_cell_length_a 17.796185
_cell_length_b 12.356677
_cell_length_c 16.491011
_cell_angle_alpha 90.000000
_cell_angle_beta 154.981251
_cell_angle_gamma 90.000000
_cell_volume 1533.658915
_symmetry_space_group_name_H-M "C 2/C"
_symmetry_group_IT_number 15
_symmetry_cell_setting 'monoclinic'
loop_
_space_group_symop_operation_xyz
x,y,z
-x,y,1/2-z
-x,-y,-z
x,-y,1/2+z
1/2+x,1/2+y,z
1/2-x,1/2+y,1/2-z
1/2-x,1/2-y,-z
1/2+x,1/2-y,1/2+z
loop_
_atom_site_type_symbol
_atom_site_label
_atom_site_fract_x
_atom_site_fract_y
_atom_site_fract_z
Si Si1 0.856901 0.596923 0.176741
Si Si2 0.419393 0.119112 0.418586
Si Si3 0.405561 0.372499 0.778248
Si Si4 0.500000 0.556926 0.750000
Si Si5 0.682352 0.149792 0.810394
O O1 0.891516 0.649911 0.298262
O O2 0.874788 0.465032 0.207726
O O3 0.000000 0.629147 0.250000
O O4 0.656619 0.617715 0.950104
O O5 0.236297 0.115682 0.288965
O O6 0.568530 0.176891 0.618354
O O7 0.500000 0.000000 0.500000
O O8 0.398712 0.476616 0.713302
O O9 0.352066 0.262883 0.677775
O O10 0.610732 0.366249 0.005047
#
# Coordination Sequence:
#
# PCOD9279127 Si02
#       5
#     8   8   8   4   8
#     4  10  22  36  56  83 117 154 187 233 286 335
#     4  10  21  38  56  81 118 156 192 229 279 344
#     4  11  21  35  57  89 119 150 185 233 290 339
#     4  10  22  32  54  90 118 150 182 230 292 344
#     4  10  21  34  58  86 117 150 187 235 282 345
#
# _framework density 23.473277
#
# number of rings (size 3 to 8) (size 9 to 14) (size 15 to 20)
#    0.000    1.778    2.222    2.667    1.556   11.556 
#    0.000    0.000    0.000    1.333    0.000    0.000 
#    0.000    0.000    0.000    0.000    0.000    0.000 
#
# Total GULP energy -100534.487764 kJ/mol
# GULP energy per Si atom -5585.249320 kJ/mol
# Density = 2.341985 g / cm^3
# Si number density = 23.473277 Si / 1000 Ang^3
#
#
#
# Elastic Constant Matrix: (Units=GPa)
#
#
# Indices 1 2 3 4 5 6 
#
# 1 164.6434 2.0678 89.4478 0.0003 4.2018 0.0005
# 2 2.0678 35.8769 -2.5298 0.0004 12.4455 0.0004
# 3 89.4478 -2.5298 187.6342 0.0009 -18.6708 0.0005
# 4 0.0003 0.0004 0.0009 12.8010 0.0005 13.3576
# 5 4.2018 12.4455 -18.6708 0.0005 41.9693 0.0001
# 6 0.0005 0.0004 0.0005 13.3576 0.0001 -12.5002
#
#
#
# Elastic Compliance Matrix: (Units=1/GPa)
#
#
# Indices 1 2 3 4 5 6 
#
# 1 0.008496 0.000188 -0.004329 0.000000 -0.002832 0.000000
# 2 0.000188 0.031122 -0.000617 -0.000001 -0.009522 0.000000
# 3 -0.004329 -0.000617 0.007791 0.000000 0.004083 0.000000
# 4 0.000000 -0.000001 0.000000 0.036935 -0.000001 0.039468
# 5 -0.002832 -0.009522 0.004083 -0.000001 0.028750 -0.000001
# 6 0.000000 0.000000 0.000000 0.039468 -0.000001 -0.037824
#
#
# Mechanical properties :
#
#
# Convention : Reuss Voigt Hill
#
# Bulk Modulus (GPa) = 26.39167 62.90290 44.64729
# Shear Modulus (GPa) = 51.32464 28.39860 39.86162
#
# Velocity S-wave (km/s) = 4.68109 3.48203 4.12536
# Velocity P-wave (km/s) = 6.36274 6.55911 6.46167
#
# Compressibility (1/GPa) = 0.03789074
#
# Stress axis : x y z
#
# Youngs Moduli (GPa) = 117.70681 32.13164 128.34873
#
# Poissons Ratio (x) = -0.00603 0.55566
# Poissons Ratio (y) = -0.02207 0.07923
# Poissons Ratio (z) = 0.50959 0.01984
#
# Static dielectric constant tensor:
#      x y z
#    x 1.914460 0.000000 -0.101580 
#    y 0.000000 2.020600 0.000000 
#    z -0.101580 0.000000 1.944020 
# 
# From -- ./inp_files/37450.got.cif
#   From: 2010.05.17/outbox.cif.g08.bks.cpg/sg15_19_cif.got.tgz:37450.got - 2010.06.03 18:47:42.
