data_PCOD9279103
_publ_section_title
;
Structure prediction by ZEFSAII (Michael W. Deem and Ramdas Pophale) SiO2 
 PCOD9279103
Probable space group: C 2/C
;
_chemical_formula_sum "Si O2"
_cell_formula_units_Z 48
_cell_length_a 7.512672
_cell_length_b 34.404747
_cell_length_c 8.447940
_cell_angle_alpha 90.000000
_cell_angle_beta 89.001609
_cell_angle_gamma 90.000000
_cell_volume 2183.220899
_symmetry_space_group_name_H-M "C 2/C"
_symmetry_group_IT_number 15
_symmetry_cell_setting 'monoclinic'
loop_
_space_group_symop_operation_xyz
x,y,z
-x,y,1/2-z
-x,-y,-z
x,-y,1/2+z
1/2+x,1/2+y,z
1/2-x,1/2+y,1/2-z
1/2-x,1/2-y,-z
1/2+x,1/2-y,1/2+z
loop_
_atom_site_type_symbol
_atom_site_label
_atom_site_fract_x
_atom_site_fract_y
_atom_site_fract_z
Si Si1 0.291723 0.760364 0.756135
Si Si2 0.611801 0.326001 0.585679
Si Si3 0.250055 0.100821 0.594589
Si Si4 0.034153 0.456956 0.935400
Si Si5 0.340311 0.405565 0.033673
Si Si6 0.233689 0.188264 0.571598
O O1 0.500000 0.755005 0.750000
O O2 0.215590 0.786108 0.615498
O O3 0.212243 0.717810 0.790892
O O4 0.264393 0.787468 0.911088
O O5 0.500000 0.332863 0.750000
O O6 0.718651 0.365115 0.548491
O O7 0.478128 0.320360 0.440726
O O8 0.397402 0.071853 0.526498
O O9 0.212695 0.095971 0.781340
O O10 0.312789 0.145396 0.569695
O O11 0.055776 0.093533 0.516866
O O12 0.000000 0.455705 0.750000
O O13 0.000000 0.500000 0.000000
O O14 0.233500 0.441427 0.963493
#
# Coordination Sequence:
#
# PCOD9279103 Si02
#       6
#     8   8   8   8   8   8
#     4  10  21  34  57  85 126 168 233 276 334 384
#     4   9  20  37  60  89 129 170 234 275 334 398
#     4  10  23  45  71  99 139 180 235 273 346 409
#     4  12  28  47  75 106 142 172 219 281 340 420
#     4  10  23  42  72 100 136 185 222 286 336 407
#     4   9  21  39  54  86 129 173 218 285 327 394
#
# _framework density 21.985862999999998
#
# number of rings (size 3 to 8) (size 9 to 14) (size 15 to 20)
#    0.000    2.000    0.000    1.500   14.000    1.333 
#    0.000    3.333    0.000    0.000    0.000    0.000 
#    0.000    0.000    0.000    0.000    0.000    0.000 
#
# Total GULP energy -134107.369461 kJ/mol
# GULP energy per Si atom -5587.807061 kJ/mol
# Density = 2.193582 g / cm^3
# Si number density = 21.985863 Si / 1000 Ang^3
#
#
#
# Elastic Constant Matrix: (Units=GPa)
#
#
# Indices 1 2 3 4 5 6 
#
# 1 69.0424 50.4239 12.8467 0.0000 0.2754 0.0000
# 2 50.4239 188.9065 34.4913 0.0000 4.5473 0.0000
# 3 12.8467 34.4913 62.9112 0.0000 4.4333 0.0000
# 4 0.0000 0.0000 0.0000 48.1013 0.0000 0.6109
# 5 0.2754 4.5473 4.4333 0.0000 26.9461 0.0000
# 6 0.0000 0.0000 0.0000 0.6109 0.0000 33.2865
#
#
#
# Elastic Compliance Matrix: (Units=1/GPa)
#
#
# Indices 1 2 3 4 5 6 
#
# 1 0.018084 -0.004625 -0.001213 0.000000 0.000795 0.000000
# 2 -0.004625 0.007071 -0.002885 0.000000 -0.000671 0.000000
# 3 -0.001213 -0.002885 0.017897 0.000000 -0.002445 0.000000
# 4 0.000000 0.000000 0.000000 0.020794 0.000000 -0.000382
# 5 0.000795 -0.000671 -0.002445 0.000000 0.037619 0.000000
# 6 0.000000 0.000000 0.000000 -0.000382 0.000000 0.030049
#
#
# Mechanical properties :
#
#
# Convention : Reuss Voigt Hill
#
# Bulk Modulus (GPa) = 39.05315 57.37599 48.21457
# Shear Modulus (GPa) = 31.74687 36.54000 34.14344
#
# Velocity S-wave (km/s) = 3.80408 4.08116 3.94505
# Velocity P-wave (km/s) = 6.09066 6.95422 6.53672
#
# Compressibility (1/GPa) = 0.02560613
#
# Stress axis : x y z
#
# Youngs Moduli (GPa) = 55.29746 141.42301 55.87453
#
# Poissons Ratio (x) = 0.65404 0.06780
# Poissons Ratio (y) = 0.25573 0.16120
# Poissons Ratio (z) = 0.06710 0.40801
#
# Static dielectric constant tensor:
#      x y z
#    x 1.826390 0.000000 -0.000160 
#    y 0.000000 1.836570 0.000000 
#    z -0.000160 0.000000 1.826510 
# 
# From -- ./inp_files/26115.got.cif
#   From: 2010.05.17/outbox.cif.g08.bks.cpg/sg15_14_cif.got.tgz:26115.got - 2010.06.03 18:47:42.
