data_PCOD9279559
_publ_section_title
;
Structure prediction by ZEFSAII (Michael W. Deem and Ramdas Pophale) SiO2 
 PCOD9279559
Probable space group: C 2/C
;
_chemical_formula_sum "Si O2"
_cell_formula_units_Z 56
_cell_length_a 19.404646
_cell_length_b 26.989143
_cell_length_c 5.275977
_cell_angle_alpha 90.000000
_cell_angle_beta 106.799655
_cell_angle_gamma 90.000000
_cell_volume 2645.181070
_symmetry_space_group_name_H-M "C 2/C"
_symmetry_group_IT_number 15
_symmetry_cell_setting 'monoclinic'
loop_
_space_group_symop_operation_xyz
x,y,z
-x,y,1/2-z
-x,-y,-z
x,-y,1/2+z
1/2+x,1/2+y,z
1/2-x,1/2+y,1/2-z
1/2-x,1/2-y,-z
1/2+x,1/2-y,1/2+z
loop_
_atom_site_type_symbol
_atom_site_label
_atom_site_fract_x
_atom_site_fract_y
_atom_site_fract_z
Si Si1 0.343985 0.336681 0.027610
Si Si2 0.185973 0.594396 0.878856
Si Si3 0.109237 0.017730 0.456325
Si Si4 0.270869 0.305666 0.456059
Si Si5 0.956433 0.115010 0.944734
Si Si6 0.766726 0.060688 0.455604
Si Si7 0.081448 0.478378 0.117763
O O1 0.292492 0.311528 0.183871
O O2 0.418463 0.339052 0.260909
O O3 0.333343 0.316623 0.732593
O O4 0.321652 0.393854 0.969392
O O5 0.208770 0.652054 0.930404
O O6 0.229049 0.573256 0.681966
O O7 0.103548 0.576750 0.732474
O O8 0.213578 0.567458 0.161472
O O9 0.102995 0.074880 0.524614
O O10 0.073967 0.987966 0.647343
O O11 0.185271 0.988940 0.491538
O O12 0.250000 0.250000 0.500000
O O13 0.000000 0.093186 0.750000
O O14 0.000000 0.126361 0.250000
O O15 0.112930 0.511815 0.375230
O O16 0.000000 0.500000 0.000000
#
# Coordination Sequence:
#
# PCOD9279559 Si02
#       7
#     8   8   8   8   8   8   8
#     4  10  21  41  57  86 122 150 195 260 305 366
#     4  10  21  36  58  88 120 156 197 240 306 383
#     4  12  24  36  52  75 117 159 219 258 290 333
#     4  10  21  39  67  94 120 146 193 260 334 372
#     4  12  26  41  57  81 117 177 216 249 300 352
#     4  10  21  36  52  80 121 158 191 249 309 343
#     4  10  21  37  55  84 120 162 196 230 278 361
#
# _framework density 21.170573999999998
#
# number of rings (size 3 to 8) (size 9 to 14) (size 15 to 20)
#    0.000    1.429    1.429    3.857    4.000    5.143 
#    0.000    0.000    0.000    0.000   22.286    0.000 
#    0.000    0.000    0.000    0.000    0.000    0.000 
#
# Total GULP energy -155902.452681 kJ/mol
# GULP energy per Si atom -5567.944739 kJ/mol
# Density = 2.112239 g / cm^3
# Si number density = 21.170574 Si / 1000 Ang^3
#
#
#
# Elastic Constant Matrix: (Units=GPa)
#
#
# Indices 1 2 3 4 5 6 
#
# 1 54.6117 42.1044 26.8263 0.0000 -2.5124 0.0000
# 2 42.1044 95.6564 30.2636 0.0000 16.3815 0.0000
# 3 26.8263 30.2636 173.0242 0.0000 -10.7749 0.0000
# 4 0.0000 0.0000 0.0000 28.8403 0.0000 0.4371
# 5 -2.5124 16.3815 -10.7749 0.0000 40.4697 0.0000
# 6 0.0000 0.0000 0.0000 0.4371 0.0000 13.6292
#
#
#
# Elastic Compliance Matrix: (Units=1/GPa)
#
#
# Indices 1 2 3 4 5 6 
#
# 1 0.030297 -0.013969 -0.001815 0.000000 0.007052 0.000000
# 2 -0.013969 0.018639 -0.001645 0.000000 -0.008850 0.000000
# 3 -0.001815 -0.001645 0.006491 0.000000 0.002282 0.000000
# 4 0.000000 0.000000 0.000000 0.034691 0.000000 -0.001113
# 5 0.007052 -0.008850 0.002282 0.000000 0.029337 0.000000
# 6 0.000000 0.000000 0.000000 -0.001113 0.000000 0.073408
#
#
# Mechanical properties :
#
#
# Convention : Reuss Voigt Hill
#
# Bulk Modulus (GPa) = 48.61951 57.96454 53.29202
# Shear Modulus (GPa) = 21.31498 31.52772 26.42135
#
# Velocity S-wave (km/s) = 3.17649 3.86323 3.53657
# Velocity P-wave (km/s) = 6.03895 6.88031 6.47331
#
# Compressibility (1/GPa) = 0.02056788
#
# Stress axis : x y z
#
# Youngs Moduli (GPa) = 33.00673 53.65111 154.06419
#
# Poissons Ratio (x) = 0.74946 0.27960
# Poissons Ratio (y) = 0.46107 0.25350
# Poissons Ratio (z) = 0.05990 0.08828
#
# Static dielectric constant tensor:
#      x y z
#    x 1.416290 0.000000 -0.014880 
#    y 0.000000 1.751220 0.000000 
#    z -0.014880 0.000000 1.870340 
# 
# From -- ./inp_files/14580.got.cif
#   From: 2010.05.17/outbox.cif.g08.bks.cpg/sg15_8_cif.got.tgz:14580.got - 2010.06.03 18:47:42.
