data_PCOD9279581
_publ_section_title
;
Structure prediction by ZEFSAII (Michael W. Deem and Ramdas Pophale) SiO2 
 PCOD9279581
Probable space group: C 2/C
;
_chemical_formula_sum "Si O2"
_cell_formula_units_Z 40
_cell_length_a 25.122402
_cell_length_b 11.519807
_cell_length_c 20.707196
_cell_angle_alpha 90.000000
_cell_angle_beta 19.516981
_cell_angle_gamma 90.000000
_cell_volume 2002.102094
_symmetry_space_group_name_H-M "C 2/C"
_symmetry_group_IT_number 15
_symmetry_cell_setting 'monoclinic'
loop_
_space_group_symop_operation_xyz
x,y,z
-x,y,1/2-z
-x,-y,-z
x,-y,1/2+z
1/2+x,1/2+y,z
1/2-x,1/2+y,1/2-z
1/2-x,1/2-y,-z
1/2+x,1/2-y,1/2+z
loop_
_atom_site_type_symbol
_atom_site_label
_atom_site_fract_x
_atom_site_fract_y
_atom_site_fract_z
Si Si1 0.383341 0.473217 0.207090
Si Si2 0.813061 0.378901 0.947329
Si Si3 0.703196 0.582563 0.829534
Si Si4 0.107753 0.757909 0.955987
Si Si5 0.175809 0.412991 0.704715
O O1 0.280903 0.438259 0.386213
O O2 0.288210 0.486657 0.249127
O O3 0.518813 0.570396 0.062568
O O4 0.489393 0.358789 0.070036
O O5 0.785939 0.448715 0.911766
O O6 0.000000 0.372420 0.750000
O O7 0.750000 0.250000 0.000000
O O8 0.769311 0.709375 0.737228
O O9 0.807821 0.516466 0.763075
O O10 0.201305 0.814762 0.908958
O O11 0.994096 0.650368 0.102732
#
# Coordination Sequence:
#
# PCOD9279581 Si02
#       5
#     8   8   8   8   8
#     4  10  22  36  57  84 125 150 186 240 293 338
#     4  12  23  35  57  87 122 152 185 231 299 357
#     4  10  21  36  53  84 119 153 196 233 276 352
#     4  11  19  36  55  83 120 152 191 230 288 339
#     4  11  22  34  59  85 120 153 191 231 291 347
#
# _framework density 19.979001
#
# number of rings (size 3 to 8) (size 9 to 14) (size 15 to 20)
#    0.000    1.200    4.000    3.000    2.800    0.000 
#    0.000    0.000    0.000    0.000    0.000   22.400 
#    0.000    0.000    0.000    0.000    0.000    0.000 
#
# Total GULP energy -111565.683018 kJ/mol
# GULP energy per Si atom -5578.284151 kJ/mol
# Density = 1.993353 g / cm^3
# Si number density = 19.979001 Si / 1000 Ang^3
#
#
#
# Elastic Constant Matrix: (Units=GPa)
#
#
# Indices 1 2 3 4 5 6 
#
# 1 135.6058 34.6956 52.4428 -0.0003 25.9856 0.0002
# 2 34.6956 34.5465 37.1588 -0.0004 9.3843 0.0004
# 3 52.4428 37.1588 124.0425 -0.0003 18.5609 0.0004
# 4 -0.0003 -0.0004 -0.0003 36.1464 0.0004 1.8417
# 5 25.9856 9.3843 18.5609 0.0004 34.5542 -0.0004
# 6 0.0002 0.0004 0.0004 1.8417 -0.0004 29.8181
#
#
#
# Elastic Compliance Matrix: (Units=1/GPa)
#
#
# Indices 1 2 3 4 5 6 
#
# 1 0.011016 -0.008063 -0.001446 0.000000 -0.005317 0.000000
# 2 -0.008063 0.049466 -0.011207 0.000000 -0.001350 -0.000001
# 3 -0.001446 -0.011207 0.012410 0.000000 -0.002535 0.000000
# 4 0.000000 0.000000 0.000000 0.027753 -0.000001 -0.001714
# 5 -0.005317 -0.001350 -0.002535 -0.000001 0.034667 0.000001
# 6 0.000000 -0.000001 0.000000 -0.001714 0.000001 0.033642
#
#
# Mechanical properties :
#
#
# Convention : Reuss Voigt Hill
#
# Bulk Modulus (GPa) = 31.78823 60.30993 46.04908
# Shear Modulus (GPa) = 22.63746 31.43024 27.03385
#
# Velocity S-wave (km/s) = 3.36975 3.97062 3.68246
# Velocity P-wave (km/s) = 5.57545 7.16053 6.41712
#
# Compressibility (1/GPa) = 0.03145818
#
# Stress axis : x y z
#
# Youngs Moduli (GPa) = 90.78093 20.21585 80.58211
#
# Poissons Ratio (x) = 0.16301 0.11652
# Poissons Ratio (y) = 0.73199 0.90311
# Poissons Ratio (z) = 0.13127 0.22656
#
# Static dielectric constant tensor:
#      x y z
#    x 1.786300 0.000000 -0.021060 
#    y 0.000000 1.743710 0.000000 
#    z -0.021060 0.000000 1.786010 
# 
# From -- ./inp_files/211127.got.cif
#   From: 2010.05.17/outbox.cif.g08.bks.cpg/sg15_106_cif.got.tgz:211127.got - 2010.06.03 18:47:42.
