data_PCOD9279901
_publ_section_title
;
Structure prediction by ZEFSAII (Michael W. Deem and Ramdas Pophale) SiO2 
 PCOD9279901
Probable space group: C 2/C
;
_chemical_formula_sum "Si O2"
_cell_formula_units_Z 56
_cell_length_a 12.991598
_cell_length_b 15.780285
_cell_length_c 13.650335
_cell_angle_alpha 90.000000
_cell_angle_beta 87.116455
_cell_angle_gamma 90.000000
_cell_volume 2794.927159
_symmetry_space_group_name_H-M "C 2/C"
_symmetry_group_IT_number 15
_symmetry_cell_setting 'monoclinic'
loop_
_space_group_symop_operation_xyz
x,y,z
-x,y,1/2-z
-x,-y,-z
x,-y,1/2+z
1/2+x,1/2+y,z
1/2-x,1/2+y,1/2-z
1/2-x,1/2-y,-z
1/2+x,1/2-y,1/2+z
loop_
_atom_site_type_symbol
_atom_site_label
_atom_site_fract_x
_atom_site_fract_y
_atom_site_fract_z
Si Si1 0.594757 0.307625 0.669569
Si Si2 0.856654 0.450199 0.845089
Si Si3 0.208425 0.587481 0.358773
Si Si4 0.452246 0.871940 0.360605
Si Si5 0.518779 0.372674 0.463543
Si Si6 0.827999 0.012149 0.020388
Si Si7 0.005572 0.680417 0.434093
O O1 0.500000 0.310204 0.750000
O O2 0.698129 0.357115 0.690058
O O3 0.622057 0.209684 0.645794
O O4 0.551067 0.349703 0.573092
O O5 0.844173 0.459659 0.729479
O O6 0.903952 0.537270 0.884357
O O7 0.929466 0.372009 0.868666
O O8 0.746394 0.440267 0.901521
O O9 0.258706 0.526840 0.437084
O O10 0.121305 0.646179 0.411534
O O11 0.500000 0.878730 0.250000
O O12 0.521150 0.843898 0.450987
O O13 0.610744 0.435813 0.427284
O O14 0.414543 0.426723 0.471190
O O15 0.504487 0.280963 0.415895
#
# Coordination Sequence:
#
# PCOD9279901 Si02
#       7
#     8   8   8   8   8   8   8
#     4   9  19  37  62  88 120 160 206 249 305 368
#     4  12  24  38  60  91 127 162 202 256 311 363
#     4  11  23  39  61  90 125 162 204 257 309 365
#     4  10  21  36  61  87 119 160 203 249 298 367
#     4   9  21  41  64  89 121 162 205 257 305 364
#     4  10  22  41  65  91 122 160 209 253 308 365
#     4  11  23  40  62  89 127 161 203 252 310 362
#
# _framework density 20.036299
#
# number of rings (size 3 to 8) (size 9 to 14) (size 15 to 20)
#    0.000    1.714    1.429    2.571    4.000    2.286 
#    2.571    1.429    0.000    0.000    0.000    0.000 
#    0.000    0.000    0.000    0.000    0.000    0.000 
#
# Total GULP energy -156212.487848 kJ/mol
# GULP energy per Si atom -5579.017423 kJ/mol
# Density = 1.999070 g / cm^3
# Si number density = 20.036299 Si / 1000 Ang^3
#
#
#
# Elastic Constant Matrix: (Units=GPa)
#
#
# Indices 1 2 3 4 5 6 
#
# 1 94.7054 54.6851 23.4117 0.0000 -4.6812 0.0000
# 2 54.6851 123.4277 14.9419 0.0000 13.2605 0.0000
# 3 23.4117 14.9419 47.6993 0.0000 -0.1945 0.0000
# 4 0.0000 0.0000 0.0000 10.4477 0.0000 -14.7421
# 5 -4.6812 13.2605 -0.1945 0.0000 16.4400 0.0000
# 6 0.0000 0.0000 0.0000 -14.7421 0.0000 3.2902
#
#
#
# Elastic Compliance Matrix: (Units=1/GPa)
#
#
# Indices 1 2 3 4 5 6 
#
# 1 0.017308 -0.008188 -0.005883 0.000000 0.011463 0.000000
# 2 -0.008188 0.013137 -0.000149 0.000000 -0.012929 0.000000
# 3 -0.005883 -0.000149 0.023894 0.000000 -0.001272 0.000000
# 4 0.000000 0.000000 0.000000 -0.017984 0.000000 -0.080578
# 5 0.011463 -0.012929 -0.001272 0.000000 0.074504 0.000000
# 6 0.000000 0.000000 0.000000 -0.080578 0.000000 -0.057105
#
#
# Mechanical properties :
#
#
# Convention : Reuss Voigt Hill
#
# Bulk Modulus (GPa) = 38.61324 50.21220 44.41272
# Shear Modulus (GPa) = 55.05003 17.55518 36.30260
#
# Velocity S-wave (km/s) = 5.24736 2.96323 4.26119
# Velocity P-wave (km/s) = 7.48509 6.06817 6.81356
#
# Compressibility (1/GPa) = 0.02589786
#
# Stress axis : x y z
#
# Youngs Moduli (GPa) = 57.77773 76.12376 41.85172
#
# Poissons Ratio (x) = 0.62326 0.24623
# Poissons Ratio (y) = 0.47306 0.00624
# Poissons Ratio (z) = 0.33993 0.01136
#
# Static dielectric constant tensor:
#      x y z
#    x 1.713620 0.000000 -0.010510 
#    y 0.000000 1.721110 0.000000 
#    z -0.010510 0.000000 1.718280 
# 
# From -- ./inp_files/144231.got.cif
#   From: 2010.05.17/outbox.cif.g08.bks.cpg/sg15_73_cif.got.tgz:144231.got - 2010.06.03 18:47:42.
