data_PCOD9279494
_publ_section_title
;
Structure prediction by ZEFSAII (Michael W. Deem and Ramdas Pophale) SiO2 
 PCOD9279494
Probable space group: C 2/C
;
_chemical_formula_sum "Si O2"
_cell_formula_units_Z 32
_cell_length_a 19.799646
_cell_length_b 14.036692
_cell_length_c 9.048462
_cell_angle_alpha 90.000000
_cell_angle_beta 28.245610
_cell_angle_gamma 90.000000
_cell_volume 1190.116781
_symmetry_space_group_name_H-M "C 2/C"
_symmetry_group_IT_number 15
_symmetry_cell_setting 'monoclinic'
loop_
_space_group_symop_operation_xyz
x,y,z
-x,y,1/2-z
-x,-y,-z
x,-y,1/2+z
1/2+x,1/2+y,z
1/2-x,1/2+y,1/2-z
1/2-x,1/2-y,-z
1/2+x,1/2-y,1/2+z
loop_
_atom_site_type_symbol
_atom_site_label
_atom_site_fract_x
_atom_site_fract_y
_atom_site_fract_z
Si Si1 0.669430 0.611438 0.506364
Si Si2 0.174546 0.706932 0.795015
Si Si3 0.498685 0.889929 0.099153
Si Si4 0.229659 0.961776 0.177669
O O1 0.658292 0.713359 0.451564
O O2 0.635907 0.542517 0.436552
O O3 0.625918 0.589020 0.756498
O O4 0.835590 0.587103 0.223838
O O5 0.250000 0.750000 0.500000
O O6 0.034932 0.665242 0.984705
O O7 0.239213 0.616772 0.756329
O O8 0.500000 0.829786 0.250000
O O9 0.378779 0.973449 0.354626
#
# Coordination Sequence:
#
# PCOD9279494 Si02
#       4
#     8   8   8   8
#     4  11  22  37  60  95 121 159 196 256 303 360
#     4  12  22  37  56  91 127 159 196 249 308 359
#     4  10  21  35  62  88 122 153 200 250 300 350
#     4  11  21  36  60  89 124 152 203 245 309 354
#
# _framework density 26.888117000000001
#
# number of rings (size 3 to 8) (size 9 to 14) (size 15 to 20)
#    0.000    1.000    7.500    1.500    7.000    0.000 
#    0.000    0.000    0.000    1.500    6.500    0.000 
#    0.000    0.000    0.000    0.000    0.000    0.000 
#
# Total GULP energy -89071.848503 kJ/mol
# GULP energy per Si atom -5566.990531 kJ/mol
# Density = 2.682692 g / cm^3
# Si number density = 26.888117 Si / 1000 Ang^3
#
#
#
# Elastic Constant Matrix: (Units=GPa)
#
#
# Indices 1 2 3 4 5 6 
#
# 1 200.4178 45.5216 14.2717 0.0000 34.3096 -0.0003
# 2 45.5216 157.4717 32.3601 0.0000 31.5812 -0.0004
# 3 14.2717 32.3601 35.5876 0.0000 -30.5913 -0.0005
# 4 0.0000 0.0000 0.0000 39.8847 0.0000 181.5074
# 5 34.3096 31.5812 -30.5913 0.0000 26.8273 0.0001
# 6 -0.0003 -0.0004 -0.0005 181.5074 0.0001 1915.8613
#
#
#
# Elastic Compliance Matrix: (Units=1/GPa)
#
#
# Indices 1 2 3 4 5 6 
#
# 1 0.004482 -0.003562 0.005930 0.000000 0.005222 0.000000
# 2 -0.003562 0.002676 0.010184 0.000000 0.013017 0.000000
# 3 0.005930 0.010184 -0.018363 0.000000 -0.040512 0.000000
# 4 0.000000 0.000000 0.000000 0.044075 0.000000 -0.004176
# 5 0.005222 0.013017 -0.040512 0.000000 -0.030923 0.000000
# 6 0.000000 0.000000 0.000000 -0.004176 0.000000 0.000918
#
#
# Mechanical properties :
#
#
# Convention : Reuss Voigt Hill
#
# Bulk Modulus (GPa) = 71.94040 64.19820 68.06930
# Shear Modulus (GPa) = -284.00043 416.60290 66.30124
#
# Velocity S-wave (km/s) = -10.28846 12.46097 4.97109
# Velocity P-wave (km/s) = 10.69219 15.19744 7.63673
#
# Compressibility (1/GPa) = 0.01390039
#
# Stress axis : x y z
#
# Youngs Moduli (GPa) = 223.09784 373.62235 -54.45727
#
# Poissons Ratio (x) = 1.33067 0.32292
# Poissons Ratio (y) = 0.79457 0.55460
# Poissons Ratio (z) = -1.32291 -3.80501
#
# Static dielectric constant tensor:
#      x y z
#    x 2.447380 0.000000 0.334250 
#    y 0.000000 2.118020 0.000000 
#    z 0.334250 0.000000 2.710240 
# 
# From -- ./inp_files/55122.got.cif
#   From: 2010.05.17/outbox.cif.g08.bks.cpg/sg15_28_cif.got.tgz:55122.got - 2010.06.03 18:47:42.
