data_PCOD9279391
_publ_section_title
;
Structure prediction by ZEFSAII (Michael W. Deem and Ramdas Pophale) SiO2 
 PCOD9279391
Probable space group: C 2/C
;
_chemical_formula_sum "Si O2"
_cell_formula_units_Z 44
_cell_length_a 11.353637
_cell_length_b 18.760314
_cell_length_c 9.770547
_cell_angle_alpha 90.000000
_cell_angle_beta 128.463168
_cell_angle_gamma 90.000000
_cell_volume 1629.522198
_symmetry_space_group_name_H-M "C 2/C"
_symmetry_group_IT_number 15
_symmetry_cell_setting 'monoclinic'
loop_
_space_group_symop_operation_xyz
x,y,z
-x,y,1/2-z
-x,-y,-z
x,-y,1/2+z
1/2+x,1/2+y,z
1/2-x,1/2+y,1/2-z
1/2-x,1/2-y,-z
1/2+x,1/2-y,1/2+z
loop_
_atom_site_type_symbol
_atom_site_label
_atom_site_fract_x
_atom_site_fract_y
_atom_site_fract_z
Si Si1 0.000000 0.520649 0.750000
Si Si2 0.812084 0.771855 0.366688
Si Si3 0.892265 0.984734 0.297399
Si Si4 0.832077 0.395432 0.948837
Si Si5 0.633458 0.899133 0.006879
Si Si6 0.500000 0.738267 0.250000
Si Si7 0.500000 0.231126 0.250000
O O1 0.868927 0.580812 0.627719
O O2 0.876549 0.457441 0.620337
O O3 0.820672 0.686395 0.404498
O O4 0.632286 0.780292 0.261365
O O5 0.911550 0.803329 0.564400
O O6 0.898198 0.775111 0.283840
O O7 0.798783 0.057027 0.205553
O O8 0.000000 0.970745 0.250000
O O9 0.774918 0.918877 0.202861
O O10 0.000000 0.000000 0.500000
O O11 0.988345 0.420898 0.991910
O O12 0.605530 0.822509 0.916992
#
# Coordination Sequence:
#
# PCOD9279391 Si02
#       7
#     4   8   8   8   8   4   4
#     4   9  15  28  56  78 108 158 210 234 269 341
#     4  10  22  42  66  91 122 156 202 256 322 378
#     4  11  25  35  53  87 131 166 200 253 297 335
#     4  10  21  35  59  80 114 165 210 237 290 372
#     4   9  20  36  57  79 123 167 207 244 283 353
#     4  10  23  44  65  94 126 150 187 274 335 378
#     4   9  20  40  73  90 114 168 219 246 292 383
#
# _framework density 27.00178
#
# number of rings (size 3 to 8) (size 9 to 14) (size 15 to 20)
#    0.000    2.182    0.000    2.727   16.545    0.727 
#    0.000    0.000    0.000    0.000    0.000    0.000 
#    0.000    0.000    0.000    0.000    0.000    0.000 
#
# Total GULP energy -122520.150972 kJ/mol
# GULP energy per Si atom -5569.097771 kJ/mol
# Density = 2.694032 g / cm^3
# Si number density = 27.001780 Si / 1000 Ang^3
#
#
#
# Elastic Constant Matrix: (Units=GPa)
#
#
# Indices 1 2 3 4 5 6 
#
# 1 210.5886 -7.9573 55.9232 0.0000 3.6679 0.0000
# 2 -7.9573 99.0955 16.5678 0.0000 6.8023 0.0000
# 3 55.9232 16.5678 226.4775 0.0000 13.4391 0.0000
# 4 0.0000 0.0000 0.0000 43.1518 0.0000 1.5459
# 5 3.6679 6.8023 13.4391 0.0000 42.7234 0.0000
# 6 0.0000 0.0000 0.0000 1.5459 0.0000 23.6969
#
#
#
# Elastic Compliance Matrix: (Units=1/GPa)
#
#
# Indices 1 2 3 4 5 6 
#
# 1 0.005121 0.000638 -0.001303 0.000000 -0.000131 0.000000
# 2 0.000638 0.010381 -0.000831 0.000000 -0.001446 0.000000
# 3 -0.001303 -0.000831 0.004875 0.000000 -0.001289 0.000000
# 4 0.000000 0.000000 0.000000 0.023228 0.000000 -0.001515
# 5 -0.000131 -0.001446 -0.001289 0.000000 0.024053 0.000000
# 6 0.000000 0.000000 0.000000 -0.001515 0.000000 0.042298
#
#
# Mechanical properties :
#
#
# Convention : Reuss Voigt Hill
#
# Bulk Modulus (GPa) = 57.52547 73.91432 65.71989
# Shear Modulus (GPa) = 42.10741 53.35630 47.73185
#
# Velocity S-wave (km/s) = 3.95325 4.45008 4.20900
# Velocity P-wave (km/s) = 6.49524 7.33741 6.92913
#
# Compressibility (1/GPa) = 0.01738361
#
# Stress axis : x y z
#
# Youngs Moduli (GPa) = 195.26933 96.33214 205.14495
#
# Poissons Ratio (x) = -0.06147 0.26739
# Poissons Ratio (y) = -0.12461 0.17051
# Poissons Ratio (z) = 0.25452 0.08007
#
# Static dielectric constant tensor:
#      x y z
#    x 2.566890 0.000000 -0.309490 
#    y 0.000000 2.111590 0.000000 
#    z -0.309490 0.000000 2.374850 
# 
# From -- ./inp_files/91405.got.cif
#   From: 2010.05.17/outbox.cif.g08.bks.cpg/sg15_46_cif.got.tgz:91405.got - 2010.06.03 18:47:42.
