data_PCOD9279513
_publ_section_title
;
Structure prediction by ZEFSAII (Michael W. Deem and Ramdas Pophale) SiO2 
 PCOD9279513
Probable space group: C 2/C
;
_chemical_formula_sum "Si O2"
_cell_formula_units_Z 40
_cell_length_a 17.186472
_cell_length_b 12.219408
_cell_length_c 10.706541
_cell_angle_alpha 90.000000
_cell_angle_beta 45.201587
_cell_angle_gamma 90.000000
_cell_volume 1595.488679
_symmetry_space_group_name_H-M "C 2/C"
_symmetry_group_IT_number 15
_symmetry_cell_setting 'monoclinic'
loop_
_space_group_symop_operation_xyz
x,y,z
-x,y,1/2-z
-x,-y,-z
x,-y,1/2+z
1/2+x,1/2+y,z
1/2-x,1/2+y,1/2-z
1/2-x,1/2-y,-z
1/2+x,1/2-y,1/2+z
loop_
_atom_site_type_symbol
_atom_site_label
_atom_site_fract_x
_atom_site_fract_y
_atom_site_fract_z
Si Si1 0.390684 0.197834 0.005137
Si Si2 0.853343 0.054760 0.571512
Si Si3 0.387426 0.919991 0.253098
Si Si4 0.366723 0.603335 0.832321
Si Si5 0.638024 0.156023 0.200753
O O1 0.512137 0.154769 0.902437
O O2 0.354408 0.132488 0.923867
O O3 0.396802 0.326825 0.979171
O O4 0.316468 0.172659 0.209080
O O5 0.721336 0.069588 0.705859
O O6 0.882136 0.040065 0.684479
O O7 0.892096 0.963247 0.429542
O O8 0.429829 0.044178 0.219769
O O9 0.413212 0.726040 0.766920
O O10 0.236474 0.629364 0.995529
#
# Coordination Sequence:
#
# PCOD9279513 Si02
#       5
#     8   8   8   8   8
#     4  10  21  39  59  96 128 166 213 258 316 378
#     4  10  21  39  65  97 125 170 207 264 316 379
#     4  10  21  35  63  92 128 166 209 264 312 377
#     4   9  20  37  62  96 128 166 213 253 321 384
#     4   9  19  36  59  90 133 162 203 264 314 376
#
# _framework density 25.070689000000002
#
# number of rings (size 3 to 8) (size 9 to 14) (size 15 to 20)
#    0.000    2.400    0.000    1.200   11.200    0.000 
#    3.600    0.000    0.000   24.000   20.800    0.000 
#    0.000    0.000    0.000    0.000    0.000    0.000 
#
# Total GULP energy -111761.684583 kJ/mol
# GULP energy per Si atom -5588.084229 kJ/mol
# Density = 2.501363 g / cm^3
# Si number density = 25.070689 Si / 1000 Ang^3
#
#
#
# Elastic Constant Matrix: (Units=GPa)
#
#
# Indices 1 2 3 4 5 6 
#
# 1 103.1368 23.0958 46.1145 0.0000 19.0123 0.0000
# 2 23.0958 210.0306 47.4454 0.0000 28.5463 0.0000
# 3 46.1145 47.4454 105.8492 0.0000 47.1220 0.0000
# 4 0.0000 0.0000 0.0000 34.4542 0.0000 15.3116
# 5 19.0123 28.5463 47.1220 0.0000 54.9020 0.0000
# 6 0.0000 0.0000 0.0000 15.3116 0.0000 23.2644
#
#
#
# Elastic Compliance Matrix: (Units=1/GPa)
#
#
# Indices 1 2 3 4 5 6 
#
# 1 0.012057 -0.000178 -0.005431 0.000000 0.000578 0.000000
# 2 -0.000178 0.005346 -0.001795 0.000000 -0.001178 0.000000
# 3 -0.005431 -0.001795 0.018393 0.000000 -0.012973 0.000000
# 4 0.000000 0.000000 0.000000 0.041023 0.000000 -0.026999
# 5 0.000578 -0.001178 -0.012973 0.000000 0.029761 0.000000
# 6 0.000000 0.000000 0.000000 -0.026999 0.000000 0.060754
#
#
# Mechanical properties :
#
#
# Convention : Reuss Voigt Hill
#
# Bulk Modulus (GPa) = 47.63985 72.48089 60.06037
# Shear Modulus (GPa) = 26.43595 42.68151 34.55873
#
# Velocity S-wave (km/s) = 3.25076 4.13055 3.71678
# Velocity P-wave (km/s) = 5.75616 7.19180 6.51365
#
# Compressibility (1/GPa) = 0.02099083
#
# Stress axis : x y z
#
# Youngs Moduli (GPa) = 82.93802 187.04725 54.36871
#
# Poissons Ratio (x) = 0.03323 0.29525
# Poissons Ratio (y) = 0.01474 0.09757
# Poissons Ratio (z) = 0.45040 0.33567
#
# Static dielectric constant tensor:
#      x y z
#    x 2.013870 0.000000 -0.028860 
#    y 0.000000 1.983520 0.000000 
#    z -0.028860 0.000000 2.041010 
# 
# From -- ./inp_files/110452.got.cif
#   From: 2010.05.17/outbox.cif.g08.bks.cpg/sg15_56_cif.got.tgz:110452.got - 2010.06.03 18:47:42.
