data_PCOD9279063
_publ_section_title
;
Structure prediction by ZEFSAII (Michael W. Deem and Ramdas Pophale) SiO2 
 PCOD9279063
Probable space group: C 2/C
;
_chemical_formula_sum "Si O2"
_cell_formula_units_Z 48
_cell_length_a 18.190050
_cell_length_b 9.751930
_cell_length_c 11.905949
_cell_angle_alpha 90.000000
_cell_angle_beta 102.154740
_cell_angle_gamma 90.000000
_cell_volume 2064.628483
_symmetry_space_group_name_H-M "C 2/C"
_symmetry_group_IT_number 15
_symmetry_cell_setting 'monoclinic'
loop_
_space_group_symop_operation_xyz
x,y,z
-x,y,1/2-z
-x,-y,-z
x,-y,1/2+z
1/2+x,1/2+y,z
1/2-x,1/2+y,1/2-z
1/2-x,1/2-y,-z
1/2+x,1/2-y,1/2+z
loop_
_atom_site_type_symbol
_atom_site_label
_atom_site_fract_x
_atom_site_fract_y
_atom_site_fract_z
Si Si1 0.623888 0.739085 0.437726
Si Si2 0.217732 0.023262 0.946886
Si Si3 0.016666 0.939381 0.631344
Si Si4 0.150763 0.741276 0.697642
Si Si5 0.853253 0.550168 0.360611
Si Si6 0.188162 0.300401 0.859289
O O1 0.673297 0.604082 0.484458
O O2 0.541337 0.686491 0.383280
O O3 0.657854 0.790148 0.331731
O O4 0.622005 0.851653 0.532037
O O5 0.164372 0.154227 0.904312
O O6 0.262787 0.969720 0.852163
O O7 0.284607 0.087113 0.042915
O O8 0.100251 0.875922 0.662902
O O9 0.000000 0.010943 0.750000
O O10 0.000000 0.000000 0.500000
O O11 0.115096 0.603308 0.633409
O O12 0.232605 0.760978 0.672778
O O13 0.864868 0.631532 0.248769
#
# Coordination Sequence:
#
# PCOD9279063 Si02
#       6
#     8   8   8   8   8   8
#     4  11  22  38  63  85 120 166 210 257 321 390
#     4  10  21  34  55  87 119 153 203 252 315 383
#     4  10  23  43  66  92 123 171 219 270 315 377
#     4  10  22  40  57  87 125 159 211 262 313 384
#     4  11  22  34  59  86 121 158 200 254 323 378
#     4  10  21  35  55  87 123 156 194 261 316 377
#
# _framework density 23.248733999999999
#
# number of rings (size 3 to 8) (size 9 to 14) (size 15 to 20)
#    0.000    1.667    1.667    2.500    4.667    3.333 
#    0.000    1.667    0.000    0.000    0.000    0.000 
#    0.000    0.000    0.000    0.000    0.000    0.000 
#
# Total GULP energy -133923.933150 kJ/mol
# GULP energy per Si atom -5580.163881 kJ/mol
# Density = 2.319582 g / cm^3
# Si number density = 23.248734 Si / 1000 Ang^3
#
#
#
# Elastic Constant Matrix: (Units=GPa)
#
#
# Indices 1 2 3 4 5 6 
#
# 1 26.0388 -7.1261 -7.2738 0.0000 -1.3143 0.0000
# 2 -7.1261 80.0301 50.8514 0.0000 -4.0103 0.0000
# 3 -7.2738 50.8514 148.8151 0.0000 -8.4449 0.0000
# 4 0.0000 0.0000 0.0000 44.3911 0.0000 7.6367
# 5 -1.3143 -4.0103 -8.4449 0.0000 23.0019 0.0000
# 6 0.0000 0.0000 0.0000 7.6367 0.0000 13.7529
#
#
#
# Elastic Compliance Matrix: (Units=1/GPa)
#
#
# Indices 1 2 3 4 5 6 
#
# 1 0.039692 0.002997 0.001097 0.000000 0.003193 0.000000
# 2 0.002997 0.016201 -0.005331 0.000000 0.001039 0.000000
# 3 0.001097 -0.005331 0.008728 0.000000 0.002338 0.000000
# 4 0.000000 0.000000 0.000000 0.024906 0.000000 -0.013830
# 5 0.003193 0.001039 0.002338 0.000000 0.044696 0.000000
# 6 0.000000 0.000000 0.000000 -0.013830 0.000000 0.080391
#
#
# Mechanical properties :
#
#
# Convention : Reuss Voigt Hill
#
# Bulk Modulus (GPa) = 16.09055 36.42077 26.25566
# Shear Modulus (GPa) = 21.02574 30.79135 25.90854
#
# Velocity S-wave (km/s) = 3.01056 3.64322 3.34189
# Velocity P-wave (km/s) = 4.36127 5.77902 5.11946
#
# Compressibility (1/GPa) = 0.06214828
#
# Stress axis : x y z
#
# Youngs Moduli (GPa) = 25.19394 61.72315 114.57950
#
# Poissons Ratio (x) = -0.18500 -0.12570
# Poissons Ratio (y) = -0.07551 0.61079
# Poissons Ratio (z) = -0.02764 0.32903
#
# Static dielectric constant tensor:
#      x y z
#    x 1.870300 0.000000 -0.049260 
#    y 0.000000 1.947610 0.000000 
#    z -0.049260 0.000000 1.983060 
# 
# From -- ./inp_files/116345.got.cif
#   From: 2010.05.17/outbox.cif.g08.bks.cpg/sg15_59_cif.got.tgz:116345.got - 2010.06.03 18:47:42.
