data_PCOD9279751
_publ_section_title
;
Structure prediction by ZEFSAII (Michael W. Deem and Ramdas Pophale) SiO2 
 PCOD9279751
Probable space group: C 2/C
;
_chemical_formula_sum "Si O2"
_cell_formula_units_Z 56
_cell_length_a 24.882185
_cell_length_b 12.985485
_cell_length_c 9.897703
_cell_angle_alpha 90.000000
_cell_angle_beta 121.730870
_cell_angle_gamma 90.000000
_cell_volume 2720.004715
_symmetry_space_group_name_H-M "C 2/C"
_symmetry_group_IT_number 15
_symmetry_cell_setting 'monoclinic'
loop_
_space_group_symop_operation_xyz
x,y,z
-x,y,1/2-z
-x,-y,-z
x,-y,1/2+z
1/2+x,1/2+y,z
1/2-x,1/2+y,1/2-z
1/2-x,1/2-y,-z
1/2+x,1/2-y,1/2+z
loop_
_atom_site_type_symbol
_atom_site_label
_atom_site_fract_x
_atom_site_fract_y
_atom_site_fract_z
Si Si1 0.892119 0.383188 0.338079
Si Si2 0.611354 0.393722 0.130154
Si Si3 0.806808 0.302322 0.724921
Si Si4 0.664483 0.250573 0.529002
Si Si5 0.390538 0.068990 0.527971
Si Si6 0.923779 0.939908 0.135338
Si Si7 0.490185 0.247183 0.593582
O O1 0.837313 0.320099 0.340741
O O2 0.910910 0.466235 0.476757
O O3 0.947289 0.300817 0.384107
O O4 0.878876 0.433531 0.173749
O O5 0.668840 0.312327 0.198666
O O6 0.609305 0.457592 0.264079
O O7 0.600874 0.471372 0.995389
O O8 0.549188 0.320748 0.054439
O O9 0.731717 0.307471 0.614028
O O10 0.836390 0.313282 0.613337
O O11 0.832168 0.384133 0.866146
O O12 0.606561 0.330710 0.450774
O O13 0.445516 0.151932 0.574957
O O14 0.000000 0.939045 0.250000
O O15 0.500000 0.303833 0.750000
#
# Coordination Sequence:
#
# PCOD9279751 Si02
#       7
#     8   8   8   8   8   8   8
#     4  11  21  36  59  87 114 151 193 239 297 354
#     4  10  21  37  59  84 117 154 191 241 291 349
#     4   9  21  42  58  81 117 157 198 244 295 344
#     4  10  22  39  60  83 117 156 198 244 292 355
#     4  10  21  36  58  84 115 149 192 245 296 354
#     4  11  22  36  58  88 116 150 192 240 295 347
#     4   9  19  36  57  84 117 152 192 242 297 353
#
# _framework density 20.588200000000001
#
# number of rings (size 3 to 8) (size 9 to 14) (size 15 to 20)
#    0.000    2.000    0.000    3.000    0.000    5.143 
#    0.000    9.286    0.000    0.000    0.000    0.000 
#    0.000    0.000    0.000    0.000    0.000    0.000 
#
# Total GULP energy -156176.797009 kJ/mol
# GULP energy per Si atom -5577.742750 kJ/mol
# Density = 2.054134 g / cm^3
# Si number density = 20.588200 Si / 1000 Ang^3
#
#
#
# Elastic Constant Matrix: (Units=GPa)
#
#
# Indices 1 2 3 4 5 6 
#
# 1 58.4069 28.5167 36.1944 0.0000 -14.8309 0.0000
# 2 28.5167 41.2527 28.8606 0.0000 -25.3072 0.0000
# 3 36.1944 28.8606 106.5981 0.0000 -22.1403 0.0000
# 4 0.0000 0.0000 0.0000 35.3975 0.0000 -13.4210
# 5 -14.8309 -25.3072 -22.1403 0.0000 34.7721 0.0000
# 6 0.0000 0.0000 0.0000 -13.4210 0.0000 3.8847
#
#
#
# Elastic Compliance Matrix: (Units=1/GPa)
#
#
# Indices 1 2 3 4 5 6 
#
# 1 0.028573 -0.019028 -0.005641 0.000000 -0.005254 0.000000
# 2 -0.019028 0.060116 -0.002781 0.000000 0.033866 0.000000
# 3 -0.005641 -0.002781 0.012825 0.000000 0.003736 0.000000
# 4 0.000000 0.000000 0.000000 -0.091157 0.000000 -0.314933
# 5 -0.005254 0.033866 0.003736 0.000000 0.053544 0.000000
# 6 0.000000 0.000000 0.000000 -0.314933 0.000000 -0.830624
#
#
# Mechanical properties :
#
#
# Convention : Reuss Voigt Hill
#
# Bulk Modulus (GPa) = 21.45317 43.71124 32.58220
# Shear Modulus (GPa) = -7.18098 22.32328 7.57115
#
# Velocity S-wave (km/s) = -1.86962 3.29641 1.91974
# Velocity P-wave (km/s) = 2.40460 5.98044 4.55784
#
# Compressibility (1/GPa) = 0.04661316
#
# Stress axis : x y z
#
# Youngs Moduli (GPa) = 34.99755 16.63464 77.97023
#
# Poissons Ratio (x) = 0.31653 0.43985
# Poissons Ratio (y) = 0.66594 0.21685
# Poissons Ratio (z) = 0.19743 0.04626
#
# Static dielectric constant tensor:
#      x y z
#    x 1.700950 0.000000 -0.015840 
#    y 0.000000 1.741620 0.000000 
#    z -0.015840 0.000000 1.804930 
# 
# From -- ./inp_files/62011.got.cif
#   From: 2010.05.17/outbox.cif.g08.bks.cpg/sg15_32_cif.got.tgz:62011.got - 2010.06.03 18:47:42.
