data_PCOD9279756
_publ_section_title
;
Structure prediction by ZEFSAII (Michael W. Deem and Ramdas Pophale) SiO2 
 PCOD9279756
Probable space group: C 2/C
;
_chemical_formula_sum "Si O2"
_cell_formula_units_Z 56
_cell_length_a 17.969714
_cell_length_b 13.520868
_cell_length_c 14.188946
_cell_angle_alpha 90.000000
_cell_angle_beta 57.029986
_cell_angle_gamma 90.000000
_cell_volume 2892.243112
_symmetry_space_group_name_H-M "C 2/C"
_symmetry_group_IT_number 15
_symmetry_cell_setting 'monoclinic'
loop_
_space_group_symop_operation_xyz
x,y,z
-x,y,1/2-z
-x,-y,-z
x,-y,1/2+z
1/2+x,1/2+y,z
1/2-x,1/2+y,1/2-z
1/2-x,1/2-y,-z
1/2+x,1/2-y,1/2+z
loop_
_atom_site_type_symbol
_atom_site_label
_atom_site_fract_x
_atom_site_fract_y
_atom_site_fract_z
Si Si1 0.519249 0.775280 0.929884
Si Si2 0.901836 0.466256 0.957955
Si Si3 0.757080 0.934418 0.580636
Si Si4 0.484237 0.161381 0.658006
Si Si5 0.186422 0.236415 0.698747
Si Si6 0.693002 0.928678 0.289738
Si Si7 0.927100 0.113587 0.870628
O O1 0.461916 0.868427 0.930837
O O2 0.618045 0.782669 0.820640
O O3 0.477618 0.675340 0.916085
O O4 0.514417 0.777521 0.045892
O O5 0.823921 0.449175 0.936449
O O6 0.961603 0.557977 0.885361
O O7 0.858048 0.484790 0.090468
O O8 0.752234 0.819782 0.615044
O O9 0.851224 0.954497 0.466948
O O10 0.740246 0.000384 0.683544
O O11 0.500000 0.205885 0.750000
O O12 0.381740 0.133867 0.713332
O O13 0.239787 0.146540 0.707183
O O14 0.126318 0.193333 0.656159
O O15 0.000000 0.067489 0.750000
#
# Coordination Sequence:
#
# PCOD9279756 Si02
#       7
#     8   8   8   8   8   8   8
#     4  10  21  36  58  85 122 158 193 246 300 344
#     4  11  20  35  58  92 121 147 191 252 313 353
#     4  12  20  36  64  90 121 152 198 248 305 348
#     4  11  21  35  55  87 126 156 190 237 307 370
#     4  11  21  37  60  91 121 153 202 247 291 355
#     4  11  23  36  59  91 123 157 195 247 300 351
#     4  10  21  37  61  88 114 151 204 252 293 344
#
# _framework density 19.362134999999999
#
# number of rings (size 3 to 8) (size 9 to 14) (size 15 to 20)
#    0.000    1.143    4.286    5.571    0.000    0.000 
#    0.000    3.571    3.143    0.000    0.000    0.000 
#    0.000    0.000    0.000    0.000    0.000    0.000 
#
# Total GULP energy -156501.760471 kJ/mol
# GULP energy per Si atom -5589.348588 kJ/mol
# Density = 1.931807 g / cm^3
# Si number density = 19.362135 Si / 1000 Ang^3
#
#
#
# Elastic Constant Matrix: (Units=GPa)
#
#
# Indices 1 2 3 4 5 6 
#
# 1 65.0832 6.8648 29.6609 0.0000 8.0899 0.0000
# 2 6.8648 8.3705 14.9982 0.0000 2.6674 0.0000
# 3 29.6609 14.9982 119.9653 0.0000 -5.1463 0.0000
# 4 0.0000 0.0000 0.0000 27.0072 0.0000 0.8041
# 5 8.0899 2.6674 -5.1463 0.0000 42.9998 0.0000
# 6 0.0000 0.0000 0.0000 0.8041 0.0000 17.2343
#
#
#
# Elastic Compliance Matrix: (Units=1/GPa)
#
#
# Indices 1 2 3 4 5 6 
#
# 1 0.018264 -0.007119 -0.003773 0.000000 -0.003446 0.000000
# 2 -0.007119 0.163052 -0.019099 0.000000 -0.011061 0.000000
# 3 -0.003773 -0.019099 0.011798 0.000000 0.003307 0.000000
# 4 0.000000 0.000000 0.000000 0.037079 0.000000 -0.001730
# 5 -0.003446 -0.011061 0.003307 0.000000 0.024986 0.000000
# 6 0.000000 0.000000 0.000000 -0.001730 0.000000 0.058105
#
#
# Mechanical properties :
#
#
# Convention : Reuss Voigt Hill
#
# Bulk Modulus (GPa) = 7.51141 32.94074 20.22608
# Shear Modulus (GPa) = 11.97189 26.90792 19.43991
#
# Velocity S-wave (km/s) = 2.48929 3.73194 3.17206
# Velocity P-wave (km/s) = 3.48568 5.96823 4.88721
#
# Compressibility (1/GPa) = 0.13313083
#
# Stress axis : x y z
#
# Youngs Moduli (GPa) = 54.75274 6.13300 84.75731
#
# Poissons Ratio (x) = 0.04366 0.31983
# Poissons Ratio (y) = 0.38979 1.61881
# Poissons Ratio (z) = 0.20661 0.11714
#
# Static dielectric constant tensor:
#      x y z
#    x 1.668620 0.000000 -0.004660 
#    y 0.000000 1.655490 0.000000 
#    z -0.004660 0.000000 1.714770 
# 
# From -- ./inp_files/161860.got.cif
#   From: 2010.05.17/outbox.cif.g08.bks.cpg/sg15_81_cif.got.tgz:161860.got - 2010.06.03 18:47:42.
