data_PCOD9279224
_publ_section_title
;
Structure prediction by ZEFSAII (Michael W. Deem and Ramdas Pophale) SiO2 
 PCOD9279224
Probable space group: C 2/C
;
_chemical_formula_sum "Si O2"
_cell_formula_units_Z 64
_cell_length_a 23.497269
_cell_length_b 25.297160
_cell_length_c 8.780681
_cell_angle_alpha 90.000000
_cell_angle_beta 48.083439
_cell_angle_gamma 90.000000
_cell_volume 3883.823163
_symmetry_space_group_name_H-M "C 2/C"
_symmetry_group_IT_number 15
_symmetry_cell_setting 'monoclinic'
loop_
_space_group_symop_operation_xyz
x,y,z
-x,y,1/2-z
-x,-y,-z
x,-y,1/2+z
1/2+x,1/2+y,z
1/2-x,1/2+y,1/2-z
1/2-x,1/2-y,-z
1/2+x,1/2-y,1/2+z
loop_
_atom_site_type_symbol
_atom_site_label
_atom_site_fract_x
_atom_site_fract_y
_atom_site_fract_z
Si Si1 0.238419 0.339248 0.534719
Si Si2 0.374526 0.961810 0.252950
Si Si3 0.019410 0.725132 0.036416
Si Si4 0.167150 0.621570 0.447052
Si Si5 0.334292 0.235158 0.902910
Si Si6 0.644286 0.072086 0.056594
Si Si7 0.978244 0.609190 0.018493
Si Si8 0.136864 0.762915 0.304630
O O1 0.233370 0.368550 0.705843
O O2 0.208083 0.383428 0.472121
O O3 0.177750 0.290568 0.664344
O O4 0.317069 0.311868 0.348422
O O5 0.324542 0.928148 0.459850
O O6 0.359437 0.022327 0.321583
O O7 0.355213 0.949377 0.113827
O O8 0.460976 0.937787 0.119443
O O9 0.000000 0.723525 0.250000
O O10 0.015860 0.666347 0.970215
O O11 0.951419 0.758352 0.080466
O O12 0.102572 0.746277 0.839305
O O13 0.163798 0.673348 0.556642
O O14 0.088116 0.614205 0.491282
O O15 0.250000 0.250000 0.000000
O O16 0.352944 0.262512 0.031449
O O17 0.565710 0.100166 0.244497
#
# Coordination Sequence:
#
# PCOD9279224 Si02
#       8
#     8   8   8   8   8   8   8   8
#     4   9  20  36  56  74 107 145 192 230 290 319
#     4  12  23  33  53  73 111 147 199 228 285 332
#     4  12  23  35  55  84 116 150 196 235 288 342
#     4  10  21  35  53  71 108 148 189 231 284 331
#     4  11  24  35  57  80 111 151 195 236 294 347
#     4  11  22  36  49  79 105 151 192 239 276 339
#     4  11  21  35  50  73 106 152 191 236 275 329
#     4  10  21  37  58  77 112 149 190 238 287 339
#
# _framework density 16.47861
#
# number of rings (size 3 to 8) (size 9 to 14) (size 15 to 20)
#    0.000    1.250    5.000    3.750    7.000    1.000 
#    0.000    0.000    0.000    0.000    0.000    0.000 
#    0.000    1.000    0.750    0.125    0.000    0.000 
#
# Total GULP energy -178539.660224 kJ/mol
# GULP energy per Si atom -5579.364382 kJ/mol
# Density = 1.644110 g / cm^3
# Si number density = 16.478610 Si / 1000 Ang^3
#
#
#
# Elastic Constant Matrix: (Units=GPa)
#
#
# Indices 1 2 3 4 5 6 
#
# 1 89.6919 38.0525 46.2902 0.0000 6.5780 0.0000
# 2 38.0525 79.0758 41.3030 0.0000 -3.6048 0.0000
# 3 46.2902 41.3030 87.5748 0.0000 -5.6780 0.0000
# 4 0.0000 0.0000 0.0000 28.7945 0.0000 4.3898
# 5 6.5780 -3.6048 -5.6780 0.0000 23.3367 0.0000
# 6 0.0000 0.0000 0.0000 4.3898 0.0000 21.1757
#
#
#
# Elastic Compliance Matrix: (Units=1/GPa)
#
#
# Indices 1 2 3 4 5 6 
#
# 1 0.017668 -0.004927 -0.007506 0.000000 -0.007568 0.000000
# 2 -0.004927 0.018164 -0.005782 0.000000 0.002788 0.000000
# 3 -0.007506 -0.005782 0.018484 0.000000 0.005720 0.000000
# 4 0.000000 0.000000 0.000000 0.035862 0.000000 -0.007434
# 5 -0.007568 0.002788 0.005720 0.000000 0.046806 0.000000
# 6 0.000000 0.000000 0.000000 -0.007434 0.000000 0.048765
#
#
# Mechanical properties :
#
#
# Convention : Reuss Voigt Hill
#
# Bulk Modulus (GPa) = 55.90603 56.40375 56.15489
# Shear Modulus (GPa) = 21.91617 23.37451 22.64534
#
# Velocity S-wave (km/s) = 3.65084 3.77035 3.71108
# Velocity P-wave (km/s) = 7.19525 7.29773 7.24667
#
# Compressibility (1/GPa) = 0.01788716
#
# Stress axis : x y z
#
# Youngs Moduli (GPa) = 56.59809 55.05424 54.10023
#
# Poissons Ratio (x) = 0.27123 0.40609
# Poissons Ratio (y) = 0.27884 0.31280
# Poissons Ratio (z) = 0.42484 0.31831
#
# Static dielectric constant tensor:
#      x y z
#    x 1.572400 0.000000 0.025180 
#    y 0.000000 1.569360 0.000000 
#    z 0.025180 0.000000 1.594620 
# 
# From -- ./inp_files/59028.got.cif
#   From: 2010.05.17/outbox.cif.g08.bks.cpg/sg15_30_cif.got.tgz:59028.got - 2010.06.03 18:47:42.
