data_PCOD9279914
_publ_section_title
;
Structure prediction by ZEFSAII (Michael W. Deem and Ramdas Pophale) SiO2 
 PCOD9279914
Probable space group: C 2/C
;
_chemical_formula_sum "Si O2"
_cell_formula_units_Z 40
_cell_length_a 9.248517
_cell_length_b 13.044092
_cell_length_c 27.066530
_cell_angle_alpha 90.000000
_cell_angle_beta 151.419703
_cell_angle_gamma 90.000000
_cell_volume 1562.070182
_symmetry_space_group_name_H-M "C 2/C"
_symmetry_group_IT_number 15
_symmetry_cell_setting 'monoclinic'
loop_
_space_group_symop_operation_xyz
x,y,z
-x,y,1/2-z
-x,-y,-z
x,-y,1/2+z
1/2+x,1/2+y,z
1/2-x,1/2+y,1/2-z
1/2-x,1/2-y,-z
1/2+x,1/2-y,1/2+z
loop_
_atom_site_type_symbol
_atom_site_label
_atom_site_fract_x
_atom_site_fract_y
_atom_site_fract_z
Si Si1 0.906834 0.417870 0.079787
Si Si2 0.660193 0.434024 0.103436
Si Si3 0.646312 0.228722 0.141063
Si Si4 0.643795 0.113299 0.041457
Si Si5 0.175038 0.571687 0.223230
O O1 0.649509 0.504928 0.993793
O O2 0.935994 0.353832 0.038714
O O3 0.768968 0.366546 0.087867
O O4 0.191720 0.484561 0.184580
O O5 0.636246 0.350914 0.138843
O O6 0.919758 0.518984 0.179676
O O7 0.528153 0.171852 0.153810
O O8 0.000000 0.200985 0.250000
O O9 0.534011 0.178887 0.055991
O O10 0.007425 0.097623 0.156520
O O11 0.500000 0.000000 0.000000
#
# Coordination Sequence:
#
# PCOD9279914 Si02
#       5
#     8   8   8   8   8
#     4   9  20  37  58  86 116 157 199 242 310 362
#     4   9  20  39  57  88 117 156 199 249 303 362
#     4  10  21  36  61  90 119 154 211 246 298 376
#     4  11  20  36  58  86 117 166 192 254 310 355
#     4   9  20  38  57  87 124 153 203 251 304 366
#
# _framework density 25.607044999999999
#
# number of rings (size 3 to 8) (size 9 to 14) (size 15 to 20)
#    1.200    1.200    2.000    0.000    2.800    1.600 
#    0.000    0.000    0.000    0.000   10.400    0.000 
#    0.000    0.000    0.000    0.000    0.000    0.000 
#
# Total GULP energy -111519.837324 kJ/mol
# GULP energy per Si atom -5575.991866 kJ/mol
# Density = 2.554876 g / cm^3
# Si number density = 25.607045 Si / 1000 Ang^3
#
#
#
# Elastic Constant Matrix: (Units=GPa)
#
#
# Indices 1 2 3 4 5 6 
#
# 1 61.5982 14.1239 17.2106 0.0000 -4.4323 0.0001
# 2 14.1239 89.1132 -5.9875 0.0002 -5.0111 0.0001
# 3 17.2106 -5.9875 66.8356 0.0004 -12.9457 0.0006
# 4 0.0000 0.0002 0.0004 28.8858 0.0000 -6.0494
# 5 -4.4323 -5.0111 -12.9457 0.0000 46.8834 0.0001
# 6 0.0001 0.0001 0.0006 -6.0494 0.0001 27.2660
#
#
#
# Elastic Compliance Matrix: (Units=1/GPa)
#
#
# Indices 1 2 3 4 5 6 
#
# 1 0.018384 -0.003251 -0.005025 0.000000 0.000003 0.000000
# 2 -0.003251 0.011975 0.002217 0.000000 0.001585 0.000000
# 3 -0.005025 0.002217 0.017336 0.000000 0.004549 0.000000
# 4 0.000000 0.000000 0.000000 0.036306 0.000000 0.008055
# 5 0.000003 0.001585 0.004549 0.000000 0.022755 0.000000
# 6 0.000000 0.000000 0.000000 0.008055 0.000000 0.038463
#
#
# Mechanical properties :
#
#
# Convention : Reuss Voigt Hill
#
# Bulk Modulus (GPa) = 28.10818 29.80455 28.95636
# Shear Modulus (GPa) = 29.55168 33.42036 31.48602
#
# Velocity S-wave (km/s) = 3.40081 3.61657 3.51035
# Velocity P-wave (km/s) = 5.14016 5.39480 5.26902
#
# Compressibility (1/GPa) = 0.03557683
#
# Stress axis : x y z
#
# Youngs Moduli (GPa) = 54.39574 83.50698 57.68467
#
# Poissons Ratio (x) = 0.27149 0.28984
# Poissons Ratio (y) = 0.17685 -0.12788
# Poissons Ratio (z) = 0.27332 -0.18513
#
# Static dielectric constant tensor:
#      x y z
#    x 2.164260 0.000000 -0.075390 
#    y 0.000000 1.973650 0.000000 
#    z -0.075390 0.000000 2.134550 
# 
# From -- ./inp_files/310997.got.cif
#   From: 2010.05.17/outbox.cif.g08.bks.cpg/sg15_156_cif.got.tgz:310997.got - 2010.06.03 18:47:42.
