data_PCOD9279429
_publ_section_title
;
Structure prediction by ZEFSAII (Michael W. Deem and Ramdas Pophale) SiO2 
 PCOD9279429
Probable space group: C 2/C
;
_chemical_formula_sum "Si O2"
_cell_formula_units_Z 64
_cell_length_a 17.588420
_cell_length_b 19.331780
_cell_length_c 17.637809
_cell_angle_alpha 90.000000
_cell_angle_beta 148.736996
_cell_angle_gamma 90.000000
_cell_volume 3112.313113
_symmetry_space_group_name_H-M "C 2/C"
_symmetry_group_IT_number 15
_symmetry_cell_setting 'monoclinic'
loop_
_space_group_symop_operation_xyz
x,y,z
-x,y,1/2-z
-x,-y,-z
x,-y,1/2+z
1/2+x,1/2+y,z
1/2-x,1/2+y,1/2-z
1/2-x,1/2-y,-z
1/2+x,1/2-y,1/2+z
loop_
_atom_site_type_symbol
_atom_site_label
_atom_site_fract_x
_atom_site_fract_y
_atom_site_fract_z
Si Si1 0.318538 0.500584 0.396617
Si Si2 0.555070 0.392326 0.603276
Si Si3 0.611397 0.895958 0.553541
Si Si4 0.552473 0.236976 0.571744
Si Si5 0.658850 0.889166 0.849258
Si Si6 0.859527 0.740845 0.269081
Si Si7 0.660291 0.958362 0.101303
Si Si8 0.853049 0.867772 0.156201
O O1 0.425394 0.442258 0.523012
O O2 0.415899 0.566309 0.450747
O O3 0.210297 0.536121 0.363482
O O4 0.234172 0.473769 0.247750
O O5 0.718546 0.386230 0.778838
O O6 0.506184 0.313278 0.558436
O O7 0.533194 0.825548 0.459302
O O8 0.492693 0.918793 0.516737
O O9 0.624019 0.970915 0.524955
O O10 0.728305 0.234526 0.713627
O O11 0.501911 0.233847 0.441496
O O12 0.500000 0.893003 0.750000
O O13 0.672344 0.833691 0.793233
O O14 0.756137 0.859519 0.999795
O O15 0.883616 0.795623 0.223604
O O16 0.771621 0.914140 0.148177
O O17 0.000000 0.901542 0.250000
#
# Coordination Sequence:
#
# PCOD9279429 Si02
#       8
#     8   8   8   8   8   8   8   8
#     4  10  22  40  62  85 114 163 204 260 298 353
#     4  10  21  35  60  83 118 148 209 253 304 336
#     4  10  21  36  60  84 117 152 205 256 301 340
#     4  12  20  36  60  89 117 165 206 252 291 358
#     4  12  26  41  58  87 129 169 206 244 300 362
#     4  12  22  38  55  81 132 171 207 229 289 359
#     4  10  22  40  62  84 115 161 209 256 301 351
#     4  12  26  38  57  89 124 169 208 245 297 363
#
# _framework density 20.563483999999999
#
# number of rings (size 3 to 8) (size 9 to 14) (size 15 to 20)
#    0.000    1.000    3.750    3.750   10.500    0.000 
#    0.000    0.000    0.000    0.000    0.000    1.750 
#    0.000    0.000    0.000    0.000    0.000    0.000 
#
# Total GULP energy -178387.272030 kJ/mol
# GULP energy per Si atom -5574.602251 kJ/mol
# Density = 2.051668 g / cm^3
# Si number density = 20.563484 Si / 1000 Ang^3
#
#
#
# Elastic Constant Matrix: (Units=GPa)
#
#
# Indices 1 2 3 4 5 6 
#
# 1 26.1323 6.9334 8.8414 -0.0008 11.5204 0.0001
# 2 6.9334 129.7983 12.9784 -0.0013 15.5130 0.0002
# 3 8.8414 12.9784 64.2929 -0.0031 18.8543 0.0004
# 4 -0.0008 -0.0013 -0.0031 30.6225 -0.0010 5.8582
# 5 11.5204 15.5130 18.8543 -0.0010 27.6237 0.0001
# 6 0.0001 0.0002 0.0004 5.8582 0.0001 29.8051
#
#
#
# Elastic Compliance Matrix: (Units=1/GPa)
#
#
# Indices 1 2 3 4 5 6 
#
# 1 0.046932 -0.000162 -0.000885 0.000001 -0.018877 0.000000
# 2 -0.000162 0.008267 -0.000381 0.000000 -0.004315 0.000000
# 3 -0.000885 -0.000381 0.019481 0.000002 -0.012713 -0.000001
# 4 0.000001 0.000000 0.000002 0.033932 0.000000 -0.006669
# 5 -0.018877 -0.004315 -0.012713 0.000000 0.055174 0.000000
# 6 0.000000 0.000000 -0.000001 -0.006669 0.000000 0.034862
#
#
# Mechanical properties :
#
#
# Convention : Reuss Voigt Hill
#
# Bulk Modulus (GPa) = 13.92338 30.85886 22.39112
# Shear Modulus (GPa) = 22.17843 30.37494 26.27668
#
# Velocity S-wave (km/s) = 3.28767 3.84751 3.57856
# Velocity P-wave (km/s) = 4.60405 5.89721 5.29029
#
# Compressibility (1/GPa) = 0.07182166
#
# Stress axis : x y z
#
# Youngs Moduli (GPa) = 21.30764 120.96718 51.33290
#
# Poissons Ratio (x) = 0.01963 0.04544
# Poissons Ratio (y) = 0.00346 0.01957
# Poissons Ratio (z) = 0.01886 0.04611
#
# Static dielectric constant tensor:
#      x y z
#    x 1.717960 0.000000 0.008840 
#    y 0.000000 1.807780 0.000000 
#    z 0.008840 0.000000 1.781880 
# 
# From -- ./inp_files/249644.got.cif
#   From: 2010.05.17/outbox.cif.g08.bks.cpg/sg15_125_cif.got.tgz:249644.got - 2010.06.03 18:47:42.
