data_PCOD9279233
_publ_section_title
;
Structure prediction by ZEFSAII (Michael W. Deem and Ramdas Pophale) SiO2 
 PCOD9279233
Probable space group: C 2/C
;
_chemical_formula_sum "Si O2"
_cell_formula_units_Z 48
_cell_length_a 20.113938
_cell_length_b 25.507950
_cell_length_c 5.438652
_cell_angle_alpha 90.000000
_cell_angle_beta 65.698113
_cell_angle_gamma 90.000000
_cell_volume 2543.127078
_symmetry_space_group_name_H-M "C 2/C"
_symmetry_group_IT_number 15
_symmetry_cell_setting 'monoclinic'
loop_
_space_group_symop_operation_xyz
x,y,z
-x,y,1/2-z
-x,-y,-z
x,-y,1/2+z
1/2+x,1/2+y,z
1/2-x,1/2+y,1/2-z
1/2-x,1/2-y,-z
1/2+x,1/2-y,1/2+z
loop_
_atom_site_type_symbol
_atom_site_label
_atom_site_fract_x
_atom_site_fract_y
_atom_site_fract_z
Si Si1 0.669429 0.359692 0.941626
Si Si2 0.085657 0.032981 0.626371
Si Si3 0.689192 0.825943 0.016298
Si Si4 0.302440 0.723340 0.722700
Si Si5 0.957073 0.326630 0.059356
Si Si6 0.457552 0.701628 0.059144
O O1 0.755658 0.358627 0.740746
O O2 0.619053 0.329174 0.819369
O O3 0.637319 0.416796 0.028588
O O4 0.658055 0.323229 0.197967
O O5 0.000000 0.048702 0.750000
O O6 0.097636 0.997117 0.366013
O O7 0.746766 0.800388 0.113495
O O8 0.623127 0.850815 0.267899
O O9 0.654397 0.774926 0.930947
O O10 0.250000 0.750000 0.000000
O O11 0.946720 0.263873 0.035788
O O12 0.000000 0.334537 0.250000
O O13 0.000000 0.345502 0.750000
O O14 0.500000 0.693631 0.250000
O O15 0.500000 0.682553 0.750000
#
# Coordination Sequence:
#
# PCOD9279233 Si02
#       6
#     8   8   8   8   8   8
#     4  11  23  35  62  82 111 157 202 249 302 359
#     4  10  24  45  63  84 118 154 198 259 312 345
#     4  10  21  35  53  81 117 152 198 239 293 350
#     4   9  19  32  54  80 116 149 193 244 292 346
#     4  10  22  35  51  73 115 161 188 229 281 334
#     4  10  22  33  49  78 111 148 200 239 273 337
#
# _framework density 18.874400000000001
#
# number of rings (size 3 to 8) (size 9 to 14) (size 15 to 20)
#    0.000    2.000    0.000    3.500   16.333    2.000 
#    0.000    0.000    0.000    0.000    0.000    0.000 
#    0.000    4.000    0.000    0.000    0.000    0.000 
#
# Total GULP energy -133827.066386 kJ/mol
# GULP energy per Si atom -5576.127766 kJ/mol
# Density = 1.883144 g / cm^3
# Si number density = 18.874400 Si / 1000 Ang^3
#
#
#
# Elastic Constant Matrix: (Units=GPa)
#
#
# Indices 1 2 3 4 5 6 
#
# 1 76.2363 36.8263 48.1847 0.0000 -23.1560 0.0000
# 2 36.8263 66.8466 30.2525 0.0000 -1.5617 0.0000
# 3 48.1847 30.2525 140.1455 0.0000 -22.7593 0.0000
# 4 0.0000 0.0000 0.0000 5.9472 0.0000 -5.6228
# 5 -23.1560 -1.5617 -22.7593 0.0000 36.8932 0.0000
# 6 0.0000 0.0000 0.0000 -5.6228 0.0000 24.2803
#
#
#
# Elastic Compliance Matrix: (Units=1/GPa)
#
#
# Indices 1 2 3 4 5 6 
#
# 1 0.025289 -0.011794 -0.004059 0.000000 0.012869 0.000000
# 2 -0.011794 0.022173 -0.001979 0.000000 -0.007685 0.000000
# 3 -0.004059 -0.001979 0.009481 0.000000 0.003217 0.000000
# 4 0.000000 0.000000 0.000000 0.215280 0.000000 0.049854
# 5 0.012869 -0.007685 0.003217 0.000000 0.036842 0.000000
# 6 0.000000 0.000000 0.000000 0.049854 0.000000 0.052731
#
#
# Mechanical properties :
#
#
# Convention : Reuss Voigt Hill
#
# Bulk Modulus (GPa) = 46.99717 57.08394 52.04056
# Shear Modulus (GPa) = 12.35934 24.62180 18.49057
#
# Velocity S-wave (km/s) = 2.56172 3.61572 3.13335
# Velocity P-wave (km/s) = 5.80551 6.90948 6.38141
#
# Compressibility (1/GPa) = 0.02127788
#
# Stress axis : x y z
#
# Youngs Moduli (GPa) = 39.54358 45.09914 105.47720
#
# Poissons Ratio (x) = 0.53190 0.42811
# Poissons Ratio (y) = 0.46638 0.20879
# Poissons Ratio (z) = 0.16050 0.08927
#
# Static dielectric constant tensor:
#      x y z
#    x 1.413090 0.000000 0.398270 
#    y 0.000000 1.617990 0.000000 
#    z 0.398270 0.000000 1.239900 
# 
# From -- ./inp_files/13515.got.cif
#   From: 2010.05.17/outbox.cif.g08.bks.cpg/sg15_7_cif.got.tgz:13515.got - 2010.06.03 18:47:42.
