data_PCOD9279821
_publ_section_title
;
Structure prediction by ZEFSAII (Michael W. Deem and Ramdas Pophale) SiO2 
 PCOD9279821
Probable space group: C 2/C
;
_chemical_formula_sum "Si O2"
_cell_formula_units_Z 52
_cell_length_a 22.022703
_cell_length_b 4.802856
_cell_length_c 21.948435
_cell_angle_alpha 90.000000
_cell_angle_beta 115.506113
_cell_angle_gamma 90.000000
_cell_volume 2095.269500
_symmetry_space_group_name_H-M "C 2/C"
_symmetry_group_IT_number 15
_symmetry_cell_setting 'monoclinic'
loop_
_space_group_symop_operation_xyz
x,y,z
-x,y,1/2-z
-x,-y,-z
x,-y,1/2+z
1/2+x,1/2+y,z
1/2-x,1/2+y,1/2-z
1/2-x,1/2-y,-z
1/2+x,1/2-y,1/2+z
loop_
_atom_site_type_symbol
_atom_site_label
_atom_site_fract_x
_atom_site_fract_y
_atom_site_fract_z
Si Si1 0.065768 0.959831 0.662529
Si Si2 0.087026 0.863255 0.306074
Si Si3 0.783561 0.164459 0.794960
Si Si4 0.355976 0.741477 0.062772
Si Si5 0.019501 0.559728 0.386106
Si Si6 0.250000 0.250000 0.000000
Si Si7 0.723153 0.111340 0.380717
O O1 0.140493 0.058465 0.679678
O O2 0.043960 0.644851 0.643252
O O3 0.057795 0.013507 0.731833
O O4 0.010600 0.150043 0.604139
O O5 0.046948 0.642676 0.330247
O O6 0.156649 0.711290 0.318017
O O7 0.109272 0.104171 0.362424
O O8 0.734970 0.979618 0.729767
O O9 0.761488 0.088101 0.853504
O O10 0.416740 0.905672 0.056497
O O11 0.304700 0.985919 0.064997
O O12 0.315893 0.488405 0.016935
O O13 0.258900 0.138703 0.930812
#
# Coordination Sequence:
#
# PCOD9279821 Si02
#       7
#     8   8   8   8   8   4   8
#     4  12  24  37  58  92 132 178 205 253 336 400
#     4  10  21  36  59  90 128 165 212 267 320 392
#     4  12  25  44  64  94 140 180 216 263 325 420
#     4  10  21  40  64  96 127 161 220 286 330 379
#     4  11  24  36  58  91 129 166 214 260 326 396
#     4  10  22  42  68 102 124 174 228 298 334 362
#     4  10  22  40  67  97 129 172 223 276 335 382
#
# _framework density 24.817807999999999
#
# number of rings (size 3 to 8) (size 9 to 14) (size 15 to 20)
#    0.000    1.231    3.077    2.769    8.615    0.000 
#    0.000    0.000    0.000    1.846    0.000    0.000 
#    0.000    0.000    0.000    0.000    0.000    0.000 
#
# Total GULP energy -144921.940845 kJ/mol
# GULP energy per Si atom -5573.920802 kJ/mol
# Density = 2.476132 g / cm^3
# Si number density = 24.817808 Si / 1000 Ang^3
#
#
#
# Elastic Constant Matrix: (Units=GPa)
#
#
# Indices 1 2 3 4 5 6 
#
# 1 74.4520 24.6901 7.2771 -0.0004 17.7689 0.0015
# 2 24.6901 113.4608 5.7414 0.0014 10.1286 -0.0016
# 3 7.2771 5.7414 56.9220 0.0009 14.2162 -0.0009
# 4 -0.0004 0.0014 0.0009 35.9583 -0.0012 17.5921
# 5 17.7689 10.1286 14.2162 -0.0012 31.6433 0.0006
# 6 0.0015 -0.0016 -0.0009 17.5921 0.0006 35.3356
#
#
#
# Elastic Compliance Matrix: (Units=1/GPa)
#
#
# Indices 1 2 3 4 5 6 
#
# 1 0.016345 -0.002821 0.000295 0.000000 -0.008408 -0.000001
# 2 -0.002821 0.009562 -0.000265 -0.000001 -0.001358 0.000001
# 3 0.000295 -0.000265 0.019799 -0.000001 -0.008976 0.000001
# 4 0.000000 -0.000001 -0.000001 0.036765 0.000002 -0.018304
# 5 -0.008408 -0.001358 -0.008976 0.000002 0.040790 -0.000002
# 6 -0.000001 0.000001 0.000001 -0.018304 -0.000002 0.037413
#
#
# Mechanical properties :
#
#
# Convention : Reuss Voigt Hill
#
# Bulk Modulus (GPa) = 24.92317 35.58354 30.25335
# Shear Modulus (GPa) = 27.83497 34.39585 31.11541
#
# Velocity S-wave (km/s) = 3.35262 3.72685 3.54468
# Velocity P-wave (km/s) = 5.00510 5.73483 5.38235
#
# Compressibility (1/GPa) = 0.04012331
#
# Stress axis : x y z
#
# Youngs Moduli (GPa) = 61.18142 104.57936 50.50867
#
# Poissons Ratio (x) = 0.29503 -0.01489
# Poissons Ratio (y) = 0.17260 0.01337
# Poissons Ratio (z) = -0.01804 0.02769
#
# Static dielectric constant tensor:
#      x y z
#    x 2.058270 0.000000 0.073800 
#    y 0.000000 2.015080 0.000000 
#    z 0.073800 0.000000 2.064960 
# 
# From -- ./inp_files/278998.got.cif
#   From: 2010.05.17/outbox.cif.g08.bks.cpg/sg15_140_cif.got.tgz:278998.got - 2010.06.03 18:47:42.
