data_PCOD9279420
_publ_section_title
;
Structure prediction by ZEFSAII (Michael W. Deem and Ramdas Pophale) SiO2 
 PCOD9279420
Probable space group: C 2/C
;
_chemical_formula_sum "Si O2"
_cell_formula_units_Z 52
_cell_length_a 31.889123
_cell_length_b 12.369525
_cell_length_c 8.643421
_cell_angle_alpha 90.000000
_cell_angle_beta 140.795812
_cell_angle_gamma 90.000000
_cell_volume 2155.050238
_symmetry_space_group_name_H-M "C 2/C"
_symmetry_group_IT_number 15
_symmetry_cell_setting 'monoclinic'
loop_
_space_group_symop_operation_xyz
x,y,z
-x,y,1/2-z
-x,-y,-z
x,-y,1/2+z
1/2+x,1/2+y,z
1/2-x,1/2+y,1/2-z
1/2-x,1/2-y,-z
1/2+x,1/2-y,1/2+z
loop_
_atom_site_type_symbol
_atom_site_label
_atom_site_fract_x
_atom_site_fract_y
_atom_site_fract_z
Si Si1 0.330683 0.912057 0.003695
Si Si2 0.596313 0.634661 0.116637
Si Si3 0.000000 0.736087 0.750000
Si Si4 0.463113 0.135600 0.986364
Si Si5 0.713232 0.702854 0.752262
Si Si6 0.090893 0.076350 0.438509
Si Si7 0.245577 0.593937 0.898787
O O1 0.337726 0.794889 0.946311
O O2 0.285816 0.985667 0.764889
O O3 0.404367 0.946612 0.265033
O O4 0.290121 0.892693 0.043132
O O5 0.571961 0.757036 0.037607
O O6 0.569133 0.594558 0.202234
O O7 0.574217 0.545399 0.932441
O O8 0.676016 0.616209 0.354378
O O9 0.993124 0.672375 0.899446
O O10 0.940436 0.824186 0.556907
O O11 0.500000 0.093131 0.250000
O O12 0.670702 0.596750 0.670313
O O13 0.767141 0.679719 0.774271
O O14 0.750000 0.750000 0.000000
#
# Coordination Sequence:
#
# PCOD9279420 Si02
#       7
#     8   8   4   8   8   8   8
#     4  12  23  47  67 105 141 176 243 280 361 422
#     4  10  21  39  60 104 130 174 226 280 359 425
#     4  10  22  44  62  94 136 188 234 292 332 408
#     4  11  26  45  69 100 139 191 241 282 345 422
#     4  11  22  40  65 103 139 178 221 282 359 424
#     4  10  21  35  59  92 132 173 223 278 344 409
#     4  11  23  41  71  98 139 176 219 304 346 414
#
# _framework density 24.129369000000001
#
# number of rings (size 3 to 8) (size 9 to 14) (size 15 to 20)
#    0.000    1.231    4.615    4.154    3.231    2.462 
#    2.769    0.769    0.000    0.000    0.000    0.000 
#    0.000    0.000    0.000    0.000    0.000    0.000 
#
# Total GULP energy -144863.981290 kJ/mol
# GULP energy per Si atom -5571.691588 kJ/mol
# Density = 2.407445 g / cm^3
# Si number density = 24.129369 Si / 1000 Ang^3
#
#
#
# Elastic Constant Matrix: (Units=GPa)
#
#
# Indices 1 2 3 4 5 6 
#
# 1 101.3369 7.8408 21.7615 0.0000 -0.2900 0.0000
# 2 7.8408 60.5541 13.4225 0.0000 -3.5832 0.0000
# 3 21.7615 13.4225 75.8751 0.0000 2.4279 0.0000
# 4 0.0000 0.0000 0.0000 34.6638 0.0000 -10.3988
# 5 -0.2900 -3.5832 2.4279 0.0000 22.2530 0.0000
# 6 0.0000 0.0000 0.0000 -10.3988 0.0000 21.0909
#
#
#
# Elastic Compliance Matrix: (Units=1/GPa)
#
#
# Indices 1 2 3 4 5 6 
#
# 1 0.010549 -0.000700 -0.002913 0.000000 0.000343 0.000000
# 2 -0.000700 0.017452 -0.002987 0.000000 0.003127 0.000000
# 3 -0.002913 -0.002987 0.014611 0.000000 -0.002113 0.000000
# 4 0.000000 0.000000 0.000000 0.033856 0.000000 0.016693
# 5 0.000343 0.003127 -0.002113 0.000000 0.045676 0.000000
# 6 0.000000 0.000000 0.000000 0.016693 0.000000 0.055644
#
#
# Mechanical properties :
#
#
# Convention : Reuss Voigt Hill
#
# Bulk Modulus (GPa) = 33.99846 35.97950 34.98898
# Shear Modulus (GPa) = 24.90160 28.58430 26.74295
#
# Velocity S-wave (km/s) = 3.21597 3.44557 3.33275
# Velocity P-wave (km/s) = 5.28305 5.54732 5.41680
#
# Compressibility (1/GPa) = 0.02941310
#
# Stress axis : x y z
#
# Youngs Moduli (GPa) = 94.79869 57.30056 68.44234
#
# Poissons Ratio (x) = 0.04011 0.19934
# Poissons Ratio (y) = 0.06636 0.20441
# Poissons Ratio (z) = 0.27611 0.17113
#
# Static dielectric constant tensor:
#      x y z
#    x 1.940180 0.000000 0.056720 
#    y 0.000000 2.020250 0.000000 
#    z 0.056720 0.000000 2.032310 
# 
# From -- ./inp_files/70197.got.cif
#   From: 2010.05.17/outbox.cif.g08.bks.cpg/sg15_36_cif.got.tgz:70197.got - 2010.06.03 18:47:42.
