data_PCOD9279827
_publ_section_title
;
Structure prediction by ZEFSAII (Michael W. Deem and Ramdas Pophale) SiO2 
 PCOD9279827
Probable space group: C 2/C
;
_chemical_formula_sum "Si O2"
_cell_formula_units_Z 52
_cell_length_a 28.804864
_cell_length_b 19.072696
_cell_length_c 8.380298
_cell_angle_alpha 90.000000
_cell_angle_beta 32.167459
_cell_angle_gamma 90.000000
_cell_volume 2451.160971
_symmetry_space_group_name_H-M "C 2/C"
_symmetry_group_IT_number 15
_symmetry_cell_setting 'monoclinic'
loop_
_space_group_symop_operation_xyz
x,y,z
-x,y,1/2-z
-x,-y,-z
x,-y,1/2+z
1/2+x,1/2+y,z
1/2-x,1/2+y,1/2-z
1/2-x,1/2-y,-z
1/2+x,1/2-y,1/2+z
loop_
_atom_site_type_symbol
_atom_site_label
_atom_site_fract_x
_atom_site_fract_y
_atom_site_fract_z
Si Si1 0.283438 0.113751 0.129760
Si Si2 0.393934 0.632453 0.658090
Si Si3 0.330072 0.249308 0.142755
Si Si4 0.630509 0.040476 0.121633
Si Si5 0.447894 0.429151 0.678442
Si Si6 0.719279 0.632831 0.961464
Si Si7 0.500000 0.013278 0.750000
O O1 0.195846 0.114931 0.492235
O O2 0.345382 0.171636 0.032604
O O3 0.254544 0.138412 0.037581
O O4 0.325946 0.036985 0.992855
O O5 0.396423 0.705764 0.555813
O O6 0.474190 0.627508 0.545745
O O7 0.406951 0.576706 0.475636
O O8 0.250000 0.250000 0.500000
O O9 0.304768 0.296447 0.062633
O O10 0.574490 0.056057 0.441644
O O11 0.555898 0.035045 0.205174
O O12 0.705849 0.094073 0.858657
O O13 0.500000 0.500000 0.500000
O O14 0.369223 0.413392 0.788352
#
# Coordination Sequence:
#
# PCOD9279827 Si02
#       7
#     8   8   8   8   8   8   4
#     4  11  22  39  67  93 125 169 212 259 319 380
#     4   9  21  38  57  89 130 167 211 246 306 381
#     4   9  21  40  65  88 123 172 211 257 308 383
#     4  11  23  41  66  95 124 162 209 266 333 373
#     4  10  21  36  59  91 132 166 205 253 306 376
#     4  11  23  39  66  95 129 167 207 263 319 388
#     4  10  24  42  62  92 132 152 210 280 320 382
#
# _framework density 21.214435999999999
#
# number of rings (size 3 to 8) (size 9 to 14) (size 15 to 20)
#    0.000    1.846    1.538    1.385    6.462    8.000 
#    0.000    3.077   10.154    0.000    0.000    0.000 
#    0.000    0.000    0.000    0.000    0.000    0.000 
#
# Total GULP energy -145057.940461 kJ/mol
# GULP energy per Si atom -5579.151556 kJ/mol
# Density = 2.116615 g / cm^3
# Si number density = 21.214436 Si / 1000 Ang^3
#
#
#
# Elastic Constant Matrix: (Units=GPa)
#
#
# Indices 1 2 3 4 5 6 
#
# 1 76.7028 16.2130 21.2561 0.0000 -7.7746 0.0000
# 2 16.2130 64.4407 45.4529 0.0000 -2.4677 0.0000
# 3 21.2561 45.4529 115.8833 0.0000 1.1438 0.0000
# 4 0.0000 0.0000 0.0000 25.2953 0.0000 -0.3029
# 5 -7.7746 -2.4677 1.1438 0.0000 37.1449 0.0000
# 6 0.0000 0.0000 0.0000 -0.3029 0.0000 22.4550
#
#
#
# Elastic Compliance Matrix: (Units=1/GPa)
#
#
# Indices 1 2 3 4 5 6 
#
# 1 0.014295 -0.002234 -0.001774 0.000000 0.002898 0.000000
# 2 -0.002234 0.021908 -0.008196 0.000000 0.001240 0.000000
# 3 -0.001774 -0.008196 0.012182 0.000000 -0.001291 0.000000
# 4 0.000000 0.000000 0.000000 0.039539 0.000000 0.000533
# 5 0.002898 0.001240 -0.001291 0.000000 0.027650 0.000000
# 6 0.000000 0.000000 0.000000 0.000533 0.000000 0.044541
#
#
# Mechanical properties :
#
#
# Convention : Reuss Voigt Hill
#
# Bulk Modulus (GPa) = 41.70572 46.98563 44.34567
# Shear Modulus (GPa) = 25.97176 28.58603 27.27889
#
# Velocity S-wave (km/s) = 3.50272 3.67479 3.58979
# Velocity P-wave (km/s) = 6.00504 6.34046 6.17503
#
# Compressibility (1/GPa) = 0.02397753
#
# Stress axis : x y z
#
# Youngs Moduli (GPa) = 69.95426 45.64453 82.08726
#
# Poissons Ratio (x) = 0.10197 0.14566
# Poissons Ratio (y) = 0.15628 0.67276
# Poissons Ratio (z) = 0.12413 0.37408
#
# Static dielectric constant tensor:
#      x y z
#    x 1.824560 0.000000 0.006490 
#    y 0.000000 1.807640 0.000000 
#    z 0.006490 0.000000 1.792350 
# 
# From -- ./inp_files/70802.got.cif
#   From: 2010.05.17/outbox.cif.g08.bks.cpg/sg15_36_cif.got.tgz:70802.got - 2010.06.03 18:47:42.
