data_PCOD9279992
_publ_section_title
;
Structure prediction by ZEFSAII (Michael W. Deem and Ramdas Pophale) SiO2 
 PCOD9279992
Probable space group: C 2/C
;
_chemical_formula_sum "Si O2"
_cell_formula_units_Z 28
_cell_length_a 11.171502
_cell_length_b 20.336853
_cell_length_c 11.282491
_cell_angle_alpha 90.000000
_cell_angle_beta 154.667458
_cell_angle_gamma 90.000000
_cell_volume 1096.764667
_symmetry_space_group_name_H-M "C 2/C"
_symmetry_group_IT_number 15
_symmetry_cell_setting 'monoclinic'
loop_
_space_group_symop_operation_xyz
x,y,z
-x,y,1/2-z
-x,-y,-z
x,-y,1/2+z
1/2+x,1/2+y,z
1/2-x,1/2+y,1/2-z
1/2-x,1/2-y,-z
1/2+x,1/2-y,1/2+z
loop_
_atom_site_type_symbol
_atom_site_label
_atom_site_fract_x
_atom_site_fract_y
_atom_site_fract_z
Si Si1 0.500000 0.297988 0.250000
Si Si2 0.418280 0.350379 0.798486
Si Si3 0.661643 0.500324 0.273353
Si Si4 0.130612 0.630831 0.607400
O O1 0.750000 0.250000 0.500000
O O2 0.627445 0.341653 0.260757
O O3 0.500000 0.315250 0.750000
O O4 0.284861 0.422747 0.650778
O O5 0.154677 0.326327 0.640726
O O6 0.707635 0.363531 0.123504
O O7 0.500000 0.480111 0.250000
O O8 0.896919 0.444086 0.466722
O O9 0.500000 0.500000 0.000000
#
# Coordination Sequence:
#
# PCOD9279992 Si02
#       4
#     4   8   8   8
#     4  12  26  44  66  90 118 164 222 276 310 348
#     4  10  21  36  62  94 128 161 196 242 314 397
#     4   9  18  34  56  92 129 168 203 245 312 394
#     4  11  21  40  61  88 124 164 205 260 311 363
#
# _framework density 25.529634999999999
#
# number of rings (size 3 to 8) (size 9 to 14) (size 15 to 20)
#    0.000    1.714    1.429    3.429    0.000    0.000 
#    0.000    5.714    0.000   17.143    0.000    0.000 
#    0.000    0.000    0.000    0.000    0.000    0.000 
#
# Total GULP energy -78016.704614 kJ/mol
# GULP energy per Si atom -5572.621758 kJ/mol
# Density = 2.547153 g / cm^3
# Si number density = 25.529635 Si / 1000 Ang^3
#
#
#
# Elastic Constant Matrix: (Units=GPa)
#
#
# Indices 1 2 3 4 5 6 
#
# 1 132.3289 -11.5561 23.4712 0.0012 1.7653 0.0008
# 2 -11.5561 25.2462 -1.4980 -0.0002 -6.4244 -0.0003
# 3 23.4712 -1.4980 113.6783 0.0007 22.3788 -0.0001
# 4 0.0012 -0.0002 0.0007 20.5375 0.0007 11.1521
# 5 1.7653 -6.4244 22.3788 0.0007 44.4516 0.0001
# 6 0.0008 -0.0003 -0.0001 11.1521 0.0001 14.5377
#
#
#
# Elastic Compliance Matrix: (Units=1/GPa)
#
#
# Indices 1 2 3 4 5 6 
#
# 1 0.008220 0.003954 -0.001880 0.000000 0.001191 0.000000
# 2 0.003954 0.043074 -0.001602 0.000000 0.006875 0.000001
# 3 -0.001880 -0.001602 0.010206 0.000000 -0.005295 0.000000
# 4 0.000000 0.000000 0.000000 0.083455 -0.000001 -0.064019
# 5 0.001191 0.006875 -0.005295 -0.000001 0.026108 0.000001
# 6 0.000000 0.000001 0.000000 -0.064019 0.000001 0.117896
#
#
# Mechanical properties :
#
#
# Convention : Reuss Voigt Hill
#
# Bulk Modulus (GPa) = 16.01417 32.45419 24.23418
# Shear Modulus (GPa) = 16.19017 33.29444 24.74230
#
# Velocity S-wave (km/s) = 2.52101 3.61522 3.11651
# Velocity P-wave (km/s) = 3.84192 5.49239 4.73955
#
# Compressibility (1/GPa) = 0.06244470
#
# Stress axis : x y z
#
# Youngs Moduli (GPa) = 121.65870 23.21575 97.98055
#
# Poissons Ratio (x) = -0.09180 0.18416
# Poissons Ratio (y) = -0.48105 0.15698
# Poissons Ratio (z) = 0.22866 0.03720
#
# Static dielectric constant tensor:
#      x y z
#    x 2.473800 -0.000210 0.122510 
#    y -0.000210 6.655490 0.000070 
#    z 0.122510 0.000070 2.136160 
# 
# From -- ./inp_files/1934.got.cif
#   From: 2010.05.17/outbox.cif.g08.bks.cpg/sg15_1_cif.got.tgz:1934.got - 2010.06.03 18:47:42.
