data_PCOD9279237
_publ_section_title
;
Structure prediction by ZEFSAII (Michael W. Deem and Ramdas Pophale) SiO2 
 PCOD9279237
Probable space group: C 2/C
;
_chemical_formula_sum "Si O2"
_cell_formula_units_Z 56
_cell_length_a 13.806216
_cell_length_b 21.897355
_cell_length_c 13.450966
_cell_angle_alpha 90.000000
_cell_angle_beta 140.779786
_cell_angle_gamma 90.000000
_cell_volume 2571.252990
_symmetry_space_group_name_H-M "C 2/C"
_symmetry_group_IT_number 15
_symmetry_cell_setting 'monoclinic'
loop_
_space_group_symop_operation_xyz
x,y,z
-x,y,1/2-z
-x,-y,-z
x,-y,1/2+z
1/2+x,1/2+y,z
1/2-x,1/2+y,1/2-z
1/2-x,1/2-y,-z
1/2+x,1/2-y,1/2+z
loop_
_atom_site_type_symbol
_atom_site_label
_atom_site_fract_x
_atom_site_fract_y
_atom_site_fract_z
Si Si1 0.336855 0.556626 0.586220
Si Si2 0.840565 0.797387 0.497121
Si Si3 0.280781 0.490237 0.244378
Si Si4 0.973629 0.304803 0.843578
Si Si5 0.430322 0.567080 0.052208
Si Si6 0.902637 0.562005 0.256914
Si Si7 0.663210 0.753278 0.173098
O O1 0.500000 0.584016 0.750000
O O2 0.249380 0.545074 0.618823
O O3 0.367868 0.488985 0.567457
O O4 0.247791 0.586054 0.424028
O O5 0.750000 0.750000 0.500000
O O6 0.872807 0.868491 0.549179
O O7 0.740093 0.797331 0.316157
O O8 0.012222 0.774128 0.607111
O O9 0.389871 0.549545 0.310203
O O10 0.369737 0.445791 0.392061
O O11 0.139147 0.517078 0.189754
O O12 0.986433 0.377391 0.855023
O O13 0.805832 0.289026 0.754038
O O14 0.000000 0.284150 0.750000
O O15 0.098443 0.279557 0.018985
O O16 0.000000 0.528350 0.250000
#
# Coordination Sequence:
#
# PCOD9279237 Si02
#       7
#     8   8   8   8   8   8   8
#     4   9  19  35  58  86 111 149 202 244 296 362
#     4  11  23  40  60  89 126 162 207 255 304 371
#     4   9  18  36  58  83 114 151 200 244 291 358
#     4  10  21  40  60  83 116 151 199 255 306 364
#     4   9  19  35  59  87 116 153 199 249 295 353
#     4  10  21  35  53  84 118 147 185 245 310 365
#     4  10  23  39  60  86 115 160 207 247 305 369
#
# _framework density 21.779264000000001
#
# number of rings (size 3 to 8) (size 9 to 14) (size 15 to 20)
#    0.000    2.286    0.000    2.571    0.000    8.571 
#    0.000   10.714    0.000    0.000    0.000    0.000 
#    0.000    0.000    0.000    0.000    0.000    0.000 
#
# Total GULP energy -156070.046347 kJ/mol
# GULP energy per Si atom -5573.930227 kJ/mol
# Density = 2.172969 g / cm^3
# Si number density = 21.779264 Si / 1000 Ang^3
#
#
#
# Elastic Constant Matrix: (Units=GPa)
#
#
# Indices 1 2 3 4 5 6 
#
# 1 120.2815 20.1859 19.1117 0.0000 1.9852 0.0000
# 2 20.1859 52.9177 11.2749 0.0000 10.2901 0.0000
# 3 19.1117 11.2749 101.7236 0.0000 -1.9393 0.0000
# 4 0.0000 0.0000 0.0000 12.7765 0.0000 1.0511
# 5 1.9852 10.2901 -1.9393 0.0000 38.3689 0.0000
# 6 0.0000 0.0000 0.0000 1.0511 0.0000 17.7145
#
#
#
# Elastic Compliance Matrix: (Units=1/GPa)
#
#
# Indices 1 2 3 4 5 6 
#
# 1 0.009064 -0.003237 -0.001338 0.000000 0.000332 0.000000
# 2 -0.003237 0.021652 -0.001901 0.000000 -0.005736 0.000000
# 3 -0.001338 -0.001901 0.010314 0.000000 0.001100 0.000000
# 4 0.000000 0.000000 0.000000 0.078652 0.000000 -0.004667
# 5 0.000332 -0.005736 0.001100 0.000000 0.027639 0.000000
# 6 0.000000 0.000000 0.000000 -0.004667 0.000000 0.056728
#
#
# Mechanical properties :
#
#
# Convention : Reuss Voigt Hill
#
# Bulk Modulus (GPa) = 35.61478 41.78533 38.70005
# Shear Modulus (GPa) = 22.08859 28.72867 25.40863
#
# Velocity S-wave (km/s) = 3.18811 3.63586 3.41932
# Velocity P-wave (km/s) = 5.47176 6.07070 5.77900
#
# Compressibility (1/GPa) = 0.02807823
#
# Stress axis : x y z
#
# Youngs Moduli (GPa) = 110.32434 46.18424 96.95931
#
# Poissons Ratio (x) = 0.14950 0.12972
# Poissons Ratio (y) = 0.35712 0.18433
# Poissons Ratio (z) = 0.14760 0.08780
#
# Static dielectric constant tensor:
#      x y z
#    x 1.845690 0.000000 0.020870 
#    y 0.000000 1.767920 0.000000 
#    z 0.020870 0.000000 1.900050 
# 
# From -- ./inp_files/156241.got.cif
#   From: 2010.05.17/outbox.cif.g08.bks.cpg/sg15_79_cif.got.tgz:156241.got - 2010.06.03 18:47:42.
