data_PCOD9279744
_publ_section_title
;
Structure prediction by ZEFSAII (Michael W. Deem and Ramdas Pophale) SiO2 
 PCOD9279744
Probable space group: C 2/C
;
_chemical_formula_sum "Si O2"
_cell_formula_units_Z 48
_cell_length_a 24.688784
_cell_length_b 17.985690
_cell_length_c 5.119889
_cell_angle_alpha 90.000000
_cell_angle_beta 65.229008
_cell_angle_gamma 90.000000
_cell_volume 2064.278470
_symmetry_space_group_name_H-M "C 2/C"
_symmetry_group_IT_number 15
_symmetry_cell_setting 'monoclinic'
loop_
_space_group_symop_operation_xyz
x,y,z
-x,y,1/2-z
-x,-y,-z
x,-y,1/2+z
1/2+x,1/2+y,z
1/2-x,1/2+y,1/2-z
1/2-x,1/2-y,-z
1/2+x,1/2-y,1/2+z
loop_
_atom_site_type_symbol
_atom_site_label
_atom_site_fract_x
_atom_site_fract_y
_atom_site_fract_z
Si Si1 0.000000 0.809870 0.750000
Si Si2 0.694407 0.946736 0.824305
Si Si3 0.371021 0.309557 0.992052
Si Si4 0.000000 0.702212 0.250000
Si Si5 0.062424 0.446704 0.081787
Si Si6 0.748876 0.837859 0.061508
Si Si7 0.871104 0.701922 0.488936
O O1 0.935461 0.849559 0.882162
O O2 0.001009 0.756600 0.496351
O O3 0.627633 0.910584 0.965601
O O4 0.740601 0.883058 0.811247
O O5 0.700201 0.005098 0.052877
O O6 0.374341 0.258228 0.727394
O O7 0.310619 0.356474 0.079547
O O8 0.364487 0.254010 0.249862
O O9 0.064112 0.661547 0.136324
O O10 0.061483 0.505553 0.320708
O O11 0.000000 0.402921 0.250000
O O12 0.687761 0.847163 0.349764
O O13 0.750000 0.750000 0.000000
#
# Coordination Sequence:
#
# PCOD9279744 Si02
#       7
#     4   8   8   4   8   8   8
#     4   8  14  26  44  68 100 134 170 204 272 328
#     4  10  22  38  57  80 112 149 188 231 277 336
#     4   9  17  29  48  76 102 140 171 222 272 332
#     4   8  14  26  44  64 100 138 168 212 260 322
#     4   8  14  28  52  73  96 136 181 218 256 308
#     4  10  21  36  58  83 113 144 188 234 287 331
#     4   9  17  29  48  72 105 138 179 217 272 326
#
# _framework density 23.252678
#
# number of rings (size 3 to 8) (size 9 to 14) (size 15 to 20)
#    0.000    3.000    0.000    0.500    0.000    5.333 
#    0.000    0.000   42.167    0.000    0.000    1.167 
#    0.000    0.000    0.000    0.000    0.000    0.000 
#
# Total GULP energy -134131.907366 kJ/mol
# GULP energy per Si atom -5588.829474 kJ/mol
# Density = 2.319975 g / cm^3
# Si number density = 23.252678 Si / 1000 Ang^3
#
#
#
# Elastic Constant Matrix: (Units=GPa)
#
#
# Indices 1 2 3 4 5 6 
#
# 1 200.0411 17.0121 19.6840 0.0000 -30.2483 0.0000
# 2 17.0121 45.0128 10.7141 0.0000 8.5111 0.0000
# 3 19.6840 10.7141 103.0594 0.0000 22.0838 0.0000
# 4 0.0000 0.0000 0.0000 15.2313 0.0000 8.2937
# 5 -30.2483 8.5111 22.0838 0.0000 59.5408 0.0000
# 6 0.0000 0.0000 0.0000 8.2937 0.0000 32.8901
#
#
#
# Elastic Compliance Matrix: (Units=1/GPa)
#
#
# Indices 1 2 3 4 5 6 
#
# 1 0.006011 -0.002627 -0.001749 0.000000 0.004078 0.000000
# 2 -0.002627 0.024299 -0.001080 0.000000 -0.004407 0.000000
# 3 -0.001749 -0.001080 0.011197 0.000000 -0.004887 0.000000
# 4 0.000000 0.000000 0.000000 0.076104 0.000000 -0.019191
# 5 0.004078 -0.004407 -0.004887 0.000000 0.021309 0.000000
# 6 0.000000 0.000000 0.000000 -0.019191 0.000000 0.035243
#
#
# Mechanical properties :
#
#
# Convention : Reuss Voigt Hill
#
# Bulk Modulus (GPa) = 32.68437 49.21487 40.94962
# Shear Modulus (GPa) = 25.60519 41.57930 33.59225
#
# Velocity S-wave (km/s) = 3.32199 4.23324 3.80499
# Velocity P-wave (km/s) = 5.36664 6.71602 6.07889
#
# Compressibility (1/GPa) = 0.03059567
#
# Stress axis : x y z
#
# Youngs Moduli (GPa) = 166.36017 41.15388 89.31258
#
# Poissons Ratio (x) = 0.10810 0.15619
# Poissons Ratio (y) = 0.43696 0.09646
# Poissons Ratio (z) = 0.29094 0.04445
#
# Static dielectric constant tensor:
#      x y z
#    x 2.016740 0.000000 -0.053640 
#    y 0.000000 1.844880 0.000000 
#    z -0.053640 0.000000 2.000050 
# 
# From -- ./inp_files/15428.got.cif
#   From: 2010.05.17/outbox.cif.g08.bks.cpg/sg15_8_cif.got.tgz:15428.got - 2010.06.03 18:47:42.
