data_PCOD9279607
_publ_section_title
;
Structure prediction by ZEFSAII (Michael W. Deem and Ramdas Pophale) SiO2 
 PCOD9279607
Probable space group: C 2/C
;
_chemical_formula_sum "Si O2"
_cell_formula_units_Z 52
_cell_length_a 28.381647
_cell_length_b 9.846299
_cell_length_c 20.880895
_cell_angle_alpha 90.000000
_cell_angle_beta 151.476968
_cell_angle_gamma 90.000000
_cell_volume 2786.403497
_symmetry_space_group_name_H-M "C 2/C"
_symmetry_group_IT_number 15
_symmetry_cell_setting 'monoclinic'
loop_
_space_group_symop_operation_xyz
x,y,z
-x,y,1/2-z
-x,-y,-z
x,-y,1/2+z
1/2+x,1/2+y,z
1/2-x,1/2+y,1/2-z
1/2-x,1/2-y,-z
1/2+x,1/2-y,1/2+z
loop_
_atom_site_type_symbol
_atom_site_label
_atom_site_fract_x
_atom_site_fract_y
_atom_site_fract_z
Si Si1 0.500000 0.383631 0.250000
Si Si2 0.249784 0.584532 0.674205
Si Si3 0.910027 0.384814 0.815675
Si Si4 0.075179 0.396942 0.511114
Si Si5 0.685307 0.639941 0.048813
Si Si6 0.907828 0.911013 0.475623
Si Si7 0.581682 0.421077 0.214008
O O1 0.597737 0.313683 0.396528
O O2 0.551528 0.456125 0.250701
O O3 0.170520 0.473279 0.597810
O O4 0.200930 0.733329 0.614889
O O5 0.336204 0.587536 0.829442
O O6 0.305480 0.563280 0.673033
O O7 0.914150 0.385732 0.898527
O O8 0.795933 0.393309 0.656929
O O9 0.944526 0.237366 0.831116
O O10 0.980889 0.509181 0.881873
O O11 0.072263 0.244146 0.482026
O O12 0.646404 0.504933 0.036833
O O13 0.011968 0.983434 0.588800
#
# Coordination Sequence:
#
# PCOD9279607 Si02
#       7
#     4   8   8   8   8   8   8
#     4  10  22  40  64  84 112 162 208 252 268 348
#     4  11  20  36  56  90 118 153 189 249 298 358
#     4  10  21  36  54  88 120 156 187 243 293 362
#     4  11  21  32  55  88 128 149 182 236 314 360
#     4  10  21  39  61  83 118 157 201 237 297 342
#     4  11  19  35  56  88 122 154 184 248 296 366
#     4  10  22  38  60  82 116 159 204 238 292 341
#
# _framework density 18.662050000000001
#
# number of rings (size 3 to 8) (size 9 to 14) (size 15 to 20)
#    0.000    1.538    4.615    2.308    0.000    3.692 
#    0.000    0.000    0.000   29.538    0.000    0.000 
#    0.000    0.000    0.000    0.000    0.000    0.000 
#
# Total GULP energy -144779.225955 kJ/mol
# GULP energy per Si atom -5568.431768 kJ/mol
# Density = 1.861957 g / cm^3
# Si number density = 18.662050 Si / 1000 Ang^3
#
#
#
# Elastic Constant Matrix: (Units=GPa)
#
#
# Indices 1 2 3 4 5 6 
#
# 1 81.5685 47.5846 13.9077 0.0000 11.0199 0.0000
# 2 47.5846 152.0681 44.5042 0.0000 26.5201 0.0000
# 3 13.9077 44.5042 90.0610 0.0000 14.7881 0.0000
# 4 0.0000 0.0000 0.0000 20.4390 0.0000 11.8768
# 5 11.0199 26.5201 14.7881 0.0000 29.7241 0.0000
# 6 0.0000 0.0000 0.0000 11.8768 0.0000 17.0331
#
#
#
# Elastic Compliance Matrix: (Units=1/GPa)
#
#
# Indices 1 2 3 4 5 6 
#
# 1 0.015066 -0.004468 0.000157 0.000000 -0.001677 0.000000
# 2 -0.004468 0.009905 -0.003295 0.000000 -0.005542 0.000000
# 3 0.000157 -0.003295 0.013323 0.000000 -0.003747 0.000000
# 4 0.000000 0.000000 0.000000 0.082253 0.000000 -0.057353
# 5 -0.001677 -0.005542 -0.003747 0.000000 0.041073 0.000000
# 6 0.000000 0.000000 0.000000 -0.057353 0.000000 0.098700
#
#
# Mechanical properties :
#
#
# Convention : Reuss Voigt Hill
#
# Bulk Modulus (GPa) = 43.32413 59.52117 51.42265
# Shear Modulus (GPa) = 17.65383 27.95264 22.80324
#
# Velocity S-wave (km/s) = 3.07901 3.87438 3.49937
# Velocity P-wave (km/s) = 5.99215 7.20957 6.62887
#
# Compressibility (1/GPa) = 0.02308183
#
# Stress axis : x y z
#
# Youngs Moduli (GPa) = 66.37540 100.96291 75.06008
#
# Poissons Ratio (x) = 0.45107 -0.01175
# Poissons Ratio (y) = 0.29654 0.24729
# Poissons Ratio (z) = -0.01039 0.33263
#
# Static dielectric constant tensor:
#      x y z
#    x 1.711860 0.000000 -0.003850 
#    y 0.000000 1.633730 0.000000 
#    z -0.003850 0.000000 1.681520 
# 
# From -- ./inp_files/171756.got.cif
#   From: 2010.05.17/outbox.cif.g08.bks.cpg/sg15_86_cif.got.tgz:171756.got - 2010.06.03 18:47:42.
