data_PCOD9279067
_publ_section_title
;
Structure prediction by ZEFSAII (Michael W. Deem and Ramdas Pophale) SiO2 
 PCOD9279067
Probable space group: C 2/C
;
_chemical_formula_sum "Si O2"
_cell_formula_units_Z 48
_cell_length_a 22.992364
_cell_length_b 9.722228
_cell_length_c 11.217355
_cell_angle_alpha 90.000000
_cell_angle_beta 76.596559
_cell_angle_gamma 90.000000
_cell_volume 2439.194717
_symmetry_space_group_name_H-M "C 2/C"
_symmetry_group_IT_number 15
_symmetry_cell_setting 'monoclinic'
loop_
_space_group_symop_operation_xyz
x,y,z
-x,y,1/2-z
-x,-y,-z
x,-y,1/2+z
1/2+x,1/2+y,z
1/2-x,1/2+y,1/2-z
1/2-x,1/2-y,-z
1/2+x,1/2-y,1/2+z
loop_
_atom_site_type_symbol
_atom_site_label
_atom_site_fract_x
_atom_site_fract_y
_atom_site_fract_z
Si Si1 0.674768 0.943108 0.767432
Si Si2 0.539577 0.139400 0.342772
Si Si3 0.009561 0.316669 0.383868
Si Si4 0.643457 0.754790 0.341843
Si Si5 0.269233 0.398967 0.534489
Si Si6 0.224648 0.842948 0.615139
O O1 0.609974 0.875802 0.778367
O O2 0.712322 0.966202 0.628908
O O3 0.721225 0.847800 0.815884
O O4 0.665353 0.086163 0.843789
O O5 0.500000 0.197195 0.250000
O O6 0.532232 0.205702 0.479119
O O7 0.516145 0.982247 0.368712
O O8 0.073427 0.257009 0.391617
O O9 0.000000 0.269548 0.250000
O O10 0.676055 0.640014 0.405237
O O11 0.664837 0.718723 0.198891
O O12 0.250000 0.250000 0.500000
O O13 0.287396 0.503346 0.423611
O O14 0.250000 0.750000 0.500000
#
# Coordination Sequence:
#
# PCOD9279067 Si02
#       6
#     8   8   8   8   8   8
#     4  10  21  34  55  88 121 153 199 249 307 355
#     4   9  19  32  54  86 120 154 198 252 301 348
#     4   9  19  34  56  84 117 157 201 247 300 352
#     4  10  21  36  57  88 117 154 198 251 304 363
#     4  11  22  36  58  85 119 156 193 247 304 362
#     4  11  22  36  58  86 118 158 196 242 304 368
#
# _framework density 19.678626000000001
#
# number of rings (size 3 to 8) (size 9 to 14) (size 15 to 20)
#    0.000    2.000    3.333    0.000    4.667    1.333 
#    0.000    0.000    0.000    1.000    0.000    0.000 
#    0.000    0.000    0.000    0.000    0.000    0.000 
#
# Total GULP energy -133601.627613 kJ/mol
# GULP energy per Si atom -5566.734484 kJ/mol
# Density = 1.963384 g / cm^3
# Si number density = 19.678626 Si / 1000 Ang^3
#
#
#
# Elastic Constant Matrix: (Units=GPa)
#
#
# Indices 1 2 3 4 5 6 
#
# 1 61.7323 -0.3931 22.9260 0.0000 -6.1564 0.0000
# 2 -0.3931 31.2121 -6.1208 0.0000 2.7460 0.0000
# 3 22.9260 -6.1208 63.9309 0.0000 5.8573 0.0000
# 4 0.0000 0.0000 0.0000 27.1433 0.0000 -2.6134
# 5 -6.1564 2.7460 5.8573 0.0000 20.7343 0.0000
# 6 0.0000 0.0000 0.0000 -2.6134 0.0000 12.8689
#
#
#
# Elastic Compliance Matrix: (Units=1/GPa)
#
#
# Indices 1 2 3 4 5 6 
#
# 1 0.020078 -0.002105 -0.008185 0.000000 0.008553 0.000000
# 2 -0.002105 0.033460 0.004539 0.000000 -0.006339 0.000000
# 3 -0.008185 0.004539 0.019802 0.000000 -0.008625 0.000000
# 4 0.000000 0.000000 0.000000 0.037576 0.000000 0.007631
# 5 0.008553 -0.006339 -0.008625 0.000000 0.054045 0.000000
# 6 0.000000 0.000000 0.000000 0.007631 0.000000 0.079256
#
#
# Mechanical properties :
#
#
# Convention : Reuss Voigt Hill
#
# Bulk Modulus (GPa) = 16.17115 21.07770 18.62443
# Shear Modulus (GPa) = 18.09413 21.51352 19.80382
#
# Velocity S-wave (km/s) = 3.03558 3.31001 3.17576
# Velocity P-wave (km/s) = 4.53010 5.03413 4.78875
#
# Compressibility (1/GPa) = 0.06183852
#
# Stress axis : x y z
#
# Youngs Moduli (GPa) = 49.80487 29.88626 50.49984
#
# Poissons Ratio (x) = 0.06290 0.41336
# Poissons Ratio (y) = 0.10483 -0.22922
# Poissons Ratio (z) = 0.40767 -0.13566
#
# Static dielectric constant tensor:
#      x y z
#    x 1.694800 0.000000 0.043440 
#    y 0.000000 1.700460 0.000000 
#    z 0.043440 0.000000 1.803630 
# 
# From -- ./inp_files/110529.got.cif
#   From: 2010.05.17/outbox.cif.g08.bks.cpg/sg15_56_cif.got.tgz:110529.got - 2010.06.03 18:47:42.
