data_PCOD9279729
_publ_section_title
;
Structure prediction by ZEFSAII (Michael W. Deem and Ramdas Pophale) SiO2 
 PCOD9279729
Probable space group: C 2/C
;
_chemical_formula_sum "Si O2"
_cell_formula_units_Z 56
_cell_length_a 19.165198
_cell_length_b 22.776288
_cell_length_c 5.497270
_cell_angle_alpha 90.000000
_cell_angle_beta 106.403036
_cell_angle_gamma 90.000000
_cell_volume 2301.957608
_symmetry_space_group_name_H-M "C 2/C"
_symmetry_group_IT_number 15
_symmetry_cell_setting 'monoclinic'
loop_
_space_group_symop_operation_xyz
x,y,z
-x,y,1/2-z
-x,-y,-z
x,-y,1/2+z
1/2+x,1/2+y,z
1/2-x,1/2+y,1/2-z
1/2-x,1/2-y,-z
1/2+x,1/2-y,1/2+z
loop_
_atom_site_type_symbol
_atom_site_label
_atom_site_fract_x
_atom_site_fract_y
_atom_site_fract_z
Si Si1 0.247545 0.172284 0.747426
Si Si2 0.044748 0.635785 0.043972
Si Si3 0.665370 0.965240 0.696226
Si Si4 0.180349 0.696561 0.181530
Si Si5 0.096115 0.834663 0.095217
Si Si6 0.662421 0.535573 0.154252
Si Si7 0.932309 0.153296 0.433233
O O1 0.212721 0.237821 0.713812
O O2 0.291308 0.167293 0.541270
O O3 0.174376 0.133157 0.673948
O O4 0.292000 0.167257 0.039410
O O5 0.106604 0.585762 0.106424
O O6 0.093584 0.694303 0.093391
O O7 0.000000 0.631831 0.250000
O O8 0.000000 0.631918 0.750000
O O9 0.751174 0.950712 0.764164
O O10 0.653203 0.008017 0.453011
O O11 0.089395 0.808230 0.355873
O O12 0.090143 0.808569 0.821311
O O13 0.016788 0.865985 0.016048
O O14 0.646641 0.500007 0.388761
O O15 0.615765 0.595060 0.111354
#
# Coordination Sequence:
#
# PCOD9279729 Si02
#       7
#     8   8   8   8   8   8   8
#     4  10  21  41  69  93 127 164 219 255 302 369
#     4  12  26  44  65  99 133 166 205 261 336 386
#     4  10  23  41  64  94 122 164 214 260 317 381
#     4  10  23  43  65  99 123 167 210 261 316 370
#     4  10  21  36  57  90 122 163 206 249 303 356
#     4  10  21  39  60  87 121 163 207 261 311 356
#     4  10  21  38  55  92 126 158 213 244 308 368
#
# _framework density 24.327123
#
# number of rings (size 3 to 8) (size 9 to 14) (size 15 to 20)
#    0.000    1.714    0.000    3.429    4.000    1.714 
#    5.143    8.571    0.000    0.000    0.000    0.000 
#    0.000    0.000    0.000    0.000    0.000    0.000 
#
# Total GULP energy -156337.464961 kJ/mol
# GULP energy per Si atom -5583.480891 kJ/mol
# Density = 2.427175 g / cm^3
# Si number density = 24.327123 Si / 1000 Ang^3
#
#
#
# Elastic Constant Matrix: (Units=GPa)
#
#
# Indices 1 2 3 4 5 6 
#
# 1 143.0513 20.1551 80.5784 0.0000 0.3475 0.0000
# 2 20.1551 62.9067 31.7283 0.0000 2.0089 0.0000
# 3 80.5784 31.7283 220.8440 0.0000 -12.3630 0.0000
# 4 0.0000 0.0000 0.0000 32.7060 0.0000 -1.6684
# 5 0.3475 2.0089 -12.3630 0.0000 42.7117 0.0000
# 6 0.0000 0.0000 0.0000 -1.6684 0.0000 24.3032
#
#
#
# Elastic Compliance Matrix: (Units=1/GPa)
#
#
# Indices 1 2 3 4 5 6 
#
# 1 0.008933 -0.001254 -0.003131 0.000000 -0.000920 0.000000
# 2 -0.001254 0.017415 -0.002124 0.000000 -0.001424 0.000000
# 3 -0.003131 -0.002124 0.006081 0.000000 0.001886 0.000000
# 4 0.000000 0.000000 0.000000 0.030683 0.000000 0.002106
# 5 -0.000920 -0.001424 0.001886 0.000000 0.024033 0.000000
# 6 0.000000 0.000000 0.000000 0.002106 0.000000 0.041292
#
#
# Mechanical properties :
#
#
# Convention : Reuss Voigt Hill
#
# Bulk Modulus (GPa) = 51.51501 76.85840 64.18671
# Shear Modulus (GPa) = 33.80106 39.56684 36.68395
#
# Velocity S-wave (km/s) = 3.73156 4.03730 3.88744
# Velocity P-wave (km/s) = 6.30777 7.30721 6.82581
#
# Compressibility (1/GPa) = 0.01941182
#
# Stress axis : x y z
#
# Youngs Moduli (GPa) = 111.94673 57.42141 164.44380
#
# Poissons Ratio (x) = 0.07199 0.51482
# Poissons Ratio (y) = 0.14034 0.34933
# Poissons Ratio (z) = 0.35047 0.12198
#
# Static dielectric constant tensor:
#      x y z
#    x 1.969130 0.000000 -0.011450 
#    y 0.000000 2.034920 0.000000 
#    z -0.011450 0.000000 2.006350 
# 
# From -- ./inp_files/11578.got.cif
#   From: 2010.05.17/outbox.cif.g08.bks.cpg/sg15_6_cif.got.tgz:11578.got - 2010.06.03 18:47:42.
