data_PCOD9279161
_publ_section_title
;
Structure prediction by ZEFSAII (Michael W. Deem and Ramdas Pophale) SiO2 
 PCOD9279161
Probable space group: C 2/C
;
_chemical_formula_sum "Si O2"
_cell_formula_units_Z 52
_cell_length_a 13.133643
_cell_length_b 20.203106
_cell_length_c 14.598098
_cell_angle_alpha 90.000000
_cell_angle_beta 38.835827
_cell_angle_gamma 90.000000
_cell_volume 2429.015006
_symmetry_space_group_name_H-M "C 2/C"
_symmetry_group_IT_number 15
_symmetry_cell_setting 'monoclinic'
loop_
_space_group_symop_operation_xyz
x,y,z
-x,y,1/2-z
-x,-y,-z
x,-y,1/2+z
1/2+x,1/2+y,z
1/2-x,1/2+y,1/2-z
1/2-x,1/2-y,-z
1/2+x,1/2-y,1/2+z
loop_
_atom_site_type_symbol
_atom_site_label
_atom_site_fract_x
_atom_site_fract_y
_atom_site_fract_z
Si Si1 0.501546 0.561399 0.929122
Si Si2 0.853249 0.576391 0.620724
Si Si3 0.940204 0.505653 0.382761
Si Si4 0.884805 0.306922 0.554340
Si Si5 0.064605 0.828711 0.900184
Si Si6 0.276064 0.614587 0.475984
Si Si7 0.500000 0.480714 0.750000
O O1 0.678142 0.593169 0.784609
O O2 0.459537 0.525565 0.864184
O O3 0.500000 0.500000 0.000000
O O4 0.395847 0.619433 0.046937
O O5 0.839262 0.548008 0.527589
O O6 0.922165 0.522565 0.644913
O O7 0.984518 0.634676 0.523155
O O8 0.847643 0.441565 0.404183
O O9 0.000000 0.543048 0.250000
O O10 0.727241 0.311378 0.729976
O O11 0.815259 0.322644 0.501138
O O12 0.979006 0.238245 0.494083
O O13 0.920545 0.864144 0.941354
O O14 0.354029 0.571706 0.337583
#
# Coordination Sequence:
#
# PCOD9279161 Si02
#       7
#     8   8   8   8   8   8   4
#     4  12  24  40  67  94 131 175 216 271 331 387
#     4  10  23  39  60  91 130 167 215 264 320 382
#     4  10  21  34  60  92 130 167 209 264 321 377
#     4  11  24  42  63  94 134 173 220 268 320 397
#     4  12  24  40  67  91 133 178 217 263 332 388
#     4  11  20  38  62  97 133 167 212 265 329 390
#     4  12  22  40  64  98 132 162 220 272 322 392
#
# _framework density 21.407854
#
# number of rings (size 3 to 8) (size 9 to 14) (size 15 to 20)
#    0.000    0.923    4.615    2.308    4.308    1.231 
#    0.000    0.000    1.692    1.846    0.000    0.000 
#    0.000    0.000    0.000    0.000    0.000    0.000 
#
# Total GULP energy -145026.068051 kJ/mol
# GULP energy per Si atom -5577.925694 kJ/mol
# Density = 2.135913 g / cm^3
# Si number density = 21.407854 Si / 1000 Ang^3
#
#
#
# Elastic Constant Matrix: (Units=GPa)
#
#
# Indices 1 2 3 4 5 6 
#
# 1 69.8039 29.7225 36.9960 0.0008 12.4290 -0.0003
# 2 29.7225 94.6570 40.2765 0.0015 8.4643 -0.0010
# 3 36.9960 40.2765 138.4182 0.0016 7.0084 -0.0016
# 4 0.0008 0.0015 0.0016 36.1803 -0.0014 -6.9795
# 5 12.4290 8.4643 7.0084 -0.0014 43.6755 0.0012
# 6 -0.0003 -0.0010 -0.0016 -6.9795 0.0012 29.2692
#
#
#
# Elastic Compliance Matrix: (Units=1/GPa)
#
#
# Indices 1 2 3 4 5 6 
#
# 1 0.018638 -0.003954 -0.003631 0.000000 -0.003955 0.000000
# 2 -0.003954 0.013036 -0.002687 0.000000 -0.000970 0.000000
# 3 -0.003631 -0.002687 0.008971 0.000000 0.000114 0.000000
# 4 0.000000 0.000000 0.000000 0.028972 0.000001 0.006909
# 5 -0.003955 -0.000970 0.000114 0.000001 0.024191 -0.000001
# 6 0.000000 0.000000 0.000000 0.006909 -0.000001 0.035813
#
#
# Mechanical properties :
#
#
# Convention : Reuss Voigt Hill
#
# Bulk Modulus (GPa) = 49.74801 57.42992 53.58896
# Shear Modulus (GPa) = 31.87440 34.88394 33.37917
#
# Velocity S-wave (km/s) = 3.86283 4.04108 3.95296
# Velocity P-wave (km/s) = 6.57145 6.97557 6.77652
#
# Compressibility (1/GPa) = 0.02010131
#
# Stress axis : x y z
#
# Youngs Moduli (GPa) = 53.65410 76.70970 111.46949
#
# Poissons Ratio (x) = 0.30329 0.40472
# Poissons Ratio (y) = 0.21214 0.29956
# Poissons Ratio (z) = 0.19481 0.20615
#
# Static dielectric constant tensor:
#      x y z
#    x 1.840830 0.000000 -0.041090 
#    y 0.000000 1.764240 0.000000 
#    z -0.041090 0.000000 1.881900 
# 
# From -- ./inp_files/155427.got.cif
#   From: 2010.05.17/outbox.cif.g08.bks.cpg/sg15_78_cif.got.tgz:155427.got - 2010.06.03 18:47:42.
