data_PCOD9279303
_publ_section_title
;
Structure prediction by ZEFSAII (Michael W. Deem and Ramdas Pophale) SiO2 
 PCOD9279303
Probable space group: C 2/C
;
_chemical_formula_sum "Si O2"
_cell_formula_units_Z 40
_cell_length_a 19.576961
_cell_length_b 9.005443
_cell_length_c 9.499869
_cell_angle_alpha 90.000000
_cell_angle_beta 112.245785
_cell_angle_gamma 90.000000
_cell_volume 1550.159809
_symmetry_space_group_name_H-M "C 2/C"
_symmetry_group_IT_number 15
_symmetry_cell_setting 'monoclinic'
loop_
_space_group_symop_operation_xyz
x,y,z
-x,y,1/2-z
-x,-y,-z
x,-y,1/2+z
1/2+x,1/2+y,z
1/2-x,1/2+y,1/2-z
1/2-x,1/2-y,-z
1/2+x,1/2-y,1/2+z
loop_
_atom_site_type_symbol
_atom_site_label
_atom_site_fract_x
_atom_site_fract_y
_atom_site_fract_z
Si Si1 0.172456 0.301413 0.805317
Si Si2 0.832826 0.809654 0.605842
Si Si3 0.444098 0.862235 0.034929
Si Si4 0.450284 0.789365 0.584125
Si Si5 0.698162 0.506028 0.663261
O O1 0.111775 0.350218 0.642012
O O2 0.132624 0.272076 0.923056
O O3 0.229428 0.436010 0.850059
O O4 0.208521 0.150859 0.771383
O O5 0.750000 0.750000 0.500000
O O6 0.895379 0.690443 0.628086
O O7 0.850652 0.934784 0.502389
O O8 0.831969 0.881110 0.756983
O O9 0.511386 0.756256 0.035893
O O10 0.461442 0.031846 0.084313
O O11 0.500000 0.724753 0.750000
#
# Coordination Sequence:
#
# PCOD9279303 Si02
#       5
#     8   8   8   8   8
#     4  10  21  35  56  88 118 157 198 247 303 363
#     4  11  21  40  58  90 128 158 199 255 303 358
#     4   9  18  36  58  80 118 152 197 259 295 347
#     4   9  18  34  58  85 110 156 209 245 300 359
#     4  11  22  38  60  89 125 165 193 252 309 356
#
# _framework density 25.803791
#
# number of rings (size 3 to 8) (size 9 to 14) (size 15 to 20)
#    0.000    2.000    4.000    1.200    0.000    0.800 
#    0.000    3.000    0.000    3.600    0.000    0.000 
#    0.000    0.000    0.000    0.000    0.000    0.000 
#
# Total GULP energy -111742.044616 kJ/mol
# GULP energy per Si atom -5587.102231 kJ/mol
# Density = 2.574506 g / cm^3
# Si number density = 25.803791 Si / 1000 Ang^3
#
#
#
# Elastic Constant Matrix: (Units=GPa)
#
#
# Indices 1 2 3 4 5 6 
#
# 1 128.9671 31.7697 9.7987 0.0000 -33.2268 0.0000
# 2 31.7697 52.3823 -7.6071 0.0000 -6.1603 0.0000
# 3 9.7987 -7.6071 85.0841 0.0000 -4.2066 0.0000
# 4 0.0000 0.0000 0.0000 39.5712 0.0000 -14.2573
# 5 -33.2268 -6.1603 -4.2066 0.0000 44.1293 0.0000
# 6 0.0000 0.0000 0.0000 -14.2573 0.0000 33.7986
#
#
#
# Elastic Compliance Matrix: (Units=1/GPa)
#
#
# Indices 1 2 3 4 5 6 
#
# 1 0.011335 -0.006205 -0.001488 0.000000 0.007526 0.000000
# 2 -0.006205 0.023110 0.002722 0.000000 -0.001187 0.000000
# 3 -0.001488 0.002722 0.012189 0.000000 0.000421 0.000000
# 4 0.000000 0.000000 0.000000 0.029800 0.000000 0.012571
# 5 0.007526 -0.001187 0.000421 0.000000 0.028202 0.000000
# 6 0.000000 0.000000 0.000000 0.012571 0.000000 0.034890
#
#
# Mechanical properties :
#
#
# Convention : Reuss Voigt Hill
#
# Bulk Modulus (GPa) = 27.25513 37.15068 32.20290
# Shear Modulus (GPa) = 30.92193 38.99797 34.95995
#
# Velocity S-wave (km/s) = 3.46547 3.89180 3.68481
# Velocity P-wave (km/s) = 5.15733 5.88417 5.53270
#
# Compressibility (1/GPa) = 0.03669034
#
# Stress axis : x y z
#
# Youngs Moduli (GPa) = 88.22494 43.27185 82.04344
#
# Poissons Ratio (x) = 0.26852 0.12209
# Poissons Ratio (y) = 0.54747 -0.22333
# Poissons Ratio (z) = 0.13128 -0.11779
#
# Static dielectric constant tensor:
#      x y z
#    x 2.133950 0.000000 -0.051090 
#    y 0.000000 2.061210 0.000000 
#    z -0.051090 0.000000 2.057960 
# 
# From -- ./inp_files/102657.got.cif
#   From: 2010.05.17/outbox.cif.g08.bks.cpg/sg15_52_cif.got.tgz:102657.got - 2010.06.03 18:47:42.
