data_PCOD9279215
_publ_section_title
;
Structure prediction by ZEFSAII (Michael W. Deem and Ramdas Pophale) SiO2 
 PCOD9279215
Probable space group: C 2/C
;
_chemical_formula_sum "Si O2"
_cell_formula_units_Z 64
_cell_length_a 19.317177
_cell_length_b 13.734295
_cell_length_c 18.336020
_cell_angle_alpha 90.000000
_cell_angle_beta 44.294732
_cell_angle_gamma 90.000000
_cell_volume 3397.253213
_symmetry_space_group_name_H-M "C 2/C"
_symmetry_group_IT_number 15
_symmetry_cell_setting 'monoclinic'
loop_
_space_group_symop_operation_xyz
x,y,z
-x,y,1/2-z
-x,-y,-z
x,-y,1/2+z
1/2+x,1/2+y,z
1/2-x,1/2+y,1/2-z
1/2-x,1/2-y,-z
1/2+x,1/2-y,1/2+z
loop_
_atom_site_type_symbol
_atom_site_label
_atom_site_fract_x
_atom_site_fract_y
_atom_site_fract_z
Si Si1 0.253774 0.503167 0.834310
Si Si2 0.843174 0.863632 0.983477
Si Si3 0.968800 0.975618 0.643922
Si Si4 0.920337 0.365000 0.029707
Si Si5 0.656826 0.863632 0.016521
Si Si6 0.468800 0.975618 0.143921
Si Si7 0.246226 0.503166 0.165690
Si Si8 0.579663 0.365000 0.970293
O O1 0.369644 0.494360 0.764401
O O2 0.191328 0.598046 0.904222
O O3 0.192952 0.413555 0.914317
O O4 0.250000 0.500001 0.749999
O O5 0.865482 0.750000 0.975298
O O6 0.807047 0.913555 0.085682
O O7 0.750001 0.874136 0.999998
O O8 0.940100 0.922347 0.885533
O O9 0.943692 0.904917 0.593664
O O10 0.007640 0.075774 0.578708
O O11 0.943692 0.404917 0.093664
O O12 0.931014 0.250000 0.017869
O O13 0.992361 0.424226 0.921291
O O14 0.559901 0.922348 0.114466
O O15 0.369645 0.994360 0.264401
O O16 0.308672 0.598046 0.095778
#
# Coordination Sequence:
#
# PCOD9279215 Si02
#       8
#     8   8   8   8   8   8   8   8
#     4   9  19  33  50  75 103 134 176 217 253 301
#     4  10  21  35  52  78 111 142 171 209 261 318
#     4   9  18  32  49  74 106 137 170 213 260 308
#     4   9  17  30  50  76 104 133 169 216 265 308
#     4  10  21  35  52  78 111 142 171 209 261 318
#     4   9  18  32  49  74 106 137 170 213 260 308
#     4   9  19  33  50  75 103 134 176 217 253 301
#     4   9  17  30  50  76 104 133 169 216 265 308
#
# _framework density 18.838749
#
# number of rings (size 3 to 8) (size 9 to 14) (size 15 to 20)
#    0.000    2.750    0.000    2.250    0.000    7.000 
#    0.000    2.500    0.000   12.000    0.000   14.000 
#    0.000    0.000    0.000    0.000    0.000    0.000 
#
# Total GULP energy -178362.748654 kJ/mol
# GULP energy per Si atom -5573.835895 kJ/mol
# Density = 1.879587 g / cm^3
# Si number density = 18.838749 Si / 1000 Ang^3
#
#
#
# Elastic Constant Matrix: (Units=GPa)
#
#
# Indices 1 2 3 4 5 6 
#
# 1 55.0696 38.4091 24.7648 0.0000 -21.7710 0.0000
# 2 38.4091 161.6514 35.5669 0.0000 -23.4349 0.0000
# 3 24.7648 35.5669 84.1109 0.0000 -37.9239 0.0000
# 4 0.0000 0.0000 0.0000 6.9375 0.0000 -3.9026
# 5 -21.7710 -23.4349 -37.9239 0.0000 39.7093 0.0000
# 6 0.0000 0.0000 0.0000 -3.9026 0.0000 24.1275
#
#
#
# Elastic Compliance Matrix: (Units=1/GPa)
#
#
# Indices 1 2 3 4 5 6 
#
# 1 0.025872 -0.004390 -0.000937 0.000000 0.010698 0.000000
# 2 -0.004390 0.007680 -0.001750 0.000000 0.000454 0.000000
# 3 -0.000937 -0.001750 0.021440 0.000000 0.018929 0.000000
# 4 0.000000 0.000000 0.000000 0.158574 0.000000 0.025649
# 5 0.010698 0.000454 0.018929 0.000000 0.049394 0.000000
# 6 0.000000 0.000000 0.000000 0.025649 0.000000 0.045595
#
#
# Mechanical properties :
#
#
# Convention : Reuss Voigt Hill
#
# Bulk Modulus (GPa) = 24.48806 55.36819 39.92812
# Shear Modulus (GPa) = 14.86668 27.62759 21.24714
#
# Velocity S-wave (km/s) = 2.81224 3.83368 3.36198
# Velocity P-wave (km/s) = 4.85509 7.00361 6.02588
#
# Compressibility (1/GPa) = 0.04083622
#
# Stress axis : x y z
#
# Youngs Moduli (GPa) = 38.65225 130.20528 46.64198
#
# Poissons Ratio (x) = 0.57161 0.04372
# Poissons Ratio (y) = 0.16968 0.08164
# Poissons Ratio (z) = 0.03623 0.22791
#
# Static dielectric constant tensor:
#      x y z
#    x 1.734570 0.000000 -0.048730 
#    y 0.000000 1.610420 0.000000 
#    z -0.048730 0.000000 1.669670 
# 
# From -- ./inp_files/252544.got.cif
#   From: 2010.05.17/outbox.cif.g08.bks.cpg/sg15_127_cif.got.tgz:252544.got - 2010.06.03 18:47:42.
