data_PCOD9279586
_publ_section_title
;
Structure prediction by ZEFSAII (Michael W. Deem and Ramdas Pophale) SiO2 
 PCOD9279586
Probable space group: C 2/C
;
_chemical_formula_sum "Si O2"
_cell_formula_units_Z 44
_cell_length_a 13.513195
_cell_length_b 35.772856
_cell_length_c 5.305707
_cell_angle_alpha 90.000000
_cell_angle_beta 108.820018
_cell_angle_gamma 90.000000
_cell_volume 2427.685011
_symmetry_space_group_name_H-M "C 2/C"
_symmetry_group_IT_number 15
_symmetry_cell_setting 'monoclinic'
loop_
_space_group_symop_operation_xyz
x,y,z
-x,y,1/2-z
-x,-y,-z
x,-y,1/2+z
1/2+x,1/2+y,z
1/2-x,1/2+y,1/2-z
1/2-x,1/2-y,-z
1/2+x,1/2-y,1/2+z
loop_
_atom_site_type_symbol
_atom_site_label
_atom_site_fract_x
_atom_site_fract_y
_atom_site_fract_z
Si Si1 0.618459 0.605201 0.458206
Si Si2 0.118763 0.705046 0.386624
Si Si3 0.500000 0.353030 0.250000
Si Si4 0.381766 0.747466 0.111063
Si Si5 0.186573 0.174024 0.211855
Si Si6 0.627324 0.479012 0.865357
O O1 0.500000 0.606126 0.250000
O O2 0.589683 0.619745 0.711138
O O3 0.687121 0.636412 0.377230
O O4 0.658232 0.563373 0.456761
O O5 0.130301 0.721804 0.675223
O O6 0.214854 0.678037 0.393215
O O7 0.000000 0.689828 0.250000
O O8 0.126772 0.737785 0.181117
O O9 0.572824 0.327471 0.484063
O O10 0.500000 0.735334 0.250000
O O11 0.314158 0.711063 0.116319
O O12 0.500000 0.479357 0.750000
O O13 0.661094 0.493842 0.620202
#
# Coordination Sequence:
#
# PCOD9279586 Si02
#       6
#     8   8   4   8   8   8
#     4   9  20  32  46  72 101 137 171 205 245 304
#     4  10  23  38  55  74  99 133 178 222 257 302
#     4  10  22  32  50  74 108 134 174 204 256 304
#     4  10  21  36  54  74  99 133 175 216 261 304
#     4  11  22  34  53  74 104 137 172 212 262 304
#     4   9  18  29  47  67  96 134 169 198 237 290
#
# _framework density 18.124262999999999
#
# number of rings (size 3 to 8) (size 9 to 14) (size 15 to 20)
#    0.000    2.182    0.000    2.727   17.818    0.000 
#    0.000    0.000    0.000    0.000    0.000    0.000 
#    0.000    1.455    0.000    0.182    0.000    0.000 
#
# Total GULP energy -122599.308949 kJ/mol
# GULP energy per Si atom -5572.695861 kJ/mol
# Density = 1.808301 g / cm^3
# Si number density = 18.124263 Si / 1000 Ang^3
#
#
#
# Elastic Constant Matrix: (Units=GPa)
#
#
# Indices 1 2 3 4 5 6 
#
# 1 88.3136 30.9139 10.7241 0.0000 -6.0211 0.0000
# 2 30.9139 56.1883 2.7496 0.0000 -13.2083 0.0000
# 3 10.7241 2.7496 62.2116 0.0000 -7.4515 0.0000
# 4 0.0000 0.0000 0.0000 16.3898 0.0000 -12.6500
# 5 -6.0211 -13.2083 -7.4515 0.0000 28.5586 0.0000
# 6 0.0000 0.0000 0.0000 -12.6500 0.0000 91.5257
#
#
#
# Elastic Compliance Matrix: (Units=1/GPa)
#
#
# Indices 1 2 3 4 5 6 
#
# 1 0.014341 -0.008087 -0.002271 0.000000 -0.001309 0.000000
# 2 -0.008087 0.024531 0.001512 0.000000 0.010035 0.000000
# 3 -0.002271 0.001512 0.016955 0.000000 0.004644 0.000000
# 4 0.000000 0.000000 0.000000 0.068299 0.000000 0.009440
# 5 -0.001309 0.010035 0.004644 0.000000 0.040593 0.000000
# 6 0.000000 0.000000 0.000000 0.009440 0.000000 0.012231
#
#
# Mechanical properties :
#
#
# Convention : Reuss Voigt Hill
#
# Bulk Modulus (GPa) = 26.22291 32.83210 29.52751
# Shear Modulus (GPa) = 24.11339 38.11655 31.11497
#
# Velocity S-wave (km/s) = 3.65149 4.59090 4.14787
# Velocity P-wave (km/s) = 5.68134 6.80118 6.26633
#
# Compressibility (1/GPa) = 0.03813459
#
# Stress axis : x y z
#
# Youngs Moduli (GPa) = 69.73255 40.76415 58.97901
#
# Poissons Ratio (x) = 0.32964 0.13397
# Poissons Ratio (y) = 0.56389 -0.08916
# Poissons Ratio (z) = 0.15839 -0.06162
#
# Static dielectric constant tensor:
#      x y z
#    x 1.673720 0.000000 -0.050120 
#    y 0.000000 1.621980 0.000000 
#    z -0.050120 0.000000 1.753550 
# 
# From -- ./inp_files/8108.got.cif
#   From: 2010.05.17/outbox.cif.g08.bks.cpg/sg15_5_cif.got.tgz:8108.got - 2010.06.03 18:47:42.
