data_PCOD9279077
_publ_section_title
;
Structure prediction by ZEFSAII (Michael W. Deem and Ramdas Pophale) SiO2 
 PCOD9279077
Probable space group: C 2/C
;
_chemical_formula_sum "Si O2"
_cell_formula_units_Z 64
_cell_length_a 26.174146
_cell_length_b 13.816985
_cell_length_c 9.041591
_cell_angle_alpha 90.000000
_cell_angle_beta 118.429455
_cell_angle_gamma 90.000000
_cell_volume 2875.537752
_symmetry_space_group_name_H-M "C 2/C"
_symmetry_group_IT_number 15
_symmetry_cell_setting 'monoclinic'
loop_
_space_group_symop_operation_xyz
x,y,z
-x,y,1/2-z
-x,-y,-z
x,-y,1/2+z
1/2+x,1/2+y,z
1/2-x,1/2+y,1/2-z
1/2-x,1/2-y,-z
1/2+x,1/2-y,1/2+z
loop_
_atom_site_type_symbol
_atom_site_label
_atom_site_fract_x
_atom_site_fract_y
_atom_site_fract_z
Si Si1 0.655252 0.869836 0.751234
Si Si2 0.616911 0.696048 0.567928
Si Si3 0.324100 0.280896 0.978124
Si Si4 0.945907 0.125602 0.588750
Si Si5 0.748343 0.323542 0.130276
Si Si6 0.577996 0.575022 0.268627
Si Si7 0.797221 0.521089 0.473912
Si Si8 0.678151 0.546730 0.843367
O O1 0.603501 0.801009 0.617146
O O2 0.680473 0.917865 0.635686
O O3 0.685611 0.781862 0.885757
O O4 0.655587 0.951064 0.880960
O O5 0.682880 0.690498 0.597824
O O6 0.575440 0.662215 0.380468
O O7 0.625809 0.609452 0.698005
O O8 0.292434 0.221194 0.809932
O O9 0.391015 0.302456 0.027204
O O10 0.304389 0.390761 0.988379
O O11 0.954290 0.098609 0.427863
O O12 0.000000 0.169899 0.750000
O O13 0.936246 0.022000 0.658235
O O14 0.750000 0.250000 0.000000
O O15 0.771983 0.418490 0.078465
O O16 0.646043 0.554747 0.320645
O O17 0.738655 0.463981 0.341548
#
# Coordination Sequence:
#
# PCOD9279077 Si02
#       8
#     8   8   8   8   8   8   8   8
#     4  11  24  39  55  83 123 165 215 261 307 368
#     4  11  20  36  56  85 128 171 208 246 300 379
#     4  10  24  42  58  83 126 170 213 265 312 367
#     4  11  24  42  67  93 123 166 215 265 319 374
#     4  12  22  35  56  86 124 168 214 254 302 377
#     4  11  21  38  61  92 129 164 204 252 309 375
#     4  12  23  35  56  86 124 172 215 249 301 372
#     4  10  21  34  56  80 122 173 210 241 296 366
#
# _framework density 22.256703999999999
#
# number of rings (size 3 to 8) (size 9 to 14) (size 15 to 20)
#    0.000    1.000    3.750    4.125    0.000    2.000 
#    0.000    0.000    0.000    0.000    0.000    3.500 
#    0.000    0.000    0.000    0.000    0.000    0.000 
#
# Total GULP energy -178327.841855 kJ/mol
# GULP energy per Si atom -5572.745058 kJ/mol
# Density = 2.220605 g / cm^3
# Si number density = 22.256704 Si / 1000 Ang^3
#
#
#
# Elastic Constant Matrix: (Units=GPa)
#
#
# Indices 1 2 3 4 5 6 
#
# 1 38.2217 9.8774 32.9819 0.0000 -0.0269 0.0000
# 2 9.8774 78.1486 42.2380 0.0000 -3.3771 0.0000
# 3 32.9819 42.2380 157.1415 0.0000 -21.2241 0.0000
# 4 0.0000 0.0000 0.0000 52.3986 0.0000 -15.7201
# 5 -0.0269 -3.3771 -21.2241 0.0000 30.2737 0.0000
# 6 0.0000 0.0000 0.0000 -15.7201 0.0000 19.3300
#
#
#
# Elastic Compliance Matrix: (Units=1/GPa)
#
#
# Indices 1 2 3 4 5 6 
#
# 1 0.032703 -0.000312 -0.007490 0.000000 -0.005257 0.000000
# 2 -0.000312 0.015018 -0.004137 0.000000 -0.001225 0.000000
# 3 -0.007490 -0.004137 0.009924 0.000000 0.006489 0.000000
# 4 0.000000 0.000000 0.000000 0.025243 0.000000 0.020529
# 5 -0.005257 -0.001225 0.006489 0.000000 0.037440 0.000000
# 6 0.000000 0.000000 0.000000 0.020529 0.000000 0.068428
#
#
# Mechanical properties :
#
#
# Convention : Reuss Voigt Hill
#
# Bulk Modulus (GPa) = 29.61405 49.30070 39.45737
# Shear Modulus (GPa) = 22.33218 32.96144 27.64681
#
# Velocity S-wave (km/s) = 3.17107 3.85251 3.52828
# Velocity P-wave (km/s) = 5.17128 6.47982 5.86218
#
# Compressibility (1/GPa) = 0.03376776
#
# Stress axis : x y z
#
# Youngs Moduli (GPa) = 30.57787 66.58459 100.76439
#
# Poissons Ratio (x) = 0.02080 0.75473
# Poissons Ratio (y) = 0.00955 0.41683
# Poissons Ratio (z) = 0.22903 0.27544
#
# Static dielectric constant tensor:
#      x y z
#    x 2.010970 0.000000 -0.101020 
#    y 0.000000 1.969390 0.000000 
#    z -0.101020 0.000000 1.975920 
# 
# From -- ./inp_files/69966.got.cif
#   From: 2010.05.17/outbox.cif.g08.bks.cpg/sg15_35_cif.got.tgz:69966.got - 2010.06.03 18:47:42.
