data_PCOD9279050
_publ_section_title
;
Structure prediction by ZEFSAII (Michael W. Deem and Ramdas Pophale) SiO2 
 PCOD9279050
Probable space group: C 2/C
;
_chemical_formula_sum "Si O2"
_cell_formula_units_Z 56
_cell_length_a 18.484111
_cell_length_b 16.007096
_cell_length_c 24.892322
_cell_angle_alpha 90.000000
_cell_angle_beta 158.726267
_cell_angle_gamma 90.000000
_cell_volume 2672.222457
_symmetry_space_group_name_H-M "C 2/C"
_symmetry_group_IT_number 15
_symmetry_cell_setting 'monoclinic'
loop_
_space_group_symop_operation_xyz
x,y,z
-x,y,1/2-z
-x,-y,-z
x,-y,1/2+z
1/2+x,1/2+y,z
1/2-x,1/2+y,1/2-z
1/2-x,1/2-y,-z
1/2+x,1/2-y,1/2+z
loop_
_atom_site_type_symbol
_atom_site_label
_atom_site_fract_x
_atom_site_fract_y
_atom_site_fract_z
Si Si1 0.065481 0.451372 0.352603
Si Si2 0.737907 0.412205 0.319339
Si Si3 0.020456 0.766934 0.133366
Si Si4 0.856910 0.352675 0.606564
Si Si5 0.510320 0.425730 0.696049
Si Si6 0.203263 0.989111 0.175976
Si Si7 0.338058 0.866978 0.841658
O O1 0.098286 0.550969 0.369736
O O2 0.283816 0.419983 0.519118
O O3 0.000000 0.416485 0.250000
O O4 0.879103 0.445706 0.263732
O O5 0.678891 0.314483 0.280280
O O6 0.600339 0.478790 0.256121
O O7 0.705693 0.440719 0.234985
O O8 0.964138 0.411792 0.497671
O O9 0.898713 0.694508 0.080067
O O10 0.112102 0.725757 0.144236
O O11 0.857901 0.839566 0.016310
O O12 0.000000 0.314416 0.750000
O O13 0.500000 0.397746 0.750000
O O14 0.663629 0.375050 0.764723
O O15 0.267344 0.081672 0.240079
O O16 0.000000 0.000000 0.000000
#
# Coordination Sequence:
#
# PCOD9279050 Si02
#       7
#     8   8   8   8   8   8   8
#     4  11  20  37  59  88 123 158 201 258 309 372
#     4  11  23  39  60  91 122 166 212 257 316 376
#     4  11  22  37  58  88 129 166 205 250 321 387
#     4  10  21  34  54  88 126 163 194 249 317 381
#     4  11  22  38  64  89 121 165 217 261 310 368
#     4  11  23  39  62  89 125 165 213 262 314 376
#     4  11  23  40  60  90 127 169 211 261 313 381
#
# _framework density 20.956339
#
# number of rings (size 3 to 8) (size 9 to 14) (size 15 to 20)
#    0.000    1.143    2.857    6.000    2.000    1.714 
#    0.000    0.000    0.000    4.286    0.000    0.000 
#    0.000    0.000    0.000    0.000    0.000    0.000 
#
# Total GULP energy -156152.218940 kJ/mol
# GULP energy per Si atom -5576.864962 kJ/mol
# Density = 2.090864 g / cm^3
# Si number density = 20.956339 Si / 1000 Ang^3
#
#
#
# Elastic Constant Matrix: (Units=GPa)
#
#
# Indices 1 2 3 4 5 6 
#
# 1 105.0415 0.7649 52.0010 0.0229 16.8541 0.0038
# 2 0.7649 30.9346 -1.5234 0.0753 7.3886 -0.0023
# 3 52.0010 -1.5234 174.8523 0.1012 -1.0437 0.0027
# 4 0.0229 0.0753 0.1012 -2.4327 -0.0314 5.4589
# 5 16.8541 7.3886 -1.0437 -0.0314 37.3335 -0.0015
# 6 0.0038 -0.0023 0.0027 5.4589 -0.0015 18.4645
#
#
#
# Elastic Compliance Matrix: (Units=1/GPa)
#
#
# Indices 1 2 3 4 5 6 
#
# 1 0.012266 0.000906 -0.003675 0.000036 -0.005820 -0.000013
# 2 0.000906 0.034006 -0.000016 0.000698 -0.007139 -0.000203
# 3 -0.003675 -0.000016 0.006823 0.000135 0.001853 -0.000040
# 4 0.000036 0.000698 0.000135 -0.247104 -0.000356 0.073054
# 5 -0.005820 -0.007139 0.001853 -0.000356 0.030877 0.000108
# 6 -0.000013 -0.000203 -0.000040 0.073054 0.000108 0.032560
#
#
# Mechanical properties :
#
#
# Convention : Reuss Voigt Hill
#
# Bulk Modulus (GPa) = 21.04150 45.92371 33.48261
# Shear Modulus (GPa) = -45.80508 27.97877 -8.91315
#
# Velocity S-wave (km/s) = -4.68026 3.65786 -2.06457
# Velocity P-wave (km/s) = 4.37539 6.30884 3.21384
#
# Compressibility (1/GPa) = 0.04752512
#
# Stress axis : x y z
#
# Youngs Moduli (GPa) = 81.52291 29.40615 146.56574
#
# Poissons Ratio (x) = -0.02663 0.53862
# Poissons Ratio (y) = -0.07383 0.00235
# Poissons Ratio (z) = 0.29959 0.00047
#
# Static dielectric constant tensor:
#      x y z
#    x 1.781490 0.000010 -0.013300 
#    y 0.000010 1.811400 -0.000030 
#    z -0.013300 -0.000030 1.958540 
# 
# From -- ./inp_files/299483.got.cif
#   From: 2010.05.17/outbox.cif.g08.bks.cpg/sg15_150_cif.got.tgz:299483.got - 2010.06.03 18:47:42.
