data_PCOD9279023
_publ_section_title
;
Structure prediction by ZEFSAII (Michael W. Deem and Ramdas Pophale) SiO2 
 PCOD9279023
Probable space group: C 2/C
;
_chemical_formula_sum "Si O2"
_cell_formula_units_Z 44
_cell_length_a 11.568651
_cell_length_b 18.591844
_cell_length_c 10.512485
_cell_angle_alpha 90.000000
_cell_angle_beta 127.139609
_cell_angle_gamma 90.000000
_cell_volume 1802.435546
_symmetry_space_group_name_H-M "C 2/C"
_symmetry_group_IT_number 15
_symmetry_cell_setting 'monoclinic'
loop_
_space_group_symop_operation_xyz
x,y,z
-x,y,1/2-z
-x,-y,-z
x,-y,1/2+z
1/2+x,1/2+y,z
1/2-x,1/2+y,1/2-z
1/2-x,1/2-y,-z
1/2+x,1/2-y,1/2+z
loop_
_atom_site_type_symbol
_atom_site_label
_atom_site_fract_x
_atom_site_fract_y
_atom_site_fract_z
Si Si1 0.310975 0.424959 0.470085
Si Si2 0.768690 0.002859 0.188198
Si Si3 0.650291 0.854038 0.704216
Si Si4 0.748551 0.712188 0.698617
Si Si5 0.000000 0.631462 0.750000
Si Si6 0.313278 0.147049 0.988794
O O1 0.342227 0.472795 0.366190
O O2 0.356421 0.458876 0.632805
O O3 0.344589 0.342594 0.450607
O O4 0.134602 0.419791 0.371862
O O5 0.661266 0.064637 0.165178
O O6 0.699665 0.932543 0.078604
O O7 0.723115 0.795657 0.659766
O O8 0.731028 0.852329 0.893951
O O9 0.482631 0.833039 0.603229
O O10 0.913544 0.684942 0.786477
O O11 0.722309 0.695632 0.830457
#
# Coordination Sequence:
#
# PCOD9279023 Si02
#       6
#     8   8   8   8   4   8
#     4   9  20  31  52  74 115 140 172 224 275 316
#     4  11  19  32  50  82 110 142 169 222 277 332
#     4  11  21  31  58  80 108 149 178 214 288 322
#     4   9  20  37  48  78 115 143 180 222 266 325
#     4   8  18  32  50  72 112 140 164 226 260 304
#     4  10  21  34  52  81 114 137 182 224 270 328
#
# _framework density 24.411415000000002
#
# number of rings (size 3 to 8) (size 9 to 14) (size 15 to 20)
#    1.091    1.091    1.818    2.182    2.545    0.727 
#    0.000    0.000    0.000    0.000    0.000   21.636 
#    0.000    0.000    0.000    0.000    0.000    0.000 
#
# Total GULP energy -122600.445859 kJ/mol
# GULP energy per Si atom -5572.747539 kJ/mol
# Density = 2.435585 g / cm^3
# Si number density = 24.411415 Si / 1000 Ang^3
#
#
#
# Elastic Constant Matrix: (Units=GPa)
#
#
# Indices 1 2 3 4 5 6 
#
# 1 36.9315 42.8260 104.7994 0.0000 -24.4600 0.0000
# 2 42.8260 60.5001 -178.9191 0.0000 46.0724 0.0000
# 3 104.7994 -178.9191 -469.6874 0.0000 120.7898 0.0000
# 4 0.0000 0.0000 0.0000 18.3183 0.0000 8.9417
# 5 -24.4600 46.0724 120.7898 0.0000 10.8670 0.0000
# 6 0.0000 0.0000 0.0000 8.9417 0.0000 71.9328
#
#
#
# Elastic Compliance Matrix: (Units=1/GPa)
#
#
# Indices 1 2 3 4 5 6 
#
# 1 0.016639 -0.000375 0.003601 0.000000 -0.000988 0.000000
# 2 -0.000375 0.007781 -0.003045 0.000000 0.000011 0.000000
# 3 0.003601 -0.003045 0.001358 0.000000 0.005924 0.000000
# 4 0.000000 0.000000 0.000000 0.058117 0.000000 -0.007224
# 5 -0.000988 0.000011 0.005924 0.000000 0.023908 0.000000
# 6 0.000000 0.000000 0.000000 -0.007224 0.000000 0.014800
#
#
# Mechanical properties :
#
#
# Convention : Reuss Voigt Hill
#
# Bulk Modulus (GPa) = 38.25579 -48.31591 -5.03006
# Shear Modulus (GPa) = 38.18184 -2.50720 17.83732
#
# Velocity S-wave (km/s) = 3.95916 -1.01454 2.70607
# Velocity P-wave (km/s) = 6.05022 4.60518 2.77466
#
# Compressibility (1/GPa) = 0.02613983
#
# Stress axis : x y z
#
# Youngs Moduli (GPa) = 60.10149 128.51621 736.51206
#
# Poissons Ratio (x) = 0.04822 -2.65240
# Poissons Ratio (y) = 0.02255 2.24261
# Poissons Ratio (z) = -0.21644 0.39132
#
# Static dielectric constant tensor:
#      x y z
#    x 1.944090 0.000000 -0.088270 
#    y 0.000000 1.913750 0.000000 
#    z -0.088270 0.000000 1.972770 
# 
# From -- ./inp_files/98500.got.cif
#   From: 2010.05.17/outbox.cif.g08.bks.cpg/sg15_50_cif.got.tgz:98500.got - 2010.06.03 18:47:42.
