data_PCOD9279794
_publ_section_title
;
Structure prediction by ZEFSAII (Michael W. Deem and Ramdas Pophale) SiO2 
 PCOD9279794
Probable space group: C 2/C
;
_chemical_formula_sum "Si O2"
_cell_formula_units_Z 40
_cell_length_a 10.502858
_cell_length_b 12.497447
_cell_length_c 14.684247
_cell_angle_alpha 90.000000
_cell_angle_beta 65.941419
_cell_angle_gamma 90.000000
_cell_volume 1760.000014
_symmetry_space_group_name_H-M "C 2/C"
_symmetry_group_IT_number 15
_symmetry_cell_setting 'monoclinic'
loop_
_space_group_symop_operation_xyz
x,y,z
-x,y,1/2-z
-x,-y,-z
x,-y,1/2+z
1/2+x,1/2+y,z
1/2-x,1/2+y,1/2-z
1/2-x,1/2-y,-z
1/2+x,1/2-y,1/2+z
loop_
_atom_site_type_symbol
_atom_site_label
_atom_site_fract_x
_atom_site_fract_y
_atom_site_fract_z
Si Si1 0.348877 0.714285 0.664771
Si Si2 0.126569 0.853256 0.545342
Si Si3 0.422856 0.506379 0.183661
Si Si4 0.444708 0.155165 0.669006
Si Si5 0.342063 0.944296 0.632985
O O1 0.319314 0.673996 0.570371
O O2 0.445733 0.619937 0.672573
O O3 0.205437 0.710354 0.764604
O O4 0.412606 0.832350 0.639820
O O5 0.244761 0.909492 0.574742
O O6 0.995788 0.933524 0.581147
O O7 0.051167 0.746164 0.605026
O O8 0.500000 0.552055 0.250000
O O9 0.262935 0.528569 0.252048
O O10 0.500000 0.112992 0.750000
O O11 0.426820 0.055349 0.604668
#
# Coordination Sequence:
#
# PCOD9279794 Si02
#       5
#     8   8   8   8   8
#     4  11  21  36  62  87 115 158 202 244 297 364
#     4  11  20  40  62  85 118 157 203 244 301 354
#     4   9  19  37  60  81 117 158 195 242 305 353
#     4  11  22  39  60  87 121 157 198 249 300 354
#     4  10  21  36  59  85 118 153 195 246 293 357
#
# _framework density 22.727273
#
# number of rings (size 3 to 8) (size 9 to 14) (size 15 to 20)
#    0.000    1.600    4.000    1.800    0.000    1.600 
#    0.000    0.000    0.000    4.800    0.000    0.000 
#    0.000    0.000    0.000    0.000    0.000    0.000 
#
# Total GULP energy -111482.331159 kJ/mol
# GULP energy per Si atom -5574.116558 kJ/mol
# Density = 2.267554 g / cm^3
# Si number density = 22.727273 Si / 1000 Ang^3
#
#
#
# Elastic Constant Matrix: (Units=GPa)
#
#
# Indices 1 2 3 4 5 6 
#
# 1 35.5965 25.9839 16.7392 0.0000 1.1418 0.0000
# 2 25.9839 140.4809 29.8371 0.0000 25.2218 0.0000
# 3 16.7392 29.8371 85.4212 0.0000 11.1993 0.0000
# 4 0.0000 0.0000 0.0000 35.1691 0.0000 2.2626
# 5 1.1418 25.2218 11.1993 0.0000 19.3558 0.0000
# 6 0.0000 0.0000 0.0000 2.2626 0.0000 33.8241
#
#
#
# Elastic Compliance Matrix: (Units=1/GPa)
#
#
# Indices 1 2 3 4 5 6 
#
# 1 0.035865 -0.007329 -0.005889 0.000000 0.010843 0.000000
# 2 -0.007329 0.011052 -0.000641 0.000000 -0.013597 0.000000
# 3 -0.005889 -0.000641 0.013991 0.000000 -0.006912 0.000000
# 4 0.000000 0.000000 0.000000 0.028557 0.000000 -0.001910
# 5 0.010843 -0.013597 -0.006912 0.000000 0.072742 0.000000
# 6 0.000000 0.000000 0.000000 -0.001910 0.000000 0.029693
#
#
# Mechanical properties :
#
#
# Convention : Reuss Voigt Hill
#
# Bulk Modulus (GPa) = 30.13245 45.17989 37.65617
# Shear Modulus (GPa) = 21.67492 30.26570 25.97031
#
# Velocity S-wave (km/s) = 3.09155 3.65319 3.38404
# Velocity P-wave (km/s) = 5.10202 6.14139 5.64568
#
# Compressibility (1/GPa) = 0.03318681
#
# Stress axis : x y z
#
# Youngs Moduli (GPa) = 27.88267 90.48497 71.47439
#
# Poissons Ratio (x) = 0.66321 0.42095
# Poissons Ratio (y) = 0.20437 0.04583
# Poissons Ratio (z) = 0.16421 0.05802
#
# Static dielectric constant tensor:
#      x y z
#    x 1.888450 0.000000 -0.001290 
#    y 0.000000 1.898800 0.000000 
#    z -0.001290 0.000000 1.911610 
# 
# From -- ./inp_files/142134.got.cif
#   From: 2010.05.17/outbox.cif.g08.bks.cpg/sg15_72_cif.got.tgz:142134.got - 2010.06.03 18:47:42.
