data_PCOD9279829
_publ_section_title
;
Structure prediction by ZEFSAII (Michael W. Deem and Ramdas Pophale) SiO2 
 PCOD9279829
Probable space group: C 2/C
;
_chemical_formula_sum "Si O2"
_cell_formula_units_Z 60
_cell_length_a 12.344417
_cell_length_b 14.551348
_cell_length_c 15.303857
_cell_angle_alpha 90.000000
_cell_angle_beta 89.105661
_cell_angle_gamma 90.000000
_cell_volume 2748.664927
_symmetry_space_group_name_H-M "C 2/C"
_symmetry_group_IT_number 15
_symmetry_cell_setting 'monoclinic'
loop_
_space_group_symop_operation_xyz
x,y,z
-x,y,1/2-z
-x,-y,-z
x,-y,1/2+z
1/2+x,1/2+y,z
1/2-x,1/2+y,1/2-z
1/2-x,1/2-y,-z
1/2+x,1/2-y,1/2+z
loop_
_atom_site_type_symbol
_atom_site_label
_atom_site_fract_x
_atom_site_fract_y
_atom_site_fract_z
Si Si1 0.195324 0.317334 0.071151
Si Si2 0.788426 0.375798 0.921728
Si Si3 0.666168 0.041625 0.448960
Si Si4 0.389016 0.646997 0.397289
Si Si5 0.912807 0.407465 0.174504
Si Si6 0.419572 0.746730 0.029937
Si Si7 0.773302 0.037437 0.698244
Si Si8 0.000000 0.031022 0.250000
O O1 0.150535 0.244842 0.140932
O O2 0.267929 0.391381 0.118250
O O3 0.250000 0.250000 0.000000
O O4 0.117002 0.381848 0.014498
O O5 0.677052 0.322548 0.942333
O O6 0.775964 0.438840 0.834563
O O7 0.803825 0.452347 0.996141
O O8 0.882388 0.300725 0.942198
O O9 0.781157 0.085805 0.415703
O O10 0.582630 0.003872 0.379096
O O11 0.469378 0.686636 0.472326
O O12 0.464721 0.593355 0.331185
O O13 0.921702 0.321252 0.109395
O O14 0.797390 0.418997 0.223712
O O15 0.000000 0.403135 0.250000
O O16 0.895228 0.025209 0.725278
#
# Coordination Sequence:
#
# PCOD9279829 Si02
#       8
#     8   8   8   8   8   8   8   4
#     4   9  21  40  62  85 122 168 205 252 302 376
#     4   9  20  39  58  87 125 158 202 260 309 368
#     4   9  20  41  61  88 126 163 208 257 315 379
#     4  11  21  38  65  92 123 162 209 257 308 376
#     4  11  23  38  61  90 123 167 206 258 316 375
#     4  10  21  36  59  93 118 157 212 257 307 361
#     4  11  22  40  62  91 129 162 209 260 315 377
#     4  12  24  38  64 100 124 164 206 266 322 370
#
# _framework density 21.828778
#
# number of rings (size 3 to 8) (size 9 to 14) (size 15 to 20)
#    0.000    1.867    2.667    0.800    2.800    1.600 
#    2.400    4.000    5.867    0.000    0.000    0.000 
#    0.000    0.000    0.000    0.000    0.000    0.000 
#
# Total GULP energy -167172.219578 kJ/mol
# GULP energy per Si atom -5572.407319 kJ/mol
# Density = 2.177909 g / cm^3
# Si number density = 21.828778 Si / 1000 Ang^3
#
#
#
# Elastic Constant Matrix: (Units=GPa)
#
#
# Indices 1 2 3 4 5 6 
#
# 1 71.3582 3.5489 -1.8603 0.0000 -2.4682 0.0000
# 2 3.5489 68.6987 -2.0656 0.0000 -5.7037 0.0000
# 3 -1.8603 -2.0656 30.1839 0.0000 2.9139 0.0000
# 4 0.0000 0.0000 0.0000 14.5920 0.0000 2.8289
# 5 -2.4682 -5.7037 2.9139 0.0000 33.3163 0.0000
# 6 0.0000 0.0000 0.0000 2.8289 0.0000 25.5164
#
#
#
# Elastic Compliance Matrix: (Units=1/GPa)
#
#
# Indices 1 2 3 4 5 6 
#
# 1 0.014095 -0.000634 0.000741 0.000000 0.000871 0.000000
# 2 -0.000634 0.014813 0.000741 0.000000 0.002424 0.000000
# 3 0.000741 0.000741 0.033492 0.000000 -0.002748 0.000000
# 4 0.000000 0.000000 0.000000 0.070036 0.000000 -0.007765
# 5 0.000871 0.002424 -0.002748 0.000000 0.030735 0.000000
# 6 0.000000 0.000000 0.000000 -0.007765 0.000000 0.040051
#
#
# Mechanical properties :
#
#
# Convention : Reuss Voigt Hill
#
# Bulk Modulus (GPa) = 15.60160 18.83185 17.21673
# Shear Modulus (GPa) = 22.43257 26.05948 24.24602
#
# Velocity S-wave (km/s) = 3.20919 3.45891 3.33639
# Velocity P-wave (km/s) = 4.57107 4.95962 4.76930
#
# Compressibility (1/GPa) = 0.06409597
#
# Stress axis : x y z
#
# Youngs Moduli (GPa) = 70.94834 67.51021 29.85798
#
# Poissons Ratio (x) = 0.04277 -0.02213
# Poissons Ratio (y) = 0.04495 -0.02211
# Poissons Ratio (z) = -0.05259 -0.05000
#
# Static dielectric constant tensor:
#      x y z
#    x 1.873520 0.000000 -0.023280 
#    y 0.000000 1.813620 0.000000 
#    z -0.023280 0.000000 1.883580 
# 
# From -- ./inp_files/197895.got.cif
#   From: 2010.05.17/outbox.cif.g08.bks.cpg/sg15_99_cif.got.tgz:197895.got - 2010.06.03 18:47:42.
