data_PCOD9279214
_publ_section_title
;
Structure prediction by ZEFSAII (Michael W. Deem and Ramdas Pophale) SiO2 
 PCOD9279214
Probable space group: C 2/C
;
_chemical_formula_sum "Si O2"
_cell_formula_units_Z 48
_cell_length_a 5.248207
_cell_length_b 30.180928
_cell_length_c 14.665204
_cell_angle_alpha 90.000000
_cell_angle_beta 86.244354
_cell_angle_gamma 90.000000
_cell_volume 2317.917595
_symmetry_space_group_name_H-M "C 2/C"
_symmetry_group_IT_number 15
_symmetry_cell_setting 'monoclinic'
loop_
_space_group_symop_operation_xyz
x,y,z
-x,y,1/2-z
-x,-y,-z
x,-y,1/2+z
1/2+x,1/2+y,z
1/2-x,1/2+y,1/2-z
1/2-x,1/2-y,-z
1/2+x,1/2-y,1/2+z
loop_
_atom_site_type_symbol
_atom_site_label
_atom_site_fract_x
_atom_site_fract_y
_atom_site_fract_z
Si Si1 0.737727 0.213064 0.857347
Si Si2 0.254085 0.247598 0.151486
Si Si3 0.131087 0.459189 0.548316
Si Si4 0.611483 0.444066 0.652337
Si Si5 0.607213 0.655297 0.092179
Si Si6 0.868049 0.638921 0.520252
O O1 0.474865 0.232267 0.900338
O O2 0.746920 0.228450 0.751120
O O3 0.719064 0.161434 0.882713
O O4 0.977556 0.237723 0.894122
O O5 0.194302 0.195696 0.154486
O O6 0.415422 0.464653 0.582283
O O7 0.148595 0.414296 0.487305
O O8 0.000000 0.500000 0.500000
O O9 0.912955 0.451014 0.630345
O O10 0.500000 0.459998 0.750000
O O11 0.582257 0.391046 0.644858
O O12 0.335353 0.659650 0.047331
O O13 0.841184 0.649821 0.015093
#
# Coordination Sequence:
#
# PCOD9279214 Si02
#       6
#     8   8   8   8   8   8
#     4  10  21  35  52  76 111 150 197 232 283 334
#     4  10  21  35  52  76 112 157 193 231 281 334
#     4  10  21  40  64  89 117 155 192 247 305 362
#     4  10  21  37  62  91 124 149 189 246 301 357
#     4  10  21  35  55  85 112 152 190 236 290 333
#     4  10  21  37  57  83 111 148 193 241 289 344
#
# _framework density 20.708243
#
# number of rings (size 3 to 8) (size 9 to 14) (size 15 to 20)
#    0.000    2.000    0.000    3.000    2.333    4.000 
#    6.000    0.000   11.000    0.000    0.000    0.000 
#    0.000    0.000    0.000    0.000    0.000    0.000 
#
# Total GULP energy -133659.232909 kJ/mol
# GULP energy per Si atom -5569.134705 kJ/mol
# Density = 2.066111 g / cm^3
# Si number density = 20.708243 Si / 1000 Ang^3
#
#
#
# Elastic Constant Matrix: (Units=GPa)
#
#
# Indices 1 2 3 4 5 6 
#
# 1 151.4370 17.9529 -4.5915 0.0000 12.3558 0.0000
# 2 17.9529 90.0705 45.6391 0.0000 3.2396 0.0000
# 3 -4.5915 45.6391 60.6955 0.0000 -1.1293 0.0000
# 4 0.0000 0.0000 0.0000 14.3166 0.0000 5.0532
# 5 12.3558 3.2396 -1.1293 0.0000 1.5702 0.0000
# 6 0.0000 0.0000 0.0000 5.0532 0.0000 36.7446
#
#
#
# Elastic Compliance Matrix: (Units=1/GPa)
#
#
# Indices 1 2 3 4 5 6 
#
# 1 0.019524 0.004768 -0.005220 0.000000 -0.167231 0.000000
# 2 0.004768 0.023406 -0.019091 0.000000 -0.099542 0.000000
# 3 -0.005220 -0.019091 0.032366 0.000000 0.103741 0.000000
# 4 0.000000 0.000000 0.000000 0.073412 0.000000 -0.010096
# 5 -0.167231 -0.099542 0.103741 0.000000 2.232815 0.000000
# 6 0.000000 0.000000 0.000000 -0.010096 0.000000 0.028603
#
#
# Mechanical properties :
#
#
# Convention : Reuss Voigt Hill
#
# Bulk Modulus (GPa) = 27.61584 46.68936 37.15260
# Shear Modulus (GPa) = 2.03146 26.73977 14.38562
#
# Velocity S-wave (km/s) = 0.99152 3.59731 2.63854
# Velocity P-wave (km/s) = 3.83086 6.31264 5.22134
#
# Compressibility (1/GPa) = 0.03621110
#
# Stress axis : x y z
#
# Youngs Moduli (GPa) = 51.21813 42.72449 30.89649
#
# Poissons Ratio (x) = -0.20372 0.16127
# Poissons Ratio (y) = -0.24421 0.58984
# Poissons Ratio (z) = 0.26735 0.81565
#
# Static dielectric constant tensor:
#      x y z
#    x 1.877400 0.000000 -0.026070 
#    y 0.000000 1.768070 0.000000 
#    z -0.026070 0.000000 1.772530 
# 
# From -- ./inp_files/130408.got.cif
#   From: 2010.05.17/outbox.cif.g08.bks.cpg/sg15_66_cif.got.tgz:130408.got - 2010.06.03 18:47:42.
