data_PCOD9279932
_publ_section_title
;
Structure prediction by ZEFSAII (Michael W. Deem and Ramdas Pophale) SiO2 
 PCOD9279932
Probable space group: C 2/C
;
_chemical_formula_sum "Si O2"
_cell_formula_units_Z 64
_cell_length_a 32.709266
_cell_length_b 20.685586
_cell_length_c 15.036074
_cell_angle_alpha 90.000000
_cell_angle_beta 161.815331
_cell_angle_gamma 90.000000
_cell_volume 3174.972857
_symmetry_space_group_name_H-M "C 2/C"
_symmetry_group_IT_number 15
_symmetry_cell_setting 'monoclinic'
loop_
_space_group_symop_operation_xyz
x,y,z
-x,y,1/2-z
-x,-y,-z
x,-y,1/2+z
1/2+x,1/2+y,z
1/2-x,1/2+y,1/2-z
1/2-x,1/2-y,-z
1/2+x,1/2-y,1/2+z
loop_
_atom_site_type_symbol
_atom_site_label
_atom_site_fract_x
_atom_site_fract_y
_atom_site_fract_z
Si Si1 0.997259 0.183603 0.518667
Si Si2 0.315948 0.344895 0.805163
Si Si3 0.222245 0.496748 0.260793
Si Si4 0.786996 0.985748 0.707017
Si Si5 0.980678 0.053002 0.381765
Si Si6 0.243898 0.648064 0.351522
Si Si7 0.092212 0.555830 0.654968
Si Si8 0.969620 0.320528 0.368991
O O1 0.912893 0.187402 0.435229
O O2 0.973962 0.249478 0.418412
O O3 0.953395 0.121973 0.369413
O O4 0.149160 0.168714 0.854754
O O5 0.358010 0.420668 0.888522
O O6 0.305445 0.326317 0.886235
O O7 0.166339 0.335127 0.462733
O O8 0.192707 0.498108 0.094858
O O9 0.365294 0.467715 0.577338
O O10 0.228276 0.570527 0.308798
O O11 0.124875 0.455610 0.120282
O O12 0.721047 0.960499 0.480255
O O13 0.881704 0.045363 0.884664
O O14 0.000000 0.000000 0.500000
O O15 0.098461 0.671548 0.074727
O O16 0.032879 0.624524 0.559432
O O17 0.000000 0.500000 0.500000
#
# Coordination Sequence:
#
# PCOD9279932 Si02
#       8
#     8   8   8   8   8   8   8   8
#     4  12  23  39  64  89 123 166 203 246 310 375
#     4  10  21  39  63  89 118 159 210 253 297 366
#     4  11  21  37  64  93 119 157 204 260 306 357
#     4  10  21  36  61  94 118 153 206 256 303 358
#     4  12  19  37  62  90 123 153 199 250 309 356
#     4  11  21  39  64  91 118 156 211 257 300 364
#     4  11  21  39  62  84 122 159 200 247 303 361
#     4  11  24  40  61  91 122 164 203 244 310 374
#
# _framework density 20.157653
#
# number of rings (size 3 to 8) (size 9 to 14) (size 15 to 20)
#    0.000    1.000    5.000    2.625    0.000    2.500 
#    0.000    3.750    2.750    0.000    0.000    0.000 
#    0.000    0.000    0.000    0.000    0.000    0.000 
#
# Total GULP energy -178616.454083 kJ/mol
# GULP energy per Si atom -5581.764190 kJ/mol
# Density = 2.011177 g / cm^3
# Si number density = 20.157653 Si / 1000 Ang^3
#
#
#
# Elastic Constant Matrix: (Units=GPa)
#
#
# Indices 1 2 3 4 5 6 
#
# 1 95.3657 38.6471 6.3332 0.0000 13.7000 0.0000
# 2 38.6471 118.9742 15.0348 0.0000 4.4112 0.0000
# 3 6.3332 15.0348 73.2189 0.0000 11.0119 0.0000
# 4 0.0000 0.0000 0.0000 13.7519 0.0000 -0.5870
# 5 13.7000 4.4112 11.0119 0.0000 23.6411 0.0000
# 6 0.0000 0.0000 0.0000 -0.5870 0.0000 17.6933
#
#
#
# Elastic Compliance Matrix: (Units=1/GPa)
#
#
# Indices 1 2 3 4 5 6 
#
# 1 0.013130 -0.004098 0.000790 0.000000 -0.007213 0.000000
# 2 -0.004098 0.009924 -0.001895 0.000000 0.001405 0.000000
# 3 0.000790 -0.001895 0.015048 0.000000 -0.007114 0.000000
# 4 0.000000 0.000000 0.000000 0.072820 0.000000 0.002416
# 5 -0.007213 0.001405 -0.007114 0.000000 0.049530 0.000000
# 6 0.000000 0.000000 0.000000 0.002416 0.000000 0.056599
#
#
# Mechanical properties :
#
#
# Convention : Reuss Voigt Hill
#
# Bulk Modulus (GPa) = 36.10331 45.28768 40.69549
# Shear Modulus (GPa) = 21.12488 26.18684 23.65586
#
# Velocity S-wave (km/s) = 3.24077 3.60822 3.42942
# Velocity P-wave (km/s) = 5.65268 6.31462 5.99280
#
# Compressibility (1/GPa) = 0.02769829
#
# Stress axis : x y z
#
# Youngs Moduli (GPa) = 76.16057 100.77035 66.45284
#
# Poissons Ratio (x) = 0.41292 -0.05253
# Poissons Ratio (y) = 0.31208 0.12590
# Poissons Ratio (z) = -0.06020 0.19092
#
# Static dielectric constant tensor:
#      x y z
#    x 1.781520 0.000000 0.006970 
#    y 0.000000 1.695170 0.000000 
#    z 0.006970 0.000000 1.808740 
# 
# From -- ./inp_files/183160.got.cif
#   From: 2010.05.17/outbox.cif.g08.bks.cpg/sg15_92_cif.got.tgz:183160.got - 2010.06.03 18:47:42.
