data_PCOD9279649
_publ_section_title
;
Structure prediction by ZEFSAII (Michael W. Deem and Ramdas Pophale) SiO2 
 PCOD9279649
Probable space group: C 2/C
;
_chemical_formula_sum "Si O2"
_cell_formula_units_Z 60
_cell_length_a 10.863872
_cell_length_b 30.176539
_cell_length_c 9.166225
_cell_angle_alpha 90.000000
_cell_angle_beta 88.314045
_cell_angle_gamma 90.000000
_cell_volume 3003.699872
_symmetry_space_group_name_H-M "C 2/C"
_symmetry_group_IT_number 15
_symmetry_cell_setting 'monoclinic'
loop_
_space_group_symop_operation_xyz
x,y,z
-x,y,1/2-z
-x,-y,-z
x,-y,1/2+z
1/2+x,1/2+y,z
1/2-x,1/2+y,1/2-z
1/2-x,1/2-y,-z
1/2+x,1/2-y,1/2+z
loop_
_atom_site_type_symbol
_atom_site_label
_atom_site_fract_x
_atom_site_fract_y
_atom_site_fract_z
Si Si1 0.847174 0.449969 0.015591
Si Si2 0.000000 0.494882 0.750000
Si Si3 0.753892 0.288037 0.280948
Si Si4 0.387645 0.717586 0.425417
Si Si5 0.449531 0.458325 0.414974
Si Si6 0.211800 0.351337 0.464283
Si Si7 0.928457 0.271756 0.884443
Si Si8 0.024286 0.125102 0.407781
O O1 0.699378 0.456781 0.050691
O O2 0.863381 0.396776 0.022042
O O3 0.919868 0.475221 0.141671
O O4 0.905513 0.467470 0.859713
O O5 0.719029 0.292576 0.451762
O O6 0.844713 0.245363 0.286044
O O7 0.782287 0.334532 0.204107
O O8 0.642122 0.268782 0.189456
O O9 0.480242 0.750372 0.503946
O O10 0.446758 0.670045 0.401007
O O11 0.500000 0.462445 0.250000
O O12 0.500000 0.500000 0.500000
O O13 0.507129 0.412585 0.474685
O O14 0.155407 0.307953 0.539659
O O15 0.339350 0.360541 0.544987
O O16 0.000000 0.294792 0.750000
O O17 0.000000 0.103934 0.250000
#
# Coordination Sequence:
#
# PCOD9279649 Si02
#       8
#     8   4   8   8   8   8   8   8
#     4  10  24  42  71  98 127 179 216 274 346 391
#     4  10  22  48  68  94 136 166 226 276 330 418
#     4  10  21  38  56  88 124 161 218 258 313 399
#     4  10  22  36  59  85 123 172 206 260 329 373
#     4  11  24  43  71 102 138 169 216 282 346 412
#     4  11  23  38  64  90 124 165 222 267 325 391
#     4  10  21  36  56  81 121 163 204 264 317 371
#     4  11  24  38  62  93 126 169 218 261 331 399
#
# _framework density 19.975366000000001
#
# number of rings (size 3 to 8) (size 9 to 14) (size 15 to 20)
#    0.000    1.600    1.333    2.400    6.533    2.133 
#    0.000    0.000    0.000    0.000    0.000    0.000 
#    0.000    0.000    0.000    0.000    0.000    0.000 
#
# Total GULP energy -167192.545361 kJ/mol
# GULP energy per Si atom -5573.084845 kJ/mol
# Density = 1.992990 g / cm^3
# Si number density = 19.975366 Si / 1000 Ang^3
#
#
#
# Elastic Constant Matrix: (Units=GPa)
#
#
# Indices 1 2 3 4 5 6 
#
# 1 54.8243 22.8956 30.2735 0.0000 -1.8179 0.0000
# 2 22.8956 93.5773 35.4327 0.0000 -3.1704 0.0000
# 3 30.2735 35.4327 126.7480 0.0000 -10.7047 0.0000
# 4 0.0000 0.0000 0.0000 31.8295 0.0000 -5.9591
# 5 -1.8179 -3.1704 -10.7047 0.0000 33.9888 0.0000
# 6 0.0000 0.0000 0.0000 -5.9591 0.0000 20.5503
#
#
#
# Elastic Compliance Matrix: (Units=1/GPa)
#
#
# Indices 1 2 3 4 5 6 
#
# 1 0.022180 -0.003827 -0.004271 0.000000 -0.000516 0.000000
# 2 -0.003827 0.012612 -0.002599 0.000000 0.000153 0.000000
# 3 -0.004271 -0.002599 0.009859 0.000000 0.002634 0.000000
# 4 0.000000 0.000000 0.000000 0.033221 0.000000 0.009633
# 5 -0.000516 0.000153 0.002634 0.000000 0.030238 0.000000
# 6 0.000000 0.000000 0.000000 0.009633 0.000000 0.051455
#
#
# Mechanical properties :
#
#
# Convention : Reuss Voigt Hill
#
# Bulk Modulus (GPa) = 42.99857 50.26147 46.63002
# Shear Modulus (GPa) = 26.49571 29.71023 28.10297
#
# Velocity S-wave (km/s) = 3.64596 3.86079 3.75491
# Velocity P-wave (km/s) = 6.26869 6.71496 6.49566
#
# Compressibility (1/GPa) = 0.02325659
#
# Stress axis : x y z
#
# Youngs Moduli (GPa) = 45.08620 79.29049 101.43201
#
# Poissons Ratio (x) = 0.30343 0.43325
# Poissons Ratio (y) = 0.17254 0.26359
# Poissons Ratio (z) = 0.19258 0.20605
#
# Static dielectric constant tensor:
#      x y z
#    x 1.786810 0.000000 -0.095940 
#    y 0.000000 1.690810 0.000000 
#    z -0.095940 0.000000 1.775250 
# 
# From -- ./inp_files/35226.got.cif
#   From: 2010.05.17/outbox.cif.g08.bks.cpg/sg15_18_cif.got.tgz:35226.got - 2010.06.03 18:47:42.
