data_PCOD9279845
_publ_section_title
;
Structure prediction by ZEFSAII (Michael W. Deem and Ramdas Pophale) SiO2 
 PCOD9279845
Probable space group: C 2/C
;
_chemical_formula_sum "Si O2"
_cell_formula_units_Z 48
_cell_length_a 17.685090
_cell_length_b 17.419436
_cell_length_c 14.863111
_cell_angle_alpha 90.000000
_cell_angle_beta 144.098421
_cell_angle_gamma 90.000000
_cell_volume 2684.980319
_symmetry_space_group_name_H-M "C 2/C"
_symmetry_group_IT_number 15
_symmetry_cell_setting 'monoclinic'
loop_
_space_group_symop_operation_xyz
x,y,z
-x,y,1/2-z
-x,-y,-z
x,-y,1/2+z
1/2+x,1/2+y,z
1/2-x,1/2+y,1/2-z
1/2-x,1/2-y,-z
1/2+x,1/2-y,1/2+z
loop_
_atom_site_type_symbol
_atom_site_label
_atom_site_fract_x
_atom_site_fract_y
_atom_site_fract_z
Si Si1 0.000000 0.277740 0.750000
Si Si2 0.421353 0.276859 0.984089
Si Si3 0.262638 0.865352 0.583601
Si Si4 0.127388 0.603055 0.613743
Si Si5 0.068068 0.929990 0.115117
Si Si6 0.046555 0.494010 0.692052
Si Si7 0.500000 0.415345 0.250000
O O1 0.128596 0.327522 0.871893
O O2 0.998035 0.238353 0.651342
O O3 0.281694 0.310758 0.877823
O O4 0.402444 0.194256 0.920320
O O5 0.497925 0.349844 0.018539
O O6 0.135360 0.874568 0.402346
O O7 0.321301 0.944939 0.673874
O O8 0.279261 0.582949 0.751462
O O9 0.072852 0.567075 0.654117
O O10 0.052905 0.559956 0.459802
O O11 0.034904 0.950278 0.187287
O O12 0.000000 0.000000 0.000000
O O13 0.000000 0.508561 0.750000
#
# Coordination Sequence:
#
# PCOD9279845 Si02
#       7
#     4   8   8   8   8   8   4
#     4  12  19  32  56  86 121 148 190 245 316 366
#     4  11  21  34  57  88 123 151 197 248 309 366
#     4  11  20  35  56  88 118 155 188 249 305 367
#     4  11  23  37  61  90 120 161 201 251 306 364
#     4  11  23  40  59  89 122 161 201 247 307 368
#     4  11  22  40  61  88 120 158 205 251 303 361
#     4  10  21  36  60  84 121 154 192 243 306 356
#
# _framework density 17.877224999999999
#
# number of rings (size 3 to 8) (size 9 to 14) (size 15 to 20)
#    0.000    1.000    2.500    7.500    0.000    0.000 
#    0.000    0.000    1.833    1.000    0.000    0.000 
#    0.000    0.000    0.000    0.000    0.000    0.000 
#
# Total GULP energy -133696.726402 kJ/mol
# GULP energy per Si atom -5570.696933 kJ/mol
# Density = 1.783654 g / cm^3
# Si number density = 17.877225 Si / 1000 Ang^3
#
#
#
# Elastic Constant Matrix: (Units=GPa)
#
#
# Indices 1 2 3 4 5 6 
#
# 1 113.2420 65.3205 48.3656 0.0000 -4.1065 0.0000
# 2 65.3205 152.0086 63.8370 0.0000 -8.8365 0.0000
# 3 48.3656 63.8370 107.9173 0.0000 15.4423 0.0000
# 4 0.0000 0.0000 0.0000 -4.5226 0.0000 35.2659
# 5 -4.1065 -8.8365 15.4423 0.0000 36.1599 0.0000
# 6 0.0000 0.0000 0.0000 35.2659 0.0000 -16.5955
#
#
#
# Elastic Compliance Matrix: (Units=1/GPa)
#
#
# Indices 1 2 3 4 5 6 
#
# 1 0.012677 -0.003737 -0.003777 0.000000 0.002139 0.000000
# 2 -0.003737 0.010650 -0.005258 0.000000 0.004423 0.000000
# 3 -0.003777 -0.005258 0.015246 0.000000 -0.008225 0.000000
# 4 0.000000 0.000000 0.000000 0.014201 0.000000 0.030177
# 5 0.002139 0.004423 -0.008225 0.000000 0.032491 0.000000
# 6 0.000000 0.000000 0.000000 0.030177 0.000000 0.003870
#
#
# Mechanical properties :
#
#
# Convention : Reuss Voigt Hill
#
# Bulk Modulus (GPa) = 76.75089 80.91270 78.83180
# Shear Modulus (GPa) = 42.00913 16.05134 29.03024
#
# Velocity S-wave (km/s) = 4.85280 2.99969 4.03410
# Velocity P-wave (km/s) = 8.62699 7.57337 8.11730
#
# Compressibility (1/GPa) = 0.01302916
#
# Stress axis : x y z
#
# Youngs Moduli (GPa) = 78.88335 93.90052 65.58987
#
# Poissons Ratio (x) = 0.35090 0.24774
# Poissons Ratio (y) = 0.29478 0.34486
# Poissons Ratio (z) = 0.29795 0.49371
#
# Static dielectric constant tensor:
#      x y z
#    x 1.633830 0.000000 0.013040 
#    y 0.000000 1.711490 0.000000 
#    z 0.013040 0.000000 1.612200 
# 
# From -- ./inp_files/162394.got.cif
#   From: 2010.05.17/outbox.cif.g08.bks.cpg/sg15_82_cif.got.tgz:162394.got - 2010.06.03 18:47:42.
