data_PCOD9279920
_publ_section_title
;
Structure prediction by ZEFSAII (Michael W. Deem and Ramdas Pophale) SiO2 
 PCOD9279920
Probable space group: C 2/C
;
_chemical_formula_sum "Si O2"
_cell_formula_units_Z 52
_cell_length_a 9.680050
_cell_length_b 20.585466
_cell_length_c 15.990165
_cell_angle_alpha 90.000000
_cell_angle_beta 144.242513
_cell_angle_gamma 90.000000
_cell_volume 1861.952260
_symmetry_space_group_name_H-M "C 2/C"
_symmetry_group_IT_number 15
_symmetry_cell_setting 'monoclinic'
loop_
_space_group_symop_operation_xyz
x,y,z
-x,y,1/2-z
-x,-y,-z
x,-y,1/2+z
1/2+x,1/2+y,z
1/2-x,1/2+y,1/2-z
1/2-x,1/2-y,-z
1/2+x,1/2-y,1/2+z
loop_
_atom_site_type_symbol
_atom_site_label
_atom_site_fract_x
_atom_site_fract_y
_atom_site_fract_z
Si Si1 0.227399 0.663454 0.021576
Si Si2 0.205698 0.901026 0.553309
Si Si3 0.396928 0.100825 0.983476
Si Si4 0.626013 0.283401 0.636869
Si Si5 0.000000 0.003676 0.250000
Si Si6 0.000000 0.398195 0.250000
Si Si7 0.312167 0.489738 0.315823
Si Si8 0.500000 0.705577 0.750000
O O1 0.162821 0.645850 0.891372
O O2 0.122300 0.611949 0.036041
O O3 0.071491 0.726901 0.970010
O O4 0.505880 0.679024 0.154880
O O5 0.426838 0.903384 0.598561
O O6 0.166814 0.833844 0.581045
O O7 0.976492 0.923981 0.389142
O O8 0.197852 0.961527 0.611758
O O9 0.242822 0.038964 0.878727
O O10 0.214495 0.161010 0.885698
O O11 0.879898 0.247877 0.764916
O O12 0.936950 0.033698 0.307160
O O13 0.922762 0.449116 0.284350
#
# Coordination Sequence:
#
# PCOD9279920 Si02
#       8
#     8   8   8   8   4   4   8   4
#     4  10  21  36  61  91 124 164 214 271 326 381
#     4  10  21  38  59  90 125 161 217 264 322 378
#     4   9  18  36  61  89 119 164 211 259 318 387
#     4  10  21  38  58  90 126 163 210 271 321 385
#     4   9  16  34  59  87 118 156 217 248 306 382
#     4  12  20  39  63  91 123 170 220 262 328 400
#     4  10  21  36  62  90 121 170 211 270 312 384
#     4   9  20  33  60  88 121 174 215 256 318 386
#
# _framework density 27.927676000000002
#
# number of rings (size 3 to 8) (size 9 to 14) (size 15 to 20)
#    0.000    2.154    3.077    0.000    2.154    3.077 
#    0.000    6.154    0.000    0.000    0.000    0.000 
#    0.000    0.000    0.000    0.000    0.000    0.000 
#
# Total GULP energy -144943.985824 kJ/mol
# GULP energy per Si atom -5574.768686 kJ/mol
# Density = 2.786411 g / cm^3
# Si number density = 27.927676 Si / 1000 Ang^3
#
#
#
# Elastic Constant Matrix: (Units=GPa)
#
#
# Indices 1 2 3 4 5 6 
#
# 1 230.5395 19.6031 39.4632 -0.0009 12.0127 -0.0003
# 2 19.6031 93.7920 15.4831 -0.0031 6.3574 -0.0022
# 3 39.4632 15.4831 36.6877 -0.0124 8.2437 -0.0051
# 4 -0.0009 -0.0031 -0.0124 27.7779 -0.0023 -1.3428
# 5 12.0127 6.3574 8.2437 -0.0023 35.5904 0.0003
# 6 -0.0003 -0.0022 -0.0051 -1.3428 0.0003 37.6552
#
#
#
# Elastic Compliance Matrix: (Units=1/GPa)
#
#
# Indices 1 2 3 4 5 6 
#
# 1 0.005327 -0.000164 -0.005553 -0.000002 -0.000483 -0.000001
# 2 -0.000164 0.011498 -0.004459 -0.000001 -0.000966 0.000000
# 3 -0.005553 -0.004459 0.036406 0.000015 -0.005762 0.000005
# 4 -0.000002 -0.000001 0.000015 0.036062 0.000000 0.001286
# 5 -0.000483 -0.000966 -0.005762 0.000000 0.029767 -0.000001
# 6 -0.000001 0.000000 0.000005 0.001286 -0.000001 0.026603
#
#
# Mechanical properties :
#
#
# Convention : Reuss Voigt Hill
#
# Bulk Modulus (GPa) = 30.41347 56.67977 43.54662
# Shear Modulus (GPa) = 28.25272 39.30269 33.77770
#
# Velocity S-wave (km/s) = 3.18408 3.75547 3.48152
# Velocity P-wave (km/s) = 4.94283 6.25652 5.63806
#
# Compressibility (1/GPa) = 0.03288017
#
# Stress axis : x y z
#
# Youngs Moduli (GPa) = 187.71505 86.97400 27.46792
#
# Poissons Ratio (x) = 0.01427 0.15252
# Poissons Ratio (y) = 0.03080 0.12247
# Poissons Ratio (z) = 1.04229 0.38780
#
# Static dielectric constant tensor:
#      x y z
#    x 2.328320 0.000000 -0.170250 
#    y 0.000000 2.266540 0.000000 
#    z -0.170250 0.000000 2.544200 
# 
# From -- ./inp_files/192648.got.cif
#   From: 2010.05.17/outbox.cif.g08.bks.cpg/sg15_97_cif.got.tgz:192648.got - 2010.06.03 18:47:42.
