data_PCOD9279256
_publ_section_title
;
Structure prediction by ZEFSAII (Michael W. Deem and Ramdas Pophale) SiO2 
 PCOD9279256
Probable space group: C 2/C
;
_chemical_formula_sum "Si O2"
_cell_formula_units_Z 40
_cell_length_a 27.446888
_cell_length_b 11.967188
_cell_length_c 9.372972
_cell_angle_alpha 90.000000
_cell_angle_beta 44.909626
_cell_angle_gamma 90.000000
_cell_volume 2173.508991
_symmetry_space_group_name_H-M "C 2/C"
_symmetry_group_IT_number 15
_symmetry_cell_setting 'monoclinic'
loop_
_space_group_symop_operation_xyz
x,y,z
-x,y,1/2-z
-x,-y,-z
x,-y,1/2+z
1/2+x,1/2+y,z
1/2-x,1/2+y,1/2-z
1/2-x,1/2-y,-z
1/2+x,1/2-y,1/2+z
loop_
_atom_site_type_symbol
_atom_site_label
_atom_site_fract_x
_atom_site_fract_y
_atom_site_fract_z
Si Si1 0.848922 0.878079 0.595232
Si Si2 0.227028 0.580623 0.157767
Si Si3 0.079344 0.032090 0.837477
Si Si4 0.223919 0.328224 0.180408
Si Si5 0.169764 0.191015 0.789724
O O1 0.771631 0.917369 0.711604
O O2 0.896795 0.925728 0.368486
O O3 0.838649 0.744008 0.620724
O O4 0.876178 0.929856 0.686526
O O5 0.205411 0.454146 0.175894
O O6 0.168708 0.675290 0.280198
O O7 0.281225 0.632970 0.931968
O O8 0.097567 0.131943 0.910548
O O9 0.000000 0.000000 0.000000
O O10 0.288750 0.334718 0.153174
O O11 0.250000 0.250000 0.000000
#
# Coordination Sequence:
#
# PCOD9279256 Si02
#       5
#     8   8   8   8   8
#     4  10  21  35  54  87 114 154 202 237 303 356
#     4   9  18  34  54  79 121 147 181 250 299 361
#     4  11  21  38  58  81 119 157 205 253 286 348
#     4  11  20  32  56  85 123 153 190 245 309 372
#     4   9  19  33  52  83 115 151 193 235 307 353
#
# _framework density 18.403420000000001
#
# number of rings (size 3 to 8) (size 9 to 14) (size 15 to 20)
#    0.000    2.000    2.000    4.200    2.800    0.000 
#    0.000    0.000    0.000    1.200    0.000    2.800 
#    0.000    0.000    0.000    0.000    0.000    0.000 
#
# Total GULP energy -111392.390477 kJ/mol
# GULP energy per Si atom -5569.619524 kJ/mol
# Density = 1.836153 g / cm^3
# Si number density = 18.403420 Si / 1000 Ang^3
#
#
#
# Elastic Constant Matrix: (Units=GPa)
#
#
# Indices 1 2 3 4 5 6 
#
# 1 92.6621 48.2282 36.5596 0.0000 -2.5837 0.0000
# 2 48.2282 205.9476 41.9319 0.0000 -9.1872 0.0000
# 3 36.5596 41.9319 60.6845 0.0000 -1.7680 0.0000
# 4 0.0000 0.0000 0.0000 24.3844 0.0000 -0.0350
# 5 -2.5837 -9.1872 -1.7680 0.0000 29.4395 0.0000
# 6 0.0000 0.0000 0.0000 -0.0350 0.0000 34.4931
#
#
#
# Elastic Compliance Matrix: (Units=1/GPa)
#
#
# Indices 1 2 3 4 5 6 
#
# 1 0.014782 -0.001907 -0.007581 0.000000 0.000247 0.000000
# 2 -0.001907 0.005966 -0.002929 0.000000 0.001519 0.000000
# 3 -0.007581 -0.002929 0.023064 0.000000 -0.000194 0.000000
# 4 0.000000 0.000000 0.000000 0.041010 0.000000 0.000042
# 5 0.000247 0.001519 -0.000194 0.000000 0.034452 0.000000
# 6 0.000000 0.000000 0.000000 0.000042 0.000000 0.028991
#
#
# Mechanical properties :
#
#
# Convention : Reuss Voigt Hill
#
# Bulk Modulus (GPa) = 52.69155 68.08151 60.38653
# Shear Modulus (GPa) = 27.86653 33.16837 30.51745
#
# Velocity S-wave (km/s) = 3.89550 4.24995 4.07658
# Velocity P-wave (km/s) = 6.99477 7.82029 7.41902
#
# Compressibility (1/GPa) = 0.01897838
#
# Stress axis : x y z
#
# Youngs Moduli (GPa) = 67.64822 167.60450 43.35732
#
# Poissons Ratio (x) = 0.31966 0.32868
# Poissons Ratio (y) = 0.12902 0.12701
# Poissons Ratio (z) = 0.51282 0.49099
#
# Static dielectric constant tensor:
#      x y z
#    x 1.688410 0.000000 0.062300 
#    y 0.000000 1.722600 0.000000 
#    z 0.062300 0.000000 1.705580 
# 
# From -- ./inp_files/126104.got.cif
#   From: 2010.05.17/outbox.cif.g08.bks.cpg/sg15_64_cif.got.tgz:126104.got - 2010.06.03 18:47:42.
