data_PCOD9279558
_publ_section_title
;
Structure prediction by ZEFSAII (Michael W. Deem and Ramdas Pophale) SiO2 
 PCOD9279558
Probable space group: C 2/C
;
_chemical_formula_sum "Si O2"
_cell_formula_units_Z 40
_cell_length_a 12.226253
_cell_length_b 12.363512
_cell_length_c 10.861580
_cell_angle_alpha 90.000000
_cell_angle_beta 77.154713
_cell_angle_gamma 90.000000
_cell_volume 1600.741648
_symmetry_space_group_name_H-M "C 2/C"
_symmetry_group_IT_number 15
_symmetry_cell_setting 'monoclinic'
loop_
_space_group_symop_operation_xyz
x,y,z
-x,y,1/2-z
-x,-y,-z
x,-y,1/2+z
1/2+x,1/2+y,z
1/2-x,1/2+y,1/2-z
1/2-x,1/2-y,-z
1/2+x,1/2-y,1/2+z
loop_
_atom_site_type_symbol
_atom_site_label
_atom_site_fract_x
_atom_site_fract_y
_atom_site_fract_z
Si Si1 0.906615 0.164115 0.876455
Si Si2 0.202997 0.402999 0.278978
Si Si3 0.619342 0.320810 0.734985
Si Si4 0.150336 0.628214 0.251839
Si Si5 0.383892 0.314205 0.046897
O O1 0.789347 0.103749 0.875435
O O2 0.881263 0.292122 0.852583
O O3 0.984961 0.147974 0.975417
O O4 0.000000 0.133736 0.750000
O O5 0.124927 0.296593 0.296618
O O6 0.121742 0.504414 0.279022
O O7 0.292354 0.384239 0.144873
O O8 0.500000 0.373881 0.750000
O O9 0.715512 0.384397 0.778917
O O10 0.650776 0.304817 0.584254
O O11 0.117602 0.700893 0.377743
#
# Coordination Sequence:
#
# PCOD9279558 Si02
#       5
#     8   8   8   8   8
#     4   7  15  31  52  74 102 135 168 209 258 308
#     4   9  17  33  55  78 103 134 171 215 261 310
#     4  10  21  36  52  76 108 140 175 213 252 305
#     4   9  17  33  55  78 103 134 171 215 261 310
#     4   9  18  37  56  74 104 143 171 208 262 309
#
# _framework density 24.988416999999998
#
# number of rings (size 3 to 8) (size 9 to 14) (size 15 to 20)
#    0.000    4.000    0.000    2.400    0.000    4.800 
#    0.000   16.000    0.000    0.000    0.000    0.000 
#    0.000    0.000    0.000    0.000    0.000    0.000 
#
# Total GULP energy -111374.556588 kJ/mol
# GULP energy per Si atom -5568.727829 kJ/mol
# Density = 2.493154 g / cm^3
# Si number density = 24.988417 Si / 1000 Ang^3
#
#
#
# Elastic Constant Matrix: (Units=GPa)
#
#
# Indices 1 2 3 4 5 6 
#
# 1 152.7915 -6.6714 -0.1844 0.0000 13.1336 0.0000
# 2 -6.6714 119.3490 0.1619 0.0000 8.5525 0.0000
# 3 -0.1844 0.1619 31.3350 0.0000 -4.8026 0.0000
# 4 0.0000 0.0000 0.0000 -2.4985 0.0000 1.5465
# 5 13.1336 8.5525 -4.8026 0.0000 26.2527 0.0000
# 6 0.0000 0.0000 0.0000 1.5465 0.0000 -8.6902
#
#
#
# Elastic Compliance Matrix: (Units=1/GPa)
#
#
# Indices 1 2 3 4 5 6 
#
# 1 0.006896 0.000656 -0.000539 0.000000 -0.003762 0.000000
# 2 0.000656 0.008649 -0.000538 0.000000 -0.003244 0.000000
# 3 -0.000539 -0.000538 0.032904 0.000000 0.006464 0.000000
# 4 0.000000 0.000000 0.000000 -0.449784 0.000000 -0.080043
# 5 -0.003762 -0.003244 0.006464 0.000000 0.042213 0.000000
# 6 0.000000 0.000000 0.000000 -0.080043 0.000000 -0.129316
#
#
# Mechanical properties :
#
#
# Convention : Reuss Voigt Hill
#
# Bulk Modulus (GPa) = 21.00609 32.23194 26.61902
# Shear Modulus (GPa) = -10.59935 23.69076 6.54571
#
# Velocity S-wave (km/s) = -2.06177 3.08241 1.62024
# Velocity P-wave (km/s) = 1.66033 5.05916 3.76509
#
# Compressibility (1/GPa) = 0.04760525
#
# Stress axis : x y z
#
# Youngs Moduli (GPa) = 145.00622 115.62511 30.39180
#
# Poissons Ratio (x) = -0.07583 0.01639
# Poissons Ratio (y) = -0.09510 0.01635
# Poissons Ratio (z) = 0.07822 0.06221
#
# Static dielectric constant tensor:
#      x y z
#    x 2.089160 0.000000 0.003990 
#    y 0.000000 2.022240 0.000000 
#    z 0.003990 0.000000 2.041170 
# 
# From -- ./inp_files/142874.got.cif
#   From: 2010.05.17/outbox.cif.g08.bks.cpg/sg15_72_cif.got.tgz:142874.got - 2010.06.03 18:47:42.
