data_PCOD9279910
_publ_section_title
;
Structure prediction by ZEFSAII (Michael W. Deem and Ramdas Pophale) SiO2 
 PCOD9279910
Probable space group: C 2/C
;
_chemical_formula_sum "Si O2"
_cell_formula_units_Z 52
_cell_length_a 25.133263
_cell_length_b 14.237457
_cell_length_c 8.199785
_cell_angle_alpha 90.000000
_cell_angle_beta 125.858703
_cell_angle_gamma 90.000000
_cell_volume 2378.031111
_symmetry_space_group_name_H-M "C 2/C"
_symmetry_group_IT_number 15
_symmetry_cell_setting 'monoclinic'
loop_
_space_group_symop_operation_xyz
x,y,z
-x,y,1/2-z
-x,-y,-z
x,-y,1/2+z
1/2+x,1/2+y,z
1/2-x,1/2+y,1/2-z
1/2-x,1/2-y,-z
1/2+x,1/2-y,1/2+z
loop_
_atom_site_type_symbol
_atom_site_label
_atom_site_fract_x
_atom_site_fract_y
_atom_site_fract_z
Si Si1 0.000000 0.230726 0.250000
Si Si2 0.127268 0.918269 0.397928
Si Si3 0.881887 0.255296 0.824943
Si Si4 0.922375 0.608092 0.117105
Si Si5 0.849329 0.454864 0.184821
Si Si6 0.557942 0.577212 0.112112
Si Si7 0.723835 0.117947 0.241935
O O1 0.060184 0.283495 0.445720
O O2 0.032837 0.165318 0.170021
O O3 0.113095 0.852889 0.215894
O O4 0.080245 0.900732 0.468486
O O5 0.199865 0.891813 0.586769
O O6 0.115890 0.024343 0.315673
O O7 0.894110 0.310845 0.680165
O O8 0.811368 0.286104 0.765909
O O9 0.900661 0.510303 0.162528
O O10 0.000000 0.615453 0.250000
O O11 0.888981 0.609315 0.880956
O O12 0.811166 0.535250 0.216813
O O13 0.797358 0.400612 0.981177
O O14 0.500000 0.500000 0.000000
#
# Coordination Sequence:
#
# PCOD9279910 Si02
#       7
#     4   8   8   8   8   8   8
#     4  12  26  44  64  96 138 166 220 274 334 388
#     4  12  23  42  68  94 129 170 216 270 328 393
#     4  11  26  39  62  94 134 173 210 271 327 390
#     4  10  21  36  61  89 121 166 208 261 320 370
#     4   9  20  40  62  88 125 165 219 259 301 387
#     4  12  23  42  69  98 124 170 222 275 332 385
#     4  10  22  42  63  96 131 174 216 264 322 386
#
# _framework density 21.86683
#
# number of rings (size 3 to 8) (size 9 to 14) (size 15 to 20)
#    0.000    1.231    3.077    1.846    4.308    0.000 
#    2.769    6.154    0.000    0.000    0.000    0.000 
#    0.000    0.000    0.000    0.000    0.000    0.000 
#
# Total GULP energy -145445.389940 kJ/mol
# GULP energy per Si atom -5594.053459 kJ/mol
# Density = 2.181706 g / cm^3
# Si number density = 21.866830 Si / 1000 Ang^3
#
#
#
# Elastic Constant Matrix: (Units=GPa)
#
#
# Indices 1 2 3 4 5 6 
#
# 1 77.8763 4.4054 24.5453 0.0000 10.1167 0.0000
# 2 4.4054 30.6987 -0.3617 0.0000 1.1682 0.0000
# 3 24.5453 -0.3617 121.4341 0.0000 8.7477 0.0000
# 4 0.0000 0.0000 0.0000 104.1529 0.0000 -9.7497
# 5 10.1167 1.1682 8.7477 0.0000 39.7343 0.0000
# 6 0.0000 0.0000 0.0000 -9.7497 0.0000 27.9413
#
#
#
# Elastic Compliance Matrix: (Units=1/GPa)
#
#
# Indices 1 2 3 4 5 6 
#
# 1 0.014174 -0.001952 -0.002657 0.000000 -0.002967 0.000000
# 2 -0.001952 0.032884 0.000535 0.000000 -0.000587 0.000000
# 3 -0.002657 0.000535 0.008867 0.000000 -0.001291 0.000000
# 4 0.000000 0.000000 0.000000 0.009925 0.000000 0.003463
# 5 -0.002967 -0.000587 -0.001291 0.000000 0.026224 0.000000
# 6 0.000000 0.000000 0.000000 0.003463 0.000000 0.036998
#
#
# Mechanical properties :
#
#
# Convention : Reuss Voigt Hill
#
# Bulk Modulus (GPa) = 20.93147 31.90967 26.42057
# Shear Modulus (GPa) = 32.64857 47.79370 40.22114
#
# Velocity S-wave (km/s) = 3.86821 4.68019 4.29344
# Velocity P-wave (km/s) = 5.43542 6.62042 6.05697
#
# Compressibility (1/GPa) = 0.04777495
#
# Stress axis : x y z
#
# Youngs Moduli (GPa) = 70.55079 30.41036 112.78268
#
# Poissons Ratio (x) = 0.05938 0.29968
# Poissons Ratio (y) = 0.13775 -0.06033
# Poissons Ratio (z) = 0.18746 -0.01627
#
# Static dielectric constant tensor:
#      x y z
#    x 1.771030 0.000000 -0.000980 
#    y 0.000000 1.824990 0.000000 
#    z -0.000980 0.000000 1.807570 
# 
# From -- ./inp_files/66120.got.cif
#   From: 2010.05.17/outbox.cif.g08.bks.cpg/sg15_34_cif.got.tgz:66120.got - 2010.06.03 18:47:42.
