data_PCOD9279122
_publ_section_title
;
Structure prediction by ZEFSAII (Michael W. Deem and Ramdas Pophale) SiO2 
 PCOD9279122
Probable space group: C 2/C
;
_chemical_formula_sum "Si O2"
_cell_formula_units_Z 64
_cell_length_a 15.380712
_cell_length_b 27.524528
_cell_length_c 11.450158
_cell_angle_alpha 90.000000
_cell_angle_beta 137.550884
_cell_angle_gamma 90.000000
_cell_volume 3271.672770
_symmetry_space_group_name_H-M "C 2/C"
_symmetry_group_IT_number 15
_symmetry_cell_setting 'monoclinic'
loop_
_space_group_symop_operation_xyz
x,y,z
-x,y,1/2-z
-x,-y,-z
x,-y,1/2+z
1/2+x,1/2+y,z
1/2-x,1/2+y,1/2-z
1/2-x,1/2-y,-z
1/2+x,1/2-y,1/2+z
loop_
_atom_site_type_symbol
_atom_site_label
_atom_site_fract_x
_atom_site_fract_y
_atom_site_fract_z
Si Si1 0.843343 0.891461 0.592734
Si Si2 0.494101 0.811695 0.871764
Si Si3 0.760561 0.856982 0.145510
Si Si4 0.205322 0.847333 0.582853
Si Si5 0.915367 0.770067 0.861396
Si Si6 0.310356 0.703099 0.932469
Si Si7 0.342959 0.551157 0.860370
Si Si8 0.347026 0.558877 0.338041
O O1 0.785772 0.838926 0.503478
O O2 0.805942 0.926870 0.449387
O O3 0.804268 0.914473 0.676685
O O4 0.000000 0.887359 0.750000
O O5 0.500000 0.787643 0.750000
O O6 0.352948 0.832239 0.751071
O O7 0.606379 0.851840 0.981411
O O8 0.533876 0.772742 0.005465
O O9 0.801183 0.823130 0.294982
O O10 0.796861 0.911521 0.215875
O O11 0.819526 0.839943 0.080162
O O12 0.124041 0.815025 0.593800
O O13 0.186277 0.903900 0.592350
O O14 0.792275 0.746834 0.673451
O O15 0.040731 0.782538 0.911132
O O16 0.297523 0.495995 0.800163
O O17 0.498241 0.553563 0.011994
#
# Coordination Sequence:
#
# PCOD9279122 Si02
#       8
#     8   8   8   8   8   8   8   8
#     4   9  18  37  55  78 115 150 184 235 281 337
#     4   9  20  34  52  80 117 152 183 234 286 337
#     4   9  20  35  56  82 117 147 183 235 290 343
#     4  11  21  34  55  87 115 147 190 235 281 342
#     4  11  20  34  56  84 116 150 195 233 283 340
#     4  10  21  35  57  83 114 156 190 236 287 330
#     4   9  19  36  56  86 109 150 179 230 295 339
#     4  10  21  34  58  84 115 144 189 234 284 337
#
# _framework density 19.561858000000001
#
# number of rings (size 3 to 8) (size 9 to 14) (size 15 to 20)
#    0.000    2.250    1.250    2.250    3.500    3.000 
#    0.000    3.125    0.000    6.000    0.000    0.000 
#    0.000    0.000    0.000    0.000    0.000    0.000 
#
# Total GULP energy -178616.977284 kJ/mol
# GULP energy per Si atom -5581.780540 kJ/mol
# Density = 1.951733 g / cm^3
# Si number density = 19.561858 Si / 1000 Ang^3
#
#
#
# Elastic Constant Matrix: (Units=GPa)
#
#
# Indices 1 2 3 4 5 6 
#
# 1 39.2446 24.8313 37.6591 0.0000 0.9973 0.0000
# 2 24.8313 121.3739 40.9060 0.0000 -6.9002 0.0000
# 3 37.6591 40.9060 79.0300 0.0000 -17.7468 0.0000
# 4 0.0000 0.0000 0.0000 22.6044 0.0000 2.6099
# 5 0.9973 -6.9002 -17.7468 0.0000 27.5836 0.0000
# 6 0.0000 0.0000 0.0000 2.6099 0.0000 30.2100
#
#
#
# Elastic Compliance Matrix: (Units=1/GPa)
#
#
# Indices 1 2 3 4 5 6 
#
# 1 0.057749 -0.002555 -0.031336 0.000000 -0.022888 0.000000
# 2 -0.002555 0.010115 -0.004008 0.000000 0.000044 0.000000
# 3 -0.031336 -0.004008 0.034703 0.000000 0.022458 0.000000
# 4 0.000000 0.000000 0.000000 0.044685 0.000000 -0.003860
# 5 -0.022888 0.000044 0.022458 0.000000 0.051541 0.000000
# 6 0.000000 0.000000 0.000000 -0.003860 0.000000 0.033435
#
#
# Mechanical properties :
#
#
# Convention : Reuss Voigt Hill
#
# Bulk Modulus (GPa) = 37.35576 49.60461 43.48019
# Shear Modulus (GPa) = 15.77538 25.16307 20.46923
#
# Velocity S-wave (km/s) = 2.84286 3.59044 3.23830
# Velocity P-wave (km/s) = 5.46932 6.52696 6.02141
#
# Compressibility (1/GPa) = 0.02676963
#
# Stress axis : x y z
#
# Youngs Moduli (GPa) = 17.31625 98.86228 28.81579
#
# Poissons Ratio (x) = 0.25258 0.90296
# Poissons Ratio (y) = 0.04424 0.11550
# Poissons Ratio (z) = 0.54262 0.39627
#
# Static dielectric constant tensor:
#      x y z
#    x 1.701940 0.000000 -0.021950 
#    y 0.000000 1.687260 0.000000 
#    z -0.021950 0.000000 1.706170 
# 
# From -- ./inp_files/101366.got.cif
#   From: 2010.05.17/outbox.cif.g08.bks.cpg/sg15_51_cif.got.tgz:101366.got - 2010.06.03 18:47:42.
