data_PCOD9279268
_publ_section_title
;
Structure prediction by ZEFSAII (Michael W. Deem and Ramdas Pophale) SiO2 
 PCOD9279268
Probable space group: C 2/C
;
_chemical_formula_sum "Si O2"
_cell_formula_units_Z 60
_cell_length_a 18.862097
_cell_length_b 27.400093
_cell_length_c 12.503961
_cell_angle_alpha 90.000000
_cell_angle_beta 149.266099
_cell_angle_gamma 90.000000
_cell_volume 3302.587742
_symmetry_space_group_name_H-M "C 2/C"
_symmetry_group_IT_number 15
_symmetry_cell_setting 'monoclinic'
loop_
_space_group_symop_operation_xyz
x,y,z
-x,y,1/2-z
-x,-y,-z
x,-y,1/2+z
1/2+x,1/2+y,z
1/2-x,1/2+y,1/2-z
1/2-x,1/2-y,-z
1/2+x,1/2-y,1/2+z
loop_
_atom_site_type_symbol
_atom_site_label
_atom_site_fract_x
_atom_site_fract_y
_atom_site_fract_z
Si Si1 0.841377 0.957419 0.571256
Si Si2 0.580236 0.700339 0.041151
Si Si3 0.314146 0.233231 0.196289
Si Si4 0.000000 0.124039 0.750000
Si Si5 0.759212 0.438668 0.502434
Si Si6 0.754047 0.900577 0.253450
Si Si7 0.453594 0.640248 0.309286
Si Si8 0.972573 0.361478 0.837983
O O1 0.768199 0.937791 0.369622
O O2 0.866842 0.909788 0.678617
O O3 0.000000 0.972999 0.750000
O O4 0.760497 0.003886 0.509050
O O5 0.697949 0.732701 0.136919
O O6 0.622600 0.676299 0.208773
O O7 0.443876 0.732132 0.885628
O O8 0.542055 0.658897 0.903602
O O9 0.372386 0.178494 0.258609
O O10 0.250000 0.250000 0.000000
O O11 0.128286 0.090138 0.882397
O O12 0.762182 0.426680 0.380920
O O13 0.894366 0.413537 0.729714
O O14 0.900053 0.872427 0.444509
O O15 0.619014 0.866673 0.086903
O O16 0.500000 0.656953 0.250000
O O17 0.000000 0.346290 0.750000
#
# Coordination Sequence:
#
# PCOD9279268 Si02
#       8
#     8   8   8   4   8   8   8   8
#     4   9  20  36  57  85 111 158 209 249 292 357
#     4  12  23  38  60  91 122 158 196 256 303 370
#     4  12  23  37  59  94 126 152 196 248 319 374
#     4  12  20  32  56  92 122 144 190 240 310 358
#     4  11  19  33  56  88 119 150 198 246 307 365
#     4   9  20  35  56  79 116 160 195 245 306 352
#     4   9  21  41  63  83 116 164 211 251 296 349
#     4  10  21  35  55  84 122 159 191 243 310 375
#
# _framework density 18.167572
#
# number of rings (size 3 to 8) (size 9 to 14) (size 15 to 20)
#    0.000    1.867    4.667    0.800    3.733    3.733 
#    0.000    0.667    0.000    0.000    0.000    0.000 
#    0.000    0.000    0.000    0.000    0.000    0.000 
#
# Total GULP energy -167365.361149 kJ/mol
# GULP energy per Si atom -5578.845372 kJ/mol
# Density = 1.812622 g / cm^3
# Si number density = 18.167572 Si / 1000 Ang^3
#
#
#
# Elastic Constant Matrix: (Units=GPa)
#
#
# Indices 1 2 3 4 5 6 
#
# 1 80.1466 50.4638 16.3532 0.0000 1.5491 0.0000
# 2 50.4638 78.3792 33.2896 0.0000 -3.5913 0.0000
# 3 16.3532 33.2896 57.5236 0.0000 -5.0647 0.0000
# 4 0.0000 0.0000 0.0000 13.8832 0.0000 7.7955
# 5 1.5491 -3.5913 -5.0647 0.0000 19.0586 0.0000
# 6 0.0000 0.0000 0.0000 7.7955 0.0000 30.2421
#
#
#
# Elastic Compliance Matrix: (Units=1/GPa)
#
#
# Indices 1 2 3 4 5 6 
#
# 1 0.021541 -0.014985 0.002197 0.000000 -0.003991 0.000000
# 2 -0.014985 0.027347 -0.011269 0.000000 0.003377 0.000000
# 3 0.002197 -0.011269 0.023631 0.000000 0.003978 0.000000
# 4 0.000000 0.000000 0.000000 0.084220 0.000000 -0.021709
# 5 -0.003991 0.003377 0.003978 0.000000 0.054487 0.000000
# 6 0.000000 0.000000 0.000000 -0.021709 0.000000 0.038663
#
#
# Mechanical properties :
#
#
# Convention : Reuss Voigt Hill
#
# Bulk Modulus (GPa) = 40.97424 46.25142 43.61283
# Shear Modulus (GPa) = 16.33244 20.36630 18.34937
#
# Velocity S-wave (km/s) = 3.00157 3.35180 3.18151
# Velocity P-wave (km/s) = 5.88345 6.36341 6.12813
#
# Compressibility (1/GPa) = 0.02440557
#
# Stress axis : x y z
#
# Youngs Moduli (GPa) = 46.42247 36.56661 42.31674
#
# Poissons Ratio (x) = 0.54795 -0.09296
# Poissons Ratio (y) = 0.69564 0.47686
# Poissons Ratio (z) = -0.10198 0.41206
#
# Static dielectric constant tensor:
#      x y z
#    x 1.634010 0.000000 0.014800 
#    y 0.000000 1.648340 0.000000 
#    z 0.014800 0.000000 1.613970 
# 
# From -- ./inp_files/108460.got.cif
#   From: 2010.05.17/outbox.cif.g08.bks.cpg/sg15_55_cif.got.tgz:108460.got - 2010.06.03 18:47:42.
