data_PCOD9279830
_publ_section_title
;
Structure prediction by ZEFSAII (Michael W. Deem and Ramdas Pophale) SiO2 
 PCOD9279830
Probable space group: C 2/C
;
_chemical_formula_sum "Si O2"
_cell_formula_units_Z 44
_cell_length_a 19.370500
_cell_length_b 6.672715
_cell_length_c 14.637466
_cell_angle_alpha 90.000000
_cell_angle_beta 64.724566
_cell_angle_gamma 90.000000
_cell_volume 1710.824118
_symmetry_space_group_name_H-M "C 2/C"
_symmetry_group_IT_number 15
_symmetry_cell_setting 'monoclinic'
loop_
_space_group_symop_operation_xyz
x,y,z
-x,y,1/2-z
-x,-y,-z
x,-y,1/2+z
1/2+x,1/2+y,z
1/2-x,1/2+y,1/2-z
1/2-x,1/2-y,-z
1/2+x,1/2-y,1/2+z
loop_
_atom_site_type_symbol
_atom_site_label
_atom_site_fract_x
_atom_site_fract_y
_atom_site_fract_z
Si Si1 0.250000 0.750000 0.500000
Si Si2 0.772287 0.958551 0.345841
Si Si3 0.945123 0.430706 0.142041
Si Si4 0.860834 0.826623 0.535522
Si Si5 0.605951 0.008397 0.124641
Si Si6 0.642452 0.724120 0.863021
O O1 0.197589 0.907472 0.590339
O O2 0.183812 0.581523 0.544590
O O3 0.711243 0.115650 0.335682
O O4 0.724223 0.762579 0.400246
O O5 0.837219 0.897618 0.238821
O O6 0.909606 0.267810 0.093506
O O7 0.900051 0.474874 0.263142
O O8 0.933061 0.644629 0.098582
O O9 0.031577 0.402922 0.123848
O O10 0.892947 0.730898 0.423195
O O11 0.855755 0.063485 0.556939
#
# Coordination Sequence:
#
# PCOD9279830 Si02
#       6
#     4   8   8   8   8   8
#     4  10  22  38  66  94 126 170 220 280 336 390
#     4  10  21  36  59  93 123 165 220 271 335 389
#     4  10  23  42  65  92 137 177 225 274 339 403
#     4  10  21  39  65  91 131 175 223 273 337 406
#     4  10  22  42  64  99 134 176 225 283 334 408
#     4  11  21  37  62  89 126 174 215 277 332 393
#
# _framework density 25.718599000000001
#
# number of rings (size 3 to 8) (size 9 to 14) (size 15 to 20)
#    0.000    1.818    1.818    1.636    2.545    2.182 
#    0.000   12.727    0.000    0.000    0.000    0.000 
#    0.000    0.000    0.000    0.000    0.000    0.000 
#
# Total GULP energy -122693.587104 kJ/mol
# GULP energy per Si atom -5576.981232 kJ/mol
# Density = 2.566006 g / cm^3
# Si number density = 25.718599 Si / 1000 Ang^3
#
#
#
# Elastic Constant Matrix: (Units=GPa)
#
#
# Indices 1 2 3 4 5 6 
#
# 1 65.1354 20.2442 6.6817 0.0000 15.1123 -0.0003
# 2 20.2442 105.2080 -1.2814 0.0001 3.7876 -0.0009
# 3 6.6817 -1.2814 116.7659 0.0000 22.4050 -0.0003
# 4 0.0000 0.0001 0.0000 43.7144 0.0000 10.5709
# 5 15.1123 3.7876 22.4050 0.0000 40.4184 -0.0001
# 6 -0.0003 -0.0009 -0.0003 10.5709 -0.0001 22.7428
#
#
#
# Elastic Compliance Matrix: (Units=1/GPa)
#
#
# Indices 1 2 3 4 5 6 
#
# 1 0.017828 -0.003195 0.000186 0.000000 -0.006469 0.000000
# 2 -0.003195 0.010120 0.000276 0.000000 0.000093 0.000000
# 3 0.000186 0.000276 0.009595 0.000000 -0.005414 0.000000
# 4 0.000000 0.000000 0.000000 0.025773 0.000000 -0.011979
# 5 -0.006469 0.000093 -0.005414 0.000000 0.030153 0.000000
# 6 0.000000 0.000000 0.000000 -0.011979 0.000000 0.049538
#
#
# Mechanical properties :
#
#
# Convention : Reuss Voigt Hill
#
# Bulk Modulus (GPa) = 31.17533 37.59982 34.38757
# Shear Modulus (GPa) = 31.41400 38.80609 35.11005
#
# Velocity S-wave (km/s) = 3.49872 3.88864 3.69882
# Velocity P-wave (km/s) = 5.33567 5.90029 5.62507
#
# Compressibility (1/GPa) = 0.03207665
#
# Stress axis : x y z
#
# Youngs Moduli (GPa) = 56.09268 98.81603 104.21609
#
# Poissons Ratio (x) = 0.31574 -0.01940
# Poissons Ratio (y) = 0.17923 -0.02876
# Poissons Ratio (z) = -0.01044 -0.02727
#
# Static dielectric constant tensor:
#      x y z
#    x 2.015980 0.000000 0.364200 
#    y 0.000000 2.252370 0.000000 
#    z 0.364200 0.000000 2.076070 
# 
# From -- ./inp_files/217709.got.cif
#   From: 2010.05.17/outbox.cif.g08.bks.cpg/sg15_109_cif.got.tgz:217709.got - 2010.06.03 18:47:42.
