data_PCOD9279533
_publ_section_title
;
Structure prediction by ZEFSAII (Michael W. Deem and Ramdas Pophale) SiO2 
 PCOD9279533
Probable space group: C 2/C
;
_chemical_formula_sum "Si O2"
_cell_formula_units_Z 56
_cell_length_a 18.497617
_cell_length_b 12.717243
_cell_length_c 15.597719
_cell_angle_alpha 90.000000
_cell_angle_beta 131.810361
_cell_angle_gamma 90.000000
_cell_volume 2734.848542
_symmetry_space_group_name_H-M "C 2/C"
_symmetry_group_IT_number 15
_symmetry_cell_setting 'monoclinic'
loop_
_space_group_symop_operation_xyz
x,y,z
-x,y,1/2-z
-x,-y,-z
x,-y,1/2+z
1/2+x,1/2+y,z
1/2-x,1/2+y,1/2-z
1/2-x,1/2-y,-z
1/2+x,1/2-y,1/2+z
loop_
_atom_site_type_symbol
_atom_site_label
_atom_site_fract_x
_atom_site_fract_y
_atom_site_fract_z
Si Si1 0.171864 0.671108 0.657561
Si Si2 0.571208 0.973368 0.633804
Si Si3 0.000000 0.448575 0.250000
Si Si4 0.306002 0.264944 0.407188
Si Si5 0.468729 0.249668 0.415487
Si Si6 0.223335 0.135338 0.936533
Si Si7 0.702816 0.906068 0.461191
Si Si8 0.500000 0.343713 0.250000
O O1 0.152830 0.559676 0.689161
O O2 0.221331 0.739250 0.769743
O O3 0.241953 0.650097 0.633419
O O4 0.071558 0.717962 0.539943
O O5 0.598330 0.853700 0.648661
O O6 0.500000 0.000000 0.500000
O O7 0.511602 0.984373 0.673903
O O8 0.098231 0.385137 0.335944
O O9 0.402670 0.306464 0.434508
O O10 0.308251 0.151757 0.456169
O O11 0.280141 0.346878 0.462893
O O12 0.486678 0.288931 0.333316
O O13 0.108433 0.109198 0.848154
O O14 0.250000 0.250000 0.000000
O O15 0.277790 0.031579 0.017035
#
# Coordination Sequence:
#
# PCOD9279533 Si02
#       8
#     8   8   4   8   8   8   8   4
#     4  11  21  42  67  97 131 173 223 283 333 391
#     4  10  21  35  64  99 128 163 222 287 334 380
#     4  12  21  40  73 100 130 170 233 295 342 374
#     4  11  24  45  68  99 139 173 222 278 341 412
#     4  11  22  40  65 101 131 175 227 274 340 391
#     4  12  26  46  67  98 138 176 230 276 336 400
#     4  11  26  45  68 103 133 178 224 283 340 400
#     4  12  25  42  65  96 138 182 215 269 340 414
#
# _framework density 20.476455000000001
#
# number of rings (size 3 to 8) (size 9 to 14) (size 15 to 20)
#    0.000    0.857    4.286    4.714    2.000    0.000 
#    5.143    0.714    0.000    0.000    0.000    0.000 
#    0.000    0.000    0.000    0.000    0.000    0.000 
#
# Total GULP energy -155994.298141 kJ/mol
# GULP energy per Si atom -5571.224934 kJ/mol
# Density = 2.042985 g / cm^3
# Si number density = 20.476455 Si / 1000 Ang^3
#
#
#
# Elastic Constant Matrix: (Units=GPa)
#
#
# Indices 1 2 3 4 5 6 
#
# 1 151.9182 27.1603 47.8096 0.0000 -15.1648 0.0000
# 2 27.1603 62.6540 19.6677 0.0000 -1.1934 0.0000
# 3 47.8096 19.6677 83.5404 0.0000 -1.2572 0.0000
# 4 0.0000 0.0000 0.0000 23.2189 0.0000 -4.6308
# 5 -15.1648 -1.1934 -1.2572 0.0000 48.5714 0.0000
# 6 0.0000 0.0000 0.0000 -4.6308 0.0000 22.9584
#
#
#
# Elastic Compliance Matrix: (Units=1/GPa)
#
#
# Indices 1 2 3 4 5 6 
#
# 1 0.008617 -0.002323 -0.004347 0.000000 0.002521 0.000000
# 2 -0.002323 0.017866 -0.002882 0.000000 -0.000361 0.000000
# 3 -0.004347 -0.002882 0.015121 0.000000 -0.001037 0.000000
# 4 0.000000 0.000000 0.000000 0.044874 0.000000 0.009051
# 5 0.002521 -0.000361 -0.001037 0.000000 0.021340 0.000000
# 6 0.000000 0.000000 0.000000 0.009051 0.000000 0.045383
#
#
# Mechanical properties :
#
#
# Convention : Reuss Voigt Hill
#
# Bulk Modulus (GPa) = 44.44453 54.15420 49.29937
# Shear Modulus (GPa) = 27.80812 32.51472 30.16142
#
# Velocity S-wave (km/s) = 3.68918 3.98918 3.84211
# Velocity P-wave (km/s) = 6.31657 6.90815 6.61897
#
# Compressibility (1/GPa) = 0.02249996
#
# Stress axis : x y z
#
# Youngs Moduli (GPa) = 116.04379 55.97371 66.13400
#
# Poissons Ratio (x) = 0.13003 0.28747
# Poissons Ratio (y) = 0.26958 0.19060
# Poissons Ratio (z) = 0.50442 0.16132
#
# Static dielectric constant tensor:
#      x y z
#    x 1.813200 0.000000 0.011050 
#    y 0.000000 1.771600 0.000000 
#    z 0.011050 0.000000 1.748190 
# 
# From -- ./inp_files/162343.got.cif
#   From: 2010.05.17/outbox.cif.g08.bks.cpg/sg15_82_cif.got.tgz:162343.got - 2010.06.03 18:47:42.
