data_PCOD9279170
_publ_section_title
;
Structure prediction by ZEFSAII (Michael W. Deem and Ramdas Pophale) SiO2 
 PCOD9279170
Probable space group: C 2/C
;
_chemical_formula_sum "Si O2"
_cell_formula_units_Z 64
_cell_length_a 8.589224
_cell_length_b 20.856376
_cell_length_c 19.393788
_cell_angle_alpha 90.000000
_cell_angle_beta 118.703608
_cell_angle_gamma 90.000000
_cell_volume 3047.280377
_symmetry_space_group_name_H-M "C 2/C"
_symmetry_group_IT_number 15
_symmetry_cell_setting 'monoclinic'
loop_
_space_group_symop_operation_xyz
x,y,z
-x,y,1/2-z
-x,-y,-z
x,-y,1/2+z
1/2+x,1/2+y,z
1/2-x,1/2+y,1/2-z
1/2-x,1/2-y,-z
1/2+x,1/2-y,1/2+z
loop_
_atom_site_type_symbol
_atom_site_label
_atom_site_fract_x
_atom_site_fract_y
_atom_site_fract_z
Si Si1 0.599460 0.347120 0.947452
Si Si2 0.477830 0.789080 0.998845
Si Si3 0.299983 0.308690 0.799226
Si Si4 0.060026 0.330069 0.160123
Si Si5 0.763608 0.081508 0.899651
Si Si6 0.517511 0.030483 0.172128
Si Si7 0.670535 0.439408 0.239501
Si Si8 0.975127 0.329534 0.636329
O O1 0.786550 0.324762 0.955297
O O2 0.452094 0.357462 0.857310
O O3 0.542581 0.283439 0.978514
O O4 0.624247 0.403741 0.008071
O O5 0.557559 0.792134 0.940560
O O6 0.577440 0.826902 0.080829
O O7 0.398066 0.241513 0.807621
O O8 0.174090 0.321900 0.708241
O O9 0.162697 0.307201 0.834590
O O10 0.198380 0.379634 0.219996
O O11 0.862123 0.354955 0.135097
O O12 0.863258 0.063817 0.850041
O O13 0.619685 0.025072 0.877357
O O14 0.500000 0.046332 0.250000
O O15 0.465587 0.094423 0.121547
O O16 0.714485 0.000916 0.211440
O O17 0.500000 0.433144 0.250000
#
# Coordination Sequence:
#
# PCOD9279170 Si02
#       8
#     8   8   8   8   8   8   8   8
#     4   9  19  39  54  87 116 146 198 241 283 348
#     4   9  20  36  57  80 123 152 182 241 295 341
#     4  10  22  35  57  86 121 151 189 237 285 356
#     4   9  19  37  54  86 118 148 190 234 294 349
#     4   9  19  37  65  79 112 160 187 242 298 335
#     4   9  18  41  58  77 115 160 192 233 290 349
#     4  10  21  34  61  89 112 146 201 251 282 339
#     4  11  22  38  58  82 117 164 189 226 300 349
#
# _framework density 21.002333
#
# number of rings (size 3 to 8) (size 9 to 14) (size 15 to 20)
#    0.000    2.500    1.250    1.875    3.500    3.500 
#    6.750    6.250    0.000    0.000    0.000    0.000 
#    0.000    0.000    0.000    0.000    0.000    0.000 
#
# Total GULP energy -178546.553127 kJ/mol
# GULP energy per Si atom -5579.579785 kJ/mol
# Density = 2.095453 g / cm^3
# Si number density = 21.002333 Si / 1000 Ang^3
#
#
#
# Elastic Constant Matrix: (Units=GPa)
#
#
# Indices 1 2 3 4 5 6 
#
# 1 21.9885 -1.8358 9.9387 0.0000 -1.8673 0.0000
# 2 -1.8358 49.2069 -0.1924 0.0000 -3.9038 0.0000
# 3 9.9387 -0.1924 60.4360 0.0000 3.0469 0.0000
# 4 0.0000 0.0000 0.0000 44.9966 0.0000 -9.4184
# 5 -1.8673 -3.9038 3.0469 0.0000 30.3284 0.0000
# 6 0.0000 0.0000 0.0000 -9.4184 0.0000 2.5240
#
#
#
# Elastic Compliance Matrix: (Units=1/GPa)
#
#
# Indices 1 2 3 4 5 6 
#
# 1 0.049809 0.002158 -0.008395 0.000000 0.004188 0.000000
# 2 0.002158 0.020626 -0.000432 0.000000 0.002831 0.000000
# 3 -0.008395 -0.000432 0.018046 0.000000 -0.002385 0.000000
# 4 0.000000 0.000000 0.000000 0.101510 0.000000 0.378791
# 5 0.004188 0.002831 -0.002385 0.000000 0.033834 0.000000
# 6 0.000000 0.000000 0.000000 0.378791 0.000000 1.809683
#
#
# Mechanical properties :
#
#
# Convention : Reuss Voigt Hill
#
# Bulk Modulus (GPa) = 13.30826 16.38361 14.84593
# Shear Modulus (GPa) = 2.41325 23.81784 13.11554
#
# Velocity S-wave (km/s) = 1.07310 3.37123 2.50167
# Velocity P-wave (km/s) = 2.80815 4.79285 3.92792
#
# Compressibility (1/GPa) = 0.07514130
#
# Stress axis : x y z
#
# Youngs Moduli (GPa) = 20.07681 48.48304 55.41409
#
# Poissons Ratio (x) = -0.10461 0.46522
# Poissons Ratio (y) = -0.04332 0.02393
# Poissons Ratio (z) = 0.16855 0.02094
#
# Static dielectric constant tensor:
#      x y z
#    x 1.766650 0.000000 0.006450 
#    y 0.000000 1.769730 0.000000 
#    z 0.006450 0.000000 1.775490 
# 
# From -- ./inp_files/233886.got.cif
#   From: 2010.05.17/outbox.cif.g08.bks.cpg/sg15_117_cif.got.tgz:233886.got - 2010.06.03 18:47:42.
