data_PCOD9279844
_publ_section_title
;
Structure prediction by ZEFSAII (Michael W. Deem and Ramdas Pophale) SiO2 
 PCOD9279844
Probable space group: C 2/C
;
_chemical_formula_sum "Si O2"
_cell_formula_units_Z 48
_cell_length_a 16.316493
_cell_length_b 29.208814
_cell_length_c 15.652584
_cell_angle_alpha 90.000000
_cell_angle_beta 18.154858
_cell_angle_gamma 90.000000
_cell_volume 2324.369801
_symmetry_space_group_name_H-M "C 2/C"
_symmetry_group_IT_number 15
_symmetry_cell_setting 'monoclinic'
loop_
_space_group_symop_operation_xyz
x,y,z
-x,y,1/2-z
-x,-y,-z
x,-y,1/2+z
1/2+x,1/2+y,z
1/2-x,1/2+y,1/2-z
1/2-x,1/2-y,-z
1/2+x,1/2-y,1/2+z
loop_
_atom_site_type_symbol
_atom_site_label
_atom_site_fract_x
_atom_site_fract_y
_atom_site_fract_z
Si Si1 0.500000 0.433978 0.250000
Si Si2 0.000000 0.493908 0.750000
Si Si3 0.416048 0.143256 0.075049
Si Si4 0.000000 0.782440 0.250000
Si Si5 0.000000 0.857681 0.750000
Si Si6 0.146600 0.581861 0.517068
Si Si7 0.929659 0.859084 0.178885
Si Si8 0.187461 0.282816 0.964433
O O1 0.397263 0.401416 0.275835
O O2 0.251720 0.464053 0.526158
O O3 0.889653 0.527791 0.934082
O O4 0.337777 0.187889 0.097389
O O5 0.172254 0.131143 0.376399
O O6 0.470089 0.103528 0.952029
O O7 0.671000 0.150257 0.880050
O O8 0.750000 0.750000 0.500000
O O9 0.993178 0.815319 0.174572
O O10 0.773707 0.820786 0.949400
O O11 0.062088 0.895302 0.763148
O O12 0.000000 0.597949 0.750000
O O13 0.421328 0.245976 0.734044
#
# Coordination Sequence:
#
# PCOD9279844 Si02
#       8
#     4   4   8   4   4   8   8   8
#     4  11  23  46  68  93 126 163 202 270 341 391
#     4  10  22  41  71  95 124 165 217 259 310 396
#     4  11  24  41  63  92 132 167 213 264 316 385
#     4  11  24  43  71  96 124 170 219 267 318 385
#     4  10  21  36  60  82 126 170 218 254 299 368
#     4   9  23  38  67  90 127 173 218 249 316 374
#     4  11  25  43  66  95 129 167 208 264 335 386
#     4  11  24  36  56  87 123 166 212 258 305 349
#
# _framework density 20.650759000000001
#
# number of rings (size 3 to 8) (size 9 to 14) (size 15 to 20)
#    0.500    1.000    0.000    4.000    9.333    6.667 
#    0.000    5.000    0.000    0.000    0.000    0.000 
#    0.000    0.000    0.000    0.000    0.000    0.000 
#
# Total GULP energy -133768.055959 kJ/mol
# GULP energy per Si atom -5573.668998 kJ/mol
# Density = 2.060376 g / cm^3
# Si number density = 20.650759 Si / 1000 Ang^3
#
#
#
# Elastic Constant Matrix: (Units=GPa)
#
#
# Indices 1 2 3 4 5 6 
#
# 1 124.1592 44.3141 41.1137 0.3844 -21.8286 1.4677
# 2 44.3141 124.9511 37.0247 0.1732 -11.2032 0.2287
# 3 41.1137 37.0247 111.4415 0.9178 -17.9729 1.2438
# 4 0.3844 0.1732 0.9178 30.7592 0.2477 0.9341
# 5 -21.8286 -11.2032 -17.9729 0.2477 41.5919 0.2320
# 6 1.4677 0.2287 1.2438 0.9341 0.2320 11.8034
#
#
#
# Elastic Compliance Matrix: (Units=1/GPa)
#
#
# Indices 1 2 3 4 5 6 
#
# 1 0.010461 -0.002674 -0.002352 -0.000043 0.003760 -0.001072
# 2 -0.002674 0.009617 -0.002173 0.000031 0.000246 0.000368
# 3 -0.002352 -0.002173 0.011053 -0.000286 0.002963 -0.000866
# 4 -0.000043 0.000031 -0.000286 0.032599 -0.000318 -0.002539
# 5 0.003760 0.000246 0.002963 -0.000318 0.027372 -0.001297
# 6 -0.001072 0.000368 -0.000866 -0.002539 -0.001297 0.085165
#
#
# Mechanical properties :
#
#
# Convention : Reuss Voigt Hill
#
# Bulk Modulus (GPa) = 59.76600 67.27298 63.51949
# Shear Modulus (GPa) = 25.47848 32.70419 29.09133
#
# Velocity S-wave (km/s) = 3.51633 3.98386 3.75738
# Velocity P-wave (km/s) = 6.74465 7.33545 7.04624
#
# Compressibility (1/GPa) = 0.01673192
#
# Stress axis : x y z
#
# Youngs Moduli (GPa) = 95.59008 103.98553 90.47268
#
# Poissons Ratio (x) = 0.27805 0.21283
# Poissons Ratio (y) = 0.25560 0.19662
# Poissons Ratio (z) = 0.22487 0.22599
#
# Static dielectric constant tensor:
#      x y z
#    x 1.727800 0.003920 -0.005100 
#    y 0.003920 1.905720 -0.004590 
#    z -0.005100 -0.004590 1.840760 
# 
# From -- ./inp_files/157680.got.cif
#   From: 2010.05.17/outbox.cif.g08.bks.cpg/sg15_79_cif.got.tgz:157680.got - 2010.06.03 18:47:42.
