data_PCOD9279958
_publ_section_title
;
Structure prediction by ZEFSAII (Michael W. Deem and Ramdas Pophale) SiO2 
 PCOD9279958
Probable space group: C 2/C
;
_chemical_formula_sum "Si O2"
_cell_formula_units_Z 56
_cell_length_a 9.084596
_cell_length_b 24.906260
_cell_length_c 16.900830
_cell_angle_alpha 90.000000
_cell_angle_beta 43.571660
_cell_angle_gamma 90.000000
_cell_volume 2635.761088
_symmetry_space_group_name_H-M "C 2/C"
_symmetry_group_IT_number 15
_symmetry_cell_setting 'monoclinic'
loop_
_space_group_symop_operation_xyz
x,y,z
-x,y,1/2-z
-x,-y,-z
x,-y,1/2+z
1/2+x,1/2+y,z
1/2-x,1/2+y,1/2-z
1/2-x,1/2-y,-z
1/2+x,1/2-y,1/2+z
loop_
_atom_site_type_symbol
_atom_site_label
_atom_site_fract_x
_atom_site_fract_y
_atom_site_fract_z
Si Si1 0.506845 0.267195 0.832551
Si Si2 0.828323 0.066154 0.530370
Si Si3 0.412255 0.030282 0.457590
Si Si4 0.886022 0.182618 0.710681
Si Si5 0.449438 0.436308 0.162746
Si Si6 0.352157 0.554131 0.236246
Si Si7 0.874966 0.183923 0.535703
O O1 0.500000 0.296298 0.750000
O O2 0.687376 0.222264 0.776777
O O3 0.290869 0.232443 0.907147
O O4 0.520279 0.306172 0.902307
O O5 0.751775 0.127771 0.568556
O O6 0.899963 0.053925 0.590440
O O7 0.027096 0.067278 0.391997
O O8 0.671262 0.019097 0.564074
O O9 0.206842 0.064814 0.563565
O O10 0.601796 0.065127 0.344889
O O11 0.500000 0.000000 0.500000
O O12 0.981511 0.184461 0.581995
O O13 0.000000 0.197240 0.750000
O O14 0.846299 0.118651 0.732765
O O15 0.361940 0.489127 0.238298
O O16 0.500000 0.574879 0.250000
#
# Coordination Sequence:
#
# PCOD9279958 Si02
#       7
#     8   8   8   8   8   8   8
#     4   9  19  38  63  88 113 151 188 240 294 349
#     4  10  22  36  55  84 114 151 193 238 286 345
#     4  11  21  35  56  81 118 155 192 239 286 335
#     4  10  21  36  62  87 117 150 192 238 299 346
#     4  10  22  37  53  84 118 149 196 240 275 351
#     4  11  20  35  55  80 116 152 194 238 284 340
#     4   9  20  39  59  86 118 145 198 243 286 351
#
# _framework density 21.246234999999999
#
# number of rings (size 3 to 8) (size 9 to 14) (size 15 to 20)
#    0.000    2.000    2.857    2.143    2.000    3.429 
#    0.000    0.000    6.286    0.000    0.000    0.000 
#    0.000    0.000    0.000    0.000    0.000    0.000 
#
# Total GULP energy -155891.498925 kJ/mol
# GULP energy per Si atom -5567.553533 kJ/mol
# Density = 2.119788 g / cm^3
# Si number density = 21.246235 Si / 1000 Ang^3
#
#
#
# Elastic Constant Matrix: (Units=GPa)
#
#
# Indices 1 2 3 4 5 6 
#
# 1 121.8617 17.3973 41.2225 0.0000 35.8955 0.0000
# 2 17.3973 62.8635 2.6265 0.0000 10.7961 0.0000
# 3 41.2225 2.6265 60.9775 0.0000 19.7550 0.0000
# 4 0.0000 0.0000 0.0000 -0.2996 0.0000 -1.5254
# 5 35.8955 10.7961 19.7550 0.0000 46.8372 0.0000
# 6 0.0000 0.0000 0.0000 -1.5254 0.0000 12.5128
#
#
#
# Elastic Compliance Matrix: (Units=1/GPa)
#
#
# Indices 1 2 3 4 5 6 
#
# 1 0.012540 -0.002096 -0.006289 0.000000 -0.006475 0.000000
# 2 -0.002096 0.016933 0.001658 0.000000 -0.002996 0.000000
# 3 -0.006289 0.001658 0.022172 0.000001 -0.004914 0.000000
# 4 0.000000 0.000000 0.000001 -2.059623 -0.000001 -0.251074
# 5 -0.006475 -0.002996 -0.004914 -0.000001 0.029076 0.000000
# 6 0.000000 0.000000 0.000000 -0.251074 0.000000 0.049311
#
#
# Mechanical properties :
#
#
# Convention : Reuss Voigt Hill
#
# Bulk Modulus (GPa) = 26.18458 40.91058 33.54758
# Shear Modulus (GPa) = -2.62687 24.10719 10.74016
#
# Velocity S-wave (km/s) = -1.11314 3.37212 2.25079
# Velocity P-wave (km/s) = 3.27093 5.87017 4.75173
#
# Compressibility (1/GPa) = 0.03819041
#
# Stress axis : x y z
#
# Youngs Moduli (GPa) = 79.74536 59.05714 45.10231
#
# Poissons Ratio (x) = 0.12376 0.28367
# Poissons Ratio (y) = 0.16712 -0.07478
# Poissons Ratio (z) = 0.50156 -0.09792
#
# Static dielectric constant tensor:
#      x y z
#    x 1.780010 0.000000 0.025070 
#    y 0.000000 1.975660 0.000000 
#    z 0.025070 0.000000 1.866640 
# 
# From -- ./inp_files/193570.got.cif
#   From: 2010.05.17/outbox.cif.g08.bks.cpg/sg15_97_cif.got.tgz:193570.got - 2010.06.03 18:47:42.
