data_PCOD9279549
_publ_section_title
;
Structure prediction by ZEFSAII (Michael W. Deem and Ramdas Pophale) SiO2 
 PCOD9279549
Probable space group: C 2/C
;
_chemical_formula_sum "Si O2"
_cell_formula_units_Z 48
_cell_length_a 16.708423
_cell_length_b 13.068125
_cell_length_c 16.839864
_cell_angle_alpha 90.000000
_cell_angle_beta 30.770021
_cell_angle_gamma 90.000000
_cell_volume 1881.101457
_symmetry_space_group_name_H-M "C 2/C"
_symmetry_group_IT_number 15
_symmetry_cell_setting 'monoclinic'
loop_
_space_group_symop_operation_xyz
x,y,z
-x,y,1/2-z
-x,-y,-z
x,-y,1/2+z
1/2+x,1/2+y,z
1/2-x,1/2+y,1/2-z
1/2-x,1/2-y,-z
1/2+x,1/2-y,1/2+z
loop_
_atom_site_type_symbol
_atom_site_label
_atom_site_fract_x
_atom_site_fract_y
_atom_site_fract_z
Si Si1 0.000000 0.786864 0.750000
Si Si2 0.363911 0.437359 0.987964
Si Si3 0.943722 0.374548 0.174801
Si Si4 0.656135 0.318809 0.247462
Si Si5 0.000000 0.701507 0.250000
Si Si6 0.200796 0.542760 0.989497
Si Si7 0.429653 0.693487 0.078055
O O1 0.910338 0.714038 0.766865
O O2 0.117485 0.852838 0.597940
O O3 0.221071 0.434820 0.174167
O O4 0.320313 0.528654 0.962565
O O5 0.515176 0.398398 0.910625
O O6 0.989137 0.304629 0.060989
O O7 0.088645 0.444079 0.076141
O O8 0.619804 0.271270 0.193712
O O9 0.506198 0.335956 0.429321
O O10 0.755053 0.232213 0.209687
O O11 0.732704 0.425225 0.153293
O O12 0.918033 0.631079 0.384125
#
# Coordination Sequence:
#
# PCOD9279549 Si02
#       7
#     4   8   8   8   4   8   8
#     4  10  21  35  70 108 156 192 236 307 387 460
#     4  11  22  42  73 116 149 193 250 321 379 451
#     4  11  21  41  76 108 152 199 248 310 386 462
#     4  12  27  51  75 106 148 214 254 312 381 465
#     4  12  25  51  80  96 146 214 266 295 383 470
#     4  12  25  45  78 112 149 202 264 310 373 468
#     4  11  26  46  78 111 154 193 250 318 399 441
#
# _framework density 25.516964999999999
#
# number of rings (size 3 to 8) (size 9 to 14) (size 15 to 20)
#    0.000    0.667    6.667    1.000    2.333    1.333 
#    3.000    0.833    0.000    0.000    0.000    0.000 
#    0.000    0.000    0.000    0.000    0.000    0.000 
#
# Total GULP energy -133766.209135 kJ/mol
# GULP energy per Si atom -5573.592047 kJ/mol
# Density = 2.545889 g / cm^3
# Si number density = 25.516965 Si / 1000 Ang^3
#
#
#
# Elastic Constant Matrix: (Units=GPa)
#
#
# Indices 1 2 3 4 5 6 
#
# 1 90.3489 21.4463 14.9670 0.0001 -13.1053 -0.0001
# 2 21.4463 55.7072 38.4477 0.0000 0.3690 0.0000
# 3 14.9670 38.4477 102.0895 0.0001 23.8008 0.0000
# 4 0.0001 0.0000 0.0001 12.9963 0.0000 13.5580
# 5 -13.1053 0.3690 23.8008 0.0000 40.8367 0.0000
# 6 -0.0001 0.0000 0.0000 13.5580 0.0000 47.2811
#
#
#
# Elastic Compliance Matrix: (Units=1/GPa)
#
#
# Indices 1 2 3 4 5 6 
#
# 1 0.013019 -0.003915 -0.001639 0.000000 0.005169 0.000000
# 2 -0.003915 0.026730 -0.010581 0.000000 0.004669 0.000000
# 3 -0.001639 -0.010581 0.016342 0.000000 -0.009955 0.000000
# 4 0.000000 0.000000 0.000000 0.109788 0.000000 -0.031482
# 5 0.005169 0.004669 -0.009955 0.000000 0.031906 0.000000
# 6 0.000000 0.000000 0.000000 -0.031482 0.000000 0.030178
#
#
# Mechanical properties :
#
#
# Convention : Reuss Voigt Hill
#
# Bulk Modulus (GPa) = 41.98262 44.20750 43.09506
# Shear Modulus (GPa) = 18.64464 31.77511 25.20988
#
# Velocity S-wave (km/s) = 2.70603 3.53264 3.14660
# Velocity P-wave (km/s) = 5.12367 5.83111 5.48880
#
# Compressibility (1/GPa) = 0.02381938
#
# Stress axis : x y z
#
# Youngs Moduli (GPa) = 76.81209 37.41078 61.19374
#
# Poissons Ratio (x) = 0.14646 0.10032
# Poissons Ratio (y) = 0.30071 0.64752
# Poissons Ratio (z) = 0.12592 0.39586
#
# Static dielectric constant tensor:
#      x y z
#    x 2.092480 0.000000 -0.036980 
#    y 0.000000 2.067700 0.000000 
#    z -0.036980 0.000000 2.001990 
# 
# From -- ./inp_files/211352.got.cif
#   From: 2010.05.17/outbox.cif.g08.bks.cpg/sg15_106_cif.got.tgz:211352.got - 2010.06.03 18:47:42.
