data_PCOD9279959
_publ_section_title
;
Structure prediction by ZEFSAII (Michael W. Deem and Ramdas Pophale) SiO2 
 PCOD9279959
Probable space group: C 2/C
;
_chemical_formula_sum "Si O2"
_cell_formula_units_Z 44
_cell_length_a 8.709297
_cell_length_b 19.131878
_cell_length_c 20.484831
_cell_angle_alpha 90.000000
_cell_angle_beta 40.113163
_cell_angle_gamma 90.000000
_cell_volume 2199.180005
_symmetry_space_group_name_H-M "C 2/C"
_symmetry_group_IT_number 15
_symmetry_cell_setting 'monoclinic'
loop_
_space_group_symop_operation_xyz
x,y,z
-x,y,1/2-z
-x,-y,-z
x,-y,1/2+z
1/2+x,1/2+y,z
1/2-x,1/2+y,1/2-z
1/2-x,1/2-y,-z
1/2+x,1/2-y,1/2+z
loop_
_atom_site_type_symbol
_atom_site_label
_atom_site_fract_x
_atom_site_fract_y
_atom_site_fract_z
Si Si1 0.500000 0.129194 0.250000
Si Si2 0.209244 0.593036 0.426274
Si Si3 0.416884 0.803689 0.642629
Si Si4 0.519501 0.428240 0.953638
Si Si5 0.312553 0.435474 0.366450
Si Si6 0.534670 0.654285 0.567868
O O1 0.615365 0.173578 0.271745
O O2 0.702979 0.082960 0.151391
O O3 0.229808 0.652161 0.363804
O O4 0.386880 0.585100 0.429000
O O5 0.241992 0.516961 0.381956
O O6 0.945774 0.600770 0.543884
O O7 0.398117 0.720560 0.641172
O O8 0.692975 0.822635 0.536039
O O9 0.500000 0.500000 0.000000
O O10 0.430006 0.369750 0.033395
O O11 0.500000 0.415591 0.250000
O O12 0.441963 0.411602 0.391199
#
# Coordination Sequence:
#
# PCOD9279959 Si02
#       6
#     4   8   8   8   8   8
#     4  10  24  38  64  88 120 166 202 246 316 380
#     4  10  22  37  59  90 122 156 202 259 306 356
#     4   9  20  38  60  85 119 161 201 244 304 374
#     4  11  22  39  61  91 126 160 203 262 313 361
#     4  10  21  36  62  87 117 160 204 251 306 368
#     4   9  19  39  58  85 121 160 198 247 308 362
#
# _framework density 20.007458
#
# number of rings (size 3 to 8) (size 9 to 14) (size 15 to 20)
#    0.000    2.182    1.818    0.000    6.364    0.727 
#    0.000    0.000    4.000    0.000    0.000    0.000 
#    0.000    0.000    0.000    0.000    0.000    0.000 
#
# Total GULP energy -122529.995777 kJ/mol
# GULP energy per Si atom -5569.545263 kJ/mol
# Density = 1.996192 g / cm^3
# Si number density = 20.007458 Si / 1000 Ang^3
#
#
#
# Elastic Constant Matrix: (Units=GPa)
#
#
# Indices 1 2 3 4 5 6 
#
# 1 85.5001 28.6183 14.6698 0.0002 20.1024 -0.0013
# 2 28.6183 89.7800 31.0819 -0.0006 9.3490 0.0003
# 3 14.6698 31.0819 98.7718 0.0007 6.0946 0.0001
# 4 0.0002 -0.0006 0.0007 21.1905 -0.0001 6.8919
# 5 20.1024 9.3490 6.0946 -0.0001 25.0796 0.0004
# 6 -0.0013 0.0003 0.0001 6.8919 0.0004 23.2182
#
#
#
# Elastic Compliance Matrix: (Units=1/GPa)
#
#
# Indices 1 2 3 4 5 6 
#
# 1 0.015593 -0.003655 -0.000486 -0.000001 -0.011018 0.000001
# 2 -0.003655 0.013716 -0.003694 0.000001 -0.001286 -0.000001
# 3 -0.000486 -0.003694 0.011421 -0.000001 -0.001009 0.000000
# 4 -0.000001 0.000001 -0.000001 0.052234 0.000001 -0.015505
# 5 -0.011018 -0.001286 -0.001009 0.000001 0.049429 -0.000002
# 6 0.000001 -0.000001 0.000000 -0.015505 -0.000002 0.047672
#
#
# Mechanical properties :
#
#
# Convention : Reuss Voigt Hill
#
# Bulk Modulus (GPa) = 39.90311 46.97686 43.43998
# Shear Modulus (GPa) = 23.35483 27.20979 25.28231
#
# Velocity S-wave (km/s) = 3.42029 3.69179 3.55863
# Velocity P-wave (km/s) = 5.96534 6.45779 6.21645
#
# Compressibility (1/GPa) = 0.02506071
#
# Stress axis : x y z
#
# Youngs Moduli (GPa) = 64.13083 72.90676 87.55616
#
# Poissons Ratio (x) = 0.26647 0.04255
# Poissons Ratio (y) = 0.23439 0.32344
# Poissons Ratio (z) = 0.03116 0.26932
#
# Static dielectric constant tensor:
#      x y z
#    x 1.735930 0.000000 0.009320 
#    y 0.000000 1.725360 0.000000 
#    z 0.009320 0.000000 1.710390 
# 
# From -- ./inp_files/134746.got.cif
#   From: 2010.05.17/outbox.cif.g08.bks.cpg/sg15_68_cif.got.tgz:134746.got - 2010.06.03 18:47:42.
