data_PCOD9279897
_publ_section_title
;
Structure prediction by ZEFSAII (Michael W. Deem and Ramdas Pophale) SiO2 
 PCOD9279897
Probable space group: C 2/C
;
_chemical_formula_sum "Si O2"
_cell_formula_units_Z 40
_cell_length_a 14.932998
_cell_length_b 24.797103
_cell_length_c 7.464029
_cell_angle_alpha 90.000000
_cell_angle_beta 37.821919
_cell_angle_gamma 90.000000
_cell_volume 1694.845039
_symmetry_space_group_name_H-M "C 2/C"
_symmetry_group_IT_number 15
_symmetry_cell_setting 'monoclinic'
loop_
_space_group_symop_operation_xyz
x,y,z
-x,y,1/2-z
-x,-y,-z
x,-y,1/2+z
1/2+x,1/2+y,z
1/2-x,1/2+y,1/2-z
1/2-x,1/2-y,-z
1/2+x,1/2-y,1/2+z
loop_
_atom_site_type_symbol
_atom_site_label
_atom_site_fract_x
_atom_site_fract_y
_atom_site_fract_z
Si Si1 0.000000 0.281111 0.250000
Si Si2 0.728999 0.655490 0.306198
Si Si3 0.722225 0.451561 0.664100
Si Si4 0.000000 0.910298 0.750000
Si Si5 0.581657 0.319062 0.382989
Si Si6 0.399371 0.956158 0.057663
O O1 0.857120 0.318735 0.485129
O O2 0.956223 0.238666 0.474390
O O3 0.737963 0.590691 0.300135
O O4 0.573069 0.664838 0.459689
O O5 0.708810 0.680072 0.535346
O O6 0.571010 0.446237 0.794693
O O7 0.830411 0.428653 0.338487
O O8 0.774211 0.509456 0.651496
O O9 0.108913 0.866827 0.483380
O O10 0.500000 0.927832 0.750000
O O11 0.500000 0.000000 0.000000
#
# Coordination Sequence:
#
# PCOD9279897 Si02
#       6
#     4   8   8   4   8   8
#     4  11  20  34  62  88 114 154 210 244 292 371
#     4  10  21  36  61  85 119 156 205 243 296 376
#     4  10  21  38  58  87 115 160 200 245 303 353
#     4   9  20  38  60  82 116 158 208 242 290 369
#     4   9  20  39  56  83 126 158 183 257 316 334
#     4   9  20  37  59  81 123 152 188 251 304 347
#
# _framework density 23.600977
#
# number of rings (size 3 to 8) (size 9 to 14) (size 15 to 20)
#    0.000    2.400    0.000    1.200    4.200    4.000 
#    0.000    2.000    0.000    0.000    0.000    0.000 
#    0.000    0.000    0.000    0.000    0.000    0.000 
#
# Total GULP energy -111415.527285 kJ/mol
# GULP energy per Si atom -5570.776364 kJ/mol
# Density = 2.354726 g / cm^3
# Si number density = 23.600977 Si / 1000 Ang^3
#
#
#
# Elastic Constant Matrix: (Units=GPa)
#
#
# Indices 1 2 3 4 5 6 
#
# 1 66.8722 27.0317 18.1245 0.0000 1.7698 0.0000
# 2 27.0317 76.9626 26.7717 0.0000 -0.5220 0.0000
# 3 18.1245 26.7717 119.5319 0.0000 16.2295 0.0000
# 4 0.0000 0.0000 0.0000 67.4939 0.0000 27.2201
# 5 1.7698 -0.5220 16.2295 0.0000 37.8739 0.0000
# 6 0.0000 0.0000 0.0000 27.2201 0.0000 41.6422
#
#
#
# Elastic Compliance Matrix: (Units=1/GPa)
#
#
# Indices 1 2 3 4 5 6 
#
# 1 0.017644 -0.005731 -0.001348 0.000000 -0.000326 0.000000
# 2 -0.005731 0.016049 -0.002965 0.000000 0.001759 0.000000
# 3 -0.001348 -0.002965 0.009802 0.000000 -0.004178 0.000000
# 4 0.000000 0.000000 0.000000 0.020120 0.000000 -0.013152
# 5 -0.000326 0.001759 -0.004178 0.000000 0.028233 0.000000
# 6 0.000000 0.000000 0.000000 -0.013152 0.000000 0.032611
#
#
# Mechanical properties :
#
#
# Convention : Reuss Voigt Hill
#
# Bulk Modulus (GPa) = 42.71772 45.24695 43.98233
# Shear Modulus (GPa) = 32.81951 42.16459 37.49205
#
# Velocity S-wave (km/s) = 3.73312 4.23136 3.99002
# Velocity P-wave (km/s) = 6.05977 6.56398 6.31691
#
# Compressibility (1/GPa) = 0.02340949
#
# Stress axis : x y z
#
# Youngs Moduli (GPa) = 56.67567 62.30819 102.02479
#
# Poissons Ratio (x) = 0.35707 0.13749
# Poissons Ratio (y) = 0.32479 0.30245
# Poissons Ratio (z) = 0.07638 0.18471
#
# Static dielectric constant tensor:
#      x y z
#    x 1.947040 0.000000 0.008600 
#    y 0.000000 1.900830 0.000000 
#    z 0.008600 0.000000 2.016690 
# 
# From -- ./inp_files/52114.got.cif
#   From: 2010.05.17/outbox.cif.g08.bks.cpg/sg15_27_cif.got.tgz:52114.got - 2010.06.03 18:47:42.
