data_PCOD9279138
_publ_section_title
;
Structure prediction by ZEFSAII (Michael W. Deem and Ramdas Pophale) SiO2 
 PCOD9279138
Probable space group: C 2/C
;
_chemical_formula_sum "Si O2"
_cell_formula_units_Z 44
_cell_length_a 12.607035
_cell_length_b 11.359468
_cell_length_c 16.424104
_cell_angle_alpha 90.000000
_cell_angle_beta 122.533866
_cell_angle_gamma 90.000000
_cell_volume 1982.979327
_symmetry_space_group_name_H-M "C 2/C"
_symmetry_group_IT_number 15
_symmetry_cell_setting 'monoclinic'
loop_
_space_group_symop_operation_xyz
x,y,z
-x,y,1/2-z
-x,-y,-z
x,-y,1/2+z
1/2+x,1/2+y,z
1/2-x,1/2+y,1/2-z
1/2-x,1/2-y,-z
1/2+x,1/2-y,1/2+z
loop_
_atom_site_type_symbol
_atom_site_label
_atom_site_fract_x
_atom_site_fract_y
_atom_site_fract_z
Si Si1 0.027219 0.893888 0.358787
Si Si2 0.159730 0.922436 0.719879
Si Si3 0.708032 0.061931 0.586909
Si Si4 0.500000 0.240144 0.750000
Si Si5 0.974635 0.587639 0.581511
Si Si6 0.922636 0.346883 0.800483
O O1 0.000000 0.904811 0.250000
O O2 0.957137 0.775754 0.358211
O O3 0.179456 0.888196 0.422902
O O4 0.959357 0.009597 0.368201
O O5 0.227724 0.021490 0.802593
O O6 0.275286 0.864357 0.719681
O O7 0.107513 0.824112 0.759159
O O8 0.650639 0.946297 0.518861
O O9 0.586064 0.134753 0.568037
O O10 0.457193 0.163218 0.655183
O O11 0.025294 0.459872 0.631149
O O12 0.000000 0.343172 0.750000
#
# Coordination Sequence:
#
# PCOD9279138 Si02
#       6
#     8   8   8   4   8   8
#     4   9  18  36  58  81 109 158 192 233 287 357
#     4  10  21  37  58  86 113 157 201 234 293 349
#     4   9  19  41  57  83 121 157 194 228 303 359
#     4  12  22  36  60  90 114 154 194 254 270 350
#     4  10  22  35  59  90 118 153 192 246 293 343
#     4  10  21  34  59  86 114 151 195 245 290 345
#
# _framework density 22.188835999999998
#
# number of rings (size 3 to 8) (size 9 to 14) (size 15 to 20)
#    0.000    2.182    3.636    0.000   10.182    1.455 
#    0.000    0.000    0.000    2.182    0.000    0.000 
#    0.000    0.000    0.000    0.000    0.000    0.000 
#
# Total GULP energy -122478.220230 kJ/mol
# GULP energy per Si atom -5567.191829 kJ/mol
# Density = 2.213833 g / cm^3
# Si number density = 22.188836 Si / 1000 Ang^3
#
#
#
# Elastic Constant Matrix: (Units=GPa)
#
#
# Indices 1 2 3 4 5 6 
#
# 1 156.1409 50.7742 7.0619 0.0000 20.3231 0.0000
# 2 50.7742 78.2380 -7.8466 0.0000 6.7113 0.0000
# 3 7.0619 -7.8466 21.4351 0.0000 3.4320 0.0000
# 4 0.0000 0.0000 0.0000 -10.3189 0.0000 -26.9607
# 5 20.3231 6.7113 3.4320 0.0000 24.9999 0.0000
# 6 0.0000 0.0000 0.0000 -26.9607 0.0000 -10.2722
#
#
#
# Elastic Compliance Matrix: (Units=1/GPa)
#
#
# Indices 1 2 3 4 5 6 
#
# 1 0.009237 -0.005979 -0.004383 0.000000 -0.005302 0.000000
# 2 -0.005979 0.017613 0.008585 0.000000 -0.001046 0.000000
# 3 -0.004383 0.008585 0.052185 0.000000 -0.005905 0.000000
# 4 0.000000 0.000000 0.000000 0.016544 0.000000 -0.043423
# 5 -0.005302 -0.001046 -0.005905 0.000000 0.045402 0.000000
# 6 0.000000 0.000000 0.000000 -0.043423 0.000000 0.016620
#
#
# Mechanical properties :
#
#
# Convention : Reuss Voigt Hill
#
# Bulk Modulus (GPa) = 13.24874 39.53256 26.39065
# Shear Modulus (GPa) = 26.83610 14.60340 20.71975
#
# Velocity S-wave (km/s) = 3.48148 2.56821 3.05912
# Velocity P-wave (km/s) = 4.70582 5.16230 4.93934
#
# Compressibility (1/GPa) = 0.07547886
#
# Stress axis : x y z
#
# Youngs Moduli (GPa) = 108.25705 56.77716 19.16274
#
# Poissons Ratio (x) = 0.33950 0.08399
# Poissons Ratio (y) = 0.64732 -0.16451
# Poissons Ratio (z) = 0.47451 -0.48742
#
# Static dielectric constant tensor:
#      x y z
#    x 1.919890 0.000000 0.027900 
#    y 0.000000 1.911040 0.000000 
#    z 0.027900 0.000000 1.868120 
# 
# From -- ./inp_files/142203.got.cif
#   From: 2010.05.17/outbox.cif.g08.bks.cpg/sg15_72_cif.got.tgz:142203.got - 2010.06.03 18:47:42.
