data_PCOD9279413
_publ_section_title
;
Structure prediction by ZEFSAII (Michael W. Deem and Ramdas Pophale) SiO2 
 PCOD9279413
Probable space group: C 2/C
;
_chemical_formula_sum "Si O2"
_cell_formula_units_Z 52
_cell_length_a 5.272823
_cell_length_b 28.788840
_cell_length_c 16.728615
_cell_angle_alpha 90.000000
_cell_angle_beta 112.098108
_cell_angle_gamma 90.000000
_cell_volume 2352.837928
_symmetry_space_group_name_H-M "C 2/C"
_symmetry_group_IT_number 15
_symmetry_cell_setting 'monoclinic'
loop_
_space_group_symop_operation_xyz
x,y,z
-x,y,1/2-z
-x,-y,-z
x,-y,1/2+z
1/2+x,1/2+y,z
1/2-x,1/2+y,1/2-z
1/2-x,1/2-y,-z
1/2+x,1/2-y,1/2+z
loop_
_atom_site_type_symbol
_atom_site_label
_atom_site_fract_x
_atom_site_fract_y
_atom_site_fract_z
Si Si1 0.000000 0.833648 0.750000
Si Si2 0.795477 0.473672 0.034956
Si Si3 0.493410 0.837396 0.909778
Si Si4 0.729769 0.240888 0.333857
Si Si5 0.474467 0.610451 0.521879
Si Si6 0.255564 0.920891 0.338762
Si Si7 0.427610 0.829120 0.091699
O O1 0.754218 0.856707 0.672755
O O2 0.859676 0.800659 0.798578
O O3 0.694542 0.421481 0.003098
O O4 0.000963 0.459608 0.133485
O O5 0.500000 0.500000 0.000000
O O6 0.000000 0.500000 0.000000
O O7 0.585360 0.786397 0.889315
O O8 0.434338 0.833019 0.996388
O O9 0.742800 0.873112 0.935119
O O10 0.500000 0.263295 0.250000
O O11 0.959384 0.278753 0.376636
O O12 0.361364 0.582210 0.584360
O O13 0.617252 0.656669 0.574965
O O14 0.392518 0.869761 0.345166
O O15 0.000000 0.928634 0.250000
#
# Coordination Sequence:
#
# PCOD9279413 Si02
#       7
#     4   8   8   8   8   8   8
#     4  10  22  36  56  80 114 178 218 276 316 370
#     4  11  22  43  71  96 128 169 209 257 324 398
#     4  10  21  38  57  84 122 166 221 264 326 376
#     4  10  21  36  54  82 124 170 220 271 319 373
#     4  10  22  39  64  96 126 166 207 265 324 393
#     4  10  22  40  66  99 135 169 209 264 324 384
#     4  10  21  35  59  90 123 168 216 261 327 383
#
# _framework density 22.100971000000001
#
# number of rings (size 3 to 8) (size 9 to 14) (size 15 to 20)
#    0.000    1.846    1.538    1.846    0.000   11.077 
#    0.000    0.000    1.692    5.538    0.000    0.000 
#    0.000    0.000    0.000    0.000    0.000    0.000 
#
# Total GULP energy -144930.850897 kJ/mol
# GULP energy per Si atom -5574.263496 kJ/mol
# Density = 2.205067 g / cm^3
# Si number density = 22.100971 Si / 1000 Ang^3
#
#
#
# Elastic Constant Matrix: (Units=GPa)
#
#
# Indices 1 2 3 4 5 6 
#
# 1 94.4356 24.3259 48.4247 0.0000 36.5054 0.0000
# 2 24.3259 54.4735 53.8078 0.0000 17.5720 0.0000
# 3 48.4247 53.8078 128.9193 0.0000 58.7246 0.0000
# 4 0.0000 0.0000 0.0000 22.4154 0.0000 23.5491
# 5 36.5054 17.5720 58.7246 0.0000 51.3054 0.0000
# 6 0.0000 0.0000 0.0000 23.5491 0.0000 23.8537
#
#
#
# Elastic Compliance Matrix: (Units=1/GPa)
#
#
# Indices 1 2 3 4 5 6 
#
# 1 0.015265 -0.004163 0.000631 0.000000 -0.010157 0.000000
# 2 -0.004163 0.034408 -0.018341 0.000000 0.012171 0.000000
# 3 0.000631 -0.018341 0.026155 0.000000 -0.024104 0.000000
# 4 0.000000 0.000000 0.000000 -1.200366 0.000000 1.185040
# 5 -0.010157 0.012171 -0.024104 0.000000 0.050139 0.000000
# 6 0.000000 0.000000 0.000000 1.185040 0.000000 -1.127987
#
#
# Mechanical properties :
#
#
# Convention : Reuss Voigt Hill
#
# Bulk Modulus (GPa) = 31.17262 58.99392 45.08327
# Shear Modulus (GPa) = -2.32781 29.59956 13.63588
#
# Velocity S-wave (km/s) = -1.02740 3.66360 2.48660
# Velocity P-wave (km/s) = 3.56761 6.68183 5.35606
#
# Compressibility (1/GPa) = 0.03207944
#
# Stress axis : x y z
#
# Youngs Moduli (GPa) = 65.51086 29.06325 38.23378
#
# Poissons Ratio (x) = 0.12099 -0.02411
# Poissons Ratio (y) = 0.27272 0.70126
# Poissons Ratio (z) = -0.04131 0.53306
#
# Static dielectric constant tensor:
#      x y z
#    x 1.997690 0.000000 0.023960 
#    y 0.000000 1.837590 0.000000 
#    z 0.023960 0.000000 1.829140 
# 
# From -- ./inp_files/186284.got.cif
#   From: 2010.05.17/outbox.cif.g08.bks.cpg/sg15_94_cif.got.tgz:186284.got - 2010.06.03 18:47:42.
