data_PCOD9279031
_publ_section_title
;
Structure prediction by ZEFSAII (Michael W. Deem and Ramdas Pophale) SiO2 
 PCOD9279031
Probable space group: C 2/C
;
_chemical_formula_sum "Si O2"
_cell_formula_units_Z 28
_cell_length_a 18.167730
_cell_length_b 16.608319
_cell_length_c 5.205403
_cell_angle_alpha 90.000000
_cell_angle_beta 52.144140
_cell_angle_gamma 90.000000
_cell_volume 1240.121509
_symmetry_space_group_name_H-M "C 2/C"
_symmetry_group_IT_number 15
_symmetry_cell_setting 'monoclinic'
loop_
_space_group_symop_operation_xyz
x,y,z
-x,y,1/2-z
-x,-y,-z
x,-y,1/2+z
1/2+x,1/2+y,z
1/2-x,1/2+y,1/2-z
1/2-x,1/2-y,-z
1/2+x,1/2-y,1/2+z
loop_
_atom_site_type_symbol
_atom_site_label
_atom_site_fract_x
_atom_site_fract_y
_atom_site_fract_z
Si Si1 0.139485 0.796408 0.995511
Si Si2 0.862992 0.299565 0.504409
Si Si3 0.500000 0.944595 0.250000
Si Si4 0.395793 0.531148 0.158304
O O1 0.116020 0.731664 0.826247
O O2 0.251460 0.805461 0.766767
O O3 0.103803 0.881245 0.966108
O O4 0.106270 0.764871 0.343158
O O5 0.912185 0.384116 0.444224
O O6 0.500000 0.000000 0.500000
O O7 0.350167 0.525858 0.538198
O O8 0.500000 0.500000 0.000000
#
# Coordination Sequence:
#
# PCOD9279031 Si02
#       4
#     8   8   4   8
#     4  10  21  41  63  88 119 157 209 249 302 370
#     4  10  23  41  64  86 115 163 206 255 301 357
#     4  12  26  42  62  92 126 162 208 258 314 368
#     4  10  21  34  53  87 122 151 183 234 301 359
#
# _framework density 22.578434999999999
#
# number of rings (size 3 to 8) (size 9 to 14) (size 15 to 20)
#    0.000    1.714    0.000    3.429    0.000    9.143 
#    0.000    0.000    0.000    0.000    0.000    0.000 
#    0.000    0.000    0.000    0.000    0.000    0.000 
#
# Total GULP energy -78275.355547 kJ/mol
# GULP energy per Si atom -5591.096825 kJ/mol
# Density = 2.252704 g / cm^3
# Si number density = 22.578435 Si / 1000 Ang^3
#
#
#
# Elastic Constant Matrix: (Units=GPa)
#
#
# Indices 1 2 3 4 5 6 
#
# 1 124.4664 72.4142 56.5881 0.0000 31.2192 0.0000
# 2 72.4142 149.1816 20.4615 0.0000 25.5798 0.0000
# 3 56.5881 20.4615 72.3430 0.0000 44.2205 0.0000
# 4 0.0000 0.0000 0.0000 35.8923 0.0000 3.8730
# 5 31.2192 25.5798 44.2205 0.0000 50.5814 0.0000
# 6 0.0000 0.0000 0.0000 3.8730 0.0000 89.7632
#
#
#
# Elastic Compliance Matrix: (Units=1/GPa)
#
#
# Indices 1 2 3 4 5 6 
#
# 1 0.018258 -0.007816 -0.016320 0.000000 0.006952 0.000000
# 2 -0.007816 0.010692 0.007401 0.000000 -0.007053 0.000000
# 3 -0.016320 0.007401 0.044300 0.000000 -0.032399 0.000000
# 4 0.000000 0.000000 0.000000 0.027991 0.000000 -0.001208
# 5 0.006952 -0.007053 -0.032399 0.000000 0.047371 0.000000
# 6 0.000000 0.000000 0.000000 -0.001208 0.000000 0.011193
#
#
# Mechanical properties :
#
#
# Convention : Reuss Voigt Hill
#
# Bulk Modulus (GPa) = 25.13877 71.65760 48.39818
# Shear Modulus (GPa) = 24.20897 48.34920 36.27908
#
# Velocity S-wave (km/s) = 3.27802 4.63253 4.01284
# Velocity P-wave (km/s) = 5.04831 7.77302 6.55383
#
# Compressibility (1/GPa) = 0.03977920
#
# Stress axis : x y z
#
# Youngs Moduli (GPa) = 54.77030 93.53187 22.57330
#
# Poissons Ratio (x) = 0.73106 0.36841
# Poissons Ratio (y) = 0.42809 -0.16707
# Poissons Ratio (z) = 0.89388 -0.69227
#
# Static dielectric constant tensor:
#      x y z
#    x 1.843570 0.000000 0.004180 
#    y 0.000000 1.813860 0.000000 
#    z 0.004180 0.000000 1.991710 
# 
# From -- ./inp_files/9403.got.cif
#   From: 2010.05.17/outbox.cif.g08.bks.cpg/sg15_5_cif.got.tgz:9403.got - 2010.06.03 18:47:42.
