data_PCOD9279815
_publ_section_title
;
Structure prediction by ZEFSAII (Michael W. Deem and Ramdas Pophale) SiO2 
 PCOD9279815
Probable space group: C 2/C
;
_chemical_formula_sum "Si O2"
_cell_formula_units_Z 48
_cell_length_a 24.332683
_cell_length_b 10.931685
_cell_length_c 9.135024
_cell_angle_alpha 90.000000
_cell_angle_beta 89.207583
_cell_angle_gamma 90.000000
_cell_volume 2429.658654
_symmetry_space_group_name_H-M "C 2/C"
_symmetry_group_IT_number 15
_symmetry_cell_setting 'monoclinic'
loop_
_space_group_symop_operation_xyz
x,y,z
-x,y,1/2-z
-x,-y,-z
x,-y,1/2+z
1/2+x,1/2+y,z
1/2-x,1/2+y,1/2-z
1/2-x,1/2-y,-z
1/2+x,1/2-y,1/2+z
loop_
_atom_site_type_symbol
_atom_site_label
_atom_site_fract_x
_atom_site_fract_y
_atom_site_fract_z
Si Si1 0.778871 0.245721 0.209283
Si Si2 0.720056 0.450493 0.029134
Si Si3 0.157547 0.352726 0.762048
Si Si4 0.108042 0.105617 0.643229
Si Si5 0.538603 0.558518 0.372273
Si Si6 0.822055 0.589463 0.926810
O O1 0.798227 0.143417 0.096476
O O2 0.720809 0.193510 0.265660
O O3 0.820385 0.288450 0.330769
O O4 0.762941 0.370198 0.123085
O O5 0.757282 0.558105 0.963566
O O6 0.664562 0.473012 0.120251
O O7 0.124229 0.238854 0.701742
O O8 0.156350 0.471426 0.659973
O O9 0.144605 0.389890 0.927236
O O10 0.070861 0.038929 0.767674
O O11 0.080935 0.121686 0.483184
O O12 0.500000 0.623939 0.250000
O O13 0.500000 0.500000 0.500000
#
# Coordination Sequence:
#
# PCOD9279815 Si02
#       6
#     8   8   8   8   8   8
#     4   9  18  33  47  69 117 163 207 225 260 301
#     4   9  19  31  50  79 111 162 195 233 260 311
#     4  10  22  33  51  80 113 164 202 234 265 316
#     4  10  21  36  59  90 112 137 200 232 281 358
#     4   9  20  42  64  85 109 135 164 240 325 358
#     4  11  19  35  50  73 127 169 196 231 269 298
#
# _framework density 19.755860999999999
#
# number of rings (size 3 to 8) (size 9 to 14) (size 15 to 20)
#    0.000    2.333    1.667    1.500    4.667    0.000 
#    6.000    0.000    0.000    0.000    0.000   15.167 
#    0.000    0.000    0.000    0.000    0.000    0.000 
#
# Total GULP energy -133788.097188 kJ/mol
# GULP energy per Si atom -5574.504049 kJ/mol
# Density = 1.971090 g / cm^3
# Si number density = 19.755861 Si / 1000 Ang^3
#
#
#
# Elastic Constant Matrix: (Units=GPa)
#
#
# Indices 1 2 3 4 5 6 
#
# 1 54.6754 11.4200 32.3619 0.0000 0.3283 0.0000
# 2 11.4200 58.3108 55.0615 0.0000 7.9858 0.0000
# 3 32.3619 55.0615 175.0253 0.0000 21.1295 0.0000
# 4 0.0000 0.0000 0.0000 33.0787 0.0000 2.4867
# 5 0.3283 7.9858 21.1295 0.0000 27.5946 0.0000
# 6 0.0000 0.0000 0.0000 2.4867 0.0000 5.9887
#
#
#
# Elastic Compliance Matrix: (Units=1/GPa)
#
#
# Indices 1 2 3 4 5 6 
#
# 1 0.020777 -0.000726 -0.003976 0.000000 0.003008 0.000000
# 2 -0.000726 0.024465 -0.007392 0.000000 -0.001412 0.000000
# 3 -0.003976 -0.007392 0.009377 0.000000 -0.004994 0.000000
# 4 0.000000 0.000000 0.000000 0.031205 0.000000 -0.012957
# 5 0.003008 -0.001412 -0.004994 0.000000 0.040435 0.000000
# 6 0.000000 0.000000 0.000000 -0.012957 0.000000 0.172362
#
#
# Mechanical properties :
#
#
# Convention : Reuss Voigt Hill
#
# Bulk Modulus (GPa) = 32.86225 53.96647 43.41436
# Shear Modulus (GPa) = 15.01713 25.94360 20.48036
#
# Velocity S-wave (km/s) = 2.76005 3.62776 3.22323
# Velocity P-wave (km/s) = 5.17952 6.70250 5.98961
#
# Compressibility (1/GPa) = 0.03043005
#
# Stress axis : x y z
#
# Youngs Moduli (GPa) = 48.13038 40.87483 106.64537
#
# Poissons Ratio (x) = 0.02969 0.42404
# Poissons Ratio (y) = 0.03496 0.78830
# Poissons Ratio (z) = 0.19138 0.30214
#
# Static dielectric constant tensor:
#      x y z
#    x 1.739120 0.000000 -0.002830 
#    y 0.000000 1.733310 0.000000 
#    z -0.002830 0.000000 1.801440 
# 
# From -- ./inp_files/64891.got.cif
#   From: 2010.05.17/outbox.cif.g08.bks.cpg/sg15_33_cif.got.tgz:64891.got - 2010.06.03 18:47:42.
