data_PCOD9279870
_publ_section_title
;
Structure prediction by ZEFSAII (Michael W. Deem and Ramdas Pophale) SiO2 
 PCOD9279870
Probable space group: C 2/C
;
_chemical_formula_sum "Si O2"
_cell_formula_units_Z 24
_cell_length_a 23.602263
_cell_length_b 5.559395
_cell_length_c 9.266237
_cell_angle_alpha 90.000000
_cell_angle_beta 48.000654
_cell_angle_gamma 90.000000
_cell_volume 903.571456
_symmetry_space_group_name_H-M "C 2/C"
_symmetry_group_IT_number 15
_symmetry_cell_setting 'monoclinic'
loop_
_space_group_symop_operation_xyz
x,y,z
-x,y,1/2-z
-x,-y,-z
x,-y,1/2+z
1/2+x,1/2+y,z
1/2-x,1/2+y,1/2-z
1/2-x,1/2-y,-z
1/2+x,1/2-y,1/2+z
loop_
_atom_site_type_symbol
_atom_site_label
_atom_site_fract_x
_atom_site_fract_y
_atom_site_fract_z
Si Si1 0.807108 0.506799 0.803864
Si Si2 0.048776 0.665929 0.309981
Si Si3 0.659225 0.509039 0.749686
O O1 0.869192 0.470852 0.827779
O O2 0.819003 0.253003 0.702081
O O3 0.833508 0.754112 0.686281
O O4 0.723859 0.510251 0.015510
O O5 0.077775 0.923784 0.321616
O O6 0.000000 0.690072 0.250000
O O7 0.000000 0.500000 0.500000
#
# Coordination Sequence:
#
# PCOD9279870 Si02
#       3
#     8   8   8
#     4   8  16  34  60  80 114 157 204 249 302 368
#     4  10  21  36  60  90 128 162 206 260 319 377
#     4   8  16  34  60  80 116 155 208 248 303 365
#
# _framework density 26.561264000000001
#
# number of rings (size 3 to 8) (size 9 to 14) (size 15 to 20)
#    2.000    1.333    0.000    0.000    0.000    2.667 
#    0.000    0.000   29.333    0.000    0.000    0.000 
#    0.000    0.000    0.000    0.000    0.000    0.000 
#
# Total GULP energy -66907.511165 kJ/mol
# GULP energy per Si atom -5575.625930 kJ/mol
# Density = 2.650081 g / cm^3
# Si number density = 26.561264 Si / 1000 Ang^3
#
#
#
# Elastic Constant Matrix: (Units=GPa)
#
#
# Indices 1 2 3 4 5 6 
#
# 1 195.1569 40.9792 72.8438 0.0000 -31.4503 0.0000
# 2 40.9792 263.2691 43.7080 0.0000 2.5824 0.0000
# 3 72.8438 43.7080 111.8819 0.0000 -34.7903 0.0000
# 4 0.0000 0.0000 0.0000 34.6818 0.0000 -22.4598
# 5 -31.4503 2.5824 -34.7903 0.0000 39.8127 0.0000
# 6 0.0000 0.0000 0.0000 -22.4598 0.0000 25.0410
#
#
#
# Elastic Compliance Matrix: (Units=1/GPa)
#
#
# Indices 1 2 3 4 5 6 
#
# 1 0.006955 -0.000511 -0.003584 0.000000 0.002396 0.000000
# 2 -0.000511 0.004254 -0.002115 0.000000 -0.002528 0.000000
# 3 -0.003584 -0.002115 0.015461 0.000000 0.010817 0.000000
# 4 0.000000 0.000000 0.000000 0.068789 0.000000 0.061698
# 5 0.002396 -0.002528 0.010817 0.000000 0.036627 0.000000
# 6 0.000000 0.000000 0.000000 0.061698 0.000000 0.095273
#
#
# Mechanical properties :
#
#
# Convention : Reuss Voigt Hill
#
# Bulk Modulus (GPa) = 70.17406 98.37446 84.27426
# Shear Modulus (GPa) = 20.44747 47.42555 33.93651
#
# Velocity S-wave (km/s) = 2.77758 4.23012 3.57833
# Velocity P-wave (km/s) = 6.06330 7.80870 6.99069
#
# Compressibility (1/GPa) = 0.01425028
#
# Stress axis : x y z
#
# Youngs Moduli (GPa) = 143.77861 235.07774 64.67836
#
# Poissons Ratio (x) = 0.12016 0.23178
# Poissons Ratio (y) = 0.07349 0.13680
# Poissons Ratio (z) = 0.51525 0.49722
#
# Static dielectric constant tensor:
#      x y z
#    x 2.048900 0.000000 -0.074240 
#    y 0.000000 2.252490 0.000000 
#    z -0.074240 0.000000 2.008630 
# 
# From -- ./inp_files/115181.got.cif
#   From: 2010.05.17/outbox.cif.g08.bks.cpg/sg15_58_cif.got.tgz:115181.got - 2010.06.03 18:47:42.
