data_PCOD9279929
_publ_section_title
;
Structure prediction by ZEFSAII (Michael W. Deem and Ramdas Pophale) SiO2 
 PCOD9279929
Probable space group: C 2/C
;
_chemical_formula_sum "Si O2"
_cell_formula_units_Z 56
_cell_length_a 5.635370
_cell_length_b 21.291228
_cell_length_c 23.781151
_cell_angle_alpha 90.000000
_cell_angle_beta 108.979129
_cell_angle_gamma 90.000000
_cell_volume 2698.239666
_symmetry_space_group_name_H-M "C 2/C"
_symmetry_group_IT_number 15
_symmetry_cell_setting 'monoclinic'
loop_
_space_group_symop_operation_xyz
x,y,z
-x,y,1/2-z
-x,-y,-z
x,-y,1/2+z
1/2+x,1/2+y,z
1/2-x,1/2+y,1/2-z
1/2-x,1/2-y,-z
1/2+x,1/2-y,1/2+z
loop_
_atom_site_type_symbol
_atom_site_label
_atom_site_fract_x
_atom_site_fract_y
_atom_site_fract_z
Si Si1 0.791612 0.145118 0.781271
Si Si2 0.711091 0.796555 0.720814
Si Si3 0.460676 0.145052 0.094553
Si Si4 0.009238 0.096631 0.476814
Si Si5 0.317646 0.014110 0.434245
Si Si6 0.155391 0.884936 0.407335
Si Si7 0.557688 0.192666 0.984941
O O1 0.500000 0.123868 0.750000
O O2 0.785151 0.220884 0.778636
O O3 0.000000 0.125199 0.750000
O O4 0.911960 0.126746 0.850801
O O5 0.500000 0.816513 0.750000
O O6 0.611313 0.822824 0.654741
O O7 0.000000 0.817769 0.750000
O O8 0.165540 0.134715 0.079916
O O9 0.576622 0.075737 0.089627
O O10 0.458232 0.190513 0.040469
O O11 0.894023 0.100154 0.530242
O O12 0.061134 0.033339 0.446764
O O13 0.271834 0.130639 0.505582
O O14 0.500000 0.000000 0.500000
O O15 0.284040 0.950053 0.396984
O O16 0.336204 0.823179 0.423691
O O17 0.750000 0.250000 0.000000
#
# Coordination Sequence:
#
# PCOD9279929 Si02
#       7
#     8   8   8   8   8   8   8
#     4  10  25  45  66  94 126 173 225 270 323 383
#     4  10  24  44  69  92 126 173 223 272 325 381
#     4  10  23  38  63  92 126 166 215 266 323 392
#     4  10  21  36  61  93 125 163 207 263 321 396
#     4  11  20  40  59  94 128 166 210 251 332 396
#     4  11  23  38  65  90 128 174 209 266 330 390
#     4  10  23  34  58 100 133 160 204 268 335 398
#
# _framework density 20.754270999999999
#
# number of rings (size 3 to 8) (size 9 to 14) (size 15 to 20)
#    0.000    1.714    4.286    0.429   10.000    2.286 
#    0.000    0.714    0.000    0.000    0.000    0.000 
#    0.000    0.000    0.000    0.000    0.000    0.000 
#
# Total GULP energy -155902.027414 kJ/mol
# GULP energy per Si atom -5567.929550 kJ/mol
# Density = 2.070703 g / cm^3
# Si number density = 20.754271 Si / 1000 Ang^3
#
#
#
# Elastic Constant Matrix: (Units=GPa)
#
#
# Indices 1 2 3 4 5 6 
#
# 1 96.5351 18.8566 42.9551 0.0000 29.7019 0.0000
# 2 18.8566 45.1778 9.8391 0.0000 5.4254 0.0000
# 3 42.9551 9.8391 94.3670 0.0000 37.1836 0.0000
# 4 0.0000 0.0000 0.0000 22.5726 0.0000 5.4756
# 5 29.7019 5.4254 37.1836 0.0000 36.5667 0.0000
# 6 0.0000 0.0000 0.0000 5.4756 0.0000 32.3837
#
#
#
# Elastic Compliance Matrix: (Units=1/GPa)
#
#
# Indices 1 2 3 4 5 6 
#
# 1 0.015288 -0.004677 -0.003090 0.000000 -0.008582 0.000000
# 2 -0.004677 0.024136 -0.000790 0.000000 0.001021 0.000000
# 3 -0.003090 -0.000790 0.018439 0.000000 -0.016123 0.000000
# 4 0.000000 0.000000 0.000000 0.046196 0.000000 -0.007811
# 5 -0.008582 0.001021 -0.016123 0.000000 0.050562 0.000000
# 6 0.000000 0.000000 0.000000 -0.007811 0.000000 0.032200
#
#
# Mechanical properties :
#
#
# Convention : Reuss Voigt Hill
#
# Bulk Modulus (GPa) = 24.54050 42.15350 33.34700
# Shear Modulus (GPa) = 22.98658 29.26654 26.12656
#
# Velocity S-wave (km/s) = 3.33161 3.75926 3.55188
# Velocity P-wave (km/s) = 5.16231 6.26080 5.73790
#
# Compressibility (1/GPa) = 0.04074897
#
# Stress axis : x y z
#
# Youngs Moduli (GPa) = 65.41115 41.43117 54.23417
#
# Poissons Ratio (x) = 0.19379 0.16756
# Poissons Ratio (y) = 0.30596 0.04284
# Poissons Ratio (z) = 0.20209 0.03273
#
# Static dielectric constant tensor:
#      x y z
#    x 1.927000 0.000000 -0.018280 
#    y 0.000000 1.830280 0.000000 
#    z -0.018280 0.000000 1.713430 
# 
# From -- ./inp_files/261407.got.cif
#   From: 2010.05.17/outbox.cif.g08.bks.cpg/sg15_131_cif.got.tgz:261407.got - 2010.06.03 18:47:42.
