data_PCOD9279096
_publ_section_title
;
Structure prediction by ZEFSAII (Michael W. Deem and Ramdas Pophale) SiO2 
 PCOD9279096
Probable space group: C 2/C
;
_chemical_formula_sum "Si O2"
_cell_formula_units_Z 60
_cell_length_a 21.691184
_cell_length_b 5.467398
_cell_length_c 23.951718
_cell_angle_alpha 90.000000
_cell_angle_beta 120.173723
_cell_angle_gamma 90.000000
_cell_volume 2455.660538
_symmetry_space_group_name_H-M "C 2/C"
_symmetry_group_IT_number 15
_symmetry_cell_setting 'monoclinic'
loop_
_space_group_symop_operation_xyz
x,y,z
-x,y,1/2-z
-x,-y,-z
x,-y,1/2+z
1/2+x,1/2+y,z
1/2-x,1/2+y,1/2-z
1/2-x,1/2-y,-z
1/2+x,1/2-y,1/2+z
loop_
_atom_site_type_symbol
_atom_site_label
_atom_site_fract_x
_atom_site_fract_y
_atom_site_fract_z
Si Si1 0.856349 0.790239 0.672039
Si Si2 0.158723 0.823324 0.644850
Si Si3 0.783684 0.319146 0.827185
Si Si4 0.567065 0.904892 0.872734
Si Si5 0.500000 0.588939 0.750000
Si Si6 0.852730 0.878084 0.459449
Si Si7 0.309617 0.562186 0.545125
Si Si8 0.002545 0.686171 0.948481
O O1 0.883689 0.558836 0.648334
O O2 0.797292 0.753495 0.692658
O O3 0.814249 0.961094 0.609062
O O4 0.928957 0.924958 0.723698
O O5 0.200503 0.590635 0.687158
O O6 0.074577 0.783615 0.603885
O O7 0.179592 0.080330 0.683744
O O8 0.177319 0.889287 0.588379
O O9 0.830741 0.331014 0.906414
O O10 0.532308 0.065864 0.905008
O O11 0.511119 0.759292 0.809009
O O12 0.616548 0.710861 0.926265
O O13 0.937110 0.880154 0.506124
O O14 0.815313 0.851269 0.501441
O O15 0.250000 0.750000 0.500000
O O16 0.000000 0.500000 0.000000
#
# Coordination Sequence:
#
# PCOD9279096 Si02
#       8
#     8   8   8   8   4   8   8   8
#     4  11  23  43  65  98 133 179 240 302 357 426
#     4  10  22  38  57  97 140 193 225 270 342 429
#     4  10  23  37  64  94 139 186 226 283 351 418
#     4  11  25  42  69 101 136 191 233 302 357 427
#     4  10  26  48  70 100 132 178 256 304 366 420
#     4  10  21  34  56  93 149 184 225 263 349 426
#     4  11  22  33  59 100 146 175 223 279 366 438
#     4  12  21  40  65 101 152 186 230 279 349 439
#
# _framework density 24.433344000000002
#
# number of rings (size 3 to 8) (size 9 to 14) (size 15 to 20)
#    0.800    0.533    2.667    3.200    5.600    2.133 
#    0.000    0.000    0.000    0.000    6.933    0.000 
#    0.000    0.000    0.000    0.000    0.000    0.000 
#
# Total GULP energy -167617.641014 kJ/mol
# GULP energy per Si atom -5587.254700 kJ/mol
# Density = 2.437773 g / cm^3
# Si number density = 24.433344 Si / 1000 Ang^3
#
#
#
# Elastic Constant Matrix: (Units=GPa)
#
#
# Indices 1 2 3 4 5 6 
#
# 1 93.7964 24.0521 40.8616 0.0014 8.8635 -0.0006
# 2 24.0521 110.6558 23.8315 0.0048 5.0193 -0.0032
# 3 40.8616 23.8315 134.7559 0.0013 23.3044 -0.0001
# 4 0.0014 0.0048 0.0013 -15.8091 -0.0007 7.1472
# 5 8.8635 5.0193 23.3044 -0.0007 35.7433 -0.0005
# 6 -0.0006 -0.0032 -0.0001 7.1472 -0.0005 37.3305
#
#
#
# Elastic Compliance Matrix: (Units=1/GPa)
#
#
# Indices 1 2 3 4 5 6 
#
# 1 0.012713 -0.002004 -0.003386 0.000000 -0.000664 0.000000
# 2 -0.002004 0.009713 -0.001082 0.000003 -0.000161 0.000000
# 3 -0.003386 -0.001082 0.009543 0.000000 -0.005231 0.000000
# 4 0.000000 0.000003 0.000000 -0.058216 -0.000002 0.011146
# 5 -0.000664 -0.000161 -0.005231 -0.000002 0.031575 0.000001
# 6 0.000000 0.000000 0.000000 0.011146 0.000001 0.024654
#
#
# Mechanical properties :
#
#
# Convention : Reuss Voigt Hill
#
# Bulk Modulus (GPa) = 52.56074 57.41095 54.98584
# Shear Modulus (GPa) = 101.48593 28.15048 64.81821
#
# Velocity S-wave (km/s) = 6.45182 3.39799 5.15618
# Velocity P-wave (km/s) = 8.77838 6.24044 7.61587
#
# Compressibility (1/GPa) = 0.01902561
#
# Stress axis : x y z
#
# Youngs Moduli (GPa) = 78.65998 102.95480 104.78403
#
# Poissons Ratio (x) = 0.20632 0.35477
# Poissons Ratio (y) = 0.15763 0.11339
# Poissons Ratio (z) = 0.26632 0.11141
#
# Static dielectric constant tensor:
#      x y z
#    x 1.820310 -0.000010 0.152750 
#    y -0.000010 2.003010 0.000010 
#    z 0.152750 0.000010 1.664480 
# 
# From -- ./inp_files/300138.got.cif
#   From: 2010.05.17/outbox.cif.g08.bks.cpg/sg15_151_cif.got.tgz:300138.got - 2010.06.03 18:47:42.
