data_PCOD9279249
_publ_section_title
;
Structure prediction by ZEFSAII (Michael W. Deem and Ramdas Pophale) SiO2 
 PCOD9279249
Probable space group: C 2/C
;
_chemical_formula_sum "Si O2"
_cell_formula_units_Z 56
_cell_length_a 5.098027
_cell_length_b 29.784269
_cell_length_c 20.630266
_cell_angle_alpha 90.000000
_cell_angle_beta 120.608371
_cell_angle_gamma 90.000000
_cell_volume 2696.058938
_symmetry_space_group_name_H-M "C 2/C"
_symmetry_group_IT_number 15
_symmetry_cell_setting 'monoclinic'
loop_
_space_group_symop_operation_xyz
x,y,z
-x,y,1/2-z
-x,-y,-z
x,-y,1/2+z
1/2+x,1/2+y,z
1/2-x,1/2+y,1/2-z
1/2-x,1/2-y,-z
1/2+x,1/2-y,1/2+z
loop_
_atom_site_type_symbol
_atom_site_label
_atom_site_fract_x
_atom_site_fract_y
_atom_site_fract_z
Si Si1 0.640056 0.833402 0.195542
Si Si2 0.858632 0.767157 0.803884
Si Si3 0.646686 0.547017 0.197031
Si Si4 0.071729 0.501877 0.084489
Si Si5 0.903891 0.858812 0.662436
Si Si6 0.397063 0.095233 0.562481
Si Si7 0.315767 0.096571 0.044892
O O1 0.500000 0.837269 0.250000
O O2 0.592780 0.782646 0.162209
O O3 0.504975 0.868947 0.128591
O O4 0.000000 0.839935 0.250000
O O5 0.500000 0.775086 0.750000
O O6 0.000000 0.763873 0.750000
O O7 0.002075 0.810994 0.855377
O O8 0.500000 0.549178 0.250000
O O9 0.431771 0.510378 0.136607
O O10 0.581952 0.596773 0.159937
O O11 0.000000 0.537184 0.250000
O O12 0.953996 0.455071 0.097391
O O13 0.903023 0.547463 0.085289
O O14 0.000000 0.500000 0.000000
O O15 0.547244 0.869006 0.608504
O O16 0.000000 0.855670 0.750000
O O17 0.582900 0.097921 0.518330
O O18 0.044050 0.102577 0.500438
#
# Coordination Sequence:
#
# PCOD9279249 Si02
#       7
#     8   8   8   8   8   8   8
#     4  10  21  39  61  84 111 148 193 238 280 334
#     4   9  18  33  56  83 111 145 186 228 280 344
#     4  10  21  35  54  82 112 138 178 236 280 317
#     4   9  21  38  57  77 108 150 187 220 273 341
#     4   9  19  35  58  85 113 148 186 229 284 345
#     4  11  22  39  57  80 112 150 189 234 282 332
#     4  10  22  37  57  83 113 147 187 231 282 339
#
# _framework density 20.771059999999999
#
# number of rings (size 3 to 8) (size 9 to 14) (size 15 to 20)
#    0.000    2.286    0.000    1.714    0.000   15.429 
#    0.000    2.857    0.000    0.000    0.000    0.000 
#    0.000    0.000    0.000    0.000    0.000    0.000 
#
# Total GULP energy -156368.490897 kJ/mol
# GULP energy per Si atom -5584.588961 kJ/mol
# Density = 2.072378 g / cm^3
# Si number density = 20.771060 Si / 1000 Ang^3
#
#
#
# Elastic Constant Matrix: (Units=GPa)
#
#
# Indices 1 2 3 4 5 6 
#
# 1 100.9058 26.3601 43.1897 0.0000 25.2268 0.0000
# 2 26.3601 176.3839 89.2190 0.0000 20.2028 0.0000
# 3 43.1897 89.2190 132.9598 0.0000 28.6733 0.0000
# 4 0.0000 0.0000 0.0000 13.8662 0.0000 -1.0434
# 5 25.2268 20.2028 28.6733 0.0000 36.1392 0.0000
# 6 0.0000 0.0000 0.0000 -1.0434 0.0000 12.6687
#
#
#
# Elastic Compliance Matrix: (Units=1/GPa)
#
#
# Indices 1 2 3 4 5 6 
#
# 1 0.012765 0.000343 -0.002912 0.000000 -0.006792 0.000000
# 2 0.000343 0.008594 -0.005779 0.000000 -0.000458 0.000000
# 3 -0.002912 -0.005779 0.013524 0.000000 -0.005466 0.000000
# 4 0.000000 0.000000 0.000000 0.072567 0.000000 0.005977
# 5 -0.006792 -0.000458 -0.005466 0.000000 0.037005 0.000000
# 6 0.000000 0.000000 0.000000 0.005977 0.000000 0.079427
#
#
# Mechanical properties :
#
#
# Convention : Reuss Voigt Hill
#
# Bulk Modulus (GPa) = 54.98586 80.86524 67.92555
# Shear Modulus (GPa) = 20.27235 29.30021 24.78628
#
# Velocity S-wave (km/s) = 3.12747 3.75991 3.45818
# Velocity P-wave (km/s) = 6.29057 7.60693 6.97985
#
# Compressibility (1/GPa) = 0.01818649
#
# Stress axis : x y z
#
# Youngs Moduli (GPa) = 78.33908 116.35990 73.94251
#
# Poissons Ratio (x) = -0.03994 0.21533
# Poissons Ratio (y) = -0.02689 0.42735
# Poissons Ratio (z) = 0.22813 0.67249
#
# Static dielectric constant tensor:
#      x y z
#    x 1.864800 0.000000 -0.050990 
#    y 0.000000 1.815210 0.000000 
#    z -0.050990 0.000000 1.686700 
# 
# From -- ./inp_files/286783.got.cif
#   From: 2010.05.17/outbox.cif.g08.bks.cpg/sg15_144_cif.got.tgz:286783.got - 2010.06.03 18:47:42.
