data_PCOD9279160
_publ_section_title
;
Structure prediction by ZEFSAII (Michael W. Deem and Ramdas Pophale) SiO2 
 PCOD9279160
Probable space group: C 2/C
;
_chemical_formula_sum "Si O2"
_cell_formula_units_Z 48
_cell_length_a 17.881149
_cell_length_b 18.105752
_cell_length_c 15.783198
_cell_angle_alpha 90.000000
_cell_angle_beta 32.454985
_cell_angle_gamma 90.000000
_cell_volume 2742.126366
_symmetry_space_group_name_H-M "C 2/C"
_symmetry_group_IT_number 15
_symmetry_cell_setting 'monoclinic'
loop_
_space_group_symop_operation_xyz
x,y,z
-x,y,1/2-z
-x,-y,-z
x,-y,1/2+z
1/2+x,1/2+y,z
1/2-x,1/2+y,1/2-z
1/2-x,1/2-y,-z
1/2+x,1/2-y,1/2+z
loop_
_atom_site_type_symbol
_atom_site_label
_atom_site_fract_x
_atom_site_fract_y
_atom_site_fract_z
Si Si1 0.533957 0.826467 0.317156
Si Si2 0.150848 0.127183 0.786821
Si Si3 0.341010 0.321847 0.407080
Si Si4 0.332979 0.396761 0.595172
Si Si5 0.276928 0.231186 0.174814
Si Si6 0.628413 0.967596 0.324024
O O1 0.500000 0.819121 0.250000
O O2 0.397537 0.802597 0.500727
O O3 0.659801 0.773307 0.230187
O O4 0.575033 0.910824 0.302774
O O5 0.180581 0.134225 0.658875
O O6 0.156067 0.207910 0.825822
O O7 0.275428 0.082141 0.708087
O O8 0.999256 0.091212 0.947890
O O9 0.500000 0.296741 0.250000
O O10 0.250000 0.250000 0.500000
O O11 0.319477 0.367384 0.512607
O O12 0.287970 0.333777 0.705461
O O13 0.230581 0.466174 0.699567
O O14 0.500000 0.000000 0.500000
#
# Coordination Sequence:
#
# PCOD9279160 Si02
#       6
#     8   8   8   8   8   8
#     4  11  24  41  62  90 119 155 210 252 306 356
#     4  10  22  39  61  90 122 160 199 242 307 362
#     4  10  21  34  60  92 121 153 197 245 291 354
#     4  11  21  39  60  88 126 159 198 243 306 362
#     4  11  20  38  67  86 117 160 198 256 298 357
#     4  11  24  39  63  86 119 165 198 249 307 362
#
# _framework density 17.504663000000001
#
# number of rings (size 3 to 8) (size 9 to 14) (size 15 to 20)
#    0.000    1.333    5.000    1.000    0.000    2.667 
#    0.000    0.000    0.000    0.000    0.000    0.000 
#    0.000    0.000    0.000    0.000    0.000    0.000 
#
# Total GULP energy -133910.623893 kJ/mol
# GULP energy per Si atom -5579.609329 kJ/mol
# Density = 1.746482 g / cm^3
# Si number density = 17.504663 Si / 1000 Ang^3
#
#
#
# Elastic Constant Matrix: (Units=GPa)
#
#
# Indices 1 2 3 4 5 6 
#
# 1 112.8908 35.9970 48.9841 -0.0006 8.9258 0.0004
# 2 35.9970 86.5197 43.0259 -0.0005 -5.4902 0.0004
# 3 48.9841 43.0259 101.2107 -0.0011 2.8095 0.0009
# 4 -0.0006 -0.0005 -0.0011 21.7644 0.0005 -15.6250
# 5 8.9258 -5.4902 2.8095 0.0005 21.2322 -0.0005
# 6 0.0004 0.0004 0.0009 -15.6250 -0.0005 14.3724
#
#
#
# Elastic Compliance Matrix: (Units=1/GPa)
#
#
# Indices 1 2 3 4 5 6 
#
# 1 0.012223 -0.003247 -0.004386 0.000000 -0.005398 0.000000
# 2 -0.003247 0.015987 -0.005397 0.000000 0.006213 0.000000
# 3 -0.004386 -0.005397 0.014338 0.000000 -0.001449 0.000000
# 4 0.000000 0.000000 0.000000 0.209311 0.000000 0.227553
# 5 -0.005398 0.006213 -0.001449 0.000000 0.051166 0.000002
# 6 0.000000 0.000000 0.000000 0.227553 0.000002 0.316962
#
#
# Mechanical properties :
#
#
# Convention : Reuss Voigt Hill
#
# Bulk Modulus (GPa) = 60.64975 61.84835 61.24905
# Shear Modulus (GPa) = 7.67409 22.98141 15.32775
#
# Velocity S-wave (km/s) = 2.09608 3.62729 2.96233
# Velocity P-wave (km/s) = 6.37033 7.27683 6.83861
#
# Compressibility (1/GPa) = 0.01648811
#
# Stress axis : x y z
#
# Youngs Moduli (GPa) = 81.81139 62.54923 69.74655
#
# Poissons Ratio (x) = 0.20311 0.30588
# Poissons Ratio (y) = 0.26565 0.37645
# Poissons Ratio (z) = 0.35879 0.33760
#
# Static dielectric constant tensor:
#      x y z
#    x 1.501310 0.000000 -0.080950 
#    y 0.000000 1.588040 0.000000 
#    z -0.080950 0.000000 1.526050 
# 
# From -- ./inp_files/48337.got.cif
#   From: 2010.05.17/outbox.cif.g08.bks.cpg/sg15_25_cif.got.tgz:48337.got - 2010.06.03 18:47:42.
