data_PCOD9279493
_publ_section_title
;
Structure prediction by ZEFSAII (Michael W. Deem and Ramdas Pophale) SiO2 
 PCOD9279493
Probable space group: C 2/C
;
_chemical_formula_sum "Si O2"
_cell_formula_units_Z 60
_cell_length_a 31.189230
_cell_length_b 14.668973
_cell_length_c 18.545051
_cell_angle_alpha 90.000000
_cell_angle_beta 18.410862
_cell_angle_gamma 90.000000
_cell_volume 2679.688332
_symmetry_space_group_name_H-M "C 2/C"
_symmetry_group_IT_number 15
_symmetry_cell_setting 'monoclinic'
loop_
_space_group_symop_operation_xyz
x,y,z
-x,y,1/2-z
-x,-y,-z
x,-y,1/2+z
1/2+x,1/2+y,z
1/2-x,1/2+y,1/2-z
1/2-x,1/2-y,-z
1/2+x,1/2-y,1/2+z
loop_
_atom_site_type_symbol
_atom_site_label
_atom_site_fract_x
_atom_site_fract_y
_atom_site_fract_z
Si Si1 0.500000 0.421063 0.750000
Si Si2 0.371881 0.784310 0.253715
Si Si3 0.772964 0.138012 0.316278
Si Si4 0.392197 0.258595 0.014979
Si Si5 0.782052 0.513238 0.852811
Si Si6 0.646965 0.170707 0.988688
Si Si7 0.876682 0.512430 0.052316
Si Si8 0.319703 0.980891 0.948470
O O1 0.555250 0.355997 0.597449
O O2 0.626218 0.478450 0.577421
O O3 0.250000 0.750000 0.500000
O O4 0.381877 0.712869 0.170456
O O5 0.333802 0.883959 0.285798
O O6 0.498389 0.783244 0.105774
O O7 0.648468 0.204898 0.493096
O O8 0.743220 0.066744 0.297408
O O9 0.774312 0.064712 0.378518
O O10 0.255454 0.261961 0.281757
O O11 0.865105 0.471522 0.654816
O O12 0.800517 0.458149 0.896392
O O13 0.634564 0.095371 0.945168
O O14 0.500000 0.205781 0.250000
O O15 0.697600 0.106874 0.973829
O O16 0.030336 0.525085 0.779600
#
# Coordination Sequence:
#
# PCOD9279493 Si02
#       8
#     4   8   8   8   8   8   8   8
#     4  12  22  34  60  88 128 160 190 250 334 370
#     4  12  22  34  61  94 125 156 199 261 321 372
#     4  11  21  37  59  92 123 157 211 262 310 364
#     4  12  22  38  64  92 125 164 202 263 323 372
#     4  12  22  39  57  94 125 162 209 257 319 370
#     4   9  20  41  62  86 119 170 211 251 312 382
#     4  10  21  36  62  86 120 167 203 261 311 362
#     4  10  21  35  62  88 121 156 218 264 298 372
#
# _framework density 22.390664000000001
#
# number of rings (size 3 to 8) (size 9 to 14) (size 15 to 20)
#    0.000    1.067    5.333    2.400    3.733    0.000 
#    2.400    2.000    1.467   11.200    0.000    0.000 
#    0.000    0.000    0.000    0.000    0.000    0.000 
#
# Total GULP energy -167266.340840 kJ/mol
# GULP energy per Si atom -5575.544695 kJ/mol
# Density = 2.233970 g / cm^3
# Si number density = 22.390664 Si / 1000 Ang^3
#
#
#
# Elastic Constant Matrix: (Units=GPa)
#
#
# Indices 1 2 3 4 5 6 
#
# 1 104.8479 -9.0180 -7.2547 0.0001 2.4389 0.0000
# 2 -9.0180 16.5289 10.2938 0.0001 0.7857 0.0000
# 3 -7.2547 10.2938 60.4592 0.0002 -1.8404 0.0000
# 4 0.0001 0.0001 0.0002 14.9476 -0.0001 -2.3589
# 5 2.4389 0.7857 -1.8404 -0.0001 36.9924 0.0000
# 6 0.0000 0.0000 0.0000 -2.3589 0.0000 23.5536
#
#
#
# Elastic Compliance Matrix: (Units=1/GPa)
#
#
# Indices 1 2 3 4 5 6 
#
# 1 0.010034 0.005341 0.000271 0.000000 -0.000761 0.000000
# 2 0.005341 0.070670 -0.011465 0.000000 -0.002423 0.000000
# 3 0.000271 -0.011465 0.018560 0.000000 0.001149 0.000000
# 4 0.000000 0.000000 0.000000 0.067975 0.000000 0.006808
# 5 -0.000761 -0.002423 0.001149 0.000000 0.027191 0.000000
# 6 0.000000 0.000000 0.000000 0.006808 0.000000 0.043138
#
#
# Mechanical properties :
#
#
# Convention : Reuss Voigt Hill
#
# Bulk Modulus (GPa) = 11.42096 18.87536 15.14816
# Shear Modulus (GPa) = 17.95602 27.61971 22.78786
#
# Velocity S-wave (km/s) = 2.83493 3.51598 3.19366
# Velocity P-wave (km/s) = 3.97839 4.99311 4.51435
#
# Compressibility (1/GPa) = 0.08755835
#
# Stress axis : x y z
#
# Youngs Moduli (GPa) = 99.66588 14.15030 53.88026
#
# Poissons Ratio (x) = -0.07558 -0.01462
# Poissons Ratio (y) = -0.53236 0.61774
# Poissons Ratio (z) = -0.02704 0.16223
#
# Static dielectric constant tensor:
#      x y z
#    x 1.860540 0.000000 0.027180 
#    y 0.000000 1.871730 0.000000 
#    z 0.027180 0.000000 1.894260 
# 
# From -- ./inp_files/145681.got.cif
#   From: 2010.05.17/outbox.cif.g08.bks.cpg/sg15_73_cif.got.tgz:145681.got - 2010.06.03 18:47:42.
