data_PCOD9279411
_publ_section_title
;
Structure prediction by ZEFSAII (Michael W. Deem and Ramdas Pophale) SiO2 
 PCOD9279411
Probable space group: C 2/C
;
_chemical_formula_sum "Si O2"
_cell_formula_units_Z 56
_cell_length_a 14.270784
_cell_length_b 24.615963
_cell_length_c 9.086583
_cell_angle_alpha 90.000000
_cell_angle_beta 123.651181
_cell_angle_gamma 90.000000
_cell_volume 2657.120185
_symmetry_space_group_name_H-M "C 2/C"
_symmetry_group_IT_number 15
_symmetry_cell_setting 'monoclinic'
loop_
_space_group_symop_operation_xyz
x,y,z
-x,y,1/2-z
-x,-y,-z
x,-y,1/2+z
1/2+x,1/2+y,z
1/2-x,1/2+y,1/2-z
1/2-x,1/2-y,-z
1/2+x,1/2-y,1/2+z
loop_
_atom_site_type_symbol
_atom_site_label
_atom_site_fract_x
_atom_site_fract_y
_atom_site_fract_z
Si Si1 0.865839 0.342410 0.368225
Si Si2 0.200286 0.250835 0.789859
Si Si3 0.000000 0.304003 0.750000
Si Si4 0.912554 0.020443 0.542960
Si Si5 0.000000 0.725528 0.750000
Si Si6 0.697499 0.589969 0.575381
Si Si7 0.018268 0.869770 0.434283
Si Si8 0.155309 0.183313 0.300624
O O1 0.754153 0.304001 0.273428
O O2 0.815973 0.397340 0.256880
O O3 0.919070 0.340197 0.576848
O O4 0.956592 0.313854 0.341055
O O5 0.071418 0.264397 0.706696
O O6 0.244460 0.296678 0.716475
O O7 0.250000 0.250000 0.000000
O O8 0.884729 0.082961 0.484503
O O9 0.000000 0.025354 0.750000
O O10 0.821676 0.973131 0.484567
O O11 0.000000 0.000000 0.500000
O O12 0.894102 0.767236 0.644211
O O13 0.596677 0.604812 0.601354
O O14 0.681337 0.630880 0.422675
O O15 0.059657 0.828733 0.594634
O O16 0.000000 0.851188 0.250000
#
# Coordination Sequence:
#
# PCOD9279411 Si02
#       8
#     8   8   4   8   4   8   8   8
#     4  10  24  37  58  84 113 167 211 246 301 358
#     4   9  22  38  56  82 114 161 210 245 300 356
#     4  10  22  42  54  74 122 150 204 272 290 338
#     4   9  18  35  57  85 123 152 185 246 312 366
#     4  10  22  40  52  84 122 166 200 248 288 348
#     4  11  21  35  58  86 120 157 208 241 308 376
#     4  10  21  35  59  89 126 153 195 248 313 368
#     4  11  21  38  58  88 123 168 199 250 303 368
#
# _framework density 21.075448000000002
#
# number of rings (size 3 to 8) (size 9 to 14) (size 15 to 20)
#    0.000    2.000    1.429    1.714    8.000    2.286 
#    5.143    0.000    0.000    0.000    0.000    2.000 
#    0.000    0.000    0.000    0.000    0.000    0.000 
#
# Total GULP energy -156037.190352 kJ/mol
# GULP energy per Si atom -5572.756798 kJ/mol
# Density = 2.102748 g / cm^3
# Si number density = 21.075448 Si / 1000 Ang^3
#
#
#
# Elastic Constant Matrix: (Units=GPa)
#
#
# Indices 1 2 3 4 5 6 
#
# 1 101.5276 29.4191 18.0111 0.0000 -11.0544 0.0000
# 2 29.4191 86.4597 34.5428 0.0000 0.9945 0.0000
# 3 18.0111 34.5428 99.8904 0.0000 -1.0438 0.0000
# 4 0.0000 0.0000 0.0000 10.3933 0.0000 -1.5914
# 5 -11.0544 0.9945 -1.0438 0.0000 32.9612 0.0000
# 6 0.0000 0.0000 0.0000 -1.5914 0.0000 28.0314
#
#
#
# Elastic Compliance Matrix: (Units=1/GPa)
#
#
# Indices 1 2 3 4 5 6 
#
# 1 0.011469 -0.003641 -0.000768 0.000000 0.003932 0.000000
# 2 -0.003641 0.014586 -0.004406 0.000000 -0.001801 0.000000
# 3 -0.000768 -0.004406 0.011676 0.000000 0.000245 0.000000
# 4 0.000000 0.000000 0.000000 0.097060 0.000000 0.005510
# 5 0.003932 -0.001801 0.000245 0.000000 0.031719 0.000000
# 6 0.000000 0.000000 0.000000 0.005510 0.000000 0.035987
#
#
# Mechanical properties :
#
#
# Convention : Reuss Voigt Hill
#
# Bulk Modulus (GPa) = 49.74965 50.20263 49.97614
# Shear Modulus (GPa) = 22.04322 28.00416 25.02369
#
# Velocity S-wave (km/s) = 3.23758 3.64917 3.44952
# Velocity P-wave (km/s) = 6.13454 6.45193 6.29524
#
# Compressibility (1/GPa) = 0.02010064
#
# Stress axis : x y z
#
# Youngs Moduli (GPa) = 87.19257 68.55848 85.64800
#
# Poissons Ratio (x) = 0.24962 0.06576
# Poissons Ratio (y) = 0.31746 0.37739
# Poissons Ratio (z) = 0.06695 0.30209
#
# Static dielectric constant tensor:
#      x y z
#    x 1.883570 0.000000 0.022680 
#    y 0.000000 1.828310 0.000000 
#    z 0.022680 0.000000 1.778560 
# 
# From -- ./inp_files/43620.got.cif
#   From: 2010.05.17/outbox.cif.g08.bks.cpg/sg15_22_cif.got.tgz:43620.got - 2010.06.03 18:47:42.
