data_PCOD9279598
_publ_section_title
;
Structure prediction by ZEFSAII (Michael W. Deem and Ramdas Pophale) SiO2 
 PCOD9279598
Probable space group: C 2/C
;
_chemical_formula_sum "Si O2"
_cell_formula_units_Z 48
_cell_length_a 19.309245
_cell_length_b 24.696716
_cell_length_c 5.069325
_cell_angle_alpha 90.000000
_cell_angle_beta 118.608876
_cell_angle_gamma 90.000000
_cell_volume 2122.286650
_symmetry_space_group_name_H-M "C 2/C"
_symmetry_group_IT_number 15
_symmetry_cell_setting 'monoclinic'
loop_
_space_group_symop_operation_xyz
x,y,z
-x,y,1/2-z
-x,-y,-z
x,-y,1/2+z
1/2+x,1/2+y,z
1/2-x,1/2+y,1/2-z
1/2-x,1/2-y,-z
1/2+x,1/2-y,1/2+z
loop_
_atom_site_type_symbol
_atom_site_label
_atom_site_fract_x
_atom_site_fract_y
_atom_site_fract_z
Si Si1 0.905498 0.969712 0.028753
Si Si2 0.322251 0.633342 0.144573
Si Si3 0.354600 0.868216 0.107148
Si Si4 0.412176 0.810027 0.691562
Si Si5 0.673521 0.290226 0.354796
Si Si6 0.088725 0.478945 0.329006
O O1 0.000000 0.970423 0.250000
O O2 0.876483 0.983840 0.270591
O O3 0.881462 0.913914 0.842739
O O4 0.329042 0.680669 0.370849
O O5 0.234056 0.610836 0.029509
O O6 0.327927 0.663602 0.872890
O O7 0.362000 0.820793 0.335366
O O8 0.410169 0.918634 0.279127
O O9 0.380989 0.848601 0.867502
O O10 0.500000 0.819713 0.750000
O O11 0.400212 0.750496 0.788680
O O12 0.750000 0.250000 0.500000
O O13 0.128317 0.482537 0.687414
O O14 0.000000 0.495626 0.250000
#
# Coordination Sequence:
#
# PCOD9279598 Si02
#       6
#     8   8   8   8   8   8
#     4  10  23  45  70 101 143 181 223 288 356 414
#     4  12  24  41  72  99 130 180 227 272 344 414
#     4  12  23  40  63  92 126 170 218 273 331 400
#     4  12  25  41  64  92 128 174 220 269 333 404
#     4  12  23  44  66  95 136 175 220 285 341 400
#     4  10  21  36  54  80 117 159 205 261 314 369
#
# _framework density 22.617111999999999
#
# number of rings (size 3 to 8) (size 9 to 14) (size 15 to 20)
#    0.000    0.667    3.333    5.000    0.000    3.333 
#    0.000    1.667    0.000    0.000    0.000    0.000 
#    0.000    0.000    0.000    0.000    0.000    0.000 
#
# Total GULP energy -133916.841623 kJ/mol
# GULP energy per Si atom -5579.868401 kJ/mol
# Density = 2.256563 g / cm^3
# Si number density = 22.617112 Si / 1000 Ang^3
#
#
#
# Elastic Constant Matrix: (Units=GPa)
#
#
# Indices 1 2 3 4 5 6 
#
# 1 55.9267 4.1036 37.9238 0.0000 -21.1261 0.0000
# 2 4.1036 73.6191 18.5187 0.0000 -5.9780 0.0000
# 3 37.9238 18.5187 94.4439 0.0000 -17.8310 0.0000
# 4 0.0000 0.0000 0.0000 42.6014 0.0000 3.5581
# 5 -21.1261 -5.9780 -17.8310 0.0000 29.2718 0.0000
# 6 0.0000 0.0000 0.0000 3.5581 0.0000 26.4945
#
#
#
# Elastic Compliance Matrix: (Units=1/GPa)
#
#
# Indices 1 2 3 4 5 6 
#
# 1 0.030436 0.002038 -0.009486 0.000000 0.016604 0.000000
# 2 0.002038 0.014473 -0.003187 0.000000 0.002485 0.000000
# 3 -0.009486 -0.003187 0.015375 0.000000 0.001869 0.000000
# 4 0.000000 0.000000 0.000000 0.023740 0.000000 -0.003188
# 5 0.016604 0.002485 0.001869 0.000000 0.047792 0.000000
# 6 0.000000 0.000000 0.000000 -0.003188 0.000000 0.038172
#
#
# Mechanical properties :
#
#
# Convention : Reuss Voigt Hill
#
# Bulk Modulus (GPa) = 25.63218 38.34243 31.98731
# Shear Modulus (GPa) = 24.47835 30.56979 27.52407
#
# Velocity S-wave (km/s) = 3.29339 3.68043 3.49228
# Velocity P-wave (km/s) = 5.08130 5.92034 5.51679
#
# Compressibility (1/GPa) = 0.03901345
#
# Stress axis : x y z
#
# Youngs Moduli (GPa) = 32.85633 69.09259 65.04001
#
# Poissons Ratio (x) = -0.14081 0.61698
# Poissons Ratio (y) = -0.06696 0.20729
# Poissons Ratio (z) = 0.31168 0.22020
#
# Static dielectric constant tensor:
#      x y z
#    x 1.888300 0.000000 0.047610 
#    y 0.000000 1.737730 0.000000 
#    z 0.047610 0.000000 1.933460 
# 
# From -- ./inp_files/10915.got.cif
#   From: 2010.05.17/outbox.cif.g08.bks.cpg/sg15_6_cif.got.tgz:10915.got - 2010.06.03 18:47:42.
