data_PCOD9279823
_publ_section_title
;
Structure prediction by ZEFSAII (Michael W. Deem and Ramdas Pophale) SiO2 
 PCOD9279823
Probable space group: C 2/C
;
_chemical_formula_sum "Si O2"
_cell_formula_units_Z 64
_cell_length_a 24.898823
_cell_length_b 18.802086
_cell_length_c 10.756633
_cell_angle_alpha 90.000000
_cell_angle_beta 36.870348
_cell_angle_gamma 90.000000
_cell_volume 3021.461091
_symmetry_space_group_name_H-M "C 2/C"
_symmetry_group_IT_number 15
_symmetry_cell_setting 'monoclinic'
loop_
_space_group_symop_operation_xyz
x,y,z
-x,y,1/2-z
-x,-y,-z
x,-y,1/2+z
1/2+x,1/2+y,z
1/2-x,1/2+y,1/2-z
1/2-x,1/2-y,-z
1/2+x,1/2-y,1/2+z
loop_
_atom_site_type_symbol
_atom_site_label
_atom_site_fract_x
_atom_site_fract_y
_atom_site_fract_z
Si Si1 0.198517 0.068365 0.669995
Si Si2 0.398283 0.072020 0.665027
Si Si3 0.749786 0.243747 0.350336
Si Si4 0.080541 0.815380 0.516761
Si Si5 0.329027 0.068564 0.222681
Si Si6 0.249795 0.919235 0.624336
Si Si7 0.868562 0.352228 0.980289
Si Si8 0.955729 0.680582 0.066091
O O1 0.230913 0.064942 0.466559
O O2 0.287491 0.103888 0.566959
O O3 0.183565 0.986272 0.737147
O O4 0.123348 0.122428 0.854139
O O5 0.410692 0.093476 0.499670
O O6 0.464272 0.125895 0.612428
O O7 0.395137 0.986426 0.672003
O O8 0.299207 0.088744 0.900547
O O9 0.750000 0.250000 0.500000
O O10 0.658069 0.276142 0.457724
O O11 0.770842 0.159857 0.291036
O O12 0.826928 0.289772 0.141548
O O13 0.035583 0.756882 0.509883
O O14 0.000000 0.843580 0.750000
O O15 0.322365 0.052737 0.090225
O O16 0.368242 0.146036 0.166861
O O17 0.931512 0.320796 0.756597
#
# Coordination Sequence:
#
# PCOD9279823 Si02
#       8
#     8   8   8   8   8   8   8   8
#     4   9  22  38  60  84 119 160 205 259 304 365
#     4  11  21  37  55  90 132 166 197 253 327 379
#     4  11  22  38  65  92 120 162 213 269 311 373
#     4  11  24  41  63  92 124 162 211 263 321 377
#     4  10  21  36  59  91 120 162 211 252 307 383
#     4  11  20  37  63  88 116 158 216 256 308 371
#     4  10  21  37  55  87 122 164 208 249 309 367
#     4  11  23  36  57  88 131 168 197 251 316 389
#
# _framework density 21.181805000000001
#
# number of rings (size 3 to 8) (size 9 to 14) (size 15 to 20)
#    0.000    1.500    3.750    1.500    1.750    1.500 
#    2.250    0.000    0.000    4.500    0.000    0.000 
#    0.000    0.000    0.000    0.000    0.000    0.000 
#
# Total GULP energy -178255.874832 kJ/mol
# GULP energy per Si atom -5570.496089 kJ/mol
# Density = 2.113359 g / cm^3
# Si number density = 21.181805 Si / 1000 Ang^3
#
#
#
# Elastic Constant Matrix: (Units=GPa)
#
#
# Indices 1 2 3 4 5 6 
#
# 1 31.4294 1.5021 4.0848 0.0000 14.9405 0.0000
# 2 1.5021 133.0212 39.6294 0.0000 -4.1615 0.0000
# 3 4.0848 39.6294 88.1287 0.0000 2.7285 0.0000
# 4 0.0000 0.0000 0.0000 24.7564 0.0000 1.0498
# 5 14.9405 -4.1615 2.7285 0.0000 21.2733 0.0000
# 6 0.0000 0.0000 0.0000 1.0498 0.0000 23.3447
#
#
#
# Elastic Compliance Matrix: (Units=1/GPa)
#
#
# Indices 1 2 3 4 5 6 
#
# 1 0.048125 -0.001451 -0.000525 0.000000 -0.034015 0.000000
# 2 -0.001451 0.008829 -0.004004 0.000000 0.003260 0.000000
# 3 -0.000525 -0.004004 0.013237 0.000000 -0.002112 0.000000
# 4 0.000000 0.000000 0.000000 0.040471 0.000000 -0.001820
# 5 -0.034015 0.003260 -0.002112 0.000000 0.071805 0.000000
# 6 0.000000 0.000000 0.000000 -0.001820 0.000000 0.042918
#
#
# Mechanical properties :
#
#
# Convention : Reuss Voigt Hill
#
# Bulk Modulus (GPa) = 17.17301 38.11242 27.64272
# Shear Modulus (GPa) = 19.47383 27.69907 23.58645
#
# Velocity S-wave (km/s) = 3.03539 3.62011 3.34057
# Velocity P-wave (km/s) = 4.51773 5.95866 5.28751
#
# Compressibility (1/GPa) = 0.05823091
#
# Stress axis : x y z
#
# Youngs Moduli (GPa) = 20.77935 113.26632 75.54493
#
# Poissons Ratio (x) = 0.16437 0.03966
# Poissons Ratio (y) = 0.03015 0.30246
# Poissons Ratio (z) = 0.01091 0.45349
#
# Static dielectric constant tensor:
#      x y z
#    x 1.842510 0.000000 -0.003350 
#    y 0.000000 1.804390 0.000000 
#    z -0.003350 0.000000 1.766610 
# 
# From -- ./inp_files/127300.got.cif
#   From: 2010.05.17/outbox.cif.g08.bks.cpg/sg15_64_cif.got.tgz:127300.got - 2010.06.03 18:47:42.
