data_PCOD9279637
_publ_section_title
;
Structure prediction by ZEFSAII (Michael W. Deem and Ramdas Pophale) SiO2 
 PCOD9279637
Probable space group: C 2/C
;
_chemical_formula_sum "Si O2"
_cell_formula_units_Z 40
_cell_length_a 30.041654
_cell_length_b 11.972289
_cell_length_c 9.085483
_cell_angle_alpha 90.000000
_cell_angle_beta 140.480569
_cell_angle_gamma 90.000000
_cell_volume 2079.400699
_symmetry_space_group_name_H-M "C 2/C"
_symmetry_group_IT_number 15
_symmetry_cell_setting 'monoclinic'
loop_
_space_group_symop_operation_xyz
x,y,z
-x,y,1/2-z
-x,-y,-z
x,-y,1/2+z
1/2+x,1/2+y,z
1/2-x,1/2+y,1/2-z
1/2-x,1/2-y,-z
1/2+x,1/2-y,1/2+z
loop_
_atom_site_type_symbol
_atom_site_label
_atom_site_fract_x
_atom_site_fract_y
_atom_site_fract_z
Si Si1 0.823648 0.197314 0.056152
Si Si2 0.078479 0.935311 0.901565
Si Si3 0.640042 0.618192 0.873697
Si Si4 0.710460 0.172035 0.517683
Si Si5 0.241534 0.579204 0.100213
O O1 0.757955 0.175370 0.782540
O O2 0.821058 0.330715 0.063271
O O3 0.890297 0.147335 0.143099
O O4 0.800328 0.133835 0.143401
O O5 0.000000 0.912178 0.750000
O O6 0.085532 0.056171 0.841804
O O7 0.124923 0.920431 0.167908
O O8 0.642084 0.753105 0.876432
O O9 0.714816 0.577640 0.134119
O O10 0.750000 0.250000 0.500000
O O11 0.710799 0.041564 0.480483
#
# Coordination Sequence:
#
# PCOD9279637 Si02
#       5
#     8   8   8   8   8
#     4  10  21  36  55  86 116 150 190 236 300 342
#     4  12  23  38  58  81 122 161 195 234 272 352
#     4  11  22  36  56  86 113 150 198 230 295 339
#     4  11  19  32  59  83 115 141 180 246 293 345
#     4  10  22  36  59  86 120 142 186 257 296 345
#
# _framework density 19.236311000000001
#
# number of rings (size 3 to 8) (size 9 to 14) (size 15 to 20)
#    0.000    1.200    4.000    3.000    2.800    0.000 
#    0.000    0.000    0.000    2.400    0.000    0.000 
#    0.000    0.000    0.000    0.000    0.000    0.000 
#
# Total GULP energy -111430.773396 kJ/mol
# GULP energy per Si atom -5571.538670 kJ/mol
# Density = 1.919253 g / cm^3
# Si number density = 19.236311 Si / 1000 Ang^3
#
#
#
# Elastic Constant Matrix: (Units=GPa)
#
#
# Indices 1 2 3 4 5 6 
#
# 1 125.4955 71.1352 32.7535 0.0000 2.9850 0.0000
# 2 71.1352 195.2627 37.4438 0.0000 1.6296 0.0000
# 3 32.7535 37.4438 40.6777 0.0000 -11.5113 0.0000
# 4 0.0000 0.0000 0.0000 15.3201 0.0000 -3.4667
# 5 2.9850 1.6296 -11.5113 0.0000 34.4561 0.0000
# 6 0.0000 0.0000 0.0000 -3.4667 0.0000 29.2859
#
#
#
# Elastic Compliance Matrix: (Units=1/GPa)
#
#
# Indices 1 2 3 4 5 6 
#
# 1 0.011639 -0.002700 -0.007881 0.000000 -0.003514 0.000000
# 2 -0.002700 0.007036 -0.004783 0.000000 -0.001697 0.000000
# 3 -0.007881 -0.004783 0.039306 0.000000 0.014040 0.000000
# 4 0.000000 0.000000 0.000000 0.067070 0.000000 0.007939
# 5 -0.003514 -0.001697 0.014040 0.000000 0.034098 0.000000
# 6 0.000000 0.000000 0.000000 0.007939 0.000000 0.035086
#
#
# Mechanical properties :
#
#
# Convention : Reuss Voigt Hill
#
# Bulk Modulus (GPa) = 36.69331 71.56676 54.13004
# Shear Modulus (GPa) = 21.36320 30.48598 25.92459
#
# Velocity S-wave (km/s) = 3.33613 3.98529 3.67507
# Velocity P-wave (km/s) = 5.82719 7.64601 6.79771
#
# Compressibility (1/GPa) = 0.02725292
#
# Stress axis : x y z
#
# Youngs Moduli (GPa) = 85.91715 142.12212 25.44162
#
# Poissons Ratio (x) = 0.38367 0.20051
# Poissons Ratio (y) = 0.23194 0.12170
# Poissons Ratio (z) = 0.67712 0.67982
#
# Static dielectric constant tensor:
#      x y z
#    x 1.771030 0.000000 -0.055350 
#    y 0.000000 1.809970 0.000000 
#    z -0.055350 0.000000 1.701140 
# 
# From -- ./inp_files/69233.got.cif
#   From: 2010.05.17/outbox.cif.g08.bks.cpg/sg15_35_cif.got.tgz:69233.got - 2010.06.03 18:47:42.
