data_PCOD9279283
_publ_section_title
;
Structure prediction by ZEFSAII (Michael W. Deem and Ramdas Pophale) SiO2 
 PCOD9279283
Probable space group: C 2/C
;
_chemical_formula_sum "Si O2"
_cell_formula_units_Z 48
_cell_length_a 17.094704
_cell_length_b 12.760662
_cell_length_c 16.942626
_cell_angle_alpha 90.000000
_cell_angle_beta 145.135258
_cell_angle_gamma 90.000000
_cell_volume 2112.705379
_symmetry_space_group_name_H-M "C 2/C"
_symmetry_group_IT_number 15
_symmetry_cell_setting 'monoclinic'
loop_
_space_group_symop_operation_xyz
x,y,z
-x,y,1/2-z
-x,-y,-z
x,-y,1/2+z
1/2+x,1/2+y,z
1/2-x,1/2+y,1/2-z
1/2-x,1/2-y,-z
1/2+x,1/2-y,1/2+z
loop_
_atom_site_type_symbol
_atom_site_label
_atom_site_fract_x
_atom_site_fract_y
_atom_site_fract_z
Si Si1 0.110367 0.634870 0.139428
Si Si2 0.126997 0.357006 0.272682
Si Si3 0.180102 0.684225 0.022117
Si Si4 0.851865 0.398140 0.661041
Si Si5 0.684276 0.099941 0.646056
Si Si6 0.659545 0.537455 0.865382
O O1 0.139526 0.691789 0.081952
O O2 0.177086 0.659212 0.279338
O O3 0.154825 0.518049 0.151304
O O4 0.946403 0.633002 0.014345
O O5 0.224680 0.286185 0.407378
O O6 0.134151 0.478435 0.303290
O O7 0.177619 0.343085 0.224021
O O8 0.968863 0.323405 0.140621
O O9 0.264464 0.575963 0.079158
O O10 0.735429 0.398426 0.497985
O O11 0.000000 0.365126 0.750000
O O12 0.813774 0.094267 0.696334
O O13 0.500000 0.523756 0.750000
#
# Coordination Sequence:
#
# PCOD9279283 Si02
#       6
#     8   8   8   8   8   8
#     4   8  15  32  57  72  94 135 183 209 240 307
#     4  10  21  35  56  76 105 140 173 209 252 314
#     4  10  21  37  52  77 107 141 172 206 257 307
#     4  11  18  34  56  80  99 135 177 211 260 305
#     4   8  15  34  53  72  99 137 174 209 250 298
#     4  11  22  34  52  81 109 132 168 220 263 299
#
# _framework density 22.719684000000001
#
# number of rings (size 3 to 8) (size 9 to 14) (size 15 to 20)
#    0.000    2.333    3.333    2.000    2.333    1.333 
#    3.000    2.500    0.000    2.000    0.000    0.000 
#    0.000    0.000    0.000    0.000    0.000    0.000 
#
# Total GULP energy -133937.252518 kJ/mol
# GULP energy per Si atom -5580.718855 kJ/mol
# Density = 2.266797 g / cm^3
# Si number density = 22.719684 Si / 1000 Ang^3
#
#
#
# Elastic Constant Matrix: (Units=GPa)
#
#
# Indices 1 2 3 4 5 6 
#
# 1 141.5275 -1.9768 62.5757 0.0000 2.6550 0.0000
# 2 -1.9768 37.0573 13.3913 0.0000 8.0363 0.0000
# 3 62.5757 13.3913 115.6915 0.0000 3.5214 0.0000
# 4 0.0000 0.0000 0.0000 13.3272 0.0000 -9.4414
# 5 2.6550 8.0363 3.5214 0.0000 41.5873 0.0000
# 6 0.0000 0.0000 0.0000 -9.4414 0.0000 15.9761
#
#
#
# Elastic Compliance Matrix: (Units=1/GPa)
#
#
# Indices 1 2 3 4 5 6 
#
# 1 0.009515 0.002611 -0.005429 0.000000 -0.000652 0.000000
# 2 0.002611 0.030038 -0.004719 0.000000 -0.005572 0.000000
# 3 -0.005429 -0.004719 0.012119 0.000000 0.000232 0.000000
# 4 0.000000 0.000000 0.000000 0.129073 0.000000 0.076279
# 5 -0.000652 -0.005572 0.000232 0.000000 0.025144 0.000000
# 6 0.000000 0.000000 0.000000 0.076279 0.000000 0.107672
#
#
# Mechanical properties :
#
#
# Convention : Reuss Voigt Hill
#
# Bulk Modulus (GPa) = 27.32437 49.13963 38.23200
# Shear Modulus (GPa) = 14.66982 28.86385 21.76684
#
# Velocity S-wave (km/s) = 2.54379 3.56818 3.09861
# Velocity P-wave (km/s) = 4.54760 6.21703 5.44666
#
# Compressibility (1/GPa) = 0.03659737
#
# Stress axis : x y z
#
# Youngs Moduli (GPa) = 105.09997 33.29087 82.51372
#
# Poissons Ratio (x) = -0.08692 0.44794
# Poissons Ratio (y) = -0.27439 0.38942
# Poissons Ratio (z) = 0.57056 0.15712
#
# Static dielectric constant tensor:
#      x y z
#    x 1.922840 0.000000 -0.059060 
#    y 0.000000 1.890580 0.000000 
#    z -0.059060 0.000000 1.802820 
# 
# From -- ./inp_files/47940.got.cif
#   From: 2010.05.17/outbox.cif.g08.bks.cpg/sg15_24_cif.got.tgz:47940.got - 2010.06.03 18:47:42.
