data_PCOD9279176
_publ_section_title
;
Structure prediction by ZEFSAII (Michael W. Deem and Ramdas Pophale) SiO2 
 PCOD9279176
Probable space group: C 2/C
;
_chemical_formula_sum "Si O2"
_cell_formula_units_Z 40
_cell_length_a 21.692695
_cell_length_b 10.188851
_cell_length_c 24.772167
_cell_angle_alpha 90.000000
_cell_angle_beta 21.369705
_cell_angle_gamma 90.000000
_cell_volume 1995.090239
_symmetry_space_group_name_H-M "C 2/C"
_symmetry_group_IT_number 15
_symmetry_cell_setting 'monoclinic'
loop_
_space_group_symop_operation_xyz
x,y,z
-x,y,1/2-z
-x,-y,-z
x,-y,1/2+z
1/2+x,1/2+y,z
1/2-x,1/2+y,1/2-z
1/2-x,1/2-y,-z
1/2+x,1/2-y,1/2+z
loop_
_atom_site_type_symbol
_atom_site_label
_atom_site_fract_x
_atom_site_fract_y
_atom_site_fract_z
Si Si1 0.046058 0.620668 0.924217
Si Si2 0.636899 0.309861 0.029572
Si Si3 0.444376 0.371522 0.077052
Si Si4 0.000000 0.553675 0.250000
Si Si5 0.864459 0.491034 0.469201
Si Si6 0.000000 0.053003 0.750000
O O1 0.246091 0.627257 0.751573
O O2 0.952226 0.588473 0.944900
O O3 0.000000 0.500000 0.000000
O O4 0.987265 0.749671 0.003510
O O5 0.546284 0.363128 0.050150
O O6 0.625193 0.151654 0.033837
O O7 0.548271 0.363387 0.156662
O O8 0.830381 0.361510 0.875454
O O9 0.500000 0.500000 0.000000
O O10 0.954799 0.467760 0.338731
O O11 0.664730 0.468105 0.629019
#
# Coordination Sequence:
#
# PCOD9279176 Si02
#       6
#     8   8   8   4   8   4
#     4  12  25  45  67  96 137 180 221 280 336 397
#     4  11  20  36  62  95 136 162 223 273 335 395
#     4  12  27  43  69  98 137 184 227 275 337 405
#     4  10  21  34  62 103 128 171 212 281 338 391
#     4  11  20  37  64  92 134 164 222 273 336 393
#     4  10  21  34  62 103 126 173 212 285 334 391
#
# _framework density 20.049218
#
# number of rings (size 3 to 8) (size 9 to 14) (size 15 to 20)
#    0.000    0.800    2.000    8.400    2.800    0.000 
#    0.000    0.000    0.000   20.400    0.000    0.000 
#    0.000    0.000    0.000    0.000    0.000    0.000 
#
# Total GULP energy -111856.124506 kJ/mol
# GULP energy per Si atom -5592.806225 kJ/mol
# Density = 2.000359 g / cm^3
# Si number density = 20.049218 Si / 1000 Ang^3
#
#
#
# Elastic Constant Matrix: (Units=GPa)
#
#
# Indices 1 2 3 4 5 6 
#
# 1 230.1900 66.1660 103.2585 0.0029 -8.7211 0.0116
# 2 66.1660 104.4631 63.3435 0.0065 7.0417 0.0285
# 3 103.2585 63.3435 209.5820 0.0069 3.8884 0.0277
# 4 0.0029 0.0065 0.0069 11.1236 0.0019 -26.0344
# 5 -8.7211 7.0417 3.8884 0.0019 31.1627 0.0071
# 6 0.0116 0.0285 0.0277 -26.0344 0.0071 -40.3676
#
#
#
# Elastic Compliance Matrix: (Units=1/GPa)
#
#
# Indices 1 2 3 4 5 6 
#
# 1 0.006272 -0.002753 -0.002307 -0.000001 0.002665 -0.000001
# 2 -0.002753 0.013083 -0.002535 0.000004 -0.003411 0.000004
# 3 -0.002307 -0.002535 0.006691 0.000001 -0.000908 0.000001
# 4 -0.000001 0.000004 0.000001 0.035824 0.000002 -0.023104
# 5 0.002665 -0.003411 -0.000908 0.000002 0.033719 0.000002
# 6 -0.000001 0.000004 0.000001 -0.023104 0.000002 -0.009872
#
#
# Mechanical properties :
#
#
# Convention : Reuss Voigt Hill
#
# Bulk Modulus (GPa) = 92.11371 112.19680 102.15525
# Shear Modulus (GPa) = 47.83481 21.14821 34.49151
#
# Velocity S-wave (km/s) = 4.88983 3.25131 4.15220
# Velocity P-wave (km/s) = 8.82747 8.37717 8.60526
#
# Compressibility (1/GPa) = 0.01085615
#
# Stress axis : x y z
#
# Youngs Moduli (GPa) = 159.45108 76.43359 149.45217
#
# Poissons Ratio (x) = 0.21041 0.34483
# Poissons Ratio (y) = 0.43895 0.37881
# Poissons Ratio (z) = 0.36791 0.19373
#
# Static dielectric constant tensor:
#      x y z
#    x 1.700670 0.000000 0.002280 
#    y 0.000000 1.684900 0.000000 
#    z 0.002280 0.000000 1.708610 
# 
# From -- ./inp_files/54208.got.cif
#   From: 2010.05.17/outbox.cif.g08.bks.cpg/sg15_28_cif.got.tgz:54208.got - 2010.06.03 18:47:42.
