data_PCOD9279202
_publ_section_title
;
Structure prediction by ZEFSAII (Michael W. Deem and Ramdas Pophale) SiO2 
 PCOD9279202
Probable space group: C 2/C
;
_chemical_formula_sum "Si O2"
_cell_formula_units_Z 56
_cell_length_a 27.183672
_cell_length_b 17.828696
_cell_length_c 9.399428
_cell_angle_alpha 90.000000
_cell_angle_beta 43.741028
_cell_angle_gamma 90.000000
_cell_volume 3149.622171
_symmetry_space_group_name_H-M "C 2/C"
_symmetry_group_IT_number 15
_symmetry_cell_setting 'monoclinic'
loop_
_space_group_symop_operation_xyz
x,y,z
-x,y,1/2-z
-x,-y,-z
x,-y,1/2+z
1/2+x,1/2+y,z
1/2-x,1/2+y,1/2-z
1/2-x,1/2-y,-z
1/2+x,1/2-y,1/2+z
loop_
_atom_site_type_symbol
_atom_site_label
_atom_site_fract_x
_atom_site_fract_y
_atom_site_fract_z
Si Si1 0.576202 0.250040 0.630754
Si Si2 0.433087 0.031772 0.474752
Si Si3 0.750756 0.584210 0.178816
Si Si4 0.797307 0.180546 0.462538
Si Si5 0.298463 0.816594 0.835198
Si Si6 0.709507 0.913206 0.370985
Si Si7 0.585938 0.093754 0.691908
O O1 0.500000 0.286632 0.750000
O O2 0.627124 0.294341 0.632346
O O3 0.631590 0.219344 0.390794
O O4 0.552490 0.174578 0.762054
O O5 0.500000 0.063930 0.250000
O O6 0.361622 0.069853 0.568008
O O7 0.439338 0.042177 0.628212
O O8 0.424823 0.946757 0.436257
O O9 0.698340 0.619379 0.172689
O O10 0.752707 0.633728 0.318072
O O11 0.750618 0.494022 0.195523
O O12 0.830288 0.600989 0.956128
O O13 0.750000 0.250000 0.500000
O O14 0.756483 0.143257 0.680468
O O15 0.250000 0.750000 0.000000
O O16 0.312407 0.874656 0.934803
#
# Coordination Sequence:
#
# PCOD9279202 Si02
#       7
#     8   8   8   8   8   8   8
#     4  11  24  37  60  83 119 153 196 244 302 348
#     4  11  22  32  49  77 117 160 189 233 281 347
#     4  10  21  35  60  84 114 149 192 245 288 340
#     4  12  19  41  61  83 115 155 195 238 291 350
#     4  11  21  38  59  86 113 154 198 244 282 351
#     4  11  22  35  57  86 116 148 201 239 289 347
#     4  10  21  35  50  78 116 156 194 224 284 351
#
# _framework density 17.779910000000001
#
# number of rings (size 3 to 8) (size 9 to 14) (size 15 to 20)
#    0.000    1.143    5.714    1.714   12.000    0.000 
#    0.000    0.000    0.000    0.857    0.000    0.000 
#    0.000    0.000    0.000    0.000    0.000    0.000 
#
# Total GULP energy -156057.790336 kJ/mol
# GULP energy per Si atom -5573.492512 kJ/mol
# Density = 1.773944 g / cm^3
# Si number density = 17.779910 Si / 1000 Ang^3
#
#
#
# Elastic Constant Matrix: (Units=GPa)
#
#
# Indices 1 2 3 4 5 6 
#
# 1 102.1639 50.8423 40.3301 0.0000 -8.3332 0.0000
# 2 50.8423 86.0890 34.5716 0.0000 0.4027 0.0000
# 3 40.3301 34.5716 57.7340 0.0000 8.4398 0.0000
# 4 0.0000 0.0000 0.0000 30.4420 0.0000 4.4948
# 5 -8.3332 0.4027 8.4398 0.0000 34.2872 0.0000
# 6 0.0000 0.0000 0.0000 4.4948 0.0000 14.8935
#
#
#
# Elastic Compliance Matrix: (Units=1/GPa)
#
#
# Indices 1 2 3 4 5 6 
#
# 1 0.017109 -0.006526 -0.008986 0.000000 0.006447 0.000000
# 2 -0.006526 0.017937 -0.006141 0.000000 -0.000285 0.000000
# 3 -0.008986 -0.006141 0.028614 0.000000 -0.009155 0.000000
# 4 0.000000 0.000000 0.000000 0.034381 0.000000 -0.010376
# 5 0.006447 -0.000285 -0.009155 0.000000 0.032989 0.000000
# 6 0.000000 0.000000 0.000000 -0.010376 0.000000 0.070275
#
#
# Mechanical properties :
#
#
# Convention : Reuss Voigt Hill
#
# Bulk Modulus (GPa) = 49.12934 55.27499 52.20216
# Shear Modulus (GPa) = 19.88897 23.94071 21.91484
#
# Velocity S-wave (km/s) = 3.34821 3.67345 3.51460
# Velocity P-wave (km/s) = 6.52987 7.01058 6.77449
#
# Compressibility (1/GPa) = 0.02035443
#
# Stress axis : x y z
#
# Youngs Moduli (GPa) = 58.44889 55.75032 34.94833
#
# Poissons Ratio (x) = 0.36381 0.31406
# Poissons Ratio (y) = 0.38142 0.21461
# Poissons Ratio (z) = 0.52524 0.34235
#
# Static dielectric constant tensor:
#      x y z
#    x 1.664730 0.000000 0.006360 
#    y 0.000000 1.641860 0.000000 
#    z 0.006360 0.000000 1.657270 
# 
# From -- ./inp_files/62675.got.cif
#   From: 2010.05.17/outbox.cif.g08.bks.cpg/sg15_32_cif.got.tgz:62675.got - 2010.06.03 18:47:42.
