data_PCOD9279937
_publ_section_title
;
Structure prediction by ZEFSAII (Michael W. Deem and Ramdas Pophale) SiO2 
 PCOD9279937
Probable space group: C 2/C
;
_chemical_formula_sum "Si O2"
_cell_formula_units_Z 56
_cell_length_a 14.395891
_cell_length_b 20.104277
_cell_length_c 17.701810
_cell_angle_alpha 90.000000
_cell_angle_beta 29.940286
_cell_angle_gamma 90.000000
_cell_volume 2556.994392
_symmetry_space_group_name_H-M "C 2/C"
_symmetry_group_IT_number 15
_symmetry_cell_setting 'monoclinic'
loop_
_space_group_symop_operation_xyz
x,y,z
-x,y,1/2-z
-x,-y,-z
x,-y,1/2+z
1/2+x,1/2+y,z
1/2-x,1/2+y,1/2-z
1/2-x,1/2-y,-z
1/2+x,1/2-y,1/2+z
loop_
_atom_site_type_symbol
_atom_site_label
_atom_site_fract_x
_atom_site_fract_y
_atom_site_fract_z
Si Si1 0.105070 0.031147 0.051824
Si Si2 0.469661 0.866878 0.051625
Si Si3 0.215556 0.117124 0.420271
Si Si4 0.600224 0.125235 0.058443
Si Si5 0.290733 0.725867 0.388368
Si Si6 0.276604 0.981489 0.588003
Si Si7 0.656590 0.647093 0.892406
O O1 0.228003 0.048001 0.039076
O O2 0.898170 0.024342 0.232308
O O3 0.134802 0.088331 0.969228
O O4 0.157725 0.959560 0.978619
O O5 0.286216 0.871387 0.230822
O O6 0.427675 0.835278 0.999295
O O7 0.635550 0.824855 0.971158
O O8 0.559213 0.939998 0.990387
O O9 0.399528 0.114972 0.238803
O O10 0.268334 0.147184 0.465284
O O11 0.051179 0.155662 0.493853
O O12 0.682541 0.056940 0.965651
O O13 0.500000 0.698545 0.250000
O O14 0.250000 0.750000 0.500000
O O15 0.260084 0.789845 0.356392
#
# Coordination Sequence:
#
# PCOD9279937 Si02
#       7
#     8   8   8   8   8   8   8
#     4  10  21  36  62  93 132 169 209 259 314 379
#     4  12  25  40  66  91 126 168 212 261 316 379
#     4  10  22  41  64  93 130 165 210 263 314 375
#     4  10  22  41  64  94 128 167 210 262 314 375
#     4  12  28  48  67  94 127 166 212 262 315 376
#     4  10  21  36  61  95 129 170 211 256 317 377
#     4  12  25  41  64  93 125 169 211 261 320 374
#
# _framework density 21.900713
#
# number of rings (size 3 to 8) (size 9 to 14) (size 15 to 20)
#    0.000    1.143    1.429    4.286    6.000    2.857 
#    0.000    0.714    0.000    0.000    0.000    0.000 
#    0.000    0.000    0.000    0.000    0.000    0.000 
#
# Total GULP energy -156427.948965 kJ/mol
# GULP energy per Si atom -5586.712463 kJ/mol
# Density = 2.185087 g / cm^3
# Si number density = 21.900713 Si / 1000 Ang^3
#
#
#
# Elastic Constant Matrix: (Units=GPa)
#
#
# Indices 1 2 3 4 5 6 
#
# 1 138.8960 20.2512 39.3732 -0.0205 5.7599 0.0079
# 2 20.2512 33.4849 -0.8474 -0.0371 -1.5644 0.0187
# 3 39.3732 -0.8474 95.5527 -0.0310 10.1573 0.0219
# 4 -0.0205 -0.0371 -0.0310 18.3746 0.0142 -7.8760
# 5 5.7599 -1.5644 10.1573 0.0142 36.0609 -0.0080
# 6 0.0079 0.0187 0.0219 -7.8760 -0.0080 29.9294
#
#
#
# Elastic Compliance Matrix: (Units=1/GPa)
#
#
# Indices 1 2 3 4 5 6 
#
# 1 0.009106 -0.005632 -0.003733 -0.000006 -0.000647 0.000002
# 2 -0.005632 0.033410 0.002440 0.000062 0.001662 -0.000004
# 3 -0.003733 0.002440 0.012320 0.000022 -0.002768 -0.000005
# 4 -0.000006 0.000062 0.000022 0.061342 -0.000023 0.016142
# 5 -0.000647 0.001662 -0.002768 -0.000023 0.028686 0.000003
# 6 0.000002 -0.000004 -0.000005 0.016142 0.000003 0.037660
#
#
# Mechanical properties :
#
#
# Convention : Reuss Voigt Hill
#
# Bulk Modulus (GPa) = 24.39879 42.83198 33.61538
# Shear Modulus (GPa) = 23.80554 30.81675 27.31115
#
# Velocity S-wave (km/s) = 3.30051 3.75522 3.53518
# Velocity P-wave (km/s) = 5.06846 6.19694 5.66089
#
# Compressibility (1/GPa) = 0.04098563
#
# Stress axis : x y z
#
# Youngs Moduli (GPa) = 109.81902 29.93139 81.17117
#
# Poissons Ratio (x) = 0.16857 0.30304
# Poissons Ratio (y) = 0.61848 -0.19808
# Poissons Ratio (z) = 0.40999 -0.07304
#
# Static dielectric constant tensor:
#      x y z
#    x 1.845680 0.000000 0.012250 
#    y 0.000000 1.824480 0.000000 
#    z 0.012250 0.000000 1.733710 
# 
# From -- ./inp_files/206920.got.cif
#   From: 2010.05.17/outbox.cif.g08.bks.cpg/sg15_104_cif.got.tgz:206920.got - 2010.06.03 18:47:42.
