data_PCOD9279395
_publ_section_title
;
Structure prediction by ZEFSAII (Michael W. Deem and Ramdas Pophale) SiO2 
 PCOD9279395
Probable space group: C 2/C
;
_chemical_formula_sum "Si O2"
_cell_formula_units_Z 44
_cell_length_a 22.632167
_cell_length_b 16.680226
_cell_length_c 5.481398
_cell_angle_alpha 90.000000
_cell_angle_beta 84.490936
_cell_angle_gamma 90.000000
_cell_volume 2059.722739
_symmetry_space_group_name_H-M "C 2/C"
_symmetry_group_IT_number 15
_symmetry_cell_setting 'monoclinic'
loop_
_space_group_symop_operation_xyz
x,y,z
-x,y,1/2-z
-x,-y,-z
x,-y,1/2+z
1/2+x,1/2+y,z
1/2-x,1/2+y,1/2-z
1/2-x,1/2-y,-z
1/2+x,1/2-y,1/2+z
loop_
_atom_site_type_symbol
_atom_site_label
_atom_site_fract_x
_atom_site_fract_y
_atom_site_fract_z
Si Si1 0.351597 0.449732 0.337693
Si Si2 0.521044 0.817425 0.986511
Si Si3 0.739169 0.320004 0.202784
Si Si4 0.348956 0.226290 0.909966
Si Si5 0.927740 0.172717 0.046708
Si Si6 0.500000 0.450974 0.750000
O O1 0.354648 0.505547 0.577529
O O2 0.290642 0.399865 0.386162
O O3 0.404777 0.383765 0.339633
O O4 0.500000 0.855072 0.250000
O O5 0.591673 0.803078 0.974624
O O6 0.482415 0.733838 0.992217
O O7 0.500000 0.860768 0.750000
O O8 0.690526 0.284513 0.409351
O O9 0.800780 0.335386 0.321569
O O10 0.750000 0.250000 0.000000
O O11 0.374725 0.273864 0.667983
O O12 0.945212 0.109360 0.247717
O O13 0.500000 0.500000 0.500000
#
# Coordination Sequence:
#
# PCOD9279395 Si02
#       6
#     8   8   8   8   8   4
#     4  12  26  42  62  90 129 171 218 263 310 376
#     4  10  21  35  59  85 122 157 194 256 309 366
#     4  11  23  40  67  84 119 169 226 277 322 365
#     4  10  21  39  63  89 118 165 220 270 317 365
#     4  11  21  42  58  85 126 169 205 257 308 372
#     4  12  26  36  52  80 122 176 214 232 296 368
#
# _framework density 21.362099000000001
#
# number of rings (size 3 to 8) (size 9 to 14) (size 15 to 20)
#    0.000    1.091    4.545    3.273    6.364    2.909 
#    0.000    0.000    0.000    0.000    0.000    0.000 
#    0.000   18.909    0.000    0.000    0.000    0.000 
#
# Total GULP energy -122818.460946 kJ/mol
# GULP energy per Si atom -5582.657316 kJ/mol
# Density = 2.131348 g / cm^3
# Si number density = 21.362099 Si / 1000 Ang^3
#
#
#
# Elastic Constant Matrix: (Units=GPa)
#
#
# Indices 1 2 3 4 5 6 
#
# 1 168.0297 11.5856 22.1405 0.0000 15.0352 0.0000
# 2 11.5856 12.1091 -2.9409 0.0000 6.6248 0.0000
# 3 22.1405 -2.9409 106.6792 0.0000 10.1917 0.0000
# 4 0.0000 0.0000 0.0000 21.1665 0.0000 13.4183
# 5 15.0352 6.6248 10.1917 0.0000 36.6045 0.0000
# 6 0.0000 0.0000 0.0000 13.4183 0.0000 44.7350
#
#
#
# Elastic Compliance Matrix: (Units=1/GPa)
#
#
# Indices 1 2 3 4 5 6 
#
# 1 0.006668 -0.006046 -0.001432 0.000000 -0.001246 0.000000
# 2 -0.006046 0.099030 0.005609 0.000000 -0.017001 0.000000
# 3 -0.001432 0.005609 0.010136 0.000000 -0.003249 0.000000
# 4 0.000000 0.000000 0.000000 0.058338 0.000000 -0.017498
# 5 -0.001246 -0.017001 -0.003249 0.000000 0.031813 0.000000
# 6 0.000000 0.000000 0.000000 -0.017498 0.000000 0.027603
#
#
# Mechanical properties :
#
#
# Convention : Reuss Voigt Hill
#
# Bulk Modulus (GPa) = 8.92080 38.70983 23.81531
# Shear Modulus (GPa) = 18.20233 37.57004 27.88618
#
# Velocity S-wave (km/s) = 2.92222 4.19826 3.61696
# Velocity P-wave (km/s) = 3.94599 6.45451 5.34937
#
# Compressibility (1/GPa) = 0.11209763
#
# Stress axis : x y z
#
# Youngs Moduli (GPa) = 149.96242 10.09792 98.65771
#
# Poissons Ratio (x) = 0.06105 0.14124
# Poissons Ratio (y) = 0.90667 -0.55337
# Poissons Ratio (z) = 0.21468 -0.05664
#
# Static dielectric constant tensor:
#      x y z
#    x 1.831380 0.000000 0.041970 
#    y 0.000000 1.769210 0.000000 
#    z 0.041970 0.000000 1.855510 
# 
# From -- ./inp_files/12920.got.cif
#   From: 2010.05.17/outbox.cif.g08.bks.cpg/sg15_7_cif.got.tgz:12920.got - 2010.06.03 18:47:42.
