data_PCOD9279721
_publ_section_title
;
Structure prediction by ZEFSAII (Michael W. Deem and Ramdas Pophale) SiO2 
 PCOD9279721
Probable space group: C 2/C
;
_chemical_formula_sum "Si O2"
_cell_formula_units_Z 60
_cell_length_a 19.678405
_cell_length_b 17.483848
_cell_length_c 11.976277
_cell_angle_alpha 90.000000
_cell_angle_beta 43.655186
_cell_angle_gamma 90.000000
_cell_volume 2844.442425
_symmetry_space_group_name_H-M "C 2/C"
_symmetry_group_IT_number 15
_symmetry_cell_setting 'monoclinic'
loop_
_space_group_symop_operation_xyz
x,y,z
-x,y,1/2-z
-x,-y,-z
x,-y,1/2+z
1/2+x,1/2+y,z
1/2-x,1/2+y,1/2-z
1/2-x,1/2-y,-z
1/2+x,1/2-y,1/2+z
loop_
_atom_site_type_symbol
_atom_site_label
_atom_site_fract_x
_atom_site_fract_y
_atom_site_fract_z
Si Si1 0.500000 0.745131 0.250000
Si Si2 0.702749 0.648327 0.997658
Si Si3 0.607424 0.774121 0.331551
Si Si4 0.389801 0.210566 0.420216
Si Si5 0.741766 0.364687 0.939673
Si Si6 0.195948 0.113295 0.254841
Si Si7 0.099957 0.042215 0.953793
Si Si8 0.932473 0.063609 0.739278
O O1 0.400900 0.694530 0.377317
O O2 0.522054 0.787616 0.341313
O O3 0.789969 0.700136 0.846772
O O4 0.675921 0.580721 0.945587
O O5 0.732745 0.617630 0.084288
O O6 0.604329 0.811956 0.456461
O O7 0.618107 0.683587 0.346437
O O8 0.500000 0.221463 0.250000
O O9 0.325891 0.288020 0.479950
O O10 0.333730 0.149423 0.409677
O O11 0.765090 0.374997 0.780655
O O12 0.673007 0.431194 0.075284
O O13 0.146548 0.032764 0.341720
O O14 0.078834 0.096000 0.872003
O O15 0.000931 0.012173 0.133150
O O16 0.000000 0.105369 0.750000
#
# Coordination Sequence:
#
# PCOD9279721 Si02
#       8
#     4   8   8   8   8   8   8   8
#     4  10  22  34  66  86 122 182 212 254 312 378
#     4  11  24  41  58  94 133 163 210 264 317 383
#     4  10  23  41  59  90 127 166 216 264 312 376
#     4  10  22  37  59  88 119 165 211 260 310 367
#     4  10  21  36  57  87 126 166 203 257 314 366
#     4  10  21  37  57  88 126 169 211 250 314 382
#     4  11  24  33  58  90 130 169 200 254 322 377
#     4  11  21  33  53  83 129 162 194 248 308 375
#
# _framework density 21.093765999999999
#
# number of rings (size 3 to 8) (size 9 to 14) (size 15 to 20)
#    0.000    1.600    1.333    3.600   10.267    4.267 
#    0.000    0.000    0.000    0.000    1.733    5.600 
#    0.000    0.000    0.000    0.000    0.000    0.000 
#
# Total GULP energy -167180.910568 kJ/mol
# GULP energy per Si atom -5572.697019 kJ/mol
# Density = 2.104576 g / cm^3
# Si number density = 21.093766 Si / 1000 Ang^3
#
#
#
# Elastic Constant Matrix: (Units=GPa)
#
#
# Indices 1 2 3 4 5 6 
#
# 1 194.1703 41.6222 73.2044 0.0000 40.9120 0.0000
# 2 41.6222 56.4410 26.7842 0.0000 0.2366 0.0000
# 3 73.2044 26.7842 103.8767 0.0000 22.9425 0.0000
# 4 0.0000 0.0000 0.0000 25.1566 0.0000 2.1199
# 5 40.9120 0.2366 22.9425 0.0000 43.1839 0.0000
# 6 0.0000 0.0000 0.0000 2.1199 0.0000 24.6369
#
#
#
# Elastic Compliance Matrix: (Units=1/GPa)
#
#
# Indices 1 2 3 4 5 6 
#
# 1 0.008915 -0.004840 -0.003597 0.000000 -0.006509 0.000000
# 2 -0.004840 0.023166 -0.004019 0.000000 0.006594 0.000000
# 3 -0.003597 -0.004019 0.014094 0.000000 -0.004058 0.000000
# 4 0.000000 0.000000 0.000000 0.040041 0.000000 -0.003445
# 5 -0.006509 0.006594 -0.004058 0.000000 0.031443 0.000000
# 6 0.000000 0.000000 0.000000 -0.003445 0.000000 0.040886
#
#
# Mechanical properties :
#
#
# Convention : Reuss Voigt Hill
#
# Bulk Modulus (GPa) = 47.02835 70.85661 58.94248
# Shear Modulus (GPa) = 26.24040 32.78731 29.51386
#
# Velocity S-wave (km/s) = 3.53085 3.94681 3.74461
# Velocity P-wave (km/s) = 6.24226 7.37794 6.83373
#
# Compressibility (1/GPa) = 0.02126377
#
# Stress axis : x y z
#
# Youngs Moduli (GPa) = 112.16792 43.16599 70.95057
#
# Poissons Ratio (x) = 0.20893 0.25523
# Poissons Ratio (y) = 0.54291 0.28513
# Poissons Ratio (z) = 0.40350 0.17347
#
# Static dielectric constant tensor:
#      x y z
#    x 1.859230 0.000000 0.071120 
#    y 0.000000 1.825810 0.000000 
#    z 0.071120 0.000000 1.777520 
# 
# From -- ./inp_files/107630.got.cif
#   From: 2010.05.17/outbox.cif.g08.bks.cpg/sg15_54_cif.got.tgz:107630.got - 2010.06.03 18:47:42.
