data_PCOD9279273
_publ_section_title
;
Structure prediction by ZEFSAII (Michael W. Deem and Ramdas Pophale) SiO2 
 PCOD9279273
Probable space group: C 2/C
;
_chemical_formula_sum "Si O2"
_cell_formula_units_Z 48
_cell_length_a 15.193692
_cell_length_b 31.538672
_cell_length_c 8.060632
_cell_angle_alpha 90.000000
_cell_angle_beta 151.466139
_cell_angle_gamma 90.000000
_cell_volume 1845.062560
_symmetry_space_group_name_H-M "C 2/C"
_symmetry_group_IT_number 15
_symmetry_cell_setting 'monoclinic'
loop_
_space_group_symop_operation_xyz
x,y,z
-x,y,1/2-z
-x,-y,-z
x,-y,1/2+z
1/2+x,1/2+y,z
1/2-x,1/2+y,1/2-z
1/2-x,1/2-y,-z
1/2+x,1/2-y,1/2+z
loop_
_atom_site_type_symbol
_atom_site_label
_atom_site_fract_x
_atom_site_fract_y
_atom_site_fract_z
Si Si1 0.253349 0.297715 0.784452
Si Si2 0.705371 0.849975 0.178340
Si Si3 0.214633 0.441088 0.145506
Si Si4 0.954270 0.224935 0.956242
Si Si5 0.791515 0.471643 0.983444
Si Si6 0.713572 0.883327 0.573512
O O1 0.068383 0.272449 0.517409
O O2 0.262037 0.347908 0.787584
O O3 0.338654 0.284024 0.751395
O O4 0.363709 0.281774 0.126295
O O5 0.793516 0.893805 0.249582
O O6 0.836107 0.809299 0.365292
O O7 0.711077 0.863417 0.382741
O O8 0.500000 0.842671 0.750000
O O9 0.211979 0.457687 0.330549
O O10 0.289548 0.481347 0.169488
O O11 0.000000 0.434099 0.750000
O O12 0.698554 0.429529 0.752873
O O13 0.000000 0.476283 0.250000
O O14 0.500000 0.891778 0.250000
#
# Coordination Sequence:
#
# PCOD9279273 Si02
#       6
#     8   8   8   8   8   8
#     4  10  23  41  60  85 113 147 189 235 288 341
#     4  10  21  35  57  83 115 153 192 233 282 336
#     4   9  16  27  46  77 109 145 184 227 277 328
#     4  10  23  40  62  83 113 149 186 236 287 347
#     4   9  16  27  46  75 112 145 183 230 275 326
#     4  10  21  35  55  86 117 149 191 238 281 335
#
# _framework density 26.015377000000001
#
# number of rings (size 3 to 8) (size 9 to 14) (size 15 to 20)
#    0.000    2.333    0.000    3.000    7.000    5.333 
#    0.000    0.000    0.000    1.000    0.000    0.000 
#    0.000    0.000    0.000    0.000    0.000    0.000 
#
# Total GULP energy -133762.903163 kJ/mol
# GULP energy per Si atom -5573.454298 kJ/mol
# Density = 2.595616 g / cm^3
# Si number density = 26.015377 Si / 1000 Ang^3
#
#
#
# Elastic Constant Matrix: (Units=GPa)
#
#
# Indices 1 2 3 4 5 6 
#
# 1 66.0568 15.5337 5.8514 0.0000 -3.8571 0.0000
# 2 15.5337 149.3672 8.9831 0.0000 -5.7240 0.0000
# 3 5.8514 8.9831 54.7901 0.0000 -9.0878 0.0000
# 4 0.0000 0.0000 0.0000 14.0400 0.0000 -15.3407
# 5 -3.8571 -5.7240 -9.0878 0.0000 33.9027 0.0000
# 6 0.0000 0.0000 0.0000 -15.3407 0.0000 24.9118
#
#
#
# Elastic Compliance Matrix: (Units=1/GPa)
#
#
# Indices 1 2 3 4 5 6 
#
# 1 0.015672 -0.001510 -0.001227 0.000000 0.001199 0.000000
# 2 -0.001510 0.006932 -0.000847 0.000000 0.000772 0.000000
# 3 -0.001227 -0.000847 0.019334 0.000000 0.004900 0.000000
# 4 0.000000 0.000000 0.000000 0.217712 0.000000 0.134067
# 5 0.001199 0.000772 0.004900 0.000000 0.031076 0.000000
# 6 0.000000 0.000000 0.000000 0.134067 0.000000 0.122701
#
#
# Mechanical properties :
#
#
# Convention : Reuss Voigt Hill
#
# Bulk Modulus (GPa) = 28.76083 36.77227 32.76655
# Shear Modulus (GPa) = 11.56905 30.56063 21.06484
#
# Velocity S-wave (km/s) = 2.11108 3.43113 2.84862
# Velocity P-wave (km/s) = 4.12572 5.46465 4.84169
#
# Compressibility (1/GPa) = 0.03476951
#
# Stress axis : x y z
#
# Youngs Moduli (GPa) = 63.80677 144.24841 51.72181
#
# Poissons Ratio (x) = 0.21783 0.06348
# Poissons Ratio (y) = 0.09635 0.04383
# Poissons Ratio (z) = 0.07831 0.12223
#
# Static dielectric constant tensor:
#      x y z
#    x 2.121770 0.000000 0.085010 
#    y 0.000000 2.174070 0.000000 
#    z 0.085010 0.000000 2.349200 
# 
# From -- ./inp_files/44672.got.cif
#   From: 2010.05.17/outbox.cif.g08.bks.cpg/sg15_23_cif.got.tgz:44672.got - 2010.06.03 18:47:42.
