data_PCOD9279188
_publ_section_title
;
Structure prediction by ZEFSAII (Michael W. Deem and Ramdas Pophale) SiO2 
 PCOD9279188
Probable space group: C 2/C
;
_chemical_formula_sum "Si O2"
_cell_formula_units_Z 52
_cell_length_a 10.365490
_cell_length_b 21.843814
_cell_length_c 12.026096
_cell_angle_alpha 90.000000
_cell_angle_beta 66.355603
_cell_angle_gamma 90.000000
_cell_volume 2494.383423
_symmetry_space_group_name_H-M "C 2/C"
_symmetry_group_IT_number 15
_symmetry_cell_setting 'monoclinic'
loop_
_space_group_symop_operation_xyz
x,y,z
-x,y,1/2-z
-x,-y,-z
x,-y,1/2+z
1/2+x,1/2+y,z
1/2-x,1/2+y,1/2-z
1/2-x,1/2-y,-z
1/2+x,1/2-y,1/2+z
loop_
_atom_site_type_symbol
_atom_site_label
_atom_site_fract_x
_atom_site_fract_y
_atom_site_fract_z
Si Si1 0.218787 0.336448 0.179933
Si Si2 0.100979 0.548481 0.615881
Si Si3 0.561870 0.626109 0.069148
Si Si4 0.283073 0.054597 0.144459
Si Si5 0.205402 0.059778 0.404829
Si Si6 0.500000 0.730126 0.250000
Si Si7 0.168142 0.083555 0.666158
O O1 0.121830 0.381982 0.142149
O O2 0.139441 0.272331 0.202927
O O3 0.246651 0.367993 0.288785
O O4 0.364787 0.345548 0.064427
O O5 0.085713 0.550325 0.486940
O O6 0.243143 0.508771 0.584520
O O7 0.000000 0.524224 0.750000
O O8 0.673625 0.598374 0.117981
O O9 0.453050 0.571844 0.080800
O O10 0.490241 0.684290 0.150239
O O11 0.298137 0.078613 0.265139
O O12 0.219965 0.985691 0.177195
O O13 0.207309 0.092960 0.523227
O O14 0.000000 0.087024 0.750000
#
# Coordination Sequence:
#
# PCOD9279188 Si02
#       7
#     8   8   8   8   8   4   8
#     4  11  23  40  62  94 125 171 213 258 319 374
#     4  10  22  38  59  93 131 168 205 256 326 391
#     4  11  22  40  66  93 120 161 221 273 304 360
#     4  10  21  34  63  95 122 158 207 262 316 372
#     4  11  20  38  62  93 129 161 201 267 322 377
#     4  12  24  42  66  88 122 168 226 272 300 364
#     4  11  21  35  64  96 131 160 199 261 328 386
#
# _framework density 20.846834999999999
#
# number of rings (size 3 to 8) (size 9 to 14) (size 15 to 20)
#    0.000    1.231    5.385    1.385    0.000    3.077 
#    0.000    0.769    0.000    0.000    0.000    0.000 
#    0.000    0.000    0.000    0.000    0.000    0.000 
#
# Total GULP energy -144826.317917 kJ/mol
# GULP energy per Si atom -5570.242997 kJ/mol
# Density = 2.079939 g / cm^3
# Si number density = 20.846835 Si / 1000 Ang^3
#
#
#
# Elastic Constant Matrix: (Units=GPa)
#
#
# Indices 1 2 3 4 5 6 
#
# 1 14.7402 15.4560 25.1026 0.0000 -5.9166 0.0000
# 2 15.4560 71.6781 15.5730 0.0000 -10.2970 0.0000
# 3 25.1026 15.5730 204.4735 0.0000 14.3604 0.0000
# 4 0.0000 0.0000 0.0000 28.7719 0.0000 -15.1189
# 5 -5.9166 -10.2970 14.3604 0.0000 36.1718 0.0000
# 6 0.0000 0.0000 0.0000 -15.1189 0.0000 19.8827
#
#
#
# Elastic Compliance Matrix: (Units=1/GPa)
#
#
# Indices 1 2 3 4 5 6 
#
# 1 0.122680 -0.020305 -0.014934 0.000000 0.020216 0.000000
# 2 -0.020305 0.018330 0.000991 0.000000 0.001503 0.000000
# 3 -0.014934 0.000991 0.006995 0.000000 -0.004938 0.000000
# 4 0.000000 0.000000 0.000000 0.057886 0.000000 0.044016
# 5 0.020216 0.001503 -0.004938 0.000000 0.033341 0.000000
# 6 0.000000 0.000000 0.000000 0.044016 0.000000 0.083765
#
#
# Mechanical properties :
#
#
# Convention : Reuss Voigt Hill
#
# Bulk Modulus (GPa) = 12.57714 44.79501 28.68607
# Shear Modulus (GPa) = 11.96184 32.61599 22.28891
#
# Velocity S-wave (km/s) = 2.39800 3.95973 3.27337
# Velocity P-wave (km/s) = 3.70317 6.51462 5.29876
#
# Compressibility (1/GPa) = 0.07950936
#
# Stress axis : x y z
#
# Youngs Moduli (GPa) = 8.15130 54.55471 142.95199
#
# Poissons Ratio (x) = 1.10772 2.13489
# Poissons Ratio (y) = 0.16551 -0.14168
# Poissons Ratio (z) = 0.12173 -0.05407
#
# Static dielectric constant tensor:
#      x y z
#    x 1.819660 0.000000 -0.042050 
#    y 0.000000 1.688680 0.000000 
#    z -0.042050 0.000000 1.900470 
# 
# From -- ./inp_files/88823.got.cif
#   From: 2010.05.17/outbox.cif.g08.bks.cpg/sg15_45_cif.got.tgz:88823.got - 2010.06.03 18:47:42.
