data_PCOD9279817
_publ_section_title
;
Structure prediction by ZEFSAII (Michael W. Deem and Ramdas Pophale) SiO2 
 PCOD9279817
Probable space group: C 2/C
;
_chemical_formula_sum "Si O2"
_cell_formula_units_Z 44
_cell_length_a 27.295639
_cell_length_b 14.335280
_cell_length_c 7.742805
_cell_angle_alpha 90.000000
_cell_angle_beta 149.266192
_cell_angle_gamma 90.000000
_cell_volume 1548.322145
_symmetry_space_group_name_H-M "C 2/C"
_symmetry_group_IT_number 15
_symmetry_cell_setting 'monoclinic'
loop_
_space_group_symop_operation_xyz
x,y,z
-x,y,1/2-z
-x,-y,-z
x,-y,1/2+z
1/2+x,1/2+y,z
1/2-x,1/2+y,1/2-z
1/2-x,1/2-y,-z
1/2+x,1/2-y,1/2+z
loop_
_atom_site_type_symbol
_atom_site_label
_atom_site_fract_x
_atom_site_fract_y
_atom_site_fract_z
Si Si1 0.743095 0.349209 0.805227
Si Si2 0.264068 0.821739 0.373728
Si Si3 0.709916 0.512177 0.917002
Si Si4 0.000000 0.947053 0.750000
Si Si5 0.015687 0.195035 0.593535
Si Si6 0.972236 0.393871 0.869613
O O1 0.784007 0.245748 0.916336
O O2 0.757275 0.414667 0.011965
O O3 0.765621 0.424102 0.722913
O O4 0.631467 0.323148 0.431980
O O5 0.250000 0.750000 0.500000
O O6 0.212542 0.917678 0.261787
O O7 0.368447 0.863792 0.635027
O O8 0.596186 0.498347 0.592323
O O9 0.020175 0.880306 0.649557
O O10 0.000000 0.187037 0.750000
O O11 0.977928 0.297035 0.417905
O O12 0.000000 0.391007 0.750000
O O13 0.000000 0.500000 0.000000
#
# Coordination Sequence:
#
# PCOD9279817 Si02
#       6
#     8   8   8   4   8   8
#     4   9  20  36  58  82 121 162 201 265 323 387
#     4   9  20  43  63  87 135 177 214 274 353 400
#     4  10  21  36  59  90 117 166 213 257 330 398
#     4  10  22  36  60  96 118 166 228 258 324 414
#     4   9  20  37  58  85 128 163 207 272 326 378
#     4  10  22  40  65  98 130 177 228 282 343 412
#
# _framework density 28.417857999999999
#
# number of rings (size 3 to 8) (size 9 to 14) (size 15 to 20)
#    0.000    2.545    0.000    1.091    5.091    4.364 
#    3.273    0.909    0.000    0.000    0.000    0.000 
#    0.000    0.000    0.000    0.000    0.000    0.000 
#
# Total GULP energy -122680.793308 kJ/mol
# GULP energy per Si atom -5576.399696 kJ/mol
# Density = 2.835318 g / cm^3
# Si number density = 28.417858 Si / 1000 Ang^3
#
#
#
# Elastic Constant Matrix: (Units=GPa)
#
#
# Indices 1 2 3 4 5 6 
#
# 1 155.8328 72.9451 38.2109 0.0000 8.2899 0.0000
# 2 72.9451 265.5507 15.7154 0.0000 -9.0713 0.0000
# 3 38.2109 15.7154 70.4837 0.0000 19.8930 0.0000
# 4 0.0000 0.0000 0.0000 37.0896 0.0000 -12.5448
# 5 8.2899 -9.0713 19.8930 0.0000 48.4528 0.0000
# 6 0.0000 0.0000 0.0000 -12.5448 0.0000 49.8769
#
#
#
# Elastic Compliance Matrix: (Units=1/GPa)
#
#
# Indices 1 2 3 4 5 6 
#
# 1 0.008385 -0.002070 -0.004038 0.000000 -0.000164 0.000000
# 2 -0.002070 0.004390 -0.000213 0.000000 0.001264 0.000000
# 3 -0.004038 -0.000213 0.018369 0.000000 -0.006891 0.000000
# 4 0.000000 0.000000 0.000000 0.029469 0.000000 0.007412
# 5 -0.000164 0.001264 -0.006891 0.000000 0.023732 0.000000
# 6 0.000000 0.000000 0.000000 0.007412 0.000000 0.021914
#
#
# Mechanical properties :
#
#
# Convention : Reuss Voigt Hill
#
# Bulk Modulus (GPa) = 54.04803 82.84555 68.44679
# Shear Modulus (GPa) = 39.97823 51.41692 45.69757
#
# Velocity S-wave (km/s) = 3.75480 4.25822 4.01441
# Velocity P-wave (km/s) = 6.15292 7.30702 6.75466
#
# Compressibility (1/GPa) = 0.01850206
#
# Stress axis : x y z
#
# Youngs Moduli (GPa) = 119.26234 227.78265 54.43944
#
# Poissons Ratio (x) = 0.47150 0.21981
# Poissons Ratio (y) = 0.24687 0.01161
# Poissons Ratio (z) = 0.48155 0.04860
#
# Static dielectric constant tensor:
#      x y z
#    x 2.523640 0.000000 0.050430 
#    y 0.000000 2.258320 0.000000 
#    z 0.050430 0.000000 2.188910 
# 
# From -- ./inp_files/66349.got.cif
#   From: 2010.05.17/outbox.cif.g08.bks.cpg/sg15_34_cif.got.tgz:66349.got - 2010.06.03 18:47:42.
