data_PCOD9279190
_publ_section_title
;
Structure prediction by ZEFSAII (Michael W. Deem and Ramdas Pophale) SiO2 
 PCOD9279190
Probable space group: C 2/C
;
_chemical_formula_sum "Si O2"
_cell_formula_units_Z 64
_cell_length_a 18.605685
_cell_length_b 17.138358
_cell_length_c 20.662613
_cell_angle_alpha 90.000000
_cell_angle_beta 28.026929
_cell_angle_gamma 90.000000
_cell_volume 3095.943884
_symmetry_space_group_name_H-M "C 2/C"
_symmetry_group_IT_number 15
_symmetry_cell_setting 'monoclinic'
loop_
_space_group_symop_operation_xyz
x,y,z
-x,y,1/2-z
-x,-y,-z
x,-y,1/2+z
1/2+x,1/2+y,z
1/2-x,1/2+y,1/2-z
1/2-x,1/2-y,-z
1/2+x,1/2-y,1/2+z
loop_
_atom_site_type_symbol
_atom_site_label
_atom_site_fract_x
_atom_site_fract_y
_atom_site_fract_z
Si Si1 0.788229 0.788195 0.611183
Si Si2 0.315630 0.212606 0.047642
Si Si3 0.162290 0.271513 0.294515
Si Si4 0.421657 0.388030 0.102844
Si Si5 0.815706 0.822450 0.404839
Si Si6 0.946401 0.967331 0.945259
Si Si7 0.673089 0.927054 0.624114
Si Si8 0.375074 0.346825 0.898329
O O1 0.777503 0.782649 0.696043
O O2 0.757753 0.703001 0.605213
O O3 0.673987 0.850324 0.669632
O O4 0.957187 0.824609 0.466089
O O5 0.484784 0.209182 0.941759
O O6 0.320359 0.288820 0.997808
O O7 0.200041 0.228977 0.197601
O O8 0.266611 0.142813 0.038547
O O9 0.258900 0.349848 0.223479
O O10 0.435303 0.462104 0.138911
O O11 0.465315 0.415692 0.995067
O O12 0.750000 0.750000 0.500000
O O13 0.754829 0.897530 0.492519
O O14 0.000000 0.823522 0.250000
O O15 0.950316 0.918623 0.876206
O O16 0.780270 0.009400 0.073644
O O17 0.500000 0.952437 0.750000
O O18 0.500000 0.311260 0.750000
#
# Coordination Sequence:
#
# PCOD9279190 Si02
#       8
#     8   8   8   8   8   8   8   8
#     4  10  21  34  64  88 124 159 199 264 313 365
#     4  11  24  38  64 100 121 157 207 270 317 354
#     4  12  21  38  61  94 127 156 206 258 320 367
#     4  10  22  39  62  90 120 168 209 241 305 389
#     4  10  21  35  58  91 129 154 203 263 317 370
#     4  10  22  42  60  86 123 174 206 241 307 389
#     4  10  23  39  60  89 124 166 210 256 312 373
#     4  11  22  41  66  90 127 163 207 265 316 365
#
# _framework density 20.672208999999999
#
# number of rings (size 3 to 8) (size 9 to 14) (size 15 to 20)
#    0.000    1.500    3.750    1.500    7.000    1.500 
#    0.000    0.000    0.000    0.750    0.000    0.000 
#    0.000    0.000    0.000    0.000    0.000    0.000 
#
# Total GULP energy -178417.639655 kJ/mol
# GULP energy per Si atom -5575.551239 kJ/mol
# Density = 2.062516 g / cm^3
# Si number density = 20.672209 Si / 1000 Ang^3
#
#
#
# Elastic Constant Matrix: (Units=GPa)
#
#
# Indices 1 2 3 4 5 6 
#
# 1 121.0120 33.6832 13.5610 0.0016 2.8671 -0.0002
# 2 33.6832 44.2872 8.2273 0.0099 -2.2811 -0.0038
# 3 13.5610 8.2273 58.0115 0.0137 1.0870 -0.0057
# 4 0.0016 0.0099 0.0137 13.1097 -0.0038 -2.7960
# 5 2.8671 -2.2811 1.0870 -0.0038 38.9433 0.0009
# 6 -0.0002 -0.0038 -0.0057 -2.7960 0.0009 43.6975
#
#
#
# Elastic Compliance Matrix: (Units=1/GPa)
#
#
# Indices 1 2 3 4 5 6 
#
# 1 0.010644 -0.007908 -0.001344 0.000006 -0.001209 0.000000
# 2 -0.007908 0.029149 -0.002329 -0.000018 0.002355 0.000001
# 3 -0.001344 -0.002329 0.017893 -0.000017 -0.000537 0.000001
# 4 0.000006 -0.000018 -0.000017 0.077335 0.000006 0.004948
# 5 -0.001209 0.002355 -0.000537 0.000006 0.025920 0.000000
# 6 0.000000 0.000001 0.000001 0.004948 0.000000 0.023201
#
#
# Mechanical properties :
#
#
# Convention : Reuss Voigt Hill
#
# Bulk Modulus (GPa) = 28.96688 37.13930 33.05309
# Shear Modulus (GPa) = 22.85066 30.33937 26.59501
#
# Velocity S-wave (km/s) = 3.32833 3.83514 3.59069
# Velocity P-wave (km/s) = 5.36780 6.13317 5.76321
#
# Compressibility (1/GPa) = 0.03452219
#
# Stress axis : x y z
#
# Youngs Moduli (GPa) = 93.94864 34.30703 55.88912
#
# Poissons Ratio (x) = 0.27130 0.07512
# Poissons Ratio (y) = 0.74296 0.13019
# Poissons Ratio (z) = 0.12627 0.07991
#
# Static dielectric constant tensor:
#      x y z
#    x 1.808300 0.000000 0.021790 
#    y 0.000000 1.782490 0.000000 
#    z 0.021790 0.000000 1.763620 
# 
# From -- ./inp_files/249631.got.cif
#   From: 2010.05.17/outbox.cif.g08.bks.cpg/sg15_125_cif.got.tgz:249631.got - 2010.06.03 18:47:42.
