data_PCOD9279114
_publ_section_title
;
Structure prediction by ZEFSAII (Michael W. Deem and Ramdas Pophale) SiO2 
 PCOD9279114
Probable space group: C 2/C
;
_chemical_formula_sum "Si O2"
_cell_formula_units_Z 40
_cell_length_a 19.685361
_cell_length_b 17.620086
_cell_length_c 7.283221
_cell_angle_alpha 90.000000
_cell_angle_beta 48.043232
_cell_angle_gamma 90.000000
_cell_volume 1878.638360
_symmetry_space_group_name_H-M "C 2/C"
_symmetry_group_IT_number 15
_symmetry_cell_setting 'monoclinic'
loop_
_space_group_symop_operation_xyz
x,y,z
-x,y,1/2-z
-x,-y,-z
x,-y,1/2+z
1/2+x,1/2+y,z
1/2-x,1/2+y,1/2-z
1/2-x,1/2-y,-z
1/2+x,1/2-y,1/2+z
loop_
_atom_site_type_symbol
_atom_site_label
_atom_site_fract_x
_atom_site_fract_y
_atom_site_fract_z
Si Si1 0.388483 0.085688 0.109631
Si Si2 0.377192 0.578871 0.355844
Si Si3 0.500000 0.207683 0.750000
Si Si4 0.000000 0.552748 0.250000
Si Si5 0.442726 0.343518 0.080303
Si Si6 0.317933 0.587668 0.077816
O O1 0.449418 0.098136 0.181343
O O2 0.281266 0.088090 0.334302
O O3 0.415417 0.150159 0.914177
O O4 0.423384 0.004232 0.972670
O O5 0.374699 0.634150 0.535437
O O6 0.309037 0.595269 0.312371
O O7 0.362385 0.494076 0.453164
O O8 0.476688 0.594357 0.085449
O O9 0.511632 0.264241 0.556929
O O10 0.386185 0.350846 0.367158
#
# Coordination Sequence:
#
# PCOD9279114 Si02
#       6
#     8   8   4   4   8   8
#     4  10  21  39  64  86 117 148 200 244 294 350
#     4  10  21  34  57  92 124 151 188 246 301 337
#     4   9  22  46  54  78 127 162 188 238 291 360
#     4   9  20  40  62  88 111 156 188 250 305 334
#     4  10  23  39  57  83 129 163 190 231 298 358
#     4  12  20  34  63  93 114 151 201 252 285 343
#
# _framework density 21.292016
#
# number of rings (size 3 to 8) (size 9 to 14) (size 15 to 20)
#    0.000    2.000    2.000    2.400    2.800    0.800 
#    7.200    4.000    0.000    0.000    0.000    0.000 
#    0.000    0.000    0.000    0.000    0.000    0.000 
#
# Total GULP energy -111584.524930 kJ/mol
# GULP energy per Si atom -5579.226246 kJ/mol
# Density = 2.124355 g / cm^3
# Si number density = 21.292016 Si / 1000 Ang^3
#
#
#
# Elastic Constant Matrix: (Units=GPa)
#
#
# Indices 1 2 3 4 5 6 
#
# 1 95.8635 22.3987 12.1181 0.0000 9.2256 0.0000
# 2 22.3987 82.9446 23.6748 0.0000 -7.6465 0.0000
# 3 12.1181 23.6748 51.4583 0.0000 -9.3904 0.0000
# 4 0.0000 0.0000 0.0000 11.4403 0.0000 9.1050
# 5 9.2256 -7.6465 -9.3904 0.0000 36.2436 0.0000
# 6 0.0000 0.0000 0.0000 9.1050 0.0000 5.7633
#
#
#
# Elastic Compliance Matrix: (Units=1/GPa)
#
#
# Indices 1 2 3 4 5 6 
#
# 1 0.011800 -0.002949 -0.002187 0.000000 -0.004193 0.000000
# 2 -0.002949 0.014678 -0.005622 0.000000 0.002391 0.000000
# 3 -0.002187 -0.005622 0.023533 0.000000 0.005468 0.000000
# 4 0.000000 0.000000 0.000000 -0.339676 0.000000 0.536628
# 5 -0.004193 0.002391 0.005468 0.000000 0.030579 0.000000
# 6 0.000000 0.000000 0.000000 0.536628 0.000000 -0.674265
#
#
# Mechanical properties :
#
#
# Convention : Reuss Voigt Hill
#
# Bulk Modulus (GPa) = 35.09488 38.51663 36.80575
# Shear Modulus (GPa) = -5.54117 22.16110 8.30996
#
# Velocity S-wave (km/s) = -1.61497 3.22967 1.97771
# Velocity P-wave (km/s) = 3.61122 5.66009 4.74751
#
# Compressibility (1/GPa) = 0.02849419
#
# Stress axis : x y z
#
# Youngs Moduli (GPa) = 84.74223 68.13063 42.49396
#
# Poissons Ratio (x) = 0.20091 0.09295
# Poissons Ratio (y) = 0.24989 0.23891
# Poissons Ratio (z) = 0.18536 0.38304
#
# Static dielectric constant tensor:
#      x y z
#    x 1.832320 0.000000 0.043330 
#    y 0.000000 1.768560 0.000000 
#    z 0.043330 0.000000 1.780810 
# 
# From -- ./inp_files/56392.got.cif
#   From: 2010.05.17/outbox.cif.g08.bks.cpg/sg15_29_cif.got.tgz:56392.got - 2010.06.03 18:47:42.
