data_PCOD9279423
_publ_section_title
;
Structure prediction by ZEFSAII (Michael W. Deem and Ramdas Pophale) SiO2 
 PCOD9279423
Probable space group: C 2/C
;
_chemical_formula_sum "Si O2"
_cell_formula_units_Z 60
_cell_length_a 8.760352
_cell_length_b 20.908938
_cell_length_c 14.335872
_cell_angle_alpha 90.000000
_cell_angle_beta 87.120004
_cell_angle_gamma 90.000000
_cell_volume 2622.580142
_symmetry_space_group_name_H-M "C 2/C"
_symmetry_group_IT_number 15
_symmetry_cell_setting 'monoclinic'
loop_
_space_group_symop_operation_xyz
x,y,z
-x,y,1/2-z
-x,-y,-z
x,-y,1/2+z
1/2+x,1/2+y,z
1/2-x,1/2+y,1/2-z
1/2-x,1/2-y,-z
1/2+x,1/2-y,1/2+z
loop_
_atom_site_type_symbol
_atom_site_label
_atom_site_fract_x
_atom_site_fract_y
_atom_site_fract_z
Si Si1 0.364943 0.808786 0.914962
Si Si2 0.115730 0.009156 0.863207
Si Si3 0.272703 0.522865 0.933779
Si Si4 0.094256 0.587468 0.333364
Si Si5 0.727311 0.864940 0.196079
Si Si6 0.645183 0.635014 0.294973
Si Si7 0.075561 0.648340 0.899047
Si Si8 0.000000 0.781376 0.250000
O O1 0.477837 0.869817 0.894964
O O2 0.198765 0.832736 0.888183
O O3 0.417239 0.758878 0.834558
O O4 0.382772 0.798573 0.024696
O O5 0.216804 0.061490 0.806950
O O6 0.940669 0.032355 0.882403
O O7 0.115437 0.939633 0.816622
O O8 0.190472 0.997704 0.961963
O O9 0.184018 0.464952 0.887702
O O10 0.163241 0.584042 0.930159
O O11 0.215265 0.635141 0.281747
O O12 0.000000 0.557269 0.250000
O O13 0.606018 0.856792 0.115568
O O14 0.646029 0.844130 0.294260
O O15 0.879993 0.823289 0.194629
O O16 0.500000 0.664997 0.250000
#
# Coordination Sequence:
#
# PCOD9279423 Si02
#       8
#     8   8   8   8   8   8   8   4
#     4  11  24  46  71  98 133 180 237 295 343 411
#     4  11  23  39  64 100 143 182 221 278 359 421
#     4  11  22  37  65 104 146 175 223 284 350 436
#     4  10  21  35  59  95 130 176 213 272 347 397
#     4  11  27  45  69  99 140 192 230 287 352 427
#     4  11  20  38  64 101 133 172 219 286 345 405
#     4  11  25  45  69 105 136 180 241 286 355 420
#     4  12  26  52  72  92 138 190 242 294 354 410
#
# _framework density 22.878233000000002
#
# number of rings (size 3 to 8) (size 9 to 14) (size 15 to 20)
#    0.000    1.067    4.667    2.400    6.533    2.133 
#    2.400    0.000    0.000    0.000    0.000    0.000 
#    0.000    0.000    0.000    0.000    0.000    0.000 
#
# Total GULP energy -167777.085375 kJ/mol
# GULP energy per Si atom -5592.569512 kJ/mol
# Density = 2.282616 g / cm^3
# Si number density = 22.878233 Si / 1000 Ang^3
#
#
#
# Elastic Constant Matrix: (Units=GPa)
#
#
# Indices 1 2 3 4 5 6 
#
# 1 122.6322 36.1633 50.7866 0.0000 42.9802 0.0000
# 2 36.1633 73.0123 24.1779 0.0000 14.9592 0.0000
# 3 50.7866 24.1779 110.3493 0.0000 31.7949 0.0000
# 4 0.0000 0.0000 0.0000 21.2075 0.0000 7.2801
# 5 42.9802 14.9592 31.7949 0.0000 52.1831 0.0000
# 6 0.0000 0.0000 0.0000 7.2801 0.0000 18.9094
#
#
#
# Elastic Compliance Matrix: (Units=1/GPa)
#
#
# Indices 1 2 3 4 5 6 
#
# 1 0.013391 -0.003997 -0.002959 0.000000 -0.008080 0.000000
# 2 -0.003997 0.016292 -0.001617 0.000000 -0.000393 0.000000
# 3 -0.002959 -0.001617 0.012060 0.000000 -0.004447 0.000000
# 4 0.000000 0.000000 0.000000 0.054334 0.000000 -0.020919
# 5 -0.008080 -0.000393 -0.004447 0.000000 0.028641 0.000000
# 6 0.000000 0.000000 0.000000 -0.020919 0.000000 0.060938
#
#
# Mechanical properties :
#
#
# Convention : Reuss Voigt Hill
#
# Bulk Modulus (GPa) = 40.65559 58.69436 49.67497
# Shear Modulus (GPa) = 23.69679 31.45105 27.57392
#
# Velocity S-wave (km/s) = 3.22184 3.71174 3.47543
# Velocity P-wave (km/s) = 5.62578 6.63929 6.15343
#
# Compressibility (1/GPa) = 0.02459686
#
# Stress axis : x y z
#
# Youngs Moduli (GPa) = 74.67951 61.37976 82.92191
#
# Poissons Ratio (x) = 0.24534 0.24535
# Poissons Ratio (y) = 0.29850 0.13407
# Poissons Ratio (z) = 0.22096 0.09924
#
# Static dielectric constant tensor:
#      x y z
#    x 1.882860 0.000000 -0.017720 
#    y 0.000000 1.842480 0.000000 
#    z -0.017720 0.000000 1.913630 
# 
# From -- ./inp_files/137417.got.cif
#   From: 2010.05.17/outbox.cif.g08.bks.cpg/sg15_69_cif.got.tgz:137417.got - 2010.06.03 18:47:42.
