data_PCOD9279605
_publ_section_title
;
Structure prediction by ZEFSAII (Michael W. Deem and Ramdas Pophale) SiO2 
 PCOD9279605
Probable space group: C 2/C
;
_chemical_formula_sum "Si O2"
_cell_formula_units_Z 64
_cell_length_a 22.790246
_cell_length_b 17.078564
_cell_length_c 17.788133
_cell_angle_alpha 90.000000
_cell_angle_beta 26.964345
_cell_angle_gamma 90.000000
_cell_volume 3139.400141
_symmetry_space_group_name_H-M "C 2/C"
_symmetry_group_IT_number 15
_symmetry_cell_setting 'monoclinic'
loop_
_space_group_symop_operation_xyz
x,y,z
-x,y,1/2-z
-x,-y,-z
x,-y,1/2+z
1/2+x,1/2+y,z
1/2-x,1/2+y,1/2-z
1/2-x,1/2-y,-z
1/2+x,1/2-y,1/2+z
loop_
_atom_site_type_symbol
_atom_site_label
_atom_site_fract_x
_atom_site_fract_y
_atom_site_fract_z
Si Si1 0.030957 0.634225 0.922233
Si Si2 0.762643 0.874125 0.530017
Si Si3 0.876438 0.951618 0.115721
Si Si4 0.844240 0.216376 0.806211
Si Si5 0.978394 0.805013 0.542168
Si Si6 0.733585 0.395244 0.806245
Si Si7 0.845260 0.617019 0.557696
Si Si8 0.058325 0.505807 0.760572
O O1 0.120748 0.630053 0.893814
O O2 0.062253 0.570936 0.821907
O O3 0.038730 0.725874 0.891735
O O4 0.884713 0.617792 0.118122
O O5 0.859694 0.847826 0.354031
O O6 0.660150 0.801453 0.650619
O O7 0.810891 0.871858 0.560094
O O8 0.690947 0.956667 0.598281
O O9 0.930621 0.870076 0.022510
O O10 0.787830 0.932066 0.288306
O O11 0.793314 0.012290 0.164026
O O12 0.000000 0.000000 0.000000
O O13 0.944599 0.216224 0.623117
O O14 0.703121 0.193827 0.930551
O O15 0.848058 0.847652 0.662654
O O16 0.956881 0.563134 0.397894
O O17 0.000000 0.540200 0.750000
#
# Coordination Sequence:
#
# PCOD9279605 Si02
#       8
#     8   8   8   8   8   8   8   8
#     4  12  23  37  63  94 120 163 217 267 305 368
#     4  11  21  34  54  87 128 164 195 245 318 391
#     4   9  20  36  58  86 117 156 203 258 309 365
#     4  10  21  36  54  87 129 162 194 246 324 383
#     4  10  22  38  58  89 120 160 213 261 314 363
#     4  11  20  37  58  90 121 161 214 259 311 375
#     4  11  19  36  61  86 119 161 205 253 304 370
#     4  12  23  38  58  91 126 164 207 257 318 365
#
# _framework density 20.386060000000001
#
# number of rings (size 3 to 8) (size 9 to 14) (size 15 to 20)
#    0.000    1.250    5.000    1.875    1.750    0.500 
#    0.000    0.000    0.000    0.750   16.250    0.000 
#    0.000    0.000    0.000    0.000    0.000    0.000 
#
# Total GULP energy -178430.438788 kJ/mol
# GULP energy per Si atom -5575.951212 kJ/mol
# Density = 2.033966 g / cm^3
# Si number density = 20.386060 Si / 1000 Ang^3
#
#
#
# Elastic Constant Matrix: (Units=GPa)
#
#
# Indices 1 2 3 4 5 6 
#
# 1 83.2747 47.2814 3.5407 0.0000 1.9948 0.0000
# 2 47.2814 131.3334 26.7532 0.0000 2.9250 0.0000
# 3 3.5407 26.7532 40.6690 0.0000 -6.4889 0.0000
# 4 0.0000 0.0000 0.0000 25.6939 0.0000 -1.2652
# 5 1.9948 2.9250 -6.4889 0.0000 24.8002 0.0000
# 6 0.0000 0.0000 0.0000 -1.2652 0.0000 32.0730
#
#
#
# Elastic Compliance Matrix: (Units=1/GPa)
#
#
# Indices 1 2 3 4 5 6 
#
# 1 0.015338 -0.006074 0.002690 0.000000 0.000186 0.000000
# 2 -0.006074 0.011369 -0.007395 0.000000 -0.002787 0.000000
# 3 0.002690 -0.007395 0.030601 0.000000 0.008662 0.000000
# 4 0.000000 0.000000 0.000000 0.038996 0.000000 0.001538
# 5 0.000186 -0.002787 0.008662 0.000000 0.042903 0.000000
# 6 0.000000 0.000000 0.000000 0.001538 0.000000 0.031240
#
#
# Mechanical properties :
#
#
# Convention : Reuss Voigt Hill
#
# Bulk Modulus (GPa) = 27.97124 45.60308 36.78716
# Shear Modulus (GPa) = 24.51922 28.36020 26.43971
#
# Velocity S-wave (km/s) = 3.47182 3.73387 3.60523
# Velocity P-wave (km/s) = 5.46095 6.40370 5.95102
#
# Compressibility (1/GPa) = 0.03575101
#
# Stress axis : x y z
#
# Youngs Moduli (GPa) = 65.19617 87.95534 32.67834
#
# Poissons Ratio (x) = 0.53425 -0.08791
# Poissons Ratio (y) = 0.39601 0.24166
# Poissons Ratio (z) = -0.17538 0.65043
#
# Static dielectric constant tensor:
#      x y z
#    x 1.777870 0.000000 -0.035510 
#    y 0.000000 1.823880 0.000000 
#    z -0.035510 0.000000 1.745980 
# 
# From -- ./inp_files/216157.got.cif
#   From: 2010.05.17/outbox.cif.g08.bks.cpg/sg15_109_cif.got.tgz:216157.got - 2010.06.03 18:47:42.
