data_PCOD9279865
_publ_section_title
;
Structure prediction by ZEFSAII (Michael W. Deem and Ramdas Pophale) SiO2 
 PCOD9279865
Probable space group: C 2/C
;
_chemical_formula_sum "Si O2"
_cell_formula_units_Z 32
_cell_length_a 11.182128
_cell_length_b 18.756303
_cell_length_c 13.718846
_cell_angle_alpha 90.000000
_cell_angle_beta 30.510825
_cell_angle_gamma 90.000000
_cell_volume 1460.822406
_symmetry_space_group_name_H-M "C 2/C"
_symmetry_group_IT_number 15
_symmetry_cell_setting 'monoclinic'
loop_
_space_group_symop_operation_xyz
x,y,z
-x,y,1/2-z
-x,-y,-z
x,-y,1/2+z
1/2+x,1/2+y,z
1/2-x,1/2+y,1/2-z
1/2-x,1/2-y,-z
1/2+x,1/2-y,1/2+z
loop_
_atom_site_type_symbol
_atom_site_label
_atom_site_fract_x
_atom_site_fract_y
_atom_site_fract_z
Si Si1 0.269354 0.177557 0.094869
Si Si2 0.333592 0.427564 0.673419
Si Si3 0.963245 0.075849 0.661512
Si Si4 0.235423 0.660219 0.673484
O O1 0.304831 0.129782 0.166046
O O2 0.306388 0.261185 0.089432
O O3 0.000000 0.168982 0.250000
O O4 0.455513 0.155526 0.881475
O O5 0.317797 0.504890 0.732421
O O6 0.311765 0.428057 0.571200
O O7 0.606963 0.399974 0.488921
O O8 0.827389 0.145979 0.719896
O O9 0.000000 0.074696 0.750000
#
# Coordination Sequence:
#
# PCOD9279865 Si02
#       4
#     8   8   8   8
#     4  12  22  37  62  91 121 157 197 251 306 343
#     4   9  21  38  61  89 119 149 210 241 291 366
#     4   9  19  42  61  84 123 159 194 250 292 354
#     4  10  21  36  60  89 122 153 199 246 291 363
#
# _framework density 21.905470000000001
#
# number of rings (size 3 to 8) (size 9 to 14) (size 15 to 20)
#    1.500    0.500    2.500    1.500    0.000    1.000 
#    0.000    6.250    0.000    0.000    0.000    0.000 
#    0.000    0.000    0.000    0.000    0.000    0.000 
#
# Total GULP energy -89072.279239 kJ/mol
# GULP energy per Si atom -5567.017452 kJ/mol
# Density = 2.185561 g / cm^3
# Si number density = 21.905470 Si / 1000 Ang^3
#
#
#
# Elastic Constant Matrix: (Units=GPa)
#
#
# Indices 1 2 3 4 5 6 
#
# 1 80.1423 11.3989 12.4043 -0.0159 35.0772 0.0027
# 2 11.3989 46.2443 12.4794 0.1001 16.2683 0.1008
# 3 12.4043 12.4794 100.3028 0.1224 13.8351 0.0763
# 4 -0.0159 0.1001 0.1224 25.8690 -0.0149 13.5285
# 5 35.0772 16.2683 13.8351 -0.0149 30.9566 -0.0564
# 6 0.0027 0.1008 0.0763 13.5285 -0.0564 25.4317
#
#
#
# Elastic Compliance Matrix: (Units=1/GPa)
#
#
# Indices 1 2 3 4 5 6 
#
# 1 0.025624 0.004695 0.000631 0.000035 -0.031784 -0.000112
# 2 0.004695 0.027594 -0.001364 -0.000043 -0.019212 -0.000126
# 3 0.000631 -0.001364 0.010722 -0.000039 -0.004791 -0.000017
# 4 0.000035 -0.000043 -0.000039 0.053555 -0.000026 -0.028489
# 5 -0.031784 -0.019212 -0.004791 -0.000026 0.080556 0.000286
# 6 -0.000112 -0.000126 -0.000017 -0.028489 0.000286 0.054477
#
#
# Mechanical properties :
#
#
# Convention : Reuss Voigt Hill
#
# Bulk Modulus (GPa) = 13.91492 33.25052 23.58272
# Shear Modulus (GPa) = 18.61795 29.14524 23.88160
#
# Velocity S-wave (km/s) = 2.91851 3.65156 3.30542
# Velocity P-wave (km/s) = 4.20986 5.74374 5.03555
#
# Compressibility (1/GPa) = 0.07186529
#
# Stress axis : x y z
#
# Youngs Moduli (GPa) = 39.02614 36.23977 93.26394
#
# Poissons Ratio (x) = -0.17015 -0.05886
# Poissons Ratio (y) = -0.18323 0.12718
# Poissons Ratio (z) = -0.02463 0.04942
#
# Static dielectric constant tensor:
#      x y z
#    x 1.938430 -0.000020 0.030740 
#    y -0.000020 1.763170 -0.000010 
#    z 0.030740 -0.000010 1.879170 
# 
# From -- ./inp_files/145929.got.cif
#   From: 2010.05.17/outbox.cif.g08.bks.cpg/sg15_73_cif.got.tgz:145929.got - 2010.06.03 18:47:42.
