data_PCOD9279408
_publ_section_title
;
Structure prediction by ZEFSAII (Michael W. Deem and Ramdas Pophale) SiO2 
 PCOD9279408
Probable space group: C 2/C
;
_chemical_formula_sum "Si O2"
_cell_formula_units_Z 48
_cell_length_a 30.819453
_cell_length_b 8.406529
_cell_length_c 20.096927
_cell_angle_alpha 90.000000
_cell_angle_beta 149.912163
_cell_angle_gamma 90.000000
_cell_volume 2610.312184
_symmetry_space_group_name_H-M "C 2/C"
_symmetry_group_IT_number 15
_symmetry_cell_setting 'monoclinic'
loop_
_space_group_symop_operation_xyz
x,y,z
-x,y,1/2-z
-x,-y,-z
x,-y,1/2+z
1/2+x,1/2+y,z
1/2-x,1/2+y,1/2-z
1/2-x,1/2-y,-z
1/2+x,1/2-y,1/2+z
loop_
_atom_site_type_symbol
_atom_site_label
_atom_site_fract_x
_atom_site_fract_y
_atom_site_fract_z
Si Si1 0.292688 0.562484 0.132832
Si Si2 0.481605 0.445450 0.399200
Si Si3 0.776076 0.827028 0.235279
Si Si4 0.269283 0.062460 0.594584
Si Si5 0.658844 0.459416 0.563682
Si Si6 0.574972 0.885418 0.628366
O O1 0.395066 0.532485 0.260652
O O2 0.270629 0.452025 0.166892
O O3 0.274348 0.749425 0.115813
O O4 0.243605 0.520403 0.999663
O O5 0.500000 0.500000 0.500000
O O6 0.561005 0.481028 0.456374
O O7 0.466974 0.256357 0.384542
O O8 0.692500 0.716450 0.125069
O O9 0.786890 0.922196 0.317266
O O10 0.860650 0.713009 0.336367
O O11 0.187715 0.994542 0.527291
O O12 0.356861 0.985873 0.738492
O O13 0.500000 0.000000 0.500000
#
# Coordination Sequence:
#
# PCOD9279408 Si02
#       6
#     8   8   8   8   8   8
#     4  10  21  43  61  83 120 162 194 238 300 356
#     4  11  21  37  60  86 119 157 195 245 294 344
#     4  10  22  35  60  87 120 152 197 244 289 352
#     4  10  23  39  63  86 117 158 199 241 295 353
#     4  11  22  36  58  93 114 156 196 247 290 343
#     4  10  21  35  59  89 112 156 196 242 288 354
#
# _framework density 18.388604999999998
#
# number of rings (size 3 to 8) (size 9 to 14) (size 15 to 20)
#    0.000    1.667    3.333    2.000    4.667    6.667 
#    0.000    0.000    0.000    0.000    0.000    0.000 
#    0.000    0.000    0.000    0.000    0.000    0.000 
#
# Total GULP energy -133892.730736 kJ/mol
# GULP energy per Si atom -5578.863781 kJ/mol
# Density = 1.834675 g / cm^3
# Si number density = 18.388605 Si / 1000 Ang^3
#
#
#
# Elastic Constant Matrix: (Units=GPa)
#
#
# Indices 1 2 3 4 5 6 
#
# 1 28.8951 -1.8970 11.1204 0.0000 -1.3964 0.0000
# 2 -1.8970 35.1517 10.0588 0.0000 -7.3963 0.0000
# 3 11.1204 10.0588 69.6652 0.0000 4.2430 0.0000
# 4 0.0000 0.0000 0.0000 27.6009 0.0000 -0.0328
# 5 -1.3964 -7.3963 4.2430 0.0000 28.2982 0.0000
# 6 0.0000 0.0000 0.0000 -0.0328 0.0000 23.8000
#
#
#
# Elastic Compliance Matrix: (Units=1/GPa)
#
#
# Indices 1 2 3 4 5 6 
#
# 1 0.037832 0.004932 -0.007007 0.000000 0.004207 0.000000
# 2 0.004932 0.032478 -0.006064 0.000000 0.009641 0.000000
# 3 -0.007007 -0.006064 0.016618 0.000000 -0.004422 0.000000
# 4 0.000000 0.000000 0.000000 0.036231 0.000000 0.000050
# 5 0.004207 0.009641 -0.004422 0.000000 0.038729 0.000000
# 6 0.000000 0.000000 0.000000 0.000050 0.000000 0.042017
#
#
# Mechanical properties :
#
#
# Convention : Reuss Voigt Hill
#
# Bulk Modulus (GPa) = 14.15445 19.14183 16.64814
# Shear Modulus (GPa) = 20.51430 23.56847 22.04139
#
# Velocity S-wave (km/s) = 3.34368 3.58395 3.46590
# Velocity P-wave (km/s) = 4.75616 5.24962 5.00897
#
# Compressibility (1/GPa) = 0.07064915
#
# Stress axis : x y z
#
# Youngs Moduli (GPa) = 26.43278 30.78991 60.17641
#
# Poissons Ratio (x) = -0.15185 0.42167
# Poissons Ratio (y) = -0.13036 0.36491
# Poissons Ratio (z) = 0.18522 0.18671
#
# Static dielectric constant tensor:
#      x y z
#    x 1.636240 0.000000 0.008150 
#    y 0.000000 1.650200 0.000000 
#    z 0.008150 0.000000 1.619980 
# 
# From -- ./inp_files/208960.got.cif
#   From: 2010.05.17/outbox.cif.g08.bks.cpg/sg15_105_cif.got.tgz:208960.got - 2010.06.03 18:47:42.
