data_PCOD9279728
_publ_section_title
;
Structure prediction by ZEFSAII (Michael W. Deem and Ramdas Pophale) SiO2 
 PCOD9279728
Probable space group: C 2/C
;
_chemical_formula_sum "Si O2"
_cell_formula_units_Z 60
_cell_length_a 16.757786
_cell_length_b 18.404216
_cell_length_c 17.382206
_cell_angle_alpha 90.000000
_cell_angle_beta 150.709794
_cell_angle_gamma 90.000000
_cell_volume 2622.738135
_symmetry_space_group_name_H-M "C 2/C"
_symmetry_group_IT_number 15
_symmetry_cell_setting 'monoclinic'
loop_
_space_group_symop_operation_xyz
x,y,z
-x,y,1/2-z
-x,-y,-z
x,-y,1/2+z
1/2+x,1/2+y,z
1/2-x,1/2+y,1/2-z
1/2-x,1/2-y,-z
1/2+x,1/2-y,1/2+z
loop_
_atom_site_type_symbol
_atom_site_label
_atom_site_fract_x
_atom_site_fract_y
_atom_site_fract_z
Si Si1 0.000000 0.931178 0.750000
Si Si2 0.935719 0.427533 0.614856
Si Si3 0.818619 0.193466 0.620201
Si Si4 0.218556 0.277372 0.205404
Si Si5 0.842504 0.973505 0.767289
Si Si6 0.889590 0.362771 0.884788
Si Si7 0.344137 0.588545 0.891583
Si Si8 0.671584 0.918340 0.405404
O O1 0.941460 0.979427 0.772062
O O2 0.837190 0.888532 0.584842
O O3 0.779639 0.380774 0.463277
O O4 0.881653 0.509413 0.591616
O O5 0.000000 0.397112 0.750000
O O6 0.060170 0.406487 0.650966
O O7 0.750000 0.250000 0.500000
O O8 0.805533 0.223231 0.695410
O O9 0.000000 0.178333 0.750000
O O10 0.242714 0.194940 0.251765
O O11 0.312306 0.328116 0.345198
O O12 0.043205 0.315715 0.044118
O O13 0.681723 0.925260 0.620760
O O14 0.799093 0.046217 0.775623
O O15 0.971116 0.932034 0.931422
O O16 0.233964 0.564216 0.871250
O O17 0.500000 0.875917 0.250000
#
# Coordination Sequence:
#
# PCOD9279728 Si02
#       8
#     4   8   8   8   8   8   8   8
#     4  10  24  38  64  96 130 172 220 286 338 402
#     4  10  21  36  57  90 121 170 212 261 332 392
#     4  11  22  34  54  83 124 169 212 263 316 398
#     4  11  24  39  62  94 131 176 223 271 338 406
#     4  10  22  41  66  93 133 170 224 283 340 401
#     4  11  23  40  65  92 129 179 217 279 333 414
#     4  10  23  41  63  99 130 176 222 280 338 405
#     4  10  22  40  64  93 136 170 221 279 337 405
#
# _framework density 22.876854999999999
#
# number of rings (size 3 to 8) (size 9 to 14) (size 15 to 20)
#    0.000    1.600    0.000    5.200    6.533    3.733 
#    0.000    0.000    1.467    2.400    0.000    0.000 
#    0.000    0.000    0.000    0.000    0.000    0.000 
#
# Total GULP energy -167473.582430 kJ/mol
# GULP energy per Si atom -5582.452748 kJ/mol
# Density = 2.282479 g / cm^3
# Si number density = 22.876855 Si / 1000 Ang^3
#
#
#
# Elastic Constant Matrix: (Units=GPa)
#
#
# Indices 1 2 3 4 5 6 
#
# 1 112.6147 38.5813 21.4387 -0.0019 -0.8885 0.0002
# 2 38.5813 76.0709 8.9511 -0.0003 -2.8084 -0.0051
# 3 21.4387 8.9511 94.2881 -0.0003 7.0939 0.0002
# 4 -0.0019 -0.0003 -0.0003 19.3725 -0.0037 0.8677
# 5 -0.8885 -2.8084 7.0939 -0.0037 39.6539 -0.0029
# 6 0.0002 -0.0051 0.0002 0.8677 -0.0029 13.3312
#
#
#
# Elastic Compliance Matrix: (Units=1/GPa)
#
#
# Indices 1 2 3 4 5 6 
#
# 1 0.011115 -0.005390 -0.002033 0.000001 0.000231 -0.000002
# 2 -0.005390 0.015962 -0.000371 0.000000 0.001076 0.000006
# 3 -0.002033 -0.000371 0.011260 0.000000 -0.002086 -0.000001
# 4 0.000001 0.000000 0.000000 0.051771 0.000005 -0.003370
# 5 0.000231 0.001076 -0.002086 0.000005 0.025673 0.000006
# 6 -0.000002 0.000006 -0.000001 -0.003370 0.000006 0.075231
#
#
# Mechanical properties :
#
#
# Convention : Reuss Voigt Hill
#
# Bulk Modulus (GPa) = 43.95442 46.76843 45.36143
# Shear Modulus (GPa) = 23.34454 28.73837 26.04145
#
# Velocity S-wave (km/s) = 3.19790 3.54816 3.37758
# Velocity P-wave (km/s) = 5.73504 6.10524 5.92303
#
# Compressibility (1/GPa) = 0.02275084
#
# Stress axis : x y z
#
# Youngs Moduli (GPa) = 89.96748 62.64700 88.80827
#
# Poissons Ratio (x) = 0.33764 0.18055
# Poissons Ratio (y) = 0.48489 0.03294
# Poissons Ratio (z) = 0.18291 0.02324
#
# Static dielectric constant tensor:
#      x y z
#    x 1.817090 0.000000 -0.017850 
#    y 0.000000 1.793690 -0.000010 
#    z -0.017850 -0.000010 1.959500 
# 
# From -- ./inp_files/211753.got.cif
#   From: 2010.05.17/outbox.cif.g08.bks.cpg/sg15_106_cif.got.tgz:211753.got - 2010.06.03 18:47:42.
