data_PCOD9279210
_publ_section_title
;
Structure prediction by ZEFSAII (Michael W. Deem and Ramdas Pophale) SiO2 
 PCOD9279210
Probable space group: C 2/C
;
_chemical_formula_sum "Si O2"
_cell_formula_units_Z 48
_cell_length_a 29.078602
_cell_length_b 7.272603
_cell_length_c 10.864375
_cell_angle_alpha 90.000000
_cell_angle_beta 131.193591
_cell_angle_gamma 90.000000
_cell_volume 1728.892806
_symmetry_space_group_name_H-M "C 2/C"
_symmetry_group_IT_number 15
_symmetry_cell_setting 'monoclinic'
loop_
_space_group_symop_operation_xyz
x,y,z
-x,y,1/2-z
-x,-y,-z
x,-y,1/2+z
1/2+x,1/2+y,z
1/2-x,1/2+y,1/2-z
1/2-x,1/2-y,-z
1/2+x,1/2-y,1/2+z
loop_
_atom_site_type_symbol
_atom_site_label
_atom_site_fract_x
_atom_site_fract_y
_atom_site_fract_z
Si Si1 0.872882 0.831753 0.123750
Si Si2 0.938324 0.249889 0.088057
Si Si3 0.818107 0.170817 0.768161
Si Si4 0.715530 0.713527 0.263958
Si Si5 0.120729 0.265590 0.277482
Si Si6 0.996054 0.216749 0.951518
O O1 0.835701 0.736358 0.171325
O O2 0.944496 0.775949 0.254906
O O3 0.873199 0.050100 0.165570
O O4 0.832835 0.791593 0.934012
O O5 0.906006 0.356299 0.143980
O O6 0.000000 0.160518 0.250000
O O7 0.885107 0.124513 0.939957
O O8 0.965439 0.332954 0.010758
O O9 0.779949 0.254612 0.812613
O O10 0.780625 0.989748 0.675651
O O11 0.682740 0.822062 0.317064
O O12 0.066734 0.271524 0.080601
O O13 0.000000 0.000000 0.000000
#
# Coordination Sequence:
#
# PCOD9279210 Si02
#       6
#     8   8   8   8   8   8
#     4   9  17  31  48  70 103 135 168 204 255 306
#     4   9  16  31  50  73 103 128 166 215 254 300
#     4  10  21  35  51  77  99 140 171 206 257 303
#     4  11  21  34  50  73 109 136 173 206 249 314
#     4   9  17  28  46  76 102 129 165 211 261 292
#     4   8  15  25  46  73 101 131 161 207 266 297
#
# _framework density 27.763432999999999
#
# number of rings (size 3 to 8) (size 9 to 14) (size 15 to 20)
#    0.000    2.667    1.667    1.500    0.000    1.333 
#    0.000    0.000    0.000    0.000    4.333    3.500 
#    0.000    0.000    0.000    0.000    0.000    0.000 
#
# Total GULP energy -133676.095066 kJ/mol
# GULP energy per Si atom -5569.837294 kJ/mol
# Density = 2.770024 g / cm^3
# Si number density = 27.763433 Si / 1000 Ang^3
#
#
#
# Elastic Constant Matrix: (Units=GPa)
#
#
# Indices 1 2 3 4 5 6 
#
# 1 197.0042 -1.6782 31.4007 0.0000 15.9279 0.0000
# 2 -1.6782 61.2503 8.7360 0.0000 5.6418 0.0000
# 3 31.4007 8.7360 156.3162 0.0000 18.6917 0.0000
# 4 0.0000 0.0000 0.0000 5.2533 0.0000 0.9181
# 5 15.9279 5.6418 18.6917 0.0000 45.3354 0.0000
# 6 0.0000 0.0000 0.0000 0.9181 0.0000 16.1683
#
#
#
# Elastic Compliance Matrix: (Units=1/GPa)
#
#
# Indices 1 2 3 4 5 6 
#
# 1 0.005351 0.000420 -0.000912 0.000000 -0.001556 0.000000
# 2 0.000420 0.016625 -0.000787 0.000000 -0.001892 0.000000
# 3 -0.000912 -0.000787 0.006915 0.000000 -0.002433 0.000000
# 4 0.000000 0.000000 0.000000 0.192266 0.000000 -0.010917
# 5 -0.001556 -0.001892 -0.002433 0.000000 0.023843 0.000000
# 6 0.000000 0.000000 0.000000 -0.010917 0.000000 0.062469
#
#
# Mechanical properties :
#
#
# Convention : Reuss Voigt Hill
#
# Bulk Modulus (GPa) = 37.97685 54.60975 46.29330
# Shear Modulus (GPa) = 15.68357 38.42555 27.05456
#
# Velocity S-wave (km/s) = 2.37934 3.72430 3.12503
# Velocity P-wave (km/s) = 4.61051 6.18112 5.45266
#
# Compressibility (1/GPa) = 0.02633183
#
# Stress axis : x y z
#
# Youngs Moduli (GPa) = 186.88689 60.15217 144.60393
#
# Poissons Ratio (x) = -0.02527 0.13192
# Poissons Ratio (y) = -0.07850 0.11384
# Poissons Ratio (z) = 0.17049 0.04735
#
# Static dielectric constant tensor:
#      x y z
#    x 2.360760 0.000000 -0.062720 
#    y 0.000000 2.286520 0.000000 
#    z -0.062720 0.000000 2.143860 
# 
# From -- ./inp_files/103652.got.cif
#   From: 2010.05.17/outbox.cif.g08.bks.cpg/sg15_52_cif.got.tgz:103652.got - 2010.06.03 18:47:42.
