data_PCOD9279189
_publ_section_title
;
Structure prediction by ZEFSAII (Michael W. Deem and Ramdas Pophale) SiO2 
 PCOD9279189
Probable space group: C 2/C
;
_chemical_formula_sum "Si O2"
_cell_formula_units_Z 48
_cell_length_a 18.160457
_cell_length_b 24.788929
_cell_length_c 5.159163
_cell_angle_alpha 90.000000
_cell_angle_beta 96.189463
_cell_angle_gamma 90.000000
_cell_volume 2309.004573
_symmetry_space_group_name_H-M "C 2/C"
_symmetry_group_IT_number 15
_symmetry_cell_setting 'monoclinic'
loop_
_space_group_symop_operation_xyz
x,y,z
-x,y,1/2-z
-x,-y,-z
x,-y,1/2+z
1/2+x,1/2+y,z
1/2-x,1/2+y,1/2-z
1/2-x,1/2-y,-z
1/2+x,1/2-y,1/2+z
loop_
_atom_site_type_symbol
_atom_site_label
_atom_site_fract_x
_atom_site_fract_y
_atom_site_fract_z
Si Si1 0.952845 0.376224 0.479962
Si Si2 0.290504 0.386809 0.108420
Si Si3 0.413857 0.464643 0.225919
Si Si4 0.671317 0.187832 0.861505
Si Si5 0.663392 0.035069 0.378188
Si Si6 0.727812 0.706117 0.203636
O O1 0.900938 0.332007 0.313910
O O2 0.902532 0.424227 0.574071
O O3 0.000000 0.397027 0.250000
O O4 0.000000 0.356768 0.750000
O O5 0.358513 0.416172 0.265413
O O6 0.237647 0.348645 0.262867
O O7 0.238729 0.432703 0.965450
O O8 0.318975 0.344087 0.908531
O O9 0.500000 0.448651 0.250000
O O10 0.400195 0.509798 0.438502
O O11 0.681037 0.252952 0.862778
O O12 0.694106 0.179762 0.170079
O O13 0.660082 0.985860 0.582992
O O14 0.750000 0.750000 0.000000
#
# Coordination Sequence:
#
# PCOD9279189 Si02
#       6
#     8   8   8   8   8   8
#     4  11  25  40  63  86 125 170 205 249 307 364
#     4  10  21  34  64  87 118 155 202 250 301 357
#     4  10  22  39  59  87 123 160 194 239 302 363
#     4   9  21  38  62  91 118 155 206 253 304 361
#     4  11  24  38  59  89 122 158 211 255 293 352
#     4   9  19  37  63  89 117 149 199 256 309 353
#
# _framework density 20.788177999999998
#
# number of rings (size 3 to 8) (size 9 to 14) (size 15 to 20)
#    0.000    2.000    0.000    2.000   14.000    2.000 
#    0.000    0.833    0.000    0.000    0.000    0.000 
#    0.000    0.000    0.000    0.000    0.000    0.000 
#
# Total GULP energy -133605.916267 kJ/mol
# GULP energy per Si atom -5566.913178 kJ/mol
# Density = 2.074086 g / cm^3
# Si number density = 20.788178 Si / 1000 Ang^3
#
#
#
# Elastic Constant Matrix: (Units=GPa)
#
#
# Indices 1 2 3 4 5 6 
#
# 1 68.0668 34.0608 11.0502 0.0000 13.1880 0.0000
# 2 34.0608 73.2273 10.8459 0.0000 22.6386 0.0000
# 3 11.0502 10.8459 70.5260 0.0000 10.5565 0.0000
# 4 0.0000 0.0000 0.0000 27.8713 0.0000 2.8834
# 5 13.1880 22.6386 10.5565 0.0000 24.4297 0.0000
# 6 0.0000 0.0000 0.0000 2.8834 0.0000 13.9215
#
#
#
# Elastic Compliance Matrix: (Units=1/GPa)
#
#
# Indices 1 2 3 4 5 6 
#
# 1 0.019435 -0.008094 -0.001446 0.000000 -0.002366 0.000000
# 2 -0.008094 0.022517 0.000294 0.000000 -0.016623 0.000000
# 3 -0.001446 0.000294 0.015272 0.000000 -0.006091 0.000000
# 4 0.000000 0.000000 0.000000 0.036665 0.000000 -0.007594
# 5 -0.002366 -0.016623 -0.006091 0.000000 0.060247 0.000000
# 6 0.000000 0.000000 0.000000 -0.007594 0.000000 0.073404
#
#
# Mechanical properties :
#
#
# Convention : Reuss Voigt Hill
#
# Bulk Modulus (GPa) = 25.81954 35.97045 30.89500
# Shear Modulus (GPa) = 19.30915 23.63537 21.47226
#
# Velocity S-wave (km/s) = 3.05101 3.37554 3.21737
# Velocity P-wave (km/s) = 4.98586 5.70380 5.35687
#
# Compressibility (1/GPa) = 0.03873035
#
# Stress axis : x y z
#
# Youngs Moduli (GPa) = 51.45341 44.41137 65.47801
#
# Poissons Ratio (x) = 0.35948 0.09469
# Poissons Ratio (y) = 0.41648 -0.01923
# Poissons Ratio (z) = 0.07441 -0.01304
#
# Static dielectric constant tensor:
#      x y z
#    x 1.816170 0.000000 -0.027420 
#    y 0.000000 1.784980 0.000000 
#    z -0.027420 0.000000 1.943810 
# 
# From -- ./inp_files/10887.got.cif
#   From: 2010.05.17/outbox.cif.g08.bks.cpg/sg15_6_cif.got.tgz:10887.got - 2010.06.03 18:47:42.
