data_PCOD9279168
_publ_section_title
;
Structure prediction by ZEFSAII (Michael W. Deem and Ramdas Pophale) SiO2 
 PCOD9279168
Probable space group: C 2/C
;
_chemical_formula_sum "Si O2"
_cell_formula_units_Z 48
_cell_length_a 19.876373
_cell_length_b 16.571718
_cell_length_c 8.354387
_cell_angle_alpha 90.000000
_cell_angle_beta 136.613851
_cell_angle_gamma 90.000000
_cell_volume 1890.254439
_symmetry_space_group_name_H-M "C 2/C"
_symmetry_group_IT_number 15
_symmetry_cell_setting 'monoclinic'
loop_
_space_group_symop_operation_xyz
x,y,z
-x,y,1/2-z
-x,-y,-z
x,-y,1/2+z
1/2+x,1/2+y,z
1/2-x,1/2+y,1/2-z
1/2-x,1/2-y,-z
1/2+x,1/2-y,1/2+z
loop_
_atom_site_type_symbol
_atom_site_label
_atom_site_fract_x
_atom_site_fract_y
_atom_site_fract_z
Si Si1 0.207326 0.088681 0.115397
Si Si2 0.367902 0.105449 0.996082
Si Si3 0.455035 0.389249 0.937820
Si Si4 0.637766 0.632615 0.568187
Si Si5 0.902295 0.233666 0.741807
Si Si6 0.332383 0.959522 0.121672
O O1 0.103820 0.067737 0.023107
O O2 0.277880 0.092807 0.392013
O O3 0.178008 0.172358 0.977999
O O4 0.256025 0.020285 0.086783
O O5 0.249171 0.109750 0.781868
O O6 0.395939 0.024494 0.136782
O O7 0.390666 0.094460 0.848819
O O8 0.398423 0.181067 0.153049
O O9 0.395001 0.378226 0.670503
O O10 0.562320 0.414928 0.057706
O O11 0.487525 0.302757 0.065988
O O12 0.623784 0.723182 0.614241
#
# Coordination Sequence:
#
# PCOD9279168 Si02
#       6
#     8   8   8   8   8   8
#     4  11  20  37  54  83 115 150 191 228 282 344
#     4  11  20  40  55  84 113 153 197 227 289 333
#     4   9  19  35  52  84 111 141 190 227 281 328
#     4   9  18  35  56  79 111 143 184 241 269 332
#     4  10  21  34  61  79 114 152 192 241 270 338
#     4  10  23  35  57  81 123 153 183 232 287 350
#
# _framework density 25.393408000000001
#
# number of rings (size 3 to 8) (size 9 to 14) (size 15 to 20)
#    1.000    1.000    3.333    1.000    0.000    0.667 
#    0.000   15.000    0.000    0.000    0.000   14.000 
#    0.000    0.000    0.000    0.000    0.000    0.000 
#
# Total GULP energy -133803.479659 kJ/mol
# GULP energy per Si atom -5575.144986 kJ/mol
# Density = 2.533561 g / cm^3
# Si number density = 25.393408 Si / 1000 Ang^3
#
#
#
# Elastic Constant Matrix: (Units=GPa)
#
#
# Indices 1 2 3 4 5 6 
#
# 1 72.0458 -14.4678 36.5475 0.0000 4.2683 0.0000
# 2 -14.4678 58.9629 7.3502 0.0000 -2.5649 0.0000
# 3 36.5475 7.3502 82.2530 0.0000 -13.8202 0.0000
# 4 0.0000 0.0000 0.0000 11.6799 0.0000 -10.8623
# 5 4.2683 -2.5649 -13.8202 0.0000 45.3874 0.0000
# 6 0.0000 0.0000 0.0000 -10.8623 0.0000 10.0576
#
#
#
# Elastic Compliance Matrix: (Units=1/GPa)
#
#
# Indices 1 2 3 4 5 6 
#
# 1 0.020796 0.006215 -0.010608 0.000000 -0.004834 0.000000
# 2 0.006215 0.019020 -0.004615 0.000000 -0.000915 0.000000
# 3 -0.010608 -0.004615 0.018346 0.000000 0.006323 0.000000
# 4 0.000000 0.000000 0.000000-19.479569 0.000000-21.037994
# 5 -0.004834 -0.000915 0.006323 0.000000 0.024361 0.000000
# 6 0.000000 0.000000 0.000000-21.037994 0.000000-22.621671
#
#
# Mechanical properties :
#
#
# Convention : Reuss Voigt Hill
#
# Bulk Modulus (GPa) = 24.90915 30.23572 27.57244
# Shear Modulus (GPa) = -0.11908 25.68043 12.78068
#
# Velocity S-wave (km/s) = -0.21679 3.18355 2.24588
# Velocity P-wave (km/s) = 3.12537 5.04441 4.19607
#
# Compressibility (1/GPa) = 0.04014589
#
# Stress axis : x y z
#
# Youngs Moduli (GPa) = 48.08712 52.57572 54.50855
#
# Poissons Ratio (x) = -0.32674 0.57821
# Poissons Ratio (y) = -0.29885 0.25154
# Poissons Ratio (z) = 0.51010 0.24262
#
# Static dielectric constant tensor:
#      x y z
#    x 2.152860 0.000000 -0.009940 
#    y 0.000000 2.070280 0.000000 
#    z -0.009940 0.000000 2.033550 
# 
# From -- ./inp_files/66482.got.cif
#   From: 2010.05.17/outbox.cif.g08.bks.cpg/sg15_34_cif.got.tgz:66482.got - 2010.06.03 18:47:42.
