data_PCOD9279524
_publ_section_title
;
Structure prediction by ZEFSAII (Michael W. Deem and Ramdas Pophale) SiO2 
 PCOD9279524
Probable space group: C 2/C
;
_chemical_formula_sum "Si O2"
_cell_formula_units_Z 52
_cell_length_a 11.850894
_cell_length_b 17.859223
_cell_length_c 14.002710
_cell_angle_alpha 90.000000
_cell_angle_beta 102.640652
_cell_angle_gamma 90.000000
_cell_volume 2891.808661
_symmetry_space_group_name_H-M "C 2/C"
_symmetry_group_IT_number 15
_symmetry_cell_setting 'monoclinic'
loop_
_space_group_symop_operation_xyz
x,y,z
-x,y,1/2-z
-x,-y,-z
x,-y,1/2+z
1/2+x,1/2+y,z
1/2-x,1/2+y,1/2-z
1/2-x,1/2-y,-z
1/2+x,1/2-y,1/2+z
loop_
_atom_site_type_symbol
_atom_site_label
_atom_site_fract_x
_atom_site_fract_y
_atom_site_fract_z
Si Si1 0.990100 0.673213 0.048890
Si Si2 0.461113 0.327347 0.137285
Si Si3 0.179998 0.477308 0.297139
Si Si4 0.000000 0.598062 0.250000
Si Si5 0.817874 0.566201 0.497592
Si Si6 0.601385 0.453435 0.065692
Si Si7 0.708239 0.902556 0.108297
O O1 0.983510 0.761912 0.064406
O O2 0.963503 0.642392 0.149878
O O3 0.891987 0.646246 0.957977
O O4 0.108652 0.631244 0.038849
O O5 0.500000 0.301289 0.250000
O O6 0.545843 0.394292 0.125408
O O7 0.331515 0.362116 0.112595
O O8 0.124250 0.449822 0.387098
O O9 0.307169 0.501935 0.356120
O O10 0.192156 0.414992 0.218494
O O11 0.106313 0.544654 0.243499
O O12 0.685968 0.585252 0.503390
O O13 0.805667 0.486236 0.440990
O O14 0.500000 0.500000 0.000000
#
# Coordination Sequence:
#
# PCOD9279524 Si02
#       7
#     8   8   8   4   8   8   8
#     4  12  24  37  60  92 128 158 203 261 321 373
#     4  12  23  40  60  90 127 165 202 253 318 379
#     4  10  21  35  64  91 120 154 214 260 299 367
#     4  12  20  36  58  98 122 150 204 270 312 360
#     4  10  21  38  63  89 118 160 202 259 300 362
#     4  10  21  40  62  88 120 162 211 254 304 376
#     4  12  21  39  63  91 118 165 207 253 312 370
#
# _framework density 17.981826000000002
#
# number of rings (size 3 to 8) (size 9 to 14) (size 15 to 20)
#    0.923    0.000    6.923    1.846    0.000    0.615 
#    0.000    0.000    0.000    0.000    4.000    0.000 
#    0.000    0.000    0.000    0.000    0.000    0.000 
#
# Total GULP energy -144739.629996 kJ/mol
# GULP energy per Si atom -5566.908846 kJ/mol
# Density = 1.794090 g / cm^3
# Si number density = 17.981826 Si / 1000 Ang^3
#
#
#
# Elastic Constant Matrix: (Units=GPa)
#
#
# Indices 1 2 3 4 5 6 
#
# 1 100.3987 25.7390 18.1783 0.0000 17.2642 0.0000
# 2 25.7390 47.1214 13.8627 0.0000 4.3466 0.0000
# 3 18.1783 13.8627 87.9702 0.0000 7.6189 0.0000
# 4 0.0000 0.0000 0.0000 22.9565 0.0000 -7.5205
# 5 17.2642 4.3466 7.6189 0.0000 31.9070 0.0000
# 6 0.0000 0.0000 0.0000 -7.5205 0.0000 18.0568
#
#
#
# Elastic Compliance Matrix: (Units=1/GPa)
#
#
# Indices 1 2 3 4 5 6 
#
# 1 0.012722 -0.006072 -0.001172 0.000000 -0.005777 0.000000
# 2 -0.006072 0.025309 -0.002777 0.000000 0.000501 0.000000
# 3 -0.001172 -0.002777 0.012212 0.000000 -0.001904 0.000000
# 4 0.000000 0.000000 0.000000 0.050443 0.000000 0.021009
# 5 -0.005777 0.000501 -0.001904 0.000000 0.034853 0.000000
# 6 0.000000 0.000000 0.000000 0.021009 0.000000 0.064131
#
#
# Mechanical properties :
#
#
# Convention : Reuss Voigt Hill
#
# Bulk Modulus (GPa) = 33.10979 39.00558 36.05769
# Shear Modulus (GPa) = 21.75996 26.43140 24.09568
#
# Velocity S-wave (km/s) = 3.48244 3.83808 3.66457
# Velocity P-wave (km/s) = 5.88411 6.43272 6.16452
#
# Compressibility (1/GPa) = 0.03020255
#
# Stress axis : x y z
#
# Youngs Moduli (GPa) = 78.60129 39.51143 81.88585
#
# Poissons Ratio (x) = 0.23990 0.09596
# Poissons Ratio (y) = 0.47724 0.22740
# Poissons Ratio (z) = 0.09211 0.10972
#
# Static dielectric constant tensor:
#      x y z
#    x 1.639770 0.000000 -0.007110 
#    y 0.000000 1.607400 0.000000 
#    z -0.007110 0.000000 1.659560 
# 
# From -- ./inp_files/145125.got.cif
#   From: 2010.05.17/outbox.cif.g08.bks.cpg/sg15_73_cif.got.tgz:145125.got - 2010.06.03 18:47:42.
