data_PCOD9279818
_publ_section_title
;
Structure prediction by ZEFSAII (Michael W. Deem and Ramdas Pophale) SiO2 
 PCOD9279818
Probable space group: C 2/C
;
_chemical_formula_sum "Si O2"
_cell_formula_units_Z 40
_cell_length_a 18.999010
_cell_length_b 13.258421
_cell_length_c 8.456190
_cell_angle_alpha 90.000000
_cell_angle_beta 67.173933
_cell_angle_gamma 90.000000
_cell_volume 1963.273729
_symmetry_space_group_name_H-M "C 2/C"
_symmetry_group_IT_number 15
_symmetry_cell_setting 'monoclinic'
loop_
_space_group_symop_operation_xyz
x,y,z
-x,y,1/2-z
-x,-y,-z
x,-y,1/2+z
1/2+x,1/2+y,z
1/2-x,1/2+y,1/2-z
1/2-x,1/2-y,-z
1/2+x,1/2-y,1/2+z
loop_
_atom_site_type_symbol
_atom_site_label
_atom_site_fract_x
_atom_site_fract_y
_atom_site_fract_z
Si Si1 0.085166 0.642512 0.109152
Si Si2 0.231484 0.633350 0.499772
Si Si3 0.915414 0.441476 0.248634
Si Si4 0.090887 0.129103 0.635998
Si Si5 0.820307 0.997852 0.181273
O O1 0.116353 0.555216 0.197091
O O2 0.117629 0.755093 0.086112
O O3 0.000000 0.655892 0.250000
O O4 0.084729 0.596831 0.931774
O O5 0.250000 0.750000 0.500000
O O6 0.140808 0.624747 0.597041
O O7 0.266529 0.577897 0.317652
O O8 0.269777 0.570241 0.609231
O O9 0.000000 0.438378 0.250000
O O10 0.115019 0.061756 0.465559
O O11 0.000000 0.125205 0.750000
O O12 0.137744 0.077959 0.736349
#
# Coordination Sequence:
#
# PCOD9279818 Si02
#       5
#     8   8   8   8   8
#     4  10  21  36  59  90 118 151 195 245 295 341
#     4  11  24  41  61  88 122 158 196 243 303 353
#     4  11  22  39  61  88 120 156 199 245 290 354
#     4  10  21  40  63  88 119 159 203 245 294 352
#     4  10  23  40  60  88 120 156 199 250 298 352
#
# _framework density 20.374133
#
# number of rings (size 3 to 8) (size 9 to 14) (size 15 to 20)
#    0.000    1.600    0.000    5.400    0.000    6.400 
#    0.000   10.000    0.000    1.200    0.000    0.000 
#    0.000    0.000    0.000    0.000    0.000    0.000 
#
# Total GULP energy -111668.493857 kJ/mol
# GULP energy per Si atom -5583.424693 kJ/mol
# Density = 2.032776 g / cm^3
# Si number density = 20.374133 Si / 1000 Ang^3
#
#
#
# Elastic Constant Matrix: (Units=GPa)
#
#
# Indices 1 2 3 4 5 6 
#
# 1 74.6776 49.0960 40.7462 0.0000 -14.2090 0.0000
# 2 49.0960 207.1636 73.4969 0.0000 7.1068 0.0000
# 3 40.7462 73.4969 136.5669 0.0000 1.7035 0.0000
# 4 0.0000 0.0000 0.0000 -64.4484 0.0000 -115.8430
# 5 -14.2090 7.1068 1.7035 0.0000 22.4924 0.0000
# 6 0.0000 0.0000 0.0000 -115.8430 0.0000 -116.8464
#
#
#
# Elastic Compliance Matrix: (Units=1/GPa)
#
#
# Indices 1 2 3 4 5 6 
#
# 1 0.021274 -0.004004 -0.004380 0.000000 0.015036 0.000000
# 2 -0.004004 0.006781 -0.002399 0.000000 -0.004490 0.000000
# 3 -0.004380 -0.002399 0.009955 0.000000 -0.002763 0.000000
# 4 0.000000 0.000000 0.000000 0.019841 0.000000 -0.019671
# 5 0.015036 -0.004490 -0.002763 0.000000 0.055586 0.000000
# 6 0.000000 0.000000 0.000000 -0.019671 0.000000 0.010944
#
#
# Mechanical properties :
#
#
# Convention : Reuss Voigt Hill
#
# Bulk Modulus (GPa) = 60.81102 82.78736 71.79919
# Shear Modulus (GPa) = 33.01912 -14.75588 9.13162
#
# Velocity S-wave (km/s) = 4.03008 -2.69410 2.11936
# Velocity P-wave (km/s) = 7.18104 5.57173 6.42696
#
# Compressibility (1/GPa) = 0.01644439
#
# Stress axis : x y z
#
# Youngs Moduli (GPa) = 47.00603 147.47102 100.45419
#
# Poissons Ratio (x) = 0.59040 0.44001
# Poissons Ratio (y) = 0.18819 0.24098
# Poissons Ratio (z) = 0.20590 0.35376
#
# Static dielectric constant tensor:
#      x y z
#    x 1.728110 0.000000 -0.000100 
#    y 0.000000 1.745150 0.000000 
#    z -0.000100 0.000000 1.733610 
# 
# From -- ./inp_files/54048.got.cif
#   From: 2010.05.17/outbox.cif.g08.bks.cpg/sg15_28_cif.got.tgz:54048.got - 2010.06.03 18:47:42.
