data_PCOD9279360
_publ_section_title
;
Structure prediction by ZEFSAII (Michael W. Deem and Ramdas Pophale) SiO2 
 PCOD9279360
Probable space group: C 2/C
;
_chemical_formula_sum "Si O2"
_cell_formula_units_Z 48
_cell_length_a 15.122504
_cell_length_b 27.322273
_cell_length_c 5.405142
_cell_angle_alpha 90.000000
_cell_angle_beta 97.571191
_cell_angle_gamma 90.000000
_cell_volume 2213.832839
_symmetry_space_group_name_H-M "C 2/C"
_symmetry_group_IT_number 15
_symmetry_cell_setting 'monoclinic'
loop_
_space_group_symop_operation_xyz
x,y,z
-x,y,1/2-z
-x,-y,-z
x,-y,1/2+z
1/2+x,1/2+y,z
1/2-x,1/2+y,1/2-z
1/2-x,1/2-y,-z
1/2+x,1/2-y,1/2+z
loop_
_atom_site_type_symbol
_atom_site_label
_atom_site_fract_x
_atom_site_fract_y
_atom_site_fract_z
Si Si1 0.543986 0.577766 0.516236
Si Si2 0.740906 0.307556 0.536737
Si Si3 0.735113 0.531112 0.588227
Si Si4 0.531638 0.312184 0.514814
Si Si5 0.411020 0.846942 0.817387
Si Si6 0.144968 0.382675 0.200441
O O1 0.500000 0.558277 0.750000
O O2 0.646402 0.564145 0.564082
O O3 0.521925 0.635890 0.504328
O O4 0.500000 0.557806 0.250000
O O5 0.750000 0.250000 0.500000
O O6 0.638124 0.319962 0.556739
O O7 0.816608 0.319021 0.767745
O O8 0.776962 0.342383 0.328558
O O9 0.735236 0.492644 0.815564
O O10 0.815033 0.567543 0.680619
O O11 0.500000 0.285070 0.750000
O O12 0.500000 0.288020 0.250000
O O13 0.500000 0.820872 0.750000
O O14 0.398156 0.887063 0.589663
O O15 0.415785 0.863601 0.099414
#
# Coordination Sequence:
#
# PCOD9279360 Si02
#       6
#     8   8   8   8   8   8
#     4  10  21  35  58  85 134 174 222 256 328 385
#     4  10  25  43  70 104 135 184 232 282 344 413
#     4  12  25  40  66 100 136 178 231 278 337 416
#     4  10  22  39  62  92 137 180 221 266 331 401
#     4  10  23  43  73  99 132 177 229 284 350 408
#     4  10  23  43  72  92 143 173 225 280 358 393
#
# _framework density 21.681854000000001
#
# number of rings (size 3 to 8) (size 9 to 14) (size 15 to 20)
#    1.000    0.667    0.000    4.500    7.000    3.333 
#    3.000    0.000    0.000   10.000    0.000    0.000 
#    0.000    0.000    0.000    0.000    0.000    0.000 
#
# Total GULP energy -133714.136398 kJ/mol
# GULP energy per Si atom -5571.422350 kJ/mol
# Density = 2.163251 g / cm^3
# Si number density = 21.681854 Si / 1000 Ang^3
#
#
#
# Elastic Constant Matrix: (Units=GPa)
#
#
# Indices 1 2 3 4 5 6 
#
# 1 120.4575 15.6819 40.4439 0.0000 2.0856 0.0000
# 2 15.6819 64.6672 0.1565 0.0000 3.4980 0.0000
# 3 40.4439 0.1565 158.6040 0.0000 -1.5596 0.0000
# 4 0.0000 0.0000 0.0000 117.1209 0.0000 362.0939
# 5 2.0856 3.4980 -1.5596 0.0000 42.3297 0.0000
# 6 0.0000 0.0000 0.0000 362.0939 0.0000 678.6849
#
#
#
# Elastic Compliance Matrix: (Units=1/GPa)
#
#
# Indices 1 2 3 4 5 6 
#
# 1 0.009408 -0.002256 -0.002400 0.000000 -0.000366 0.000000
# 2 -0.002256 0.016074 0.000548 0.000000 -0.001197 0.000000
# 3 -0.002400 0.000548 0.006920 0.000000 0.000328 0.000000
# 4 0.000000 0.000000 0.000000 -0.013147 0.000000 0.007014
# 5 -0.000366 -0.001197 0.000328 0.000000 0.023753 0.000000
# 6 0.000000 0.000000 0.000000 0.007014 0.000000 -0.002269
#
#
# Mechanical properties :
#
#
# Convention : Reuss Voigt Hill
#
# Bulk Modulus (GPa) = 41.34856 50.69926 46.02391
# Shear Modulus (GPa) = 87.69199 186.79017 137.24108
#
# Velocity S-wave (km/s) = 6.36653 9.29180 7.96461
# Velocity P-wave (km/s) = 8.55310 11.77076 10.28849
#
# Compressibility (1/GPa) = 0.02418464
#
# Stress axis : x y z
#
# Youngs Moduli (GPa) = 106.29708 62.21131 144.51343
#
# Poissons Ratio (x) = 0.14034 0.34688
# Poissons Ratio (y) = 0.23978 -0.07914
# Poissons Ratio (z) = 0.25515 -0.03407
#
# Static dielectric constant tensor:
#      x y z
#    x 1.789160 0.000000 -0.007660 
#    y 0.000000 1.801300 0.000000 
#    z -0.007660 0.000000 1.819750 
# 
# From -- ./inp_files/8719.got.cif
#   From: 2010.05.17/outbox.cif.g08.bks.cpg/sg15_5_cif.got.tgz:8719.got - 2010.06.03 18:47:42.
