data_PCOD9279398
_publ_section_title
;
Structure prediction by ZEFSAII (Michael W. Deem and Ramdas Pophale) SiO2 
 PCOD9279398
Probable space group: C 2/C
;
_chemical_formula_sum "Si O2"
_cell_formula_units_Z 60
_cell_length_a 25.006851
_cell_length_b 13.653818
_cell_length_c 8.649374
_cell_angle_alpha 90.000000
_cell_angle_beta 76.455391
_cell_angle_gamma 90.000000
_cell_volume 2871.097831
_symmetry_space_group_name_H-M "C 2/C"
_symmetry_group_IT_number 15
_symmetry_cell_setting 'monoclinic'
loop_
_space_group_symop_operation_xyz
x,y,z
-x,y,1/2-z
-x,-y,-z
x,-y,1/2+z
1/2+x,1/2+y,z
1/2-x,1/2+y,1/2-z
1/2-x,1/2-y,-z
1/2+x,1/2-y,1/2+z
loop_
_atom_site_type_symbol
_atom_site_label
_atom_site_fract_x
_atom_site_fract_y
_atom_site_fract_z
Si Si1 0.500000 0.215619 0.250000
Si Si2 0.787874 0.482159 0.873651
Si Si3 0.740941 0.679252 0.224547
Si Si4 0.107692 0.766720 0.345300
Si Si5 0.568553 0.107986 0.943072
Si Si6 0.673436 0.797220 0.498137
Si Si7 0.307116 0.634760 0.544990
Si Si8 0.602555 0.911128 0.092929
O O1 0.549276 0.274795 0.298859
O O2 0.523796 0.149668 0.093218
O O3 0.781405 0.412379 0.726865
O O4 0.731799 0.541980 0.908872
O O5 0.840041 0.553485 0.863059
O O6 0.795230 0.400337 0.001891
O O7 0.711887 0.715883 0.399097
O O8 0.773690 0.771576 0.134667
O O9 0.693022 0.651710 0.137840
O O10 0.135050 0.860952 0.407604
O O11 0.106140 0.683815 0.481097
O O12 0.148161 0.732697 0.179699
O O13 0.620896 0.179446 0.929272
O O14 0.560939 0.102287 0.764913
O O15 0.584109 0.001044 0.997473
#
# Coordination Sequence:
#
# PCOD9279398 Si02
#       8
#     4   8   8   8   8   8   8   8
#     4  10  24  42  62  84 120 168 228 268 338 368
#     4  11  23  35  60  92 132 175 201 249 322 394
#     4  11  23  39  59  92 132 171 209 255 317 399
#     4  11  23  42  58  87 121 168 215 272 315 377
#     4  10  21  35  59  86 118 164 210 264 316 379
#     4  10  21  38  58  86 128 169 208 253 316 377
#     4  11  24  36  60  90 127 166 217 258 311 384
#     4  11  22  37  60  89 129 162 208 259 322 391
#
# _framework density 20.897929000000001
#
# number of rings (size 3 to 8) (size 9 to 14) (size 15 to 20)
#    0.000    1.333    1.333    6.000    5.600    2.667 
#    0.000    0.000    0.000    0.000    0.000    8.400 
#    0.000    0.000    0.000    0.267    0.000    0.133 
#
# Total GULP energy -167516.009502 kJ/mol
# GULP energy per Si atom -5583.866983 kJ/mol
# Density = 2.085036 g / cm^3
# Si number density = 20.897929 Si / 1000 Ang^3
#
#
#
# Elastic Constant Matrix: (Units=GPa)
#
#
# Indices 1 2 3 4 5 6 
#
# 1 119.5321 34.6962 41.2285 0.0000 20.9643 0.0000
# 2 34.6962 39.7702 16.9682 0.0000 3.8972 0.0000
# 3 41.2285 16.9682 136.3448 0.0000 -2.3289 0.0000
# 4 0.0000 0.0000 0.0000 23.7014 0.0000 1.9401
# 5 20.9643 3.8972 -2.3289 0.0000 29.7298 0.0000
# 6 0.0000 0.0000 0.0000 1.9401 0.0000 21.0606
#
#
#
# Elastic Compliance Matrix: (Units=1/GPa)
#
#
# Indices 1 2 3 4 5 6 
#
# 1 0.013833 -0.009893 -0.003100 0.000000 -0.008700 0.000000
# 2 -0.009893 0.034052 -0.001205 0.000000 0.002418 0.000000
# 3 -0.003100 -0.001205 0.008473 0.000000 0.003008 0.000000
# 4 0.000000 0.000000 0.000000 0.042512 0.000000 -0.003916
# 5 -0.008700 0.002418 0.003008 0.000000 0.039690 0.000000
# 6 0.000000 0.000000 0.000000 -0.003916 0.000000 0.047843
#
#
# Mechanical properties :
#
#
# Convention : Reuss Voigt Hill
#
# Bulk Modulus (GPa) = 35.76270 53.49253 44.62762
# Shear Modulus (GPa) = 22.30949 28.41530 25.36240
#
# Velocity S-wave (km/s) = 3.27088 3.69144 3.48750
# Velocity P-wave (km/s) = 5.60491 6.61979 6.13338
#
# Compressibility (1/GPa) = 0.02796209
#
# Stress axis : x y z
#
# Youngs Moduli (GPa) = 72.29254 29.36671 118.01951
#
# Poissons Ratio (x) = 0.29051 0.36589
# Poissons Ratio (y) = 0.71516 0.14223
# Poissons Ratio (z) = 0.22413 0.03539
#
# Static dielectric constant tensor:
#      x y z
#    x 1.818140 0.000000 0.033940 
#    y 0.000000 1.731550 0.000000 
#    z 0.033940 0.000000 1.825980 
# 
# From -- ./inp_files/65966.got.cif
#   From: 2010.05.17/outbox.cif.g08.bks.cpg/sg15_33_cif.got.tgz:65966.got - 2010.06.03 18:47:42.
