data_PCOD9279814
_publ_section_title
;
Structure prediction by ZEFSAII (Michael W. Deem and Ramdas Pophale) SiO2 
 PCOD9279814
Probable space group: C 2/C
;
_chemical_formula_sum "Si O2"
_cell_formula_units_Z 48
_cell_length_a 23.673659
_cell_length_b 11.009567
_cell_length_c 9.103744
_cell_angle_alpha 90.000000
_cell_angle_beta 104.597958
_cell_angle_gamma 90.000000
_cell_volume 2296.172711
_symmetry_space_group_name_H-M "C 2/C"
_symmetry_group_IT_number 15
_symmetry_cell_setting 'monoclinic'
loop_
_space_group_symop_operation_xyz
x,y,z
-x,y,1/2-z
-x,-y,-z
x,-y,1/2+z
1/2+x,1/2+y,z
1/2-x,1/2+y,1/2-z
1/2-x,1/2-y,-z
1/2+x,1/2-y,1/2+z
loop_
_atom_site_type_symbol
_atom_site_label
_atom_site_fract_x
_atom_site_fract_y
_atom_site_fract_z
Si Si1 0.176070 0.897939 0.886472
Si Si2 0.345150 0.635817 0.805157
Si Si3 0.221063 0.447658 0.942153
Si Si4 0.611499 0.109764 0.212268
Si Si5 0.459356 0.952809 0.105972
Si Si6 0.214551 0.265497 0.173558
O O1 0.178720 0.777579 0.789786
O O2 0.150773 0.010273 0.777984
O O3 0.142411 0.881463 0.015529
O O4 0.243252 0.939880 0.969017
O O5 0.379738 0.746991 0.757957
O O6 0.277493 0.679732 0.756466
O O7 0.172178 0.461099 0.786243
O O8 0.270830 0.358799 0.905997
O O9 0.190272 0.364783 0.045958
O O10 0.567243 0.053958 0.302259
O O11 0.592669 0.099908 0.028898
O O12 0.500000 0.878795 0.250000
O O13 0.500000 0.000000 0.000000
#
# Coordination Sequence:
#
# PCOD9279814 Si02
#       6
#     8   8   8   8   8   8
#     4  11  19  35  50  73 127 169 195 233 266 303
#     4  10  22  33  51  80 113 164 202 232 266 314
#     4   9  19  31  50  79 111 162 194 236 263 310
#     4  10  21  36  59  90 112 137 197 231 283 356
#     4   9  20  42  64  85 109 135 164 239 322 358
#     4   9  18  33  47  69 117 163 209 225 263 300
#
# _framework density 20.904350999999998
#
# number of rings (size 3 to 8) (size 9 to 14) (size 15 to 20)
#    0.000    2.333    1.667    1.500    4.667    0.000 
#    6.000    0.000    0.000    0.000    0.000   15.167 
#    0.000    0.000    0.000    0.000    0.000    0.000 
#
# Total GULP energy -133827.268019 kJ/mol
# GULP energy per Si atom -5576.136167 kJ/mol
# Density = 2.085677 g / cm^3
# Si number density = 20.904351 Si / 1000 Ang^3
#
#
#
# Elastic Constant Matrix: (Units=GPa)
#
#
# Indices 1 2 3 4 5 6 
#
# 1 31.1555 10.1115 22.2485 0.0000 1.4192 0.0000
# 2 10.1115 55.3990 34.6844 0.0000 -9.5875 0.0000
# 3 22.2485 34.6844 143.3854 0.0000 0.5385 0.0000
# 4 0.0000 0.0000 0.0000 40.1357 0.0000 -6.0838
# 5 1.4192 -9.5875 0.5385 0.0000 36.6279 0.0000
# 6 0.0000 0.0000 0.0000 -6.0838 0.0000 1.7723
#
#
#
# Elastic Compliance Matrix: (Units=1/GPa)
#
#
# Indices 1 2 3 4 5 6 
#
# 1 0.036937 -0.004227 -0.004700 0.000000 -0.002468 0.000000
# 2 -0.004227 0.022991 -0.004929 0.000000 0.006254 0.000000
# 3 -0.004700 -0.004929 0.008900 0.000000 -0.001239 0.000000
# 4 0.000000 0.000000 0.000000 0.051942 0.000000 0.178300
# 5 -0.002468 0.006254 -0.001239 0.000000 0.029053 0.000000
# 6 0.000000 0.000000 0.000000 0.178300 0.000000 1.176278
#
#
# Mechanical properties :
#
#
# Convention : Reuss Voigt Hill
#
# Bulk Modulus (GPa) = 24.32047 40.44766 32.38407
# Shear Modulus (GPa) = 3.65626 26.56689 15.11157
#
# Velocity S-wave (km/s) = 1.32395 3.56881 2.69158
# Velocity P-wave (km/s) = 3.74120 6.03098 5.01843
#
# Compressibility (1/GPa) = 0.04111762
#
# Stress axis : x y z
#
# Youngs Moduli (GPa) = 27.07287 43.49590 112.35433
#
# Poissons Ratio (x) = 0.18384 0.52803
# Poissons Ratio (y) = 0.11443 0.55380
# Poissons Ratio (z) = 0.12724 0.21439
#
# Static dielectric constant tensor:
#      x y z
#    x 1.794080 0.000000 0.036490 
#    y 0.000000 1.785410 0.000000 
#    z 0.036490 0.000000 1.874360 
# 
# From -- ./inp_files/60679.got.cif
#   From: 2010.05.17/outbox.cif.g08.bks.cpg/sg15_31_cif.got.tgz:60679.got - 2010.06.03 18:47:42.
