data_PCOD9279828
_publ_section_title
;
Structure prediction by ZEFSAII (Michael W. Deem and Ramdas Pophale) SiO2 
 PCOD9279828
Probable space group: C 2/C
;
_chemical_formula_sum "Si O2"
_cell_formula_units_Z 48
_cell_length_a 11.902836
_cell_length_b 20.805516
_cell_length_c 11.993049
_cell_angle_alpha 90.000000
_cell_angle_beta 50.979727
_cell_angle_gamma 90.000000
_cell_volume 2307.473180
_symmetry_space_group_name_H-M "C 2/C"
_symmetry_group_IT_number 15
_symmetry_cell_setting 'monoclinic'
loop_
_space_group_symop_operation_xyz
x,y,z
-x,y,1/2-z
-x,-y,-z
x,-y,1/2+z
1/2+x,1/2+y,z
1/2-x,1/2+y,1/2-z
1/2-x,1/2-y,-z
1/2+x,1/2-y,1/2+z
loop_
_atom_site_type_symbol
_atom_site_label
_atom_site_fract_x
_atom_site_fract_y
_atom_site_fract_z
Si Si1 0.659912 0.599397 0.986933
Si Si2 0.348407 0.089288 0.291159
Si Si3 0.894007 0.365668 0.530611
Si Si4 0.863185 0.963504 0.401642
Si Si5 0.836183 0.455311 0.180139
Si Si6 0.080775 0.235598 0.082713
O O1 0.784630 0.615495 0.999805
O O2 0.592710 0.531089 0.066944
O O3 0.563180 0.663241 0.049072
O O4 0.732798 0.588193 0.821938
O O5 0.500000 0.111472 0.250000
O O6 0.318590 0.128994 0.197720
O O7 0.216446 0.082380 0.460048
O O8 0.373146 0.016160 0.233322
O O9 0.959572 0.294872 0.470768
O O10 0.024183 0.416002 0.442369
O O11 0.746054 0.977841 0.378863
O O12 0.000000 0.936326 0.250000
O O13 0.000000 0.241209 0.250000
O O14 0.250000 0.250000 0.000000
#
# Coordination Sequence:
#
# PCOD9279828 Si02
#       6
#     8   8   8   8   8   8
#     4  10  21  36  59  92 122 158 204 251 310 360
#     4  11  21  35  60  90 121 161 204 253 306 368
#     4  11  19  36  61  89 122 160 207 253 301 361
#     4  11  23  38  56  88 130 163 199 246 312 370
#     4  11  20  36  61  89 128 161 201 256 304 364
#     4  10  21  38  59  88 122 158 202 253 295 355
#
# _framework density 20.801976
#
# number of rings (size 3 to 8) (size 9 to 14) (size 15 to 20)
#    0.000    1.333    3.333    5.500    0.000    2.667 
#    6.000    0.000    0.000    2.000    0.000    0.000 
#    0.000    0.000    0.000    0.000    0.000    0.000 
#
# Total GULP energy -134104.906657 kJ/mol
# GULP energy per Si atom -5587.704444 kJ/mol
# Density = 2.075463 g / cm^3
# Si number density = 20.801976 Si / 1000 Ang^3
#
#
#
# Elastic Constant Matrix: (Units=GPa)
#
#
# Indices 1 2 3 4 5 6 
#
# 1 20.7798 4.7816 4.4366 0.0000 4.5201 0.0000
# 2 4.7816 70.9352 47.8751 0.0000 4.7459 0.0000
# 3 4.4366 47.8751 184.8756 0.0000 3.4013 0.0000
# 4 0.0000 0.0000 0.0000 28.5634 0.0000 8.5553
# 5 4.5201 4.7459 3.4013 0.0000 29.2427 0.0000
# 6 0.0000 0.0000 0.0000 8.5553 0.0000 3.2082
#
#
#
# Elastic Compliance Matrix: (Units=1/GPa)
#
#
# Indices 1 2 3 4 5 6 
#
# 1 0.050407 -0.002645 -0.000390 0.000000 -0.007317 0.000000
# 2 -0.002645 0.017373 -0.004400 0.000000 -0.001899 0.000000
# 3 -0.000390 -0.004400 0.006558 0.000000 0.000012 0.000000
# 4 0.000000 0.000000 0.000000 0.173938 0.000000 -0.463837
# 5 -0.007317 -0.001899 0.000012 0.000000 0.035634 0.000000
# 6 0.000000 0.000000 0.000000 -0.463837 0.000000 1.548608
#
#
# Mechanical properties :
#
#
# Convention : Reuss Voigt Hill
#
# Bulk Modulus (GPa) = 16.81623 43.41968 30.11795
# Shear Modulus (GPa) = 2.67779 26.83602 14.75691
#
# Velocity S-wave (km/s) = 1.13581 3.59565 2.66634
# Velocity P-wave (km/s) = 3.13394 6.17709 4.89786
#
# Compressibility (1/GPa) = 0.05946637
#
# Stress axis : x y z
#
# Youngs Moduli (GPa) = 19.83851 57.56204 152.49256
#
# Poissons Ratio (x) = 0.15225 0.05949
# Poissons Ratio (y) = 0.05247 0.67102
# Poissons Ratio (z) = 0.00774 0.25329
#
# Static dielectric constant tensor:
#      x y z
#    x 1.755680 0.000000 -0.022230 
#    y 0.000000 1.850010 0.000000 
#    z -0.022230 0.000000 1.769810 
# 
# From -- ./inp_files/89383.got.cif
#   From: 2010.05.17/outbox.cif.g08.bks.cpg/sg15_45_cif.got.tgz:89383.got - 2010.06.03 18:47:42.
