data_PCOD9279362
_publ_section_title
;
Structure prediction by ZEFSAII (Michael W. Deem and Ramdas Pophale) SiO2 
 PCOD9279362
Probable space group: C 2/C
;
_chemical_formula_sum "Si O2"
_cell_formula_units_Z 40
_cell_length_a 19.682095
_cell_length_b 14.950128
_cell_length_c 9.556725
_cell_angle_alpha 90.000000
_cell_angle_beta 29.153117
_cell_angle_gamma 90.000000
_cell_volume 1369.883914
_symmetry_space_group_name_H-M "C 2/C"
_symmetry_group_IT_number 15
_symmetry_cell_setting 'monoclinic'
loop_
_space_group_symop_operation_xyz
x,y,z
-x,y,1/2-z
-x,-y,-z
x,-y,1/2+z
1/2+x,1/2+y,z
1/2-x,1/2+y,1/2-z
1/2-x,1/2-y,-z
1/2+x,1/2-y,1/2+z
loop_
_atom_site_type_symbol
_atom_site_label
_atom_site_fract_x
_atom_site_fract_y
_atom_site_fract_z
Si Si1 0.567549 0.145370 0.413585
Si Si2 0.500000 0.299143 0.750000
Si Si3 0.380494 0.385872 0.379609
Si Si4 0.500000 0.984748 0.750000
Si Si5 0.197512 0.989356 0.225861
Si Si6 0.729328 0.153782 0.610211
O O1 0.520736 0.232464 0.584319
O O2 0.733762 0.160645 0.114312
O O3 0.551130 0.055443 0.536864
O O4 0.432130 0.140717 0.553564
O O5 0.645637 0.350747 0.503304
O O6 0.406368 0.428731 0.180596
O O7 0.354094 0.465893 0.538534
O O8 0.500000 0.332705 0.250000
O O9 0.647298 0.945452 0.542375
O O10 0.236363 0.077183 0.063119
O O11 0.750000 0.250000 0.500000
#
# Coordination Sequence:
#
# PCOD9279362 Si02
#       6
#     8   4   8   4   8   8
#     4   8  16  31  52  81 112 147 187 232 302 335
#     4   9  16  32  62  90 108 144 202 257 272 345
#     4  11  22  37  55  82 123 159 196 237 294 356
#     4   7  14  30  50  76 106 136 182 229 284 341
#     4  10  21  35  58  86 113 154 198 243 298 346
#     4   9  17  32  58  90 111 141 198 251 285 342
#
# _framework density 29.199552000000001
#
# number of rings (size 3 to 8) (size 9 to 14) (size 15 to 20)
#    0.000    2.800    0.000    4.200    1.400    7.200 
#    0.000    0.000    0.000   10.800   15.600    0.000 
#    0.000    0.000    0.000    0.000    0.000    0.000 
#
# Total GULP energy -111808.502183 kJ/mol
# GULP energy per Si atom -5590.425109 kJ/mol
# Density = 2.913309 g / cm^3
# Si number density = 29.199552 Si / 1000 Ang^3
#
#
#
# Elastic Constant Matrix: (Units=GPa)
#
#
# Indices 1 2 3 4 5 6 
#
# 1 196.1731 25.7877 52.9841 0.0000 -61.9148 0.0000
# 2 25.7877 61.5139 8.0069 0.0000 -24.0809 0.0000
# 3 52.9841 8.0069 203.5851 0.0001 -79.6563 -0.0001
# 4 0.0000 0.0000 0.0001 48.2918 0.0000 -10.2951
# 5 -61.9148 -24.0809 -79.6563 0.0000 74.7151 0.0000
# 6 0.0000 0.0000 -0.0001 -10.2951 0.0000 35.1584
#
#
#
# Elastic Compliance Matrix: (Units=1/GPa)
#
#
# Indices 1 2 3 4 5 6 
#
# 1 0.006986 -0.000532 0.000688 0.000000 0.006351 0.000000
# 2 -0.000532 0.019601 0.002860 0.000000 0.008926 0.000000
# 3 0.000688 0.002860 0.008929 0.000000 0.011011 0.000000
# 4 0.000000 0.000000 0.000000 0.022086 0.000000 0.006467
# 5 0.006351 0.008926 0.011011 0.000000 0.033263 0.000000
# 6 0.000000 0.000000 0.000000 0.006467 0.000000 0.030336
#
#
# Mechanical properties :
#
#
# Convention : Reuss Voigt Hill
#
# Bulk Modulus (GPa) = 24.06888 70.53660 47.30274
# Shear Modulus (GPa) = 38.75375 56.59930 47.67653
#
# Velocity S-wave (km/s) = 3.64703 4.40746 4.04515
# Velocity P-wave (km/s) = 5.09855 7.07885 6.16869
#
# Compressibility (1/GPa) = 0.04154742
#
# Stress axis : x y z
#
# Youngs Moduli (GPa) = 143.13929 51.01664 111.99891
#
# Poissons Ratio (x) = 0.02714 -0.07702
# Poissons Ratio (y) = 0.07615 -0.32031
# Poissons Ratio (z) = -0.09843 -0.14590
#
# Static dielectric constant tensor:
#      x y z
#    x 2.461020 0.000000 0.010370 
#    y 0.000000 2.241650 0.000000 
#    z 0.010370 0.000000 2.394070 
# 
# From -- ./inp_files/113898.got.cif
#   From: 2010.05.17/outbox.cif.g08.bks.cpg/sg15_57_cif.got.tgz:113898.got - 2010.06.03 18:47:42.
