data_PCOD9279837
_publ_section_title
;
Structure prediction by ZEFSAII (Michael W. Deem and Ramdas Pophale) SiO2 
 PCOD9279837
Probable space group: C 2/C
;
_chemical_formula_sum "Si O2"
_cell_formula_units_Z 64
_cell_length_a 12.663141
_cell_length_b 18.325667
_cell_length_c 32.162226
_cell_angle_alpha 90.000000
_cell_angle_beta 154.879372
_cell_angle_gamma 90.000000
_cell_volume 3168.480488
_symmetry_space_group_name_H-M "C 2/C"
_symmetry_group_IT_number 15
_symmetry_cell_setting 'monoclinic'
loop_
_space_group_symop_operation_xyz
x,y,z
-x,y,1/2-z
-x,-y,-z
x,-y,1/2+z
1/2+x,1/2+y,z
1/2-x,1/2+y,1/2-z
1/2-x,1/2-y,-z
1/2+x,1/2-y,1/2+z
loop_
_atom_site_type_symbol
_atom_site_label
_atom_site_fract_x
_atom_site_fract_y
_atom_site_fract_z
Si Si1 0.307565 0.129710 0.146200
Si Si2 0.077203 0.035363 0.446901
Si Si3 0.510127 0.489873 0.824682
Si Si4 0.915551 0.676739 0.562436
Si Si5 0.023878 0.576221 0.381331
Si Si6 0.262200 0.141633 0.363869
Si Si7 0.586825 0.773506 0.039060
Si Si8 0.053796 0.157041 0.720594
O O1 0.500000 0.156721 0.250000
O O2 0.445979 0.113337 0.152613
O O3 0.107322 0.191936 0.063559
O O4 0.171711 0.059305 0.117558
O O5 0.251944 0.106224 0.511763
O O6 0.229152 0.970033 0.521879
O O7 0.035675 0.019156 0.383361
O O8 0.228426 0.470476 0.711503
O O9 0.693630 0.432242 0.866345
O O10 0.528007 0.574136 0.818078
O O11 0.750000 0.750000 0.500000
O O12 0.022289 0.672319 0.553884
O O13 0.152655 0.675749 0.677996
O O14 0.963070 0.624980 0.399721
O O15 0.378199 0.206781 0.431871
O O16 0.000000 0.162202 0.250000
O O17 0.869916 0.793347 0.127748
O O18 0.000000 0.171910 0.750000
#
# Coordination Sequence:
#
# PCOD9279837 Si02
#       8
#     8   8   8   8   8   8   8   8
#     4  12  25  44  65  90 129 178 219 258 313 388
#     4  12  23  39  68  94 125 170 217 259 321 378
#     4  11  21  38  66  96 128 161 206 272 327 385
#     4  11  21  37  62  95 129 162 212 271 317 375
#     4  11  24  42  65  92 128 168 212 264 319 381
#     4  10  23  41  66  97 129 167 209 265 341 382
#     4  11  23  39  64  95 127 167 212 265 323 389
#     4  10  21  36  59  97 131 156 209 269 328 380
#
# _framework density 20.198958000000001
#
# number of rings (size 3 to 8) (size 9 to 14) (size 15 to 20)
#    0.000    1.000    5.000    3.375    1.750    1.500 
#    0.000    0.000    2.750    0.000    0.000    0.000 
#    0.000    0.000    0.000    0.000    0.000    0.000 
#
# Total GULP energy -178473.223566 kJ/mol
# GULP energy per Si atom -5577.288236 kJ/mol
# Density = 2.015298 g / cm^3
# Si number density = 20.198958 Si / 1000 Ang^3
#
#
#
# Elastic Constant Matrix: (Units=GPa)
#
#
# Indices 1 2 3 4 5 6 
#
# 1 85.7792 23.3468 14.9725 0.0020 -5.8308 -0.0012
# 2 23.3468 56.2981 50.6785 -0.0062 -6.5845 -0.0013
# 3 14.9725 50.6785 101.4877 -0.0075 -14.4009 -0.0037
# 4 0.0020 -0.0062 -0.0075 26.1130 0.0003 5.8220
# 5 -5.8308 -6.5845 -14.4009 0.0003 28.1849 -0.0014
# 6 -0.0012 -0.0013 -0.0037 5.8220 -0.0014 18.7917
#
#
#
# Elastic Compliance Matrix: (Units=1/GPa)
#
#
# Indices 1 2 3 4 5 6 
#
# 1 0.013364 -0.006884 0.001757 -0.000003 0.002055 0.000002
# 2 -0.006884 0.035827 -0.017132 0.000005 -0.001807 -0.000003
# 3 0.001757 -0.017132 0.019011 0.000000 0.006075 0.000003
# 4 -0.000003 0.000005 0.000000 0.041137 0.000000 -0.012745
# 5 0.002055 -0.001807 0.006075 0.000000 0.038587 0.000004
# 6 0.000002 -0.000003 0.000003 -0.012745 0.000004 0.057164
#
#
# Mechanical properties :
#
#
# Convention : Reuss Voigt Hill
#
# Bulk Modulus (GPa) = 42.21792 46.84009 44.52900
# Shear Modulus (GPa) = 19.41737 24.92239 22.16988
#
# Velocity S-wave (km/s) = 3.10386 3.51642 3.31656
# Velocity P-wave (km/s) = 5.81306 6.30291 6.06293
#
# Compressibility (1/GPa) = 0.02368662
#
# Stress axis : x y z
#
# Youngs Moduli (GPa) = 74.82586 27.91156 52.60141
#
# Poissons Ratio (x) = 0.19214 -0.09244
# Poissons Ratio (y) = 0.51509 0.90114
# Poissons Ratio (z) = -0.13150 0.47817
#
# Static dielectric constant tensor:
#      x y z
#    x 1.788650 0.000000 0.052670 
#    y 0.000000 1.735140 0.000000 
#    z 0.052670 0.000000 1.781790 
# 
# From -- ./inp_files/311666.got.cif
#   From: 2010.05.17/outbox.cif.g08.bks.cpg/sg15_156_cif.got.tgz:311666.got - 2010.06.03 18:47:42.
