data_PCOD9279258
_publ_section_title
;
Structure prediction by ZEFSAII (Michael W. Deem and Ramdas Pophale) SiO2 
 PCOD9279258
Probable space group: C 2/C
;
_chemical_formula_sum "Si O2"
_cell_formula_units_Z 52
_cell_length_a 16.854051
_cell_length_b 26.799867
_cell_length_c 7.825827
_cell_angle_alpha 90.000000
_cell_angle_beta 40.477395
_cell_angle_gamma 90.000000
_cell_volume 2294.620687
_symmetry_space_group_name_H-M "C 2/C"
_symmetry_group_IT_number 15
_symmetry_cell_setting 'monoclinic'
loop_
_space_group_symop_operation_xyz
x,y,z
-x,y,1/2-z
-x,-y,-z
x,-y,1/2+z
1/2+x,1/2+y,z
1/2-x,1/2+y,1/2-z
1/2-x,1/2-y,-z
1/2+x,1/2-y,1/2+z
loop_
_atom_site_type_symbol
_atom_site_label
_atom_site_fract_x
_atom_site_fract_y
_atom_site_fract_z
Si Si1 0.623748 0.715256 0.295104
Si Si2 0.500000 0.002911 0.250000
Si Si3 0.863472 0.220329 0.617615
Si Si4 0.618999 0.797603 0.606570
Si Si5 0.091127 0.964872 0.743744
Si Si6 0.361904 0.617331 0.053946
Si Si7 0.190271 0.542043 0.180248
O O1 0.489416 0.694836 0.461302
O O2 0.609381 0.755323 0.470315
O O3 0.685304 0.668605 0.285787
O O4 0.657035 0.734039 0.048524
O O5 0.417019 0.967729 0.506025
O O6 0.607292 0.037222 0.149751
O O7 0.870842 0.269656 0.727077
O O8 0.754522 0.183985 0.849578
O O9 0.500000 0.829108 0.750000
O O10 0.135647 0.922187 0.795820
O O11 0.000000 0.943917 0.750000
O O12 0.205428 0.998268 0.491162
O O13 0.000000 0.000000 0.000000
O O14 0.265485 0.592490 0.082953
O O15 0.500000 0.621584 0.750000
#
# Coordination Sequence:
#
# PCOD9279258 Si02
#       7
#     8   4   8   8   8   8   8
#     4  10  21  35  54  92 120 153 190 243 318 353
#     4  10  22  36  60  80 106 156 214 258 286 372
#     4   9  18  34  56  85 115 150 197 234 288 366
#     4   9  17  34  60  86 116 150 199 245 282 359
#     4  12  20  35  56  88 116 150 208 260 304 357
#     4  12  23  36  58  87 125 153 192 267 318 354
#     4  11  20  38  58  85 112 155 211 253 307 363
#
# _framework density 22.661697
#
# number of rings (size 3 to 8) (size 9 to 14) (size 15 to 20)
#    0.000    1.538    4.615    1.846    2.154    0.000 
#    0.000    0.000    0.000    9.231    8.000    0.000 
#    0.000    0.000    0.000    0.000    0.000    0.000 
#
# Total GULP energy -144747.766838 kJ/mol
# GULP energy per Si atom -5567.221801 kJ/mol
# Density = 2.261012 g / cm^3
# Si number density = 22.661697 Si / 1000 Ang^3
#
#
#
# Elastic Constant Matrix: (Units=GPa)
#
#
# Indices 1 2 3 4 5 6 
#
# 1 120.1568 14.3829 14.3782 0.0000 -3.6264 0.0000
# 2 14.3829 37.4649 -0.9371 0.0000 22.7390 0.0000
# 3 14.3782 -0.9371 104.1670 0.0000 2.6437 0.0000
# 4 0.0000 0.0000 0.0000 -2.0044 0.0000 -0.8658
# 5 -3.6264 22.7390 2.6437 0.0000 39.5538 0.0000
# 6 0.0000 0.0000 0.0000 -0.8658 0.0000 20.1616
#
#
#
# Elastic Compliance Matrix: (Units=1/GPa)
#
#
# Indices 1 2 3 4 5 6 
#
# 1 0.009420 -0.006509 -0.001478 0.000000 0.004704 0.000000
# 2 -0.006509 0.045591 0.001992 0.000000 -0.026940 0.000000
# 3 -0.001478 0.001992 0.009871 0.000000 -0.001941 0.000000
# 4 0.000000 0.000000 0.000000 -0.489819 0.000000 -0.021034
# 5 0.004704 -0.026940 -0.001941 0.000000 0.041330 0.000000
# 6 0.000000 0.000000 0.000000 -0.021034 0.000000 0.048696
#
#
# Mechanical properties :
#
#
# Convention : Reuss Voigt Hill
#
# Bulk Modulus (GPa) = 18.90602 35.27073 27.08838
# Shear Modulus (GPa) = -16.37793 27.13984 5.38095
#
# Velocity S-wave (km/s) = -2.69125 3.46440 1.54260
# Velocity P-wave (km/s) = 1.13854 5.62144 3.89258
#
# Compressibility (1/GPa) = 0.05289321
#
# Stress axis : x y z
#
# Youngs Moduli (GPa) = 106.15226 21.93412 101.30499
#
# Poissons Ratio (x) = 0.14276 0.14975
# Poissons Ratio (y) = 0.69092 -0.20183
# Poissons Ratio (z) = 0.15692 -0.04370
#
# Static dielectric constant tensor:
#      x y z
#    x 2.032470 0.000000 0.023730 
#    y 0.000000 1.831160 0.000000 
#    z 0.023730 0.000000 2.143660 
# 
# From -- ./inp_files/52539.got.cif
#   From: 2010.05.17/outbox.cif.g08.bks.cpg/sg15_27_cif.got.tgz:52539.got - 2010.06.03 18:47:42.
