data_PCOD9279121
_publ_section_title
;
Structure prediction by ZEFSAII (Michael W. Deem and Ramdas Pophale) SiO2 
 PCOD9279121
Probable space group: C 2/C
;
_chemical_formula_sum "Si O2"
_cell_formula_units_Z 52
_cell_length_a 12.659838
_cell_length_b 21.019696
_cell_length_c 12.951441
_cell_angle_alpha 90.000000
_cell_angle_beta 124.463232
_cell_angle_gamma 90.000000
_cell_volume 2841.566322
_symmetry_space_group_name_H-M "C 2/C"
_symmetry_group_IT_number 15
_symmetry_cell_setting 'monoclinic'
loop_
_space_group_symop_operation_xyz
x,y,z
-x,y,1/2-z
-x,-y,-z
x,-y,1/2+z
1/2+x,1/2+y,z
1/2-x,1/2+y,1/2-z
1/2-x,1/2-y,-z
1/2+x,1/2-y,1/2+z
loop_
_atom_site_type_symbol
_atom_site_label
_atom_site_fract_x
_atom_site_fract_y
_atom_site_fract_z
Si Si1 0.215907 0.515319 0.818059
Si Si2 0.500000 0.913977 0.750000
Si Si3 0.429557 0.582387 0.054589
Si Si4 0.401356 0.149953 0.779605
Si Si5 0.557099 0.156527 0.070854
Si Si6 0.697307 0.431115 0.796514
Si Si7 0.319555 0.280129 0.436142
O O1 0.126447 0.460102 0.818560
O O2 0.142677 0.581629 0.786781
O O3 0.232627 0.493178 0.709111
O O4 0.356924 0.533646 0.938438
O O5 0.494991 0.869668 0.849116
O O6 0.368195 0.562793 0.130008
O O7 0.582492 0.582421 0.152427
O O8 0.387842 0.654650 0.007821
O O9 0.500000 0.176388 0.750000
O O10 0.283919 0.198284 0.706691
O O11 0.464409 0.139049 0.924906
O O12 0.695668 0.122968 0.136164
O O13 0.585367 0.230519 0.065130
O O14 0.250000 0.250000 0.500000
#
# Coordination Sequence:
#
# PCOD9279121 Si02
#       7
#     8   4   8   8   8   8   8
#     4  10  21  37  57  84 121 152 193 241 292 355
#     4  10  24  38  60  84 120 168 194 238 290 362
#     4  10  21  36  56  87 112 152 195 239 303 342
#     4  11  21  35  60  93 114 149 193 254 302 337
#     4  11  23  38  58  88 120 158 199 237 299 352
#     4  10  21  34  58  83 116 153 189 240 295 355
#     4  11  21  36  59  84 119 144 195 251 299 344
#
# _framework density 18.299766999999999
#
# number of rings (size 3 to 8) (size 9 to 14) (size 15 to 20)
#    0.000    1.538    3.846    1.385    4.308    1.231 
#    0.000    0.769    0.000    3.692    0.000    0.000 
#    0.000    0.000    0.000    0.000    0.000    0.000 
#
# Total GULP energy -144826.835804 kJ/mol
# GULP energy per Si atom -5570.262916 kJ/mol
# Density = 1.825812 g / cm^3
# Si number density = 18.299767 Si / 1000 Ang^3
#
#
#
# Elastic Constant Matrix: (Units=GPa)
#
#
# Indices 1 2 3 4 5 6 
#
# 1 26.7413 6.1555 16.2597 0.0000 2.3456 0.0000
# 2 6.1555 71.9181 21.5362 0.0000 -5.3633 0.0000
# 3 16.2597 21.5362 97.7798 0.0000 3.5200 0.0000
# 4 0.0000 0.0000 0.0000 24.7993 0.0000 4.3898
# 5 2.3456 -5.3633 3.5200 0.0000 27.7411 0.0000
# 6 0.0000 0.0000 0.0000 4.3898 0.0000 13.2014
#
#
#
# Elastic Compliance Matrix: (Units=1/GPa)
#
#
# Indices 1 2 3 4 5 6 
#
# 1 0.042032 -0.001894 -0.006461 0.000000 -0.003100 0.000000
# 2 -0.001894 0.015281 -0.003177 0.000000 0.003518 0.000000
# 3 -0.006461 -0.003177 0.012059 0.000000 -0.001598 0.000000
# 4 0.000000 0.000000 0.000000 0.042846 0.000000 -0.014247
# 5 -0.003100 0.003518 -0.001598 0.000000 0.037193 0.000000
# 6 0.000000 0.000000 0.000000 -0.014247 0.000000 0.080487
#
#
# Mechanical properties :
#
#
# Convention : Reuss Voigt Hill
#
# Bulk Modulus (GPa) = 21.59501 31.59356 26.59429
# Shear Modulus (GPa) = 18.62922 23.31421 20.97172
#
# Velocity S-wave (km/s) = 3.19408 3.57321 3.38895
# Velocity P-wave (km/s) = 5.04273 5.85881 5.46603
#
# Compressibility (1/GPa) = 0.04630700
#
# Stress axis : x y z
#
# Youngs Moduli (GPa) = 23.79167 65.44253 82.92761
#
# Poissons Ratio (x) = 0.12395 0.53576
# Poissons Ratio (y) = 0.04506 0.26348
# Poissons Ratio (z) = 0.15371 0.20793
#
# Static dielectric constant tensor:
#      x y z
#    x 1.674830 0.000000 0.049150 
#    y 0.000000 1.628460 0.000000 
#    z 0.049150 0.000000 1.660930 
# 
# From -- ./inp_files/89504.got.cif
#   From: 2010.05.17/outbox.cif.g08.bks.cpg/sg15_45_cif.got.tgz:89504.got - 2010.06.03 18:47:42.
