data_PCOD9279269
_publ_section_title
;
Structure prediction by ZEFSAII (Michael W. Deem and Ramdas Pophale) SiO2 
 PCOD9279269
Probable space group: C 2/C
;
_chemical_formula_sum "Si O2"
_cell_formula_units_Z 32
_cell_length_a 13.254584
_cell_length_b 6.203289
_cell_length_c 14.023056
_cell_angle_alpha 90.000000
_cell_angle_beta 78.901439
_cell_angle_gamma 90.000000
_cell_volume 1131.439865
_symmetry_space_group_name_H-M "C 2/C"
_symmetry_group_IT_number 15
_symmetry_cell_setting 'monoclinic'
loop_
_space_group_symop_operation_xyz
x,y,z
-x,y,1/2-z
-x,-y,-z
x,-y,1/2+z
1/2+x,1/2+y,z
1/2-x,1/2+y,1/2-z
1/2-x,1/2-y,-z
1/2+x,1/2-y,1/2+z
loop_
_atom_site_type_symbol
_atom_site_label
_atom_site_fract_x
_atom_site_fract_y
_atom_site_fract_z
Si Si1 0.220849 0.950875 0.436374
Si Si2 0.980625 0.472589 0.116224
Si Si3 0.110629 0.835306 0.110557
Si Si4 0.848643 0.755868 0.781053
O O1 0.250000 0.750000 0.500000
O O2 0.237911 0.834563 0.332537
O O3 0.120584 0.042668 0.506618
O O4 0.301536 0.149919 0.414816
O O5 0.001896 0.718611 0.143451
O O6 0.068898 0.346586 0.158562
O O7 0.881598 0.343905 0.173217
O O8 0.000000 0.500000 0.000000
O O9 0.137621 0.999562 0.189211
#
# Coordination Sequence:
#
# PCOD9279269 Si02
#       4
#     8   8   8   8
#     4   8  15  31  58  81 106 146 194 238 293 354
#     4  10  21  35  55  84 123 152 197 246 299 356
#     4   9  17  33  57  81 113 151 189 244 293 350
#     4   9  19  34  56  83 113 156 200 238 306 354
#
# _framework density 28.282548999999999
#
# number of rings (size 3 to 8) (size 9 to 14) (size 15 to 20)
#    0.000    3.000    0.000    0.000    0.000    9.000 
#    0.000    0.000   33.000    0.000    0.000    0.000 
#    0.000    0.000    0.000    0.000    0.000    0.000 
#
# Total GULP energy -89223.995525 kJ/mol
# GULP energy per Si atom -5576.499720 kJ/mol
# Density = 2.821818 g / cm^3
# Si number density = 28.282549 Si / 1000 Ang^3
#
#
#
# Elastic Constant Matrix: (Units=GPa)
#
#
# Indices 1 2 3 4 5 6 
#
# 1 89.1265 45.6973 50.4972 0.0000 -7.6690 0.0000
# 2 45.6973 187.4229 98.4077 0.0000 -24.2248 0.0000
# 3 50.4972 98.4077 266.7658 0.0000 -14.9732 0.0000
# 4 0.0000 0.0000 0.0000 44.4756 0.0000 -27.3035
# 5 -7.6690 -24.2248 -14.9732 0.0000 47.9976 0.0000
# 6 0.0000 0.0000 0.0000 -27.3035 0.0000 10.2975
#
#
#
# Elastic Compliance Matrix: (Units=1/GPa)
#
#
# Indices 1 2 3 4 5 6 
#
# 1 0.013392 -0.002344 -0.001646 0.000000 0.000443 0.000000
# 2 -0.002344 0.007369 -0.002124 0.000000 0.002682 0.000000
# 3 -0.001646 -0.002124 0.004854 0.000000 0.000179 0.000000
# 4 0.000000 0.000000 0.000000 -0.035819 0.000000 -0.094971
# 5 0.000443 0.002682 0.000179 0.000000 0.022315 0.000000
# 6 0.000000 0.000000 0.000000 -0.094971 0.000000 -0.154702
#
#
# Mechanical properties :
#
#
# Convention : Reuss Voigt Hill
#
# Bulk Modulus (GPa) = 74.69512 103.61330 89.15421
# Shear Modulus (GPa) = -39.71379 43.80168 2.04394
#
# Velocity S-wave (km/s) = -3.75130 3.93964 0.85103
# Velocity P-wave (km/s) = 2.77572 7.57687 5.70586
#
# Compressibility (1/GPa) = 0.01338775
#
# Stress axis : x y z
#
# Youngs Moduli (GPa) = 74.66979 135.70408 206.02770
#
# Poissons Ratio (x) = 0.31809 0.33902
# Poissons Ratio (y) = 0.17503 0.43763
# Poissons Ratio (z) = 0.12287 0.28825
#
# Static dielectric constant tensor:
#      x y z
#    x 2.339080 0.000000 -0.041950 
#    y 0.000000 2.342420 0.000000 
#    z -0.041950 0.000000 2.309250 
# 
# From -- ./inp_files/165002.got.cif
#   From: 2010.05.17/outbox.cif.g08.bks.cpg/sg15_83_cif.got.tgz:165002.got - 2010.06.03 18:47:42.
