data_PCOD9279311
_publ_section_title
;
Structure prediction by ZEFSAII (Michael W. Deem and Ramdas Pophale) SiO2 
 PCOD9279311
Probable space group: C 2/C
;
_chemical_formula_sum "Si O2"
_cell_formula_units_Z 60
_cell_length_a 20.905136
_cell_length_b 14.482001
_cell_length_c 8.178661
_cell_angle_alpha 90.000000
_cell_angle_beta 94.791569
_cell_angle_gamma 90.000000
_cell_volume 2467.421418
_symmetry_space_group_name_H-M "C 2/C"
_symmetry_group_IT_number 15
_symmetry_cell_setting 'monoclinic'
loop_
_space_group_symop_operation_xyz
x,y,z
-x,y,1/2-z
-x,-y,-z
x,-y,1/2+z
1/2+x,1/2+y,z
1/2-x,1/2+y,1/2-z
1/2-x,1/2-y,-z
1/2+x,1/2-y,1/2+z
loop_
_atom_site_type_symbol
_atom_site_label
_atom_site_fract_x
_atom_site_fract_y
_atom_site_fract_z
Si Si1 0.302186 0.638590 0.341979
Si Si2 0.349981 0.314945 0.371363
Si Si3 0.145459 0.641112 0.312789
Si Si4 0.514166 0.396647 0.058790
Si Si5 0.148053 0.471364 0.121307
Si Si6 0.500000 0.273227 0.750000
Si Si7 0.139403 0.302029 0.322197
Si Si8 0.295636 0.534965 0.653888
O O1 0.224168 0.643291 0.331693
O O2 0.328766 0.739458 0.313608
O O3 0.326335 0.589608 0.511362
O O4 0.322898 0.563884 0.209929
O O5 0.372327 0.245278 0.232213
O O6 0.410663 0.373649 0.439117
O O7 0.330376 0.243950 0.509580
O O8 0.298846 0.389799 0.300243
O O9 0.122085 0.571062 0.165207
O O10 0.120452 0.593616 0.473425
O O11 0.500000 0.384378 0.250000
O O12 0.500000 0.500000 0.000000
O O13 0.483514 0.332603 0.909715
O O14 0.148818 0.408606 0.284934
O O15 0.222439 0.484742 0.093950
O O16 0.436621 0.216013 0.692615
#
# Coordination Sequence:
#
# PCOD9279311 Si02
#       8
#     8   8   8   8   8   4   8   8
#     4  10  21  35  59  86 133 163 202 255 316 375
#     4  11  24  37  60  88 123 158 217 251 313 382
#     4  10  21  39  59  96 120 162 207 249 319 396
#     4  11  25  43  66  89 125 168 206 267 316 372
#     4  10  21  38  64  86 131 163 200 263 318 368
#     4  10  26  44  60  94 124 162 232 254 318 374
#     4  11  23  40  61  85 122 169 203 272 307 365
#     4  10  21  35  56  97 123 165 208 247 314 399
#
# _framework density 24.316883000000001
#
# number of rings (size 3 to 8) (size 9 to 14) (size 15 to 20)
#    0.000    1.600    0.667    3.200    5.600    6.400 
#    0.000    0.000    1.467    2.400    0.000    0.000 
#    0.000    0.000    0.000    0.000    0.000    0.000 
#
# Total GULP energy -167711.068697 kJ/mol
# GULP energy per Si atom -5590.368957 kJ/mol
# Density = 2.426154 g / cm^3
# Si number density = 24.316883 Si / 1000 Ang^3
#
#
#
# Elastic Constant Matrix: (Units=GPa)
#
#
# Indices 1 2 3 4 5 6 
#
# 1 32.6256 9.3695 9.0523 0.0000 0.8441 0.0000
# 2 9.3695 119.6549 8.8813 0.0000 8.1699 0.0000
# 3 9.0523 8.8813 99.5546 0.0000 -5.9648 0.0000
# 4 0.0000 0.0000 0.0000 42.4347 0.0000 2.6509
# 5 0.8441 8.1699 -5.9648 0.0000 26.2246 0.0000
# 6 0.0000 0.0000 0.0000 2.6509 0.0000 20.2199
#
#
#
# Elastic Compliance Matrix: (Units=1/GPa)
#
#
# Indices 1 2 3 4 5 6 
#
# 1 0.032089 -0.002241 -0.002776 0.000000 -0.000966 0.000000
# 2 -0.002241 0.008782 -0.000750 0.000000 -0.002834 0.000000
# 3 -0.002776 -0.000750 0.010527 0.000000 0.002717 0.000000
# 4 0.000000 0.000000 0.000000 0.023760 0.000000 -0.003115
# 5 -0.000966 -0.002834 0.002717 0.000000 0.039664 0.000000
# 6 0.000000 0.000000 0.000000 -0.003115 0.000000 0.049865
#
#
# Mechanical properties :
#
#
# Convention : Reuss Voigt Hill
#
# Bulk Modulus (GPa) = 25.08400 34.04905 29.56652
# Shear Modulus (GPa) = 26.38410 32.74465 29.56437
#
# Velocity S-wave (km/s) = 3.29753 3.67356 3.49061
# Velocity P-wave (km/s) = 4.98358 5.65915 5.33208
#
# Compressibility (1/GPa) = 0.03986606
#
# Stress axis : x y z
#
# Youngs Moduli (GPa) = 31.16290 113.86950 94.99559
#
# Poissons Ratio (x) = 0.25515 0.26369
# Poissons Ratio (y) = 0.06983 0.07120
# Poissons Ratio (z) = 0.08650 0.08535
#
# Static dielectric constant tensor:
#      x y z
#    x 1.875690 0.000000 -0.030850 
#    y 0.000000 1.894650 0.000000 
#    z -0.030850 0.000000 2.122700 
# 
# From -- ./inp_files/61556.got.cif
#   From: 2010.05.17/outbox.cif.g08.bks.cpg/sg15_31_cif.got.tgz:61556.got - 2010.06.03 18:47:42.
