data_PCOD9279600
_publ_section_title
;
Structure prediction by ZEFSAII (Michael W. Deem and Ramdas Pophale) SiO2 
 PCOD9279600
Probable space group: C 2/C
;
_chemical_formula_sum "Si O2"
_cell_formula_units_Z 40
_cell_length_a 24.613826
_cell_length_b 6.565396
_cell_length_c 8.986663
_cell_angle_alpha 90.000000
_cell_angle_beta 101.276132
_cell_angle_gamma 90.000000
_cell_volume 1424.206622
_symmetry_space_group_name_H-M "C 2/C"
_symmetry_group_IT_number 15
_symmetry_cell_setting 'monoclinic'
loop_
_space_group_symop_operation_xyz
x,y,z
-x,y,1/2-z
-x,-y,-z
x,-y,1/2+z
1/2+x,1/2+y,z
1/2-x,1/2+y,1/2-z
1/2-x,1/2-y,-z
1/2+x,1/2-y,1/2+z
loop_
_atom_site_type_symbol
_atom_site_label
_atom_site_fract_x
_atom_site_fract_y
_atom_site_fract_z
Si Si1 0.564567 0.001158 0.561354
Si Si2 0.833635 0.622157 0.049683
Si Si3 0.318786 0.646342 0.099329
Si Si4 0.259130 0.646609 0.748654
Si Si5 0.562750 0.301989 0.827150
O O1 0.604179 0.141272 0.480567
O O2 0.567998 0.099681 0.725696
O O3 0.500000 0.000000 0.500000
O O4 0.574584 0.771674 0.504759
O O5 0.824675 0.392640 0.103046
O O6 0.807374 0.764721 0.161149
O O7 0.796730 0.640066 0.885043
O O8 0.269775 0.614464 0.195087
O O9 0.381059 0.573044 0.170940
O O10 0.292209 0.600640 0.925193
O O11 0.500000 0.379290 0.750000
#
# Coordination Sequence:
#
# PCOD9279600 Si02
#       5
#     8   8   8   8   8
#     4   9  17  32  57  84 111 151 196 237 285 342
#     4  10  21  36  54  81 116 150 191 237 289 348
#     4  11  20  35  56  81 114 148 195 235 291 346
#     4  11  21  34  55  82 113 150 185 237 296 347
#     4   9  18  33  56  82 114 153 194 240 289 341
#
# _framework density 28.085813000000002
#
# number of rings (size 3 to 8) (size 9 to 14) (size 15 to 20)
#    0.000    2.000    4.000    0.600    0.000    0.000 
#    0.000    0.000    0.000   22.800    0.000    0.000 
#    0.000    0.000    0.000    0.000    0.000    0.000 
#
# Total GULP energy -111407.399573 kJ/mol
# GULP energy per Si atom -5570.369979 kJ/mol
# Density = 2.802189 g / cm^3
# Si number density = 28.085813 Si / 1000 Ang^3
#
#
#
# Elastic Constant Matrix: (Units=GPa)
#
#
# Indices 1 2 3 4 5 6 
#
# 1 291.5828 44.9640 96.2984 0.0000 25.9049 0.0000
# 2 44.9640 87.7774 33.2436 0.0000 6.2124 0.0000
# 3 96.2984 33.2436 222.3783 0.0000 15.6985 0.0000
# 4 0.0000 0.0000 0.0000 58.8477 0.0000 -14.7344
# 5 25.9049 6.2124 15.6985 0.0000 53.7196 0.0000
# 6 0.0000 0.0000 0.0000 -14.7344 0.0000 37.2465
#
#
#
# Elastic Compliance Matrix: (Units=1/GPa)
#
#
# Indices 1 2 3 4 5 6 
#
# 1 0.004299 -0.001519 -0.001532 0.000000 -0.001449 0.000000
# 2 -0.001519 0.012655 -0.001207 0.000000 -0.000378 0.000000
# 3 -0.001532 -0.001207 0.005390 0.000000 -0.000697 0.000000
# 4 0.000000 0.000000 0.000000 0.018861 0.000000 0.007461
# 5 -0.001449 -0.000378 -0.000697 0.000000 0.019561 0.000000
# 6 0.000000 0.000000 0.000000 0.007461 0.000000 0.029800
#
#
# Mechanical properties :
#
#
# Convention : Reuss Voigt Hill
#
# Bulk Modulus (GPa) = 72.32579 105.63896 88.98237
# Shear Modulus (GPa) = 48.22017 58.44493 53.33255
#
# Velocity S-wave (km/s) = 4.14803 4.56668 4.36238
# Velocity P-wave (km/s) = 6.98206 8.09325 7.55810
#
# Compressibility (1/GPa) = 0.01382633
#
# Stress axis : x y z
#
# Youngs Moduli (GPa) = 232.63598 79.02264 185.53165
#
# Poissons Ratio (x) = 0.12005 0.28424
# Poissons Ratio (y) = 0.35341 0.22398
# Poissons Ratio (z) = 0.35640 0.09540
#
# Static dielectric constant tensor:
#      x y z
#    x 2.470520 0.000000 -0.279110 
#    y 0.000000 2.872150 0.000000 
#    z -0.279110 0.000000 2.255610 
# 
# From -- ./inp_files/54686.got.cif
#   From: 2010.05.17/outbox.cif.g08.bks.cpg/sg15_28_cif.got.tgz:54686.got - 2010.06.03 18:47:42.
