data_PCOD9279093
_publ_section_title
;
Structure prediction by ZEFSAII (Michael W. Deem and Ramdas Pophale) SiO2 
 PCOD9279093
Probable space group: C 2/C
;
_chemical_formula_sum "Si O2"
_cell_formula_units_Z 36
_cell_length_a 12.665653
_cell_length_b 23.200800
_cell_length_c 8.565620
_cell_angle_alpha 90.000000
_cell_angle_beta 32.564470
_cell_angle_gamma 90.000000
_cell_volume 1354.790015
_symmetry_space_group_name_H-M "C 2/C"
_symmetry_group_IT_number 15
_symmetry_cell_setting 'monoclinic'
loop_
_space_group_symop_operation_xyz
x,y,z
-x,y,1/2-z
-x,-y,-z
x,-y,1/2+z
1/2+x,1/2+y,z
1/2-x,1/2+y,1/2-z
1/2-x,1/2-y,-z
1/2+x,1/2-y,1/2+z
loop_
_atom_site_type_symbol
_atom_site_label
_atom_site_fract_x
_atom_site_fract_y
_atom_site_fract_z
Si Si1 0.723241 0.932832 0.904247
Si Si2 0.782865 0.317891 0.451604
Si Si3 0.500000 0.755941 0.750000
Si Si4 0.275399 0.052132 0.466802
Si Si5 0.649715 0.333053 0.264044
O O1 0.500000 0.932556 0.250000
O O2 0.820346 0.871430 0.828088
O O3 0.807678 0.990147 0.878337
O O4 0.713971 0.941126 0.731510
O O5 0.750000 0.250000 0.500000
O O6 0.732456 0.331970 0.335408
O O7 0.000000 0.321887 0.250000
O O8 0.518666 0.712749 0.577581
O O9 0.677176 0.800498 0.549387
O O10 0.500000 0.057634 0.250000
O O11 0.147665 0.102730 0.702135
#
# Coordination Sequence:
#
# PCOD9279093 Si02
#       5
#     8   8   4   8   8
#     4  10  21  34  56  89 116 156 200 246 298 349
#     4  11  23  38  60  89 123 154 195 245 299 352
#     4  10  24  36  62  86 122 158 202 234 298 352
#     4  11  19  35  60  85 119 154 201 251 294 351
#     4  11  22  39  61  88 121 159 199 243 296 356
#
# _framework density 26.572384
#
# number of rings (size 3 to 8) (size 9 to 14) (size 15 to 20)
#    0.000    1.333    1.111    8.000    6.222    0.000 
#    0.000    0.000    2.444    2.667    0.000    0.000 
#    0.000    0.000    0.000    0.000    0.000    0.000 
#
# Total GULP energy -100727.085217 kJ/mol
# GULP energy per Si atom -5595.949179 kJ/mol
# Density = 2.651190 g / cm^3
# Si number density = 26.572384 Si / 1000 Ang^3
#
#
#
# Elastic Constant Matrix: (Units=GPa)
#
#
# Indices 1 2 3 4 5 6 
#
# 1 212.5662 75.5018 56.4391 0.0001 37.9491 0.0000
# 2 75.5018 286.3502 46.8004 0.0000 42.8060 0.0000
# 3 56.4391 46.8004 68.6117 0.0001 28.4450 0.0000
# 4 0.0001 0.0000 0.0001 67.2372 -0.0001 4.4726
# 5 37.9491 42.8060 28.4450 -0.0001 69.6197 0.0000
# 6 0.0000 0.0000 0.0000 4.4726 0.0000 50.1972
#
#
#
# Elastic Compliance Matrix: (Units=1/GPa)
#
#
# Indices 1 2 3 4 5 6 
#
# 1 0.006308 -0.000801 -0.004119 0.000000 -0.001263 0.000000
# 2 -0.000801 0.004184 -0.001576 0.000000 -0.001492 0.000000
# 3 -0.004119 -0.001576 0.021316 0.000000 -0.005495 0.000000
# 4 0.000000 0.000000 0.000000 0.014961 0.000000 -0.001333
# 5 -0.001263 -0.001492 -0.005495 0.000000 0.018215 0.000000
# 6 0.000000 0.000000 0.000000 -0.001333 0.000000 0.020040
#
#
# Mechanical properties :
#
#
# Convention : Reuss Voigt Hill
#
# Bulk Modulus (GPa) = 53.14791 102.77894 77.96342
# Shear Modulus (GPa) = 47.94349 63.32994 55.63672
#
# Velocity S-wave (km/s) = 4.25227 4.88720 4.58075
# Velocity P-wave (km/s) = 6.64482 8.40292 7.57505
#
# Compressibility (1/GPa) = 0.01881542
#
# Stress axis : x y z
#
# Youngs Moduli (GPa) = 158.52643 238.99682 46.91264
#
# Poissons Ratio (x) = 0.19150 0.19322
# Poissons Ratio (y) = 0.12703 0.07396
# Poissons Ratio (z) = 0.65294 0.37677
#
# Static dielectric constant tensor:
#      x y z
#    x 2.101840 0.000000 -0.085250 
#    y 0.000000 2.098960 0.000000 
#    z -0.085250 0.000000 2.127800 
# 
# From -- ./inp_files/31691.got.cif
#   From: 2010.05.17/outbox.cif.g08.bks.cpg/sg15_16_cif.got.tgz:31691.got - 2010.06.03 18:47:42.
