data_PCOD9279425
_publ_section_title
;
Structure prediction by ZEFSAII (Michael W. Deem and Ramdas Pophale) SiO2 
 PCOD9279425
Probable space group: C 2/C
;
_chemical_formula_sum "Si O2"
_cell_formula_units_Z 48
_cell_length_a 19.831238
_cell_length_b 9.120298
_cell_length_c 11.155517
_cell_angle_alpha 90.000000
_cell_angle_beta 86.373438
_cell_angle_gamma 90.000000
_cell_volume 2013.622320
_symmetry_space_group_name_H-M "C 2/C"
_symmetry_group_IT_number 15
_symmetry_cell_setting 'monoclinic'
loop_
_space_group_symop_operation_xyz
x,y,z
-x,y,1/2-z
-x,-y,-z
x,-y,1/2+z
1/2+x,1/2+y,z
1/2-x,1/2+y,1/2-z
1/2-x,1/2-y,-z
1/2+x,1/2-y,1/2+z
loop_
_atom_site_type_symbol
_atom_site_label
_atom_site_fract_x
_atom_site_fract_y
_atom_site_fract_z
Si Si1 0.394458 0.792447 0.248916
Si Si2 0.534411 0.556610 0.121695
Si Si3 0.383180 0.330519 0.496128
Si Si4 0.870413 0.596008 0.332179
Si Si5 0.756929 0.003620 0.510289
Si Si6 0.761621 0.729304 0.178924
O O1 0.438607 0.719650 0.350020
O O2 0.313556 0.770938 0.270290
O O3 0.404140 0.967497 0.251985
O O4 0.412081 0.702478 0.125524
O O5 0.500000 0.503652 0.250000
O O6 0.603507 0.471243 0.087795
O O7 0.500000 0.500000 0.000000
O O8 0.413293 0.199525 0.412857
O O9 0.303286 0.361399 0.523327
O O10 0.817873 0.523507 0.431436
O O11 0.822426 0.704449 0.262733
O O12 0.783828 0.142218 0.585072
O O13 0.747969 0.069202 0.379862
#
# Coordination Sequence:
#
# PCOD9279425 Si02
#       6
#     8   8   8   8   8   8
#     4  11  24  44  66 101 142 180 229 295 344 421
#     4  12  27  50  77  99 128 180 249 312 358 409
#     4  12  24  43  71 100 137 188 238 283 358 418
#     4  11  24  37  65 102 145 184 214 268 353 432
#     4  10  21  35  59  99 142 180 219 268 327 428
#     4  10  21  35  60 100 144 182 216 264 336 425
#
# _framework density 23.837637999999998
#
# number of rings (size 3 to 8) (size 9 to 14) (size 15 to 20)
#    0.000    1.000    5.000    1.500    7.000    0.000 
#    3.000    1.667    0.000    0.000    0.000    0.000 
#    0.000    0.000    0.000    0.000    0.000    0.000 
#
# Total GULP energy -133661.266460 kJ/mol
# GULP energy per Si atom -5569.219436 kJ/mol
# Density = 2.378338 g / cm^3
# Si number density = 23.837638 Si / 1000 Ang^3
#
#
#
# Elastic Constant Matrix: (Units=GPa)
#
#
# Indices 1 2 3 4 5 6 
#
# 1 42.3731 6.4276 24.3393 0.0000 13.3585 0.0000
# 2 6.4276 64.9847 15.0230 0.0000 17.4824 0.0000
# 3 24.3393 15.0230 91.5633 0.0000 18.8782 0.0000
# 4 0.0000 0.0000 0.0000 38.6785 0.0000 -0.9423
# 5 13.3585 17.4824 18.8782 0.0000 31.9269 0.0000
# 6 0.0000 0.0000 0.0000 -0.9423 0.0000 -7.3883
#
#
#
# Elastic Compliance Matrix: (Units=1/GPa)
#
#
# Indices 1 2 3 4 5 6 
#
# 1 0.029976 0.001003 -0.006188 0.000000 -0.009433 0.000000
# 2 0.001003 0.018170 -0.001264 0.000000 -0.009622 0.000000
# 3 -0.006188 -0.001264 0.013777 0.000000 -0.004865 0.000000
# 4 0.000000 0.000000 0.000000 0.025774 0.000000 -0.003287
# 5 -0.009433 -0.009622 -0.004865 0.000000 0.043413 0.000000
# 6 0.000000 0.000000 0.000000 -0.003287 0.000000 -0.134930
#
#
# Mechanical properties :
#
#
# Convention : Reuss Voigt Hill
#
# Bulk Modulus (GPa) = 20.39794 32.27787 26.33791
# Shear Modulus (GPa) = 196.70160 22.85216 109.77688
#
# Velocity S-wave (km/s) = 9.09375 3.09958 6.79352
# Velocity P-wave (km/s) = 10.90126 5.13614 8.52107
#
# Compressibility (1/GPa) = 0.04902456
#
# Stress axis : x y z
#
# Youngs Moduli (GPa) = 33.36019 55.03682 72.58640
#
# Poissons Ratio (x) = -0.05521 0.44916
# Poissons Ratio (y) = -0.03347 0.09175
# Poissons Ratio (z) = 0.20643 0.06957
#
# Static dielectric constant tensor:
#      x y z
#    x 2.333460 0.000000 -0.082550 
#    y 0.000000 2.027250 0.000000 
#    z -0.082550 0.000000 2.011120 
# 
# From -- ./inp_files/116255.got.cif
#   From: 2010.05.17/outbox.cif.g08.bks.cpg/sg15_59_cif.got.tgz:116255.got - 2010.06.03 18:47:42.
