data_PCOD9279523
_publ_section_title
;
Structure prediction by ZEFSAII (Michael W. Deem and Ramdas Pophale) SiO2 
 PCOD9279523
Probable space group: C 2/C
;
_chemical_formula_sum "Si O2"
_cell_formula_units_Z 40
_cell_length_a 5.387417
_cell_length_b 15.435430
_cell_length_c 23.016608
_cell_angle_alpha 90.000000
_cell_angle_beta 99.051898
_cell_angle_gamma 90.000000
_cell_volume 1890.157898
_symmetry_space_group_name_H-M "C 2/C"
_symmetry_group_IT_number 15
_symmetry_cell_setting 'monoclinic'
loop_
_space_group_symop_operation_xyz
x,y,z
-x,y,1/2-z
-x,-y,-z
x,-y,1/2+z
1/2+x,1/2+y,z
1/2-x,1/2+y,1/2-z
1/2-x,1/2-y,-z
1/2+x,1/2-y,1/2+z
loop_
_atom_site_type_symbol
_atom_site_label
_atom_site_fract_x
_atom_site_fract_y
_atom_site_fract_z
Si Si1 0.885446 0.339862 0.810196
Si Si2 0.926954 0.816880 0.471666
Si Si3 0.774561 0.182781 0.414158
Si Si4 0.122405 0.313402 0.356125
Si Si5 0.500000 0.462854 0.750000
Si Si6 0.000000 0.569015 0.750000
O O1 0.814324 0.241328 0.823093
O O2 0.638417 0.399490 0.800727
O O3 0.000000 0.343215 0.750000
O O4 0.083784 0.369078 0.866332
O O5 0.750000 0.750000 0.500000
O O6 0.761669 0.860652 0.415080
O O7 0.073524 0.865456 0.528816
O O8 0.115822 0.756012 0.442527
O O9 0.954685 0.238583 0.379218
O O10 0.974797 0.374848 0.307470
O O11 0.736494 0.517355 0.734876
#
# Coordination Sequence:
#
# PCOD9279523 Si02
#       6
#     8   8   8   8   4   4
#     4  11  21  39  61  89 117 160 206 248 291 361
#     4   8  16  31  53  93 117 148 185 256 300 348
#     4   9  17  32  60  89 119 146 199 251 297 349
#     4  10  21  35  64  90 120 152 205 248 300 352
#     4  12  27  42  55  84 128 168 200 240 309 356
#     4  12  27  40  59  88 128 162 196 252 303 356
#
# _framework density 21.162251999999999
#
# number of rings (size 3 to 8) (size 9 to 14) (size 15 to 20)
#    0.000    2.000    1.000    3.000    7.000    0.000 
#    0.000    0.000    0.000    2.400    0.000    0.000 
#    0.000    0.000    0.000    0.000    0.000    0.000 
#
# Total GULP energy -111419.078254 kJ/mol
# GULP energy per Si atom -5570.953913 kJ/mol
# Density = 2.111409 g / cm^3
# Si number density = 21.162252 Si / 1000 Ang^3
#
#
#
# Elastic Constant Matrix: (Units=GPa)
#
#
# Indices 1 2 3 4 5 6 
#
# 1 89.7343 16.5982 58.0100 0.0000 11.9586 0.0000
# 2 16.5982 28.8713 39.4506 0.0000 11.4703 0.0000
# 3 58.0100 39.4506 183.5107 0.0000 43.3301 0.0000
# 4 0.0000 0.0000 0.0000 3.5921 0.0000 7.8554
# 5 11.9586 11.4703 43.3301 0.0000 60.8302 0.0000
# 6 0.0000 0.0000 0.0000 7.8554 0.0000 19.5772
#
#
#
# Elastic Compliance Matrix: (Units=1/GPa)
#
#
# Indices 1 2 3 4 5 6 
#
# 1 0.014191 -0.002937 -0.003999 0.000000 0.000613 0.000000
# 2 -0.002937 0.049873 -0.009268 0.000000 -0.002225 0.000000
# 3 -0.003999 -0.009268 0.009747 0.000000 -0.004409 0.000000
# 4 0.000000 0.000000 0.000000 2.272209 0.000000 -0.911729
# 5 0.000613 -0.002225 -0.004409 0.000000 0.019879 0.000000
# 6 0.000000 0.000000 0.000000 -0.911729 0.000000 0.416914
#
#
# Mechanical properties :
#
#
# Convention : Reuss Voigt Hill
#
# Bulk Modulus (GPa) = 24.15312 58.91487 41.53399
# Shear Modulus (GPa) = 1.76740 29.33707 15.55223
#
# Velocity S-wave (km/s) = 0.91486 3.72733 2.71385
# Velocity P-wave (km/s) = 3.54317 6.81352 5.43038
#
# Compressibility (1/GPa) = 0.04140252
#
# Stress axis : x y z
#
# Youngs Moduli (GPa) = 70.46731 20.05106 102.59753
#
# Poissons Ratio (x) = 0.05890 0.41030
# Poissons Ratio (y) = 0.20698 0.95083
# Poissons Ratio (z) = 0.28181 0.18582
#
# Static dielectric constant tensor:
#      x y z
#    x 1.897870 0.000000 0.030190 
#    y 0.000000 1.758750 0.000000 
#    z 0.030190 0.000000 1.842780 
# 
# From -- ./inp_files/226744.got.cif
#   From: 2010.05.17/outbox.cif.g08.bks.cpg/sg15_114_cif.got.tgz:226744.got - 2010.06.03 18:47:42.
