data_PCOD9279804
_publ_section_title
;
Structure prediction by ZEFSAII (Michael W. Deem and Ramdas Pophale) SiO2 
 PCOD9279804
Probable space group: C 2/C
;
_chemical_formula_sum "Si O2"
_cell_formula_units_Z 56
_cell_length_a 8.473753
_cell_length_b 22.269978
_cell_length_c 16.595847
_cell_angle_alpha 90.000000
_cell_angle_beta 129.333236
_cell_angle_gamma 90.000000
_cell_volume 2422.367235
_symmetry_space_group_name_H-M "C 2/C"
_symmetry_group_IT_number 15
_symmetry_cell_setting 'monoclinic'
loop_
_space_group_symop_operation_xyz
x,y,z
-x,y,1/2-z
-x,-y,-z
x,-y,1/2+z
1/2+x,1/2+y,z
1/2-x,1/2+y,1/2-z
1/2-x,1/2-y,-z
1/2+x,1/2-y,1/2+z
loop_
_atom_site_type_symbol
_atom_site_label
_atom_site_fract_x
_atom_site_fract_y
_atom_site_fract_z
Si Si1 0.556387 0.597080 0.514299
Si Si2 0.489701 0.283697 0.607474
Si Si3 0.395169 0.825616 0.797162
Si Si4 0.052087 0.311671 0.520047
Si Si5 0.848756 0.067970 0.772684
Si Si6 0.714531 0.953959 0.799912
Si Si7 0.941711 0.556717 0.540026
O O1 0.542188 0.663079 0.469118
O O2 0.605226 0.597894 0.625368
O O3 0.339146 0.568250 0.418328
O O4 0.732219 0.558574 0.524575
O O5 0.666470 0.302182 0.724488
O O6 0.274304 0.280906 0.582251
O O7 0.560891 0.222676 0.587248
O O8 0.500000 0.804837 0.750000
O O9 0.523664 0.804501 0.914402
O O10 0.360995 0.897007 0.775841
O O11 0.074822 0.382513 0.517055
O O12 0.624586 0.071197 0.661417
O O13 0.000000 0.085910 0.750000
O O14 0.863014 0.996970 0.798611
O O15 0.500000 0.985988 0.750000
O O16 0.000000 0.500000 0.500000
#
# Coordination Sequence:
#
# PCOD9279804 Si02
#       7
#     8   8   8   8   8   8   8
#     4  10  22  42  63  87 122 161 204 254 304 360
#     4   9  21  40  62  85 113 157 204 247 295 354
#     4  10  21  36  59  88 117 154 195 245 303 357
#     4  10  21  39  62  87 117 154 201 249 293 356
#     4  12  25  38  58  89 125 163 200 247 307 365
#     4  10  21  39  62  87 119 160 205 248 301 362
#     4  11  23  40  64  92 122 159 204 250 306 366
#
# _framework density 23.117882000000002
#
# number of rings (size 3 to 8) (size 9 to 14) (size 15 to 20)
#    0.000    1.714    0.000    3.857    0.000    9.714 
#    0.000    5.714    0.000    0.000    0.000    0.000 
#    0.000    0.000    0.000    0.000    0.000    0.000 
#
# Total GULP energy -156190.639510 kJ/mol
# GULP energy per Si atom -5578.237125 kJ/mol
# Density = 2.306526 g / cm^3
# Si number density = 23.117882 Si / 1000 Ang^3
#
#
#
# Elastic Constant Matrix: (Units=GPa)
#
#
# Indices 1 2 3 4 5 6 
#
# 1 80.0965 19.7901 43.0402 0.0000 -23.7105 0.0000
# 2 19.7901 69.6537 2.4937 0.0000 -14.8994 0.0000
# 3 43.0402 2.4937 109.3448 0.0000 -17.8508 0.0000
# 4 0.0000 0.0000 0.0000 -11.8587 0.0000 10.3855
# 5 -23.7105 -14.8994 -17.8508 0.0000 47.5783 0.0000
# 6 0.0000 0.0000 0.0000 10.3855 0.0000 19.9396
#
#
#
# Elastic Compliance Matrix: (Units=1/GPa)
#
#
# Indices 1 2 3 4 5 6 
#
# 1 0.018465 -0.003811 -0.006257 0.000000 0.005661 0.000000
# 2 -0.003811 0.016196 0.001756 0.000000 0.003832 0.000000
# 3 -0.006257 0.001756 0.011876 0.000000 0.001888 0.000000
# 4 0.000000 0.000000 0.000000 -0.057910 0.000000 0.030163
# 5 0.005661 0.003832 0.001888 0.000000 0.025747 0.000000
# 6 0.000000 0.000000 0.000000 0.030163 0.000000 0.034441
#
#
# Mechanical properties :
#
#
# Convention : Reuss Voigt Hill
#
# Bulk Modulus (GPa) = 33.42979 43.30476 38.36728
# Shear Modulus (GPa) = 66.30411 24.04989 45.17700
#
# Velocity S-wave (km/s) = 5.36126 3.22889 4.42543
# Velocity P-wave (km/s) = 7.26747 5.71610 6.53796
#
# Compressibility (1/GPa) = 0.02991344
#
# Stress axis : x y z
#
# Youngs Moduli (GPa) = 54.15797 61.74234 84.20092
#
# Poissons Ratio (x) = 0.23532 0.52684
# Poissons Ratio (y) = 0.20641 -0.14789
# Poissons Ratio (z) = 0.33886 -0.10844
#
# Static dielectric constant tensor:
#      x y z
#    x 1.916590 0.000000 -0.027820 
#    y 0.000000 1.909430 0.000000 
#    z -0.027820 0.000000 1.919020 
# 
# From -- ./inp_files/193325.got.cif
#   From: 2010.05.17/outbox.cif.g08.bks.cpg/sg15_97_cif.got.tgz:193325.got - 2010.06.03 18:47:42.
