data_PCOD9279382
_publ_section_title
;
Structure prediction by ZEFSAII (Michael W. Deem and Ramdas Pophale) SiO2 
 PCOD9279382
Probable space group: C 2/C
;
_chemical_formula_sum "Si O2"
_cell_formula_units_Z 40
_cell_length_a 24.530971
_cell_length_b 6.251627
_cell_length_c 11.458549
_cell_angle_alpha 90.000000
_cell_angle_beta 78.316796
_cell_angle_gamma 90.000000
_cell_volume 1720.859012
_symmetry_space_group_name_H-M "C 2/C"
_symmetry_group_IT_number 15
_symmetry_cell_setting 'monoclinic'
loop_
_space_group_symop_operation_xyz
x,y,z
-x,y,1/2-z
-x,-y,-z
x,-y,1/2+z
1/2+x,1/2+y,z
1/2-x,1/2+y,1/2-z
1/2-x,1/2-y,-z
1/2+x,1/2-y,1/2+z
loop_
_atom_site_type_symbol
_atom_site_label
_atom_site_fract_x
_atom_site_fract_y
_atom_site_fract_z
Si Si1 0.000222 0.184569 0.891697
Si Si2 0.411693 0.987929 0.047312
Si Si3 0.824367 0.213544 0.213384
Si Si4 0.308910 0.953580 0.458467
Si Si5 0.214689 0.134575 0.635642
O O1 0.052265 0.342364 0.895863
O O2 0.000000 0.119997 0.750000
O O3 0.949349 0.350736 0.941024
O O4 0.000000 0.000000 0.000000
O O5 0.379580 0.806788 0.134734
O O6 0.360401 0.119383 0.012892
O O7 0.814708 0.357517 0.330433
O O8 0.765632 0.238492 0.172099
O O9 0.825627 0.971176 0.254657
O O10 0.249038 0.957263 0.547167
O O11 0.317761 0.208556 0.433655
#
# Coordination Sequence:
#
# PCOD9279382 Si02
#       5
#     8   8   8   8   8
#     4  11  26  50  76 105 139 182 241 311 380 450
#     4  10  25  43  69 100 138 181 236 304 367 430
#     4  11  20  38  62  93 138 187 235 289 350 418
#     4  10  21  38  59  92 136 188 237 290 343 420
#     4  10  21  35  58  91 137 187 238 284 341 417
#
# _framework density 23.244205999999998
#
# number of rings (size 3 to 8) (size 9 to 14) (size 15 to 20)
#    0.000    1.600    2.000    1.800    0.000    9.600 
#    0.000    0.000    0.000    0.000    0.000    0.000 
#    0.000    0.000    0.000    0.000    0.000    0.000 
#
# Total GULP energy -111369.491106 kJ/mol
# GULP energy per Si atom -5568.474555 kJ/mol
# Density = 2.319130 g / cm^3
# Si number density = 23.244206 Si / 1000 Ang^3
#
#
#
# Elastic Constant Matrix: (Units=GPa)
#
#
# Indices 1 2 3 4 5 6 
#
# 1 99.3291 19.4526 40.0818 0.0000 -5.4599 0.0000
# 2 19.4526 56.7181 36.1217 0.0000 -4.5606 0.0000
# 3 40.0818 36.1217 129.8150 0.0000 0.6341 0.0000
# 4 0.0000 0.0000 0.0000 112.9759 0.0000 -1.3642
# 5 -5.4599 -4.5606 0.6341 0.0000 25.9427 0.0000
# 6 0.0000 0.0000 0.0000 -1.3642 0.0000 24.4984
#
#
#
# Elastic Compliance Matrix: (Units=1/GPa)
#
#
# Indices 1 2 3 4 5 6 
#
# 1 0.011825 -0.001876 -0.003140 0.000000 0.002236 0.000000
# 2 -0.001876 0.022131 -0.005596 0.000000 0.003632 0.000000
# 3 -0.003140 -0.005596 0.010239 0.000000 -0.001895 0.000000
# 4 0.000000 0.000000 0.000000 0.008857 0.000000 0.000493
# 5 0.002236 0.003632 -0.001895 0.000000 0.039702 0.000000
# 6 0.000000 0.000000 0.000000 0.000493 0.000000 0.040846
#
#
# Mechanical properties :
#
#
# Convention : Reuss Voigt Hill
#
# Bulk Modulus (GPa) = 43.53530 53.01938 48.27734
# Shear Modulus (GPa) = 30.77259 45.36383 38.06821
#
# Velocity S-wave (km/s) = 3.64247 4.42251 4.05130
# Velocity P-wave (km/s) = 6.03823 6.99552 6.53443
#
# Compressibility (1/GPa) = 0.02296987
#
# Stress axis : x y z
#
# Youngs Moduli (GPa) = 84.56738 45.18593 97.66327
#
# Poissons Ratio (x) = 0.08477 0.30666
# Poissons Ratio (y) = 0.15866 0.54657
# Poissons Ratio (z) = 0.26554 0.25288
#
# Static dielectric constant tensor:
#      x y z
#    x 1.909360 0.000000 0.019290 
#    y 0.000000 2.124550 0.000000 
#    z 0.019290 0.000000 2.021390 
# 
# From -- ./inp_files/120726.got.cif
#   From: 2010.05.17/outbox.cif.g08.bks.cpg/sg15_61_cif.got.tgz:120726.got - 2010.06.03 18:47:42.
