data_PCOD9279018
_publ_section_title
;
Structure prediction by ZEFSAII (Michael W. Deem and Ramdas Pophale) SiO2 
 PCOD9279018
Probable space group: C 2/C
;
_chemical_formula_sum "Si O2"
_cell_formula_units_Z 56
_cell_length_a 5.145406
_cell_length_b 25.528051
_cell_length_c 28.145577
_cell_angle_alpha 90.000000
_cell_angle_beta 124.980303
_cell_angle_gamma 90.000000
_cell_volume 3029.120056
_symmetry_space_group_name_H-M "C 2/C"
_symmetry_group_IT_number 15
_symmetry_cell_setting 'monoclinic'
loop_
_space_group_symop_operation_xyz
x,y,z
-x,y,1/2-z
-x,-y,-z
x,-y,1/2+z
1/2+x,1/2+y,z
1/2-x,1/2+y,1/2-z
1/2-x,1/2-y,-z
1/2+x,1/2-y,1/2+z
loop_
_atom_site_type_symbol
_atom_site_label
_atom_site_fract_x
_atom_site_fract_y
_atom_site_fract_z
Si Si1 0.950189 0.278007 0.088059
Si Si2 0.327903 0.552779 0.041005
Si Si3 0.636615 0.338385 0.715690
Si Si4 0.857316 0.288556 0.285138
Si Si5 0.347536 0.659313 0.086334
Si Si6 0.918578 0.943007 0.036258
Si Si7 0.807388 0.172912 0.536363
O O1 0.007601 0.215521 0.092646
O O2 0.581825 0.292370 0.041089
O O3 0.998162 0.297914 0.147375
O O4 0.169127 0.303798 0.070885
O O5 0.365524 0.555098 0.987955
O O6 0.957088 0.552597 0.016413
O O7 0.473956 0.607259 0.073896
O O8 0.476227 0.496823 0.071060
O O9 0.500000 0.359275 0.750000
O O10 0.642944 0.274867 0.718495
O O11 0.409455 0.350958 0.648011
O O12 0.000000 0.355643 0.750000
O O13 0.500000 0.307727 0.250000
O O14 0.000000 0.307652 0.250000
O O15 0.987458 0.666764 0.030673
O O16 0.944636 0.885328 0.060610
#
# Coordination Sequence:
#
# PCOD9279018 Si02
#       7
#     8   8   8   8   8   8   8
#     4  11  22  32  49  77 107 134 164 204 255 315
#     4   9  18  32  51  71  93 130 169 205 237 286
#     4   9  19  32  48  69  95 128 169 210 245 295
#     4   9  17  32  49  66  92 130 172 209 242 284
#     4  10  21  34  52  75 106 137 165 203 263 310
#     4   9  18  33  49  69  99 131 170 200 232 286
#     4  11  21  33  48  75 110 140 163 199 253 309
#
# _framework density 18.487216
#
# number of rings (size 3 to 8) (size 9 to 14) (size 15 to 20)
#    0.000    2.286    0.000    3.429    0.000    9.143 
#    0.000    0.000    0.000    0.000    0.000    6.000 
#    0.000    0.000    0.000    0.000    0.000    0.000 
#
# Total GULP energy -155939.491621 kJ/mol
# GULP energy per Si atom -5569.267558 kJ/mol
# Density = 1.844514 g / cm^3
# Si number density = 18.487216 Si / 1000 Ang^3
#
#
#
# Elastic Constant Matrix: (Units=GPa)
#
#
# Indices 1 2 3 4 5 6 
#
# 1 95.8599 22.1744 19.9743 0.0000 -17.5788 0.0000
# 2 22.1744 122.2322 20.5916 0.0000 -16.6625 0.0000
# 3 19.9743 20.5916 78.6757 0.0000 -9.1652 0.0000
# 4 0.0000 0.0000 0.0000 0.7476 0.0000 -6.3326
# 5 -17.5788 -16.6625 -9.1652 0.0000 16.3415 0.0000
# 6 0.0000 0.0000 0.0000 -6.3326 0.0000 18.1307
#
#
#
# Elastic Compliance Matrix: (Units=1/GPa)
#
#
# Indices 1 2 3 4 5 6 
#
# 1 0.013247 -0.000346 -0.001769 0.000000 0.012905 0.000000
# 2 -0.000346 0.009669 -0.001431 0.000000 0.008684 0.000000
# 3 -0.001769 -0.001431 0.014061 0.000000 0.004524 0.000000
# 4 0.000000 0.000000 0.000000 -0.682953 0.000000 -0.238539
# 5 0.012905 0.008684 0.004524 0.000000 0.086467 0.000000
# 6 0.000000 0.000000 0.000000 -0.238539 0.000000 -0.028161
#
#
# Mechanical properties :
#
#
# Convention : Reuss Voigt Hill
#
# Bulk Modulus (GPa) = 33.46244 46.91649 40.18946
# Shear Modulus (GPa) = -8.76246 22.64580 6.94167
#
# Velocity S-wave (km/s) = -2.17946 3.50372 1.93984
# Velocity P-wave (km/s) = 3.43602 6.46536 5.17722
#
# Compressibility (1/GPa) = 0.02988425
#
# Stress axis : x y z
#
# Youngs Moduli (GPa) = 75.48825 103.42584 71.11788
#
# Poissons Ratio (x) = 0.03578 0.12583
# Poissons Ratio (y) = 0.02611 0.10178
# Poissons Ratio (z) = 0.13356 0.14802
#
# Static dielectric constant tensor:
#      x y z
#    x 1.638850 0.000000 -0.004980 
#    y 0.000000 1.692910 0.000000 
#    z -0.004980 0.000000 1.697960 
# 
# From -- ./inp_files/286687.got.cif
#   From: 2010.05.17/outbox.cif.g08.bks.cpg/sg15_144_cif.got.tgz:286687.got - 2010.06.03 18:47:42.
