data_PCOD9279801
_publ_section_title
;
Structure prediction by ZEFSAII (Michael W. Deem and Ramdas Pophale) SiO2 
 PCOD9279801
Probable space group: C 2/C
;
_chemical_formula_sum "Si O2"
_cell_formula_units_Z 56
_cell_length_a 19.344825
_cell_length_b 19.299451
_cell_length_c 15.374821
_cell_angle_alpha 90.000000
_cell_angle_beta 149.126362
_cell_angle_gamma 90.000000
_cell_volume 2945.514155
_symmetry_space_group_name_H-M "C 2/C"
_symmetry_group_IT_number 15
_symmetry_cell_setting 'monoclinic'
loop_
_space_group_symop_operation_xyz
x,y,z
-x,y,1/2-z
-x,-y,-z
x,-y,1/2+z
1/2+x,1/2+y,z
1/2-x,1/2+y,1/2-z
1/2-x,1/2-y,-z
1/2+x,1/2-y,1/2+z
loop_
_atom_site_type_symbol
_atom_site_label
_atom_site_fract_x
_atom_site_fract_y
_atom_site_fract_z
Si Si1 0.686851 0.566638 0.812320
Si Si2 0.525409 0.064827 0.466321
Si Si3 0.464832 0.460636 0.610201
Si Si4 0.596468 0.670932 0.572962
Si Si5 0.860540 0.776349 0.049993
Si Si6 0.106194 0.710852 0.595596
Si Si7 0.743150 0.578615 0.076945
O O1 0.589868 0.500391 0.701016
O O2 0.618387 0.630725 0.688333
O O3 0.831692 0.555420 0.926163
O O4 0.708003 0.580190 0.936874
O O5 0.537561 0.136156 0.533530
O O6 0.400293 0.071129 0.265616
O O7 0.500000 0.000000 0.500000
O O8 0.500000 0.450065 0.750000
O O9 0.433747 0.389372 0.528609
O O10 0.340333 0.514930 0.472631
O O11 0.739832 0.706481 0.707088
O O12 0.481012 0.727844 0.458027
O O13 0.000000 0.789452 0.250000
O O14 0.750000 0.750000 0.000000
O O15 0.887092 0.722139 0.001742
O O16 0.807196 0.846243 0.946548
#
# Coordination Sequence:
#
# PCOD9279801 Si02
#       7
#     8   8   8   8   8   8   8
#     4  10  21  36  59  87 115 148 183 227 284 343
#     4  11  23  38  55  82 116 152 189 232 280 334
#     4  10  22  40  62  84 110 149 196 240 283 336
#     4  11  22  39  58  84 116 147 189 236 285 341
#     4  12  22  35  55  85 122 155 183 224 285 352
#     4  11  23  36  55  83 113 151 189 228 279 339
#     4  11  20  36  58  85 117 150 188 231 281 343
#
# _framework density 19.011960999999999
#
# number of rings (size 3 to 8) (size 9 to 14) (size 15 to 20)
#    0.000    1.143    0.000    9.857    0.000    2.286 
#    0.000    0.714    0.000    1.714    0.000    0.000 
#    0.000    0.000    0.000    0.000    0.000    0.000 
#
# Total GULP energy -156608.244707 kJ/mol
# GULP energy per Si atom -5593.151597 kJ/mol
# Density = 1.896869 g / cm^3
# Si number density = 19.011961 Si / 1000 Ang^3
#
#
#
# Elastic Constant Matrix: (Units=GPa)
#
#
# Indices 1 2 3 4 5 6 
#
# 1 67.2745 69.5826 39.6214 0.0000 26.0255 0.0000
# 2 69.5826 153.1123 57.6467 0.0000 22.6773 0.0000
# 3 39.6214 57.6467 104.6345 0.0000 35.0619 0.0000
# 4 0.0000 0.0000 0.0000 29.8619 0.0000 2.4228
# 5 26.0255 22.6773 35.0619 0.0000 31.0128 0.0000
# 6 0.0000 0.0000 0.0000 2.4228 0.0000 33.8092
#
#
#
# Elastic Compliance Matrix: (Units=1/GPa)
#
#
# Indices 1 2 3 4 5 6 
#
# 1 0.037497 -0.014137 0.001079 0.000000 -0.022349 0.000000
# 2 -0.014137 0.013610 -0.004485 0.000000 0.006981 0.000000
# 3 0.001079 -0.004485 0.017425 0.000000 -0.017326 0.000000
# 4 0.000000 0.000000 0.000000 0.033683 0.000000 -0.002414
# 5 -0.022349 0.006981 -0.017326 0.000000 0.065483 0.000000
# 6 0.000000 0.000000 0.000000 -0.002414 0.000000 0.029751
#
#
# Mechanical properties :
#
#
# Convention : Reuss Voigt Hill
#
# Bulk Modulus (GPa) = 29.89823 73.19142 51.54483
# Shear Modulus (GPa) = 20.51846 29.48151 24.99998
#
# Velocity S-wave (km/s) = 3.28874 3.94214 3.63017
# Velocity P-wave (km/s) = 5.49375 7.70077 6.68891
#
# Compressibility (1/GPa) = 0.03344679
#
# Stress axis : x y z
#
# Youngs Moduli (GPa) = 26.66900 73.47527 57.38833
#
# Poissons Ratio (x) = 1.03869 -0.06190
# Poissons Ratio (y) = 0.37701 0.25736
# Poissons Ratio (z) = -0.02876 0.32951
#
# Static dielectric constant tensor:
#      x y z
#    x 1.661930 0.000000 0.006990 
#    y 0.000000 1.678910 0.000000 
#    z 0.006990 0.000000 1.659750 
# 
# From -- ./inp_files/49000.got.cif
#   From: 2010.05.17/outbox.cif.g08.bks.cpg/sg15_25_cif.got.tgz:49000.got - 2010.06.03 18:47:42.
