data_PCOD9279384
_publ_section_title
;
Structure prediction by ZEFSAII (Michael W. Deem and Ramdas Pophale) SiO2 
 PCOD9279384
Probable space group: C 2/C
;
_chemical_formula_sum "Si O2"
_cell_formula_units_Z 48
_cell_length_a 9.726558
_cell_length_b 9.976548
_cell_length_c 22.295236
_cell_angle_alpha 90.000000
_cell_angle_beta 107.940824
_cell_angle_gamma 90.000000
_cell_volume 2058.274825
_symmetry_space_group_name_H-M "C 2/C"
_symmetry_group_IT_number 15
_symmetry_cell_setting 'monoclinic'
loop_
_space_group_symop_operation_xyz
x,y,z
-x,y,1/2-z
-x,-y,-z
x,-y,1/2+z
1/2+x,1/2+y,z
1/2-x,1/2+y,1/2-z
1/2-x,1/2-y,-z
1/2+x,1/2-y,1/2+z
loop_
_atom_site_type_symbol
_atom_site_label
_atom_site_fract_x
_atom_site_fract_y
_atom_site_fract_z
Si Si1 0.979321 0.806022 0.006827
Si Si2 0.168411 0.705779 0.752583
Si Si3 0.670245 0.926391 0.958843
Si Si4 0.818743 0.885323 0.573549
Si Si5 0.286794 0.390845 0.386360
Si Si6 0.341373 0.491204 0.206368
O O1 0.814636 0.839373 0.969750
O O2 0.054045 0.910858 0.063663
O O3 0.960451 0.665705 0.039171
O O4 0.064653 0.821300 0.956559
O O5 0.268272 0.628335 0.814319
O O6 0.221304 0.625772 0.700561
O O7 0.193797 0.866537 0.763406
O O8 0.000000 0.687828 0.750000
O O9 0.714653 0.027298 0.017656
O O10 0.667411 0.009074 0.897057
O O11 0.746862 0.752644 0.589827
O O12 0.857704 0.968399 0.638439
O O13 0.500000 0.446871 0.250000
#
# Coordination Sequence:
#
# PCOD9279384 Si02
#       6
#     8   8   8   8   8   8
#     4  10  21  36  57  92 125 157 201 248 311 374
#     4  10  24  45  64  94 128 166 221 273 317 380
#     4  10  21  35  58  93 123 160 198 250 311 372
#     4  10  21  37  59  85 123 160 203 253 310 376
#     4  10  21  37  61  83 123 160 200 258 308 375
#     4  10  24  42  67  93 124 174 218 267 324 377
#
# _framework density 23.320502000000001
#
# number of rings (size 3 to 8) (size 9 to 14) (size 15 to 20)
#    0.000    2.000    0.000    4.000    4.667   10.000 
#    3.000    0.000    0.000    0.000    0.000    0.000 
#    0.000    0.000    0.000    0.000    0.000    0.000 
#
# Total GULP energy -133851.689291 kJ/mol
# GULP energy per Si atom -5577.153720 kJ/mol
# Density = 2.326742 g / cm^3
# Si number density = 23.320502 Si / 1000 Ang^3
#
#
#
# Elastic Constant Matrix: (Units=GPa)
#
#
# Indices 1 2 3 4 5 6 
#
# 1 106.5999 33.3946 11.2487 0.0000 -19.6440 0.0000
# 2 33.3946 70.8560 -3.6506 0.0000 -24.4527 0.0000
# 3 11.2487 -3.6506 33.3842 0.0000 -14.6831 0.0000
# 4 0.0000 0.0000 0.0000 18.2427 0.0000 -15.5141
# 5 -19.6440 -24.4527 -14.6831 0.0000 24.8144 0.0000
# 6 0.0000 0.0000 0.0000 -15.5141 0.0000 39.4149
#
#
#
# Elastic Compliance Matrix: (Units=1/GPa)
#
#
# Indices 1 2 3 4 5 6 
#
# 1 0.011712 -0.004816 -0.003356 0.000000 0.002540 0.000000
# 2 -0.004816 0.031863 0.023305 0.000000 0.041375 0.000000
# 3 -0.003356 0.023305 0.057540 0.000000 0.054356 0.000000
# 4 0.000000 0.000000 0.000000 0.082398 0.000000 0.032433
# 5 0.002540 0.041375 0.054356 0.000000 0.115246 0.000000
# 6 0.000000 0.000000 0.000000 0.032433 0.000000 0.038137
#
#
# Mechanical properties :
#
#
# Convention : Reuss Voigt Hill
#
# Bulk Modulus (GPa) = 7.61149 32.53614 20.07381
# Shear Modulus (GPa) = 14.26846 27.81755 21.04300
#
# Velocity S-wave (km/s) = 2.47623 3.45749 3.00715
# Velocity P-wave (km/s) = 3.38327 5.47001 4.54794
#
# Compressibility (1/GPa) = 0.13138034
#
# Stress axis : x y z
#
# Youngs Moduli (GPa) = 85.38400 31.38476 17.37909
#
# Poissons Ratio (x) = 0.15116 0.05832
# Poissons Ratio (y) = 0.41123 -0.40502
# Poissons Ratio (z) = 0.28653 -0.73142
#
# Static dielectric constant tensor:
#      x y z
#    x 1.946120 0.000000 0.063540 
#    y 0.000000 1.970410 0.000000 
#    z 0.063540 0.000000 1.950940 
# 
# From -- ./inp_files/263238.got.cif
#   From: 2010.05.17/outbox.cif.g08.bks.cpg/sg15_132_cif.got.tgz:263238.got - 2010.06.03 18:47:42.
