data_PCOD9279108
_publ_section_title
;
Structure prediction by ZEFSAII (Michael W. Deem and Ramdas Pophale) SiO2 
 PCOD9279108
Probable space group: C 2/C
;
_chemical_formula_sum "Si O2"
_cell_formula_units_Z 56
_cell_length_a 19.145356
_cell_length_b 18.281288
_cell_length_c 8.749510
_cell_angle_alpha 90.000000
_cell_angle_beta 65.818958
_cell_angle_gamma 90.000000
_cell_volume 2793.640737
_symmetry_space_group_name_H-M "C 2/C"
_symmetry_group_IT_number 15
_symmetry_cell_setting 'monoclinic'
loop_
_space_group_symop_operation_xyz
x,y,z
-x,y,1/2-z
-x,-y,-z
x,-y,1/2+z
1/2+x,1/2+y,z
1/2-x,1/2+y,1/2-z
1/2-x,1/2-y,-z
1/2+x,1/2-y,1/2+z
loop_
_atom_site_type_symbol
_atom_site_label
_atom_site_fract_x
_atom_site_fract_y
_atom_site_fract_z
Si Si1 0.317400 0.601105 0.043456
Si Si2 0.621421 0.475410 0.294157
Si Si3 0.064589 0.231500 0.566194
Si Si4 0.824870 0.775369 0.017692
Si Si5 0.156683 0.680227 0.223753
Si Si6 0.571299 0.597924 0.114269
Si Si7 0.038984 0.676625 0.572044
O O1 0.332089 0.529428 0.134788
O O2 0.233148 0.633721 0.140670
O O3 0.328999 0.576938 0.857528
O O4 0.381780 0.662723 0.024264
O O5 0.579456 0.528872 0.215794
O O6 0.562980 0.428292 0.448231
O O7 0.118325 0.291262 0.603449
O O8 0.018938 0.271884 0.471800
O O9 0.000000 0.209271 0.750000
O O10 0.849999 0.857097 0.959589
O O11 0.897161 0.726847 0.903249
O O12 0.750000 0.750000 0.000000
O O13 0.821039 0.753696 0.199639
O O14 0.092039 0.641560 0.389966
O O15 0.500000 0.640126 0.250000
O O16 0.000000 0.635587 0.750000
#
# Coordination Sequence:
#
# PCOD9279108 Si02
#       7
#     8   8   8   8   8   8   8
#     4  11  22  41  56  83 122 159 201 241 277 351
#     4  10  25  37  55  81 116 165 212 221 278 332
#     4  10  21  37  59  87 121 154 190 243 303 350
#     4  10  21  34  57  87 118 154 192 241 307 347
#     4   9  21  37  60  85 118 156 191 240 307 353
#     4  11  22  38  57  81 122 157 196 240 275 343
#     4   9  21  35  56  93 117 147 186 238 317 352
#
# _framework density 20.045525000000001
#
# number of rings (size 3 to 8) (size 9 to 14) (size 15 to 20)
#    0.857    1.143    0.000    3.000    6.000    2.286 
#    0.000    0.000    0.000    0.000    0.000   13.000 
#    0.000    0.000    0.000    0.000    0.000    0.000 
#
# Total GULP energy -156028.235505 kJ/mol
# GULP energy per Si atom -5572.436982 kJ/mol
# Density = 1.999990 g / cm^3
# Si number density = 20.045525 Si / 1000 Ang^3
#
#
#
# Elastic Constant Matrix: (Units=GPa)
#
#
# Indices 1 2 3 4 5 6 
#
# 1 123.8775 27.7374 47.6762 0.0000 -9.2392 0.0000
# 2 27.7374 37.1669 36.3156 0.0000 -15.1930 0.0000
# 3 47.6762 36.3156 134.5522 0.0000 -12.6195 0.0000
# 4 0.0000 0.0000 0.0000 25.3362 0.0000 -0.7638
# 5 -9.2392 -15.1930 -12.6195 0.0000 24.9705 0.0000
# 6 0.0000 0.0000 0.0000 -0.7638 0.0000 14.8994
#
#
#
# Elastic Compliance Matrix: (Units=1/GPa)
#
#
# Indices 1 2 3 4 5 6 
#
# 1 0.010125 -0.005884 -0.002083 0.000000 -0.000886 0.000000
# 2 -0.005884 0.049877 -0.009170 0.000000 0.023536 0.000000
# 3 -0.002083 -0.009170 0.010549 0.000000 -0.001018 0.000000
# 4 0.000000 0.000000 0.000000 0.039530 0.000000 0.002027
# 5 -0.000886 0.023536 -0.001018 0.000000 0.053525 0.000000
# 6 0.000000 0.000000 0.000000 0.002027 0.000000 0.067220
#
#
# Mechanical properties :
#
#
# Convention : Reuss Voigt Hill
#
# Bulk Modulus (GPa) = 27.56345 57.67279 42.61812
# Shear Modulus (GPa) = 18.03792 25.29903 21.66847
#
# Velocity S-wave (km/s) = 3.00300 3.55643 3.29137
# Velocity P-wave (km/s) = 5.07979 6.76000 5.97921
#
# Compressibility (1/GPa) = 0.03627992
#
# Stress axis : x y z
#
# Youngs Moduli (GPa) = 98.76121 20.04921 94.79128
#
# Poissons Ratio (x) = 0.11796 0.19744
# Poissons Ratio (y) = 0.58106 0.86921
# Poissons Ratio (z) = 0.20571 0.18385
#
# Static dielectric constant tensor:
#      x y z
#    x 1.705320 0.000000 0.000000 
#    y 0.000000 1.724330 0.000000 
#    z 0.000000 0.000000 1.803320 
# 
# From -- ./inp_files/56507.got.cif
#   From: 2010.05.17/outbox.cif.g08.bks.cpg/sg15_29_cif.got.tgz:56507.got - 2010.06.03 18:47:42.
