data_PCOD9279329
_publ_section_title
;
Structure prediction by ZEFSAII (Michael W. Deem and Ramdas Pophale) SiO2 
 PCOD9279329
Probable space group: C 2/C
;
_chemical_formula_sum "Si O2"
_cell_formula_units_Z 52
_cell_length_a 25.097531
_cell_length_b 6.529026
_cell_length_c 22.678146
_cell_angle_alpha 90.000000
_cell_angle_beta 136.412620
_cell_angle_gamma 90.000000
_cell_volume 2562.099739
_symmetry_space_group_name_H-M "C 2/C"
_symmetry_group_IT_number 15
_symmetry_cell_setting 'monoclinic'
loop_
_space_group_symop_operation_xyz
x,y,z
-x,y,1/2-z
-x,-y,-z
x,-y,1/2+z
1/2+x,1/2+y,z
1/2-x,1/2+y,1/2-z
1/2-x,1/2-y,-z
1/2+x,1/2-y,1/2+z
loop_
_atom_site_type_symbol
_atom_site_label
_atom_site_fract_x
_atom_site_fract_y
_atom_site_fract_z
Si Si1 0.939844 0.277809 0.632262
Si Si2 0.165283 0.527961 0.145790
Si Si3 0.500000 0.400779 0.750000
Si Si4 0.093586 0.476248 0.281053
Si Si5 0.097956 0.929783 0.133052
Si Si6 0.803900 0.254561 0.224058
Si Si7 0.420120 0.303027 0.989011
O O1 0.965833 0.053905 0.674278
O O2 0.895600 0.387541 0.651225
O O3 0.895381 0.248748 0.535597
O O4 0.019664 0.412391 0.690111
O O5 0.133402 0.706396 0.161284
O O6 0.208561 0.371933 0.223929
O O7 0.226504 0.626766 0.149802
O O8 0.095435 0.406913 0.059024
O O9 0.435875 0.246652 0.722534
O O10 0.165831 0.421042 0.298107
O O11 0.006845 0.888779 0.064436
O O12 0.129772 0.086763 0.207083
O O13 0.117711 0.028866 0.084591
#
# Coordination Sequence:
#
# PCOD9279329 Si02
#       7
#     8   8   4   8   8   8   8
#     4   9  18  35  52  84 111 144 187 237 278 332
#     4  11  22  37  56  81 115 150 186 234 285 334
#     4   8  16  32  54  82 106 146 184 230 276 326
#     4   9  19  32  57  81 110 146 188 231 280 332
#     4  10  21  36  57  84 112 152 186 235 286 334
#     4  11  21  37  56  83 112 151 192 230 280 343
#     4  10  21  35  57  86 115 143 190 234 289 330
#
# _framework density 20.295853000000001
#
# number of rings (size 3 to 8) (size 9 to 14) (size 15 to 20)
#    0.000    2.462    1.538    2.308    0.000    6.154 
#    0.000    0.769    0.000    1.846    0.000    0.000 
#    0.000    0.000    0.000    0.000    0.000    0.000 
#
# Total GULP energy -144784.143545 kJ/mol
# GULP energy per Si atom -5568.620906 kJ/mol
# Density = 2.024966 g / cm^3
# Si number density = 20.295853 Si / 1000 Ang^3
#
#
#
# Elastic Constant Matrix: (Units=GPa)
#
#
# Indices 1 2 3 4 5 6 
#
# 1 53.1034 6.0850 4.1627 -0.0004 -14.6019 0.0004
# 2 6.0850 99.4194 20.3447 0.0003 -8.2814 -0.0007
# 3 4.1627 20.3447 36.7937 -0.0001 -19.8152 -0.0002
# 4 -0.0004 0.0003 -0.0001 11.3326 0.0001 3.5142
# 5 -14.6019 -8.2814 -19.8152 0.0001 27.7366 -0.0002
# 6 0.0004 -0.0007 -0.0002 3.5142 -0.0002 23.0039
#
#
#
# Elastic Compliance Matrix: (Units=1/GPa)
#
#
# Indices 1 2 3 4 5 6 
#
# 1 0.023091 -0.001505 0.007354 0.000001 0.016960 0.000000
# 2 -0.001505 0.011494 -0.007743 0.000000 -0.002892 0.000000
# 3 0.007354 -0.007743 0.051146 0.000000 0.038099 0.000000
# 4 0.000001 0.000000 0.000000 0.092629 0.000000 -0.014151
# 5 0.016960 -0.002892 0.038099 0.000000 0.071337 0.000000
# 6 0.000000 0.000000 0.000000 -0.014151 0.000000 0.045633
#
#
# Mechanical properties :
#
#
# Convention : Reuss Voigt Hill
#
# Bulk Modulus (GPa) = 12.20371 27.83349 20.01860
# Shear Modulus (GPa) = 15.31715 22.99624 19.15670
#
# Velocity S-wave (km/s) = 2.75015 3.36973 3.07558
# Velocity P-wave (km/s) = 4.01377 5.37436 4.74311
#
# Compressibility (1/GPa) = 0.08194231
#
# Stress axis : x y z
#
# Youngs Moduli (GPa) = 43.30721 87.00136 19.55194
#
# Poissons Ratio (x) = 0.13097 -0.14379
# Poissons Ratio (y) = 0.06519 0.15139
# Poissons Ratio (z) = -0.31848 0.67364
#
# Static dielectric constant tensor:
#      x y z
#    x 1.799470 0.000000 -0.007420 
#    y 0.000000 1.713480 0.000000 
#    z -0.007420 0.000000 1.726430 
# 
# From -- ./inp_files/256803.got.cif
#   From: 2010.05.17/outbox.cif.g08.bks.cpg/sg15_129_cif.got.tgz:256803.got - 2010.06.03 18:47:42.
