data_PCOD9279941
_publ_section_title
;
Structure prediction by ZEFSAII (Michael W. Deem and Ramdas Pophale) SiO2 
 PCOD9279941
Probable space group: C 2/C
;
_chemical_formula_sum "Si O2"
_cell_formula_units_Z 64
_cell_length_a 13.891737
_cell_length_b 14.273998
_cell_length_c 17.839411
_cell_angle_alpha 90.000000
_cell_angle_beta 125.194595
_cell_angle_gamma 90.000000
_cell_volume 2890.750882
_symmetry_space_group_name_H-M "C 2/C"
_symmetry_group_IT_number 15
_symmetry_cell_setting 'monoclinic'
loop_
_space_group_symop_operation_xyz
x,y,z
-x,y,1/2-z
-x,-y,-z
x,-y,1/2+z
1/2+x,1/2+y,z
1/2-x,1/2+y,1/2-z
1/2-x,1/2-y,-z
1/2+x,1/2-y,1/2+z
loop_
_atom_site_type_symbol
_atom_site_label
_atom_site_fract_x
_atom_site_fract_y
_atom_site_fract_z
Si Si1 0.183882 0.786116 0.128284
Si Si2 0.264333 0.460353 0.430347
Si Si3 0.684343 0.087586 0.054456
Si Si4 0.914392 0.550426 0.886866
Si Si5 0.715140 0.764844 0.168503
Si Si6 0.953112 0.599460 0.148767
Si Si7 0.589981 0.697799 0.860389
Si Si8 0.568603 0.381441 0.509972
O O1 0.265098 0.872950 0.136967
O O2 0.209679 0.688733 0.099179
O O3 0.195961 0.758672 0.221170
O O4 0.057989 0.828930 0.046972
O O5 0.260214 0.422818 0.513523
O O6 0.163413 0.539269 0.389568
O O7 0.382429 0.512601 0.456267
O O8 0.690672 0.997306 0.111592
O O9 0.542143 0.078874 0.978391
O O10 0.867047 0.650436 0.841683
O O11 0.953116 0.467834 0.848328
O O12 0.787344 0.792751 0.127311
O O13 0.641944 0.675865 0.106626
O O14 0.930301 0.701690 0.105647
O O15 0.000000 0.626535 0.250000
O O16 0.500000 0.676114 0.750000
O O17 0.596826 0.627911 0.932979
#
# Coordination Sequence:
#
# PCOD9279941 Si02
#       8
#     8   8   8   8   8   8   8   8
#     4  12  25  43  65  93 130 176 226 260 321 404
#     4  11  24  41  65  90 132 182 207 270 332 387
#     4  10  22  41  66  92 126 167 223 270 322 385
#     4  10  21  37  65  97 123 163 213 272 329 377
#     4  12  24  39  68  99 132 168 209 276 332 390
#     4  10  21  36  61  96 129 159 217 269 320 383
#     4  11  22  39  66  98 130 166 213 273 330 384
#     4  12  24  43  65  97 134 171 217 268 334 389
#
# _framework density 22.139576000000002
#
# number of rings (size 3 to 8) (size 9 to 14) (size 15 to 20)
#    0.000    1.000    3.750    3.375    5.250    1.000 
#    0.000    0.000    0.000    0.000    0.000    0.000 
#    0.000    0.000    0.000    0.000    0.000    0.000 
#
# Total GULP energy -178208.738220 kJ/mol
# GULP energy per Si atom -5569.023069 kJ/mol
# Density = 2.208919 g / cm^3
# Si number density = 22.139576 Si / 1000 Ang^3
#
#
#
# Elastic Constant Matrix: (Units=GPa)
#
#
# Indices 1 2 3 4 5 6 
#
# 1 40.9079 -0.8870 -6.6909 0.0000 -0.4753 0.0000
# 2 -0.8870 116.4948 35.9593 0.0000 -6.5632 0.0000
# 3 -6.6909 35.9593 53.0982 0.0000 -4.1619 0.0000
# 4 0.0000 0.0000 0.0000 2.2051 0.0000 -0.9419
# 5 -0.4753 -6.5632 -4.1619 0.0000 23.8826 0.0000
# 6 0.0000 0.0000 0.0000 -0.9419 0.0000 19.6413
#
#
#
# Elastic Compliance Matrix: (Units=1/GPa)
#
#
# Indices 1 2 3 4 5 6 
#
# 1 0.025069 -0.000954 0.003877 0.000000 0.000912 0.000000
# 2 -0.000954 0.010960 -0.007409 0.000000 0.001702 0.000000
# 3 0.003877 -0.007409 0.024521 0.000000 0.002314 0.000000
# 4 0.000000 0.000000 0.000000 0.462972 0.000000 0.022201
# 5 0.000912 0.001702 0.002314 0.000000 0.042760 0.000000
# 6 0.000000 0.000000 0.000000 0.022201 0.000000 0.051978
#
#
# Mechanical properties :
#
#
# Convention : Reuss Voigt Hill
#
# Bulk Modulus (GPa) = 19.38882 29.69596 24.54239
# Shear Modulus (GPa) = 7.75886 21.28711 14.52298
#
# Velocity S-wave (km/s) = 1.87407 3.10416 2.56398
# Velocity P-wave (km/s) = 3.66870 5.12737 4.45810
#
# Compressibility (1/GPa) = 0.05157612
#
# Stress axis : x y z
#
# Youngs Moduli (GPa) = 39.88967 91.24349 40.78215
#
# Poissons Ratio (x) = 0.08709 -0.15811
# Poissons Ratio (y) = 0.03807 0.30216
# Poissons Ratio (z) = -0.15465 0.67603
#
# Static dielectric constant tensor:
#      x y z
#    x 1.868220 0.000000 0.012290 
#    y 0.000000 1.870520 0.000000 
#    z 0.012290 0.000000 1.880800 
# 
# From -- ./inp_files/205470.got.cif
#   From: 2010.05.17/outbox.cif.g08.bks.cpg/sg15_103_cif.got.tgz:205470.got - 2010.06.03 18:47:42.
