data_PCOD9279857
_publ_section_title
;
Structure prediction by ZEFSAII (Michael W. Deem and Ramdas Pophale) SiO2 
 PCOD9279857
Probable space group: C 2/C
;
_chemical_formula_sum "Si O2"
_cell_formula_units_Z 40
_cell_length_a 5.629107
_cell_length_b 25.715330
_cell_length_c 11.617675
_cell_angle_alpha 90.000000
_cell_angle_beta 74.660241
_cell_angle_gamma 90.000000
_cell_volume 1621.796494
_symmetry_space_group_name_H-M "C 2/C"
_symmetry_group_IT_number 15
_symmetry_cell_setting 'monoclinic'
loop_
_space_group_symop_operation_xyz
x,y,z
-x,y,1/2-z
-x,-y,-z
x,-y,1/2+z
1/2+x,1/2+y,z
1/2-x,1/2+y,1/2-z
1/2-x,1/2-y,-z
1/2+x,1/2-y,1/2+z
loop_
_atom_site_type_symbol
_atom_site_label
_atom_site_fract_x
_atom_site_fract_y
_atom_site_fract_z
Si Si1 0.498779 0.733005 0.891848
Si Si2 0.178714 0.939903 0.568408
Si Si3 0.144741 0.539357 0.846195
Si Si4 0.369218 0.622242 0.937086
Si Si5 0.394344 0.159180 0.134617
O O1 0.500000 0.731678 0.750000
O O2 0.547307 0.672402 0.913722
O O3 0.682986 0.781900 0.888393
O O4 0.250000 0.750000 0.000000
O O5 0.427066 0.950154 0.464803
O O6 0.209062 0.888016 0.640273
O O7 0.969803 0.924291 0.504586
O O8 0.175918 0.992589 0.640814
O O9 0.282750 0.594607 0.830881
O O10 0.000000 0.525726 0.750000
O O11 0.123913 0.644728 0.025449
O O12 0.500000 0.159036 0.250000
#
# Coordination Sequence:
#
# PCOD9279857 Si02
#       5
#     8   8   8   8   8
#     4   9  19  36  61  90 128 166 210 263 315 382
#     4  10  21  37  58  86 118 157 206 253 311 379
#     4  10  22  38  56  84 120 159 198 257 317 370
#     4  10  21  36  60  88 118 157 211 252 310 380
#     4   9  19  38  58  83 124 159 201 256 310 366
#
# _framework density 24.664006000000001
#
# number of rings (size 3 to 8) (size 9 to 14) (size 15 to 20)
#    0.000    2.400    0.000    1.200    2.800    1.600 
#    0.000    2.000    0.000    0.000    0.000    0.000 
#    0.000    0.000    0.000    0.000    0.000    0.000 
#
# Total GULP energy -111407.896211 kJ/mol
# GULP energy per Si atom -5570.394811 kJ/mol
# Density = 2.460787 g / cm^3
# Si number density = 24.664006 Si / 1000 Ang^3
#
#
#
# Elastic Constant Matrix: (Units=GPa)
#
#
# Indices 1 2 3 4 5 6 
#
# 1 34.3861 33.9379 1.7831 0.0000 -0.5797 0.0000
# 2 33.9379 214.4596 33.5430 0.0000 34.0782 0.0000
# 3 1.7831 33.5430 74.8493 0.0000 -19.9229 0.0000
# 4 0.0000 0.0000 0.0000 16.8836 0.0000 16.2138
# 5 -0.5797 34.0782 -19.9229 0.0000 53.8629 0.0000
# 6 0.0000 0.0000 0.0000 16.2138 0.0000 27.6376
#
#
#
# Elastic Compliance Matrix: (Units=1/GPa)
#
#
# Indices 1 2 3 4 5 6 
#
# 1 0.036366 -0.007490 0.004277 0.000000 0.006712 0.000000
# 2 -0.007490 0.007741 -0.005120 0.000000 -0.006872 0.000000
# 3 0.004277 -0.005120 0.018221 0.000000 0.010025 0.000000
# 4 0.000000 0.000000 0.000000 0.135654 0.000000 -0.079582
# 5 0.006712 -0.006872 0.010025 0.000000 0.026694 0.000000
# 6 0.000000 0.000000 0.000000 -0.079582 0.000000 0.082870
#
#
# Mechanical properties :
#
#
# Convention : Reuss Voigt Hill
#
# Bulk Modulus (GPa) = 21.90026 51.35812 36.62919
# Shear Modulus (GPa) = 14.73049 36.63890 25.68470
#
# Velocity S-wave (km/s) = 2.44651 3.85843 3.23055
# Velocity P-wave (km/s) = 4.10844 6.38109 5.36645
#
# Compressibility (1/GPa) = 0.04566156
#
# Stress axis : x y z
#
# Youngs Moduli (GPa) = 27.49848 129.18321 54.88183
#
# Poissons Ratio (x) = 0.96764 -0.23474
# Poissons Ratio (y) = 0.20597 0.28098
# Poissons Ratio (z) = -0.11761 0.66138
#
# Static dielectric constant tensor:
#      x y z
#    x 1.969020 0.000000 0.064990 
#    y 0.000000 2.005800 0.000000 
#    z 0.064990 0.000000 2.017350 
# 
# From -- ./inp_files/73066.got.cif
#   From: 2010.05.17/outbox.cif.g08.bks.cpg/sg15_37_cif.got.tgz:73066.got - 2010.06.03 18:47:42.
