data_PCOD9279110
_publ_section_title
;
Structure prediction by ZEFSAII (Michael W. Deem and Ramdas Pophale) SiO2 
 PCOD9279110
Probable space group: C 2/C
;
_chemical_formula_sum "Si O2"
_cell_formula_units_Z 64
_cell_length_a 12.285956
_cell_length_b 20.589789
_cell_length_c 25.680329
_cell_angle_alpha 90.000000
_cell_angle_beta 148.902824
_cell_angle_gamma 90.000000
_cell_volume 3355.245464
_symmetry_space_group_name_H-M "C 2/C"
_symmetry_group_IT_number 15
_symmetry_cell_setting 'monoclinic'
loop_
_space_group_symop_operation_xyz
x,y,z
-x,y,1/2-z
-x,-y,-z
x,-y,1/2+z
1/2+x,1/2+y,z
1/2-x,1/2+y,1/2-z
1/2-x,1/2-y,-z
1/2+x,1/2-y,1/2+z
loop_
_atom_site_type_symbol
_atom_site_label
_atom_site_fract_x
_atom_site_fract_y
_atom_site_fract_z
Si Si1 0.454366 0.964597 0.084216
Si Si2 0.775840 0.194710 0.554791
Si Si3 0.495050 0.669691 0.311089
Si Si4 0.879002 0.973943 0.753732
Si Si5 0.238042 0.222791 0.762282
Si Si6 0.023615 0.331544 0.470774
Si Si7 0.930893 0.942775 0.081390
Si Si8 0.148576 0.397303 0.263514
O O1 0.471647 0.906488 0.048682
O O2 0.519279 0.937138 0.167194
O O3 0.631789 0.017805 0.143289
O O4 0.232873 0.000678 0.997588
O O5 0.750000 0.250000 0.500000
O O6 0.588611 0.181679 0.519561
O O7 0.817658 0.125773 0.543668
O O8 0.990145 0.216487 0.672667
O O9 0.500000 0.675450 0.250000
O O10 0.441261 0.595134 0.303044
O O11 0.319084 0.712824 0.266979
O O12 0.730705 0.687854 0.426135
O O13 0.000000 0.977115 0.750000
O O14 0.959771 0.034658 0.820038
O O15 0.385673 0.207306 0.871941
O O16 0.277633 0.166686 0.736028
O O17 0.137693 0.933537 0.130630
O O18 0.000000 0.381299 0.250000
#
# Coordination Sequence:
#
# PCOD9279110 Si02
#       8
#     8   8   8   8   8   8   8   8
#     4  10  21  36  61  88 121 154 198 252 310 370
#     4  11  24  38  62  90 125 159 202 253 317 370
#     4  11  22  36  59  90 121 157 203 260 306 363
#     4  10  21  34  57  90 121 156 193 251 316 361
#     4  10  22  40  59  84 120 161 206 257 299 374
#     4  11  22  40  64  90 118 165 204 250 317 374
#     4  10  21  38  58  87 121 153 200 252 305 378
#     4   9  20  38  59  82 114 161 205 246 301 367
#
# _framework density 19.074611000000001
#
# number of rings (size 3 to 8) (size 9 to 14) (size 15 to 20)
#    0.000    1.750    1.250    3.375    5.250    2.500 
#    0.000    0.000    5.500    0.000    0.000    0.000 
#    0.000    0.000    0.000    0.000    0.000    0.000 
#
# Total GULP energy -178449.217735 kJ/mol
# GULP energy per Si atom -5576.538054 kJ/mol
# Density = 1.903120 g / cm^3
# Si number density = 19.074611 Si / 1000 Ang^3
#
#
#
# Elastic Constant Matrix: (Units=GPa)
#
#
# Indices 1 2 3 4 5 6 
#
# 1 52.6814 6.3898 -4.1196 -0.0001 6.5559 0.0002
# 2 6.3898 71.7942 3.7504 0.0012 -7.6300 0.0005
# 3 -4.1196 3.7504 61.8543 0.0012 2.9368 -0.0002
# 4 -0.0001 0.0012 0.0012 29.8858 0.0005 12.8700
# 5 6.5559 -7.6300 2.9368 0.0005 22.0622 -0.0001
# 6 0.0002 0.0005 -0.0002 12.8700 -0.0001 32.4703
#
#
#
# Elastic Compliance Matrix: (Units=1/GPa)
#
#
# Indices 1 2 3 4 5 6 
#
# 1 0.020351 -0.002676 0.001860 0.000000 -0.007220 0.000000
# 2 -0.002676 0.014890 -0.001372 -0.000001 0.006127 0.000000
# 3 0.001860 -0.001372 0.016527 -0.000001 -0.003227 0.000000
# 4 0.000000 -0.000001 -0.000001 0.040348 -0.000001 -0.015992
# 5 -0.007220 0.006127 -0.003227 -0.000001 0.050021 0.000001
# 6 0.000000 0.000000 0.000000 -0.015992 0.000001 0.037136
#
#
# Mechanical properties :
#
#
# Convention : Reuss Voigt Hill
#
# Bulk Modulus (GPa) = 21.10009 22.04122 21.57066
# Shear Modulus (GPa) = 25.06969 28.90429 26.98699
#
# Velocity S-wave (km/s) = 3.62926 3.89694 3.76548
# Velocity P-wave (km/s) = 5.35237 5.64168 5.49893
#
# Compressibility (1/GPa) = 0.04739316
#
# Stress axis : x y z
#
# Youngs Moduli (GPa) = 49.13859 67.16059 60.50574
#
# Poissons Ratio (x) = 0.17971 -0.11257
# Poissons Ratio (y) = 0.13148 0.08301
# Poissons Ratio (z) = -0.09142 0.09214
#
# Static dielectric constant tensor:
#      x y z
#    x 1.629340 0.000000 0.009810 
#    y 0.000000 1.683720 0.000000 
#    z 0.009810 0.000000 1.703480 
# 
# From -- ./inp_files/293781.got.cif
#   From: 2010.05.17/outbox.cif.g08.bks.cpg/sg15_147_cif.got.tgz:293781.got - 2010.06.03 18:47:42.
