data_PCOD9279448
_publ_section_title
;
Structure prediction by ZEFSAII (Michael W. Deem and Ramdas Pophale) SiO2 
 PCOD9279448
Probable space group: C 2/C
;
_chemical_formula_sum "Si O2"
_cell_formula_units_Z 48
_cell_length_a 5.689311
_cell_length_b 25.560516
_cell_length_c 20.021352
_cell_angle_alpha 90.000000
_cell_angle_beta 126.655170
_cell_angle_gamma 90.000000
_cell_volume 2335.762214
_symmetry_space_group_name_H-M "C 2/C"
_symmetry_group_IT_number 15
_symmetry_cell_setting 'monoclinic'
loop_
_space_group_symop_operation_xyz
x,y,z
-x,y,1/2-z
-x,-y,-z
x,-y,1/2+z
1/2+x,1/2+y,z
1/2-x,1/2+y,1/2-z
1/2-x,1/2-y,-z
1/2+x,1/2-y,1/2+z
loop_
_atom_site_type_symbol
_atom_site_label
_atom_site_fract_x
_atom_site_fract_y
_atom_site_fract_z
Si Si1 0.821519 0.856979 0.543945
Si Si2 0.713094 0.971254 0.481968
Si Si3 0.822713 0.320112 0.128856
Si Si4 0.732038 0.797377 0.049009
Si Si5 0.829096 0.228549 0.331191
Si Si6 0.151913 0.575372 0.703981
O O1 0.831534 0.918472 0.537469
O O2 0.812772 0.831280 0.468272
O O3 0.506271 0.838126 0.517242
O O4 0.062094 0.828510 0.629501
O O5 0.517251 0.953570 0.385203
O O6 0.500000 0.000000 0.500000
O O7 0.000000 0.000000 0.500000
O O8 0.523976 0.328425 0.118553
O O9 0.927097 0.261992 0.166957
O O10 0.068165 0.363158 0.182028
O O11 0.649612 0.766187 0.101080
O O12 0.750000 0.750000 0.000000
O O13 0.500000 0.228281 0.250000
O O14 0.500000 0.567668 0.750000
O O15 0.000000 0.560119 0.750000
#
# Coordination Sequence:
#
# PCOD9279448 Si02
#       6
#     8   8   8   8   8   8
#     4  10  22  39  61  88 126 167 223 274 326 399
#     4  11  26  47  75  98 125 179 238 285 346 416
#     4  10  21  35  60  90 130 175 209 254 323 410
#     4  11  19  36  62  86 127 176 217 253 314 407
#     4  11  22  35  52  92 132 168 210 257 319 395
#     4  11  25  42  68 105 139 168 216 293 353 392
#
# _framework density 20.550035999999999
#
# number of rings (size 3 to 8) (size 9 to 14) (size 15 to 20)
#    0.000    1.333    3.333    2.500   14.000    0.000 
#    0.000    2.500    0.000    2.000    0.000    0.000 
#    0.000    0.000    0.000    0.000    0.000    0.000 
#
# Total GULP energy -133670.453745 kJ/mol
# GULP energy per Si atom -5569.602239 kJ/mol
# Density = 2.050326 g / cm^3
# Si number density = 20.550036 Si / 1000 Ang^3
#
#
#
# Elastic Constant Matrix: (Units=GPa)
#
#
# Indices 1 2 3 4 5 6 
#
# 1 92.9382 43.7909 18.3743 0.0000 18.3824 0.0000
# 2 43.7909 134.8244 34.5627 0.0000 18.1266 0.0000
# 3 18.3743 34.5627 63.2285 0.0000 13.3707 0.0000
# 4 0.0000 0.0000 0.0000 22.9579 0.0000 3.6648
# 5 18.3824 18.1266 13.3707 0.0000 44.6196 0.0000
# 6 0.0000 0.0000 0.0000 3.6648 0.0000 31.9635
#
#
#
# Elastic Compliance Matrix: (Units=1/GPa)
#
#
# Indices 1 2 3 4 5 6 
#
# 1 0.013402 -0.003553 -0.001164 0.000000 -0.003729 0.000000
# 2 -0.003553 0.009781 -0.004039 0.000000 -0.001299 0.000000
# 3 -0.001164 -0.004039 0.019125 0.000000 -0.003611 0.000000
# 4 0.000000 0.000000 0.000000 0.044370 0.000000 -0.005087
# 5 -0.003729 -0.001299 -0.003611 0.000000 0.025558 0.000000
# 6 0.000000 0.000000 0.000000 -0.005087 0.000000 0.031869
#
#
# Mechanical properties :
#
#
# Convention : Reuss Voigt Hill
#
# Bulk Modulus (GPa) = 40.32942 53.82743 47.07842
# Shear Modulus (GPa) = 29.43196 32.85908 31.14552
#
# Velocity S-wave (km/s) = 3.78856 4.00306 3.89729
# Velocity P-wave (km/s) = 6.22938 6.90045 6.57348
#
# Compressibility (1/GPa) = 0.02479580
#
# Stress axis : x y z
#
# Youngs Moduli (GPa) = 74.61754 102.23540 52.28636
#
# Poissons Ratio (x) = 0.36326 0.06085
# Poissons Ratio (y) = 0.26513 0.21121
# Poissons Ratio (z) = 0.08683 0.41298
#
# Static dielectric constant tensor:
#      x y z
#    x 1.761890 0.000000 0.049340 
#    y 0.000000 1.399030 0.000000 
#    z 0.049340 0.000000 1.721140 
# 
# From -- ./inp_files/228251.got.cif
#   From: 2010.05.17/outbox.cif.g08.bks.cpg/sg15_115_cif.got.tgz:228251.got - 2010.06.03 18:47:42.
