data_PCOD9279081
_publ_section_title
;
Structure prediction by ZEFSAII (Michael W. Deem and Ramdas Pophale) SiO2 
 PCOD9279081
Probable space group: C 2/C
;
_chemical_formula_sum "Si O2"
_cell_formula_units_Z 56
_cell_length_a 8.718464
_cell_length_b 14.598843
_cell_length_c 23.748336
_cell_angle_alpha 90.000000
_cell_angle_beta 73.263887
_cell_angle_gamma 90.000000
_cell_volume 2894.639049
_symmetry_space_group_name_H-M "C 2/C"
_symmetry_group_IT_number 15
_symmetry_cell_setting 'monoclinic'
loop_
_space_group_symop_operation_xyz
x,y,z
-x,y,1/2-z
-x,-y,-z
x,-y,1/2+z
1/2+x,1/2+y,z
1/2-x,1/2+y,1/2-z
1/2-x,1/2-y,-z
1/2+x,1/2-y,1/2+z
loop_
_atom_site_type_symbol
_atom_site_label
_atom_site_fract_x
_atom_site_fract_y
_atom_site_fract_z
Si Si1 0.427953 0.782890 0.596987
Si Si2 0.947249 0.396480 0.020879
Si Si3 0.521496 0.090693 0.187795
Si Si4 0.623385 0.605967 0.618964
Si Si5 0.303833 0.531280 0.660453
Si Si6 0.615301 0.175398 0.616084
Si Si7 0.830651 0.397269 0.209061
O O1 0.514255 0.829128 0.534671
O O2 0.449179 0.853888 0.645016
O O3 0.521887 0.693893 0.609985
O O4 0.242156 0.758226 0.603984
O O5 0.034037 0.349891 0.065591
O O6 0.763409 0.405396 0.059106
O O7 0.000000 0.500000 0.000000
O O8 0.500000 0.138815 0.250000
O O9 0.708238 0.063473 0.167485
O O10 0.426539 0.993978 0.197144
O O11 0.493168 0.525210 0.635910
O O12 0.704585 0.613326 0.671845
O O13 0.228792 0.589031 0.617765
O O14 0.256977 0.591520 0.721430
O O15 0.473016 0.174821 0.678449
#
# Coordination Sequence:
#
# PCOD9279081 Si02
#       7
#     8   8   8   8   8   8   8
#     4  11  21  36  55  81 114 141 180 235 277 325
#     4  11  22  40  59  75 105 149 191 229 277 333
#     4   9  19  36  58  82 113 150 183 219 271 332
#     4  10  21  34  56  85 108 140 185 232 283 329
#     4   9  17  34  57  82 112 144 185 228 271 332
#     4   9  19  33  55  82 107 142 183 222 278 331
#     4   9  17  35  58  81 111 148 183 221 275 338
#
# _framework density 19.346107
#
# number of rings (size 3 to 8) (size 9 to 14) (size 15 to 20)
#    0.000    2.286    0.000    5.143    0.000    2.286 
#    0.000   13.571    0.000   10.286    0.000    0.000 
#    0.000    0.000    0.000    0.000    0.000    0.000 
#
# Total GULP energy -155921.874787 kJ/mol
# GULP energy per Si atom -5568.638385 kJ/mol
# Density = 1.930207 g / cm^3
# Si number density = 19.346107 Si / 1000 Ang^3
#
#
#
# Elastic Constant Matrix: (Units=GPa)
#
#
# Indices 1 2 3 4 5 6 
#
# 1 132.9459 25.9800 46.2879 0.0000 -15.4238 0.0000
# 2 25.9800 38.5678 30.7591 0.0000 -5.0461 0.0000
# 3 46.2879 30.7591 105.5977 0.0000 2.3730 0.0000
# 4 0.0000 0.0000 0.0000 18.9195 0.0000 17.3931
# 5 -15.4238 -5.0461 2.3730 0.0000 31.7492 0.0000
# 6 0.0000 0.0000 0.0000 17.3931 0.0000 17.0153
#
#
#
# Elastic Compliance Matrix: (Units=1/GPa)
#
#
# Indices 1 2 3 4 5 6 
#
# 1 0.009907 -0.003300 -0.003484 0.000000 0.004549 0.000000
# 2 -0.003300 0.036102 -0.009178 0.000000 0.004820 0.000000
# 3 -0.003484 -0.009178 0.013764 0.000000 -0.004180 0.000000
# 4 0.000000 0.000000 0.000000 0.877119 0.000000 -0.896598
# 5 0.004549 0.004820 -0.004180 0.000000 0.034785 0.000000
# 6 0.000000 0.000000 0.000000 -0.896598 0.000000 0.975280
#
#
# Mechanical properties :
#
#
# Convention : Reuss Voigt Hill
#
# Bulk Modulus (GPa) = 35.90654 53.68504 44.79579
# Shear Modulus (GPa) = 2.51488 25.14243 13.82866
#
# Velocity S-wave (km/s) = 1.14139 3.60892 2.67648
# Velocity P-wave (km/s) = 4.50970 6.72130 5.72334
#
# Compressibility (1/GPa) = 0.02785008
#
# Stress axis : x y z
#
# Youngs Moduli (GPa) = 100.93387 27.69961 72.65235
#
# Poissons Ratio (x) = 0.09142 0.25310
# Poissons Ratio (y) = 0.33311 0.66677
# Poissons Ratio (z) = 0.35163 0.25421
#
# Static dielectric constant tensor:
#      x y z
#    x 1.705200 0.000000 -0.029550 
#    y 0.000000 1.702790 0.000000 
#    z -0.029550 0.000000 1.705260 
# 
# From -- ./inp_files/264209.got.cif
#   From: 2010.05.17/outbox.cif.g08.bks.cpg/sg15_133_cif.got.tgz:264209.got - 2010.06.03 18:47:42.
