data_PCOD9279440
_publ_section_title
;
Structure prediction by ZEFSAII (Michael W. Deem and Ramdas Pophale) SiO2 
 PCOD9279440
Probable space group: C 2/C
;
_chemical_formula_sum "Si O2"
_cell_formula_units_Z 52
_cell_length_a 16.916724
_cell_length_b 19.053371
_cell_length_c 13.717704
_cell_angle_alpha 90.000000
_cell_angle_beta 37.245982
_cell_angle_gamma 90.000000
_cell_volume 2676.059843
_symmetry_space_group_name_H-M "C 2/C"
_symmetry_group_IT_number 15
_symmetry_cell_setting 'monoclinic'
loop_
_space_group_symop_operation_xyz
x,y,z
-x,y,1/2-z
-x,-y,-z
x,-y,1/2+z
1/2+x,1/2+y,z
1/2-x,1/2+y,1/2-z
1/2-x,1/2-y,-z
1/2+x,1/2-y,1/2+z
loop_
_atom_site_type_symbol
_atom_site_label
_atom_site_fract_x
_atom_site_fract_y
_atom_site_fract_z
Si Si1 0.000000 0.411745 0.750000
Si Si2 0.682442 0.499270 0.741899
Si Si3 0.083900 0.565810 0.875119
Si Si4 0.087558 0.937374 0.032862
Si Si5 0.802235 0.216574 0.051529
Si Si6 0.536635 0.812718 0.894979
Si Si7 0.208430 0.525686 0.554321
O O1 0.959813 0.366276 0.698798
O O2 0.122438 0.459342 0.606222
O O3 0.782539 0.553041 0.695799
O O4 0.627189 0.449329 0.881108
O O5 0.745044 0.449258 0.597105
O O6 0.565775 0.546243 0.811385
O O7 0.120323 0.561420 0.724676
O O8 0.009012 0.637658 0.972218
O O9 0.000000 0.500000 0.000000
O O10 0.141793 0.862532 0.015284
O O11 0.164990 0.997889 0.013752
O O12 0.681652 0.218636 0.246638
O O13 0.750000 0.250000 0.000000
O O14 0.923512 0.259059 0.976773
#
# Coordination Sequence:
#
# PCOD9279440 Si02
#       7
#     4   8   8   8   8   8   8
#     4  12  18  34  56  84 112 146 198 236 288 364
#     4  10  21  35  60  88 118 155 199 255 305 363
#     4  11  21  36  58  82 119 153 199 256 300 351
#     4  10  22  38  55  88 126 154 198 251 309 365
#     4  12  24  37  57  83 122 167 197 240 308 372
#     4  12  23  37  53  86 119 155 199 240 299 366
#     4  11  19  34  59  84 113 155 194 252 302 354
#
# _framework density 19.431553999999998
#
# number of rings (size 3 to 8) (size 9 to 14) (size 15 to 20)
#    0.000    0.923    6.154    1.385    2.154    1.231 
#    0.000    0.000    0.000    0.923    0.000    0.000 
#    0.000    0.000    0.000    0.000    0.000    0.000 
#
# Total GULP energy -144978.753584 kJ/mol
# GULP energy per Si atom -5576.105907 kJ/mol
# Density = 1.938733 g / cm^3
# Si number density = 19.431554 Si / 1000 Ang^3
#
#
#
# Elastic Constant Matrix: (Units=GPa)
#
#
# Indices 1 2 3 4 5 6 
#
# 1 48.5192 6.5593 29.6795 -0.0004 3.6232 0.0002
# 2 6.5593 49.1027 21.9906 -0.0002 1.5546 0.0001
# 3 29.6795 21.9906 119.7898 -0.0008 14.2267 0.0006
# 4 -0.0004 -0.0002 -0.0008 1.5818 0.0005 9.6794
# 5 3.6232 1.5546 14.2267 0.0005 62.9581 -0.0003
# 6 0.0002 0.0001 0.0006 9.6794 -0.0003 16.5773
#
#
#
# Elastic Compliance Matrix: (Units=1/GPa)
#
#
# Indices 1 2 3 4 5 6 
#
# 1 0.024308 -0.000600 -0.005907 -0.000001 -0.000049 0.000001
# 2 -0.000600 0.022214 -0.003975 0.000000 0.000384 0.000000
# 3 -0.005907 -0.003975 0.010778 -0.000002 -0.001998 0.000001
# 4 -0.000001 0.000000 -0.000002 -0.245704 0.000003 0.143465
# 5 -0.000049 0.000384 -0.001998 0.000003 0.016328 -0.000001
# 6 0.000001 0.000000 0.000001 0.143465 -0.000001 -0.023445
#
#
# Mechanical properties :
#
#
# Convention : Reuss Voigt Hill
#
# Bulk Modulus (GPa) = 27.52037 37.09671 32.30854
# Shear Modulus (GPa) = -30.77968 26.83560 -1.97204
#
# Velocity S-wave (km/s) = -3.98427 3.72026 -1.00850
# Velocity P-wave (km/s) = 2.64054 6.13075 3.91240
#
# Compressibility (1/GPa) = 0.03633672
#
# Stress axis : x y z
#
# Youngs Moduli (GPa) = 41.13815 45.01744 92.77890
#
# Poissons Ratio (x) = 0.02703 0.54801
# Poissons Ratio (y) = 0.02470 0.36878
# Poissons Ratio (z) = 0.24299 0.17893
#
# Static dielectric constant tensor:
#      x y z
#    x 1.716470 0.000000 -0.002140 
#    y 0.000000 1.684600 0.000000 
#    z -0.002140 0.000000 1.805190 
# 
# From -- ./inp_files/163603.got.cif
#   From: 2010.05.17/outbox.cif.g08.bks.cpg/sg15_82_cif.got.tgz:163603.got - 2010.06.03 18:47:42.
