data_PCOD9279435
_publ_section_title
;
Structure prediction by ZEFSAII (Michael W. Deem and Ramdas Pophale) SiO2 
 PCOD9279435
Probable space group: C 2/C
;
_chemical_formula_sum "Si O2"
_cell_formula_units_Z 60
_cell_length_a 10.564244
_cell_length_b 23.645056
_cell_length_c 11.123354
_cell_angle_alpha 90.000000
_cell_angle_beta 87.428045
_cell_angle_gamma 90.000000
_cell_volume 2775.727474
_symmetry_space_group_name_H-M "C 2/C"
_symmetry_group_IT_number 15
_symmetry_cell_setting 'monoclinic'
loop_
_space_group_symop_operation_xyz
x,y,z
-x,y,1/2-z
-x,-y,-z
x,-y,1/2+z
1/2+x,1/2+y,z
1/2-x,1/2+y,1/2-z
1/2-x,1/2-y,-z
1/2+x,1/2-y,1/2+z
loop_
_atom_site_type_symbol
_atom_site_label
_atom_site_fract_x
_atom_site_fract_y
_atom_site_fract_z
Si Si1 0.458156 0.055885 0.071167
Si Si2 0.685238 0.904338 0.129195
Si Si3 0.893794 0.818305 0.014210
Si Si4 0.259016 0.844482 0.151928
Si Si5 0.500000 0.680484 0.750000
Si Si6 0.149643 0.232212 0.228439
Si Si7 0.342835 0.633347 0.097338
Si Si8 0.204254 0.535359 0.198408
O O1 0.582743 0.066823 0.143530
O O2 0.336306 0.041075 0.160030
O O3 0.421549 0.099205 0.968629
O O4 0.500000 0.000000 0.000000
O O5 0.654587 0.881344 0.263647
O O6 0.713145 0.970693 0.152856
O O7 0.795896 0.865061 0.068075
O O8 0.836462 0.777688 0.914475
O O9 0.014818 0.849750 0.948631
O O10 0.949911 0.788106 0.132358
O O11 0.114648 0.857802 0.198223
O O12 0.282444 0.781175 0.198594
O O13 0.250845 0.853571 0.010881
O O14 0.187666 0.174256 0.290739
O O15 0.000000 0.243262 0.250000
O O16 0.323945 0.570379 0.147055
#
# Coordination Sequence:
#
# PCOD9279435 Si02
#       8
#     8   8   8   8   4   8   8   8
#     4   9  20  38  55  80 121 154 188 248 299 349
#     4  10  21  35  60  87 115 154 204 241 300 363
#     4   9  19  38  59  84 122 157 195 255 297 350
#     4  10  21  37  59  86 115 160 200 248 295 358
#     4   8  18  36  54  82 120 154 188 248 310 334
#     4  10  21  38  58  85 118 157 205 250 298 350
#     4  10  21  38  61  84 123 157 196 249 305 350
#     4  10  21  37  59  85 116 160 193 246 304 358
#
# _framework density 21.615955
#
# number of rings (size 3 to 8) (size 9 to 14) (size 15 to 20)
#    0.000    2.400    0.000    1.200    3.733    3.733 
#    2.400    2.667   17.600    0.000    0.000    0.000 
#    0.000    0.000    0.000    0.000    0.000    0.000 
#
# Total GULP energy -167018.963989 kJ/mol
# GULP energy per Si atom -5567.298800 kJ/mol
# Density = 2.156676 g / cm^3
# Si number density = 21.615955 Si / 1000 Ang^3
#
#
#
# Elastic Constant Matrix: (Units=GPa)
#
#
# Indices 1 2 3 4 5 6 
#
# 1 37.9054 2.0784 28.4696 0.0000 -2.6157 0.0000
# 2 2.0784 55.0408 13.5347 0.0000 -1.5835 0.0000
# 3 28.4696 13.5347 153.4182 0.0000 6.0802 0.0000
# 4 0.0000 0.0000 0.0000 32.3085 0.0000 0.2750
# 5 -2.6157 -1.5835 6.0802 0.0000 30.8802 0.0000
# 6 0.0000 0.0000 0.0000 0.2750 0.0000 17.3752
#
#
#
# Elastic Compliance Matrix: (Units=1/GPa)
#
#
# Indices 1 2 3 4 5 6 
#
# 1 0.031098 0.000401 -0.005958 0.000000 0.003828 0.000000
# 2 0.000401 0.018627 -0.001771 0.000000 0.001338 0.000000
# 3 -0.005958 -0.001771 0.007865 0.000000 -0.002144 0.000000
# 4 0.000000 0.000000 0.000000 0.030956 0.000000 -0.000490
# 5 0.003828 0.001338 -0.002144 0.000000 0.033198 0.000000
# 6 0.000000 0.000000 0.000000 -0.000490 0.000000 0.057561
#
#
# Mechanical properties :
#
#
# Convention : Reuss Voigt Hill
#
# Bulk Modulus (GPa) = 23.29105 37.16997 30.23051
# Shear Modulus (GPa) = 24.00697 29.59823 26.80260
#
# Velocity S-wave (km/s) = 3.33620 3.70439 3.52511
# Velocity P-wave (km/s) = 5.06346 5.96067 5.53029
#
# Compressibility (1/GPa) = 0.04293495
#
# Stress axis : x y z
#
# Youngs Moduli (GPa) = 32.15591 53.68523 127.14671
#
# Poissons Ratio (x) = -0.02152 0.75754
# Poissons Ratio (y) = -0.01289 0.22514
# Poissons Ratio (z) = 0.19158 0.09506
#
# Static dielectric constant tensor:
#      x y z
#    x 1.871870 0.000000 0.023730 
#    y 0.000000 1.770420 0.000000 
#    z 0.023730 0.000000 1.886530 
# 
# From -- ./inp_files/89614.got.cif
#   From: 2010.05.17/outbox.cif.g08.bks.cpg/sg15_45_cif.got.tgz:89614.got - 2010.06.03 18:47:42.
