data_PCOD9279999
_publ_section_title
;
Structure prediction by ZEFSAII (Michael W. Deem and Ramdas Pophale) SiO2 
 PCOD9279999
Probable space group: C 2/C
;
_chemical_formula_sum "Si O2"
_cell_formula_units_Z 56
_cell_length_a 23.813787
_cell_length_b 5.773965
_cell_length_c 24.220627
_cell_angle_alpha 90.000000
_cell_angle_beta 127.965108
_cell_angle_gamma 90.000000
_cell_volume 2625.588368
_symmetry_space_group_name_H-M "C 2/C"
_symmetry_group_IT_number 15
_symmetry_cell_setting 'monoclinic'
loop_
_space_group_symop_operation_xyz
x,y,z
-x,y,1/2-z
-x,-y,-z
x,-y,1/2+z
1/2+x,1/2+y,z
1/2-x,1/2+y,1/2-z
1/2-x,1/2-y,-z
1/2+x,1/2-y,1/2+z
loop_
_atom_site_type_symbol
_atom_site_label
_atom_site_fract_x
_atom_site_fract_y
_atom_site_fract_z
Si Si1 0.318250 0.621557 0.413659
Si Si2 0.177484 0.500846 0.172490
Si Si3 0.060637 0.337501 0.834370
Si Si4 0.560708 0.255824 0.037296
Si Si5 0.914998 0.160677 0.186641
Si Si6 0.943440 0.344275 0.542633
Si Si7 0.298965 0.166019 0.695862
O O1 0.312444 0.757729 0.352433
O O2 0.376560 0.425182 0.440765
O O3 0.358959 0.786982 0.482051
O O4 0.242594 0.494552 0.373965
O O5 0.102317 0.589805 0.105517
O O6 0.240585 0.661674 0.187172
O O7 0.176158 0.484379 0.237152
O O8 0.095550 0.595361 0.852662
O O9 0.034105 0.315189 0.881052
O O10 0.000000 0.344404 0.750000
O O11 0.102118 0.094050 0.848660
O O12 0.491068 0.317166 0.030786
O O13 0.543470 0.100352 0.973602
O O14 0.864689 0.198948 0.209061
O O15 0.000000 0.152394 0.250000
#
# Coordination Sequence:
#
# PCOD9279999 Si02
#       7
#     8   8   8   8   8   8   8
#     4  10  21  38  60  95 131 171 214 274 352 399
#     4  10  21  36  62  98 126 175 212 289 348 393
#     4  10  24  44  65  99 128 180 229 280 336 394
#     4   9  21  37  64 101 125 179 212 289 346 406
#     4  10  25  44  66  97 132 180 230 283 337 397
#     4  10  21  40  65  92 141 166 234 274 343 411
#     4  11  22  39  64  93 139 166 234 276 343 412
#
# _framework density 21.328554
#
# number of rings (size 3 to 8) (size 9 to 14) (size 15 to 20)
#    0.000    2.000    1.429    0.429    8.000    2.286 
#    0.000    1.429    0.000    0.000    0.000    0.000 
#    0.000    0.000    0.000    0.000    0.000    0.000 
#
# Total GULP energy -155868.108566 kJ/mol
# GULP energy per Si atom -5566.718163 kJ/mol
# Density = 2.128001 g / cm^3
# Si number density = 21.328554 Si / 1000 Ang^3
#
#
#
# Elastic Constant Matrix: (Units=GPa)
#
#
# Indices 1 2 3 4 5 6 
#
# 1 68.2499 -0.5435 38.2168 0.0013 -3.3083 0.0004
# 2 -0.5435 57.8069 -6.1137 0.0021 -3.6467 -0.0026
# 3 38.2168 -6.1137 76.2129 -0.0005 -9.0386 0.0002
# 4 0.0013 0.0021 -0.0005 14.5150 0.0000 8.5648
# 5 -3.3083 -3.6467 -9.0386 0.0000 32.5762 0.0003
# 6 0.0004 -0.0026 0.0002 8.5648 0.0003 26.1333
#
#
#
# Elastic Compliance Matrix: (Units=1/GPa)
#
#
# Indices 1 2 3 4 5 6 
#
# 1 0.020445 -0.000971 -0.010440 -0.000002 -0.000929 0.000000
# 2 -0.000971 0.017680 0.002200 -0.000004 0.002491 0.000003
# 3 -0.010440 0.002200 0.019064 0.000001 0.004475 0.000000
# 4 -0.000002 -0.000004 0.000001 0.085412 0.000000 -0.027993
# 5 -0.000929 0.002491 0.004475 0.000000 0.032123 0.000000
# 6 0.000000 0.000003 0.000000 -0.027993 0.000000 0.047440
#
#
# Mechanical properties :
#
#
# Convention : Reuss Voigt Hill
#
# Bulk Modulus (GPa) = 25.79464 29.48765 27.64114
# Shear Modulus (GPa) = 19.72328 26.02557 22.87442
#
# Velocity S-wave (km/s) = 3.04425 3.49696 3.27843
# Velocity P-wave (km/s) = 4.94740 5.49185 5.22672
#
# Compressibility (1/GPa) = 0.03876775
#
# Stress axis : x y z
#
# Youngs Moduli (GPa) = 48.91080 56.56199 52.45566
#
# Poissons Ratio (x) = 0.05490 0.54765
# Poissons Ratio (y) = 0.04747 -0.11542
# Poissons Ratio (z) = 0.51065 -0.12446
#
# Static dielectric constant tensor:
#      x y z
#    x 1.763820 0.000000 0.034170 
#    y 0.000000 1.923380 0.000000 
#    z 0.034170 0.000000 1.784120 
# 
# From -- ./inp_files/281026.got.cif
#   From: 2010.05.17/outbox.cif.g08.bks.cpg/sg15_141_cif.got.tgz:281026.got - 2010.06.03 18:47:42.
