data_PCOD9279091
_publ_section_title
;
Structure prediction by ZEFSAII (Michael W. Deem and Ramdas Pophale) SiO2 
 PCOD9279091
Probable space group: C 2/C
;
_chemical_formula_sum "Si O2"
_cell_formula_units_Z 60
_cell_length_a 5.679146
_cell_length_b 21.436128
_cell_length_c 27.859990
_cell_angle_alpha 90.000000
_cell_angle_beta 79.299877
_cell_angle_gamma 90.000000
_cell_volume 3332.671987
_symmetry_space_group_name_H-M "C 2/C"
_symmetry_group_IT_number 15
_symmetry_cell_setting 'monoclinic'
loop_
_space_group_symop_operation_xyz
x,y,z
-x,y,1/2-z
-x,-y,-z
x,-y,1/2+z
1/2+x,1/2+y,z
1/2-x,1/2+y,1/2-z
1/2-x,1/2-y,-z
1/2+x,1/2-y,1/2+z
loop_
_atom_site_type_symbol
_atom_site_label
_atom_site_fract_x
_atom_site_fract_y
_atom_site_fract_z
Si Si1 0.643720 0.314852 0.521216
Si Si2 0.761764 0.330321 0.888388
Si Si3 0.325835 0.052819 0.561465
Si Si4 0.500000 0.276809 0.250000
Si Si5 0.857586 0.223786 0.654531
Si Si6 0.490761 0.916925 0.550481
Si Si7 0.570219 0.313720 0.796792
Si Si8 0.174230 0.883068 0.421562
O O1 0.750000 0.250000 0.500000
O O2 0.427975 0.304875 0.565868
O O3 0.831615 0.357832 0.541942
O O4 0.589159 0.352620 0.474978
O O5 0.654698 0.349232 0.840844
O O6 0.942687 0.272751 0.871801
O O7 0.864531 0.391755 0.909794
O O8 0.358941 0.065562 0.502928
O O9 0.567602 0.083233 0.577035
O O10 0.061159 0.077356 0.585561
O O11 0.342233 0.978679 0.567990
O O12 0.562393 0.308801 0.298213
O O13 0.718346 0.231786 0.228074
O O14 0.638294 0.268591 0.676346
O O15 0.792315 0.172533 0.617765
O O16 0.500000 0.348404 0.750000
#
# Coordination Sequence:
#
# PCOD9279091 Si02
#       8
#     8   8   8   4   8   8   8   8
#     4  11  23  34  54  84 120 155 190 238 293 350
#     4  11  20  33  56  81 116 153 188 237 299 349
#     4  10  24  39  57  79 114 163 209 240 280 329
#     4   8  18  34  58  78 116 144 184 230 300 362
#     4  10  21  34  56  88 116 147 187 239 302 355
#     4  10  22  37  54  77 114 161 203 244 278 341
#     4   9  18  34  52  84 116 143 183 231 296 369
#     4  11  23  38  58  84 118 155 199 244 281 346
#
# _framework density 18.003572999999999
#
# number of rings (size 3 to 8) (size 9 to 14) (size 15 to 20)
#    0.000    1.867    1.333    2.400    9.333    2.667 
#    0.000    0.000    0.000    0.000    1.733    1.867 
#    0.000    0.000    0.000    0.000    0.000    0.000 
#
# Total GULP energy -167109.181467 kJ/mol
# GULP energy per Si atom -5570.306049 kJ/mol
# Density = 1.796260 g / cm^3
# Si number density = 18.003573 Si / 1000 Ang^3
#
#
#
# Elastic Constant Matrix: (Units=GPa)
#
#
# Indices 1 2 3 4 5 6 
#
# 1 74.5764 41.2596 46.8785 0.0000 10.8279 0.0000
# 2 41.2596 78.9034 27.6744 0.0000 13.7758 0.0000
# 3 46.8785 27.6744 117.0911 0.0000 25.7042 0.0000
# 4 0.0000 0.0000 0.0000 -31.7699 0.0000 14.1614
# 5 10.8279 13.7758 25.7042 0.0000 40.5898 0.0000
# 6 0.0000 0.0000 0.0000 14.1614 0.0000 11.8379
#
#
#
# Elastic Compliance Matrix: (Units=1/GPa)
#
#
# Indices 1 2 3 4 5 6 
#
# 1 0.023250 -0.009890 -0.007371 0.000000 0.001822 0.000000
# 2 -0.009890 0.018359 0.000475 0.000000 -0.003893 0.000000
# 3 -0.007371 0.000475 0.012756 0.000000 -0.006273 0.000000
# 4 0.000000 0.000000 0.000000 -0.020529 0.000000 0.024559
# 5 0.001822 -0.003893 -0.006273 0.000000 0.029445 0.000000
# 6 0.000000 0.000000 0.000000 0.024559 0.000000 0.055095
#
#
# Mechanical properties :
#
#
# Convention : Reuss Voigt Hill
#
# Bulk Modulus (GPa) = 48.09360 55.79955 51.94658
# Shear Modulus (GPa) = 31.47090 14.44879 22.95984
#
# Velocity S-wave (km/s) = 4.18549 2.83601 3.57500
# Velocity P-wave (km/s) = 7.08019 6.46412 6.77916
#
# Compressibility (1/GPa) = 0.02079279
#
# Stress axis : x y z
#
# Youngs Moduli (GPa) = 43.01152 54.47039 78.39477
#
# Poissons Ratio (x) = 0.53874 0.57781
# Poissons Ratio (y) = 0.42541 -0.03727
# Poissons Ratio (z) = 0.31702 -0.02589
#
# Static dielectric constant tensor:
#      x y z
#    x 1.720120 0.000000 0.032540 
#    y 0.000000 1.603760 0.000000 
#    z 0.032540 0.000000 1.691210 
# 
# From -- ./inp_files/286380.got.cif
#   From: 2010.05.17/outbox.cif.g08.bks.cpg/sg15_144_cif.got.tgz:286380.got - 2010.06.03 18:47:42.
