data_PCOD9279046
_publ_section_title
;
Structure prediction by ZEFSAII (Michael W. Deem and Ramdas Pophale) SiO2 
 PCOD9279046
Probable space group: C 2/C
;
_chemical_formula_sum "Si O2"
_cell_formula_units_Z 52
_cell_length_a 24.780928
_cell_length_b 20.764530
_cell_length_c 12.319261
_cell_angle_alpha 90.000000
_cell_angle_beta 25.461637
_cell_angle_gamma 90.000000
_cell_volume 2725.200787
_symmetry_space_group_name_H-M "C 2/C"
_symmetry_group_IT_number 15
_symmetry_cell_setting 'monoclinic'
loop_
_space_group_symop_operation_xyz
x,y,z
-x,y,1/2-z
-x,-y,-z
x,-y,1/2+z
1/2+x,1/2+y,z
1/2-x,1/2+y,1/2-z
1/2-x,1/2-y,-z
1/2+x,1/2-y,1/2+z
loop_
_atom_site_type_symbol
_atom_site_label
_atom_site_fract_x
_atom_site_fract_y
_atom_site_fract_z
Si Si1 0.622969 0.232053 0.878252
Si Si2 0.480190 0.095028 0.954902
Si Si3 0.767530 0.862983 0.264716
Si Si4 0.909002 0.543838 0.516886
Si Si5 0.672967 0.812468 0.048665
Si Si6 0.500000 0.705279 0.250000
Si Si7 0.845581 0.308541 0.832260
O O1 0.680647 0.193906 0.873253
O O2 0.675006 0.197198 0.674710
O O3 0.688758 0.301877 0.751107
O O4 0.475037 0.222364 0.142181
O O5 0.536358 0.075667 0.972103
O O6 0.388145 0.155362 0.144814
O O7 0.596236 0.121825 0.672879
O O8 0.414227 0.032210 0.028206
O O9 0.723563 0.925608 0.278017
O O10 0.722144 0.862608 0.470887
O O11 0.908879 0.839370 0.987896
O O12 0.000000 0.559116 0.250000
O O13 0.588889 0.753320 0.156384
O O14 0.750000 0.250000 0.000000
#
# Coordination Sequence:
#
# PCOD9279046 Si02
#       7
#     8   8   8   8   8   4   8
#     4   9  17  30  52  76 111 144 176 217 285 339
#     4  10  21  34  54  85 106 142 194 232 273 330
#     4  11  18  35  55  79 109 150 190 224 288 344
#     4  11  20  36  58  75 108 148 192 232 268 332
#     4   9  17  32  48  80 114 134 175 237 282 327
#     4  10  22  30  54  86 110 142 184 238 292 340
#     4  11  20  34  55  85 118 142 181 238 289 346
#
# _framework density 19.081161999999999
#
# number of rings (size 3 to 8) (size 9 to 14) (size 15 to 20)
#    0.000    1.846    4.615    2.308    1.077    0.000 
#    0.000    0.000    0.000    2.769    0.000    0.000 
#    0.000    0.000    0.000    0.000    0.000    0.000 
#
# Total GULP energy -144898.261305 kJ/mol
# GULP energy per Si atom -5573.010050 kJ/mol
# Density = 1.903773 g / cm^3
# Si number density = 19.081162 Si / 1000 Ang^3
#
#
#
# Elastic Constant Matrix: (Units=GPa)
#
#
# Indices 1 2 3 4 5 6 
#
# 1 28.4864 6.4095 5.4399 -0.0001 -1.0461 0.0001
# 2 6.4095 100.8951 39.0701 -0.0001 -5.5320 0.0001
# 3 5.4399 39.0701 107.2470 -0.0003 -9.5447 0.0002
# 4 -0.0001 -0.0001 -0.0003 25.2235 0.0001 -0.6062
# 5 -1.0461 -5.5320 -9.5447 0.0001 22.8268 -0.0001
# 6 0.0001 0.0001 0.0002 -0.6062 -0.0001 29.8710
#
#
#
# Elastic Compliance Matrix: (Units=1/GPa)
#
#
# Indices 1 2 3 4 5 6 
#
# 1 0.035747 -0.001809 -0.001088 0.000000 0.000745 0.000000
# 2 -0.001809 0.011656 -0.004062 0.000000 0.001044 0.000000
# 3 -0.001088 -0.004062 0.011183 0.000000 0.003642 0.000000
# 4 0.000000 0.000000 0.000000 0.039665 0.000000 0.000805
# 5 0.000745 0.001044 0.003642 0.000000 0.045618 0.000000
# 6 0.000000 0.000000 0.000000 0.000805 0.000000 0.033494
#
#
# Mechanical properties :
#
#
# Convention : Reuss Voigt Hill
#
# Bulk Modulus (GPa) = 22.38676 37.60748 29.99712
# Shear Modulus (GPa) = 24.25191 27.96485 26.10838
#
# Velocity S-wave (km/s) = 3.56896 3.83243 3.70304
# Velocity P-wave (km/s) = 5.36108 6.27180 5.83423
#
# Compressibility (1/GPa) = 0.04466926
#
# Stress axis : x y z
#
# Youngs Moduli (GPa) = 27.97469 85.79084 89.41923
#
# Poissons Ratio (x) = 0.15517 0.09729
# Poissons Ratio (y) = 0.05060 0.36320
# Poissons Ratio (z) = 0.03044 0.34846
#
# Static dielectric constant tensor:
#      x y z
#    x 1.750420 0.000000 0.009560 
#    y 0.000000 1.710840 0.000000 
#    z 0.009560 0.000000 1.693900 
# 
# From -- ./inp_files/183003.got.cif
#   From: 2010.05.17/outbox.cif.g08.bks.cpg/sg15_92_cif.got.tgz:183003.got - 2010.06.03 18:47:42.
