data_PCOD9279142
_publ_section_title
;
Structure prediction by ZEFSAII (Michael W. Deem and Ramdas Pophale) SiO2 
 PCOD9279142
Probable space group: C 2/C
;
_chemical_formula_sum "Si O2"
_cell_formula_units_Z 40
_cell_length_a 6.710101
_cell_length_b 27.605190
_cell_length_c 8.343712
_cell_angle_alpha 90.000000
_cell_angle_beta 84.116443
_cell_angle_gamma 90.000000
_cell_volume 1537.394463
_symmetry_space_group_name_H-M "C 2/C"
_symmetry_group_IT_number 15
_symmetry_cell_setting 'monoclinic'
loop_
_space_group_symop_operation_xyz
x,y,z
-x,y,1/2-z
-x,-y,-z
x,-y,1/2+z
1/2+x,1/2+y,z
1/2-x,1/2+y,1/2-z
1/2-x,1/2-y,-z
1/2+x,1/2-y,1/2+z
loop_
_atom_site_type_symbol
_atom_site_label
_atom_site_fract_x
_atom_site_fract_y
_atom_site_fract_z
Si Si1 0.426484 0.367172 0.441416
Si Si2 0.034418 0.661337 0.560963
Si Si3 0.263270 0.459093 0.595070
Si Si4 0.020782 0.762434 0.058315
Si Si5 0.178112 0.558815 0.475251
O O1 0.500000 0.372380 0.250000
O O2 0.187351 0.354417 0.478340
O O3 0.427073 0.419613 0.526002
O O4 0.516098 0.316789 0.502083
O O5 0.090385 0.713564 0.485414
O O6 0.000000 0.669748 0.750000
O O7 0.180938 0.615355 0.524590
O O8 0.282325 0.516911 0.571985
O O9 0.230704 0.448525 0.784606
O O10 0.063970 0.450649 0.503904
O O11 0.000000 0.766813 0.250000
O O12 0.250000 0.750000 0.000000
#
# Coordination Sequence:
#
# PCOD9279142 Si02
#       5
#     8   8   8   8   8
#     4   9  19  37  58  78 115 158 191 224 289 362
#     4  10  21  34  59  88 115 141 194 254 284 327
#     4   9  18  32  54  79 111 147 187 238 280 338
#     4   9  19  35  58  83 113 154 200 231 287 357
#     4   9  19  30  54  85 109 139 193 243 282 323
#
# _framework density 26.018046999999999
#
# number of rings (size 3 to 8) (size 9 to 14) (size 15 to 20)
#    0.000    2.800    0.000    0.000   16.800    0.000 
#    0.000   10.000    0.000    0.000    0.000    0.000 
#    0.000    0.000    0.000    0.000    0.000    0.000 
#
# Total GULP energy -111733.828037 kJ/mol
# GULP energy per Si atom -5586.691402 kJ/mol
# Density = 2.595883 g / cm^3
# Si number density = 26.018047 Si / 1000 Ang^3
#
#
#
# Elastic Constant Matrix: (Units=GPa)
#
#
# Indices 1 2 3 4 5 6 
#
# 1 80.8396 65.0734 0.1614 0.0000 -17.6037 0.0000
# 2 65.0734 275.3903 61.3481 0.0000 -14.7943 0.0000
# 3 0.1614 61.3481 56.3429 0.0000 -17.8597 0.0000
# 4 0.0000 0.0000 0.0000 -4.7813 0.0000 -37.6685
# 5 -17.6037 -14.7943 -17.8597 0.0000 34.3179 0.0000
# 6 0.0000 0.0000 0.0000 -37.6685 0.0000 62.4137
#
#
#
# Elastic Compliance Matrix: (Units=1/GPa)
#
#
# Indices 1 2 3 4 5 6 
#
# 1 0.020831 -0.006790 0.011728 0.000000 0.013861 0.000000
# 2 -0.006790 0.007025 -0.009309 0.000000 -0.005299 0.000000
# 3 0.011728 -0.009309 0.034113 0.000000 0.019756 0.000000
# 4 0.000000 0.000000 0.000000 -0.036343 0.000000 -0.021934
# 5 0.013861 -0.005299 0.019756 0.000000 0.044246 0.000000
# 6 0.000000 0.000000 0.000000 -0.021934 0.000000 0.002784
#
#
# Mechanical properties :
#
#
# Convention : Reuss Voigt Hill
#
# Bulk Modulus (GPa) = 18.78799 73.97097 46.37948
# Shear Modulus (GPa) = 50.43287 37.45606 43.94446
#
# Velocity S-wave (km/s) = 4.40748 3.79835 4.11420
# Velocity P-wave (km/s) = 5.75656 6.90861 6.35873
#
# Compressibility (1/GPa) = 0.05322548
#
# Stress axis : x y z
#
# Youngs Moduli (GPa) = 48.00515 142.35308 29.31415
#
# Poissons Ratio (x) = 0.96660 -0.34378
# Poissons Ratio (y) = 0.32596 0.27289
# Poissons Ratio (z) = -0.56298 1.32519
#
# Static dielectric constant tensor:
#      x y z
#    x 3.444550 0.000000 0.551990 
#    y 0.000000 2.087520 0.000000 
#    z 0.551990 0.000000 2.123250 
# 
# From -- ./inp_files/24428.got.cif
#   From: 2010.05.17/outbox.cif.g08.bks.cpg/sg15_13_cif.got.tgz:24428.got - 2010.06.03 18:47:42.
