data_PCOD9279070
_publ_section_title
;
Structure prediction by ZEFSAII (Michael W. Deem and Ramdas Pophale) SiO2 
 PCOD9279070
Probable space group: C 2/C
;
_chemical_formula_sum "Si O2"
_cell_formula_units_Z 56
_cell_length_a 9.117817
_cell_length_b 23.330803
_cell_length_c 18.317823
_cell_angle_alpha 90.000000
_cell_angle_beta 45.717021
_cell_angle_gamma 90.000000
_cell_volume 2789.631826
_symmetry_space_group_name_H-M "C 2/C"
_symmetry_group_IT_number 15
_symmetry_cell_setting 'monoclinic'
loop_
_space_group_symop_operation_xyz
x,y,z
-x,y,1/2-z
-x,-y,-z
x,-y,1/2+z
1/2+x,1/2+y,z
1/2-x,1/2+y,1/2-z
1/2-x,1/2-y,-z
1/2+x,1/2-y,1/2+z
loop_
_atom_site_type_symbol
_atom_site_label
_atom_site_fract_x
_atom_site_fract_y
_atom_site_fract_z
Si Si1 0.770778 0.971184 0.830729
Si Si2 0.486945 0.922943 0.449432
Si Si3 0.681611 0.839577 0.494457
Si Si4 0.529927 0.276415 0.440981
Si Si5 0.072309 0.676077 0.640098
Si Si6 0.370378 0.879691 0.728876
Si Si7 0.294778 0.245492 0.274888
O O1 0.764300 0.924957 0.767713
O O2 0.000000 0.995054 0.750000
O O3 0.602705 0.020902 0.880518
O O4 0.697261 0.940521 0.931620
O O5 0.646896 0.886129 0.443727
O O6 0.418059 0.882889 0.407409
O O7 0.620516 0.775893 0.486172
O O8 0.530994 0.858200 0.611876
O O9 0.900439 0.830056 0.455862
O O10 0.705280 0.294438 0.435293
O O11 0.642118 0.251572 0.331305
O O12 0.000000 0.668257 0.750000
O O13 0.906843 0.715802 0.656329
O O14 0.500000 0.905849 0.750000
O O15 0.260530 0.822538 0.798859
O O16 0.500000 0.261845 0.250000
#
# Coordination Sequence:
#
# PCOD9279070 Si02
#       7
#     8   8   8   8   8   8   8
#     4  10  23  41  61  81 108 153 202 247 293 343
#     4  10  22  40  58  83 115 152 200 243 290 353
#     4   9  18  34  54  78 115 150 182 228 286 352
#     4   9  18  31  50  83 116 147 183 226 285 343
#     4  10  21  34  55  89 123 151 189 238 284 344
#     4   9  19  35  56  79 106 144 190 236 285 343
#     4   9  17  31  52  79 114 152 183 223 288 350
#
# _framework density 20.074332999999999
#
# number of rings (size 3 to 8) (size 9 to 14) (size 15 to 20)
#    0.000    2.571    0.000    0.857    0.000   10.286 
#    0.000    0.000    0.000    6.000    0.000    0.000 
#    0.000    0.000    0.000    0.000    0.000    0.000 
#
# Total GULP energy -156076.637957 kJ/mol
# GULP energy per Si atom -5574.165641 kJ/mol
# Density = 2.002864 g / cm^3
# Si number density = 20.074333 Si / 1000 Ang^3
#
#
#
# Elastic Constant Matrix: (Units=GPa)
#
#
# Indices 1 2 3 4 5 6 
#
# 1 107.4492 33.9232 37.8378 0.0000 1.6437 0.0000
# 2 33.9232 59.7775 15.1941 0.0000 0.0875 0.0000
# 3 37.8378 15.1941 42.3607 0.0000 0.0627 0.0000
# 4 0.0000 0.0000 0.0000 19.0748 0.0000 16.1208
# 5 1.6437 0.0875 0.0627 0.0000 32.6319 0.0000
# 6 0.0000 0.0000 0.0000 16.1208 0.0000 13.3984
#
#
#
# Elastic Compliance Matrix: (Units=1/GPa)
#
#
# Indices 1 2 3 4 5 6 
#
# 1 0.015162 -0.005679 -0.011505 0.000000 -0.000726 0.000000
# 2 -0.005679 0.020534 -0.002293 0.000000 0.000235 0.000000
# 3 -0.011505 -0.002293 0.034705 0.000000 0.000519 0.000000
# 4 0.000000 0.000000 0.000000 -3.109820 0.000000 3.741691
# 5 -0.000726 0.000235 0.000519 0.000000 0.030680 0.000000
# 6 0.000000 0.000000 0.000000 3.741691 0.000000 -4.427314
#
#
# Mechanical properties :
#
#
# Convention : Reuss Voigt Hill
#
# Bulk Modulus (GPa) = 31.79946 42.61083 37.20515
# Shear Modulus (GPa) = -0.67690 21.19651 10.25981
#
# Velocity S-wave (km/s) = -0.58132 3.25299 2.26318
# Velocity P-wave (km/s) = 3.92743 5.94826 5.04016
#
# Compressibility (1/GPa) = 0.03144708
#
# Stress axis : x y z
#
# Youngs Moduli (GPa) = 65.95281 48.69989 28.81402
#
# Poissons Ratio (x) = 0.27657 0.33152
# Poissons Ratio (y) = 0.37455 0.06607
# Poissons Ratio (z) = 0.75881 0.11166
#
# Static dielectric constant tensor:
#      x y z
#    x 1.697410 0.000000 0.019730 
#    y 0.000000 1.730770 0.000000 
#    z 0.019730 0.000000 1.812520 
# 
# From -- ./inp_files/137433.got.cif
#   From: 2010.05.17/outbox.cif.g08.bks.cpg/sg15_69_cif.got.tgz:137433.got - 2010.06.03 18:47:42.
