data_PCOD9279643
_publ_section_title
;
Structure prediction by ZEFSAII (Michael W. Deem and Ramdas Pophale) SiO2 
 PCOD9279643
Probable space group: C 2/C
;
_chemical_formula_sum "Si O2"
_cell_formula_units_Z 52
_cell_length_a 19.473514
_cell_length_b 24.605043
_cell_length_c 5.155319
_cell_angle_alpha 90.000000
_cell_angle_beta 88.054178
_cell_angle_gamma 90.000000
_cell_volume 2468.729487
_symmetry_space_group_name_H-M "C 2/C"
_symmetry_group_IT_number 15
_symmetry_cell_setting 'monoclinic'
loop_
_space_group_symop_operation_xyz
x,y,z
-x,y,1/2-z
-x,-y,-z
x,-y,1/2+z
1/2+x,1/2+y,z
1/2-x,1/2+y,1/2-z
1/2-x,1/2-y,-z
1/2+x,1/2-y,1/2+z
loop_
_atom_site_type_symbol
_atom_site_label
_atom_site_fract_x
_atom_site_fract_y
_atom_site_fract_z
Si Si1 0.861570 0.530698 0.648624
Si Si2 0.121508 0.634434 0.574421
Si Si3 0.693319 0.703709 0.566457
Si Si4 0.303098 0.472583 0.228932
Si Si5 0.431601 0.766742 0.135671
Si Si6 0.277740 0.363593 0.934961
Si Si7 0.500000 0.145925 0.250000
O O1 0.888088 0.503940 0.386498
O O2 0.877152 0.594019 0.681470
O O3 0.778788 0.524550 0.694601
O O4 0.110671 0.697659 0.647936
O O5 0.195541 0.627340 0.435480
O O6 0.057594 0.616417 0.408806
O O7 0.750000 0.750000 0.500000
O O8 0.618885 0.728668 0.516550
O O9 0.702021 0.655241 0.354849
O O10 0.705217 0.683164 0.856616
O O11 0.330101 0.517238 0.016964
O O12 0.310282 0.416845 0.065677
O O13 0.500000 0.740185 0.250000
O O14 0.460594 0.813815 0.948894
#
# Coordination Sequence:
#
# PCOD9279643 Si02
#       7
#     8   8   8   8   8   8   4
#     4   9  19  32  51  75 102 138 182 236 284 322
#     4  10  21  36  56  77 106 147 193 231 280 338
#     4  12  23  37  57  88 119 149 189 238 287 330
#     4   9  17  33  53  79 113 148 178 220 284 339
#     4  10  23  38  57  77 110 155 192 226 277 340
#     4  11  23  35  60  88 118 145 189 237 283 338
#     4  10  22  38  56  72 100 154 198 230 272 340
#
# _framework density 21.063465999999998
#
# number of rings (size 3 to 8) (size 9 to 14) (size 15 to 20)
#    0.000    1.846    1.538    2.308    6.462    2.462 
#    0.000    0.769    0.000    0.000    0.000    0.000 
#    0.000   12.308    0.000    0.000    0.000    0.000 
#
# Total GULP energy -145128.675125 kJ/mol
# GULP energy per Si atom -5581.872120 kJ/mol
# Density = 2.101552 g / cm^3
# Si number density = 21.063466 Si / 1000 Ang^3
#
#
#
# Elastic Constant Matrix: (Units=GPa)
#
#
# Indices 1 2 3 4 5 6 
#
# 1 57.3221 11.3195 -0.0386 0.0000 11.3845 0.0000
# 2 11.3195 46.5688 -5.7118 0.0000 -1.5128 0.0000
# 3 -0.0386 -5.7118 67.5821 0.0000 5.9650 0.0000
# 4 0.0000 0.0000 0.0000 33.4197 0.0000 0.1465
# 5 11.3845 -1.5128 5.9650 0.0000 19.4105 0.0000
# 6 0.0000 0.0000 0.0000 0.1465 0.0000 9.6823
#
#
#
# Elastic Compliance Matrix: (Units=1/GPa)
#
#
# Indices 1 2 3 4 5 6 
#
# 1 0.021112 -0.005469 0.000699 0.000000 -0.013024 0.000000
# 2 -0.005469 0.023141 0.001552 0.000000 0.004534 0.000000
# 3 0.000699 0.001552 0.015371 0.000000 -0.005013 0.000000
# 4 0.000000 0.000000 0.000000 0.029924 0.000000 -0.000453
# 5 -0.013024 0.004534 -0.005013 0.000000 0.061051 0.000000
# 6 0.000000 0.000000 0.000000 -0.000453 0.000000 0.103288
#
#
# Mechanical properties :
#
#
# Convention : Reuss Voigt Hill
#
# Bulk Modulus (GPa) = 18.80076 20.29012 19.54544
# Shear Modulus (GPa) = 17.98225 23.56275 20.77250
#
# Velocity S-wave (km/s) = 2.92501 3.34826 3.14377
# Velocity P-wave (km/s) = 4.51140 4.95999 4.74101
#
# Compressibility (1/GPa) = 0.05318935
#
# Stress axis : x y z
#
# Youngs Moduli (GPa) = 47.36560 43.21390 65.05812
#
# Poissons Ratio (x) = 0.23634 -0.04550
# Poissons Ratio (y) = 0.25905 -0.10100
# Poissons Ratio (z) = -0.03312 -0.06709
#
# Static dielectric constant tensor:
#      x y z
#    x 1.759010 0.000000 0.010020 
#    y 0.000000 1.806500 0.000000 
#    z 0.010020 0.000000 1.832390 
# 
# From -- ./inp_files/11250.got.cif
#   From: 2010.05.17/outbox.cif.g08.bks.cpg/sg15_6_cif.got.tgz:11250.got - 2010.06.03 18:47:42.
