data_PCOD9279262
_publ_section_title
;
Structure prediction by ZEFSAII (Michael W. Deem and Ramdas Pophale) SiO2 
 PCOD9279262
Probable space group: C 2/C
;
_chemical_formula_sum "Si O2"
_cell_formula_units_Z 40
_cell_length_a 10.918386
_cell_length_b 12.533402
_cell_length_c 17.778228
_cell_angle_alpha 90.000000
_cell_angle_beta 41.730202
_cell_angle_gamma 90.000000
_cell_volume 1619.365002
_symmetry_space_group_name_H-M "C 2/C"
_symmetry_group_IT_number 15
_symmetry_cell_setting 'monoclinic'
loop_
_space_group_symop_operation_xyz
x,y,z
-x,y,1/2-z
-x,-y,-z
x,-y,1/2+z
1/2+x,1/2+y,z
1/2-x,1/2+y,1/2-z
1/2-x,1/2-y,-z
1/2+x,1/2-y,1/2+z
loop_
_atom_site_type_symbol
_atom_site_label
_atom_site_fract_x
_atom_site_fract_y
_atom_site_fract_z
Si Si1 0.373129 0.649236 0.022396
Si Si2 0.271591 0.195514 0.795089
Si Si3 0.677603 0.865784 0.393481
Si Si4 0.759606 0.596987 0.115612
Si Si5 0.189618 0.081354 0.979548
O O1 0.548268 0.680322 0.890329
O O2 0.480179 0.605344 0.048131
O O3 0.261281 0.754557 0.096336
O O4 0.273671 0.545753 0.035612
O O5 0.353537 0.153643 0.680776
O O6 0.318351 0.317908 0.790585
O O7 0.303855 0.133439 0.858980
O O8 0.790548 0.974345 0.348881
O O9 0.479854 0.889319 0.521307
O O10 0.718978 0.626639 0.048227
#
# Coordination Sequence:
#
# PCOD9279262 Si02
#       5
#     8   8   8   8   8
#     4   8  19  36  55  76 111 142 174 226 265 310
#     4   9  19  34  57  75 111 138 182 214 273 315
#     4  10  21  35  55  80 114 142 174 227 271 314
#     4  10  21  36  55  83 108 140 182 224 268 317
#     4   9  18  37  57  76 108 140 184 218 264 319
#
# _framework density 24.701039999999999
#
# number of rings (size 3 to 8) (size 9 to 14) (size 15 to 20)
#    1.200    1.600    0.000    0.600    2.800    1.600 
#    0.000    3.000    0.000    0.000    0.000    0.000 
#    0.000    0.000    0.000    0.000    0.000    0.000 
#
# Total GULP energy -111643.734267 kJ/mol
# GULP energy per Si atom -5582.186713 kJ/mol
# Density = 2.464482 g / cm^3
# Si number density = 24.701040 Si / 1000 Ang^3
#
#
#
# Elastic Constant Matrix: (Units=GPa)
#
#
# Indices 1 2 3 4 5 6 
#
# 1 50.8582 2.8658 12.1490 0.0001 5.3628 -0.0001
# 2 2.8658 176.2662 48.6330 0.0000 0.6191 0.0000
# 3 12.1490 48.6330 81.3533 0.0000 3.1421 -0.0001
# 4 0.0001 0.0000 0.0000 20.9990 0.0000 23.6421
# 5 5.3628 0.6191 3.1421 0.0000 21.6330 0.0001
# 6 -0.0001 0.0000 -0.0001 23.6421 0.0001 6.5404
#
#
#
# Elastic Compliance Matrix: (Units=1/GPa)
#
#
# Indices 1 2 3 4 5 6 
#
# 1 0.020914 0.000584 -0.003290 0.000000 -0.004723 0.000000
# 2 0.000584 0.006814 -0.004171 0.000000 0.000266 0.000000
# 3 -0.003290 -0.004171 0.015326 0.000000 -0.001291 0.000000
# 4 0.000000 0.000000 0.000000 -0.015513 0.000000 0.056076
# 5 -0.004723 0.000266 -0.001291 0.000000 0.047576 0.000000
# 6 0.000000 0.000000 0.000000 0.056076 0.000000 -0.049807
#
#
# Mechanical properties :
#
#
# Convention : Reuss Voigt Hill
#
# Bulk Modulus (GPa) = 34.12870 48.41924 41.27397
# Shear Modulus (GPa) = 102.39708 26.15648 64.27678
#
# Velocity S-wave (km/s) = 6.44551 3.25764 5.10670
# Velocity P-wave (km/s) = 8.32102 5.81328 7.17752
#
# Compressibility (1/GPa) = 0.02930085
#
# Stress axis : x y z
#
# Youngs Moduli (GPa) = 47.81581 146.76720 65.24665
#
# Poissons Ratio (x) = -0.08576 0.21466
# Poissons Ratio (y) = -0.02794 0.27212
# Poissons Ratio (z) = 0.15731 0.61211
#
# Static dielectric constant tensor:
#      x y z
#    x 1.983830 0.000000 -0.032710 
#    y 0.000000 2.006540 0.000000 
#    z -0.032710 0.000000 1.919190 
# 
# From -- ./inp_files/196775.got.cif
#   From: 2010.05.17/outbox.cif.g08.bks.cpg/sg15_99_cif.got.tgz:196775.got - 2010.06.03 18:47:42.
