data_PCOD9279389
_publ_section_title
;
Structure prediction by ZEFSAII (Michael W. Deem and Ramdas Pophale) SiO2 
 PCOD9279389
Probable space group: C 2/C
;
_chemical_formula_sum "Si O2"
_cell_formula_units_Z 48
_cell_length_a 13.836458
_cell_length_b 13.982046
_cell_length_c 26.188666
_cell_angle_alpha 90.000000
_cell_angle_beta 158.838526
_cell_angle_gamma 90.000000
_cell_volume 1828.998434
_symmetry_space_group_name_H-M "C 2/C"
_symmetry_group_IT_number 15
_symmetry_cell_setting 'monoclinic'
loop_
_space_group_symop_operation_xyz
x,y,z
-x,y,1/2-z
-x,-y,-z
x,-y,1/2+z
1/2+x,1/2+y,z
1/2-x,1/2+y,1/2-z
1/2-x,1/2-y,-z
1/2+x,1/2-y,1/2+z
loop_
_atom_site_type_symbol
_atom_site_label
_atom_site_fract_x
_atom_site_fract_y
_atom_site_fract_z
Si Si1 0.844736 0.198664 0.618658
Si Si2 0.183165 0.606517 0.981916
Si Si3 0.197718 0.630180 0.103521
Si Si4 0.245425 0.394772 0.908877
Si Si5 0.745375 0.387611 0.088172
Si Si6 0.825182 0.982987 0.245207
O O1 0.537703 0.167176 0.476251
O O2 0.836021 0.307979 0.594056
O O3 0.000000 0.204799 0.750000
O O4 0.008855 0.115497 0.671622
O O5 0.097805 0.640588 0.996236
O O6 0.475158 0.563749 0.136270
O O7 0.198236 0.665582 0.937302
O O8 0.942472 0.530336 0.854312
O O9 0.500000 0.673201 0.250000
O O10 0.248666 0.522671 0.150979
O O11 0.320245 0.502254 0.961497
O O12 0.000000 0.409217 0.750000
O O13 0.493348 0.356453 0.997121
O O14 0.000000 0.386498 0.250000
#
# Coordination Sequence:
#
# PCOD9279389 Si02
#       6
#     8   8   8   8   8   8
#     4  11  19  37  62  91 131 159 195 253 310 367
#     4  11  22  34  64  94 119 162 207 251 300 368
#     4  10  21  35  58  94 129 159 195 241 308 379
#     4   9  22  41  65  85 117 165 209 262 305 351
#     4  10  23  45  66  84 114 163 221 258 303 358
#     4  11  21  35  62  97 129 160 199 243 308 380
#
# _framework density 26.243870999999999
#
# number of rings (size 3 to 8) (size 9 to 14) (size 15 to 20)
#    0.000    1.667    3.333    2.000    7.000    0.667 
#    0.000    1.667    0.000    4.000    0.000    0.000 
#    0.000    0.000    0.000    0.000    0.000    0.000 
#
# Total GULP energy -134064.980640 kJ/mol
# GULP energy per Si atom -5586.040860 kJ/mol
# Density = 2.618414 g / cm^3
# Si number density = 26.243871 Si / 1000 Ang^3
#
#
#
# Elastic Constant Matrix: (Units=GPa)
#
#
# Indices 1 2 3 4 5 6 
#
# 1 106.8577 11.5671 26.2189 0.0053 -4.5769 0.0035
# 2 11.5671 118.0457 -10.7154 0.0064 -5.1276 0.0025
# 3 26.2189 -10.7154 145.3828 0.0433 26.1891 0.0075
# 4 0.0053 0.0064 0.0433 15.5225 -0.0062 -3.2020
# 5 -4.5769 -5.1276 26.1891 -0.0062 48.1557 -0.0027
# 6 0.0035 0.0025 0.0075 -3.2020 -0.0027 29.1841
#
#
#
# Elastic Compliance Matrix: (Units=1/GPa)
#
#
# Indices 1 2 3 4 5 6 
#
# 1 0.010128 -0.001109 -0.002284 0.000004 0.002087 0.000000
# 2 -0.001109 0.008667 0.000767 -0.000005 0.000400 -0.000001
# 3 -0.002284 0.000767 0.008172 -0.000025 -0.004580 -0.000005
# 4 0.000004 -0.000005 -0.000025 0.065915 0.000022 0.007232
# 5 0.002087 0.000400 -0.004580 0.000022 0.023498 0.000005
# 6 0.000000 -0.000001 -0.000005 0.007232 0.000005 0.035059
#
#
# Mechanical properties :
#
#
# Convention : Reuss Voigt Hill
#
# Bulk Modulus (GPa) = 46.05406 47.15859 46.60633
# Shear Modulus (GPa) = 30.50100 41.45350 35.97725
#
# Velocity S-wave (km/s) = 3.41282 3.97867 3.70656
# Velocity P-wave (km/s) = 5.75469 6.25418 6.00963
#
# Compressibility (1/GPa) = 0.02171361
#
# Stress axis : x y z
#
# Youngs Moduli (GPa) = 98.73486 115.38065 122.37161
#
# Poissons Ratio (x) = 0.12797 0.27952
# Poissons Ratio (y) = 0.10951 -0.09382
# Poissons Ratio (z) = 0.22553 -0.08846
#
# Static dielectric constant tensor:
#      x y z
#    x 2.054510 0.000000 -0.033840 
#    y 0.000000 2.211750 -0.000020 
#    z -0.033840 -0.000020 1.997370 
# 
# From -- ./inp_files/314116.got.cif
#   From: 2010.05.17/outbox.cif.g08.bks.cpg/sg15_158_cif.got.tgz:314116.got - 2010.06.03 18:47:42.
