data_PCOD9279008
_publ_section_title
;
Structure prediction by ZEFSAII (Michael W. Deem and Ramdas Pophale) SiO2 
 PCOD9279008
Probable space group: C 2/C
;
_chemical_formula_sum "Si O2"
_cell_formula_units_Z 60
_cell_length_a 18.956872
_cell_length_b 28.692813
_cell_length_c 7.968882
_cell_angle_alpha 90.000000
_cell_angle_beta 60.517935
_cell_angle_gamma 90.000000
_cell_volume 3773.209014
_symmetry_space_group_name_H-M "C 2/C"
_symmetry_group_IT_number 15
_symmetry_cell_setting 'monoclinic'
loop_
_space_group_symop_operation_xyz
x,y,z
-x,y,1/2-z
-x,-y,-z
x,-y,1/2+z
1/2+x,1/2+y,z
1/2-x,1/2+y,1/2-z
1/2-x,1/2-y,-z
1/2+x,1/2-y,1/2+z
loop_
_atom_site_type_symbol
_atom_site_label
_atom_site_fract_x
_atom_site_fract_y
_atom_site_fract_z
Si Si1 0.086158 0.363488 0.354090
Si Si2 0.844793 0.228550 0.564422
Si Si3 0.710902 0.311472 0.717715
Si Si4 0.904431 0.325429 0.832357
Si Si5 0.096234 0.214927 0.653860
Si Si6 0.500000 0.215512 0.750000
Si Si7 0.525229 0.050961 0.528056
Si Si8 0.660930 0.883301 0.901948
O O1 0.137379 0.348417 0.455239
O O2 0.035158 0.318296 0.353014
O O3 0.031132 0.407266 0.474906
O O4 0.131142 0.375549 0.128185
O O5 0.777791 0.269786 0.664978
O O6 0.817961 0.196853 0.439071
O O7 0.863992 0.201145 0.713979
O O8 0.927975 0.253870 0.409413
O O9 0.748614 0.363031 0.698517
O O10 0.642379 0.303726 0.937092
O O11 0.891057 0.270692 0.854504
O O12 0.877277 0.348973 0.692962
O O13 0.000000 0.332642 0.750000
O O14 0.000000 0.205844 0.750000
O O15 0.500000 0.052090 0.750000
O O16 0.619154 0.067230 0.401419
O O17 0.500000 0.000000 0.500000
#
# Coordination Sequence:
#
# PCOD9279008 Si02
#       8
#     8   8   8   8   8   4   8   8
#     4  11  18  31  48  66  93 128 164 213 247 293
#     4  11  21  31  48  67  98 132 175 221 261 292
#     4  11  22  33  47  67  97 134 174 218 263 300
#     4  11  19  28  49  67  92 129 174 210 253 290
#     4  11  22  33  48  73  96 130 176 226 255 297
#     4  12  16  36  50  68  98 136 180 216 252 294
#     4  10  21  34  51  71  99 126 169 215 253 305
#     4  11  21  34  45  69  94 129 172 211 254 300
#
# _framework density 15.901584
#
# number of rings (size 3 to 8) (size 9 to 14) (size 15 to 20)
#    0.000    1.067    6.000    3.600    3.733    0.000 
#    0.000    0.000    0.000    0.000    0.000    0.000 
#    0.000    0.000    0.000    4.800    0.000    2.667 
#
# Total GULP energy -167107.826923 kJ/mol
# GULP energy per Si atom -5570.260897 kJ/mol
# Density = 1.586539 g / cm^3
# Si number density = 15.901584 Si / 1000 Ang^3
#
#
#
# Elastic Constant Matrix: (Units=GPa)
#
#
# Indices 1 2 3 4 5 6 
#
# 1 58.8945 17.8319 34.6526 0.0000 4.8710 0.0000
# 2 17.8319 61.1701 19.6585 0.0000 -6.8690 0.0000
# 3 34.6526 19.6585 85.5732 0.0000 3.3340 0.0000
# 4 0.0000 0.0000 0.0000 15.4892 0.0000 3.7222
# 5 4.8710 -6.8690 3.3340 0.0000 24.4500 0.0000
# 6 0.0000 0.0000 0.0000 3.7222 0.0000 20.9011
#
#
#
# Elastic Compliance Matrix: (Units=1/GPa)
#
#
# Indices 1 2 3 4 5 6 
#
# 1 0.023735 -0.004802 -0.008316 0.000000 -0.004944 0.000000
# 2 -0.004802 0.019402 -0.002777 0.000000 0.006786 0.000000
# 3 -0.008316 -0.002777 0.015741 0.000000 -0.001270 0.000000
# 4 0.000000 0.000000 0.000000 0.067448 0.000000 -0.012011
# 5 -0.004944 0.006786 -0.001270 0.000000 0.043964 0.000000
# 6 0.000000 0.000000 0.000000 -0.012011 0.000000 0.049983
#
#
# Mechanical properties :
#
#
# Convention : Reuss Voigt Hill
#
# Bulk Modulus (GPa) = 36.91569 38.88043 37.89806
# Shear Modulus (GPa) = 19.15031 21.06771 20.10901
#
# Velocity S-wave (km/s) = 3.47407 3.64384 3.55997
# Velocity P-wave (km/s) = 6.27357 6.49670 6.38611
#
# Compressibility (1/GPa) = 0.02708875
#
# Stress axis : x y z
#
# Youngs Moduli (GPa) = 42.13167 51.54061 63.52921
#
# Poissons Ratio (x) = 0.24749 0.52829
# Poissons Ratio (y) = 0.20231 0.17643
# Poissons Ratio (z) = 0.35036 0.14313
#
# Static dielectric constant tensor:
#      x y z
#    x 1.598350 0.000000 0.026220 
#    y 0.000000 1.382840 0.000000 
#    z 0.026220 0.000000 1.609480 
# 
# From -- ./inp_files/52025.got.cif
#   From: 2010.05.17/outbox.cif.g08.bks.cpg/sg15_27_cif.got.tgz:52025.got - 2010.06.03 18:47:42.
