data_PCOD9279593
_publ_section_title
;
Structure prediction by ZEFSAII (Michael W. Deem and Ramdas Pophale) SiO2 
 PCOD9279593
Probable space group: C 2/C
;
_chemical_formula_sum "Si O2"
_cell_formula_units_Z 48
_cell_length_a 5.446471
_cell_length_b 13.139915
_cell_length_c 31.330953
_cell_angle_alpha 90.000000
_cell_angle_beta 69.654943
_cell_angle_gamma 90.000000
_cell_volume 2102.356110
_symmetry_space_group_name_H-M "C 2/C"
_symmetry_group_IT_number 15
_symmetry_cell_setting 'monoclinic'
loop_
_space_group_symop_operation_xyz
x,y,z
-x,y,1/2-z
-x,-y,-z
x,-y,1/2+z
1/2+x,1/2+y,z
1/2-x,1/2+y,1/2-z
1/2-x,1/2-y,-z
1/2+x,1/2-y,1/2+z
loop_
_atom_site_type_symbol
_atom_site_label
_atom_site_fract_x
_atom_site_fract_y
_atom_site_fract_z
Si Si1 0.953993 0.667291 0.023004
Si Si2 0.459527 0.387275 0.520237
Si Si3 0.833947 0.386450 0.083027
Si Si4 0.254486 0.193881 0.872756
Si Si5 0.108228 0.489181 0.195886
Si Si6 0.803660 0.929482 0.848170
O O1 0.055616 0.615345 0.972192
O O2 0.973470 0.788259 0.013265
O O3 0.156226 0.630884 0.046039
O O4 0.659618 0.630884 0.046039
O O5 0.500000 0.500000 0.500000
O O6 0.050740 0.333350 0.099917
O O7 0.782041 0.493443 0.108979
O O8 0.549593 0.333350 0.099917
O O9 0.279509 0.311354 0.860245
O O10 0.342319 0.120631 0.828840
O O11 0.892358 0.544554 0.179170
O O12 0.390964 0.544554 0.179170
O O13 0.500000 0.019699 0.750000
#
# Coordination Sequence:
#
# PCOD9279593 Si02
#       6
#     8   8   8   8   8   8
#     4  10  21  36  54  80 108 140 181 222 266 320
#     4  10  21  36  54  78 110 142 179 224 268 318
#     4  10  21  36  56  80 108 140 179 222 266 318
#     4  10  21  37  55  79 108 138 175 219 263 314
#     4  10  21  36  54  78 106 136 173 214 258 312
#     4  10  21  37  55  79 108 138 175 219 263 314
#
# _framework density 22.831527000000001
#
# number of rings (size 3 to 8) (size 9 to 14) (size 15 to 20)
#    0.000    2.000    0.000    3.000    0.000    4.000 
#    0.000    0.000    0.000    0.000    0.000    0.000 
#    0.000    0.000    0.000    0.000    0.000    0.000 
#
# Total GULP energy -134321.818847 kJ/mol
# GULP energy per Si atom -5596.742452 kJ/mol
# Density = 2.277956 g / cm^3
# Si number density = 22.831527 Si / 1000 Ang^3
#
#
#
# Elastic Constant Matrix: (Units=GPa)
#
#
# Indices 1 2 3 4 5 6 
#
# 1 253.2109 97.3486 72.3614 0.0000 -6.6953 0.0000
# 2 97.3486 167.1932 61.6891 0.0000 -1.8389 0.0000
# 3 72.3614 61.6891 138.8567 0.0000 0.7984 0.0000
# 4 0.0000 0.0000 0.0000 25.5026 0.0000 -0.4106
# 5 -6.6953 -1.8389 0.7984 0.0000 25.8866 0.0000
# 6 0.0000 0.0000 0.0000 -0.4106 0.0000 33.4663
#
#
#
# Elastic Compliance Matrix: (Units=1/GPa)
#
#
# Indices 1 2 3 4 5 6 
#
# 1 0.005445 -0.002520 -0.001726 0.000000 0.001283 0.000000
# 2 -0.002520 0.008329 -0.002387 0.000000 0.000014 0.000000
# 3 -0.001726 -0.002387 0.009167 0.000000 -0.000899 0.000000
# 4 0.000000 0.000000 0.000000 0.039219 0.000000 0.000481
# 5 0.001283 0.000014 -0.000899 0.000000 0.038990 0.000000
# 6 0.000000 0.000000 0.000000 0.000481 0.000000 0.029887
#
#
# Mechanical properties :
#
#
# Convention : Reuss Voigt Hill
#
# Bulk Modulus (GPa) = 103.35065 113.56211 108.45638
# Shear Modulus (GPa) = 33.89193 38.82854 36.36024
#
# Velocity S-wave (km/s) = 3.85702 4.12837 3.99500
# Velocity P-wave (km/s) = 8.07467 8.51891 8.29976
#
# Compressibility (1/GPa) = 0.00967580
#
# Stress axis : x y z
#
# Youngs Moduli (GPa) = 183.65586 120.05996 109.09069
#
# Poissons Ratio (x) = 0.30250 0.18824
# Poissons Ratio (y) = 0.46274 0.26045
# Poissons Ratio (z) = 0.31690 0.28663
#
# Static dielectric constant tensor:
#      x y z
#    x 1.930290 0.000000 -0.005670 
#    y 0.000000 1.865130 0.000000 
#    z -0.005670 0.000000 1.820230 
# 
# From -- ./inp_files/305302.got.cif
#   From: 2010.05.17/outbox.cif.g08.bks.cpg/sg15_153_cif.got.tgz:305302.got - 2010.06.03 18:47:42.
