data_PCOD9279471
_publ_section_title
;
Structure prediction by ZEFSAII (Michael W. Deem and Ramdas Pophale) SiO2 
 PCOD9279471
Probable space group: C 2/C
;
_chemical_formula_sum "Si O2"
_cell_formula_units_Z 64
_cell_length_a 21.462296
_cell_length_b 9.490503
_cell_length_c 19.758471
_cell_angle_alpha 90.000000
_cell_angle_beta 61.239900
_cell_angle_gamma 90.000000
_cell_volume 3528.100893
_symmetry_space_group_name_H-M "C 2/C"
_symmetry_group_IT_number 15
_symmetry_cell_setting 'monoclinic'
loop_
_space_group_symop_operation_xyz
x,y,z
-x,y,1/2-z
-x,-y,-z
x,-y,1/2+z
1/2+x,1/2+y,z
1/2-x,1/2+y,1/2-z
1/2-x,1/2-y,-z
1/2+x,1/2-y,1/2+z
loop_
_atom_site_type_symbol
_atom_site_label
_atom_site_fract_x
_atom_site_fract_y
_atom_site_fract_z
Si Si1 0.924162 0.110654 0.755748
Si Si2 0.816748 0.891438 0.769855
Si Si3 0.329358 0.403625 0.436448
Si Si4 0.687921 0.100107 0.810901
Si Si5 0.679435 0.705315 0.077695
Si Si6 0.920554 0.573556 0.221964
Si Si7 0.333394 0.142997 0.521531
Si Si8 0.419938 0.028363 0.870360
O O1 0.870466 0.137955 0.846611
O O2 0.929108 0.257297 0.711684
O O3 0.000000 0.081274 0.750000
O O4 0.892036 0.975004 0.734071
O O5 0.810486 0.752360 0.726851
O O6 0.802212 0.837585 0.854345
O O7 0.761798 0.013838 0.776834
O O8 0.348733 0.563305 0.441812
O O9 0.345480 0.300984 0.489362
O O10 0.245579 0.396981 0.463398
O O11 0.663546 0.124545 0.900469
O O12 0.635201 0.996464 0.798753
O O13 0.617225 0.820002 0.111596
O O14 0.750000 0.750000 0.000000
O O15 0.897095 0.544534 0.311672
O O16 0.995371 0.492238 0.173259
O O17 0.388276 0.048260 0.451986
#
# Coordination Sequence:
#
# PCOD9279471 Si02
#       8
#     8   8   8   8   8   8   8   8
#     4  11  20  41  65  90 121 160 222 262 318 374
#     4  11  25  38  58  92 128 170 205 265 320 388
#     4  10  21  35  61  90 116 166 213 261 305 368
#     4  12  24  40  59  94 138 166 211 259 338 381
#     4  11  20  38  61  91 121 155 214 269 304 360
#     4  11  23  39  68  94 125 173 205 277 318 387
#     4  11  21  38  62  90 126 168 215 256 317 387
#     4  11  21  41  65  94 122 166 225 258 320 377
#
# _framework density 18.140072
#
# number of rings (size 3 to 8) (size 9 to 14) (size 15 to 20)
#    0.000    1.000    7.500    0.750    0.000    3.500 
#    0.000    1.250    0.000    3.750    0.000    0.000 
#    0.000    0.000    0.000    0.000    0.000    0.000 
#
# Total GULP energy -178501.380412 kJ/mol
# GULP energy per Si atom -5578.168138 kJ/mol
# Density = 1.809878 g / cm^3
# Si number density = 18.140072 Si / 1000 Ang^3
#
#
#
# Elastic Constant Matrix: (Units=GPa)
#
#
# Indices 1 2 3 4 5 6 
#
# 1 83.2433 57.9651 23.0916 0.0000 5.2975 0.0000
# 2 57.9651 161.6184 38.3406 0.0000 1.8356 0.0000
# 3 23.0916 38.3406 63.4991 0.0000 4.1900 0.0000
# 4 0.0000 0.0000 0.0000 22.3438 0.0000 -43.2445
# 5 5.2975 1.8356 4.1900 0.0000 30.8868 0.0000
# 6 0.0000 0.0000 0.0000 -43.2445 0.0000 -198.9199
#
#
#
# Elastic Compliance Matrix: (Units=1/GPa)
#
#
# Indices 1 2 3 4 5 6 
#
# 1 0.016576 -0.005281 -0.002697 0.000000 -0.002163 0.000000
# 2 -0.005281 0.008905 -0.003513 0.000000 0.000853 0.000000
# 3 -0.002697 -0.003513 0.018975 0.000000 -0.001903 0.000000
# 4 0.000000 0.000000 0.000000 0.031501 0.000000 -0.006848
# 5 -0.002163 0.000853 -0.001903 0.000000 0.032955 0.000000
# 6 0.000000 0.000000 0.000000 -0.006848 0.000000 -0.003538
#
#
# Mechanical properties :
#
#
# Convention : Reuss Voigt Hill
#
# Bulk Modulus (GPa) = 46.56338 60.79504 53.67921
# Shear Modulus (GPa) = 36.89693 -16.54032 10.17830
#
# Velocity S-wave (km/s) = 4.51488 -3.02290 2.37131
# Velocity P-wave (km/s) = 7.27347 4.62635 6.09535
#
# Compressibility (1/GPa) = 0.02147610
#
# Stress axis : x y z
#
# Youngs Moduli (GPa) = 60.32887 112.29650 52.69964
#
# Poissons Ratio (x) = 0.59300 0.14211
# Poissons Ratio (y) = 0.31858 0.18512
# Poissons Ratio (z) = 0.16268 0.39447
#
# Static dielectric constant tensor:
#      x y z
#    x 1.634190 0.000000 -0.027830 
#    y 0.000000 1.669140 0.000000 
#    z -0.027830 0.000000 1.624250 
# 
# From -- ./inp_files/251873.got.cif
#   From: 2010.05.17/outbox.cif.g08.bks.cpg/sg15_126_cif.got.tgz:251873.got - 2010.06.03 18:47:42.
