data_PCOD9279246
_publ_section_title
;
Structure prediction by ZEFSAII (Michael W. Deem and Ramdas Pophale) SiO2 
 PCOD9279246
Probable space group: C 2/C
;
_chemical_formula_sum "Si O2"
_cell_formula_units_Z 48
_cell_length_a 12.421260
_cell_length_b 10.795727
_cell_length_c 15.742235
_cell_angle_alpha 90.000000
_cell_angle_beta 73.440618
_cell_angle_gamma 90.000000
_cell_volume 2023.425971
_symmetry_space_group_name_H-M "C 2/C"
_symmetry_group_IT_number 15
_symmetry_cell_setting 'monoclinic'
loop_
_space_group_symop_operation_xyz
x,y,z
-x,y,1/2-z
-x,-y,-z
x,-y,1/2+z
1/2+x,1/2+y,z
1/2-x,1/2+y,1/2-z
1/2-x,1/2-y,-z
1/2+x,1/2-y,1/2+z
loop_
_atom_site_type_symbol
_atom_site_label
_atom_site_fract_x
_atom_site_fract_y
_atom_site_fract_z
Si Si1 0.085783 0.534595 0.289811
Si Si2 0.049119 0.611790 0.549038
Si Si3 0.489165 0.639538 0.538104
Si Si4 0.242084 0.845281 0.307926
Si Si5 0.615134 0.627191 0.672766
Si Si6 0.749334 0.118301 0.394740
O O1 0.007185 0.429485 0.350327
O O2 0.185753 0.468877 0.217303
O O3 0.146244 0.608701 0.350364
O O4 0.000000 0.610040 0.250000
O O5 0.000000 0.500000 0.500000
O O6 0.011852 0.749806 0.530063
O O7 0.183445 0.613008 0.498745
O O8 0.500000 0.500000 0.500000
O O9 0.369974 0.634714 0.612853
O O10 0.580492 0.679871 0.588958
O O11 0.203113 0.812152 0.219569
O O12 0.308169 0.740537 0.345532
O O13 0.500000 0.606035 0.750000
O O14 0.671497 0.496995 0.635528
#
# Coordination Sequence:
#
# PCOD9279246 Si02
#       6
#     8   8   8   8   8   8
#     4  10  21  35  54  81 110 146 187 231 280 337
#     4   9  20  38  55  78 115 151 187 232 283 340
#     4  10  21  37  59  85 115 151 192 238 289 340
#     4   9  20  37  56  81 112 148 188 233 285 340
#     4   9  19  36  58  84 113 149 192 241 288 340
#     4   9  19  37  57  81 113 147 189 237 286 341
#
# _framework density 23.722142999999999
#
# number of rings (size 3 to 8) (size 9 to 14) (size 15 to 20)
#    0.000    2.667    0.000    0.000    0.000   12.000 
#    0.000   10.833    0.000    0.000    0.000    0.000 
#    0.000    0.000    0.000    0.000    0.000    0.000 
#
# Total GULP energy -133908.335359 kJ/mol
# GULP energy per Si atom -5579.513973 kJ/mol
# Density = 2.366815 g / cm^3
# Si number density = 23.722143 Si / 1000 Ang^3
#
#
#
# Elastic Constant Matrix: (Units=GPa)
#
#
# Indices 1 2 3 4 5 6 
#
# 1 63.1983 4.8528 14.6064 0.0000 19.6059 0.0000
# 2 4.8528 103.8963 39.7373 0.0000 -16.6765 0.0000
# 3 14.6064 39.7373 68.0198 0.0000 3.6030 0.0000
# 4 0.0000 0.0000 0.0000 34.5250 0.0000 -4.3010
# 5 19.6059 -16.6765 3.6030 0.0000 37.6661 0.0000
# 6 0.0000 0.0000 0.0000 -4.3010 0.0000 30.4316
#
#
#
# Elastic Compliance Matrix: (Units=1/GPa)
#
#
# Indices 1 2 3 4 5 6 
#
# 1 0.019947 -0.001611 -0.002768 0.000000 -0.010831 0.000000
# 2 -0.001611 0.014162 -0.008346 0.000000 0.007907 0.000000
# 3 -0.002768 -0.008346 0.020395 0.000000 -0.004205 0.000000
# 4 0.000000 0.000000 0.000000 0.029484 0.000000 0.004167
# 5 -0.010831 0.007907 -0.004205 0.000000 0.036090 0.000000
# 6 0.000000 0.000000 0.000000 0.004167 0.000000 0.033450
#
#
# Mechanical properties :
#
#
# Convention : Reuss Voigt Hill
#
# Bulk Modulus (GPa) = 34.42142 39.27861 36.85001
# Shear Modulus (GPa) = 26.50249 32.25240 29.37744
#
# Velocity S-wave (km/s) = 3.34609 3.69126 3.52291
# Velocity P-wave (km/s) = 5.42864 5.89584 5.66706
#
# Compressibility (1/GPa) = 0.02905168
#
# Stress axis : x y z
#
# Youngs Moduli (GPa) = 50.13293 70.61394 49.03276
#
# Poissons Ratio (x) = 0.11379 0.13573
# Poissons Ratio (y) = 0.08079 0.40923
# Poissons Ratio (z) = 0.13878 0.58934
#
# Static dielectric constant tensor:
#      x y z
#    x 1.961680 0.000000 0.097380 
#    y 0.000000 1.918050 0.000000 
#    z 0.097380 0.000000 1.950000 
# 
# From -- ./inp_files/195979.got.cif
#   From: 2010.05.17/outbox.cif.g08.bks.cpg/sg15_98_cif.got.tgz:195979.got - 2010.06.03 18:47:42.
