data_PCOD9279560
_publ_section_title
;
Structure prediction by ZEFSAII (Michael W. Deem and Ramdas Pophale) SiO2 
 PCOD9279560
Probable space group: C 2/C
;
_chemical_formula_sum "Si O2"
_cell_formula_units_Z 40
_cell_length_a 19.559971
_cell_length_b 9.192501
_cell_length_c 15.194407
_cell_angle_alpha 90.000000
_cell_angle_beta 150.207546
_cell_angle_gamma 90.000000
_cell_volume 1357.436098
_symmetry_space_group_name_H-M "C 2/C"
_symmetry_group_IT_number 15
_symmetry_cell_setting 'monoclinic'
loop_
_space_group_symop_operation_xyz
x,y,z
-x,y,1/2-z
-x,-y,-z
x,-y,1/2+z
1/2+x,1/2+y,z
1/2-x,1/2+y,1/2-z
1/2-x,1/2-y,-z
1/2+x,1/2-y,1/2+z
loop_
_atom_site_type_symbol
_atom_site_label
_atom_site_fract_x
_atom_site_fract_y
_atom_site_fract_z
Si Si1 0.000000 0.419935 0.750000
Si Si2 0.121765 0.022806 0.567817
Si Si3 0.642954 0.870004 0.746157
Si Si4 0.000000 0.951534 0.750000
Si Si5 0.252432 0.609808 0.067607
Si Si6 0.873379 0.681262 0.839866
O O1 0.910789 0.325181 0.718414
O O2 0.888546 0.526056 0.580752
O O3 0.198319 0.879078 0.610289
O O4 0.067311 0.107386 0.418714
O O5 0.024357 0.309312 0.549279
O O6 0.000000 0.000000 0.500000
O O7 0.615496 0.046060 0.716416
O O8 0.747213 0.609397 0.753717
O O9 0.139588 0.000424 0.858055
O O10 0.310715 0.680133 0.221332
O O11 0.250000 0.750000 0.000000
#
# Coordination Sequence:
#
# PCOD9279560 Si02
#       6
#     4   8   8   4   8   8
#     4  12  21  36  62  86 123 166 206 267 302 382
#     4  10  21  36  52  80 121 162 208 255 306 379
#     4   9  20  37  53  78 115 176 206 238 317 382
#     4  12  23  36  56  96 123 164 202 259 332 358
#     4  12  21  33  54  88 128 155 202 259 313 374
#     4   9  20  36  49  78 121 166 207 237 321 374
#
# _framework density 29.467316
#
# number of rings (size 3 to 8) (size 9 to 14) (size 15 to 20)
#    1.200    0.400    6.000    0.600    2.800    0.000 
#    0.000    0.000    0.000    0.000    0.000    1.400 
#    0.000   13.200    1.200    0.200    0.000    0.000 
#
# Total GULP energy -111511.410369 kJ/mol
# GULP energy per Si atom -5575.570518 kJ/mol
# Density = 2.940025 g / cm^3
# Si number density = 29.467316 Si / 1000 Ang^3
#
#
#
# Elastic Constant Matrix: (Units=GPa)
#
#
# Indices 1 2 3 4 5 6 
#
# 1 254.9151 18.0079 79.0442 0.0000 50.8363 0.0000
# 2 18.0079 133.1085 46.8474 0.0000 5.4196 0.0000
# 3 79.0442 46.8474 163.4716 0.0000 26.9155 0.0000
# 4 0.0000 0.0000 0.0000 39.5923 0.0000 6.5913
# 5 50.8363 5.4196 26.9155 0.0000 83.6873 0.0000
# 6 0.0000 0.0000 0.0000 6.5913 0.0000 15.7115
#
#
#
# Elastic Compliance Matrix: (Units=1/GPa)
#
#
# Indices 1 2 3 4 5 6 
#
# 1 0.005037 0.000149 -0.002083 0.000000 -0.002399 0.000000
# 2 0.000149 0.008364 -0.002497 0.000000 0.000171 0.000000
# 3 -0.002083 -0.002497 0.008031 0.000000 -0.001156 0.000000
# 4 0.000000 0.000000 0.000000 0.027154 0.000000 -0.011392
# 5 -0.002399 0.000171 -0.001156 0.000000 0.013767 0.000000
# 6 0.000000 0.000000 0.000000 -0.011392 0.000000 0.068427
#
#
# Mechanical properties :
#
#
# Convention : Reuss Voigt Hill
#
# Bulk Modulus (GPa) = 79.55869 93.25491 86.40680
# Shear Modulus (GPa) = 34.76280 54.97127 44.86704
#
# Velocity S-wave (km/s) = 3.43841 4.32383 3.90629
# Velocity P-wave (km/s) = 6.54379 7.52615 7.05209
#
# Compressibility (1/GPa) = 0.01256934
#
# Stress axis : x y z
#
# Youngs Moduli (GPa) = 198.54016 119.55320 124.52407
#
# Poissons Ratio (x) = -0.01787 0.25941
# Poissons Ratio (y) = -0.02968 0.31100
# Poissons Ratio (z) = 0.41361 0.29858
#
# Static dielectric constant tensor:
#      x y z
#    x 2.386750 0.000000 -0.075750 
#    y 0.000000 2.465130 0.000000 
#    z -0.075750 0.000000 2.366570 
# 
# From -- ./inp_files/103229.got.cif
#   From: 2010.05.17/outbox.cif.g08.bks.cpg/sg15_52_cif.got.tgz:103229.got - 2010.06.03 18:47:42.
