data_PCOD9279517
_publ_section_title
;
Structure prediction by ZEFSAII (Michael W. Deem and Ramdas Pophale) SiO2 
 PCOD9279517
Probable space group: C 2/C
;
_chemical_formula_sum "Si O2"
_cell_formula_units_Z 48
_cell_length_a 14.494852
_cell_length_b 16.952486
_cell_length_c 17.162400
_cell_angle_alpha 90.000000
_cell_angle_beta 147.241945
_cell_angle_gamma 90.000000
_cell_volume 2281.901417
_symmetry_space_group_name_H-M "C 2/C"
_symmetry_group_IT_number 15
_symmetry_cell_setting 'monoclinic'
loop_
_space_group_symop_operation_xyz
x,y,z
-x,y,1/2-z
-x,-y,-z
x,-y,1/2+z
1/2+x,1/2+y,z
1/2-x,1/2+y,1/2-z
1/2-x,1/2-y,-z
1/2+x,1/2-y,1/2+z
loop_
_atom_site_type_symbol
_atom_site_label
_atom_site_fract_x
_atom_site_fract_y
_atom_site_fract_z
Si Si1 0.905262 0.776372 0.014067
Si Si2 0.617291 0.241831 0.977410
Si Si3 0.140437 0.378597 0.914802
Si Si4 0.891112 0.864711 0.751176
Si Si5 0.185686 0.522910 0.600909
Si Si6 0.275290 0.819152 0.278548
O O1 0.920767 0.700060 0.081796
O O2 0.088661 0.802761 0.114750
O O3 0.808651 0.846238 0.990341
O O4 0.803003 0.744269 0.867512
O O5 0.520282 0.326806 0.905422
O O6 0.447927 0.185807 0.849777
O O7 0.750000 0.250000 0.000000
O O8 0.734304 0.195920 0.123650
O O9 0.000000 0.400355 0.750000
O O10 0.176102 0.446381 0.004233
O O11 0.000000 0.869102 0.750000
O O12 0.809481 0.949779 0.705017
O O13 0.237433 0.597567 0.688364
O O14 0.000000 0.500000 0.500000
#
# Coordination Sequence:
#
# PCOD9279517 Si02
#       6
#     8   8   8   8   8   8
#     4  10  21  35  63  97 124 166 215 254 323 388
#     4  10  21  40  65  91 123 172 224 266 312 386
#     4  10  21  39  61  93 135 169 206 261 323 397
#     4  10  22  41  65  91 119 167 222 270 324 384
#     4  11  24  39  63  95 135 168 211 267 338 391
#     4  11  21  37  65  94 132 164 211 271 320 392
#
# _framework density 21.035088999999999
#
# number of rings (size 3 to 8) (size 9 to 14) (size 15 to 20)
#    0.000    1.667    3.333    1.000    4.667    0.000 
#    0.000    4.167    0.000    3.000    0.000    0.000 
#    0.000    0.000    0.000    0.000    0.000    0.000 
#
# Total GULP energy -133739.844067 kJ/mol
# GULP energy per Si atom -5572.493503 kJ/mol
# Density = 2.098721 g / cm^3
# Si number density = 21.035089 Si / 1000 Ang^3
#
#
#
# Elastic Constant Matrix: (Units=GPa)
#
#
# Indices 1 2 3 4 5 6 
#
# 1 113.8601 67.4155 51.3477 0.0011 18.4713 0.0005
# 2 67.4155 90.3678 51.9632 0.0078 9.7870 0.0029
# 3 51.3477 51.9632 115.0589 0.0139 21.4034 0.0063
# 4 0.0011 0.0078 0.0139 33.2204 0.0022 4.9019
# 5 18.4713 9.7870 21.4034 0.0022 37.7286 0.0005
# 6 0.0005 0.0029 0.0063 4.9019 0.0005 37.5939
#
#
#
# Elastic Compliance Matrix: (Units=1/GPa)
#
#
# Indices 1 2 3 4 5 6 
#
# 1 0.016837 -0.011122 -0.001670 0.000003 -0.004410 0.000001
# 2 -0.011122 0.022295 -0.005637 -0.000003 0.002860 0.000000
# 3 -0.001670 -0.005637 0.012922 -0.000004 -0.005051 -0.000001
# 4 0.000003 -0.000003 -0.000004 0.030693 0.000000 -0.004002
# 5 -0.004410 0.002860 -0.005051 0.000000 0.030788 0.000000
# 6 0.000001 0.000000 -0.000001 -0.004002 0.000000 0.027122
#
#
# Mechanical properties :
#
#
# Convention : Reuss Voigt Hill
#
# Bulk Modulus (GPa) = 65.81564 73.41553 69.61558
# Shear Modulus (GPa) = 27.38505 31.61260 29.49882
#
# Velocity S-wave (km/s) = 3.61206 3.88087 3.74888
# Velocity P-wave (km/s) = 6.98229 7.42016 7.20455
#
# Compressibility (1/GPa) = 0.01519396
#
# Stress axis : x y z
#
# Youngs Moduli (GPa) = 59.39314 44.85252 77.38679
#
# Poissons Ratio (x) = 0.49887 0.12926
# Poissons Ratio (y) = 0.66060 0.43626
# Poissons Ratio (z) = 0.09920 0.25285
#
# Static dielectric constant tensor:
#      x y z
#    x 1.845840 0.000000 0.008850 
#    y 0.000000 1.808840 -0.000010 
#    z 0.008850 -0.000010 1.586280 
# 
# From -- ./inp_files/205299.got.cif
#   From: 2010.05.17/outbox.cif.g08.bks.cpg/sg15_103_cif.got.tgz:205299.got - 2010.06.03 18:47:42.
