data_PCOD9279980
_publ_section_title
;
Structure prediction by ZEFSAII (Michael W. Deem and Ramdas Pophale) SiO2 
 PCOD9279980
Probable space group: C 2/C
;
_chemical_formula_sum "Si O2"
_cell_formula_units_Z 60
_cell_length_a 20.295535
_cell_length_b 6.493718
_cell_length_c 22.816861
_cell_angle_alpha 90.000000
_cell_angle_beta 107.881762
_cell_angle_gamma 90.000000
_cell_volume 2861.846470
_symmetry_space_group_name_H-M "C 2/C"
_symmetry_group_IT_number 15
_symmetry_cell_setting 'monoclinic'
loop_
_space_group_symop_operation_xyz
x,y,z
-x,y,1/2-z
-x,-y,-z
x,-y,1/2+z
1/2+x,1/2+y,z
1/2-x,1/2+y,1/2-z
1/2-x,1/2-y,-z
1/2+x,1/2-y,1/2+z
loop_
_atom_site_type_symbol
_atom_site_label
_atom_site_fract_x
_atom_site_fract_y
_atom_site_fract_z
Si Si1 0.148307 0.198673 0.456901
Si Si2 0.000000 0.971709 0.250000
Si Si3 0.413313 0.103637 0.198121
Si Si4 0.007727 0.706683 0.856941
Si Si5 0.266634 0.449161 0.421754
Si Si6 0.253251 0.174336 0.308501
Si Si7 0.793553 0.154113 0.608177
Si Si8 0.638723 0.876615 0.207234
O O1 0.068859 0.249695 0.420071
O O2 0.200966 0.363995 0.441920
O O3 0.168626 0.165063 0.529787
O O4 0.172295 0.987087 0.431787
O O5 0.937468 0.810284 0.237259
O O6 0.988967 0.111007 0.190286
O O7 0.348159 0.178082 0.144392
O O8 0.469481 0.004367 0.169876
O O9 0.394058 0.926286 0.238233
O O10 0.926238 0.691225 0.850070
O O11 0.261044 0.369600 0.353555
O O12 0.269515 0.696731 0.426796
O O13 0.200755 0.221042 0.240834
O O14 0.224302 0.997164 0.343528
O O15 0.324974 0.084264 0.304748
#
# Coordination Sequence:
#
# PCOD9279980 Si02
#       8
#     8   4   8   8   8   8   8   8
#     4  10  21  36  62  92 118 157 198 255 310 352
#     4  12  20  34  56  88 124 150 178 252 320 352
#     4  12  20  35  59  91 120 147 193 248 305 363
#     4  12  22  37  58  91 123 150 197 251 307 360
#     4  10  21  39  60  88 124 155 206 251 293 364
#     4  11  25  40  58  86 120 165 206 244 297 358
#     4  11  19  37  61  87 118 155 200 249 300 357
#     4  12  23  41  57  86 123 160 199 247 299 367
#
# _framework density 20.965485999999999
#
# number of rings (size 3 to 8) (size 9 to 14) (size 15 to 20)
#    0.000    0.800    6.667    2.800    0.000    0.000 
#    0.000    0.667    0.000    0.800    0.000    0.000 
#    0.000    0.000    0.000    0.000    0.000    0.000 
#
# Total GULP energy -167414.385471 kJ/mol
# GULP energy per Si atom -5580.479516 kJ/mol
# Density = 2.091777 g / cm^3
# Si number density = 20.965486 Si / 1000 Ang^3
#
#
#
# Elastic Constant Matrix: (Units=GPa)
#
#
# Indices 1 2 3 4 5 6 
#
# 1 64.3725 8.6804 27.0808 0.0000 22.2845 0.0000
# 2 8.6804 73.0194 3.6552 0.0000 2.4154 0.0000
# 3 27.0808 3.6552 69.3689 0.0000 27.0544 0.0000
# 4 0.0000 0.0000 0.0000 17.8166 0.0000 5.2728
# 5 22.2845 2.4154 27.0544 0.0000 29.8414 0.0000
# 6 0.0000 0.0000 0.0000 5.2728 0.0000 34.6193
#
#
#
# Elastic Compliance Matrix: (Units=1/GPa)
#
#
# Indices 1 2 3 4 5 6 
#
# 1 0.021707 -0.001984 -0.003264 0.000000 -0.013090 0.000000
# 2 -0.001984 0.013922 -0.000151 0.000000 0.000491 0.000000
# 3 -0.003264 -0.000151 0.022807 0.000000 -0.018227 0.000000
# 4 0.000000 0.000000 0.000000 0.058777 0.000000 -0.008952
# 5 -0.013090 0.000491 -0.018227 0.000000 0.059770 0.000000
# 6 0.000000 0.000000 0.000000 -0.008952 0.000000 0.030249
#
#
# Mechanical properties :
#
#
# Convention : Reuss Voigt Hill
#
# Bulk Modulus (GPa) = 20.99197 31.73262 26.36230
# Shear Modulus (GPa) = 21.37582 27.61176 24.49379
#
# Velocity S-wave (km/s) = 3.19654 3.63300 3.42174
# Velocity P-wave (km/s) = 4.86397 5.72423 5.31154
#
# Compressibility (1/GPa) = 0.04763726
#
# Stress axis : x y z
#
# Youngs Moduli (GPa) = 46.06832 71.82809 43.84701
#
# Poissons Ratio (x) = 0.14251 0.14314
# Poissons Ratio (y) = 0.09140 0.00661
# Poissons Ratio (z) = 0.15039 0.01082
#
# Static dielectric constant tensor:
#      x y z
#    x 1.796810 0.000000 0.058030 
#    y 0.000000 1.767890 0.000000 
#    z 0.058030 0.000000 1.830680 
# 
# From -- ./inp_files/317024.got.cif
#   From: 2010.05.17/outbox.cif.g08.bks.cpg/sg15_159_cif.got.tgz:317024.got - 2010.06.03 18:47:42.
