data_PCOD9279503
_publ_section_title
;
Structure prediction by ZEFSAII (Michael W. Deem and Ramdas Pophale) SiO2 
 PCOD9279503
Probable space group: C 2/C
;
_chemical_formula_sum "Si O2"
_cell_formula_units_Z 28
_cell_length_a 10.965715
_cell_length_b 24.461676
_cell_length_c 5.145247
_cell_angle_alpha 90.000000
_cell_angle_beta 63.206166
_cell_angle_gamma 90.000000
_cell_volume 1231.978078
_symmetry_space_group_name_H-M "C 2/C"
_symmetry_group_IT_number 15
_symmetry_cell_setting 'monoclinic'
loop_
_space_group_symop_operation_xyz
x,y,z
-x,y,1/2-z
-x,-y,-z
x,-y,1/2+z
1/2+x,1/2+y,z
1/2-x,1/2+y,1/2-z
1/2-x,1/2-y,-z
1/2+x,1/2-y,1/2+z
loop_
_atom_site_type_symbol
_atom_site_label
_atom_site_fract_x
_atom_site_fract_y
_atom_site_fract_z
Si Si1 0.000000 0.540823 0.250000
Si Si2 0.332409 0.306478 0.888372
Si Si3 0.243666 0.874640 0.032265
Si Si4 0.349680 0.478448 0.595284
O O1 0.875606 0.585287 0.388258
O O2 0.000000 0.500000 0.500000
O O3 0.500000 0.301137 0.750000
O O4 0.276360 0.328341 0.665811
O O5 0.250000 0.250000 0.000000
O O6 0.285443 0.348583 0.160425
O O7 0.137637 0.919187 0.031887
O O8 0.500000 0.500000 0.500000
O O9 0.282238 0.517314 0.442927
#
# Coordination Sequence:
#
# PCOD9279503 Si02
#       4
#     4   8   8   8
#     4  12  26  48  78 114 164 214 248 300 382 474
#     4  12  30  51  80 109 147 197 265 331 394 449
#     4  12  26  46  78 111 151 200 256 308 389 457
#     4  10  21  35  62  97 148 176 222 289 352 431
#
# _framework density 22.727675999999999
#
# number of rings (size 3 to 8) (size 9 to 14) (size 15 to 20)
#    0.000    0.571    0.000    6.857   16.000    0.000 
#    0.000    0.000    0.000    0.000    0.000    0.000 
#    0.000    0.000    0.000    0.000    0.000    0.000 
#
# Total GULP energy -78052.664084 kJ/mol
# GULP energy per Si atom -5575.190292 kJ/mol
# Density = 2.267595 g / cm^3
# Si number density = 22.727676 Si / 1000 Ang^3
#
#
#
# Elastic Constant Matrix: (Units=GPa)
#
#
# Indices 1 2 3 4 5 6 
#
# 1 112.6994 40.9398 56.0262 0.0000 -21.7750 0.0000
# 2 40.9398 126.6627 33.6436 0.0000 -23.3568 0.0000
# 3 56.0262 33.6436 135.6996 0.0000 12.8129 0.0000
# 4 0.0000 0.0000 0.0000 61.3640 0.0000 3.1539
# 5 -21.7750 -23.3568 12.8129 0.0000 54.8280 0.0000
# 6 0.0000 0.0000 0.0000 3.1539 0.0000 52.6152
#
#
#
# Elastic Compliance Matrix: (Units=1/GPa)
#
#
# Indices 1 2 3 4 5 6 
#
# 1 0.013489 -0.001751 -0.005696 0.000000 0.005942 0.000000
# 2 -0.001751 0.009734 -0.002062 0.000000 0.003933 0.000000
# 3 -0.005696 -0.002062 0.010766 0.000000 -0.005657 0.000000
# 4 0.000000 0.000000 0.000000 0.016347 0.000000 -0.000980
# 5 0.005942 0.003933 -0.005657 0.000000 0.023596 0.000000
# 6 0.000000 0.000000 0.000000 -0.000980 0.000000 0.019065
#
#
# Mechanical properties :
#
#
# Convention : Reuss Voigt Hill
#
# Bulk Modulus (GPa) = 66.79462 70.69786 68.74624
# Shear Modulus (GPa) = 42.73318 50.05826 46.39572
#
# Velocity S-wave (km/s) = 4.34086 4.69820 4.52306
# Velocity P-wave (km/s) = 7.38763 7.78491 7.58887
#
# Compressibility (1/GPa) = 0.01497127
#
# Stress axis : x y z
#
# Youngs Moduli (GPa) = 74.13343 102.73437 92.88305
#
# Poissons Ratio (x) = 0.17991 0.52908
# Poissons Ratio (y) = 0.12982 0.19149
# Poissons Ratio (z) = 0.42228 0.21180
#
# Static dielectric constant tensor:
#      x y z
#    x 2.090710 0.000000 -0.232120 
#    y 0.000000 1.880300 0.000000 
#    z -0.232120 0.000000 2.361850 
# 
# From -- ./inp_files/3618.got.cif
#   From: 2010.05.17/outbox.cif.g08.bks.cpg/sg15_2_cif.got.tgz:3618.got - 2010.06.03 18:47:42.
