data_PCOD9279574
_publ_section_title
;
Structure prediction by ZEFSAII (Michael W. Deem and Ramdas Pophale) SiO2 
 PCOD9279574
Probable space group: C 2/C
;
_chemical_formula_sum "Si O2"
_cell_formula_units_Z 44
_cell_length_a 14.152771
_cell_length_b 18.948018
_cell_length_c 17.414867
_cell_angle_alpha 90.000000
_cell_angle_beta 148.069720
_cell_angle_gamma 90.000000
_cell_volume 2469.950588
_symmetry_space_group_name_H-M "C 2/C"
_symmetry_group_IT_number 15
_symmetry_cell_setting 'monoclinic'
loop_
_space_group_symop_operation_xyz
x,y,z
-x,y,1/2-z
-x,-y,-z
x,-y,1/2+z
1/2+x,1/2+y,z
1/2-x,1/2+y,1/2-z
1/2-x,1/2-y,-z
1/2+x,1/2-y,1/2+z
loop_
_atom_site_type_symbol
_atom_site_label
_atom_site_fract_x
_atom_site_fract_y
_atom_site_fract_z
Si Si1 0.285894 0.021712 0.923448
Si Si2 0.500000 0.255107 0.750000
Si Si3 0.902248 0.894800 0.430992
Si Si4 0.405583 0.268015 0.521363
Si Si5 0.956544 0.610895 0.916108
Si Si6 0.068320 0.991296 0.422332
O O1 0.382864 0.088652 0.950012
O O2 0.210054 0.032090 0.956331
O O3 0.118867 0.002284 0.752761
O O4 0.414303 0.954107 0.014438
O O5 0.494857 0.291173 0.663339
O O6 0.307298 0.217594 0.616869
O O7 0.970042 0.817383 0.497994
O O8 0.713650 0.890768 0.257546
O O9 0.036872 0.934632 0.467560
O O10 0.885284 0.937990 0.498897
O O11 0.448034 0.186348 0.531643
#
# Coordination Sequence:
#
# PCOD9279574 Si02
#       6
#     8   4   8   8   8   8
#     4   9  20  36  57  77 103 139 179 216 262 311
#     4  10  24  34  52  82 110 142 172 208 280 306
#     4  10  21  36  53  79 109 138 172 220 262 312
#     4  11  22  36  53  82 108 140 175 220 259 322
#     4  10  21  36  53  79 109 138 172 220 262 312
#     4   9  20  36  57  77 103 139 179 216 262 311
#
# _framework density 17.814122000000001
#
# number of rings (size 3 to 8) (size 9 to 14) (size 15 to 20)
#    0.000    2.182    1.818    0.000    7.636    0.727 
#    0.000    0.909    0.000    0.000    0.000    0.000 
#    0.000    0.000    0.000    0.000    0.000    0.000 
#
# Total GULP energy -122501.754692 kJ/mol
# GULP energy per Si atom -5568.261577 kJ/mol
# Density = 1.777358 g / cm^3
# Si number density = 17.814122 Si / 1000 Ang^3
#
#
#
# Elastic Constant Matrix: (Units=GPa)
#
#
# Indices 1 2 3 4 5 6 
#
# 1 114.3822 43.8123 32.1214 -0.0034 -12.2874 0.0003
# 2 43.8123 97.3208 26.5352 -0.0236 -8.0603 -0.0045
# 3 32.1214 26.5352 55.6815 -0.0109 -9.1078 0.0025
# 4 -0.0034 -0.0236 -0.0109 16.7562 -0.0087 -7.7878
# 5 -12.2874 -8.0603 -9.1078 -0.0087 25.4075 0.0018
# 6 0.0003 -0.0045 0.0025 -7.7878 0.0018 7.2126
#
#
#
# Elastic Compliance Matrix: (Units=1/GPa)
#
#
# Indices 1 2 3 4 5 6 
#
# 1 0.011786 -0.003841 -0.004499 -0.000011 0.002868 -0.000014
# 2 -0.003841 0.013143 -0.003898 0.000040 0.000915 0.000053
# 3 -0.004499 -0.003898 0.023215 0.000012 0.004910 0.000001
# 4 -0.000011 0.000040 0.000012 0.119800 0.000044 0.129353
# 5 0.002868 0.000915 0.004910 0.000044 0.042796 0.000036
# 6 -0.000014 0.000053 0.000001 0.129353 0.000036 0.278314
#
#
# Mechanical properties :
#
#
# Convention : Reuss Voigt Hill
#
# Bulk Modulus (GPa) = 42.25207 52.48024 47.36616
# Shear Modulus (GPa) = 9.58921 20.86964 15.22942
#
# Velocity S-wave (km/s) = 2.32263 3.42646 2.92705
# Velocity P-wave (km/s) = 5.56441 6.72146 6.17012
#
# Compressibility (1/GPa) = 0.02366748
#
# Stress axis : x y z
#
# Youngs Moduli (GPa) = 84.84944 76.08514 43.07522
#
# Poissons Ratio (x) = 0.29228 0.19380
# Poissons Ratio (y) = 0.32594 0.16790
# Poissons Ratio (z) = 0.38174 0.29656
#
# Static dielectric constant tensor:
#      x y z
#    x 1.637880 0.000000 -0.002860 
#    y 0.000000 1.617840 0.000000 
#    z -0.002860 0.000000 1.618210 
# 
# From -- ./inp_files/39132.got.cif
#   From: 2010.05.17/outbox.cif.g08.bks.cpg/sg15_20_cif.got.tgz:39132.got - 2010.06.03 18:47:42.
