data_PCOD9279976
_publ_section_title
;
Structure prediction by ZEFSAII (Michael W. Deem and Ramdas Pophale) SiO2 
 PCOD9279976
Probable space group: C 2/C
;
_chemical_formula_sum "Si O2"
_cell_formula_units_Z 56
_cell_length_a 16.353461
_cell_length_b 16.428647
_cell_length_c 19.783062
_cell_angle_alpha 90.000000
_cell_angle_beta 148.745860
_cell_angle_gamma 90.000000
_cell_volume 2757.619111
_symmetry_space_group_name_H-M "C 2/C"
_symmetry_group_IT_number 15
_symmetry_cell_setting 'monoclinic'
loop_
_space_group_symop_operation_xyz
x,y,z
-x,y,1/2-z
-x,-y,-z
x,-y,1/2+z
1/2+x,1/2+y,z
1/2-x,1/2+y,1/2-z
1/2-x,1/2-y,-z
1/2+x,1/2-y,1/2+z
loop_
_atom_site_type_symbol
_atom_site_label
_atom_site_fract_x
_atom_site_fract_y
_atom_site_fract_z
Si Si1 0.424719 0.359333 0.627466
Si Si2 0.960809 0.377665 0.009239
Si Si3 0.261519 0.014389 0.835123
Si Si4 0.550633 0.829574 0.358294
Si Si5 0.405320 0.676261 0.752475
Si Si6 0.068936 0.769243 0.508262
Si Si7 0.425173 0.567894 0.400220
O O1 0.500000 0.392396 0.750000
O O2 0.486977 0.266449 0.665272
O O3 0.236868 0.346116 0.496726
O O4 0.475953 0.409431 0.597583
O O5 0.030089 0.366008 0.132786
O O6 0.084540 0.429383 0.054139
O O7 0.806182 0.432911 0.906957
O O8 0.948416 0.290975 0.963510
O O9 0.127843 0.079257 0.760382
O O10 0.229600 0.975210 0.739342
O O11 0.500000 0.861795 0.250000
O O12 0.500000 0.688215 0.750000
O O13 0.237973 0.723428 0.626784
O O14 0.498162 0.709129 0.884505
O O15 0.092305 0.850724 0.568595
O O16 0.500000 0.500000 0.500000
#
# Coordination Sequence:
#
# PCOD9279976 Si02
#       7
#     8   8   8   8   8   8   8
#     4  10  22  38  60  93 124 160 204 255 318 375
#     4  10  21  42  64  91 127 168 211 255 320 396
#     4  10  23  39  63  94 126 164 210 262 325 370
#     4  10  21  36  62  91 122 161 200 255 309 380
#     4  11  24  43  67  97 127 169 217 268 322 379
#     4  11  23  43  70  91 125 175 218 265 313 388
#     4  12  23  40  63  94 128 163 217 266 308 376
#
# _framework density 20.307372999999998
#
# number of rings (size 3 to 8) (size 9 to 14) (size 15 to 20)
#    0.000    1.429    2.857    2.143    2.000    1.714 
#    0.000    0.000    0.000    0.000    0.000    0.000 
#    0.000    0.000    0.000    0.000    0.000    0.000 
#
# Total GULP energy -156092.582175 kJ/mol
# GULP energy per Si atom -5574.735078 kJ/mol
# Density = 2.026115 g / cm^3
# Si number density = 20.307373 Si / 1000 Ang^3
#
#
#
# Elastic Constant Matrix: (Units=GPa)
#
#
# Indices 1 2 3 4 5 6 
#
# 1 92.8573 58.2580 37.3041 0.0004 -25.5476 0.0001
# 2 58.2580 142.1398 58.7547 0.0004 -12.3821 0.0001
# 3 37.3041 58.7547 103.3364 0.0011 -31.7229 0.0002
# 4 0.0004 0.0004 0.0011 35.2429 0.0007 -6.4589
# 5 -25.5476 -12.3821 -31.7229 0.0007 39.7588 0.0001
# 6 0.0001 0.0001 0.0002 -6.4589 0.0001 3.0580
#
#
#
# Elastic Compliance Matrix: (Units=1/GPa)
#
#
# Indices 1 2 3 4 5 6 
#
# 1 0.017202 -0.006343 0.000243 -0.000001 0.009272 -0.000002
# 2 -0.006343 0.011627 -0.005908 0.000001 -0.005169 0.000002
# 3 0.000243 -0.005908 0.016464 -0.000002 0.011453 -0.000005
# 4 -0.000001 0.000001 -0.000002 0.046294 -0.000003 0.097779
# 5 0.009272 -0.005169 0.011453 -0.000003 0.038638 -0.000009
# 6 -0.000002 0.000002 -0.000005 0.097779 -0.000009 0.533534
#
#
# Mechanical properties :
#
#
# Convention : Reuss Voigt Hill
#
# Bulk Modulus (GPa) = 46.99732 71.88525 59.44128
# Shear Modulus (GPa) = 7.19561 27.87971 17.53766
#
# Velocity S-wave (km/s) = 1.88442 3.70927 2.94191
# Velocity P-wave (km/s) = 5.28469 7.33623 6.39329
#
# Compressibility (1/GPa) = 0.02127781
#
# Stress axis : x y z
#
# Youngs Moduli (GPa) = 58.13151 86.00685 60.73787
#
# Poissons Ratio (x) = 0.54558 -0.01477
# Poissons Ratio (y) = 0.36875 0.35881
# Poissons Ratio (z) = -0.01414 0.50809
#
# Static dielectric constant tensor:
#      x y z
#    x 1.736120 0.000000 0.014950 
#    y 0.000000 1.767820 0.000000 
#    z 0.014950 0.000000 1.801940 
# 
# From -- ./inp_files/206304.got.cif
#   From: 2010.05.17/outbox.cif.g08.bks.cpg/sg15_104_cif.got.tgz:206304.got - 2010.06.03 18:47:42.
