data_PCOD9279926
_publ_section_title
;
Structure prediction by ZEFSAII (Michael W. Deem and Ramdas Pophale) SiO2 
 PCOD9279926
Probable space group: C 2/C
;
_chemical_formula_sum "Si O2"
_cell_formula_units_Z 56
_cell_length_a 21.125564
_cell_length_b 22.657650
_cell_length_c 5.711234
_cell_angle_alpha 90.000000
_cell_angle_beta 89.036844
_cell_angle_gamma 90.000000
_cell_volume 2733.328095
_symmetry_space_group_name_H-M "C 2/C"
_symmetry_group_IT_number 15
_symmetry_cell_setting 'monoclinic'
loop_
_space_group_symop_operation_xyz
x,y,z
-x,y,1/2-z
-x,-y,-z
x,-y,1/2+z
1/2+x,1/2+y,z
1/2-x,1/2+y,1/2-z
1/2-x,1/2-y,-z
1/2+x,1/2-y,1/2+z
loop_
_atom_site_type_symbol
_atom_site_label
_atom_site_fract_x
_atom_site_fract_y
_atom_site_fract_z
Si Si1 0.926702 0.021263 0.279755
Si Si2 0.599761 0.657160 0.164533
Si Si3 0.363061 0.153941 0.790851
Si Si4 0.846025 0.233561 0.962325
Si Si5 0.732901 0.314645 0.402956
Si Si6 0.575915 0.968137 0.267131
Si Si7 0.442865 0.232816 0.082619
O O1 0.923755 0.091062 0.325657
O O2 0.000000 0.001142 0.250000
O O3 0.899021 0.992437 0.521164
O O4 0.610297 0.684822 0.418792
O O5 0.669711 0.661434 0.036951
O O6 0.553026 0.703627 0.041668
O O7 0.344752 0.210591 0.632888
O O8 0.295862 0.146264 0.928621
O O9 0.385765 0.092213 0.690316
O O10 0.425421 0.179293 0.916367
O O11 0.786550 0.197897 0.866431
O O12 0.879370 0.260108 0.735122
O O13 0.750000 0.250000 0.500000
O O14 0.500000 0.958498 0.250000
O O15 0.590367 0.006964 0.501708
O O16 0.500000 0.220793 0.250000
#
# Coordination Sequence:
#
# PCOD9279926 Si02
#       7
#     8   8   8   8   8   8   8
#     4  10  24  43  66  91 124 173 223 264 314 377
#     4  10  23  38  61  91 128 171 206 263 323 379
#     4  11  23  38  65  91 125 169 214 261 325 388
#     4  10  21  36  61  92 128 165 203 262 323 397
#     4  11  20  40  58  96 128 166 209 251 328 392
#     4  10  25  46  67  91 126 172 222 271 325 380
#     4  10  23  34  58  97 131 160 204 266 330 394
#
# _framework density 20.487843999999999
#
# number of rings (size 3 to 8) (size 9 to 14) (size 15 to 20)
#    0.000    1.714    4.286    0.429   10.000    2.286 
#    0.000    1.429    0.000    0.000    0.000    0.000 
#    0.000    0.000    0.000    0.000    0.000    0.000 
#
# Total GULP energy -155870.018015 kJ/mol
# GULP energy per Si atom -5566.786358 kJ/mol
# Density = 2.044121 g / cm^3
# Si number density = 20.487844 Si / 1000 Ang^3
#
#
#
# Elastic Constant Matrix: (Units=GPa)
#
#
# Indices 1 2 3 4 5 6 
#
# 1 65.9350 13.0942 13.5411 0.0000 18.5337 0.0000
# 2 13.0942 58.4666 18.4544 0.0000 -1.4296 0.0000
# 3 13.5411 18.4544 88.8323 0.0000 13.3315 0.0000
# 4 0.0000 0.0000 0.0000 -16.2618 0.0000 -6.5721
# 5 18.5337 -1.4296 13.3315 0.0000 27.7251 0.0000
# 6 0.0000 0.0000 0.0000 -6.5721 0.0000 22.4894
#
#
#
# Elastic Compliance Matrix: (Units=1/GPa)
#
#
# Indices 1 2 3 4 5 6 
#
# 1 0.019934 -0.004794 -0.000006 0.000000 -0.013570 0.000000
# 2 -0.004794 0.019690 -0.004303 0.000000 0.006289 0.000000
# 3 -0.000006 -0.004303 0.013132 0.000000 -0.006532 0.000000
# 4 0.000000 0.000000 0.000000 -0.054998 0.000000 -0.016072
# 5 -0.013570 0.006289 -0.006532 0.000000 0.048605 0.000000
# 6 0.000000 0.000000 0.000000 -0.016072 0.000000 0.039769
#
#
# Mechanical properties :
#
#
# Convention : Reuss Voigt Hill
#
# Bulk Modulus (GPa) = 28.94494 33.71261 31.32878
# Shear Modulus (GPa) = 43.15715 18.00015 30.57865
#
# Velocity S-wave (km/s) = 4.59462 2.96730 3.86751
# Velocity P-wave (km/s) = 6.50429 5.31323 5.93870
#
# Compressibility (1/GPa) = 0.03454835
#
# Stress axis : x y z
#
# Youngs Moduli (GPa) = 50.16506 50.78812 76.14711
#
# Poissons Ratio (x) = 0.24349 0.00047
# Poissons Ratio (y) = 0.24051 0.32770
# Poissons Ratio (z) = 0.00031 0.21857
#
# Static dielectric constant tensor:
#      x y z
#    x 1.772950 0.000000 -0.030540 
#    y 0.000000 1.692810 0.000000 
#    z -0.030540 0.000000 1.845720 
# 
# From -- ./inp_files/15673.got.cif
#   From: 2010.05.17/outbox.cif.g08.bks.cpg/sg15_8_cif.got.tgz:15673.got - 2010.06.03 18:47:42.
