data_PCOD9279766
_publ_section_title
;
Structure prediction by ZEFSAII (Michael W. Deem and Ramdas Pophale) SiO2 
 PCOD9279766
Probable space group: C 2/C
;
_chemical_formula_sum "Si O2"
_cell_formula_units_Z 56
_cell_length_a 16.890596
_cell_length_b 9.026887
_cell_length_c 27.809880
_cell_angle_alpha 90.000000
_cell_angle_beta 143.799241
_cell_angle_gamma 90.000000
_cell_volume 2504.306991
_symmetry_space_group_name_H-M "C 2/C"
_symmetry_group_IT_number 15
_symmetry_cell_setting 'monoclinic'
loop_
_space_group_symop_operation_xyz
x,y,z
-x,y,1/2-z
-x,-y,-z
x,-y,1/2+z
1/2+x,1/2+y,z
1/2-x,1/2+y,1/2-z
1/2-x,1/2-y,-z
1/2+x,1/2-y,1/2+z
loop_
_atom_site_type_symbol
_atom_site_label
_atom_site_fract_x
_atom_site_fract_y
_atom_site_fract_z
Si Si1 0.761028 0.941010 0.731043
Si Si2 0.314358 0.629136 0.842597
Si Si3 0.826746 0.379471 0.396800
Si Si4 0.952936 0.552869 0.113832
Si Si5 0.887393 0.649984 0.495427
Si Si6 0.885461 0.198086 0.513173
Si Si7 0.273857 0.063596 0.597627
O O1 0.773094 0.770717 0.719160
O O2 0.609182 0.946059 0.677738
O O3 0.843307 0.009536 0.815196
O O4 0.770798 0.061850 0.692696
O O5 0.459599 0.694404 0.928238
O O6 0.249778 0.551627 0.857078
O O7 0.864679 0.533421 0.441400
O O8 0.796896 0.277936 0.428176
O O9 0.956402 0.305376 0.434842
O O10 0.894439 0.710836 0.067192
O O11 0.915287 0.495754 0.147843
O O12 0.885222 0.436821 0.044209
O O13 0.771734 0.769998 0.435671
O O14 0.829396 0.034551 0.484348
#
# Coordination Sequence:
#
# PCOD9279766 Si02
#       7
#     8   8   8   8   8   8   8
#     4  10  22  39  56  82 116 157 193 245 300 351
#     4  11  23  36  58  85 116 149 204 247 288 349
#     4   9  16  35  56  77 112 146 187 242 297 322
#     4   9  21  37  55  82 119 155 177 235 312 355
#     4   9  16  31  55  80 107 141 184 238 282 338
#     4  10  21  36  58  89 116 146 193 252 295 344
#     4  12  20  33  58  90 112 146 198 240 280 367
#
# _framework density 22.361474999999999
#
# number of rings (size 3 to 8) (size 9 to 14) (size 15 to 20)
#    0.000    2.000    2.857    3.000    2.000    1.714 
#    0.000    0.000    0.000    0.000    0.000    0.000 
#    0.000    0.000    0.000    0.000    0.000    0.000 
#
# Total GULP energy -156074.457144 kJ/mol
# GULP energy per Si atom -5574.087755 kJ/mol
# Density = 2.231058 g / cm^3
# Si number density = 22.361475 Si / 1000 Ang^3
#
#
#
# Elastic Constant Matrix: (Units=GPa)
#
#
# Indices 1 2 3 4 5 6 
#
# 1 84.3419 21.2456 5.4461 0.0000 -19.1314 0.0000
# 2 21.2456 67.1278 19.9858 0.0000 -5.9974 0.0000
# 3 5.4461 19.9858 31.1485 0.0000 -16.4630 0.0000
# 4 0.0000 0.0000 0.0000 21.3205 0.0000 -8.0118
# 5 -19.1314 -5.9974 -16.4630 0.0000 23.3474 0.0000
# 6 0.0000 0.0000 0.0000 -8.0118 0.0000 32.5994
#
#
#
# Elastic Compliance Matrix: (Units=1/GPa)
#
#
# Indices 1 2 3 4 5 6 
#
# 1 0.018015 -0.007774 0.013685 0.000000 0.022415 0.000000
# 2 -0.007774 0.022265 -0.021154 0.000000 -0.015567 0.000000
# 3 0.013685 -0.021154 0.073869 0.000000 0.057867 0.000000
# 4 0.000000 0.000000 0.000000 0.051676 0.000000 0.012700
# 5 0.022415 -0.015567 0.057867 0.000000 0.098004 0.000000
# 6 0.000000 0.000000 0.000000 0.012700 0.000000 0.033797
#
#
# Mechanical properties :
#
#
# Convention : Reuss Voigt Hill
#
# Bulk Modulus (GPa) = 11.95258 30.66368 21.30813
# Shear Modulus (GPa) = 14.04498 24.51617 19.28057
#
# Velocity S-wave (km/s) = 2.50889 3.31472 2.93955
# Velocity P-wave (km/s) = 3.70803 5.32845 4.59030
#
# Compressibility (1/GPa) = 0.08366391
#
# Stress axis : x y z
#
# Youngs Moduli (GPa) = 55.50802 44.91434 13.53740
#
# Poissons Ratio (x) = 0.34914 -0.18526
# Poissons Ratio (y) = 0.43149 0.28637
# Poissons Ratio (z) = -0.75962 0.95012
#
# Static dielectric constant tensor:
#      x y z
#    x 1.923540 0.000000 0.003070 
#    y 0.000000 1.887570 0.000000 
#    z 0.003070 0.000000 1.869210 
# 
# From -- ./inp_files/246950.got.cif
#   From: 2010.05.17/outbox.cif.g08.bks.cpg/sg15_124_cif.got.tgz:246950.got - 2010.06.03 18:47:42.
