data_PCOD9279979
_publ_section_title
;
Structure prediction by ZEFSAII (Michael W. Deem and Ramdas Pophale) SiO2 
 PCOD9279979
Probable space group: C 2/C
;
_chemical_formula_sum "Si O2"
_cell_formula_units_Z 40
_cell_length_a 26.507697
_cell_length_b 8.529281
_cell_length_c 9.812783
_cell_angle_alpha 90.000000
_cell_angle_beta 44.422476
_cell_angle_gamma 90.000000
_cell_volume 1552.886225
_symmetry_space_group_name_H-M "C 2/C"
_symmetry_group_IT_number 15
_symmetry_cell_setting 'monoclinic'
loop_
_space_group_symop_operation_xyz
x,y,z
-x,y,1/2-z
-x,-y,-z
x,-y,1/2+z
1/2+x,1/2+y,z
1/2-x,1/2+y,1/2-z
1/2-x,1/2-y,-z
1/2+x,1/2-y,1/2+z
loop_
_atom_site_type_symbol
_atom_site_label
_atom_site_fract_x
_atom_site_fract_y
_atom_site_fract_z
Si Si1 0.082042 0.489038 0.787500
Si Si2 0.287285 0.657486 0.256331
Si Si3 0.729469 0.000656 0.117543
Si Si4 0.581657 0.668961 0.300541
Si Si5 0.444785 0.343263 0.235577
O O1 0.143647 0.471262 0.782970
O O2 0.096070 0.663951 0.701003
O O3 0.088970 0.329885 0.688075
O O4 0.000000 0.500000 0.000000
O O5 0.254869 0.826383 0.356254
O O6 0.269248 0.623318 0.135625
O O7 0.252042 0.519058 0.416313
O O8 0.368577 0.665727 0.159357
O O9 0.597695 0.506117 0.194978
O O10 0.496828 0.666028 0.501409
O O11 0.500000 0.363455 0.250000
#
# Coordination Sequence:
#
# PCOD9279979 Si02
#       5
#     8   8   8   8   8
#     4   9  20  40  60  86 124 160 205 262 315 369
#     4  10  23  41  62  91 131 167 211 261 318 384
#     4  10  23  41  62  95 126 168 213 260 322 382
#     4   9  21  40  56  87 128 156 202 262 311 365
#     4  10  21  36  62  92 114 161 215 249 315 382
#
# _framework density 25.758489000000001
#
# number of rings (size 3 to 8) (size 9 to 14) (size 15 to 20)
#    0.000    2.400    0.000    0.000    5.600    6.400 
#    0.000    0.000    0.000    0.000    0.000    0.000 
#    0.000    0.000    0.000    0.000    0.000    0.000 
#
# Total GULP energy -111690.194349 kJ/mol
# GULP energy per Si atom -5584.509717 kJ/mol
# Density = 2.569986 g / cm^3
# Si number density = 25.758489 Si / 1000 Ang^3
#
#
#
# Elastic Constant Matrix: (Units=GPa)
#
#
# Indices 1 2 3 4 5 6 
#
# 1 67.3765 53.3832 15.0671 0.0000 -15.2339 0.0000
# 2 53.3832 208.9378 9.9514 0.0000 -1.3394 0.0000
# 3 15.0671 9.9514 66.0408 0.0000 -20.7133 0.0000
# 4 0.0000 0.0000 0.0000 26.2403 0.0000 0.8465
# 5 -15.2339 -1.3394 -20.7133 0.0000 32.7032 0.0000
# 6 0.0000 0.0000 0.0000 0.8465 0.0000 51.4679
#
#
#
# Elastic Compliance Matrix: (Units=1/GPa)
#
#
# Indices 1 2 3 4 5 6 
#
# 1 0.021382 -0.005345 -0.001270 0.000000 0.008937 0.000000
# 2 -0.005345 0.006160 -0.000512 0.000000 -0.002562 0.000000
# 3 -0.001270 -0.000512 0.019114 0.000000 0.011494 0.000000
# 4 0.000000 0.000000 0.000000 0.038130 0.000000 -0.000627
# 5 0.008937 -0.002562 0.011494 0.000000 0.041916 0.000000
# 6 0.000000 0.000000 0.000000 -0.000627 0.000000 0.019440
#
#
# Mechanical properties :
#
#
# Convention : Reuss Voigt Hill
#
# Bulk Modulus (GPa) = 30.86323 55.46203 43.16263
# Shear Modulus (GPa) = 29.20636 39.67917 34.44277
#
# Velocity S-wave (km/s) = 3.37093 3.92909 3.66066
# Velocity P-wave (km/s) = 5.21140 6.49322 5.88730
#
# Compressibility (1/GPa) = 0.03240102
#
# Stress axis : x y z
#
# Youngs Moduli (GPa) = 46.76915 162.34354 52.31768
#
# Poissons Ratio (x) = 0.86776 0.06643
# Poissons Ratio (y) = 0.24999 0.02680
# Poissons Ratio (z) = 0.05938 0.08317
#
# Static dielectric constant tensor:
#      x y z
#    x 1.936230 0.000000 -0.035430 
#    y 0.000000 2.019320 0.000000 
#    z -0.035430 0.000000 2.151810 
# 
# From -- ./inp_files/109545.got.cif
#   From: 2010.05.17/outbox.cif.g08.bks.cpg/sg15_55_cif.got.tgz:109545.got - 2010.06.03 18:47:42.
