data_PCOD9279725
_publ_section_title
;
Structure prediction by ZEFSAII (Michael W. Deem and Ramdas Pophale) SiO2 
 PCOD9279725
Probable space group: C 2/C
;
_chemical_formula_sum "Si O2"
_cell_formula_units_Z 56
_cell_length_a 14.264410
_cell_length_b 19.747588
_cell_length_c 17.702277
_cell_angle_alpha 90.000000
_cell_angle_beta 30.296394
_cell_angle_gamma 90.000000
_cell_volume 2515.562863
_symmetry_space_group_name_H-M "C 2/C"
_symmetry_group_IT_number 15
_symmetry_cell_setting 'monoclinic'
loop_
_space_group_symop_operation_xyz
x,y,z
-x,y,1/2-z
-x,-y,-z
x,-y,1/2+z
1/2+x,1/2+y,z
1/2-x,1/2+y,1/2-z
1/2-x,1/2-y,-z
1/2+x,1/2-y,1/2+z
loop_
_atom_site_type_symbol
_atom_site_label
_atom_site_fract_x
_atom_site_fract_y
_atom_site_fract_z
Si Si1 0.549118 0.960894 0.382304
Si Si2 0.982228 0.390219 0.560710
Si Si3 0.000000 0.219861 0.250000
Si Si4 0.821446 0.792879 0.324438
Si Si5 0.678731 0.330412 0.477492
Si Si6 0.500000 0.065898 0.750000
Si Si7 0.418113 0.619567 0.620314
Si Si8 0.314707 0.867665 0.831824
O O1 0.444009 0.897176 0.497107
O O2 0.548020 0.970283 0.293216
O O3 0.765247 0.938130 0.243688
O O4 0.456374 0.031533 0.471863
O O5 0.138929 0.335821 0.471065
O O6 0.832432 0.381183 0.729979
O O7 0.186750 0.265457 0.129674
O O8 0.960980 0.181599 0.356047
O O9 0.866156 0.816308 0.208592
O O10 0.789608 0.713518 0.357223
O O11 0.000000 0.812158 0.250000
O O12 0.592902 0.354498 0.458017
O O13 0.826917 0.387933 0.394512
O O14 0.627996 0.597764 0.491615
O O15 0.500000 0.884989 0.750000
#
# Coordination Sequence:
#
# PCOD9279725 Si02
#       8
#     8   8   4   8   8   4   8   8
#     4   9  21  40  62  87 118 164 213 252 309 376
#     4  10  21  39  64  88 119 166 204 257 312 371
#     4   9  18  34  52  82 114 152 205 248 306 382
#     4  10  21  40  60  88 130 161 207 257 311 381
#     4   9  19  33  54  82 115 155 198 254 307 366
#     4   9  18  38  58  80 118 154 197 260 308 356
#     4  10  21  36  57  88 121 162 203 260 309 361
#     4  11  23  37  60  96 125 164 209 256 312 377
#
# _framework density 22.261419
#
# number of rings (size 3 to 8) (size 9 to 14) (size 15 to 20)
#    0.000    2.286    0.000    1.714    3.000    4.000 
#    7.714    0.000    7.857    0.000    0.000    0.000 
#    0.000    0.000    0.000    0.000    0.000    0.143 
#
# Total GULP energy -156022.952505 kJ/mol
# GULP energy per Si atom -5572.248304 kJ/mol
# Density = 2.221075 g / cm^3
# Si number density = 22.261419 Si / 1000 Ang^3
#
#
#
# Elastic Constant Matrix: (Units=GPa)
#
#
# Indices 1 2 3 4 5 6 
#
# 1 76.1365 23.2964 35.6687 -0.0111 1.8425 0.0084
# 2 23.2964 55.5848 16.5773 -0.0073 1.0416 0.0446
# 3 35.6687 16.5773 129.0683 -0.0399 13.9672 0.0143
# 4 -0.0111 -0.0073 -0.0399 37.2931 0.0224 -12.1813
# 5 1.8425 1.0416 13.9672 0.0224 28.0122 0.0087
# 6 0.0084 0.0446 0.0143 -12.1813 0.0087 -53.8105
#
#
#
# Elastic Compliance Matrix: (Units=1/GPa)
#
#
# Indices 1 2 3 4 5 6 
#
# 1 0.016775 -0.005858 -0.004004 -0.000002 0.001111 -0.000003
# 2 -0.005858 0.020760 -0.001063 0.000006 0.000143 0.000015
# 3 -0.004004 -0.001063 0.009469 0.000011 -0.004418 -0.000002
# 4 -0.000002 0.000006 0.000011 0.024968 -0.000024 -0.005652
# 5 0.001111 0.000143 -0.004418 -0.000024 0.037823 0.000011
# 6 -0.000003 0.000015 -0.000002 -0.005652 0.000011 -0.017304
#
#
# Mechanical properties :
#
#
# Convention : Reuss Voigt Hill
#
# Bulk Modulus (GPa) = 39.75307 45.76384 42.75845
# Shear Modulus (GPa) = 40.74108 14.64876 27.69492
#
# Velocity S-wave (km/s) = 4.28263 2.56800 3.53097
# Velocity P-wave (km/s) = 6.50774 5.42171 5.98939
#
# Compressibility (1/GPa) = 0.02515529
#
# Stress axis : x y z
#
# Youngs Moduli (GPa) = 59.61078 48.16981 105.60755
#
# Poissons Ratio (x) = 0.28216 0.42284
# Poissons Ratio (y) = 0.34917 0.11227
# Poissons Ratio (z) = 0.23867 0.05121
#
# Static dielectric constant tensor:
#      x y z
#    x 1.959230 -0.000020 0.090590 
#    y -0.000020 1.829830 -0.000010 
#    z 0.090590 -0.000010 1.934010 
# 
# From -- ./inp_files/206958.got.cif
#   From: 2010.05.17/outbox.cif.g08.bks.cpg/sg15_104_cif.got.tgz:206958.got - 2010.06.03 18:47:42.
