data_PCOD9279181
_publ_section_title
;
Structure prediction by ZEFSAII (Michael W. Deem and Ramdas Pophale) SiO2 
 PCOD9279181
Probable space group: C 2/C
;
_chemical_formula_sum "Si O2"
_cell_formula_units_Z 56
_cell_length_a 15.630294
_cell_length_b 8.916494
_cell_length_c 17.800665
_cell_angle_alpha 90.000000
_cell_angle_beta 64.109508
_cell_angle_gamma 90.000000
_cell_volume 2231.832240
_symmetry_space_group_name_H-M "C 2/C"
_symmetry_group_IT_number 15
_symmetry_cell_setting 'monoclinic'
loop_
_space_group_symop_operation_xyz
x,y,z
-x,y,1/2-z
-x,-y,-z
x,-y,1/2+z
1/2+x,1/2+y,z
1/2-x,1/2+y,1/2-z
1/2-x,1/2-y,-z
1/2+x,1/2-y,1/2+z
loop_
_atom_site_type_symbol
_atom_site_label
_atom_site_fract_x
_atom_site_fract_y
_atom_site_fract_z
Si Si1 0.842685 0.455248 0.465874
Si Si2 0.500000 0.699514 0.250000
Si Si3 0.500000 0.262944 0.250000
Si Si4 0.190706 0.841091 0.905594
Si Si5 0.145731 0.809348 0.082212
Si Si6 0.953249 0.641165 0.614024
Si Si7 0.207754 0.206233 0.135654
Si Si8 0.674489 0.112824 0.273743
O O1 0.859726 0.631187 0.439558
O O2 0.817519 0.359051 0.400154
O O3 0.766960 0.395747 0.555213
O O4 0.946543 0.409559 0.457090
O O5 0.521036 0.800937 0.313589
O O6 0.605499 0.632004 0.195271
O O7 0.550762 0.347651 0.162266
O O8 0.585190 0.173199 0.258567
O O9 0.265037 0.705482 0.895836
O O10 0.092952 0.775257 0.913909
O O11 0.243924 0.926958 0.818532
O O12 0.166902 0.901444 0.998317
O O13 0.872758 0.517560 0.659016
O O14 0.270960 0.218756 0.187049
#
# Coordination Sequence:
#
# PCOD9279181 Si02
#       8
#     8   4   4   8   8   8   8   8
#     4  10  22  39  66  95 124 162 215 273 314 372
#     4  10  21  40  62  93 128 168 203 258 314 395
#     4  10  21  34  62  93 120 156 213 264 316 357
#     4  10  23  35  56  94 131 161 199 265 326 366
#     4  10  21  40  59  92 127 163 207 267 312 376
#     4  11  21  37  66  96 123 163 216 269 313 371
#     4  10  22  37  61  99 129 161 209 267 324 378
#     4  11  21  36  61  98 123 164 210 270 316 373
#
# _framework density 25.091491000000001
#
# number of rings (size 3 to 8) (size 9 to 14) (size 15 to 20)
#    0.000    1.714    2.857    1.286    8.000    1.143 
#    0.000    0.000    0.000   30.857    7.429    0.000 
#    0.000    0.000    0.000    0.000    0.000    0.000 
#
# Total GULP energy -156302.563915 kJ/mol
# GULP energy per Si atom -5582.234426 kJ/mol
# Density = 2.503438 g / cm^3
# Si number density = 25.091491 Si / 1000 Ang^3
#
#
#
# Elastic Constant Matrix: (Units=GPa)
#
#
# Indices 1 2 3 4 5 6 
#
# 1 170.9443 30.1451 56.8557 0.0000 -0.2804 0.0000
# 2 30.1451 69.8484 22.7637 -0.0001 -4.9791 -0.0001
# 3 56.8557 22.7637 173.2604 0.0000 -25.1498 -0.0001
# 4 0.0000 -0.0001 0.0000 371.4878 0.0001 532.6638
# 5 -0.2804 -4.9791 -25.1498 0.0001 65.3521 0.0001
# 6 0.0000 -0.0001 -0.0001 532.6638 0.0001 810.8497
#
#
#
# Elastic Compliance Matrix: (Units=1/GPa)
#
#
# Indices 1 2 3 4 5 6 
#
# 1 0.006973 -0.002389 -0.002114 0.000000 -0.000966 0.000000
# 2 -0.002389 0.015786 -0.001183 0.000000 0.000737 0.000000
# 3 -0.002114 -0.001183 0.006997 0.000000 0.002594 0.000000
# 4 0.000000 0.000000 0.000000 0.046361 0.000000 -0.030455
# 5 -0.000966 0.000737 0.002594 0.000000 0.016352 0.000000
# 6 0.000000 0.000000 0.000000 -0.030455 0.000000 0.021240
#
#
# Mechanical properties :
#
#
# Convention : Reuss Voigt Hill
#
# Bulk Modulus (GPa) = 54.39795 70.39799 62.39797
# Shear Modulus (GPa) = 38.10705 269.82382 153.96543
#
# Velocity S-wave (km/s) = 3.90131 10.38121 7.84186
# Velocity P-wave (km/s) = 6.48232 13.10763 10.33998
#
# Compressibility (1/GPa) = 0.01838305
#
# Stress axis : x y z
#
# Youngs Moduli (GPa) = 143.41360 63.34774 142.90940
#
# Poissons Ratio (x) = 0.15134 0.30218
# Poissons Ratio (y) = 0.34263 0.16907
# Poissons Ratio (z) = 0.30324 0.07494
#
# Static dielectric constant tensor:
#      x y z
#    x 2.115720 0.000000 0.070390 
#    y 0.000000 2.053060 0.000000 
#    z 0.070390 0.000000 2.247110 
# 
# From -- ./inp_files/203968.got.cif
#   From: 2010.05.17/outbox.cif.g08.bks.cpg/sg15_102_cif.got.tgz:203968.got - 2010.06.03 18:47:42.
