data_PCOD9279765
_publ_section_title
;
Structure prediction by ZEFSAII (Michael W. Deem and Ramdas Pophale) SiO2 
 PCOD9279765
Probable space group: C 2/C
;
_chemical_formula_sum "Si O2"
_cell_formula_units_Z 48
_cell_length_a 14.362107
_cell_length_b 28.988211
_cell_length_c 13.899805
_cell_angle_alpha 90.000000
_cell_angle_beta 158.549927
_cell_angle_gamma 90.000000
_cell_volume 2116.224590
_symmetry_space_group_name_H-M "C 2/C"
_symmetry_group_IT_number 15
_symmetry_cell_setting 'monoclinic'
loop_
_space_group_symop_operation_xyz
x,y,z
-x,y,1/2-z
-x,-y,-z
x,-y,1/2+z
1/2+x,1/2+y,z
1/2-x,1/2+y,1/2-z
1/2-x,1/2-y,-z
1/2+x,1/2-y,1/2+z
loop_
_atom_site_type_symbol
_atom_site_label
_atom_site_fract_x
_atom_site_fract_y
_atom_site_fract_z
Si Si1 0.039696 0.723284 0.055428
Si Si2 0.203827 0.853694 0.208189
Si Si3 0.991313 0.928274 0.357379
Si Si4 0.129515 0.179530 0.272650
Si Si5 0.993384 0.482716 0.860094
Si Si6 0.555606 0.912403 0.416660
O O1 0.295792 0.744896 0.343824
O O2 0.134316 0.711378 0.035350
O O3 0.931481 0.672952 0.981109
O O4 0.009431 0.879054 0.091268
O O5 0.324814 0.890800 0.253257
O O6 0.071834 0.818048 0.007898
O O7 0.000000 0.923995 0.250000
O O8 0.214376 0.961624 0.610747
O O9 0.714858 0.949941 0.110651
O O10 0.222664 0.125896 0.360611
O O11 0.000000 0.189862 0.250000
O O12 0.072458 0.534560 0.965093
O O13 0.000000 0.482726 0.750000
O O14 0.500000 0.913431 0.250000
#
# Coordination Sequence:
#
# PCOD9279765 Si02
#       6
#     8   8   8   8   8   8
#     4  11  24  44  64  91 123 158 200 252 309 373
#     4  11  24  40  65  90 122 163 204 251 310 363
#     4  10  23  42  62  90 121 161 210 259 303 354
#     4  11  23  39  61  92 129 165 207 243 300 368
#     4   9  21  38  60  86 124 165 209 254 298 346
#     4  10  21  36  58  88 129 171 204 248 295 357
#
# _framework density 22.681902999999998
#
# number of rings (size 3 to 8) (size 9 to 14) (size 15 to 20)
#    0.000    1.667    3.333    0.000    7.000    2.667 
#    0.000    0.000    0.000    1.000    0.000    0.000 
#    0.000    0.000    0.000    0.000    0.000    0.000 
#
# Total GULP energy -133829.540694 kJ/mol
# GULP energy per Si atom -5576.230862 kJ/mol
# Density = 2.263028 g / cm^3
# Si number density = 22.681903 Si / 1000 Ang^3
#
#
#
# Elastic Constant Matrix: (Units=GPa)
#
#
# Indices 1 2 3 4 5 6 
#
# 1 51.4722 12.6375 16.6494 -0.0002 -0.0942 -0.0001
# 2 12.6375 71.4939 21.7830 0.0001 6.2742 0.0001
# 3 16.6494 21.7830 117.8153 -0.0015 13.8254 0.0021
# 4 -0.0002 0.0001 -0.0015 37.6061 -0.0006 13.6103
# 5 -0.0942 6.2742 13.8254 -0.0006 17.8401 0.0003
# 6 -0.0001 0.0001 0.0021 13.6103 0.0003 6.8930
#
#
#
# Elastic Compliance Matrix: (Units=1/GPa)
#
#
# Indices 1 2 3 4 5 6 
#
# 1 0.021119 -0.003179 -0.002795 -0.000001 0.003396 0.000003
# 2 -0.003179 0.015490 -0.001951 -0.000001 -0.003953 0.000003
# 3 -0.002795 -0.001951 0.010082 0.000004 -0.007141 -0.000012
# 4 -0.000001 -0.000001 0.000004 0.093175 0.000004 -0.183975
# 5 0.003396 -0.003953 -0.007141 0.000004 0.062996 -0.000008
# 6 0.000003 0.000003 -0.000012 -0.183975 -0.000008 0.508335
#
#
# Mechanical properties :
#
#
# Convention : Reuss Voigt Hill
#
# Bulk Modulus (GPa) = 32.42530 38.10238 35.26384
# Shear Modulus (GPa) = 6.78124 25.11528 15.94826
#
# Velocity S-wave (km/s) = 1.73095 3.33120 2.65453
# Velocity P-wave (km/s) = 4.28038 5.62413 4.99763
#
# Compressibility (1/GPa) = 0.03084011
#
# Stress axis : x y z
#
# Youngs Moduli (GPa) = 47.35092 64.55571 99.19059
#
# Poissons Ratio (x) = 0.20525 0.27725
# Poissons Ratio (y) = 0.15055 0.19351
# Poissons Ratio (z) = 0.13235 0.12594
#
# Static dielectric constant tensor:
#      x y z
#    x 1.831860 0.000000 0.000570 
#    y 0.000000 1.911010 0.000000 
#    z 0.000570 0.000000 1.887790 
# 
# From -- ./inp_files/157718.got.cif
#   From: 2010.05.17/outbox.cif.g08.bks.cpg/sg15_79_cif.got.tgz:157718.got - 2010.06.03 18:47:42.
