data_PCOD9279314
_publ_section_title
;
Structure prediction by ZEFSAII (Michael W. Deem and Ramdas Pophale) SiO2 
 PCOD9279314
Probable space group: C 2/C
;
_chemical_formula_sum "Si O2"
_cell_formula_units_Z 60
_cell_length_a 6.438068
_cell_length_b 23.513968
_cell_length_c 30.434062
_cell_angle_alpha 90.000000
_cell_angle_beta 48.712049
_cell_angle_gamma 90.000000
_cell_volume 3461.898073
_symmetry_space_group_name_H-M "C 2/C"
_symmetry_group_IT_number 15
_symmetry_cell_setting 'monoclinic'
loop_
_space_group_symop_operation_xyz
x,y,z
-x,y,1/2-z
-x,-y,-z
x,-y,1/2+z
1/2+x,1/2+y,z
1/2-x,1/2+y,1/2-z
1/2-x,1/2-y,-z
1/2+x,1/2-y,1/2+z
loop_
_atom_site_type_symbol
_atom_site_label
_atom_site_fract_x
_atom_site_fract_y
_atom_site_fract_z
Si Si1 0.783909 0.810430 0.019623
Si Si2 0.145838 0.218092 0.888424
Si Si3 0.803763 0.145685 0.874658
Si Si4 0.304278 0.917041 0.690244
Si Si5 0.500000 0.971084 0.750000
Si Si6 0.306396 0.178755 0.396417
Si Si7 0.561164 0.468496 0.191238
Si Si8 0.248419 0.750212 0.182975
O O1 0.032123 0.841219 0.959735
O O2 0.750000 0.750000 0.000000
O O3 0.859282 0.797755 0.059662
O O4 0.490531 0.842163 0.061176
O O5 0.456084 0.240037 0.835371
O O6 0.048841 0.164410 0.873135
O O7 0.935976 0.268612 0.905457
O O8 0.822458 0.082581 0.853477
O O9 0.819271 0.190395 0.832130
O O10 0.476051 0.933287 0.709746
O O11 0.464613 0.869400 0.641400
O O12 0.000000 0.898583 0.750000
O O13 0.250398 0.975378 0.670935
O O14 0.772760 0.009551 0.711703
O O15 0.229504 0.204222 0.359254
O O16 0.500000 0.449121 0.250000
O O17 0.000000 0.735091 0.250000
#
# Coordination Sequence:
#
# PCOD9279314 Si02
#       8
#     8   8   8   8   4   8   8   8
#     4  11  20  40  54  83 112 150 194 227 279 336
#     4  10  21  35  57  78 112 150 190 222 281 345
#     4  10  21  35  57  82 111 148 191 234 278 333
#     4   9  21  37  56  84 112 147 191 228 282 343
#     4   8  18  36  58  78 110 148 184 226 280 334
#     4  11  22  34  58  81 113 152 182 230 278 340
#     4   9  19  38  59  82 113 146 191 235 281 338
#     4  10  22  33  50  86 119 143 177 233 284 342
#
# _framework density 17.331533
#
# number of rings (size 3 to 8) (size 9 to 14) (size 15 to 20)
#    0.000    2.400    4.000    0.800    2.800    8.000 
#    0.000    0.667    0.000    1.600    0.000    0.000 
#    0.000    0.000    0.000    0.000    0.000    0.000 
#
# Total GULP energy -167312.570592 kJ/mol
# GULP energy per Si atom -5577.085686 kJ/mol
# Density = 1.729209 g / cm^3
# Si number density = 17.331533 Si / 1000 Ang^3
#
#
#
# Elastic Constant Matrix: (Units=GPa)
#
#
# Indices 1 2 3 4 5 6 
#
# 1 100.9630 19.9855 35.0190 0.0000 -6.1810 0.0000
# 2 19.9855 81.6738 34.6790 0.0000 -4.9505 0.0000
# 3 35.0190 34.6790 104.4303 0.0000 -18.6325 0.0000
# 4 0.0000 0.0000 0.0000 29.5850 0.0000 -0.5656
# 5 -6.1810 -4.9505 -18.6325 0.0000 15.5627 0.0000
# 6 0.0000 0.0000 0.0000 -0.5656 0.0000 5.6045
#
#
#
# Elastic Compliance Matrix: (Units=1/GPa)
#
#
# Indices 1 2 3 4 5 6 
#
# 1 0.011335 -0.001351 -0.003339 0.000000 0.000074 0.000000
# 2 -0.001351 0.014440 -0.004601 0.000000 -0.001452 0.000000
# 3 -0.003339 -0.004601 0.014911 0.000000 0.015062 0.000000
# 4 0.000000 0.000000 0.000000 0.033866 0.000000 0.003417
# 5 0.000074 -0.001452 0.015062 0.000000 0.081857 0.000000
# 6 0.000000 0.000000 0.000000 0.003417 0.000000 0.178771
#
#
# Mechanical properties :
#
#
# Convention : Reuss Voigt Hill
#
# Bulk Modulus (GPa) = 45.24316 51.82604 48.53460
# Shear Modulus (GPa) = 13.84538 23.30935 18.57737
#
# Velocity S-wave (km/s) = 2.82947 3.67128 3.27751
# Velocity P-wave (km/s) = 6.06924 6.92378 6.51055
#
# Compressibility (1/GPa) = 0.02210279
#
# Stress axis : x y z
#
# Youngs Moduli (GPa) = 88.22406 69.25123 67.06557
#
# Poissons Ratio (x) = 0.09359 0.22392
# Poissons Ratio (y) = 0.11923 0.30858
# Poissons Ratio (z) = 0.29457 0.31864
#
# Static dielectric constant tensor:
#      x y z
#    x 1.609560 0.000000 -0.009710 
#    y 0.000000 1.577920 0.000000 
#    z -0.009710 0.000000 1.592560 
# 
# From -- ./inp_files/286756.got.cif
#   From: 2010.05.17/outbox.cif.g08.bks.cpg/sg15_144_cif.got.tgz:286756.got - 2010.06.03 18:47:42.
