data_PCOD9279381
_publ_section_title
;
Structure prediction by ZEFSAII (Michael W. Deem and Ramdas Pophale) SiO2 
 PCOD9279381
Probable space group: C 2/C
;
_chemical_formula_sum "Si O2"
_cell_formula_units_Z 40
_cell_length_a 19.956605
_cell_length_b 8.881995
_cell_length_c 13.954826
_cell_angle_alpha 90.000000
_cell_angle_beta 41.745933
_cell_angle_gamma 90.000000
_cell_volume 1646.964080
_symmetry_space_group_name_H-M "C 2/C"
_symmetry_group_IT_number 15
_symmetry_cell_setting 'monoclinic'
loop_
_space_group_symop_operation_xyz
x,y,z
-x,y,1/2-z
-x,-y,-z
x,-y,1/2+z
1/2+x,1/2+y,z
1/2-x,1/2+y,1/2-z
1/2-x,1/2-y,-z
1/2+x,1/2-y,1/2+z
loop_
_atom_site_type_symbol
_atom_site_label
_atom_site_fract_x
_atom_site_fract_y
_atom_site_fract_z
Si Si1 0.326095 0.107188 0.903731
Si Si2 0.514581 0.822132 0.104062
Si Si3 0.523208 0.482094 0.360866
Si Si4 0.810768 0.074296 0.064522
Si Si5 0.831531 0.195557 0.694779
O O1 0.402147 0.110744 0.912475
O O2 0.406222 0.102445 0.729400
O O3 0.256065 0.966204 0.955223
O O4 0.250000 0.250000 0.000000
O O5 0.480401 0.652160 0.170879
O O6 0.576251 0.801457 0.940386
O O7 0.500000 0.500000 0.500000
O O8 0.427767 0.399450 0.417573
O O9 0.626678 0.394950 0.258456
O O10 0.809517 0.921762 0.132069
O O11 0.763762 0.206333 0.176873
#
# Coordination Sequence:
#
# PCOD9279381 Si02
#       5
#     8   8   8   8   8
#     4  11  19  34  59  87 111 155 211 236 288 364
#     4   9  20  34  58  87 113 160 196 250 289 361
#     4   8  17  34  54  81 120 153 197 235 301 350
#     4  10  21  35  60  90 120 160 199 246 297 360
#     4  10  21  35  58  91 124 151 201 248 300 355
#
# _framework density 24.287110999999999
#
# number of rings (size 3 to 8) (size 9 to 14) (size 15 to 20)
#    0.000    2.800    4.000    0.000    8.400    0.800 
#    0.000    0.000    0.000    9.600    0.000    0.000 
#    0.000    0.000    0.000    0.000    0.000    0.000 
#
# Total GULP energy -111526.394179 kJ/mol
# GULP energy per Si atom -5576.319709 kJ/mol
# Density = 2.423183 g / cm^3
# Si number density = 24.287111 Si / 1000 Ang^3
#
#
#
# Elastic Constant Matrix: (Units=GPa)
#
#
# Indices 1 2 3 4 5 6 
#
# 1 99.7750 15.4091 30.1032 0.0000 -17.9415 0.0000
# 2 15.4091 30.6005 22.0933 -0.0001 7.4483 0.0000
# 3 30.1032 22.0933 110.7054 0.0000 -14.8319 0.0000
# 4 0.0000 -0.0001 0.0000 18.1659 0.0000 -1.2154
# 5 -17.9415 7.4483 -14.8319 0.0000 34.1679 0.0000
# 6 0.0000 0.0000 0.0000 -1.2154 0.0000 37.7489
#
#
#
# Elastic Compliance Matrix: (Units=1/GPa)
#
#
# Indices 1 2 3 4 5 6 
#
# 1 0.012968 -0.007897 -0.000857 0.000000 0.008159 0.000000
# 2 -0.007897 0.048621 -0.010120 0.000000 -0.019139 0.000000
# 3 -0.000857 -0.010120 0.012232 0.000000 0.007066 0.000000
# 4 0.000000 0.000000 0.000000 0.055167 0.000000 0.001776
# 5 0.008159 -0.019139 0.007066 0.000000 0.040791 0.000000
# 6 0.000000 0.000000 0.000000 0.001776 0.000000 0.026548
#
#
# Mechanical properties :
#
#
# Convention : Reuss Voigt Hill
#
# Bulk Modulus (GPa) = 27.72185 41.81023 34.76604
# Shear Modulus (GPa) = 20.31704 29.58157 24.94930
#
# Velocity S-wave (km/s) = 2.89543 3.49376 3.20857
# Velocity P-wave (km/s) = 4.75574 5.79030 5.29833
#
# Compressibility (1/GPa) = 0.03607263
#
# Stress axis : x y z
#
# Youngs Moduli (GPa) = 77.11341 20.56741 81.75062
#
# Poissons Ratio (x) = 0.16242 0.07007
# Poissons Ratio (y) = 0.60897 0.82730
# Poissons Ratio (z) = 0.06610 0.20814
#
# Static dielectric constant tensor:
#      x y z
#    x 1.978300 0.000000 0.052170 
#    y 0.000000 1.983250 0.000000 
#    z 0.052170 0.000000 2.034340 
# 
# From -- ./inp_files/213676.got.cif
#   From: 2010.05.17/outbox.cif.g08.bks.cpg/sg15_107_cif.got.tgz:213676.got - 2010.06.03 18:47:42.
