data_PCOD9279490
_publ_section_title
;
Structure prediction by ZEFSAII (Michael W. Deem and Ramdas Pophale) SiO2 
 PCOD9279490
Probable space group: C 2/C
;
_chemical_formula_sum "Si O2"
_cell_formula_units_Z 60
_cell_length_a 15.139504
_cell_length_b 14.559945
_cell_length_c 13.398784
_cell_angle_alpha 90.000000
_cell_angle_beta 117.945257
_cell_angle_gamma 90.000000
_cell_volume 2609.108083
_symmetry_space_group_name_H-M "C 2/C"
_symmetry_group_IT_number 15
_symmetry_cell_setting 'monoclinic'
loop_
_space_group_symop_operation_xyz
x,y,z
-x,y,1/2-z
-x,-y,-z
x,-y,1/2+z
1/2+x,1/2+y,z
1/2-x,1/2+y,1/2-z
1/2-x,1/2-y,-z
1/2+x,1/2-y,1/2+z
loop_
_atom_site_type_symbol
_atom_site_label
_atom_site_fract_x
_atom_site_fract_y
_atom_site_fract_z
Si Si1 0.623760 0.013515 0.640512
Si Si2 0.289837 0.734435 0.850270
Si Si3 0.000000 0.565701 0.250000
Si Si4 0.920739 0.286669 0.364457
Si Si5 0.723168 0.531958 0.613657
Si Si6 0.368193 0.653918 0.498215
Si Si7 0.352489 0.775115 0.666925
Si Si8 0.625401 0.877297 0.459717
O O1 0.541425 0.993291 0.681446
O O2 0.605717 0.946119 0.540890
O O3 0.620134 0.119289 0.605622
O O4 0.727295 0.997148 0.756128
O O5 0.171432 0.735278 0.758359
O O6 0.324109 0.630714 0.890187
O O7 0.352882 0.764949 0.786391
O O8 0.305732 0.801327 0.950562
O O9 0.085068 0.635949 0.330375
O O10 0.936260 0.204759 0.451727
O O11 0.026436 0.320620 0.377031
O O12 0.652720 0.453752 0.530105
O O13 0.815307 0.563394 0.590712
O O14 0.389473 0.688470 0.621694
O O15 0.261597 0.701233 0.417204
#
# Coordination Sequence:
#
# PCOD9279490 Si02
#       8
#     8   8   4   8   8   8   8   8
#     4  11  22  36  61 102 136 164 211 281 338 407
#     4  10  23  44  59  94 134 182 220 285 335 406
#     4  12  18  36  62  98 126 166 218 270 338 400
#     4  10  23  39  64  96 138 174 218 275 349 405
#     4  11  24  40  67  93 136 177 229 272 339 415
#     4  10  21  39  58  94 124 176 211 274 332 406
#     4  10  21  35  62  86 133 163 213 272 343 393
#     4  12  23  41  67  99 131 184 225 280 345 403
#
# _framework density 22.996365000000001
#
# number of rings (size 3 to 8) (size 9 to 14) (size 15 to 20)
#    0.000    1.333    2.667    3.200    7.467    1.600 
#    0.000    0.667    0.000    0.000    0.000    0.000 
#    0.000    0.000    0.000    0.000    0.000    0.000 
#
# Total GULP energy -167674.115173 kJ/mol
# GULP energy per Si atom -5589.137172 kJ/mol
# Density = 2.294402 g / cm^3
# Si number density = 22.996365 Si / 1000 Ang^3
#
#
#
# Elastic Constant Matrix: (Units=GPa)
#
#
# Indices 1 2 3 4 5 6 
#
# 1 49.1684 31.7629 24.2043 0.0000 -1.5017 0.0000
# 2 31.7629 118.8493 46.5381 0.0000 -4.6415 0.0000
# 3 24.2043 46.5381 99.5901 0.0000 -1.0205 0.0000
# 4 0.0000 0.0000 0.0000 -17.9026 0.0000 -8.7545
# 5 -1.5017 -4.6415 -1.0205 0.0000 27.5416 0.0000
# 6 0.0000 0.0000 0.0000 -8.7545 0.0000 35.9443
#
#
#
# Elastic Compliance Matrix: (Units=1/GPa)
#
#
# Indices 1 2 3 4 5 6 
#
# 1 0.025659 -0.005389 -0.003714 0.000000 0.000353 0.000000
# 2 -0.005389 0.011498 -0.004048 0.000000 0.001494 0.000000
# 3 -0.003714 -0.004048 0.012831 0.000000 -0.000409 0.000000
# 4 0.000000 0.000000 0.000000 -0.049913 0.000000 -0.012157
# 5 0.000353 0.001494 -0.000409 0.000000 0.036565 0.000000
# 6 0.000000 0.000000 0.000000 -0.012157 0.000000 0.024860
#
#
# Mechanical properties :
#
#
# Convention : Reuss Voigt Hill
#
# Bulk Modulus (GPa) = 42.21997 52.51315 47.36656
# Shear Modulus (GPa) = 52.24866 20.12351 36.18609
#
# Velocity S-wave (km/s) = 4.77176 2.96137 3.97111
# Velocity P-wave (km/s) = 6.98276 5.88030 6.45511
#
# Compressibility (1/GPa) = 0.02368547
#
# Stress axis : x y z
#
# Youngs Moduli (GPa) = 38.97289 86.97454 77.93562
#
# Poissons Ratio (x) = 0.46873 0.28946
# Poissons Ratio (y) = 0.21004 0.31546
# Poissons Ratio (z) = 0.14475 0.35205
#
# Static dielectric constant tensor:
#      x y z
#    x 1.973650 0.000000 0.034470 
#    y 0.000000 1.847740 0.000000 
#    z 0.034470 0.000000 1.901960 
# 
# From -- ./inp_files/154266.got.cif
#   From: 2010.05.17/outbox.cif.g08.bks.cpg/sg15_78_cif.got.tgz:154266.got - 2010.06.03 18:47:42.
