data_PCOD9279029
_publ_section_title
;
Structure prediction by ZEFSAII (Michael W. Deem and Ramdas Pophale) SiO2 
 PCOD9279029
Probable space group: C 2/C
;
_chemical_formula_sum "Si O2"
_cell_formula_units_Z 56
_cell_length_a 15.422350
_cell_length_b 23.582913
_cell_length_c 7.723036
_cell_angle_alpha 90.000000
_cell_angle_beta 105.130651
_cell_angle_gamma 90.000000
_cell_volume 2711.522894
_symmetry_space_group_name_H-M "C 2/C"
_symmetry_group_IT_number 15
_symmetry_cell_setting 'monoclinic'
loop_
_space_group_symop_operation_xyz
x,y,z
-x,y,1/2-z
-x,-y,-z
x,-y,1/2+z
1/2+x,1/2+y,z
1/2-x,1/2+y,1/2-z
1/2-x,1/2-y,-z
1/2+x,1/2-y,1/2+z
loop_
_atom_site_type_symbol
_atom_site_label
_atom_site_fract_x
_atom_site_fract_y
_atom_site_fract_z
Si Si1 0.935666 0.802288 0.860411
Si Si2 0.698611 0.796491 0.327993
Si Si3 0.094557 0.115648 0.855265
Si Si4 0.103557 0.231425 0.645608
Si Si5 0.709170 0.892267 0.040098
Si Si6 0.521236 0.064298 0.558890
Si Si7 0.629322 0.147738 0.153682
O O1 0.861613 0.757823 0.758455
O O2 0.000000 0.828774 0.750000
O O3 0.902950 0.855259 0.954834
O O4 0.010457 0.764204 0.995905
O O5 0.802252 0.777873 0.403605
O O6 0.664591 0.832655 0.478991
O O7 0.701133 0.836310 0.157599
O O8 0.094737 0.173589 0.743943
O O9 0.000000 0.087153 0.750000
O O10 0.189479 0.085014 0.876931
O O11 0.111917 0.291945 0.739193
O O12 0.693971 0.882378 0.826427
O O13 0.625081 0.927770 0.064252
O O14 0.500000 0.073798 0.750000
O O15 0.457466 0.108724 0.423772
O O16 0.500000 0.000000 0.500000
#
# Coordination Sequence:
#
# PCOD9279029 Si02
#       7
#     8   8   8   8   8   8   8
#     4  11  20  30  50  75 118 166 206 256 298 350
#     4  11  22  37  54  88 123 167 216 258 307 380
#     4   9  21  39  55  84 127 173 212 255 304 372
#     4  10  21  34  53  81 123 164 214 249 306 369
#     4  11  23  39  63  87 122 166 209 261 326 370
#     4  12  26  47  67  96 129 160 210 272 326 391
#     4  12  22  36  60  90 119 166 207 259 316 382
#
# _framework density 20.652602000000002
#
# number of rings (size 3 to 8) (size 9 to 14) (size 15 to 20)
#    0.000    1.143    2.857    4.286    2.000    4.571 
#    0.000    0.000    0.000    0.000    0.000    4.000 
#    0.000    0.000    0.000    0.000    0.000    0.000 
#
# Total GULP energy -155959.346551 kJ/mol
# GULP energy per Si atom -5569.976663 kJ/mol
# Density = 2.060560 g / cm^3
# Si number density = 20.652602 Si / 1000 Ang^3
#
#
#
# Elastic Constant Matrix: (Units=GPa)
#
#
# Indices 1 2 3 4 5 6 
#
# 1 168.2774 29.4322 53.7769 0.0000 28.2372 0.0000
# 2 29.4322 42.5012 10.4817 0.0000 20.6654 0.0000
# 3 53.7769 10.4817 104.2824 0.0000 9.7201 0.0000
# 4 0.0000 0.0000 0.0000 14.9499 0.0000 4.8687
# 5 28.2372 20.6654 9.7201 0.0000 38.1508 0.0000
# 6 0.0000 0.0000 0.0000 4.8687 0.0000 14.5948
#
#
#
# Elastic Compliance Matrix: (Units=1/GPa)
#
#
# Indices 1 2 3 4 5 6 
#
# 1 0.008223 -0.003113 -0.003603 0.000000 -0.003482 0.000000
# 2 -0.003113 0.033395 -0.000287 0.000000 -0.015712 0.000000
# 3 -0.003603 -0.000287 0.011486 0.000000 -0.000104 0.000000
# 4 0.000000 0.000000 0.000000 0.075043 0.000000 -0.025034
# 5 -0.003482 -0.015712 -0.000104 0.000000 0.037327 0.000000
# 6 0.000000 0.000000 0.000000 -0.025034 0.000000 0.076869
#
#
# Mechanical properties :
#
#
# Convention : Reuss Voigt Hill
#
# Bulk Modulus (GPa) = 25.57644 55.82693 40.70168
# Shear Modulus (GPa) = 18.56118 28.29709 23.42914
#
# Velocity S-wave (km/s) = 3.00114 3.70556 3.37180
# Velocity P-wave (km/s) = 4.94167 6.73783 5.90841
#
# Compressibility (1/GPa) = 0.03909849
#
# Stress axis : x y z
#
# Youngs Moduli (GPa) = 121.61554 29.94474 87.06353
#
# Poissons Ratio (x) = 0.09321 0.31368
# Poissons Ratio (y) = 0.37854 0.02498
# Poissons Ratio (z) = 0.43817 0.00859
#
# Static dielectric constant tensor:
#      x y z
#    x 1.869220 0.000000 -0.190690 
#    y 0.000000 1.699730 0.000000 
#    z -0.190690 0.000000 2.376510 
# 
# From -- ./inp_files/43603.got.cif
#   From: 2010.05.17/outbox.cif.g08.bks.cpg/sg15_22_cif.got.tgz:43603.got - 2010.06.03 18:47:42.
