data_PCOD9279042
_publ_section_title
;
Structure prediction by ZEFSAII (Michael W. Deem and Ramdas Pophale) SiO2 
 PCOD9279042
Probable space group: C 2/C
;
_chemical_formula_sum "Si O2"
_cell_formula_units_Z 40
_cell_length_a 18.629154
_cell_length_b 5.194921
_cell_length_c 26.998825
_cell_angle_alpha 90.000000
_cell_angle_beta 134.655464
_cell_angle_gamma 90.000000
_cell_volume 1858.650970
_symmetry_space_group_name_H-M "C 2/C"
_symmetry_group_IT_number 15
_symmetry_cell_setting 'monoclinic'
loop_
_space_group_symop_operation_xyz
x,y,z
-x,y,1/2-z
-x,-y,-z
x,-y,1/2+z
1/2+x,1/2+y,z
1/2-x,1/2+y,1/2-z
1/2-x,1/2-y,-z
1/2+x,1/2-y,1/2+z
loop_
_atom_site_type_symbol
_atom_site_label
_atom_site_fract_x
_atom_site_fract_y
_atom_site_fract_z
Si Si1 0.047743 0.956239 0.325767
Si Si2 0.648495 0.026603 0.911529
Si Si3 0.988321 0.254084 0.893748
Si Si4 0.883981 0.505762 0.425293
Si Si5 0.149403 0.992732 0.533400
O O1 0.112359 0.197439 0.375601
O O2 0.000000 0.011991 0.250000
O O3 0.113202 0.695097 0.355859
O O4 0.969601 0.885356 0.332423
O O5 0.583176 0.946228 0.927880
O O6 0.768490 0.999199 0.970883
O O7 0.898473 0.411554 0.875195
O O8 0.038426 0.048329 0.955784
O O9 0.837161 0.240539 0.421195
O O10 0.000000 0.500000 0.500000
O O11 0.835577 0.744250 0.430263
#
# Coordination Sequence:
#
# PCOD9279042 Si02
#       5
#     8   8   8   8   8
#     4  10  22  37  58  82 107 149 198 234 266 327
#     4  10  22  35  59  83 113 142 185 238 281 316
#     4   9  22  34  60  83 112 148 183 223 278 337
#     4  10  21  34  54  83 121 149 174 216 283 354
#     4  11  21  35  56  89 120 138 177 231 292 341
#
# _framework density 21.520987000000002
#
# number of rings (size 3 to 8) (size 9 to 14) (size 15 to 20)
#    1.200    0.800    0.000    4.800    8.400    0.800 
#    0.000    0.000    0.000    4.800    0.000    0.000 
#    0.000    0.000    0.000    0.000    0.000    0.000 
#
# Total GULP energy -111500.060543 kJ/mol
# GULP energy per Si atom -5575.003027 kJ/mol
# Density = 2.147200 g / cm^3
# Si number density = 21.520987 Si / 1000 Ang^3
#
#
#
# Elastic Constant Matrix: (Units=GPa)
#
#
# Indices 1 2 3 4 5 6 
#
# 1 94.5703 28.5410 6.2450 -0.0002 -16.8715 -0.0004
# 2 28.5410 140.6684 17.7759 -0.0003 -11.2032 0.0031
# 3 6.2450 17.7759 47.3485 -0.0001 -23.1714 -0.0001
# 4 -0.0002 -0.0003 -0.0001 15.2978 0.0002 -1.3226
# 5 -16.8715 -11.2032 -23.1714 0.0002 21.8043 0.0004
# 6 -0.0004 0.0031 -0.0001 -1.3226 0.0004 14.6220
#
#
#
# Elastic Compliance Matrix: (Units=1/GPa)
#
#
# Indices 1 2 3 4 5 6 
#
# 1 0.013970 -0.002397 0.007803 0.000000 0.017870 0.000001
# 2 -0.002397 0.007908 -0.003275 0.000000 -0.001273 -0.000002
# 3 0.007803 -0.003275 0.048864 0.000000 0.056282 0.000000
# 4 0.000000 0.000000 0.000000 0.065884 -0.000001 0.005959
# 5 0.017870 -0.001273 0.056282 -0.000001 0.118847 -0.000002
# 6 0.000001 -0.000002 0.000000 0.005959 -0.000002 0.068929
#
#
# Mechanical properties :
#
#
# Convention : Reuss Voigt Hill
#
# Bulk Modulus (GPa) = 13.33297 43.07899 28.20598
# Shear Modulus (GPa) = 14.48672 25.67984 20.08328
#
# Velocity S-wave (km/s) = 2.59732 3.45809 3.05814
# Velocity P-wave (km/s) = 3.89917 6.00043 5.06007
#
# Compressibility (1/GPa) = 0.07500206
#
# Stress axis : x y z
#
# Youngs Moduli (GPa) = 71.57968 126.45619 20.46494
#
# Poissons Ratio (x) = 0.30316 -0.15968
# Poissons Ratio (y) = 0.17160 0.06703
# Poissons Ratio (z) = -0.55851 0.41421
#
# Static dielectric constant tensor:
#      x y z
#    x 1.882890 0.000000 -0.037990 
#    y 0.000000 1.844990 0.000000 
#    z -0.037990 0.000000 1.778590 
# 
# From -- ./inp_files/297571.got.cif
#   From: 2010.05.17/outbox.cif.g08.bks.cpg/sg15_149_cif.got.tgz:297571.got - 2010.06.03 18:47:42.
