data_PCOD9279622
_publ_section_title
;
Structure prediction by ZEFSAII (Michael W. Deem and Ramdas Pophale) SiO2 
 PCOD9279622
Probable space group: C 2/C
;
_chemical_formula_sum "Si O2"
_cell_formula_units_Z 48
_cell_length_a 7.358568
_cell_length_b 28.718106
_cell_length_c 18.885334
_cell_angle_alpha 90.000000
_cell_angle_beta 145.554747
_cell_angle_gamma 90.000000
_cell_volume 2257.342132
_symmetry_space_group_name_H-M "C 2/C"
_symmetry_group_IT_number 15
_symmetry_cell_setting 'monoclinic'
loop_
_space_group_symop_operation_xyz
x,y,z
-x,y,1/2-z
-x,-y,-z
x,-y,1/2+z
1/2+x,1/2+y,z
1/2-x,1/2+y,1/2-z
1/2-x,1/2-y,-z
1/2+x,1/2-y,1/2+z
loop_
_atom_site_type_symbol
_atom_site_label
_atom_site_fract_x
_atom_site_fract_y
_atom_site_fract_z
Si Si1 0.367717 0.716446 0.871639
Si Si2 0.732058 0.537765 0.722572
Si Si3 0.113418 0.130814 0.866272
Si Si4 0.407924 0.195517 0.138959
Si Si5 0.618596 0.103155 0.127953
Si Si6 0.217072 0.504675 0.467570
O O1 0.553008 0.680874 0.880316
O O2 0.408870 0.767992 0.853468
O O3 0.000000 0.703294 0.750000
O O4 0.537091 0.708196 0.001708
O O5 0.607888 0.590064 0.671517
O O6 0.419622 0.505568 0.606015
O O7 0.000000 0.526851 0.750000
O O8 0.928985 0.531309 0.858648
O O9 0.000000 0.131962 0.750000
O O10 0.472826 0.116515 0.004010
O O11 0.500000 0.202171 0.250000
O O12 0.495369 0.143653 0.141278
O O13 0.458627 0.054263 0.097326
O O14 0.000000 0.100966 0.250000
O O15 0.500000 0.500000 0.500000
#
# Coordination Sequence:
#
# PCOD9279622 Si02
#       6
#     8   8   8   8   8   8
#     4  10  21  38  59  84 116 149 189 239 284 338
#     4   9  18  34  54  77 106 142 186 232 280 334
#     4  10  21  36  55  81 113 149 188 232 284 340
#     4  10  22  38  59  87 116 150 191 234 286 344
#     4  10  22  39  57  84 118 150 190 240 286 340
#     4   9  19  35  56  79 108 145 187 232 281 337
#
# _framework density 21.263946000000001
#
# number of rings (size 3 to 8) (size 9 to 14) (size 15 to 20)
#    0.000    2.333    0.000    1.500    0.000    7.333 
#    0.000    3.333    0.000    0.000    0.000    0.000 
#    0.000    0.000    0.000    0.000    0.000    0.000 
#
# Total GULP energy -133836.271729 kJ/mol
# GULP energy per Si atom -5576.511322 kJ/mol
# Density = 2.121555 g / cm^3
# Si number density = 21.263946 Si / 1000 Ang^3
#
#
#
# Elastic Constant Matrix: (Units=GPa)
#
#
# Indices 1 2 3 4 5 6 
#
# 1 35.0815 2.8236 56.4913 -0.0003 -2.2016 0.0000
# 2 2.8236 79.2980 24.7192 -0.0005 8.3974 -0.0001
# 3 56.4913 24.7192 206.6418 0.0015 2.2623 0.0001
# 4 -0.0003 -0.0005 0.0015 35.8688 0.0004 2.0454
# 5 -2.2016 8.3974 2.2623 0.0004 33.8361 0.0000
# 6 0.0000 -0.0001 0.0001 2.0454 0.0000 14.2228
#
#
#
# Elastic Compliance Matrix: (Units=1/GPa)
#
#
# Indices 1 2 3 4 5 6 
#
# 1 0.051920 0.002273 -0.014507 0.000001 0.003784 0.000000
# 2 0.002273 0.013543 -0.002208 0.000000 -0.003065 0.000000
# 3 -0.014507 -0.002208 0.009080 -0.000001 -0.001003 0.000000
# 4 0.000001 0.000000 -0.000001 0.028110 0.000000 -0.004042
# 5 0.003784 -0.003065 -0.001003 0.000000 0.030628 0.000000
# 6 0.000000 0.000000 0.000000 -0.004042 0.000000 0.070891
#
#
# Mechanical properties :
#
#
# Convention : Reuss Voigt Hill
#
# Bulk Modulus (GPa) = 21.90157 54.34331 38.12244
# Shear Modulus (GPa) = 20.13886 32.58469 26.36178
#
# Velocity S-wave (km/s) = 3.08082 3.91882 3.52481
# Velocity P-wave (km/s) = 4.79348 6.78883 5.87647
#
# Compressibility (1/GPa) = 0.04565882
#
# Stress axis : x y z
#
# Youngs Moduli (GPa) = 19.26030 73.84113 110.12830
#
# Poissons Ratio (x) = -0.16782 1.59765
# Poissons Ratio (y) = -0.04377 0.24314
# Poissons Ratio (z) = 0.27941 0.16302
#
# Static dielectric constant tensor:
#      x y z
#    x 1.746900 0.000000 -0.022710 
#    y 0.000000 1.755260 0.000000 
#    z -0.022710 0.000000 1.862600 
# 
# From -- ./inp_files/139374.got.cif
#   From: 2010.05.17/outbox.cif.g08.bks.cpg/sg15_70_cif.got.tgz:139374.got - 2010.06.03 18:47:42.
