data_PCOD9279915
_publ_section_title
;
Structure prediction by ZEFSAII (Michael W. Deem and Ramdas Pophale) SiO2 
 PCOD9279915
Probable space group: C 2/C
;
_chemical_formula_sum "Si O2"
_cell_formula_units_Z 44
_cell_length_a 30.758199
_cell_length_b 7.152751
_cell_length_c 20.243307
_cell_angle_alpha 90.000000
_cell_angle_beta 150.092960
_cell_angle_gamma 90.000000
_cell_volume 2220.561157
_symmetry_space_group_name_H-M "C 2/C"
_symmetry_group_IT_number 15
_symmetry_cell_setting 'monoclinic'
loop_
_space_group_symop_operation_xyz
x,y,z
-x,y,1/2-z
-x,-y,-z
x,-y,1/2+z
1/2+x,1/2+y,z
1/2-x,1/2+y,1/2-z
1/2-x,1/2-y,-z
1/2+x,1/2-y,1/2+z
loop_
_atom_site_type_symbol
_atom_site_label
_atom_site_fract_x
_atom_site_fract_y
_atom_site_fract_z
Si Si1 0.517169 0.568295 0.447565
Si Si2 0.270123 0.129152 0.118437
Si Si3 0.637668 0.457609 0.343735
Si Si4 0.000000 0.268124 0.750000
Si Si5 0.119181 0.725479 0.514368
Si Si6 0.093930 0.551122 0.094604
O O1 0.500000 0.500000 0.500000
O O2 0.424476 0.584223 0.285300
O O3 0.571402 0.409655 0.480053
O O4 0.575890 0.752058 0.534313
O O5 0.318302 0.296271 0.142771
O O6 0.202232 0.218333 0.081106
O O7 0.343762 0.042547 0.260525
O O8 0.218140 0.992567 0.999201
O O9 0.570169 0.360045 0.305267
O O10 0.948339 0.374580 0.625169
O O11 0.133200 0.590854 0.593602
O O12 0.000000 0.500000 0.000000
#
# Coordination Sequence:
#
# PCOD9279915 Si02
#       6
#     8   8   8   4   8   8
#     4  11  20  39  64  85 119 162 203 247 308 360
#     4  10  21  36  61  90 123 161 201 252 310 360
#     4   9  18  37  61  87 117 160 201 243 302 366
#     4   8  16  38  62  80 112 162 188 240 302 356
#     4  10  22  38  61  87 122 153 204 251 303 362
#     4  12  23  38  62  91 121 162 206 251 305 369
#
# _framework density 19.814810000000001
#
# number of rings (size 3 to 8) (size 9 to 14) (size 15 to 20)
#    0.000    1.818    3.636    1.091    2.545    0.000 
#    0.000    6.364    0.000    0.000    0.000    0.000 
#    0.000    0.000    0.000    0.000    0.000    0.000 
#
# Total GULP energy -122489.401150 kJ/mol
# GULP energy per Si atom -5567.700052 kJ/mol
# Density = 1.976971 g / cm^3
# Si number density = 19.814810 Si / 1000 Ang^3
#
#
#
# Elastic Constant Matrix: (Units=GPa)
#
#
# Indices 1 2 3 4 5 6 
#
# 1 119.2985 9.0077 25.7854 0.0000 0.1843 0.0000
# 2 9.0077 42.6672 13.8163 0.0004 -7.0657 0.0004
# 3 25.7854 13.8163 183.3695 0.0001 -26.1151 0.0002
# 4 0.0000 0.0004 0.0001 21.5400 0.0001 -7.4120
# 5 0.1843 -7.0657 -26.1151 0.0001 36.0690 0.0001
# 6 0.0000 0.0004 0.0002 -7.4120 0.0001 14.8926
#
#
#
# Elastic Compliance Matrix: (Units=1/GPa)
#
#
# Indices 1 2 3 4 5 6 
#
# 1 0.008790 -0.001652 -0.001298 0.000000 -0.001308 0.000000
# 2 -0.001652 0.024807 -0.001052 -0.000001 0.004106 -0.000001
# 3 -0.001298 -0.001052 0.006341 0.000000 0.004391 0.000000
# 4 0.000000 -0.000001 0.000000 0.056019 0.000000 0.027881
# 5 -0.001308 0.004106 0.004391 0.000000 0.031715 0.000000
# 6 0.000000 -0.000001 0.000000 0.027881 0.000000 0.081024
#
#
# Mechanical properties :
#
#
# Convention : Reuss Voigt Hill
#
# Bulk Modulus (GPa) = 31.31534 49.17266 40.24400
# Shear Modulus (GPa) = 21.99322 34.28204 28.13763
#
# Velocity S-wave (km/s) = 3.33519 4.16399 3.77242
# Velocity P-wave (km/s) = 5.53802 6.92736 6.27128
#
# Compressibility (1/GPa) = 0.03193323
#
# Stress axis : x y z
#
# Youngs Moduli (GPa) = 113.77072 40.31182 157.71268
#
# Poissons Ratio (x) = 0.06659 0.20468
# Poissons Ratio (y) = 0.18795 0.16591
# Poissons Ratio (z) = 0.14766 0.04241
#
# Static dielectric constant tensor:
#      x y z
#    x 1.624660 0.000000 0.058120 
#    y 0.000000 1.693050 0.000000 
#    z 0.058120 0.000000 1.557350 
# 
# From -- ./inp_files/165677.got.cif
#   From: 2010.05.17/outbox.cif.g08.bks.cpg/sg15_83_cif.got.tgz:165677.got - 2010.06.03 18:47:42.
