data_PCOD9279735
_publ_section_title
;
Structure prediction by ZEFSAII (Michael W. Deem and Ramdas Pophale) SiO2 
 PCOD9279735
Probable space group: C 2/C
;
_chemical_formula_sum "Si O2"
_cell_formula_units_Z 52
_cell_length_a 14.212070
_cell_length_b 18.067668
_cell_length_c 18.100681
_cell_angle_alpha 90.000000
_cell_angle_beta 154.256866
_cell_angle_gamma 90.000000
_cell_volume 2018.745173
_symmetry_space_group_name_H-M "C 2/C"
_symmetry_group_IT_number 15
_symmetry_cell_setting 'monoclinic'
loop_
_space_group_symop_operation_xyz
x,y,z
-x,y,1/2-z
-x,-y,-z
x,-y,1/2+z
1/2+x,1/2+y,z
1/2-x,1/2+y,1/2-z
1/2-x,1/2-y,-z
1/2+x,1/2-y,1/2+z
loop_
_atom_site_type_symbol
_atom_site_label
_atom_site_fract_x
_atom_site_fract_y
_atom_site_fract_z
Si Si1 0.670389 0.422133 0.706072
Si Si2 0.981892 0.526114 0.860108
Si Si3 0.660761 0.368315 0.914348
Si Si4 0.032805 0.151886 0.579618
Si Si5 0.298268 0.605639 0.562257
Si Si6 0.500000 0.134164 0.750000
Si Si7 0.573134 0.183340 0.532740
O O1 0.482222 0.419495 0.633230
O O2 0.560206 0.403845 0.548904
O O3 0.803943 0.498593 0.791743
O O4 0.853980 0.362266 0.859401
O O5 0.890556 0.576910 0.730086
O O6 0.182596 0.578969 0.022901
O O7 0.101684 0.452284 0.916003
O O8 0.500000 0.324983 0.750000
O O9 0.818518 0.323859 0.078342
O O10 0.881669 0.136080 0.543847
O O11 0.989553 0.231016 0.510327
O O12 0.275716 0.159148 0.789840
O O13 0.500000 0.570179 0.750000
O O14 0.217969 0.668755 0.562028
#
# Coordination Sequence:
#
# PCOD9279735 Si02
#       7
#     8   8   8   8   8   4   8
#     4  11  23  39  64  90 125 171 199 255 316 354
#     4   9  19  39  56  90 126 158 207 241 299 380
#     4  10  23  42  62  87 126 160 210 260 305 367
#     4  11  20  36  58  87 128 160 205 258 293 380
#     4   9  18  31  55  86 125 168 195 238 308 368
#     4   8  20  38  56  86 122 156 200 248 294 362
#     4  10  21  36  57  91 122 164 208 243 312 362
#
# _framework density 25.758575
#
# number of rings (size 3 to 8) (size 9 to 14) (size 15 to 20)
#    0.923    1.231    1.538    1.846    0.000    4.308 
#    0.000    0.000    0.000    0.923    0.000    0.000 
#    0.000    0.000    0.000    0.000    0.000    0.000 
#
# Total GULP energy -145128.635700 kJ/mol
# GULP energy per Si atom -5581.870604 kJ/mol
# Density = 2.569995 g / cm^3
# Si number density = 25.758575 Si / 1000 Ang^3
#
#
#
# Elastic Constant Matrix: (Units=GPa)
#
#
# Indices 1 2 3 4 5 6 
#
# 1 124.5170 14.8407 47.1404 -0.0007 5.7774 0.0037
# 2 14.8407 91.7825 47.7168 -0.0179 -4.4507 -0.0270
# 3 47.1404 47.7168 226.4347 -0.0105 -16.9940 -0.0252
# 4 -0.0007 -0.0179 -0.0105 27.7938 -0.0062 -9.2475
# 5 5.7774 -4.4507 -16.9940 -0.0062 42.4149 -0.0082
# 6 0.0037 -0.0270 -0.0252 -9.2475 -0.0082 -1.6298
#
#
#
# Elastic Compliance Matrix: (Units=1/GPa)
#
#
# Indices 1 2 3 4 5 6 
#
# 1 0.008907 -0.000556 -0.001889 0.000007 -0.002029 0.000026
# 2 -0.000556 0.012273 -0.002442 -0.000017 0.000385 -0.000072
# 3 -0.001889 -0.002442 0.005489 -0.000007 0.002200 -0.000023
# 4 0.000007 -0.000017 -0.000007 0.012459 -0.000017 -0.070692
# 5 -0.002029 0.000385 0.002200 -0.000017 0.024775 -0.000072
# 6 0.000026 -0.000072 -0.000023 -0.070692 -0.000072 -0.212467
#
#
# Mechanical properties :
#
#
# Convention : Reuss Voigt Hill
#
# Bulk Modulus (GPa) = 59.18952 73.57001 66.37977
# Shear Modulus (GPa) = -37.54935 35.91821 -0.81557
#
# Velocity S-wave (km/s) = -3.82218 3.73824 -0.56330
# Velocity P-wave (km/s) = 1.88407 6.87430 5.04012
#
# Compressibility (1/GPa) = 0.01689488
#
# Stress axis : x y z
#
# Youngs Moduli (GPa) = 112.27502 81.47755 182.17350
#
# Poissons Ratio (x) = 0.04533 0.34417
# Poissons Ratio (y) = 0.06246 0.44480
# Poissons Ratio (z) = 0.21212 0.19894
#
# Static dielectric constant tensor:
#      x y z
#    x 2.026900 -0.000010 0.010940 
#    y -0.000010 1.964950 -0.000030 
#    z 0.010940 -0.000030 2.093380 
# 
# From -- ./inp_files/250186.got.cif
#   From: 2010.05.17/outbox.cif.g08.bks.cpg/sg15_126_cif.got.tgz:250186.got - 2010.06.03 18:47:42.
