data_PCOD9279491
_publ_section_title
;
Structure prediction by ZEFSAII (Michael W. Deem and Ramdas Pophale) SiO2 
 PCOD9279491
Probable space group: C 2/C
;
_chemical_formula_sum "Si O2"
_cell_formula_units_Z 60
_cell_length_a 21.342587
_cell_length_b 27.144843
_cell_length_c 15.867329
_cell_angle_alpha 90.000000
_cell_angle_beta 160.789462
_cell_angle_gamma 90.000000
_cell_volume 3024.735183
_symmetry_space_group_name_H-M "C 2/C"
_symmetry_group_IT_number 15
_symmetry_cell_setting 'monoclinic'
loop_
_space_group_symop_operation_xyz
x,y,z
-x,y,1/2-z
-x,-y,-z
x,-y,1/2+z
1/2+x,1/2+y,z
1/2-x,1/2+y,1/2-z
1/2-x,1/2-y,-z
1/2+x,1/2-y,1/2+z
loop_
_atom_site_type_symbol
_atom_site_label
_atom_site_fract_x
_atom_site_fract_y
_atom_site_fract_z
Si Si1 0.224278 0.536352 0.701329
Si Si2 0.080400 0.818187 0.503498
Si Si3 0.090705 0.206014 0.451388
Si Si4 0.272812 0.977806 0.962402
Si Si5 0.231060 0.467819 0.869218
Si Si6 0.534689 0.616019 0.111493
Si Si7 0.019003 0.723389 0.016929
Si Si8 0.000000 0.121452 0.750000
O O1 0.277644 0.514266 0.678250
O O2 0.279751 0.498353 0.846628
O O3 0.996311 0.540881 0.417699
O O4 0.334567 0.587396 0.850029
O O5 0.292856 0.809641 0.735955
O O6 0.954782 0.843578 0.271714
O O7 0.084177 0.854838 0.588576
O O8 0.005411 0.765054 0.441370
O O9 0.981509 0.156616 0.337096
O O10 0.051913 0.246014 0.473500
O O11 0.317216 0.196846 0.745657
O O12 0.000000 0.224611 0.250000
O O13 0.182041 0.925792 0.824670
O O14 0.500000 0.973017 0.250000
O O15 0.217857 0.999910 0.983188
O O16 0.336339 0.415930 0.011322
#
# Coordination Sequence:
#
# PCOD9279491 Si02
#       8
#     8   8   8   8   8   8   8   4
#     4  10  21  38  58  81 124 166 200 243 311 340
#     4  10  23  40  64  87 116 159 194 253 307 359
#     4  10  21  35  62  88 113 153 192 241 300 365
#     4  10  21  37  55  81 123 163 200 245 297 354
#     4  10  22  37  59  87 123 166 197 251 297 360
#     4  11  22  35  59  89 115 153 200 248 290 353
#     4   9  21  44  59  82 126 151 190 244 319 363
#     4  12  22  36  64  92 116 152 220 242 290 362
#
# _framework density 19.836447
#
# number of rings (size 3 to 8) (size 9 to 14) (size 15 to 20)
#    0.000    1.867    0.000    3.200    3.733    1.600 
#    0.000    1.333    0.000    0.000    0.000    0.000 
#    0.000    0.000    0.000    0.000    0.000    0.000 
#
# Total GULP energy -167533.192000 kJ/mol
# GULP energy per Si atom -5584.439733 kJ/mol
# Density = 1.979130 g / cm^3
# Si number density = 19.836447 Si / 1000 Ang^3
#
#
#
# Elastic Constant Matrix: (Units=GPa)
#
#
# Indices 1 2 3 4 5 6 
#
# 1 78.5880 12.7694 27.2092 -0.0001 -9.9401 0.0001
# 2 12.7694 60.9549 14.7299 -0.0002 -5.1968 0.0000
# 3 27.2092 14.7299 52.7088 -0.0004 -7.8946 0.0002
# 4 -0.0001 -0.0002 -0.0004 -18.7894 -0.0004 13.6551
# 5 -9.9401 -5.1968 -7.8946 -0.0004 26.2632 0.0002
# 6 0.0001 0.0000 0.0002 13.6551 0.0002 11.2657
#
#
#
# Elastic Compliance Matrix: (Units=1/GPa)
#
#
# Indices 1 2 3 4 5 6 
#
# 1 0.015919 -0.001259 -0.007331 0.000000 0.003572 0.000000
# 2 -0.001259 0.017804 -0.004052 0.000000 0.001829 0.000000
# 3 -0.007331 -0.004052 0.024454 0.000000 0.003774 0.000000
# 4 0.000000 0.000000 0.000000 -0.028296 -0.000001 0.034298
# 5 0.003572 0.001829 0.003774 -0.000001 0.040925 0.000000
# 6 0.000000 0.000000 0.000000 0.034298 0.000000 0.047193
#
#
# Mechanical properties :
#
#
# Convention : Reuss Voigt Hill
#
# Bulk Modulus (GPa) = 30.40021 33.51874 31.95947
# Shear Modulus (GPa) = 32.41545 12.91744 22.66644
#
# Velocity S-wave (km/s) = 4.04683 2.55463 3.38400
# Velocity P-wave (km/s) = 6.09873 5.06317 5.60492
#
# Compressibility (1/GPa) = 0.03289451
#
# Stress axis : x y z
#
# Youngs Moduli (GPa) = 62.81754 56.16614 40.89283
#
# Poissons Ratio (x) = 0.07070 0.29978
# Poissons Ratio (y) = 0.07907 0.16569
# Poissons Ratio (z) = 0.46051 0.22758
#
# Static dielectric constant tensor:
#      x y z
#    x 1.712100 0.000000 0.019630 
#    y 0.000000 1.663120 0.000000 
#    z 0.019630 0.000000 1.731670 
# 
# From -- ./inp_files/59113.got.cif
#   From: 2010.05.17/outbox.cif.g08.bks.cpg/sg15_30_cif.got.tgz:59113.got - 2010.06.03 18:47:42.
