data_PCOD9279877
_publ_section_title
;
Structure prediction by ZEFSAII (Michael W. Deem and Ramdas Pophale) SiO2 
 PCOD9279877
Probable space group: C 2/C
;
_chemical_formula_sum "Si O2"
_cell_formula_units_Z 44
_cell_length_a 14.561359
_cell_length_b 17.289621
_cell_length_c 17.212014
_cell_angle_alpha 90.000000
_cell_angle_beta 153.377247
_cell_angle_gamma 90.000000
_cell_volume 1941.814393
_symmetry_space_group_name_H-M "C 2/C"
_symmetry_group_IT_number 15
_symmetry_cell_setting 'monoclinic'
loop_
_space_group_symop_operation_xyz
x,y,z
-x,y,1/2-z
-x,-y,-z
x,-y,1/2+z
1/2+x,1/2+y,z
1/2-x,1/2+y,1/2-z
1/2-x,1/2-y,-z
1/2+x,1/2-y,1/2+z
loop_
_atom_site_type_symbol
_atom_site_label
_atom_site_fract_x
_atom_site_fract_y
_atom_site_fract_z
Si Si1 0.827028 0.866833 0.423054
Si Si2 0.436368 0.003855 0.291942
Si Si3 0.000000 0.790396 0.250000
Si Si4 0.053399 0.668764 0.425203
Si Si5 0.261583 0.623629 0.052897
Si Si6 0.539024 0.226856 0.589297
O O1 0.738511 0.862955 0.443358
O O2 0.708226 0.815433 0.269471
O O3 0.040055 0.820334 0.590531
O O4 0.774934 0.955217 0.361518
O O5 0.500000 0.014685 0.250000
O O6 0.439249 0.088007 0.330177
O O7 0.614649 0.948765 0.462085
O O8 0.976241 0.733844 0.306458
O O9 0.205326 0.839910 0.414258
O O10 0.047538 0.697507 0.508407
O O11 0.500000 0.610292 0.250000
O O12 0.170947 0.696648 0.029658
#
# Coordination Sequence:
#
# PCOD9279877 Si02
#       6
#     8   8   4   8   8   8
#     4  10  21  37  59  91 126 170 199 248 306 373
#     4   9  20  39  63  88 125 166 204 254 312 363
#     4  10  24  40  66  92 116 168 212 258 314 362
#     4  11  22  42  65  92 123 162 211 263 306 365
#     4  10  21  36  60  93 125 169 202 246 309 375
#     4  11  21  36  62  89 127 162 208 251 301 368
#
# _framework density 22.659222
#
# number of rings (size 3 to 8) (size 9 to 14) (size 15 to 20)
#    0.000    1.818    0.909    4.364    1.273    5.091 
#    0.000    0.000    0.000    5.455    0.000    0.000 
#    0.000    0.000    0.000    0.000    0.000    0.000 
#
# Total GULP energy -122866.165650 kJ/mol
# GULP energy per Si atom -5584.825711 kJ/mol
# Density = 2.260765 g / cm^3
# Si number density = 22.659222 Si / 1000 Ang^3
#
#
#
# Elastic Constant Matrix: (Units=GPa)
#
#
# Indices 1 2 3 4 5 6 
#
# 1 81.0336 47.9892 23.3765 0.0120 -27.3350 0.0109
# 2 47.9892 121.8867 19.8695 0.0369 4.1851 0.0250
# 3 23.3765 19.8695 71.9661 -0.0143 -9.4074 -0.0002
# 4 0.0120 0.0369 -0.0143 -9.3005 -0.0118 -16.2709
# 5 -27.3350 4.1851 -9.4074 -0.0118 36.8701 -0.0025
# 6 0.0109 0.0250 -0.0002 -16.2709 -0.0025 10.6449
#
#
#
# Elastic Compliance Matrix: (Units=1/GPa)
#
#
# Indices 1 2 3 4 5 6 
#
# 1 0.026046 -0.010444 -0.002998 -0.000009 0.019731 -0.000011
# 2 -0.010444 0.012875 -0.001413 0.000025 -0.009565 0.000016
# 3 -0.002998 -0.001413 0.015507 -0.000013 0.001894 -0.000013
# 4 -0.000009 0.000025 -0.000013 -0.029265 -0.000025 -0.044732
# 5 0.019731 -0.009565 0.001894 -0.000025 0.043319 -0.000026
# 6 -0.000011 0.000016 -0.000013 -0.044732 -0.000026 0.025569
#
#
# Mechanical properties :
#
#
# Convention : Reuss Voigt Hill
#
# Bulk Modulus (GPa) = 40.45369 50.81744 45.63556
# Shear Modulus (GPa) = 37.87919 19.88632 28.88275
#
# Velocity S-wave (km/s) = 4.09307 2.96569 3.57411
# Velocity P-wave (km/s) = 6.34267 5.84830 6.10049
#
# Compressibility (1/GPa) = 0.02471963
#
# Stress axis : x y z
#
# Youngs Moduli (GPa) = 38.39384 77.67080 64.48766
#
# Poissons Ratio (x) = 0.81116 0.19332
# Poissons Ratio (y) = 0.40097 0.09110
# Poissons Ratio (z) = 0.11510 0.10972
#
# Static dielectric constant tensor:
#      x y z
#    x 1.803130 0.000000 0.043850 
#    y 0.000000 1.854300 -0.000010 
#    z 0.043850 -0.000010 1.929470 
# 
# From -- ./inp_files/39220.got.cif
#   From: 2010.05.17/outbox.cif.g08.bks.cpg/sg15_20_cif.got.tgz:39220.got - 2010.06.03 18:47:42.
