data_PCOD9279671
_publ_section_title
;
Structure prediction by ZEFSAII (Michael W. Deem and Ramdas Pophale) SiO2 
 PCOD9279671
Probable space group: C 2/C
;
_chemical_formula_sum "Si O2"
_cell_formula_units_Z 52
_cell_length_a 15.215776
_cell_length_b 17.432927
_cell_length_c 8.012138
_cell_angle_alpha 90.000000
_cell_angle_beta 106.752426
_cell_angle_gamma 90.000000
_cell_volume 2035.065784
_symmetry_space_group_name_H-M "C 2/C"
_symmetry_group_IT_number 15
_symmetry_cell_setting 'monoclinic'
loop_
_space_group_symop_operation_xyz
x,y,z
-x,y,1/2-z
-x,-y,-z
x,-y,1/2+z
1/2+x,1/2+y,z
1/2-x,1/2+y,1/2-z
1/2-x,1/2-y,-z
1/2+x,1/2-y,1/2+z
loop_
_atom_site_type_symbol
_atom_site_label
_atom_site_fract_x
_atom_site_fract_y
_atom_site_fract_z
Si Si1 0.052580 0.876756 0.003446
Si Si2 0.292738 0.281585 0.275124
Si Si3 0.500000 0.496159 0.250000
Si Si4 0.694262 0.944401 0.838488
Si Si5 0.528507 0.913813 0.572681
Si Si6 0.862653 0.605473 0.817837
Si Si7 0.843113 0.158029 0.432442
O O1 0.123378 0.806850 0.060455
O O2 0.067707 0.941318 0.870684
O O3 0.051373 0.935829 0.159483
O O4 0.949012 0.842549 0.939934
O O5 0.208955 0.334698 0.286281
O O6 0.234483 0.204797 0.211574
O O7 0.332416 0.306464 0.113222
O O8 0.636496 0.905997 0.654115
O O9 0.801833 0.927901 0.893837
O O10 0.655091 0.029895 0.799732
O O11 0.667633 0.913445 0.007174
O O12 0.500000 0.900470 0.750000
O O13 0.466743 0.867094 0.409260
O O14 0.500000 0.000000 0.500000
#
# Coordination Sequence:
#
# PCOD9279671 Si02
#       7
#     8   8   4   8   8   8   8
#     4  11  22  41  62  94 121 161 201 264 312 363
#     4  10  21  36  56  86 118 153 196 244 303 368
#     4  10  24  38  68  92 122 152 210 260 320 358
#     4   9  18  30  51  76 104 140 188 235 286 343
#     4   8  14  27  42  67  97 127 163 210 258 314
#     4   9  18  30  51  76 104 140 188 235 286 343
#     4  10  21  36  56  86 118 153 196 244 303 368
#
# _framework density 25.552
#
# number of rings (size 3 to 8) (size 9 to 14) (size 15 to 20)
#    0.000    2.462    1.538    0.000    4.308    1.231 
#    0.000    5.385    0.000    0.000    4.000    0.000 
#    0.000    0.000    0.000    0.000    0.000    0.615 
#
# Total GULP energy -144786.484773 kJ/mol
# GULP energy per Si atom -5568.710953 kJ/mol
# Density = 2.549384 g / cm^3
# Si number density = 25.552000 Si / 1000 Ang^3
#
#
#
# Elastic Constant Matrix: (Units=GPa)
#
#
# Indices 1 2 3 4 5 6 
#
# 1 63.8628 32.8096 53.4709 0.0000 26.8407 0.0000
# 2 32.8096 57.9020 29.5408 0.0000 25.6887 0.0000
# 3 53.4709 29.5408 84.8979 0.0000 21.9156 0.0000
# 4 0.0000 0.0000 0.0000 21.9681 0.0000 26.4297
# 5 26.8407 25.6887 21.9156 0.0000 48.8104 0.0000
# 6 0.0000 0.0000 0.0000 26.4297 0.0000 20.1219
#
#
#
# Elastic Compliance Matrix: (Units=1/GPa)
#
#
# Indices 1 2 3 4 5 6 
#
# 1 0.041090 -0.008971 -0.020523 0.000000 -0.008659 0.000000
# 2 -0.008971 0.026920 -0.001508 0.000000 -0.008558 0.000000
# 3 -0.020523 -0.001508 0.025010 0.000000 0.000850 0.000000
# 4 0.000000 0.000000 0.000000 -0.078451 0.000000 0.103044
# 5 -0.008659 -0.008558 0.000850 0.000000 0.029372 0.000000
# 6 0.000000 0.000000 0.000000 0.103044 0.000000 -0.085649
#
#
# Mechanical properties :
#
#
# Convention : Reuss Voigt Hill
#
# Bulk Modulus (GPa) = 32.24050 48.70060 40.47055
# Shear Modulus (GPa) = 163.22066 24.23616 93.72841
#
# Velocity S-wave (km/s) = 8.00103 3.08312 6.06309
# Velocity P-wave (km/s) = 9.89951 5.63693 8.05529
#
# Compressibility (1/GPa) = 0.03101689
#
# Stress axis : x y z
#
# Youngs Moduli (GPa) = 24.33668 37.14736 39.98415
#
# Poissons Ratio (x) = 0.33326 0.82059
# Poissons Ratio (y) = 0.21833 0.06028
# Poissons Ratio (z) = 0.49946 0.05600
#
# Static dielectric constant tensor:
#      x y z
#    x 1411.003530 0.000000 462.375400 
#    y 0.000000 2.242380 0.000000 
#    z 462.375400 0.000000 153.842250 
# 
# From -- ./inp_files/49220.got.cif
#   From: 2010.05.17/outbox.cif.g08.bks.cpg/sg15_25_cif.got.tgz:49220.got - 2010.06.03 18:47:42.
