data_PCOD9279664
_publ_section_title
;
Structure prediction by ZEFSAII (Michael W. Deem and Ramdas Pophale) SiO2 
 PCOD9279664
Probable space group: C 2/C
;
_chemical_formula_sum "Si O2"
_cell_formula_units_Z 32
_cell_length_a 5.283445
_cell_length_b 27.483333
_cell_length_c 9.352239
_cell_angle_alpha 90.000000
_cell_angle_beta 96.423098
_cell_angle_gamma 90.000000
_cell_volume 1349.483213
_symmetry_space_group_name_H-M "C 2/C"
_symmetry_group_IT_number 15
_symmetry_cell_setting 'monoclinic'
loop_
_space_group_symop_operation_xyz
x,y,z
-x,y,1/2-z
-x,-y,-z
x,-y,1/2+z
1/2+x,1/2+y,z
1/2-x,1/2+y,1/2-z
1/2-x,1/2-y,-z
1/2+x,1/2-y,1/2+z
loop_
_atom_site_type_symbol
_atom_site_label
_atom_site_fract_x
_atom_site_fract_y
_atom_site_fract_z
Si Si1 0.500295 0.449874 0.916753
Si Si2 0.260266 0.255224 0.329581
Si Si3 0.493299 0.886824 0.584144
Si Si4 0.234417 0.637396 0.701922
O O1 0.500000 0.461562 0.750000
O O2 0.228247 0.426777 0.936274
O O3 0.735025 0.410522 0.944590
O O4 0.500000 0.500000 0.000000
O O5 0.500000 0.237448 0.250000
O O6 0.250000 0.250000 0.500000
O O7 0.257758 0.313026 0.294083
O O8 0.000000 0.233345 0.250000
O O9 0.500000 0.870874 0.750000
O O10 0.364595 0.849502 0.463157
O O11 0.500000 0.611636 0.750000
O O12 0.000000 0.607151 0.750000
#
# Coordination Sequence:
#
# PCOD9279664 Si02
#       4
#     8   8   8   8
#     4  10  21  36  56  85 116 154 199 249 305 363
#     4  10  21  40  64  93 127 163 208 262 317 384
#     4  10  21  38  58  82 118 156 201 254 306 365
#     4  10  21  38  59  88 118 157 206 253 312 376
#
# _framework density 23.712783999999999
#
# number of rings (size 3 to 8) (size 9 to 14) (size 15 to 20)
#    0.000    2.000    0.000    3.000    0.000    3.000 
#    0.000   15.000    0.000    0.000    0.000    0.000 
#    0.000    0.000    0.000    0.000    0.000    0.000 
#
# Total GULP energy -89184.668191 kJ/mol
# GULP energy per Si atom -5574.041762 kJ/mol
# Density = 2.365881 g / cm^3
# Si number density = 23.712784 Si / 1000 Ang^3
#
#
#
# Elastic Constant Matrix: (Units=GPa)
#
#
# Indices 1 2 3 4 5 6 
#
# 1 211.4231 -1.4729 59.7443 0.0000 -2.1524 0.0000
# 2 -1.4729 56.2336 30.6343 0.0000 1.5927 0.0000
# 3 59.7443 30.6343 205.6752 0.0000 31.3456 0.0000
# 4 0.0000 0.0000 0.0000 40.7619 0.0000 2.1976
# 5 -2.1524 1.5927 31.3456 0.0000 40.9304 0.0000
# 6 0.0000 0.0000 0.0000 2.1976 0.0000 1.1683
#
#
#
# Elastic Compliance Matrix: (Units=1/GPa)
#
#
# Indices 1 2 3 4 5 6 
#
# 1 0.005317 0.001172 -0.001987 0.000000 0.001755 0.000000
# 2 0.001172 0.019710 -0.003587 0.000000 0.002042 0.000000
# 3 -0.001987 -0.003587 0.006757 0.000000 -0.005139 0.000000
# 4 0.000000 0.000000 0.000000 0.027301 0.000000 -0.051353
# 5 0.001755 0.002042 -0.005139 0.000000 0.028380 0.000000
# 6 0.000000 0.000000 0.000000 -0.051353 0.000000 0.952507
#
#
# Mechanical properties :
#
#
# Convention : Reuss Voigt Hill
#
# Bulk Modulus (GPa) = 43.51651 72.34925 57.93288
# Shear Modulus (GPa) = 4.73289 42.20054 23.46671
#
# Velocity S-wave (km/s) = 1.41430 4.22317 3.14924
# Velocity P-wave (km/s) = 4.58894 7.37273 6.14066
#
# Compressibility (1/GPa) = 0.02297978
#
# Stress axis : x y z
#
# Youngs Moduli (GPa) = 188.06638 50.73548 148.00203
#
# Poissons Ratio (x) = -0.05945 0.29402
# Poissons Ratio (y) = -0.22038 0.53093
# Poissons Ratio (z) = 0.37362 0.18200
#
# Static dielectric constant tensor:
#      x y z
#    x 2.110530 0.000000 -0.087050 
#    y 0.000000 1.946310 0.000000 
#    z -0.087050 0.000000 2.062230 
# 
# From -- ./inp_files/19938.got.cif
#   From: 2010.05.17/outbox.cif.g08.bks.cpg/sg15_10_cif.got.tgz:19938.got - 2010.06.03 18:47:42.
