data_PCOD9279333
_publ_section_title
;
Structure prediction by ZEFSAII (Michael W. Deem and Ramdas Pophale) SiO2 
 PCOD9279333
Probable space group: C 2/C
;
_chemical_formula_sum "Si O2"
_cell_formula_units_Z 56
_cell_length_a 16.339715
_cell_length_b 14.063898
_cell_length_c 22.431538
_cell_angle_alpha 90.000000
_cell_angle_beta 145.050821
_cell_angle_gamma 90.000000
_cell_volume 2952.907700
_symmetry_space_group_name_H-M "C 2/C"
_symmetry_group_IT_number 15
_symmetry_cell_setting 'monoclinic'
loop_
_space_group_symop_operation_xyz
x,y,z
-x,y,1/2-z
-x,-y,-z
x,-y,1/2+z
1/2+x,1/2+y,z
1/2-x,1/2+y,1/2-z
1/2-x,1/2-y,-z
1/2+x,1/2-y,1/2+z
loop_
_atom_site_type_symbol
_atom_site_label
_atom_site_fract_x
_atom_site_fract_y
_atom_site_fract_z
Si Si1 0.361201 0.503715 0.711543
Si Si2 0.717532 0.117707 0.722598
Si Si3 0.874323 0.835088 0.817680
Si Si4 0.893539 0.568739 0.513013
Si Si5 0.165350 0.978706 0.608218
Si Si6 0.644580 0.951163 0.368478
Si Si7 0.807410 0.773705 0.469207
O O1 0.500000 0.506691 0.750000
O O2 0.335083 0.591169 0.742179
O O3 0.365536 0.408466 0.756591
O O4 0.215654 0.499715 0.585784
O O5 0.688631 0.228087 0.722293
O O6 0.565115 0.072691 0.609758
O O7 0.767154 0.061654 0.810815
O O8 0.809179 0.886111 0.836741
O O9 0.042364 0.825297 0.932253
O O10 0.868513 0.553571 0.568651
O O11 0.839904 0.673064 0.459763
O O12 0.236982 0.978548 0.586449
O O13 0.000000 0.000000 0.500000
O O14 0.500000 0.977600 0.250000
O O15 0.691705 0.845635 0.374989
O O16 0.750000 0.750000 0.500000
#
# Coordination Sequence:
#
# PCOD9279333 Si02
#       7
#     8   8   8   8   8   8   8
#     4  11  23  38  63  90 120 164 210 258 309 378
#     4  10  23  41  59  89 124 164 200 264 318 373
#     4  10  22  40  59  89 122 162 210 249 316 371
#     4  10  21  35  57  87 122 158 198 250 318 373
#     4  11  22  38  63  87 123 167 208 255 309 381
#     4  11  20  34  56  89 122 156 200 255 309 364
#     4   9  18  30  52  86 118 148 187 248 308 365
#
# _framework density 18.964357
#
# number of rings (size 3 to 8) (size 9 to 14) (size 15 to 20)
#    0.000    1.714    2.857    2.143    4.000    0.571 
#    0.000    0.714    0.000    0.857    0.000    0.000 
#    0.000    0.000    0.000    0.000    0.000    0.000 
#
# Total GULP energy -155924.928445 kJ/mol
# GULP energy per Si atom -5568.747444 kJ/mol
# Density = 1.892119 g / cm^3
# Si number density = 18.964357 Si / 1000 Ang^3
#
#
#
# Elastic Constant Matrix: (Units=GPa)
#
#
# Indices 1 2 3 4 5 6 
#
# 1 127.8018 36.6867 21.3985 0.0000 4.8403 0.0000
# 2 36.6867 60.0923 12.5150 -0.0001 4.2505 0.0000
# 3 21.3985 12.5150 37.3624 0.0000 5.8539 0.0000
# 4 0.0000 -0.0001 0.0000 21.3935 0.0000 5.9025
# 5 4.8403 4.2505 5.8539 0.0000 25.6030 0.0000
# 6 0.0000 0.0000 0.0000 5.9025 0.0000 22.5140
#
#
#
# Elastic Compliance Matrix: (Units=1/GPa)
#
#
# Indices 1 2 3 4 5 6 
#
# 1 0.010004 -0.005278 -0.003944 0.000000 -0.000113 0.000000
# 2 -0.005278 0.020742 -0.003673 0.000000 -0.001606 0.000000
# 3 -0.003944 -0.003673 0.031158 0.000000 -0.005769 0.000000
# 4 0.000000 0.000000 0.000000 0.050388 0.000000 -0.013210
# 5 -0.000113 -0.001606 -0.005769 0.000000 0.040665 0.000000
# 6 0.000000 0.000000 0.000000 -0.013210 0.000000 0.047880
#
#
# Mechanical properties :
#
#
# Convention : Reuss Voigt Hill
#
# Bulk Modulus (GPa) = 27.69057 40.71741 34.20399
# Shear Modulus (GPa) = 20.94976 24.21254 22.58115
#
# Velocity S-wave (km/s) = 3.32730 3.57702 3.45442
# Velocity P-wave (km/s) = 5.42165 6.21106 5.82973
#
# Compressibility (1/GPa) = 0.03611338
#
# Stress axis : x y z
#
# Youngs Moduli (GPa) = 99.95511 48.21107 32.09459
#
# Poissons Ratio (x) = 0.25448 0.12658
# Poissons Ratio (y) = 0.52760 0.11789
# Poissons Ratio (z) = 0.39423 0.17709
#
# Static dielectric constant tensor:
#      x y z
#    x 1.677740 0.000000 0.009270 
#    y 0.000000 1.712420 0.000000 
#    z 0.009270 0.000000 1.666070 
# 
# From -- ./inp_files/244571.got.cif
#   From: 2010.05.17/outbox.cif.g08.bks.cpg/sg15_123_cif.got.tgz:244571.got - 2010.06.03 18:47:42.
