data_PCOD9279472
_publ_section_title
;
Structure prediction by ZEFSAII (Michael W. Deem and Ramdas Pophale) SiO2 
 PCOD9279472
Probable space group: C 2/C
;
_chemical_formula_sum "Si O2"
_cell_formula_units_Z 56
_cell_length_a 10.939021
_cell_length_b 20.341330
_cell_length_c 12.069030
_cell_angle_alpha 90.000000
_cell_angle_beta 72.274353
_cell_angle_gamma 90.000000
_cell_volume 2558.036194
_symmetry_space_group_name_H-M "C 2/C"
_symmetry_group_IT_number 15
_symmetry_cell_setting 'monoclinic'
loop_
_space_group_symop_operation_xyz
x,y,z
-x,y,1/2-z
-x,-y,-z
x,-y,1/2+z
1/2+x,1/2+y,z
1/2-x,1/2+y,1/2-z
1/2-x,1/2-y,-z
1/2+x,1/2-y,1/2+z
loop_
_atom_site_type_symbol
_atom_site_label
_atom_site_fract_x
_atom_site_fract_y
_atom_site_fract_z
Si Si1 0.119629 0.567946 0.785063
Si Si2 0.190540 0.193952 0.372857
Si Si3 0.747763 0.654364 0.927440
Si Si4 0.139286 0.286553 0.883119
Si Si5 0.401566 0.485485 0.187162
Si Si6 0.494836 0.595460 0.484411
Si Si7 0.628620 0.835102 0.483955
O O1 0.156185 0.624961 0.687736
O O2 0.253820 0.527407 0.758177
O O3 0.098305 0.604110 0.909819
O O4 0.000000 0.534793 0.750000
O O5 0.269482 0.186744 0.238647
O O6 0.051686 0.161103 0.415302
O O7 0.260871 0.156631 0.455215
O O8 0.174696 0.271310 0.401534
O O9 0.661474 0.708520 0.888023
O O10 0.819977 0.686908 0.008397
O O11 0.656170 0.597989 0.003622
O O12 0.994086 0.310227 0.912270
O O13 0.500000 0.512535 0.250000
O O14 0.414067 0.538544 0.086340
O O15 0.473832 0.419790 0.120717
#
# Coordination Sequence:
#
# PCOD9279472 Si02
#       7
#     8   8   8   8   8   8   8
#     4  11  21  41  65  91 126 166 207 260 320 380
#     4  11  23  36  61  90 127 171 201 257 312 382
#     4  10  21  35  61  90 123 163 202 252 304 377
#     4  11  21  36  55  94 130 160 200 246 313 382
#     4  10  23  42  68  91 118 166 221 269 310 362
#     4  10  22  42  62  91 123 157 221 259 306 369
#     4  11  22  38  58  92 132 165 204 246 324 388
#
# _framework density 21.891793
#
# number of rings (size 3 to 8) (size 9 to 14) (size 15 to 20)
#    0.000    1.429    4.286    1.286    2.000    0.000 
#    0.000    1.429    0.000    4.286    0.000    0.000 
#    0.000    0.000    0.000    0.000    0.000    0.000 
#
# Total GULP energy -155929.551708 kJ/mol
# GULP energy per Si atom -5568.912561 kJ/mol
# Density = 2.184197 g / cm^3
# Si number density = 21.891793 Si / 1000 Ang^3
#
#
#
# Elastic Constant Matrix: (Units=GPa)
#
#
# Indices 1 2 3 4 5 6 
#
# 1 64.1135 -0.8098 11.8718 0.0000 -15.4133 0.0000
# 2 -0.8098 24.3068 -5.2601 0.0000 2.3367 0.0000
# 3 11.8718 -5.2601 53.3855 0.0000 -20.0293 0.0000
# 4 0.0000 0.0000 0.0000 21.7081 0.0000 -13.5477
# 5 -15.4133 2.3367 -20.0293 0.0000 30.5148 0.0000
# 6 0.0000 0.0000 0.0000 -13.5477 0.0000 19.2095
#
#
#
# Elastic Compliance Matrix: (Units=1/GPa)
#
#
# Indices 1 2 3 4 5 6 
#
# 1 0.017781 -0.000398 -0.000812 0.000000 0.008479 0.000000
# 2 -0.000398 0.042056 0.003912 0.000000 -0.000854 0.000000
# 3 -0.000812 0.003912 0.025249 0.000000 0.015863 0.000000
# 4 0.000000 0.000000 0.000000 0.082282 0.000000 0.058030
# 5 0.008479 -0.000854 0.015863 0.000000 0.047531 0.000000
# 6 0.000000 0.000000 0.000000 0.058030 0.000000 0.092984
#
#
# Mechanical properties :
#
#
# Convention : Reuss Voigt Hill
#
# Bulk Modulus (GPa) = 11.05106 17.04550 14.04828
# Shear Modulus (GPa) = 15.03108 23.35342 19.19225
#
# Velocity S-wave (km/s) = 2.62316 3.26968 2.96410
# Velocity P-wave (km/s) = 3.77275 4.69655 4.25977
#
# Compressibility (1/GPa) = 0.09048909
#
# Stress axis : x y z
#
# Youngs Moduli (GPa) = 56.23963 23.77774 39.60491
#
# Poissons Ratio (x) = 0.00947 0.03217
# Poissons Ratio (y) = 0.02241 -0.15494
# Poissons Ratio (z) = 0.04569 -0.09302
#
# Static dielectric constant tensor:
#      x y z
#    x 1.916780 0.000000 0.109110 
#    y 0.000000 1.924110 0.000000 
#    z 0.109110 0.000000 1.871510 
# 
# From -- ./inp_files/89544.got.cif
#   From: 2010.05.17/outbox.cif.g08.bks.cpg/sg15_45_cif.got.tgz:89544.got - 2010.06.03 18:47:42.
