data_PCOD9279603
_publ_section_title
;
Structure prediction by ZEFSAII (Michael W. Deem and Ramdas Pophale) SiO2 
 PCOD9279603
Probable space group: C 2/C
;
_chemical_formula_sum "Si O2"
_cell_formula_units_Z 56
_cell_length_a 9.288080
_cell_length_b 11.443739
_cell_length_c 27.393431
_cell_angle_alpha 90.000000
_cell_angle_beta 68.012867
_cell_angle_gamma 90.000000
_cell_volume 2699.886919
_symmetry_space_group_name_H-M "C 2/C"
_symmetry_group_IT_number 15
_symmetry_cell_setting 'monoclinic'
loop_
_space_group_symop_operation_xyz
x,y,z
-x,y,1/2-z
-x,-y,-z
x,-y,1/2+z
1/2+x,1/2+y,z
1/2-x,1/2+y,1/2-z
1/2-x,1/2-y,-z
1/2+x,1/2-y,1/2+z
loop_
_atom_site_type_symbol
_atom_site_label
_atom_site_fract_x
_atom_site_fract_y
_atom_site_fract_z
Si Si1 0.833369 0.132097 0.538481
Si Si2 0.139318 0.573767 0.890105
Si Si3 0.337692 0.718517 0.038179
Si Si4 0.802961 0.889124 0.937629
Si Si5 0.461426 0.327814 0.311457
Si Si6 0.907600 0.411561 0.861607
Si Si7 0.119556 0.000372 0.366057
O O1 0.768397 0.069313 0.497880
O O2 0.743402 0.253845 0.556981
O O3 0.848547 0.073136 0.588739
O O4 0.007796 0.155038 0.498403
O O5 0.107061 0.672300 0.935352
O O6 0.202461 0.463526 0.912794
O O7 0.281386 0.633634 0.842450
O O8 0.006372 0.517539 0.872467
O O9 0.212426 0.642978 0.083756
O O10 0.250000 0.750000 0.000000
O O11 0.980922 0.910962 0.898327
O O12 0.500000 0.329544 0.250000
O O13 0.498185 0.201064 0.330327
O O14 0.557375 0.421156 0.330702
O O15 0.788394 0.447685 0.833826
#
# Coordination Sequence:
#
# PCOD9279603 Si02
#       7
#     8   8   8   8   8   8   8
#     4  11  22  33  55  88 128 170 208 240 286 360
#     4  10  23  39  62  91 121 161 207 251 307 373
#     4  11  22  35  55  89 130 172 210 243 289 352
#     4  10  21  36  54  84 127 170 207 241 288 353
#     4  10  24  47  66  87 116 150 205 270 323 379
#     4  11  24  40  63  93 126 158 203 259 307 366
#     4  11  23  40  62  88 123 167 206 252 309 362
#
# _framework density 20.741610000000001
#
# number of rings (size 3 to 8) (size 9 to 14) (size 15 to 20)
#    0.000    1.429    1.429    4.714    6.000    2.286 
#    0.000    0.000    0.000    0.000    0.000    0.000 
#    0.000    0.000    0.000    0.000    0.000    0.000 
#
# Total GULP energy -156369.597866 kJ/mol
# GULP energy per Si atom -5584.628495 kJ/mol
# Density = 2.069440 g / cm^3
# Si number density = 20.741610 Si / 1000 Ang^3
#
#
#
# Elastic Constant Matrix: (Units=GPa)
#
#
# Indices 1 2 3 4 5 6 
#
# 1 81.0568 23.6560 12.0677 0.0000 7.7361 0.0000
# 2 23.6560 78.5612 25.7451 0.0000 8.4676 0.0000
# 3 12.0677 25.7451 69.0528 0.0000 20.3738 0.0000
# 4 0.0000 0.0000 0.0000 5.9563 0.0000 0.7348
# 5 7.7361 8.4676 20.3738 0.0000 18.7093 0.0000
# 6 0.0000 0.0000 0.0000 0.7348 0.0000 39.2345
#
#
#
# Elastic Compliance Matrix: (Units=1/GPa)
#
#
# Indices 1 2 3 4 5 6 
#
# 1 0.013811 -0.003782 0.000260 0.000000 -0.004282 0.000000
# 2 -0.003782 0.015549 -0.005188 0.000000 0.000176 0.000000
# 3 0.000260 -0.005188 0.023146 0.000000 -0.022965 0.000000
# 4 0.000000 0.000000 0.000000 0.168277 0.000000 -0.003152
# 5 -0.004282 0.000176 -0.022965 0.000000 0.080148 0.000000
# 6 0.000000 0.000000 0.000000 -0.003152 0.000000 0.025547
#
#
# Mechanical properties :
#
#
# Convention : Reuss Voigt Hill
#
# Bulk Modulus (GPa) = 28.50225 39.06758 33.78492
# Shear Modulus (GPa) = 14.06096 23.92683 18.99389
#
# Velocity S-wave (km/s) = 2.60650 3.40010 3.02940
# Velocity P-wave (km/s) = 4.77806 5.85581 5.34417
#
# Compressibility (1/GPa) = 0.03508495
#
# Stress axis : x y z
#
# Youngs Moduli (GPa) = 72.40683 64.31257 43.20344
#
# Poissons Ratio (x) = 0.24325 -0.01123
# Poissons Ratio (y) = 0.27387 0.22415
# Poissons Ratio (z) = -0.01882 0.33367
#
# Static dielectric constant tensor:
#      x y z
#    x 1.808820 0.000000 -0.018260 
#    y 0.000000 1.841830 0.000000 
#    z -0.018260 0.000000 1.722660 
# 
# From -- ./inp_files/288062.got.cif
#   From: 2010.05.17/outbox.cif.g08.bks.cpg/sg15_145_cif.got.tgz:288062.got - 2010.06.03 18:47:42.
