data_PCOD9279355
_publ_section_title
;
Structure prediction by ZEFSAII (Michael W. Deem and Ramdas Pophale) SiO2 
 PCOD9279355
Probable space group: C 2/C
;
_chemical_formula_sum "Si O2"
_cell_formula_units_Z 40
_cell_length_a 22.426732
_cell_length_b 7.231657
_cell_length_c 29.214730
_cell_angle_alpha 90.000000
_cell_angle_beta 19.606250
_cell_angle_gamma 90.000000
_cell_volume 1589.895343
_symmetry_space_group_name_H-M "C 2/C"
_symmetry_group_IT_number 15
_symmetry_cell_setting 'monoclinic'
loop_
_space_group_symop_operation_xyz
x,y,z
-x,y,1/2-z
-x,-y,-z
x,-y,1/2+z
1/2+x,1/2+y,z
1/2-x,1/2+y,1/2-z
1/2-x,1/2-y,-z
1/2+x,1/2-y,1/2+z
loop_
_atom_site_type_symbol
_atom_site_label
_atom_site_fract_x
_atom_site_fract_y
_atom_site_fract_z
Si Si1 0.032047 0.555497 0.095024
Si Si2 0.128069 0.088636 0.113560
Si Si3 0.126708 0.375057 0.878891
Si Si4 0.003143 0.888775 0.886998
Si Si5 0.812061 0.970451 0.109755
O O1 0.993702 0.672900 0.077480
O O2 0.861493 0.584619 0.250979
O O3 0.018423 0.335151 0.091180
O O4 0.227338 0.562428 0.974953
O O5 0.012101 0.035523 0.153405
O O6 0.000000 0.136580 0.250000
O O7 0.250000 0.250000 0.000000
O O8 0.309652 0.456394 0.726622
O O9 0.214811 0.235070 0.850976
O O10 0.000000 0.500000 0.000000
O O11 0.843240 0.963071 0.033640
O O12 0.000000 0.000000 0.000000
#
# Coordination Sequence:
#
# PCOD9279355 Si02
#       5
#     8   8   8   8   8
#     4  10  21  35  58  85 119 155 198 243 303 353
#     4  10  22  35  55  88 124 158 201 249 306 359
#     4  11  20  35  58  84 117 157 197 242 303 360
#     4  10  21  35  58  87 122 153 198 255 300 353
#     4  11  22  37  57  92 119 153 200 251 300 357
#
# _framework density 25.158888000000001
#
# number of rings (size 3 to 8) (size 9 to 14) (size 15 to 20)
#    0.000    1.600    4.000    1.200   14.000    0.000 
#    0.000    0.000    0.000    1.200    5.200    0.000 
#    0.000    0.000    0.000    0.000    0.000    0.000 
#
# Total GULP energy -111449.000682 kJ/mol
# GULP energy per Si atom -5572.450034 kJ/mol
# Density = 2.510163 g / cm^3
# Si number density = 25.158888 Si / 1000 Ang^3
#
#
#
# Elastic Constant Matrix: (Units=GPa)
#
#
# Indices 1 2 3 4 5 6 
#
# 1 151.2276 5.8394 41.2195 0.0575 8.8019 -0.1021
# 2 5.8394 45.8132 3.7261 0.0413 1.8899 -0.0153
# 3 41.2195 3.7261 114.9440 0.0624 14.3291 -0.0439
# 4 0.0575 0.0413 0.0624 17.9577 0.0102 -17.7098
# 5 8.8019 1.8899 14.3291 0.0102 65.9204 0.0219
# 6 -0.1021 -0.0153 -0.0439 -17.7098 0.0219 19.0465
#
#
#
# Elastic Compliance Matrix: (Units=1/GPa)
#
#
# Indices 1 2 3 4 5 6 
#
# 1 0.007363 -0.000713 -0.002567 0.000243 -0.000405 0.000260
# 2 -0.000713 0.021970 -0.000401 -0.000402 -0.000447 -0.000361
# 3 -0.002567 -0.000401 0.009856 -0.000163 -0.001788 -0.000141
# 4 0.000243 -0.000402 -0.000163 0.670839 -0.000297 0.623761
# 5 -0.000405 -0.000447 -0.001788 -0.000297 0.015626 -0.000300
# 6 0.000260 -0.000361 -0.000141 0.623761 -0.000300 0.632490
#
#
# Mechanical properties :
#
#
# Convention : Reuss Voigt Hill
#
# Bulk Modulus (GPa) = 31.41871 45.95053 38.68462
# Shear Modulus (GPa) = 3.63342 37.99824 20.81583
#
# Velocity S-wave (km/s) = 1.20305 3.89051 2.87953
# Velocity P-wave (km/s) = 3.80066 6.20365 5.14443
#
# Compressibility (1/GPa) = 0.03182817
#
# Stress axis : x y z
#
# Youngs Moduli (GPa) = 135.80654 45.51670 101.45729
#
# Poissons Ratio (x) = 0.03246 0.26044
# Poissons Ratio (y) = 0.09686 0.04064
# Poissons Ratio (z) = 0.34862 0.01823
#
# Static dielectric constant tensor:
#      x y z
#    x 1.924670 -0.000120 -0.472430 
#    y -0.000120 3.815550 -0.003350 
#    z -0.472430 -0.003350 -0.286380 
# 
# From -- ./inp_files/109759.got.cif
#   From: 2010.05.17/outbox.cif.g08.bks.cpg/sg15_55_cif.got.tgz:109759.got - 2010.06.03 18:47:42.
