data_PCOD9279297
_publ_section_title
;
Structure prediction by ZEFSAII (Michael W. Deem and Ramdas Pophale) SiO2 
 PCOD9279297
Probable space group: C 2/C
;
_chemical_formula_sum "Si O2"
_cell_formula_units_Z 48
_cell_length_a 7.009355
_cell_length_b 33.774716
_cell_length_c 10.860621
_cell_angle_alpha 90.000000
_cell_angle_beta 64.801344
_cell_angle_gamma 90.000000
_cell_volume 2326.455719
_symmetry_space_group_name_H-M "C 2/C"
_symmetry_group_IT_number 15
_symmetry_cell_setting 'monoclinic'
loop_
_space_group_symop_operation_xyz
x,y,z
-x,y,1/2-z
-x,-y,-z
x,-y,1/2+z
1/2+x,1/2+y,z
1/2-x,1/2+y,1/2-z
1/2-x,1/2-y,-z
1/2+x,1/2-y,1/2+z
loop_
_atom_site_type_symbol
_atom_site_label
_atom_site_fract_x
_atom_site_fract_y
_atom_site_fract_z
Si Si1 0.842972 0.856444 0.568348
Si Si2 0.643988 0.142592 0.375206
Si Si3 0.631936 0.568531 0.592314
Si Si4 0.885096 0.215626 0.402218
Si Si5 0.634884 0.998695 0.590988
Si Si6 0.923452 0.413404 0.399022
O O1 0.604423 0.852439 0.581119
O O2 0.780790 0.871942 0.721697
O O3 0.941843 0.891054 0.455448
O O4 0.965990 0.814388 0.555385
O O5 0.722888 0.185420 0.386758
O O6 0.694931 0.115059 0.476584
O O7 0.500000 0.557861 0.750000
O O8 0.679779 0.532381 0.486223
O O9 0.863130 0.577501 0.584665
O O10 0.750000 0.250000 0.500000
O O11 0.000000 0.232815 0.250000
O O12 0.500000 0.986769 0.750000
O O13 0.690240 0.044893 0.597706
O O14 0.500000 0.000000 0.500000
O O15 0.000000 0.395023 0.250000
#
# Coordination Sequence:
#
# PCOD9279297 Si02
#       6
#     8   8   8   8   8   8
#     4   9  20  38  61  88 118 155 207 240 301 372
#     4   9  19  37  65  85 115 165 196 247 298 364
#     4  10  21  35  56  86 118 151 201 262 297 352
#     4  10  22  41  62  90 120 151 193 245 304 370
#     4   9  19  35  57  80 117 166 208 248 307 367
#     4   9  19  35  56  82 119 158 203 246 304 361
#
# _framework density 20.632244
#
# number of rings (size 3 to 8) (size 9 to 14) (size 15 to 20)
#    0.000    2.667    0.000    0.000    9.333    1.333 
#    3.000   10.000    0.000    0.000    0.000    0.000 
#    0.000    0.000    0.000    0.000    0.000    0.000 
#
# Total GULP energy -133646.180679 kJ/mol
# GULP energy per Si atom -5568.590862 kJ/mol
# Density = 2.058528 g / cm^3
# Si number density = 20.632244 Si / 1000 Ang^3
#
#
#
# Elastic Constant Matrix: (Units=GPa)
#
#
# Indices 1 2 3 4 5 6 
#
# 1 69.5592 9.0316 24.0946 0.0000 6.3932 0.0000
# 2 9.0316 67.8732 82.5555 0.0000 -10.6034 0.0000
# 3 24.0946 82.5555 173.5278 0.0000 -5.7225 0.0000
# 4 0.0000 0.0000 0.0000 25.9240 0.0000 -12.8999
# 5 6.3932 -10.6034 -5.7225 0.0000 27.4160 0.0000
# 6 0.0000 0.0000 0.0000 -12.8999 0.0000 17.8589
#
#
#
# Elastic Compliance Matrix: (Units=1/GPa)
#
#
# Indices 1 2 3 4 5 6 
#
# 1 0.015549 0.000207 -0.002391 0.000000 -0.004045 0.000000
# 2 0.000207 0.038002 -0.017747 0.000000 0.010945 0.000000
# 3 -0.002391 -0.017747 0.014429 0.000000 -0.003294 0.000000
# 4 0.000000 0.000000 0.000000 0.060219 0.000000 0.043497
# 5 -0.004045 0.010945 -0.003294 0.000000 0.040964 0.000000
# 6 0.000000 0.000000 0.000000 0.043497 0.000000 0.087414
#
#
# Mechanical properties :
#
#
# Convention : Reuss Voigt Hill
#
# Bulk Modulus (GPa) = 35.56364 60.25820 47.91092
# Shear Modulus (GPa) = 16.34996 27.25835 21.80415
#
# Velocity S-wave (km/s) = 2.81810 3.63871 3.25437
# Velocity P-wave (km/s) = 5.27856 6.85003 6.11499
#
# Compressibility (1/GPa) = 0.02811861
#
# Stress axis : x y z
#
# Youngs Moduli (GPa) = 64.31146 26.31458 69.30355
#
# Poissons Ratio (x) = -0.00545 0.16571
# Poissons Ratio (y) = -0.01333 1.22994
# Poissons Ratio (z) = 0.15377 0.46701
#
# Static dielectric constant tensor:
#      x y z
#    x 1.841550 0.000000 -0.011240 
#    y 0.000000 1.709150 0.000000 
#    z -0.011240 0.000000 1.999610 
# 
# From -- ./inp_files/80542.got.cif
#   From: 2010.05.17/outbox.cif.g08.bks.cpg/sg15_41_cif.got.tgz:80542.got - 2010.06.03 18:47:42.
