data_PCOD9279164
_publ_section_title
;
Structure prediction by ZEFSAII (Michael W. Deem and Ramdas Pophale) SiO2 
 PCOD9279164
Probable space group: C 2/C
;
_chemical_formula_sum "Si O2"
_cell_formula_units_Z 56
_cell_length_a 10.529850
_cell_length_b 13.330740
_cell_length_c 24.948018
_cell_angle_alpha 90.000000
_cell_angle_beta 47.157440
_cell_angle_gamma 90.000000
_cell_volume 2567.732245
_symmetry_space_group_name_H-M "C 2/C"
_symmetry_group_IT_number 15
_symmetry_cell_setting 'monoclinic'
loop_
_space_group_symop_operation_xyz
x,y,z
-x,y,1/2-z
-x,-y,-z
x,-y,1/2+z
1/2+x,1/2+y,z
1/2-x,1/2+y,1/2-z
1/2-x,1/2-y,-z
1/2+x,1/2-y,1/2+z
loop_
_atom_site_type_symbol
_atom_site_label
_atom_site_fract_x
_atom_site_fract_y
_atom_site_fract_z
Si Si1 0.177654 0.570086 0.217580
Si Si2 0.290453 0.172904 0.941619
Si Si3 0.678422 0.709200 0.234098
Si Si4 0.736848 0.981464 0.476205
Si Si5 0.642928 0.108496 0.803918
Si Si6 0.073707 0.937933 0.428415
Si Si7 0.849138 0.445950 0.608850
O O1 0.305579 0.636614 0.217733
O O2 0.097772 0.482583 0.277826
O O3 0.292009 0.512100 0.140365
O O4 0.000000 0.625654 0.250000
O O5 0.483029 0.180629 0.864013
O O6 0.163412 0.160093 0.927792
O O7 0.250000 0.250000 0.000000
O O8 0.284093 0.065558 0.972434
O O9 0.500000 0.720593 0.250000
O O10 0.751280 0.815441 0.235522
O O11 0.797722 0.647823 0.158911
O O12 0.759495 0.038551 0.413690
O O13 0.547719 0.931869 0.532565
O O14 0.905837 0.917294 0.440300
O O15 0.687747 0.047570 0.845203
O O16 0.000000 0.000000 0.500000
#
# Coordination Sequence:
#
# PCOD9279164 Si02
#       7
#     8   8   8   8   8   8   8
#     4  11  22  42  64  90 130 169 205 267 326 374
#     4  10  21  34  60  95 124 153 213 268 308 373
#     4  11  24  37  66  94 122 164 219 253 313 388
#     4   9  19  39  64  88 126 168 210 254 320 386
#     4  10  22  40  61  92 123 167 211 259 317 375
#     4  10  21  35  62  92 119 166 211 254 309 386
#     4   9  20  40  64  93 128 168 206 266 321 374
#
# _framework density 21.809127
#
# number of rings (size 3 to 8) (size 9 to 14) (size 15 to 20)
#    0.000    2.000    1.429    1.286    8.000    0.000 
#    0.000    4.286    0.000   15.429    0.000    0.000 
#    0.000    0.000    0.000    0.000    0.000    0.000 
#
# Total GULP energy -155888.068135 kJ/mol
# GULP energy per Si atom -5567.431005 kJ/mol
# Density = 2.175949 g / cm^3
# Si number density = 21.809127 Si / 1000 Ang^3
#
#
#
# Elastic Constant Matrix: (Units=GPa)
#
#
# Indices 1 2 3 4 5 6 
#
# 1 106.3351 15.4148 31.1320 0.0000 7.9328 0.0000
# 2 15.4148 55.9472 8.9435 0.0000 -0.3867 0.0000
# 3 31.1320 8.9435 70.1627 0.0000 13.7445 0.0000
# 4 0.0000 0.0000 0.0000 37.6327 0.0000 13.9640
# 5 7.9328 -0.3867 13.7445 0.0000 26.7341 0.0000
# 6 0.0000 0.0000 0.0000 13.9640 0.0000 26.3105
#
#
#
# Elastic Compliance Matrix: (Units=1/GPa)
#
#
# Indices 1 2 3 4 5 6 
#
# 1 0.011122 -0.002364 -0.004426 0.000000 -0.001059 0.000000
# 2 -0.002364 0.018812 -0.001712 0.000000 0.001854 0.000000
# 3 -0.004426 -0.001712 0.017995 0.000000 -0.007963 0.000000
# 4 0.000000 0.000000 0.000000 0.033089 0.000000 -0.017562
# 5 -0.001059 0.001854 -0.007963 0.000000 0.041840 0.000000
# 6 0.000000 0.000000 0.000000 -0.017562 0.000000 0.047328
#
#
# Mechanical properties :
#
#
# Convention : Reuss Voigt Hill
#
# Bulk Modulus (GPa) = 32.33770 38.15839 35.24805
# Shear Modulus (GPa) = 25.31670 29.93244 27.62457
#
# Velocity S-wave (km/s) = 3.41079 3.70871 3.56287
# Velocity P-wave (km/s) = 5.51100 5.98948 5.75522
#
# Compressibility (1/GPa) = 0.03092365
#
# Stress axis : x y z
#
# Youngs Moduli (GPa) = 89.91370 53.15797 55.57224
#
# Poissons Ratio (x) = 0.12567 0.24597
# Poissons Ratio (y) = 0.21256 0.09514
# Poissons Ratio (z) = 0.39797 0.09101
#
# Static dielectric constant tensor:
#      x y z
#    x 1.888310 0.000000 -0.043880 
#    y 0.000000 1.855400 0.000000 
#    z -0.043880 0.000000 1.891630 
# 
# From -- ./inp_files/292833.got.cif
#   From: 2010.05.17/outbox.cif.g08.bks.cpg/sg15_147_cif.got.tgz:292833.got - 2010.06.03 18:47:42.
