data_PCOD9279712
_publ_section_title
;
Structure prediction by ZEFSAII (Michael W. Deem and Ramdas Pophale) SiO2 
 PCOD9279712
Probable space group: C 2/C
;
_chemical_formula_sum "Si O2"
_cell_formula_units_Z 60
_cell_length_a 18.040108
_cell_length_b 21.978363
_cell_length_c 15.264056
_cell_angle_alpha 90.000000
_cell_angle_beta 149.477002
_cell_angle_gamma 90.000000
_cell_volume 3073.753982
_symmetry_space_group_name_H-M "C 2/C"
_symmetry_group_IT_number 15
_symmetry_cell_setting 'monoclinic'
loop_
_space_group_symop_operation_xyz
x,y,z
-x,y,1/2-z
-x,-y,-z
x,-y,1/2+z
1/2+x,1/2+y,z
1/2-x,1/2+y,1/2-z
1/2-x,1/2-y,-z
1/2+x,1/2-y,1/2+z
loop_
_atom_site_type_symbol
_atom_site_label
_atom_site_fract_x
_atom_site_fract_y
_atom_site_fract_z
Si Si1 0.000000 0.963887 0.750000
Si Si2 0.656034 0.134318 0.712289
Si Si3 0.390561 0.238990 0.705530
Si Si4 0.510534 0.366464 0.896586
Si Si5 0.972660 0.523189 0.570047
Si Si6 0.259179 0.922336 0.387075
Si Si7 0.449501 0.435787 0.996082
Si Si8 0.268784 0.953586 0.581069
O O1 0.948100 0.918518 0.771847
O O2 0.863794 0.003180 0.582607
O O3 0.634237 0.201289 0.730531
O O4 0.525189 0.092786 0.617690
O O5 0.674037 0.118025 0.626043
O O6 0.816193 0.119561 0.916184
O O7 0.500000 0.205457 0.750000
O O8 0.250000 0.250000 0.500000
O O9 0.467485 0.301868 0.813383
O O10 0.445457 0.380567 0.924274
O O11 0.818891 0.491741 0.435602
O O12 0.000000 0.500000 0.500000
O O13 0.086257 0.490349 0.750238
O O14 0.292743 0.908203 0.523326
O O15 0.085922 0.922266 0.198205
O O16 0.297490 0.433835 0.892844
O O17 0.500000 0.500000 0.000000
#
# Coordination Sequence:
#
# PCOD9279712 Si02
#       8
#     4   8   8   8   8   8   8   8
#     4  12  18  32  58  84 118 154 200 244 296 372
#     4  10  21  41  58  82 123 162 203 261 304 366
#     4  12  24  42  62  87 118 162 217 255 315 370
#     4  11  21  38  59  84 122 162 199 261 302 365
#     4  10  21  37  56  84 125 161 196 250 319 374
#     4  10  21  36  57  85 121 158 201 251 306 371
#     4  11  19  35  57  85 121 159 201 248 311 370
#     4  12  20  34  58  91 122 161 206 241 313 386
#
# _framework density 19.520104
#
# number of rings (size 3 to 8) (size 9 to 14) (size 15 to 20)
#    0.000    1.067    6.000    2.000    0.000    1.067 
#    7.200    0.000    0.000    0.800    0.000    5.600 
#    0.000    0.000    0.000    0.000    0.000    0.000 
#
# Total GULP energy -167001.409800 kJ/mol
# GULP energy per Si atom -5566.713660 kJ/mol
# Density = 1.947567 g / cm^3
# Si number density = 19.520104 Si / 1000 Ang^3
#
#
#
# Elastic Constant Matrix: (Units=GPa)
#
#
# Indices 1 2 3 4 5 6 
#
# 1 92.1497 23.9888 8.2490 0.0000 -4.3036 0.0000
# 2 23.9888 59.5533 19.2381 0.0000 -8.3289 0.0000
# 3 8.2490 19.2381 58.4532 0.0000 -12.8555 0.0000
# 4 0.0000 0.0000 0.0000 24.2395 0.0000 -5.5929
# 5 -4.3036 -8.3289 -12.8555 0.0000 32.2578 0.0000
# 6 0.0000 0.0000 0.0000 -5.5929 0.0000 31.3503
#
#
#
# Elastic Compliance Matrix: (Units=1/GPa)
#
#
# Indices 1 2 3 4 5 6 
#
# 1 0.012128 -0.004820 -0.000047 0.000000 0.000355 0.000000
# 2 -0.004820 0.020909 -0.005651 0.000000 0.002504 0.000000
# 3 -0.000047 -0.005651 0.020444 0.000000 0.006682 0.000000
# 4 0.000000 0.000000 0.000000 0.043026 0.000000 0.007676
# 5 0.000355 0.002504 0.006682 0.000000 0.034357 0.000000
# 6 0.000000 0.000000 0.000000 0.007676 0.000000 0.033267
#
#
# Mechanical properties :
#
#
# Convention : Reuss Voigt Hill
#
# Bulk Modulus (GPa) = 30.82227 34.78979 32.80603
# Shear Modulus (GPa) = 25.51273 28.14822 26.83047
#
# Velocity S-wave (km/s) = 3.61916 3.80150 3.71145
# Velocity P-wave (km/s) = 5.76964 6.09342 5.93374
#
# Compressibility (1/GPa) = 0.03244408
#
# Stress axis : x y z
#
# Youngs Moduli (GPa) = 82.45709 47.82652 48.91503
#
# Poissons Ratio (x) = 0.23054 0.00230
# Poissons Ratio (y) = 0.39747 0.27640
# Poissons Ratio (z) = 0.00388 0.27025
#
# Static dielectric constant tensor:
#      x y z
#    x 2.120290 0.000000 0.002830 
#    y 0.000000 1.689900 0.000000 
#    z 0.002830 0.000000 1.739550 
# 
# From -- ./inp_files/164133.got.cif
#   From: 2010.05.17/outbox.cif.g08.bks.cpg/sg15_83_cif.got.tgz:164133.got - 2010.06.03 18:47:42.
