data_PCOD9279654
_publ_section_title
;
Structure prediction by ZEFSAII (Michael W. Deem and Ramdas Pophale) SiO2 
 PCOD9279654
Probable space group: C 2/C
;
_chemical_formula_sum "Si O2"
_cell_formula_units_Z 56
_cell_length_a 5.166237
_cell_length_b 28.967564
_cell_length_c 21.945676
_cell_angle_alpha 90.000000
_cell_angle_beta 122.775891
_cell_angle_gamma 90.000000
_cell_volume 2761.373230
_symmetry_space_group_name_H-M "C 2/C"
_symmetry_group_IT_number 15
_symmetry_cell_setting 'monoclinic'
loop_
_space_group_symop_operation_xyz
x,y,z
-x,y,1/2-z
-x,-y,-z
x,-y,1/2+z
1/2+x,1/2+y,z
1/2-x,1/2+y,1/2-z
1/2-x,1/2-y,-z
1/2+x,1/2-y,1/2+z
loop_
_atom_site_type_symbol
_atom_site_label
_atom_site_fract_x
_atom_site_fract_y
_atom_site_fract_z
Si Si1 0.650903 0.984505 0.938645
Si Si2 0.550959 0.924252 0.469789
Si Si3 0.446475 0.180404 0.541894
Si Si4 0.870733 0.843534 0.799127
Si Si5 0.703518 0.807927 0.944246
Si Si6 0.293703 0.401128 0.902579
Si Si7 0.251088 0.749864 0.333774
O O1 0.531338 0.950804 0.977688
O O2 0.632732 0.950665 0.878616
O O3 0.482830 0.034011 0.914261
O O4 0.000000 0.000000 0.000000
O O5 0.427779 0.872643 0.443810
O O6 0.912804 0.911961 0.517983
O O7 0.570969 0.201609 0.493966
O O8 0.568495 0.206629 0.616935
O O9 0.076872 0.187485 0.493897
O O10 0.500000 0.841683 0.750000
O O11 0.929773 0.881453 0.857702
O O12 0.956321 0.792066 0.832466
O O13 0.000000 0.854016 0.750000
O O14 0.604613 0.859229 0.908549
O O15 0.618785 0.773411 0.878918
O O16 0.000000 0.761164 0.250000
#
# Coordination Sequence:
#
# PCOD9279654 Si02
#       7
#     8   8   8   8   8   8   8
#     4   9  16  30  50  83 108 135 172 231 292 334
#     4   9  18  29  52  82 112 135 182 226 287 333
#     4  11  21  37  57  84 114 152 191 237 287 336
#     4  10  23  37  54  79 111 145 188 227 273 334
#     4  10  21  36  56  83 115 148 188 238 283 338
#     4   9  18  31  54  78 113 141 176 228 286 335
#     4  10  23  38  57  82 116 155 194 233 283 346
#
# _framework density 20.279762999999999
#
# number of rings (size 3 to 8) (size 9 to 14) (size 15 to 20)
#    0.000    2.286    1.429    0.857    2.000    9.143 
#    0.000    0.000    0.000    0.000   11.143    0.000 
#    0.000    0.000    0.000    0.000    0.000    0.000 
#
# Total GULP energy -155987.126202 kJ/mol
# GULP energy per Si atom -5570.968793 kJ/mol
# Density = 2.023361 g / cm^3
# Si number density = 20.279763 Si / 1000 Ang^3
#
#
#
# Elastic Constant Matrix: (Units=GPa)
#
#
# Indices 1 2 3 4 5 6 
#
# 1 68.6371 6.6358 18.1921 0.0000 -9.5029 0.0000
# 2 6.6358 135.7754 56.0798 0.0000 -5.2105 0.0000
# 3 18.1921 56.0798 103.1672 0.0000 -7.6308 0.0000
# 4 0.0000 0.0000 0.0000 16.7012 0.0000 -3.9570
# 5 -9.5029 -5.2105 -7.6308 0.0000 26.5130 0.0000
# 6 0.0000 0.0000 0.0000 -3.9570 0.0000 14.6216
#
#
#
# Elastic Compliance Matrix: (Units=1/GPa)
#
#
# Indices 1 2 3 4 5 6 
#
# 1 0.015938 0.000543 -0.002734 0.000000 0.005033 0.000000
# 2 0.000543 0.009520 -0.005229 0.000000 0.000561 0.000000
# 3 -0.002734 -0.005229 0.013149 0.000000 0.001777 0.000000
# 4 0.000000 0.000000 0.000000 0.063978 0.000000 0.017314
# 5 0.005033 0.000561 0.001777 0.000000 0.040143 0.000000
# 6 0.000000 0.000000 0.000000 0.017314 0.000000 0.073077
#
#
# Mechanical properties :
#
#
# Convention : Reuss Voigt Hill
#
# Bulk Modulus (GPa) = 42.07328 52.15500 47.11414
# Shear Modulus (GPa) = 20.95848 26.67864 23.81856
#
# Velocity S-wave (km/s) = 3.21825 3.63096 3.43081
# Velocity P-wave (km/s) = 5.88226 6.58423 6.24312
#
# Compressibility (1/GPa) = 0.02376805
#
# Stress axis : x y z
#
# Youngs Moduli (GPa) = 62.74258 105.04327 76.05177
#
# Poissons Ratio (x) = -0.05706 0.20789
# Poissons Ratio (y) = -0.03408 0.39769
# Poissons Ratio (z) = 0.17151 0.54929
#
# Static dielectric constant tensor:
#      x y z
#    x 1.840150 0.000000 0.003060 
#    y 0.000000 1.858530 0.000000 
#    z 0.003060 0.000000 1.738950 
# 
# From -- ./inp_files/228740.got.cif
#   From: 2010.05.17/outbox.cif.g08.bks.cpg/sg15_115_cif.got.tgz:228740.got - 2010.06.03 18:47:42.
