data_PCOD9279795
_publ_section_title
;
Structure prediction by ZEFSAII (Michael W. Deem and Ramdas Pophale) SiO2 
 PCOD9279795
Probable space group: C 2/C
;
_chemical_formula_sum "Si O2"
_cell_formula_units_Z 44
_cell_length_a 11.578040
_cell_length_b 6.893197
_cell_length_c 24.346027
_cell_angle_alpha 90.000000
_cell_angle_beta 66.381994
_cell_angle_gamma 90.000000
_cell_volume 1780.293470
_symmetry_space_group_name_H-M "C 2/C"
_symmetry_group_IT_number 15
_symmetry_cell_setting 'monoclinic'
loop_
_space_group_symop_operation_xyz
x,y,z
-x,y,1/2-z
-x,-y,-z
x,-y,1/2+z
1/2+x,1/2+y,z
1/2-x,1/2+y,1/2-z
1/2-x,1/2-y,-z
1/2+x,1/2-y,1/2+z
loop_
_atom_site_type_symbol
_atom_site_label
_atom_site_fract_x
_atom_site_fract_y
_atom_site_fract_z
Si Si1 0.633773 0.041907 0.412411
Si Si2 0.107877 0.219740 0.504342
Si Si3 0.404868 0.226830 0.313090
Si Si4 0.603054 0.552783 0.093423
Si Si5 0.000000 0.364732 0.250000
Si Si6 0.137393 0.285092 0.318103
O O1 0.617608 0.828978 0.444224
O O2 0.758141 0.133247 0.417322
O O3 0.651787 0.994828 0.345189
O O4 0.508172 0.162316 0.446762
O O5 0.250000 0.250000 0.500000
O O6 0.088120 0.001963 0.531884
O O7 0.500000 0.319631 0.250000
O O8 0.401661 0.357783 0.367501
O O9 0.269154 0.195716 0.311626
O O10 0.455722 0.008108 0.307161
O O11 0.486490 0.679182 0.134923
O O12 0.116667 0.265031 0.256682
#
# Coordination Sequence:
#
# PCOD9279795 Si02
#       6
#     8   8   8   8   4   8
#     4   9  20  39  58  85 114 145 188 236 279 340
#     4   9  18  38  63  81 114 152 183 229 289 338
#     4   9  23  39  57  80 115 155 188 235 281 332
#     4  10  21  36  59  86 111 149 188 234 285 336
#     4  10  24  36  54  82 114 154 188 234 276 334
#     4  11  23  37  59  87 116 148 195 235 282 335
#
# _framework density 24.715028
#
# number of rings (size 3 to 8) (size 9 to 14) (size 15 to 20)
#    0.545    1.818    0.000    1.091    3.818    3.636 
#    0.000    8.182    0.000    0.000    0.000    0.000 
#    0.000    0.000    0.000    0.000    0.000    0.000 
#
# Total GULP energy -122511.709641 kJ/mol
# GULP energy per Si atom -5568.714075 kJ/mol
# Density = 2.465878 g / cm^3
# Si number density = 24.715028 Si / 1000 Ang^3
#
#
#
# Elastic Constant Matrix: (Units=GPa)
#
#
# Indices 1 2 3 4 5 6 
#
# 1 184.3974 36.6981 45.7614 0.0000 6.9767 0.0000
# 2 36.6981 33.6990 9.3792 0.0000 -4.1505 0.0000
# 3 45.7614 9.3792 61.3510 0.0000 -2.3122 0.0000
# 4 0.0000 0.0000 0.0000 17.6051 0.0000 -6.6555
# 5 6.9767 -4.1505 -2.3122 0.0000 55.5728 0.0000
# 6 0.0000 0.0000 0.0000 -6.6555 0.0000 26.2102
#
#
#
# Elastic Compliance Matrix: (Units=1/GPa)
#
#
# Indices 1 2 3 4 5 6 
#
# 1 0.008318 -0.007874 -0.005070 0.000000 -0.001843 0.000000
# 2 -0.007874 0.038699 0.000104 0.000000 0.003883 0.000000
# 3 -0.005070 0.000104 0.020121 0.000000 0.001481 0.000000
# 4 0.000000 0.000000 0.000000 0.062834 0.000000 0.015955
# 5 -0.001843 0.003883 0.001481 0.000000 0.018577 0.000000
# 6 0.000000 0.000000 0.000000 0.015955 0.000000 0.042204
#
#
# Mechanical properties :
#
#
# Convention : Reuss Voigt Hill
#
# Bulk Modulus (GPa) = 24.12148 51.45830 37.78989
# Shear Modulus (GPa) = 21.71504 32.38488 27.04996
#
# Velocity S-wave (km/s) = 2.96736 3.62378 3.31187
# Velocity P-wave (km/s) = 4.63911 6.19474 5.47249
#
# Compressibility (1/GPa) = 0.04145683
#
# Stress axis : x y z
#
# Youngs Moduli (GPa) = 120.21852 25.84037 49.69821
#
# Poissons Ratio (x) = 0.20348 0.25198
# Poissons Ratio (y) = 0.94665 -0.00515
# Poissons Ratio (z) = 0.60952 -0.00268
#
# Static dielectric constant tensor:
#      x y z
#    x 2.029260 0.000000 -0.026320 
#    y 0.000000 2.015320 0.000000 
#    z -0.026320 0.000000 2.043160 
# 
# From -- ./inp_files/290802.got.cif
#   From: 2010.05.17/outbox.cif.g08.bks.cpg/sg15_146_cif.got.tgz:290802.got - 2010.06.03 18:47:42.
