data_PCOD9279538
_publ_section_title
;
Structure prediction by ZEFSAII (Michael W. Deem and Ramdas Pophale) SiO2 
 PCOD9279538
Probable space group: C 2/C
;
_chemical_formula_sum "Si O2"
_cell_formula_units_Z 48
_cell_length_a 18.005144
_cell_length_b 9.657503
_cell_length_c 17.633103
_cell_angle_alpha 90.000000
_cell_angle_beta 36.613081
_cell_angle_gamma 90.000000
_cell_volume 1828.663360
_symmetry_space_group_name_H-M "C 2/C"
_symmetry_group_IT_number 15
_symmetry_cell_setting 'monoclinic'
loop_
_space_group_symop_operation_xyz
x,y,z
-x,y,1/2-z
-x,-y,-z
x,-y,1/2+z
1/2+x,1/2+y,z
1/2-x,1/2+y,1/2-z
1/2-x,1/2-y,-z
1/2+x,1/2-y,1/2+z
loop_
_atom_site_type_symbol
_atom_site_label
_atom_site_fract_x
_atom_site_fract_y
_atom_site_fract_z
Si Si1 0.570014 0.847021 0.970396
Si Si2 0.390119 0.021435 0.200394
Si Si3 0.625576 0.460018 0.195618
Si Si4 0.716357 0.226886 0.628956
Si Si5 0.973382 0.887980 0.458099
Si Si6 0.774526 0.445896 0.937616
O O1 0.639690 0.750646 0.972227
O O2 0.472366 0.756746 0.003031
O O3 0.664852 0.898314 0.826427
O O4 0.522371 0.976278 0.057943
O O5 0.330934 0.871644 0.264211
O O6 0.382506 0.094728 0.288746
O O7 0.500000 0.443907 0.250000
O O8 0.649437 0.625705 0.183058
O O9 0.590278 0.394186 0.304443
O O10 0.737023 0.396856 0.052081
O O11 0.702025 0.113432 0.573798
O O12 0.000000 0.000000 0.500000
O O13 0.847983 0.920735 0.514272
#
# Coordination Sequence:
#
# PCOD9279538 Si02
#       6
#     8   8   8   8   8   8
#     4  11  22  38  59  96 125 162 200 270 304 358
#     4   9  23  37  56  90 129 153 211 248 313 367
#     4  10  22  38  62  95 126 161 206 256 306 369
#     4  10  21  35  65  86 125 158 204 255 309 363
#     4  11  20  37  62  89 116 160 207 251 307 366
#     4   9  21  37  58  90 119 161 203 245 310 369
#
# _framework density 26.248681000000001
#
# number of rings (size 3 to 8) (size 9 to 14) (size 15 to 20)
#    1.000    1.000    1.667    1.500    9.333    0.000 
#    0.000    1.667    0.000   11.000    0.000    0.000 
#    0.000    0.000    0.000    0.000    0.000    0.000 
#
# Total GULP energy -133821.298728 kJ/mol
# GULP energy per Si atom -5575.887447 kJ/mol
# Density = 2.618894 g / cm^3
# Si number density = 26.248681 Si / 1000 Ang^3
#
#
#
# Elastic Constant Matrix: (Units=GPa)
#
#
# Indices 1 2 3 4 5 6 
#
# 1 70.6834 12.9259 30.6286 0.0000 18.6917 0.0000
# 2 12.9259 87.4847 25.5005 0.0000 4.7608 0.0000
# 3 30.6286 25.5005 155.8815 0.0000 46.4707 0.0000
# 4 0.0000 0.0000 0.0000 39.3745 0.0000 5.8006
# 5 18.6917 4.7608 46.4707 0.0000 24.0631 0.0000
# 6 0.0000 0.0000 0.0000 5.8006 0.0000 24.8256
#
#
#
# Elastic Compliance Matrix: (Units=1/GPa)
#
#
# Indices 1 2 3 4 5 6 
#
# 1 0.018397 -0.002358 0.002103 0.000000 -0.017884 0.000000
# 2 -0.002358 0.012420 -0.003257 0.000000 0.005664 0.000000
# 3 0.002103 -0.003257 0.016097 0.000000 -0.032075 0.000000
# 4 0.000000 0.000000 0.000000 0.026302 0.000000 -0.006146
# 5 -0.017884 0.005664 -0.032075 0.000000 0.116272 0.000000
# 6 0.000000 0.000000 0.000000 -0.006146 0.000000 0.041717
#
#
# Mechanical properties :
#
#
# Convention : Reuss Voigt Hill
#
# Bulk Modulus (GPa) = 25.06944 50.23995 37.65470
# Shear Modulus (GPa) = 19.87856 33.98562 26.93209
#
# Velocity S-wave (km/s) = 2.75492 3.60217 3.20665
# Velocity P-wave (km/s) = 4.43745 6.04007 5.29969
#
# Compressibility (1/GPa) = 0.03988920
#
# Stress axis : x y z
#
# Youngs Moduli (GPa) = 54.35655 80.51461 62.12347
#
# Poissons Ratio (x) = 0.18984 -0.13062
# Poissons Ratio (y) = 0.12816 0.20235
# Poissons Ratio (z) = -0.11429 0.26225
#
# Static dielectric constant tensor:
#      x y z
#    x 2.067850 0.000000 -0.006280 
#    y 0.000000 2.133010 0.000000 
#    z -0.006280 0.000000 2.196010 
# 
# From -- ./inp_files/214730.got.cif
#   From: 2010.05.17/outbox.cif.g08.bks.cpg/sg15_108_cif.got.tgz:214730.got - 2010.06.03 18:47:42.
