data_PCOD9279983
_publ_section_title
;
Structure prediction by ZEFSAII (Michael W. Deem and Ramdas Pophale) SiO2 
 PCOD9279983
Probable space group: C 2/C
;
_chemical_formula_sum "Si O2"
_cell_formula_units_Z 64
_cell_length_a 11.974183
_cell_length_b 16.002067
_cell_length_c 27.395753
_cell_angle_alpha 90.000000
_cell_angle_beta 144.299582
_cell_angle_gamma 90.000000
_cell_volume 3063.240952
_symmetry_space_group_name_H-M "C 2/C"
_symmetry_group_IT_number 15
_symmetry_cell_setting 'monoclinic'
loop_
_space_group_symop_operation_xyz
x,y,z
-x,y,1/2-z
-x,-y,-z
x,-y,1/2+z
1/2+x,1/2+y,z
1/2-x,1/2+y,1/2-z
1/2-x,1/2-y,-z
1/2+x,1/2-y,1/2+z
loop_
_atom_site_type_symbol
_atom_site_label
_atom_site_fract_x
_atom_site_fract_y
_atom_site_fract_z
Si Si1 0.933422 0.266576 0.612139
Si Si2 0.016387 0.037670 0.082609
Si Si3 0.923388 0.424849 0.439321
Si Si4 0.458693 0.420812 0.144818
Si Si5 0.862394 0.621975 0.247356
Si Si6 0.401797 0.953483 0.319501
Si Si7 0.271103 0.600730 0.904329
Si Si8 0.513625 0.238206 0.477545
O O1 0.718668 0.286988 0.554475
O O2 0.977186 0.300203 0.573849
O O3 0.933049 0.166875 0.608519
O O4 0.087576 0.294362 0.706259
O O5 0.149361 0.109933 0.151968
O O6 0.909761 0.994071 0.089504
O O7 0.159339 0.965785 0.111829
O O8 0.879783 0.068814 0.991684
O O9 0.693111 0.422307 0.365603
O O10 0.965114 0.440443 0.397608
O O11 0.996722 0.336021 0.486871
O O12 0.000000 0.500000 0.500000
O O13 0.679821 0.428999 0.237044
O O14 0.910425 0.548432 0.302870
O O15 0.000000 0.614359 0.250000
O O16 0.546186 0.903940 0.335291
O O17 0.348080 0.693231 0.921343
#
# Coordination Sequence:
#
# PCOD9279983 Si02
#       8
#     8   8   8   8   8   8   8   8
#     4  10  21  38  63  90 127 157 213 269 314 374
#     4  10  21  36  62  92 124 162 207 264 318 378
#     4  11  23  42  64  88 126 173 218 260 313 379
#     4  10  22  41  62  90 125 167 212 261 322 375
#     4  11  21  37  59  93 121 163 212 262 320 377
#     4  11  24  38  62  88 128 165 208 259 324 387
#     4  11  21  38  63  91 126 162 207 265 319 376
#     4  10  22  38  63  96 122 167 214 259 318 387
#
# _framework density 20.892904999999999
#
# number of rings (size 3 to 8) (size 9 to 14) (size 15 to 20)
#    0.000    1.500    2.500    2.625    1.750    3.500 
#    0.000    2.500    0.000    0.000    0.000    0.000 
#    0.000    0.000    0.000    0.000    0.000    0.000 
#
# Total GULP energy -178803.254044 kJ/mol
# GULP energy per Si atom -5587.601689 kJ/mol
# Density = 2.084535 g / cm^3
# Si number density = 20.892905 Si / 1000 Ang^3
#
#
#
# Elastic Constant Matrix: (Units=GPa)
#
#
# Indices 1 2 3 4 5 6 
#
# 1 74.2490 4.2799 10.5760 0.0000 -1.5429 0.0000
# 2 4.2799 32.3403 14.2532 0.0000 9.9867 0.0000
# 3 10.5760 14.2532 58.5932 -0.0001 -1.6094 0.0000
# 4 0.0000 0.0000 -0.0001 26.5812 0.0000 -1.3448
# 5 -1.5429 9.9867 -1.6094 0.0000 37.2222 0.0000
# 6 0.0000 0.0000 0.0000 -1.3448 0.0000 19.6750
#
#
#
# Elastic Compliance Matrix: (Units=1/GPa)
#
#
# Indices 1 2 3 4 5 6 
#
# 1 0.013863 -0.001098 -0.002214 0.000000 0.000773 0.000000
# 2 -0.001098 0.038584 -0.009485 0.000000 -0.010808 0.000000
# 3 -0.002214 -0.009485 0.019865 0.000000 0.003312 0.000000
# 4 0.000000 0.000000 0.000000 0.037751 0.000000 0.002580
# 5 0.000773 -0.010808 0.003312 0.000000 0.029941 0.000000
# 6 0.000000 0.000000 0.000000 0.002580 0.000000 0.051002
#
#
# Mechanical properties :
#
#
# Convention : Reuss Voigt Hill
#
# Bulk Modulus (GPa) = 21.40456 24.82229 23.11342
# Shear Modulus (GPa) = 21.53587 25.76724 23.65155
#
# Velocity S-wave (km/s) = 3.21405 3.51565 3.36823
# Velocity P-wave (km/s) = 4.90312 5.32787 5.11991
#
# Compressibility (1/GPa) = 0.04671903
#
# Stress axis : x y z
#
# Youngs Moduli (GPa) = 72.13497 25.91756 50.34085
#
# Poissons Ratio (x) = 0.02845 0.11145
# Poissons Ratio (y) = 0.07918 0.47746
# Poissons Ratio (z) = 0.15970 0.24582
#
# Static dielectric constant tensor:
#      x y z
#    x 1.768640 0.000000 0.012800 
#    y 0.000000 1.759220 0.000000 
#    z 0.012800 0.000000 1.770200 
# 
# From -- ./inp_files/293090.got.cif
#   From: 2010.05.17/outbox.cif.g08.bks.cpg/sg15_147_cif.got.tgz:293090.got - 2010.06.03 18:47:42.
