data_PCOD9279285
_publ_section_title
;
Structure prediction by ZEFSAII (Michael W. Deem and Ramdas Pophale) SiO2 
 PCOD9279285
Probable space group: C 2/C
;
_chemical_formula_sum "Si O2"
_cell_formula_units_Z 64
_cell_length_a 18.903073
_cell_length_b 17.720304
_cell_length_c 17.726088
_cell_angle_alpha 90.000000
_cell_angle_beta 30.058066
_cell_angle_gamma 90.000000
_cell_volume 2974.047674
_symmetry_space_group_name_H-M "C 2/C"
_symmetry_group_IT_number 15
_symmetry_cell_setting 'monoclinic'
loop_
_space_group_symop_operation_xyz
x,y,z
-x,y,1/2-z
-x,-y,-z
x,-y,1/2+z
1/2+x,1/2+y,z
1/2-x,1/2+y,1/2-z
1/2-x,1/2-y,-z
1/2+x,1/2-y,1/2+z
loop_
_atom_site_type_symbol
_atom_site_label
_atom_site_fract_x
_atom_site_fract_y
_atom_site_fract_z
Si Si1 0.628841 0.399214 0.382691
Si Si2 0.032752 0.326235 0.635961
Si Si3 0.783741 0.101498 0.946648
Si Si4 0.136200 0.412076 0.229027
Si Si5 0.314705 0.065887 0.982416
Si Si6 0.648142 0.556761 0.281794
Si Si7 0.488616 0.653949 0.869586
Si Si8 0.401815 0.944608 0.644777
O O1 0.769888 0.369760 0.294142
O O2 0.667793 0.470534 0.293403
O O3 0.513755 0.424888 0.550957
O O4 0.535556 0.349647 0.412364
O O5 0.200697 0.330830 0.483233
O O6 0.988367 0.240179 0.674213
O O7 0.000000 0.357196 0.750000
O O8 0.983224 0.379106 0.613735
O O9 0.834348 0.127077 0.983017
O O10 0.916124 0.097192 0.767935
O O11 0.694964 0.024576 0.023155
O O12 0.196990 0.398539 0.089569
O O13 0.156579 0.498331 0.237722
O O14 0.965808 0.407798 0.377635
O O15 0.192615 0.076799 0.156250
O O16 0.772778 0.592294 0.218059
O O17 0.500000 0.000000 0.500000
#
# Coordination Sequence:
#
# PCOD9279285 Si02
#       8
#     8   8   8   8   8   8   8   8
#     4  10  23  37  53  84 121 163 200 253 309 371
#     4  12  24  38  59  88 122 171 206 245 287 372
#     4  11  22  37  54  82 122 167 208 245 293 366
#     4  10  22  36  58  89 116 150 203 259 313 360
#     4  11  20  37  61  88 115 157 206 262 315 366
#     4  10  21  35  56  81 117 157 199 255 314 358
#     4  11  25  38  54  83 127 170 206 240 302 370
#     4  11  21  36  58  87 121 154 202 254 300 352
#
# _framework density 21.519494000000002
#
# number of rings (size 3 to 8) (size 9 to 14) (size 15 to 20)
#    0.000    1.250    5.000    1.125    8.750    0.500 
#    0.000    0.000    0.000    0.000    0.000    0.875 
#    7.500    0.000    0.500    0.000    0.000    0.000 
#
# Total GULP energy -178156.623753 kJ/mol
# GULP energy per Si atom -5567.394492 kJ/mol
# Density = 2.147052 g / cm^3
# Si number density = 21.519494 Si / 1000 Ang^3
#
#
#
# Elastic Constant Matrix: (Units=GPa)
#
#
# Indices 1 2 3 4 5 6 
#
# 1 142.3789 27.4314 34.4867 -0.0023 -8.8456 0.0005
# 2 27.4314 23.3128 3.4685 -0.0033 -9.9680 0.0017
# 3 34.4867 3.4685 64.8688 -0.0040 4.8341 0.0017
# 4 -0.0023 -0.0033 -0.0040 7.7848 0.0021 2.8480
# 5 -8.8456 -9.9680 4.8341 0.0021 39.5747 -0.0008
# 6 0.0005 0.0017 0.0017 2.8480 -0.0008 16.0683
#
#
#
# Elastic Compliance Matrix: (Units=1/GPa)
#
#
# Indices 1 2 3 4 5 6 
#
# 1 0.010445 -0.011543 -0.004938 -0.000005 0.000031 0.000002
# 2 -0.011543 0.061631 0.001894 0.000024 0.012712 -0.000010
# 3 -0.004938 0.001894 0.018152 0.000011 -0.002844 -0.000004
# 4 -0.000005 0.000024 0.000011 0.137362 -0.000004 -0.024347
# 5 0.000031 0.012712 -0.002844 -0.000004 0.028825 0.000001
# 6 0.000002 -0.000010 -0.000004 -0.024347 0.000001 0.066550
#
#
# Mechanical properties :
#
#
# Convention : Reuss Voigt Hill
#
# Bulk Modulus (GPa) = 16.37913 40.14820 28.26366
# Shear Modulus (GPa) = 13.42318 23.69717 18.56018
#
# Velocity S-wave (km/s) = 2.50025 3.32203 2.93999
# Velocity P-wave (km/s) = 3.99535 5.78028 4.96862
#
# Compressibility (1/GPa) = 0.06105330
#
# Stress axis : x y z
#
# Youngs Moduli (GPa) = 95.73515 16.22570 55.09108
#
# Poissons Ratio (x) = 0.18729 0.27206
# Poissons Ratio (y) = 1.10508 -0.10435
# Poissons Ratio (z) = 0.47277 -0.03073
#
# Static dielectric constant tensor:
#      x y z
#    x 1.914330 0.000000 -0.094000 
#    y 0.000000 1.750690 0.000000 
#    z -0.094000 0.000000 2.211580 
# 
# From -- ./inp_files/211966.got.cif
#   From: 2010.05.17/outbox.cif.g08.bks.cpg/sg15_106_cif.got.tgz:211966.got - 2010.06.03 18:47:42.
