data_PCOD9279963
_publ_section_title
;
Structure prediction by ZEFSAII (Michael W. Deem and Ramdas Pophale) SiO2 
 PCOD9279963
Probable space group: C 2/C
;
_chemical_formula_sum "Si O2"
_cell_formula_units_Z 48
_cell_length_a 9.564169
_cell_length_b 19.842796
_cell_length_c 30.079894
_cell_angle_alpha 90.000000
_cell_angle_beta 152.501558
_cell_angle_gamma 90.000000
_cell_volume 2635.781005
_symmetry_space_group_name_H-M "C 2/C"
_symmetry_group_IT_number 15
_symmetry_cell_setting 'monoclinic'
loop_
_space_group_symop_operation_xyz
x,y,z
-x,y,1/2-z
-x,-y,-z
x,-y,1/2+z
1/2+x,1/2+y,z
1/2-x,1/2+y,1/2-z
1/2-x,1/2-y,-z
1/2+x,1/2-y,1/2+z
loop_
_atom_site_type_symbol
_atom_site_label
_atom_site_fract_x
_atom_site_fract_y
_atom_site_fract_z
Si Si1 0.674744 0.029331 0.239132
Si Si2 0.561199 0.326035 0.062856
Si Si3 0.699936 0.062341 0.037838
Si Si4 0.500000 0.093081 0.750000
Si Si5 0.000000 0.080567 0.250000
Si Si6 0.007214 0.933538 0.532841
Si Si7 0.418992 0.827786 0.930381
O O1 0.349919 0.066633 0.149462
O O2 0.959726 0.059075 0.346186
O O3 0.780873 0.034573 0.218056
O O4 0.631296 0.956468 0.249049
O O5 0.760702 0.361718 0.156790
O O6 0.668507 0.249489 0.085749
O O7 0.555751 0.370163 0.016568
O O8 0.225294 0.326007 0.988396
O O9 0.551413 0.129911 0.015766
O O10 0.760788 0.060390 0.002502
O O11 0.500000 0.000000 0.000000
O O12 0.187583 0.129718 0.334990
O O13 0.000000 0.000000 0.500000
#
# Coordination Sequence:
#
# PCOD9279963 Si02
#       7
#     8   8   8   4   4   8   8
#     4  11  21  35  60  90 116 152 193 249 296 349
#     4  11  23  38  61  82 124 159 203 240 298 361
#     4  11  23  38  63  89 122 151 201 252 299 349
#     4  12  21  38  58  90 117 158 194 244 303 344
#     4  10  21  36  62  88 117 150 206 242 305 352
#     4  12  21  38  60  89 118 157 200 247 302 351
#     4  10  22  40  57  89 116 163 197 247 294 355
#
# _framework density 18.210920999999999
#
# number of rings (size 3 to 8) (size 9 to 14) (size 15 to 20)
#    0.000    1.000    5.000    2.500    2.333    0.667 
#    0.000    0.000    0.000    0.000    0.000    0.000 
#    0.000    0.000    0.000    0.000    0.000    0.000 
#
# Total GULP energy -133872.384565 kJ/mol
# GULP energy per Si atom -5578.016024 kJ/mol
# Density = 1.816947 g / cm^3
# Si number density = 18.210921 Si / 1000 Ang^3
#
#
#
# Elastic Constant Matrix: (Units=GPa)
#
#
# Indices 1 2 3 4 5 6 
#
# 1 164.6245 80.8703 22.8106 0.0406 -2.2186 -0.0832
# 2 80.8703 146.6470 27.8041 0.0308 -12.1287 -0.0627
# 3 22.8106 27.8041 73.2413 0.0337 -7.8642 -0.0697
# 4 0.0406 0.0308 0.0337 -13.3324 0.0231 85.0478
# 5 -2.2186 -12.1287 -7.8642 0.0231 23.4014 -0.0454
# 6 -0.0832 -0.0627 -0.0697 85.0478 -0.0454 -162.8813
#
#
#
# Elastic Compliance Matrix: (Units=1/GPa)
#
#
# Indices 1 2 3 4 5 6 
#
# 1 0.008473 -0.004627 -0.001093 0.000000 -0.001962 -0.000001
# 2 -0.004627 0.010081 -0.001942 0.000000 0.004134 -0.000002
# 3 -0.001093 -0.001942 0.015159 0.000001 0.003984 -0.000006
# 4 0.000000 0.000000 0.000001 0.032180 0.000001 0.016803
# 5 -0.001962 0.004134 0.003984 0.000001 0.046028 -0.000014
# 6 -0.000001 -0.000002 -0.000006 0.016803 -0.000014 0.002634
#
#
# Mechanical properties :
#
#
# Convention : Reuss Voigt Hill
#
# Bulk Modulus (GPa) = 54.38291 71.94250 63.16271
# Shear Modulus (GPa) = 36.76255 -13.69392 11.53432
#
# Velocity S-wave (km/s) = 4.49788 -2.74517 2.51942
# Velocity P-wave (km/s) = 7.54335 5.43535 6.57439
#
# Compressibility (1/GPa) = 0.01838813
#
# Stress axis : x y z
#
# Youngs Moduli (GPa) = 118.02793 99.19645 65.96810
#
# Poissons Ratio (x) = 0.45902 0.07209
# Poissons Ratio (y) = 0.54616 0.12811
# Poissons Ratio (z) = 0.12898 0.19264
#
# Static dielectric constant tensor:
#      x y z
#    x 1.651490 0.000000 -0.014930 
#    y 0.000000 1.619460 0.000000 
#    z -0.014930 0.000000 1.606830 
# 
# From -- ./inp_files/134881.got.cif
#   From: 2010.05.17/outbox.cif.g08.bks.cpg/sg15_68_cif.got.tgz:134881.got - 2010.06.03 18:47:42.
