data_PCOD9279695
_publ_section_title
;
Structure prediction by ZEFSAII (Michael W. Deem and Ramdas Pophale) SiO2 
 PCOD9279695
Probable space group: C 2/C
;
_chemical_formula_sum "Si O2"
_cell_formula_units_Z 60
_cell_length_a 14.678980
_cell_length_b 14.010393
_cell_length_c 15.015467
_cell_angle_alpha 90.000000
_cell_angle_beta 84.701483
_cell_angle_gamma 90.000000
_cell_volume 3074.860111
_symmetry_space_group_name_H-M "C 2/C"
_symmetry_group_IT_number 15
_symmetry_cell_setting 'monoclinic'
loop_
_space_group_symop_operation_xyz
x,y,z
-x,y,1/2-z
-x,-y,-z
x,-y,1/2+z
1/2+x,1/2+y,z
1/2-x,1/2+y,1/2-z
1/2-x,1/2-y,-z
1/2+x,1/2-y,1/2+z
loop_
_atom_site_type_symbol
_atom_site_label
_atom_site_fract_x
_atom_site_fract_y
_atom_site_fract_z
Si Si1 0.240131 0.596912 0.028380
Si Si2 0.101818 0.042584 0.355441
Si Si3 0.277771 0.881598 0.492801
Si Si4 0.498349 0.640315 0.590431
Si Si5 0.312985 0.356639 0.189532
Si Si6 0.400858 0.278417 0.935524
Si Si7 0.809550 0.225874 0.870220
Si Si8 0.000000 0.195943 0.250000
O O1 0.338941 0.574065 0.064496
O O2 0.203460 0.493647 0.004062
O O3 0.190085 0.662630 0.105887
O O4 0.246181 0.666428 0.943591
O O5 0.069310 0.127561 0.297402
O O6 0.018389 0.972919 0.392716
O O7 0.165776 0.968505 0.293682
O O8 0.245661 0.859068 0.394302
O O9 0.365231 0.814132 0.492635
O O10 0.189815 0.846989 0.558476
O O11 0.412941 0.682553 0.654078
O O12 0.475959 0.669615 0.491068
O O13 0.591526 0.679590 0.620706
O O14 0.276636 0.297581 0.274503
O O15 0.443402 0.254832 0.835301
#
# Coordination Sequence:
#
# PCOD9279695 Si02
#       8
#     8   8   8   8   8   8   8   4
#     4  10  22  35  52  81 117 148 172 230 290 332
#     4   9  20  34  52  86 110 141 178 236 288 323
#     4   9  20  40  55  75 113 152 184 222 276 345
#     4   9  19  36  55  80 111 140 183 232 279 329
#     4   8  18  33  55  78 107 139 181 225 270 336
#     4  10  21  36  57  79 106 148 190 227 276 329
#     4  11  20  32  57  85 113 142 180 233 281 337
#     4  12  22  28  58  88 104 138 186 240 272 326
#
# _framework density 19.513082000000001
#
# number of rings (size 3 to 8) (size 9 to 14) (size 15 to 20)
#    0.800    1.600    1.333    2.000    5.600    1.067 
#    0.000    0.667    2.933    0.000    0.000    0.000 
#    0.000    0.000    0.000    0.000    0.000    0.000 
#
# Total GULP energy -167047.623621 kJ/mol
# GULP energy per Si atom -5568.254121 kJ/mol
# Density = 1.946867 g / cm^3
# Si number density = 19.513082 Si / 1000 Ang^3
#
#
#
# Elastic Constant Matrix: (Units=GPa)
#
#
# Indices 1 2 3 4 5 6 
#
# 1 27.6584 5.1877 -2.6678 0.0000 -0.9047 0.0000
# 2 5.1877 88.1472 3.6156 0.0000 -10.1237 0.0000
# 3 -2.6678 3.6156 71.5894 0.0000 -20.2774 0.0000
# 4 0.0000 0.0000 0.0000 18.8642 0.0000 -4.1458
# 5 -0.9047 -10.1237 -20.2774 0.0000 16.6730 0.0000
# 6 0.0000 0.0000 0.0000 -4.1458 0.0000 20.0862
#
#
#
# Elastic Compliance Matrix: (Units=1/GPa)
#
#
# Indices 1 2 3 4 5 6 
#
# 1 0.036882 -0.001808 0.002626 0.000000 0.004098 0.000000
# 2 -0.001808 0.012528 0.002177 0.000000 0.010156 0.000000
# 3 0.002626 0.002177 0.021923 0.000000 0.028127 0.000000
# 4 0.000000 0.000000 0.000000 0.055529 0.000000 0.011461
# 5 0.004098 0.010156 0.028127 0.000000 0.100574 0.000000
# 6 0.000000 0.000000 0.000000 0.011461 0.000000 0.052151
#
#
# Mechanical properties :
#
#
# Convention : Reuss Voigt Hill
#
# Bulk Modulus (GPa) = 12.93260 22.18512 17.55886
# Shear Modulus (GPa) = 16.70165 23.20864 19.95515
#
# Velocity S-wave (km/s) = 2.92879 3.45249 3.20137
# Velocity P-wave (km/s) = 4.25195 5.22369 4.76267
#
# Compressibility (1/GPa) = 0.07732400
#
# Stress axis : x y z
#
# Youngs Moduli (GPa) = 27.11364 79.81994 45.61349
#
# Poissons Ratio (x) = 0.14429 -0.11980
# Poissons Ratio (y) = 0.04901 -0.09928
# Poissons Ratio (z) = -0.07121 -0.17373
#
# Static dielectric constant tensor:
#      x y z
#    x 1.713760 0.000000 -0.024060 
#    y 0.000000 1.709530 0.000000 
#    z -0.024060 0.000000 1.744040 
# 
# From -- ./inp_files/153961.got.cif
#   From: 2010.05.17/outbox.cif.g08.bks.cpg/sg15_77_cif.got.tgz:153961.got - 2010.06.03 18:47:42.
