data_PCOD9279922
_publ_section_title
;
Structure prediction by ZEFSAII (Michael W. Deem and Ramdas Pophale) SiO2 
 PCOD9279922
Probable space group: C 2/C
;
_chemical_formula_sum "Si O2"
_cell_formula_units_Z 52
_cell_length_a 19.253573
_cell_length_b 23.972065
_cell_length_c 9.034939
_cell_angle_alpha 90.000000
_cell_angle_beta 36.170867
_cell_angle_gamma 90.000000
_cell_volume 2461.148044
_symmetry_space_group_name_H-M "C 2/C"
_symmetry_group_IT_number 15
_symmetry_cell_setting 'monoclinic'
loop_
_space_group_symop_operation_xyz
x,y,z
-x,y,1/2-z
-x,-y,-z
x,-y,1/2+z
1/2+x,1/2+y,z
1/2-x,1/2+y,1/2-z
1/2-x,1/2-y,-z
1/2+x,1/2-y,1/2+z
loop_
_atom_site_type_symbol
_atom_site_label
_atom_site_fract_x
_atom_site_fract_y
_atom_site_fract_z
Si Si1 0.161668 0.551828 0.744456
Si Si2 0.000000 0.480904 0.250000
Si Si3 0.565840 0.452857 0.793975
Si Si4 0.767584 0.776802 0.629180
Si Si5 0.019880 0.736824 0.558249
Si Si6 0.415474 0.334182 0.592837
Si Si7 0.201280 0.678283 0.688771
O O1 0.081860 0.550735 0.731298
O O2 0.295749 0.532925 0.473853
O O3 0.182925 0.614645 0.766568
O O4 0.090775 0.516933 0.991029
O O5 0.500000 0.444359 0.750000
O O6 0.556073 0.396521 0.909197
O O7 0.500000 0.500000 0.000000
O O8 0.750000 0.750000 0.500000
O O9 0.859877 0.822326 0.527894
O O10 0.783816 0.722570 0.705995
O O11 0.636071 0.799457 0.877439
O O12 0.000000 0.765022 0.750000
O O13 0.015885 0.788302 0.451095
O O14 0.915190 0.697196 0.694119
O O15 0.309826 0.318146 0.888995
#
# Coordination Sequence:
#
# PCOD9279922 Si02
#       7
#     8   4   8   8   8   8   8
#     4  10  23  41  68  94 128 170 223 277 343 390
#     4  10  22  44  66  94 126 164 220 288 334 394
#     4  11  24  44  67  96 135 180 233 282 334 405
#     4  11  23  38  58  96 130 162 206 275 326 389
#     4  11  18  35  64  86 121 165 204 254 319 397
#     4  10  21  39  63  92 123 170 219 257 325 406
#     4  10  21  36  61  92 120 162 217 250 321 407
#
# _framework density 21.128350000000001
#
# number of rings (size 3 to 8) (size 9 to 14) (size 15 to 20)
#    0.000    1.538    3.077    2.308    3.231    3.692 
#    2.769    3.077    0.000    0.000    0.000    0.000 
#    0.000    0.000    0.000    0.000    0.000    0.000 
#
# Total GULP energy -144970.176638 kJ/mol
# GULP energy per Si atom -5575.776025 kJ/mol
# Density = 2.108026 g / cm^3
# Si number density = 21.128350 Si / 1000 Ang^3
#
#
#
# Elastic Constant Matrix: (Units=GPa)
#
#
# Indices 1 2 3 4 5 6 
#
# 1 142.3594 30.6713 41.0231 0.0000 -8.0079 0.0000
# 2 30.6713 99.9692 34.2328 0.0000 -3.6272 0.0000
# 3 41.0231 34.2328 63.0945 -0.0001 -13.6711 0.0000
# 4 0.0000 0.0000 -0.0001 21.5634 0.0000 -6.5319
# 5 -8.0079 -3.6272 -13.6711 0.0000 44.8133 0.0000
# 6 0.0000 0.0000 0.0000 -6.5319 0.0000 21.0685
#
#
#
# Elastic Compliance Matrix: (Units=1/GPa)
#
#
# Indices 1 2 3 4 5 6 
#
# 1 0.008710 -0.000896 -0.005199 0.000000 -0.000102 0.000000
# 2 -0.000896 0.012430 -0.006402 0.000000 -0.001107 0.000000
# 3 -0.005199 -0.006402 0.023974 0.000000 0.005867 0.000000
# 4 0.000000 0.000000 0.000000 0.051181 0.000000 0.015868
# 5 -0.000102 -0.001107 0.005867 0.000000 0.023997 0.000000
# 6 0.000000 0.000000 0.000000 0.015868 0.000000 0.052384
#
#
# Mechanical properties :
#
#
# Convention : Reuss Voigt Hill
#
# Bulk Modulus (GPa) = 49.69911 57.47525 53.58718
# Shear Modulus (GPa) = 24.46476 30.78877 27.62676
#
# Velocity S-wave (km/s) = 3.40650 3.82150 3.61995
# Velocity P-wave (km/s) = 6.24867 6.83621 6.54903
#
# Compressibility (1/GPa) = 0.02012108
#
# Stress axis : x y z
#
# Youngs Moduli (GPa) = 114.81137 80.45196 41.71164
#
# Poissons Ratio (x) = 0.07205 0.21687
# Poissons Ratio (y) = 0.10282 0.26702
# Poissons Ratio (z) = 0.59694 0.51501
#
# Static dielectric constant tensor:
#      x y z
#    x 1.792430 0.000000 0.038250 
#    y 0.000000 1.751550 0.000000 
#    z 0.038250 0.000000 2.019360 
# 
# From -- ./inp_files/52149.got.cif
#   From: 2010.05.17/outbox.cif.g08.bks.cpg/sg15_27_cif.got.tgz:52149.got - 2010.06.03 18:47:42.
