data_PCOD9279470
_publ_section_title
;
Structure prediction by ZEFSAII (Michael W. Deem and Ramdas Pophale) SiO2 
 PCOD9279470
Probable space group: C 2/C
;
_chemical_formula_sum "Si O2"
_cell_formula_units_Z 48
_cell_length_a 31.909007
_cell_length_b 8.438676
_cell_length_c 20.537711
_cell_angle_alpha 90.000000
_cell_angle_beta 151.093137
_cell_angle_gamma 90.000000
_cell_volume 2673.220768
_symmetry_space_group_name_H-M "C 2/C"
_symmetry_group_IT_number 15
_symmetry_cell_setting 'monoclinic'
loop_
_space_group_symop_operation_xyz
x,y,z
-x,y,1/2-z
-x,-y,-z
x,-y,1/2+z
1/2+x,1/2+y,z
1/2-x,1/2+y,1/2-z
1/2-x,1/2-y,-z
1/2+x,1/2-y,1/2+z
loop_
_atom_site_type_symbol
_atom_site_label
_atom_site_fract_x
_atom_site_fract_y
_atom_site_fract_z
Si Si1 0.023336 0.395766 0.468599
Si Si2 0.039987 0.040227 0.874753
Si Si3 0.823470 0.815100 0.369390
Si Si4 0.566481 0.908231 0.898866
Si Si5 0.437579 0.438144 0.856179
Si Si6 0.252380 0.536122 0.162603
O O1 0.116081 0.303190 0.591594
O O2 0.029800 0.506929 0.413792
O O3 0.000000 0.500000 0.500000
O O4 0.956096 0.249370 0.373108
O O5 0.000000 0.001038 0.750000
O O6 0.967062 0.025846 0.831012
O O7 0.074332 0.219763 0.920130
O O8 0.112974 0.918564 0.998790
O O9 0.760913 0.712503 0.328863
O O10 0.771251 0.926930 0.250607
O O11 0.500000 0.935103 0.750000
O O12 0.660430 0.980124 0.009683
O O13 0.337990 0.471512 0.736021
O O14 0.500000 0.500000 0.000000
#
# Coordination Sequence:
#
# PCOD9279470 Si02
#       6
#     8   8   8   8   8   8
#     4  10  21  35  61  89 117 157 196 248 299 359
#     4  10  21  42  64  86 123 164 197 248 309 358
#     4  10  22  35  59  91 119 157 199 252 294 363
#     4  10  23  42  62  84 121 163 201 246 305 360
#     4  11  21  38  61  91 123 155 203 251 297 355
#     4  11  22  37  62  90 123 156 204 247 301 353
#
# _framework density 17.955869
#
# number of rings (size 3 to 8) (size 9 to 14) (size 15 to 20)
#    0.000    1.667    3.333    2.000    4.667    6.000 
#    0.000    6.667    0.000    0.000    0.000    0.000 
#    0.000    0.000    0.000    0.000    0.000    0.000 
#
# Total GULP energy -133929.351116 kJ/mol
# GULP energy per Si atom -5580.389630 kJ/mol
# Density = 1.791500 g / cm^3
# Si number density = 17.955869 Si / 1000 Ang^3
#
#
#
# Elastic Constant Matrix: (Units=GPa)
#
#
# Indices 1 2 3 4 5 6 
#
# 1 109.3426 15.9581 46.6778 0.0000 5.4458 0.0000
# 2 15.9581 56.0708 22.6819 -0.0001 -5.7549 0.0000
# 3 46.6778 22.6819 79.5494 0.0000 0.4149 0.0000
# 4 0.0000 -0.0001 0.0000 22.8440 0.0000 -3.6337
# 5 5.4458 -5.7549 0.4149 0.0000 21.4357 0.0000
# 6 0.0000 0.0000 0.0000 -3.6337 0.0000 25.2245
#
#
#
# Elastic Compliance Matrix: (Units=1/GPa)
#
#
# Indices 1 2 3 4 5 6 
#
# 1 0.012446 -0.001057 -0.006985 0.000000 -0.003311 0.000000
# 2 -0.001057 0.020926 -0.005378 0.000000 0.005990 0.000000
# 3 -0.006985 -0.005378 0.018203 0.000000 -0.000022 0.000000
# 4 0.000000 0.000000 0.000000 0.044802 0.000000 0.006454
# 5 -0.003311 0.005990 -0.000022 0.000000 0.049101 0.000000
# 6 0.000000 0.000000 0.000000 0.006454 0.000000 0.040574
#
#
# Mechanical properties :
#
#
# Convention : Reuss Voigt Hill
#
# Bulk Modulus (GPa) = 40.42600 46.17757 43.30179
# Shear Modulus (GPa) = 22.61064 24.54383 23.57724
#
# Velocity S-wave (km/s) = 3.55242 3.70117 3.62756
# Velocity P-wave (km/s) = 6.27608 6.63611 6.45860
#
# Compressibility (1/GPa) = 0.02473655
#
# Stress axis : x y z
#
# Youngs Moduli (GPa) = 80.34455 47.78841 54.93681
#
# Poissons Ratio (x) = 0.05049 0.38372
# Poissons Ratio (y) = 0.08489 0.29544
# Poissons Ratio (z) = 0.56118 0.25699
#
# Static dielectric constant tensor:
#      x y z
#    x 1.608330 0.000000 0.017240 
#    y 0.000000 1.632870 0.000000 
#    z 0.017240 0.000000 1.603240 
# 
# From -- ./inp_files/213756.got.cif
#   From: 2010.05.17/outbox.cif.g08.bks.cpg/sg15_107_cif.got.tgz:213756.got - 2010.06.03 18:47:42.
