data_PCOD9279150
_publ_section_title
;
Structure prediction by ZEFSAII (Michael W. Deem and Ramdas Pophale) SiO2 
 PCOD9279150
Probable space group: C 2/C
;
_chemical_formula_sum "Si O2"
_cell_formula_units_Z 40
_cell_length_a 13.315490
_cell_length_b 15.273645
_cell_length_c 8.661389
_cell_angle_alpha 90.000000
_cell_angle_beta 82.999620
_cell_angle_gamma 90.000000
_cell_volume 1748.387711
_symmetry_space_group_name_H-M "C 2/C"
_symmetry_group_IT_number 15
_symmetry_cell_setting 'monoclinic'
loop_
_space_group_symop_operation_xyz
x,y,z
-x,y,1/2-z
-x,-y,-z
x,-y,1/2+z
1/2+x,1/2+y,z
1/2-x,1/2+y,1/2-z
1/2-x,1/2-y,-z
1/2+x,1/2-y,1/2+z
loop_
_atom_site_type_symbol
_atom_site_label
_atom_site_fract_x
_atom_site_fract_y
_atom_site_fract_z
Si Si1 0.500000 0.962199 0.250000
Si Si2 0.735324 0.375738 0.081943
Si Si3 0.574766 0.245150 0.016599
Si Si4 0.210695 0.942787 0.735615
Si Si5 0.904666 0.612380 0.059007
Si Si6 0.500000 0.364178 0.750000
O O1 0.429268 0.906344 0.375931
O O2 0.438352 0.026930 0.150034
O O3 0.641964 0.307821 0.113644
O O4 0.730479 0.455379 0.200448
O O5 0.841225 0.323700 0.062431
O O6 0.725883 0.417800 0.911759
O O7 0.478886 0.190435 0.092295
O O8 0.531773 0.304285 0.887240
O O9 0.287894 0.881586 0.624332
O O10 0.097870 0.922690 0.701037
#
# Coordination Sequence:
#
# PCOD9279150 Si02
#       6
#     4   8   8   8   8   4
#     4  10  21  34  59  96 126 156 206 262 311 372
#     4  10  23  44  66  93 130 170 212 264 318 381
#     4  10  22  40  62  91 132 165 205 267 320 363
#     4  11  23  42  67  93 126 171 219 257 315 391
#     4  11  20  36  62  92 124 163 209 258 312 372
#     4  10  25  44  61  94 134 168 212 268 321 378
#
# _framework density 22.878221
#
# number of rings (size 3 to 8) (size 9 to 14) (size 15 to 20)
#    0.000    1.600    0.000    5.400    0.000    5.600 
#    0.000   15.000    0.000    0.000    0.000    0.000 
#    0.000    0.000    0.000    0.000    0.000    0.000 
#
# Total GULP energy -111930.365642 kJ/mol
# GULP energy per Si atom -5596.518282 kJ/mol
# Density = 2.282615 g / cm^3
# Si number density = 22.878221 Si / 1000 Ang^3
#
#
#
# Elastic Constant Matrix: (Units=GPa)
#
#
# Indices 1 2 3 4 5 6 
#
# 1 149.7943 35.7369 9.3697 0.0000 -18.1375 0.0000
# 2 35.7369 102.4021 8.0722 0.0000 -9.9213 0.0000
# 3 9.3697 8.0722 78.9933 0.0000 -4.0352 0.0000
# 4 0.0000 0.0000 0.0000 7.7964 0.0000 18.8891
# 5 -18.1375 -9.9213 -4.0352 0.0000 32.2403 0.0000
# 6 0.0000 0.0000 0.0000 18.8891 0.0000 19.8397
#
#
#
# Elastic Compliance Matrix: (Units=1/GPa)
#
#
# Indices 1 2 3 4 5 6 
#
# 1 0.007686 -0.002299 -0.000495 0.000000 0.003554 0.000000
# 2 -0.002299 0.010814 -0.000733 0.000000 0.001943 0.000000
# 3 -0.000495 -0.000733 0.012849 0.000000 0.001104 0.000000
# 4 0.000000 0.000000 0.000000 -0.098159 0.000000 0.093455
# 5 0.003554 0.001943 0.001104 0.000000 0.033753 0.000000
# 6 0.000000 0.000000 0.000000 0.093455 0.000000 -0.038573
#
#
# Mechanical properties :
#
#
# Convention : Reuss Voigt Hill
#
# Bulk Modulus (GPa) = 41.16153 48.61638 44.88895
# Shear Modulus (GPa) = -88.52909 30.50935 -29.00987
#
# Velocity S-wave (km/s) = -6.22734 3.65575 -3.56478
# Velocity P-wave (km/s) = 5.80308 6.25424 1.64921
#
# Compressibility (1/GPa) = 0.02429453
#
# Stress axis : x y z
#
# Youngs Moduli (GPa) = 130.11371 92.47548 77.82494
#
# Poissons Ratio (x) = 0.21258 0.03853
# Poissons Ratio (y) = 0.29910 0.05706
# Poissons Ratio (z) = 0.06443 0.06780
#
# Static dielectric constant tensor:
#      x y z
#    x 1.884560 0.000000 -0.024890 
#    y 0.000000 1.855160 0.000000 
#    z -0.024890 0.000000 1.865310 
# 
# From -- ./inp_files/29146.got.cif
#   From: 2010.05.17/outbox.cif.g08.bks.cpg/sg15_15_cif.got.tgz:29146.got - 2010.06.03 18:47:42.
