data_PCOD9279580
_publ_section_title
;
Structure prediction by ZEFSAII (Michael W. Deem and Ramdas Pophale) SiO2 
 PCOD9279580
Probable space group: C 2/C
;
_chemical_formula_sum "Si O2"
_cell_formula_units_Z 48
_cell_length_a 24.201975
_cell_length_b 9.373586
_cell_length_c 8.848717
_cell_angle_alpha 90.000000
_cell_angle_beta 102.278872
_cell_angle_gamma 90.000000
_cell_volume 1961.492224
_symmetry_space_group_name_H-M "C 2/C"
_symmetry_group_IT_number 15
_symmetry_cell_setting 'monoclinic'
loop_
_space_group_symop_operation_xyz
x,y,z
-x,y,1/2-z
-x,-y,-z
x,-y,1/2+z
1/2+x,1/2+y,z
1/2-x,1/2+y,1/2-z
1/2-x,1/2-y,-z
1/2+x,1/2-y,1/2+z
loop_
_atom_site_type_symbol
_atom_site_label
_atom_site_fract_x
_atom_site_fract_y
_atom_site_fract_z
Si Si1 0.121973 0.220695 0.645007
Si Si2 0.684728 0.760231 0.428941
Si Si3 0.827497 0.647288 0.915982
Si Si4 0.053097 0.358689 0.873929
Si Si5 0.988807 0.152489 0.066736
Si Si6 0.300571 0.568516 0.585349
O O1 0.157993 0.328169 0.564563
O O2 0.081239 0.266405 0.756810
O O3 0.077096 0.172243 0.496363
O O4 0.169832 0.123018 0.744588
O O5 0.750000 0.750000 0.500000
O O6 0.670833 0.839511 0.265095
O O7 0.674287 0.588928 0.416640
O O8 0.767826 0.577851 0.937377
O O9 0.887869 0.590229 0.015264
O O10 0.819554 0.812782 0.972625
O O11 0.000000 0.435173 0.750000
O O12 0.023483 0.269254 0.990558
O O13 0.000000 0.157424 0.250000
O O14 0.000000 0.000000 0.000000
#
# Coordination Sequence:
#
# PCOD9279580 Si02
#       6
#     8   8   8   8   8   8
#     4  10  21  36  53  82 119 151 193 245 292 357
#     4  12  23  36  58  89 122 158 200 244 298 359
#     4  10  21  38  59  82 120 156 197 245 302 351
#     4   9  20  38  56  82 116 154 199 241 302 359
#     4  11  22  33  51  80 112 158 200 236 295 359
#     4  10  22  38  57  83 118 159 196 246 301 353
#
# _framework density 24.471166
#
# number of rings (size 3 to 8) (size 9 to 14) (size 15 to 20)
#    0.000    1.667    1.667    3.500    9.333    0.000 
#    0.000    0.000    0.000    0.000    0.000   11.667 
#    0.000    0.000    0.000    0.000    0.000    0.000 
#
# Total GULP energy -133735.094373 kJ/mol
# GULP energy per Si atom -5572.295599 kJ/mol
# Density = 2.441547 g / cm^3
# Si number density = 24.471166 Si / 1000 Ang^3
#
#
#
# Elastic Constant Matrix: (Units=GPa)
#
#
# Indices 1 2 3 4 5 6 
#
# 1 171.9920 23.2463 56.7907 0.0000 25.3760 0.0000
# 2 23.2463 52.1457 6.9006 0.0000 3.0096 0.0000
# 3 56.7907 6.9006 193.4582 0.0000 12.4406 0.0000
# 4 0.0000 0.0000 0.0000 -23.3790 0.0000 -29.3789
# 5 25.3760 3.0096 12.4406 0.0000 64.6551 0.0000
# 6 0.0000 0.0000 0.0000 -29.3789 0.0000 -18.2876
#
#
#
# Elastic Compliance Matrix: (Units=1/GPa)
#
#
# Indices 1 2 3 4 5 6 
#
# 1 0.007146 -0.002807 -0.001849 0.000000 -0.002318 0.000000
# 2 -0.002807 0.020409 0.000087 0.000000 0.000135 0.000000
# 3 -0.001849 0.000087 0.005733 0.000000 -0.000382 0.000000
# 4 0.000000 0.000000 0.000000 0.041985 0.000000 -0.067448
# 5 -0.002318 0.000135 -0.000382 0.000000 0.016444 0.000000
# 6 0.000000 0.000000 0.000000 -0.067448 0.000000 0.053674
#
#
# Mechanical properties :
#
#
# Convention : Reuss Voigt Hill
#
# Bulk Modulus (GPa) = 41.40515 65.71901 53.56208
# Shear Modulus (GPa) = 30.75449 26.64159 28.69804
#
# Velocity S-wave (km/s) = 3.54893 3.30311 3.42823
# Velocity P-wave (km/s) = 5.80947 6.43905 6.13235
#
# Compressibility (1/GPa) = 0.02415159
#
# Stress axis : x y z
#
# Youngs Moduli (GPa) = 139.93669 48.99764 174.42400
#
# Poissons Ratio (x) = 0.13755 0.32243
# Poissons Ratio (y) = 0.39284 -0.01525
# Poissons Ratio (z) = 0.25868 -0.00428
#
# Static dielectric constant tensor:
#      x y z
#    x 1.862900 0.000000 -0.082590 
#    y 0.000000 2.087590 0.000000 
#    z -0.082590 0.000000 1.978890 
# 
# From -- ./inp_files/60888.got.cif
#   From: 2010.05.17/outbox.cif.g08.bks.cpg/sg15_31_cif.got.tgz:60888.got - 2010.06.03 18:47:42.
