data_PCOD9279661
_publ_section_title
;
Structure prediction by ZEFSAII (Michael W. Deem and Ramdas Pophale) SiO2 
 PCOD9279661
Probable space group: C 2/C
;
_chemical_formula_sum "Si O2"
_cell_formula_units_Z 64
_cell_length_a 22.946920
_cell_length_b 14.296705
_cell_length_c 8.952533
_cell_angle_alpha 90.000000
_cell_angle_beta 73.678236
_cell_angle_gamma 90.000000
_cell_volume 2818.650016
_symmetry_space_group_name_H-M "C 2/C"
_symmetry_group_IT_number 15
_symmetry_cell_setting 'monoclinic'
loop_
_space_group_symop_operation_xyz
x,y,z
-x,y,1/2-z
-x,-y,-z
x,-y,1/2+z
1/2+x,1/2+y,z
1/2-x,1/2+y,1/2-z
1/2-x,1/2-y,-z
1/2+x,1/2-y,1/2+z
loop_
_atom_site_type_symbol
_atom_site_label
_atom_site_fract_x
_atom_site_fract_y
_atom_site_fract_z
Si Si1 0.345424 0.699192 0.284710
Si Si2 0.721264 0.434651 0.860751
Si Si3 0.359367 0.126439 0.600861
Si Si4 0.477213 0.350574 0.108662
Si Si5 0.289295 0.619447 0.803970
Si Si6 0.443182 0.552357 0.182515
Si Si7 0.869576 0.731749 0.083001
Si Si8 0.864293 0.552503 0.275324
O O1 0.287875 0.648835 0.251460
O O2 0.375203 0.769966 0.144091
O O3 0.387980 0.610551 0.285484
O O4 0.339996 0.756265 0.441226
O O5 0.696604 0.531589 0.813278
O O6 0.791548 0.451571 0.838688
O O7 0.693585 0.404794 0.038263
O O8 0.284688 0.130007 0.649803
O O9 0.383593 0.093028 0.422191
O O10 0.381740 0.050385 0.706305
O O11 0.500000 0.311085 0.250000
O O12 0.436088 0.279559 0.045322
O O13 0.534604 0.396859 0.984144
O O14 0.435363 0.557765 0.667579
O O15 0.325327 0.710492 0.725525
O O16 0.500000 0.562555 0.250000
O O17 0.876874 0.627061 0.136158
#
# Coordination Sequence:
#
# PCOD9279661 Si02
#       8
#     8   8   8   8   8   8   8   8
#     4  12  23  35  60  85 117 155 193 233 286 338
#     4  10  21  36  56  85 118 157 187 236 284 338
#     4  10  22  40  59  83 113 156 190 240 289 334
#     4  10  23  38  62  86 116 152 187 232 287 338
#     4  10  21  36  56  84 121 151 194 233 282 342
#     4  10  21  42  58  84 120 150 185 232 283 344
#     4  12  23  36  57  89 116 152 195 235 280 347
#     4  10  22  40  59  82 117 149 197 238 285 339
#
# _framework density 22.705905000000001
#
# number of rings (size 3 to 8) (size 9 to 14) (size 15 to 20)
#    0.000    1.500    1.250    3.750    3.500    6.000 
#    0.000    0.000    0.000    1.500    0.000    0.000 
#    0.000    0.000    0.000    0.000    0.000    0.000 
#
# Total GULP energy -178866.724455 kJ/mol
# GULP energy per Si atom -5589.585139 kJ/mol
# Density = 2.265423 g / cm^3
# Si number density = 22.705905 Si / 1000 Ang^3
#
#
#
# Elastic Constant Matrix: (Units=GPa)
#
#
# Indices 1 2 3 4 5 6 
#
# 1 13.9494 -0.1024 0.9729 0.0000 7.0901 0.0000
# 2 -0.1024 82.5670 -18.8797 0.0000 1.0897 0.0000
# 3 0.9729 -18.8797 68.9595 0.0000 13.3597 0.0000
# 4 0.0000 0.0000 0.0000 29.9672 0.0000 3.5540
# 5 7.0901 1.0897 13.3597 0.0000 18.9889 0.0000
# 6 0.0000 0.0000 0.0000 3.5540 0.0000 9.7471
#
#
#
# Elastic Compliance Matrix: (Units=1/GPa)
#
#
# Indices 1 2 3 4 5 6 
#
# 1 0.091015 0.002195 0.006860 0.000000 -0.038936 0.000000
# 2 0.002195 0.013207 0.004504 0.000000 -0.004747 0.000000
# 3 0.006860 0.004504 0.018738 0.000000 -0.016003 0.000000
# 4 0.000000 0.000000 0.000000 0.034878 0.000000 -0.012717
# 5 -0.038936 -0.004747 -0.016003 0.000000 0.078732 0.000000
# 6 0.000000 0.000000 0.000000 -0.012717 0.000000 0.107232
#
#
# Mechanical properties :
#
#
# Convention : Reuss Voigt Hill
#
# Bulk Modulus (GPa) = 6.66313 14.38416 10.52365
# Shear Modulus (GPa) = 13.63480 23.97296 18.80388
#
# Velocity S-wave (km/s) = 2.45316 3.25284 2.88088
# Velocity P-wave (km/s) = 3.31133 4.52291 3.96368
#
# Compressibility (1/GPa) = 0.15007955
#
# Stress axis : x y z
#
# Youngs Moduli (GPa) = 10.98719 75.71907 53.36752
#
# Poissons Ratio (x) = -0.16623 -0.36611
# Poissons Ratio (y) = -0.02412 -0.24039
# Poissons Ratio (z) = -0.07537 -0.34106
#
# Static dielectric constant tensor:
#      x y z
#    x 1.861250 0.000000 -0.008390 
#    y 0.000000 1.826790 0.000000 
#    z -0.008390 0.000000 1.903990 
# 
# From -- ./inp_files/69740.got.cif
#   From: 2010.05.17/outbox.cif.g08.bks.cpg/sg15_35_cif.got.tgz:69740.got - 2010.06.03 18:47:42.
