data_PCOD9279416
_publ_section_title
;
Structure prediction by ZEFSAII (Michael W. Deem and Ramdas Pophale) SiO2 
 PCOD9279416
Probable space group: C 2/C
;
_chemical_formula_sum "Si O2"
_cell_formula_units_Z 48
_cell_length_a 14.819449
_cell_length_b 25.399967
_cell_length_c 5.678763
_cell_angle_alpha 90.000000
_cell_angle_beta 87.997719
_cell_angle_gamma 90.000000
_cell_volume 2136.258028
_symmetry_space_group_name_H-M "C 2/C"
_symmetry_group_IT_number 15
_symmetry_cell_setting 'monoclinic'
loop_
_space_group_symop_operation_xyz
x,y,z
-x,y,1/2-z
-x,-y,-z
x,-y,1/2+z
1/2+x,1/2+y,z
1/2-x,1/2+y,1/2-z
1/2-x,1/2-y,-z
1/2+x,1/2-y,1/2+z
loop_
_atom_site_type_symbol
_atom_site_label
_atom_site_fract_x
_atom_site_fract_y
_atom_site_fract_z
Si Si1 0.246714 0.471124 0.522030
Si Si2 0.426483 0.202574 0.568019
Si Si3 0.750972 0.808376 0.107889
Si Si4 0.299693 0.142705 0.315579
Si Si5 0.388349 0.318276 0.463868
Si Si6 0.047052 0.066367 0.494511
O O1 0.225080 0.497374 0.268915
O O2 0.203143 0.413019 0.555993
O O3 0.354230 0.459751 0.512978
O O4 0.500000 0.184612 0.750000
O O5 0.329017 0.196063 0.697667
O O6 0.397054 0.170993 0.336844
O O7 0.438131 0.264123 0.512774
O O8 0.849971 0.817297 0.202481
O O9 0.750000 0.750000 0.000000
O O10 0.720550 0.858549 0.959190
O O11 0.207152 0.175374 0.388549
O O12 0.442271 0.370454 0.508501
O O13 0.000000 0.054924 0.750000
O O14 0.000000 0.053323 0.250000
#
# Coordination Sequence:
#
# PCOD9279416 Si02
#       6
#     8   8   8   8   8   8
#     4  11  26  44  70  94 120 168 234 284 329 386
#     4  11  22  36  57  96 133 165 208 259 324 394
#     4  11  19  36  63  84 122 171 218 255 311 389
#     4  10  22  40  62  88 122 168 210 268 320 379
#     4  10  21  35  59  90 128 174 212 243 300 395
#     4  11  25  40  62  95 138 175 209 264 327 384
#
# _framework density 22.469194000000002
#
# number of rings (size 3 to 8) (size 9 to 14) (size 15 to 20)
#    0.000    1.333    3.333    2.500   11.667    4.000 
#    0.000    0.000    0.000    1.000    0.000    0.000 
#    0.000    0.000    0.000    0.000    0.000    0.000 
#
# Total GULP energy -133791.565155 kJ/mol
# GULP energy per Si atom -5574.648548 kJ/mol
# Density = 2.241805 g / cm^3
# Si number density = 22.469194 Si / 1000 Ang^3
#
#
#
# Elastic Constant Matrix: (Units=GPa)
#
#
# Indices 1 2 3 4 5 6 
#
# 1 45.2874 19.3628 14.1039 0.0000 14.8577 0.0000
# 2 19.3628 105.1289 27.4611 0.0000 7.6844 0.0000
# 3 14.1039 27.4611 98.5315 0.0000 14.4897 0.0000
# 4 0.0000 0.0000 0.0000 54.6998 0.0000 8.5728
# 5 14.8577 7.6844 14.4897 0.0000 32.8951 0.0000
# 6 0.0000 0.0000 0.0000 8.5728 0.0000 24.0498
#
#
#
# Elastic Compliance Matrix: (Units=1/GPa)
#
#
# Indices 1 2 3 4 5 6 
#
# 1 0.027808 -0.003988 -0.001239 0.000000 -0.011083 0.000000
# 2 -0.003988 0.010877 -0.002515 0.000000 0.000368 0.000000
# 3 -0.001239 -0.002515 0.011611 0.000000 -0.003967 0.000000
# 4 0.000000 0.000000 0.000000 0.019363 0.000000 -0.006902
# 5 -0.011083 0.000368 -0.003967 0.000000 0.037067 0.000000
# 6 0.000000 0.000000 0.000000 -0.006902 0.000000 0.044041
#
#
# Mechanical properties :
#
#
# Convention : Reuss Voigt Hill
#
# Bulk Modulus (GPa) = 28.72599 41.20038 34.96319
# Shear Modulus (GPa) = 28.11298 34.86363 31.48831
#
# Velocity S-wave (km/s) = 3.54104 3.94333 3.74759
# Velocity P-wave (km/s) = 5.43424 6.25375 5.85834
#
# Compressibility (1/GPa) = 0.03481168
#
# Stress axis : x y z
#
# Youngs Moduli (GPa) = 35.96072 91.94058 86.12774
#
# Poissons Ratio (x) = 0.36665 0.10674
# Poissons Ratio (y) = 0.14341 0.21658
# Poissons Ratio (z) = 0.04457 0.23120
#
# Static dielectric constant tensor:
#      x y z
#    x 1.672490 0.000000 -0.146950 
#    y 0.000000 1.358830 0.000000 
#    z -0.146950 0.000000 1.901790 
# 
# From -- ./inp_files/8236.got.cif
#   From: 2010.05.17/outbox.cif.g08.bks.cpg/sg15_5_cif.got.tgz:8236.got - 2010.06.03 18:47:42.
