data_PCOD9279891
_publ_section_title
;
Structure prediction by ZEFSAII (Michael W. Deem and Ramdas Pophale) SiO2 
 PCOD9279891
Probable space group: C 2/C
;
_chemical_formula_sum "Si O2"
_cell_formula_units_Z 64
_cell_length_a 30.616747
_cell_length_b 18.835991
_cell_length_c 8.394641
_cell_angle_alpha 90.000000
_cell_angle_beta 136.717377
_cell_angle_gamma 90.000000
_cell_volume 3319.089285
_symmetry_space_group_name_H-M "C 2/C"
_symmetry_group_IT_number 15
_symmetry_cell_setting 'monoclinic'
loop_
_space_group_symop_operation_xyz
x,y,z
-x,y,1/2-z
-x,-y,-z
x,-y,1/2+z
1/2+x,1/2+y,z
1/2-x,1/2+y,1/2-z
1/2-x,1/2-y,-z
1/2+x,1/2-y,1/2+z
loop_
_atom_site_type_symbol
_atom_site_label
_atom_site_fract_x
_atom_site_fract_y
_atom_site_fract_z
Si Si1 0.568733 0.818048 0.361755
Si Si2 0.255773 0.459291 0.837567
Si Si3 0.928783 0.410603 0.623616
Si Si4 0.333095 0.269266 0.545133
Si Si5 0.794877 0.821369 0.791262
Si Si6 0.858513 0.303689 0.620680
Si Si7 0.886835 0.544348 0.679317
Si Si8 0.768298 0.104759 0.722932
O O1 0.500000 0.799697 0.250000
O O2 0.599359 0.767095 0.309368
O O3 0.618215 0.813451 0.638903
O O4 0.570027 0.897247 0.294718
O O5 0.293520 0.403762 0.827384
O O6 0.182575 0.455361 0.584331
O O7 0.276524 0.540225 0.867471
O O8 0.263946 0.430568 0.037782
O O9 0.912219 0.333245 0.644809
O O10 0.916298 0.466798 0.731325
O O11 0.884735 0.433912 0.358170
O O12 0.000000 0.415683 0.750000
O O13 0.277444 0.209351 0.383847
O O14 0.321325 0.301970 0.687956
O O15 0.319312 0.332928 0.384727
O O16 0.836335 0.775391 0.024485
O O17 0.798409 0.354670 0.426535
#
# Coordination Sequence:
#
# PCOD9279891 Si02
#       8
#     8   8   8   8   8   8   8   8
#     4  12  23  39  58  82 117 156 195 233 279 337
#     4  12  21  36  57  86 111 152 178 237 290 345
#     4  12  24  37  51  74 111 157 200 235 272 325
#     4  10  21  38  57  86 110 150 187 241 285 339
#     4  10  21  36  61  81 115 143 191 239 294 334
#     4  11  22  37  55  83 109 154 191 240 281 330
#     4  12  22  36  53  77 112 152 200 230 276 333
#     4  11  22  35  58  82 118 144 191 232 291 341
#
# _framework density 19.282397
#
# number of rings (size 3 to 8) (size 9 to 14) (size 15 to 20)
#    0.000    0.750    3.750    5.250    3.500    2.000 
#    0.000    0.000    0.000    0.000    0.000    8.750 
#    0.000    0.000    0.000    0.000    0.000    0.000 
#
# Total GULP energy -179009.253223 kJ/mol
# GULP energy per Si atom -5594.039163 kJ/mol
# Density = 1.923851 g / cm^3
# Si number density = 19.282397 Si / 1000 Ang^3
#
#
#
# Elastic Constant Matrix: (Units=GPa)
#
#
# Indices 1 2 3 4 5 6 
#
# 1 72.3385 16.1118 5.0727 0.0000 8.3020 0.0000
# 2 16.1118 82.3550 8.2667 0.0000 19.0175 0.0000
# 3 5.0727 8.2667 23.9710 0.0000 -6.1975 0.0000
# 4 0.0000 0.0000 0.0000 17.6036 0.0000 -5.6649
# 5 8.3020 19.0175 -6.1975 0.0000 28.4274 0.0000
# 6 0.0000 0.0000 0.0000 -5.6649 0.0000 35.6450
#
#
#
# Elastic Compliance Matrix: (Units=1/GPa)
#
#
# Indices 1 2 3 4 5 6 
#
# 1 0.014906 -0.001609 -0.003653 0.000000 -0.004073 0.000000
# 2 -0.001609 0.016092 -0.008341 0.000000 -0.012114 0.000000
# 3 -0.003653 -0.008341 0.049898 0.000000 0.017525 0.000000
# 4 0.000000 0.000000 0.000000 0.059869 0.000000 0.009515
# 5 -0.004073 -0.012114 0.017525 0.000000 0.048291 0.000000
# 6 0.000000 0.000000 0.000000 0.009515 0.000000 0.029567
#
#
# Mechanical properties :
#
#
# Convention : Reuss Voigt Hill
#
# Bulk Modulus (GPa) = 18.62531 26.39631 22.51081
# Shear Modulus (GPa) = 18.95925 26.28275 22.62100
#
# Velocity S-wave (km/s) = 3.13907 3.69595 3.42883
# Velocity P-wave (km/s) = 4.77688 5.65088 5.23216
#
# Compressibility (1/GPa) = 0.05369037
#
# Stress axis : x y z
#
# Youngs Moduli (GPa) = 67.08778 62.14305 20.04107
#
# Poissons Ratio (x) = 0.09999 0.07320
# Poissons Ratio (y) = 0.10794 0.16716
# Poissons Ratio (z) = 0.24504 0.51833
#
# Static dielectric constant tensor:
#      x y z
#    x 1.695550 0.000000 -0.027010 
#    y 0.000000 1.669580 0.000000 
#    z -0.027010 0.000000 1.702330 
# 
# From -- ./inp_files/62461.got.cif
#   From: 2010.05.17/outbox.cif.g08.bks.cpg/sg15_32_cif.got.tgz:62461.got - 2010.06.03 18:47:42.
