data_PCOD9279415
_publ_section_title
;
Structure prediction by ZEFSAII (Michael W. Deem and Ramdas Pophale) SiO2 
 PCOD9279415
Probable space group: C 2/C
;
_chemical_formula_sum "Si O2"
_cell_formula_units_Z 52
_cell_length_a 11.837777
_cell_length_b 19.044897
_cell_length_c 18.159683
_cell_angle_alpha 90.000000
_cell_angle_beta 139.876085
_cell_angle_gamma 90.000000
_cell_volume 2638.404957
_symmetry_space_group_name_H-M "C 2/C"
_symmetry_group_IT_number 15
_symmetry_cell_setting 'monoclinic'
loop_
_space_group_symop_operation_xyz
x,y,z
-x,y,1/2-z
-x,-y,-z
x,-y,1/2+z
1/2+x,1/2+y,z
1/2-x,1/2+y,1/2-z
1/2-x,1/2-y,-z
1/2+x,1/2-y,1/2+z
loop_
_atom_site_type_symbol
_atom_site_label
_atom_site_fract_x
_atom_site_fract_y
_atom_site_fract_z
Si Si1 0.526425 0.421564 0.675594
Si Si2 0.674985 0.270071 0.718677
Si Si3 0.000000 0.328432 0.250000
Si Si4 0.356687 0.029267 0.262936
Si Si5 0.038662 0.327056 0.891222
Si Si6 0.804138 0.546389 0.586291
Si Si7 0.186722 0.795425 0.361367
O O1 0.500000 0.417066 0.750000
O O2 0.572454 0.343964 0.666654
O O3 0.695743 0.467635 0.738433
O O4 0.357050 0.450746 0.548846
O O5 0.573668 0.219048 0.721974
O O6 0.710359 0.232990 0.658224
O O7 0.872643 0.287443 0.844796
O O8 0.845395 0.378453 0.143063
O O9 0.452114 0.104837 0.311891
O O10 0.512075 0.975514 0.359798
O O11 0.287194 0.007055 0.147279
O O12 0.127594 0.274062 0.877719
O O13 0.186447 0.341802 0.025220
O O14 0.000000 0.830703 0.250000
#
# Coordination Sequence:
#
# PCOD9279415 Si02
#       7
#     8   8   4   8   8   8   8
#     4  11  23  40  63  95 125 162 213 256 319 373
#     4  10  21  35  59  90 127 165 198 254 324 366
#     4  10  22  40  56  94 130 160 214 244 308 382
#     4   9  21  42  63  86 120 168 213 251 310 370
#     4   9  19  36  62  90 123 158 211 258 307 371
#     4  10  24  42  66  89 121 171 217 257 295 380
#     4   9  19  35  57  96 123 159 204 260 316 361
#
# _framework density 19.708877000000001
#
# number of rings (size 3 to 8) (size 9 to 14) (size 15 to 20)
#    0.000    2.462    0.769    0.462   12.923    3.692 
#    0.000    5.385    0.000    0.000    0.000    0.000 
#    0.000    0.000    0.000    0.000    0.000    0.000 
#
# Total GULP energy -145007.823037 kJ/mol
# GULP energy per Si atom -5577.223963 kJ/mol
# Density = 1.966402 g / cm^3
# Si number density = 19.708877 Si / 1000 Ang^3
#
#
#
# Elastic Constant Matrix: (Units=GPa)
#
#
# Indices 1 2 3 4 5 6 
#
# 1 124.9064 28.1812 48.2608 0.0000 1.3886 0.0000
# 2 28.1812 51.2438 28.3472 -0.0001 1.0238 0.0000
# 3 48.2608 28.3472 133.1693 -0.0004 1.9589 -0.0002
# 4 0.0000 -0.0001 -0.0004 11.4372 -0.0002 -2.0291
# 5 1.3886 1.0238 1.9589 -0.0002 12.7664 -0.0001
# 6 0.0000 0.0000 -0.0002 -2.0291 -0.0001 25.4923
#
#
#
# Elastic Compliance Matrix: (Units=1/GPa)
#
#
# Indices 1 2 3 4 5 6 
#
# 1 0.009969 -0.003944 -0.002768 0.000000 -0.000343 0.000000
# 2 -0.003944 0.023694 -0.003601 0.000000 -0.000919 0.000000
# 3 -0.002768 -0.003601 0.009291 0.000000 -0.000836 0.000000
# 4 0.000000 0.000000 0.000000 0.088687 0.000002 0.007059
# 5 -0.000343 -0.000919 -0.000836 0.000002 0.078570 0.000001
# 6 0.000000 0.000000 0.000000 0.007059 0.000001 0.039789
#
#
# Mechanical properties :
#
#
# Convention : Reuss Voigt Hill
#
# Bulk Modulus (GPa) = 44.78698 57.65531 51.22115
# Shear Modulus (GPa) = 17.98114 23.57454 20.77784
#
# Velocity S-wave (km/s) = 3.02377 3.46227 3.25042
# Velocity P-wave (km/s) = 5.91308 6.73054 6.33501
#
# Compressibility (1/GPa) = 0.02232792
#
# Stress axis : x y z
#
# Youngs Moduli (GPa) = 100.30790 42.20494 107.62872
#
# Poissons Ratio (x) = 0.16647 0.29794
# Poissons Ratio (y) = 0.39565 0.38753
# Poissons Ratio (z) = 0.27768 0.15197
#
# Static dielectric constant tensor:
#      x y z
#    x 1.687410 0.000000 0.002950 
#    y 0.000000 1.714470 0.000000 
#    z 0.002950 0.000000 1.706590 
# 
# From -- ./inp_files/200432.got.cif
#   From: 2010.05.17/outbox.cif.g08.bks.cpg/sg15_101_cif.got.tgz:200432.got - 2010.06.03 18:47:42.
