data_PCOD9279125
_publ_section_title
;
Structure prediction by ZEFSAII (Michael W. Deem and Ramdas Pophale) SiO2 
 PCOD9279125
Probable space group: C 2/C
;
_chemical_formula_sum "Si O2"
_cell_formula_units_Z 48
_cell_length_a 7.332338
_cell_length_b 27.202093
_cell_length_c 10.918783
_cell_angle_alpha 90.000000
_cell_angle_beta 84.087658
_cell_angle_gamma 90.000000
_cell_volume 2166.220706
_symmetry_space_group_name_H-M "C 2/C"
_symmetry_group_IT_number 15
_symmetry_cell_setting 'monoclinic'
loop_
_space_group_symop_operation_xyz
x,y,z
-x,y,1/2-z
-x,-y,-z
x,-y,1/2+z
1/2+x,1/2+y,z
1/2-x,1/2+y,1/2-z
1/2-x,1/2-y,-z
1/2+x,1/2-y,1/2+z
loop_
_atom_site_type_symbol
_atom_site_label
_atom_site_fract_x
_atom_site_fract_y
_atom_site_fract_z
Si Si1 0.693865 0.977116 0.199787
Si Si2 0.000000 0.050611 0.250000
Si Si3 0.357672 0.699888 0.511260
Si Si4 0.330476 0.592848 0.491610
Si Si5 0.714519 0.714063 0.618404
Si Si6 0.160844 0.893151 0.140149
Si Si7 0.500000 0.727328 0.250000
O O1 0.500000 0.000309 0.250000
O O2 0.728265 0.936997 0.305640
O O3 0.862365 0.014602 0.187158
O O4 0.708943 0.946844 0.072001
O O5 0.866529 0.080880 0.348398
O O6 0.250000 0.750000 0.500000
O O7 0.258163 0.647700 0.527824
O O8 0.495780 0.707987 0.614438
O O9 0.461657 0.695568 0.373153
O O10 0.538011 0.591870 0.533009
O O11 0.750000 0.750000 0.500000
O O12 0.772292 0.656743 0.606888
O O13 0.828141 0.738654 0.720612
O O14 0.000000 0.882785 0.250000
#
# Coordination Sequence:
#
# PCOD9279125 Si02
#       7
#     8   4   8   8   8   8   4
#     4  11  24  39  69 100 125 170 223 281 330 389
#     4  12  23  46  70  92 136 178 214 277 338 388
#     4  10  22  38  61  93 125 170 216 264 326 387
#     4  10  22  43  66  92 132 174 218 266 340 399
#     4   9  20  34  54  87 122 165 213 263 316 386
#     4   9  19  37  60  89 123 168 217 267 331 392
#     4  10  21  34  58  84 126 174 212 259 322 382
#
# _framework density 22.158405999999999
#
# number of rings (size 3 to 8) (size 9 to 14) (size 15 to 20)
#    0.000    2.000    2.500    1.000    8.167    2.000 
#    0.000    0.000    3.667    0.000    0.000    0.000 
#    0.000    0.000    0.000    0.000    0.000    0.000 
#
# Total GULP energy -133734.191003 kJ/mol
# GULP energy per Si atom -5572.257958 kJ/mol
# Density = 2.210797 g / cm^3
# Si number density = 22.158406 Si / 1000 Ang^3
#
#
#
# Elastic Constant Matrix: (Units=GPa)
#
#
# Indices 1 2 3 4 5 6 
#
# 1 63.5256 18.2446 11.4405 0.0000 -1.9588 0.0000
# 2 18.2446 88.3796 12.3071 0.0000 -4.3492 0.0000
# 3 11.4405 12.3071 80.3553 0.0000 12.7435 0.0000
# 4 0.0000 0.0000 0.0000 35.9664 0.0000 -4.8421
# 5 -1.9588 -4.3492 12.7435 0.0000 29.2889 0.0000
# 6 0.0000 0.0000 0.0000 -4.8421 0.0000 15.9899
#
#
#
# Elastic Compliance Matrix: (Units=1/GPa)
#
#
# Indices 1 2 3 4 5 6 
#
# 1 0.017092 -0.003140 -0.002213 0.000000 0.001640 0.000000
# 2 -0.003140 0.012336 -0.001826 0.000000 0.002416 0.000000
# 3 -0.002213 -0.001826 0.014077 0.000000 -0.006544 0.000000
# 4 0.000000 0.000000 0.000000 0.028985 0.000000 0.008777
# 5 0.001640 0.002416 -0.006544 0.000000 0.037458 0.000000
# 6 0.000000 0.000000 0.000000 0.008777 0.000000 0.065197
#
#
# Mechanical properties :
#
#
# Convention : Reuss Voigt Hill
#
# Bulk Modulus (GPa) = 34.30541 35.13832 34.72187
# Shear Modulus (GPa) = 25.09798 28.93360 27.01579
#
# Velocity S-wave (km/s) = 3.36916 3.61745 3.49551
# Velocity P-wave (km/s) = 5.53628 5.77409 5.65644
#
# Compressibility (1/GPa) = 0.02914992
#
# Stress axis : x y z
#
# Youngs Moduli (GPa) = 58.50539 81.06306 71.03706
#
# Poissons Ratio (x) = 0.25451 0.15718
# Poissons Ratio (y) = 0.18369 0.12968
# Poissons Ratio (z) = 0.12945 0.14798
#
# Static dielectric constant tensor:
#      x y z
#    x 1.863050 0.000000 -0.011130 
#    y 0.000000 1.880920 0.000000 
#    z -0.011130 0.000000 1.926150 
# 
# From -- ./inp_files/80266.got.cif
#   From: 2010.05.17/outbox.cif.g08.bks.cpg/sg15_41_cif.got.tgz:80266.got - 2010.06.03 18:47:42.
