data_PCOD9279163
_publ_section_title
;
Structure prediction by ZEFSAII (Michael W. Deem and Ramdas Pophale) SiO2 
 PCOD9279163
Probable space group: C 2/C
;
_chemical_formula_sum "Si O2"
_cell_formula_units_Z 56
_cell_length_a 7.960523
_cell_length_b 23.268023
_cell_length_c 15.255154
_cell_angle_alpha 90.000000
_cell_angle_beta 107.304054
_cell_angle_gamma 90.000000
_cell_volume 2697.756138
_symmetry_space_group_name_H-M "C 2/C"
_symmetry_group_IT_number 15
_symmetry_cell_setting 'monoclinic'
loop_
_space_group_symop_operation_xyz
x,y,z
-x,y,1/2-z
-x,-y,-z
x,-y,1/2+z
1/2+x,1/2+y,z
1/2-x,1/2+y,1/2-z
1/2-x,1/2-y,-z
1/2+x,1/2-y,1/2+z
loop_
_atom_site_type_symbol
_atom_site_label
_atom_site_fract_x
_atom_site_fract_y
_atom_site_fract_z
Si Si1 0.000000 0.739097 0.250000
Si Si2 0.699618 0.190288 0.808971
Si Si3 0.881546 0.085027 0.537429
Si Si4 0.838708 0.042523 0.047982
Si Si5 0.000000 0.986332 0.750000
Si Si6 0.760175 0.413771 0.307416
Si Si7 0.825281 0.691894 0.054041
Si Si8 0.413514 0.135647 0.538652
O O1 0.145054 0.773175 0.212614
O O2 0.109798 0.703610 0.338292
O O3 0.500000 0.209879 0.750000
O O4 0.728479 0.127734 0.772039
O O5 0.693577 0.177360 0.911906
O O6 0.875012 0.106335 0.636670
O O7 0.805445 0.137335 0.470384
O O8 0.061014 0.062814 0.524013
O O9 0.777487 0.023685 0.526582
O O10 0.965937 0.044443 0.152430
O O11 0.691515 0.089802 0.034524
O O12 0.176771 0.025458 0.768212
O O13 0.948966 0.402780 0.382583
O O14 0.750000 0.750000 0.000000
O O15 0.979725 0.674181 0.012056
#
# Coordination Sequence:
#
# PCOD9279163 Si02
#       8
#     4   8   8   8   4   8   8   8
#     4  12  25  42  72  94 136 192 217 282 362 400
#     4  10  22  40  65 101 129 170 241 286 328 403
#     4   9  21  40  62  90 133 169 217 266 339 403
#     4  10  22  39  65  96 129 179 214 279 338 404
#     4  10  21  34  60  94 132 172 219 264 342 414
#     4   9  19  36  61  89 124 168 219 280 314 392
#     4  11  25  45  66  99 133 180 228 283 342 415
#     4  10  23  41  66  98 131 171 229 282 338 397
#
# _framework density 20.757992000000002
#
# number of rings (size 3 to 8) (size 9 to 14) (size 15 to 20)
#    0.000    2.000    0.000    3.000   10.000    6.857 
#    2.571    0.000    0.000    0.000    0.000    0.000 
#    0.000    0.000    0.000    0.000    0.000    0.000 
#
# Total GULP energy -155994.910176 kJ/mol
# GULP energy per Si atom -5571.246792 kJ/mol
# Density = 2.071075 g / cm^3
# Si number density = 20.757992 Si / 1000 Ang^3
#
#
#
# Elastic Constant Matrix: (Units=GPa)
#
#
# Indices 1 2 3 4 5 6 
#
# 1 80.3895 44.2231 14.7705 0.0000 -8.5133 0.0000
# 2 44.2231 102.6095 41.6889 0.0000 4.1046 0.0000
# 3 14.7705 41.6889 93.8937 0.0000 14.1382 0.0000
# 4 0.0000 0.0000 0.0000 26.2746 0.0000 0.5179
# 5 -8.5133 4.1046 14.1382 0.0000 28.8452 0.0000
# 6 0.0000 0.0000 0.0000 0.5179 0.0000 35.1407
#
#
#
# Elastic Compliance Matrix: (Units=1/GPa)
#
#
# Indices 1 2 3 4 5 6 
#
# 1 0.017355 -0.007608 -0.000309 0.000000 0.006356 0.000000
# 2 -0.007608 0.015251 -0.005301 0.000000 -0.001817 0.000000
# 3 -0.000309 -0.005301 0.013985 0.000000 -0.006191 0.000000
# 4 0.000000 0.000000 0.000000 0.038071 0.000000 -0.000561
# 5 0.006356 -0.001817 -0.006191 0.000000 0.039837 0.000000
# 6 0.000000 0.000000 0.000000 -0.000561 0.000000 0.028465
#
#
# Mechanical properties :
#
#
# Convention : Reuss Voigt Hill
#
# Bulk Modulus (GPa) = 49.61782 53.13975 51.37879
# Shear Modulus (GPa) = 26.86459 29.79944 28.33201
#
# Velocity S-wave (km/s) = 3.60137 3.79300 3.69843
# Velocity P-wave (km/s) = 6.42247 6.69609 6.56071
#
# Compressibility (1/GPa) = 0.02015405
#
# Stress axis : x y z
#
# Youngs Moduli (GPa) = 57.62109 65.56872 71.50570
#
# Poissons Ratio (x) = 0.49887 0.02210
# Poissons Ratio (y) = 0.43840 0.37905
# Poissons Ratio (z) = 0.01781 0.34758
#
# Static dielectric constant tensor:
#      x y z
#    x 1.813460 0.000000 0.035740 
#    y 0.000000 1.755210 0.000000 
#    z 0.035740 0.000000 1.762510 
# 
# From -- ./inp_files/137509.got.cif
#   From: 2010.05.17/outbox.cif.g08.bks.cpg/sg15_69_cif.got.tgz:137509.got - 2010.06.03 18:47:42.
