data_PCOD9279509
_publ_section_title
;
Structure prediction by ZEFSAII (Michael W. Deem and Ramdas Pophale) SiO2 
 PCOD9279509
Probable space group: C 2/C
;
_chemical_formula_sum "Si O2"
_cell_formula_units_Z 36
_cell_length_a 18.965696
_cell_length_b 14.839313
_cell_length_c 5.503509
_cell_angle_alpha 90.000000
_cell_angle_beta 77.421275
_cell_angle_gamma 90.000000
_cell_volume 1511.718937
_symmetry_space_group_name_H-M "C 2/C"
_symmetry_group_IT_number 15
_symmetry_cell_setting 'monoclinic'
loop_
_space_group_symop_operation_xyz
x,y,z
-x,y,1/2-z
-x,-y,-z
x,-y,1/2+z
1/2+x,1/2+y,z
1/2-x,1/2+y,1/2-z
1/2-x,1/2-y,-z
1/2+x,1/2-y,1/2+z
loop_
_atom_site_type_symbol
_atom_site_label
_atom_site_fract_x
_atom_site_fract_y
_atom_site_fract_z
Si Si1 0.913750 0.054734 0.046403
Si Si2 0.000000 0.202974 0.750000
Si Si3 0.784048 0.165109 0.283573
Si Si4 0.627196 0.156652 0.230731
Si Si5 0.833883 0.634388 0.807748
O O1 0.834604 0.098554 0.102894
O O2 0.920802 0.004336 0.297394
O O3 0.971109 0.136025 0.979327
O O4 0.932786 0.266586 0.735099
O O5 0.710365 0.190358 0.198541
O O6 0.829594 0.255232 0.301491
O O7 0.749448 0.116491 0.549691
O O8 0.619153 0.106793 0.494113
O O9 0.633370 0.105145 0.971203
#
# Coordination Sequence:
#
# PCOD9279509 Si02
#       5
#     8   4   8   8   8
#     4  12  29  41  59  85 132 186 201 231 285 389
#     4  12  26  42  60  90 140 158 210 236 322 384
#     4   9  21  38  63  83 113 147 229 248 304 332
#     4  10  21  35  63  88 112 154 191 284 304 337
#     4   9  19  33  63  85 104 146 201 284 300 318
#
# _framework density 23.813952
#
# number of rings (size 3 to 8) (size 9 to 14) (size 15 to 20)
#    1.333    0.444    2.222    1.333    6.222    2.667 
#    0.000    0.000    0.000    0.000    0.000    1.556 
#    0.000    0.000    0.000    0.000    0.000    0.000 
#
# Total GULP energy -100274.039826 kJ/mol
# GULP energy per Si atom -5570.779990 kJ/mol
# Density = 2.375975 g / cm^3
# Si number density = 23.813952 Si / 1000 Ang^3
#
#
#
# Elastic Constant Matrix: (Units=GPa)
#
#
# Indices 1 2 3 4 5 6 
#
# 1 123.7377 60.2796 59.5070 0.0000 -20.4752 0.0000
# 2 60.2796 89.5175 51.2415 0.0000 -9.5435 0.0000
# 3 59.5070 51.2415 208.0469 0.0000 16.3397 0.0000
# 4 0.0000 0.0000 0.0000 9.3587 0.0000 -15.5456
# 5 -20.4752 -9.5435 16.3397 0.0000 32.8001 0.0000
# 6 0.0000 0.0000 0.0000 -15.5456 0.0000 -2.0375
#
#
#
# Elastic Compliance Matrix: (Units=1/GPa)
#
#
# Indices 1 2 3 4 5 6 
#
# 1 0.014366 -0.007035 -0.003039 0.000000 0.008435 0.000000
# 2 -0.007035 0.017519 -0.002454 0.000000 0.001928 0.000000
# 3 -0.003039 -0.002454 0.006749 0.000000 -0.005973 0.000000
# 4 0.000000 0.000000 0.000000 0.007815 0.000000 -0.059622
# 5 0.008435 0.001928 -0.005973 0.000000 0.039290 0.000000
# 6 0.000000 0.000000 0.000000 -0.059622 0.000000 -0.035894
#
#
# Mechanical properties :
#
#
# Convention : Reuss Voigt Hill
#
# Bulk Modulus (GPa) = 73.64797 84.81757 79.23277
# Shear Modulus (GPa) = 62.95178 24.70920 43.83049
#
# Velocity S-wave (km/s) = 5.14706 3.22466 4.29480
# Velocity P-wave (km/s) = 8.14349 7.03979 7.61167
#
# Compressibility (1/GPa) = 0.01357811
#
# Stress axis : x y z
#
# Youngs Moduli (GPa) = 69.60945 57.08232 148.16353
#
# Poissons Ratio (x) = 0.40158 0.45023
# Poissons Ratio (y) = 0.48971 0.36359
# Poissons Ratio (z) = 0.21152 0.14008
#
# Static dielectric constant tensor:
#      x y z
#    x 1.883050 0.000000 0.034720 
#    y 0.000000 1.893720 0.000000 
#    z 0.034720 0.000000 2.072970 
# 
# From -- ./inp_files/15176.got.cif
#   From: 2010.05.17/outbox.cif.g08.bks.cpg/sg15_8_cif.got.tgz:15176.got - 2010.06.03 18:47:42.
