data_PCOD9279371
_publ_section_title
;
Structure prediction by ZEFSAII (Michael W. Deem and Ramdas Pophale) SiO2 
 PCOD9279371
Probable space group: C 2/C
;
_chemical_formula_sum "Si O2"
_cell_formula_units_Z 24
_cell_length_a 9.403068
_cell_length_b 17.543451
_cell_length_c 5.592288
_cell_angle_alpha 90.000000
_cell_angle_beta 70.946116
_cell_angle_gamma 90.000000
_cell_volume 871.973627
_symmetry_space_group_name_H-M "C 2/C"
_symmetry_group_IT_number 15
_symmetry_cell_setting 'monoclinic'
loop_
_space_group_symop_operation_xyz
x,y,z
-x,y,1/2-z
-x,-y,-z
x,-y,1/2+z
1/2+x,1/2+y,z
1/2-x,1/2+y,1/2-z
1/2-x,1/2-y,-z
1/2+x,1/2-y,1/2+z
loop_
_atom_site_type_symbol
_atom_site_label
_atom_site_fract_x
_atom_site_fract_y
_atom_site_fract_z
Si Si1 0.566716 0.675527 0.966985
Si Si2 0.854247 0.688023 0.570286
Si Si3 0.669247 0.023187 0.127899
O O1 0.500000 0.644158 0.750000
O O2 0.500000 0.643166 0.250000
O O3 0.746607 0.668693 0.855582
O O4 0.507011 0.763963 0.006543
O O5 0.750000 0.750000 0.500000
O O6 0.854707 0.611385 0.419635
O O7 0.500000 0.986932 0.250000
O O8 0.741454 0.010293 0.346872
#
# Coordination Sequence:
#
# PCOD9279371 Si02
#       3
#     8   8   8
#     4  10  21  35  58  89 119 149 193 247 295 343
#     4  10  21  39  64  91 119 154 201 248 295 349
#     4  10  22  38  58  86 120 156 196 243 294 348
#
# _framework density 27.523765999999998
#
# number of rings (size 3 to 8) (size 9 to 14) (size 15 to 20)
#    0.000    2.000    0.000    4.000    0.000   14.667 
#    0.000    0.000    0.000   26.000    0.000    0.000 
#    0.000    0.000    0.000    0.000    0.000    0.000 
#
# Total GULP energy -67008.679205 kJ/mol
# GULP energy per Si atom -5584.056600 kJ/mol
# Density = 2.746112 g / cm^3
# Si number density = 27.523766 Si / 1000 Ang^3
#
#
#
# Elastic Constant Matrix: (Units=GPa)
#
#
# Indices 1 2 3 4 5 6 
#
# 1 92.9052 11.4700 37.4089 0.0000 -17.1225 0.0000
# 2 11.4700 117.5125 44.7079 0.0000 3.2547 0.0000
# 3 37.4089 44.7079 275.7894 0.0000 -8.3160 0.0000
# 4 0.0000 0.0000 0.0000 25.4551 0.0000 -4.3494
# 5 -17.1225 3.2547 -8.3160 0.0000 47.4821 0.0000
# 6 0.0000 0.0000 0.0000 -4.3494 0.0000 29.5247
#
#
#
# Elastic Compliance Matrix: (Units=1/GPa)
#
#
# Indices 1 2 3 4 5 6 
#
# 1 0.012199 -0.000774 -0.001402 0.000000 0.004207 0.000000
# 2 -0.000774 0.009155 -0.001414 0.000000 -0.001154 0.000000
# 3 -0.001402 -0.001414 0.004054 0.000000 0.000301 0.000000
# 4 0.000000 0.000000 0.000000 0.040299 0.000000 0.005937
# 5 0.004207 -0.001154 0.000301 0.000000 0.022709 0.000000
# 6 0.000000 0.000000 0.000000 0.005937 0.000000 0.034745
#
#
# Mechanical properties :
#
#
# Convention : Reuss Voigt Hill
#
# Bulk Modulus (GPa) = 54.85892 74.82008 64.83950
# Shear Modulus (GPa) = 36.65198 46.66707 41.65952
#
# Velocity S-wave (km/s) = 3.65313 4.12214 3.89470
# Velocity P-wave (km/s) = 6.14562 7.06391 6.62070
#
# Compressibility (1/GPa) = 0.01822858
#
# Stress axis : x y z
#
# Youngs Moduli (GPa) = 81.97294 109.22787 246.63982
#
# Poissons Ratio (x) = 0.08450 0.34590
# Poissons Ratio (y) = 0.06342 0.34875
# Poissons Ratio (z) = 0.11496 0.15445
#
# Static dielectric constant tensor:
#      x y z
#    x 2.236460 0.000000 0.005170 
#    y 0.000000 2.150870 0.000000 
#    z 0.005170 0.000000 2.400460 
# 
# From -- ./inp_files/3334.got.cif
#   From: 2010.05.17/outbox.cif.g08.bks.cpg/sg15_2_cif.got.tgz:3334.got - 2010.06.03 18:47:42.
