data_PCOD9279134
_publ_section_title
;
Structure prediction by ZEFSAII (Michael W. Deem and Ramdas Pophale) SiO2 
 PCOD9279134
Probable space group: C 2/C
;
_chemical_formula_sum "Si O2"
_cell_formula_units_Z 56
_cell_length_a 19.832405
_cell_length_b 12.490463
_cell_length_c 22.632083
_cell_angle_alpha 90.000000
_cell_angle_beta 153.656747
_cell_angle_gamma 90.000000
_cell_volume 2487.795558
_symmetry_space_group_name_H-M "C 2/C"
_symmetry_group_IT_number 15
_symmetry_cell_setting 'monoclinic'
loop_
_space_group_symop_operation_xyz
x,y,z
-x,y,1/2-z
-x,-y,-z
x,-y,1/2+z
1/2+x,1/2+y,z
1/2-x,1/2+y,1/2-z
1/2-x,1/2-y,-z
1/2+x,1/2-y,1/2+z
loop_
_atom_site_type_symbol
_atom_site_label
_atom_site_fract_x
_atom_site_fract_y
_atom_site_fract_z
Si Si1 0.682311 0.643135 0.787188
Si Si2 0.241625 0.151821 0.661786
Si Si3 0.564112 0.862672 0.668504
Si Si4 0.048486 0.265671 0.076586
Si Si5 0.233947 0.134962 0.956561
Si Si6 0.674282 0.012705 0.364683
Si Si7 0.193778 0.035600 0.210104
O O1 0.579956 0.734823 0.675860
O O2 0.850608 0.683287 0.897159
O O3 0.667195 0.523967 0.750547
O O4 0.638809 0.644826 0.821853
O O5 0.393399 0.177262 0.818153
O O6 0.275836 0.097511 0.626286
O O7 0.162774 0.059345 0.639240
O O8 0.131313 0.253872 0.572025
O O9 0.396310 0.893873 0.554556
O O10 0.667658 0.898996 0.806568
O O11 0.633979 0.927966 0.669260
O O12 0.102058 0.143015 0.127309
O O13 0.217570 0.051992 0.997399
O O14 0.250000 0.250000 0.000000
O O15 0.500000 0.005394 0.250000
#
# Coordination Sequence:
#
# PCOD9279134 Si02
#       7
#     8   8   8   8   8   8   8
#     4  10  21  34  58  91 118 157 196 256 310 365
#     4  10  21  41  63  90 123 163 204 255 306 365
#     4   9  19  36  53  83 123 149 197 250 310 363
#     4  10  22  39  62  93 124 156 204 257 313 360
#     4  11  21  33  58  88 118 160 199 254 303 372
#     4   9  19  39  59  83 116 165 204 239 309 367
#     4   9  20  37  58  87 119 160 196 251 312 366
#
# _framework density 22.509889000000001
#
# number of rings (size 3 to 8) (size 9 to 14) (size 15 to 20)
#    0.000    2.286    1.429    0.429    6.000    1.714 
#    7.714    0.714    0.000    0.000    0.000    0.000 
#    0.000    0.000    0.000    0.000    0.000    0.000 
#
# Total GULP energy -156277.413991 kJ/mol
# GULP energy per Si atom -5581.336214 kJ/mol
# Density = 2.245866 g / cm^3
# Si number density = 22.509889 Si / 1000 Ang^3
#
#
#
# Elastic Constant Matrix: (Units=GPa)
#
#
# Indices 1 2 3 4 5 6 
#
# 1 111.4634 38.3051 13.9271 0.0007 -24.0451 0.0002
# 2 38.3051 75.0097 16.9655 0.0011 -16.5212 0.0006
# 3 13.9271 16.9655 33.4109 0.0014 -9.5398 0.0007
# 4 0.0007 0.0011 0.0014 31.1153 0.0005 -11.6626
# 5 -24.0451 -16.5212 -9.5398 0.0005 28.7837 0.0001
# 6 0.0002 0.0006 0.0007 -11.6626 0.0001 42.7758
#
#
#
# Elastic Compliance Matrix: (Units=1/GPa)
#
#
# Indices 1 2 3 4 5 6 
#
# 1 0.012178 -0.004428 -0.000716 0.000000 0.007394 0.000000
# 2 -0.004428 0.017960 -0.005950 0.000000 0.004637 0.000000
# 3 -0.000716 -0.005950 0.035460 -0.000002 0.007739 -0.000001
# 4 0.000000 0.000000 -0.000002 0.035797 -0.000002 0.009760
# 5 0.007394 0.004637 0.007739 -0.000002 0.046145 -0.000001
# 6 0.000000 0.000000 -0.000001 0.009760 -0.000001 0.026039
#
#
# Mechanical properties :
#
#
# Convention : Reuss Voigt Hill
#
# Bulk Modulus (GPa) = 23.03682 39.80881 31.42281
# Shear Modulus (GPa) = 23.78265 30.58072 27.18168
#
# Velocity S-wave (km/s) = 3.25398 3.68984 3.47874
# Velocity P-wave (km/s) = 4.93701 5.98972 5.48866
#
# Compressibility (1/GPa) = 0.04340878
#
# Stress axis : x y z
#
# Youngs Moduli (GPa) = 82.11582 55.67885 28.20084
#
# Poissons Ratio (x) = 0.24656 0.02021
# Poissons Ratio (y) = 0.36363 0.16779
# Poissons Ratio (z) = 0.05884 0.33128
#
# Static dielectric constant tensor:
#      x y z
#    x 1.859660 0.000000 -0.016110 
#    y 0.000000 1.827240 0.000000 
#    z -0.016110 0.000000 2.005670 
# 
# From -- ./inp_files/280012.got.cif
#   From: 2010.05.17/outbox.cif.g08.bks.cpg/sg15_141_cif.got.tgz:280012.got - 2010.06.03 18:47:42.
