data_PCOD9279839
_publ_section_title
;
Structure prediction by ZEFSAII (Michael W. Deem and Ramdas Pophale) SiO2 
 PCOD9279839
Probable space group: C 2/C
;
_chemical_formula_sum "Si O2"
_cell_formula_units_Z 64
_cell_length_a 27.721988
_cell_length_b 7.794433
_cell_length_c 13.616368
_cell_angle_alpha 90.000000
_cell_angle_beta 80.795560
_cell_angle_gamma 90.000000
_cell_volume 2904.302406
_symmetry_space_group_name_H-M "C 2/C"
_symmetry_group_IT_number 15
_symmetry_cell_setting 'monoclinic'
loop_
_space_group_symop_operation_xyz
x,y,z
-x,y,1/2-z
-x,-y,-z
x,-y,1/2+z
1/2+x,1/2+y,z
1/2-x,1/2+y,1/2-z
1/2-x,1/2-y,-z
1/2+x,1/2-y,1/2+z
loop_
_atom_site_type_symbol
_atom_site_label
_atom_site_fract_x
_atom_site_fract_y
_atom_site_fract_z
Si Si1 0.143585 0.059436 0.196709
Si Si2 0.905516 0.756908 0.500466
Si Si3 0.283696 0.447794 0.182276
Si Si4 0.794762 0.285531 0.054635
Si Si5 0.913167 0.570276 0.133300
Si Si6 0.873266 0.131345 0.525482
Si Si7 0.677228 0.911501 0.269521
Si Si8 0.552137 0.312957 0.223556
O O1 0.191846 0.955845 0.217528
O O2 0.147036 0.239195 0.253415
O O3 0.096863 0.940991 0.234510
O O4 0.140181 0.110561 0.084113
O O5 0.848255 0.725230 0.489204
O O6 0.920177 0.612350 0.575564
O O7 0.937093 0.754142 0.391491
O O8 0.901675 0.953015 0.540988
O O9 0.287377 0.638358 0.138126
O O10 0.322551 0.353529 0.101185
O O11 0.227006 0.402707 0.191938
O O12 0.801242 0.442230 0.126897
O O13 0.750000 0.250000 0.000000
O O14 0.904422 0.706408 0.048705
O O15 0.864706 0.553311 0.218694
O O16 0.950101 0.656429 0.197760
O O17 0.500000 0.404597 0.250000
#
# Coordination Sequence:
#
# PCOD9279839 Si02
#       8
#     8   8   8   8   8   8   8   8
#     4  10  23  44  64  95 146 169 229 285 331 409
#     4   9  23  45  64  98 138 172 223 280 334 399
#     4  10  21  36  59  98 133 178 228 264 323 402
#     4   9  20  34  58  88 131 181 212 254 326 383
#     4  11  24  42  71  96 140 172 226 280 335 405
#     4  10  22  41  68  94 137 187 217 269 338 393
#     4  10  24  36  62  99 136 184 217 273 332 385
#     4  11  25  46  76  99 126 178 227 286 354 398
#
# _framework density 22.036273999999999
#
# number of rings (size 3 to 8) (size 9 to 14) (size 15 to 20)
#    0.000    2.000    1.250    0.750   12.250    2.000 
#    0.000    3.125    0.000    0.000    0.000    0.000 
#    0.000    0.000    0.000    0.000    0.000    0.000 
#
# Total GULP energy -178138.930133 kJ/mol
# GULP energy per Si atom -5566.841567 kJ/mol
# Density = 2.198612 g / cm^3
# Si number density = 22.036274 Si / 1000 Ang^3
#
#
#
# Elastic Constant Matrix: (Units=GPa)
#
#
# Indices 1 2 3 4 5 6 
#
# 1 74.3292 22.2421 15.5220 0.0000 -18.1535 0.0000
# 2 22.2421 102.6583 33.9349 0.0000 4.8870 0.0000
# 3 15.5220 33.9349 103.3778 0.0000 -5.3489 0.0000
# 4 0.0000 0.0000 0.0000 25.1427 0.0000 1.3025
# 5 -18.1535 4.8870 -5.3489 0.0000 20.3070 0.0000
# 6 0.0000 0.0000 0.0000 1.3025 0.0000 5.5713
#
#
#
# Elastic Compliance Matrix: (Units=1/GPa)
#
#
# Indices 1 2 3 4 5 6 
#
# 1 0.019570 -0.005018 -0.000328 0.000000 0.018616 0.000000
# 2 -0.005018 0.012483 -0.003783 0.000000 -0.008486 0.000000
# 3 -0.000328 -0.003783 0.011148 0.000000 0.003554 0.000000
# 4 0.000000 0.000000 0.000000 0.040260 0.000000 -0.009412
# 5 0.018616 -0.008486 0.003554 0.000000 0.068864 0.000000
# 6 0.000000 0.000000 0.000000 -0.009412 0.000000 0.181691
#
#
# Mechanical properties :
#
#
# Convention : Reuss Voigt Hill
#
# Bulk Modulus (GPa) = 40.09147 47.08481 43.58814
# Shear Modulus (GPa) = 13.86617 24.11530 18.99074
#
# Velocity S-wave (km/s) = 2.51119 3.31168 2.93882
# Velocity P-wave (km/s) = 5.16149 6.00302 5.59809
#
# Compressibility (1/GPa) = 0.02494296
#
# Stress axis : x y z
#
# Youngs Moduli (GPa) = 51.09772 80.10993 89.69987
#
# Poissons Ratio (x) = 0.40198 0.02943
# Poissons Ratio (y) = 0.25640 0.33936
# Poissons Ratio (z) = 0.01676 0.30308
#
# Static dielectric constant tensor:
#      x y z
#    x 1.854090 0.000000 0.021250 
#    y 0.000000 1.928610 0.000000 
#    z 0.021250 0.000000 1.919760 
# 
# From -- ./inp_files/176596.got.cif
#   From: 2010.05.17/outbox.cif.g08.bks.cpg/sg15_89_cif.got.tgz:176596.got - 2010.06.03 18:47:42.
