data_PCOD9279536
_publ_section_title
;
Structure prediction by ZEFSAII (Michael W. Deem and Ramdas Pophale) SiO2 
 PCOD9279536
Probable space group: C 2/C
;
_chemical_formula_sum "Si O2"
_cell_formula_units_Z 52
_cell_length_a 21.858319
_cell_length_b 12.767426
_cell_length_c 8.644830
_cell_angle_alpha 90.000000
_cell_angle_beta 122.075798
_cell_angle_gamma 90.000000
_cell_volume 2044.266489
_symmetry_space_group_name_H-M "C 2/C"
_symmetry_group_IT_number 15
_symmetry_cell_setting 'monoclinic'
loop_
_space_group_symop_operation_xyz
x,y,z
-x,y,1/2-z
-x,-y,-z
x,-y,1/2+z
1/2+x,1/2+y,z
1/2-x,1/2+y,1/2-z
1/2-x,1/2-y,-z
1/2+x,1/2-y,1/2+z
loop_
_atom_site_type_symbol
_atom_site_label
_atom_site_fract_x
_atom_site_fract_y
_atom_site_fract_z
Si Si1 0.565232 0.824984 0.562833
Si Si2 0.500000 0.314751 0.250000
Si Si3 0.817617 0.900744 0.486333
Si Si4 0.682388 0.949768 0.895505
Si Si5 0.413601 0.860117 0.233883
Si Si6 0.625663 0.581289 0.107370
Si Si7 0.704849 0.220877 0.685785
O O1 0.545361 0.753387 0.684976
O O2 0.636171 0.888724 0.705257
O O3 0.489438 0.882418 0.420333
O O4 0.578669 0.784525 0.405138
O O5 0.553577 0.383368 0.425896
O O6 0.868228 0.900916 0.702693
O O7 0.777941 0.795981 0.378721
O O8 0.749201 0.976551 0.438624
O O9 0.857576 0.961055 0.403541
O O10 0.622306 0.032728 0.874286
O O11 0.706043 0.861861 0.049024
O O12 0.361842 0.813313 0.295156
O O13 0.687652 0.659689 0.122270
#
# Coordination Sequence:
#
# PCOD9279536 Si02
#       7
#     8   4   8   8   8   8   8
#     4  11  21  39  64 106 142 182 233 274 354 419
#     4  12  26  48  72  96 136 190 242 292 340 412
#     4  11  26  47  71 108 139 186 237 285 355 417
#     4  11  21  40  68 104 145 182 227 283 358 426
#     4  10  21  35  65 108 146 185 221 284 349 428
#     4  12  26  51  73  99 140 183 241 296 349 410
#     4  11  22  45  72 102 149 182 227 288 350 421
#
# _framework density 25.436997000000002
#
# number of rings (size 3 to 8) (size 9 to 14) (size 15 to 20)
#    0.000    0.923    4.615    2.769    2.154    3.692 
#    2.769    0.000    0.000    0.000    0.000    0.000 
#    0.000    0.000    0.000    0.000    0.000    0.000 
#
# Total GULP energy -145441.948087 kJ/mol
# GULP energy per Si atom -5593.921080 kJ/mol
# Density = 2.537910 g / cm^3
# Si number density = 25.436997 Si / 1000 Ang^3
#
#
#
# Elastic Constant Matrix: (Units=GPa)
#
#
# Indices 1 2 3 4 5 6 
#
# 1 50.5260 6.8066 39.3723 0.0000 0.2540 0.0000
# 2 6.8066 43.5989 7.2139 0.0000 7.4660 0.0000
# 3 39.3723 7.2139 175.3564 0.0000 23.1602 0.0000
# 4 0.0000 0.0000 0.0000 33.7748 0.0000 -4.0575
# 5 0.2540 7.4660 23.1602 0.0000 34.3801 0.0000
# 6 0.0000 0.0000 0.0000 -4.0575 0.0000 31.9298
#
#
#
# Elastic Compliance Matrix: (Units=1/GPa)
#
#
# Indices 1 2 3 4 5 6 
#
# 1 0.025010 -0.003706 -0.006086 0.000000 0.004720 0.000000
# 2 -0.003706 0.024388 0.000576 0.000000 -0.005657 0.000000
# 3 -0.006086 0.000576 0.007745 0.000000 -0.005298 0.000000
# 4 0.000000 0.000000 0.000000 0.030067 0.000000 0.003821
# 5 0.004720 -0.005657 -0.005298 0.000000 0.033849 0.000000
# 6 0.000000 0.000000 0.000000 0.003821 0.000000 0.031804
#
#
# Mechanical properties :
#
#
# Convention : Reuss Voigt Hill
#
# Bulk Modulus (GPa) = 25.83242 41.80742 33.81992
# Shear Modulus (GPa) = 27.14441 34.42284 30.78363
#
# Velocity S-wave (km/s) = 3.27023 3.68266 3.48255
# Velocity P-wave (km/s) = 4.94335 5.87826 5.43096
#
# Compressibility (1/GPa) = 0.03871104
#
# Stress axis : x y z
#
# Youngs Moduli (GPa) = 39.98387 41.00324 129.11167
#
# Poissons Ratio (x) = 0.15195 0.78583
# Poissons Ratio (y) = 0.14817 -0.07435
# Poissons Ratio (z) = 0.24336 -0.02361
#
# Static dielectric constant tensor:
#      x y z
#    x 2.063800 0.000000 -0.020480 
#    y 0.000000 2.082460 0.000000 
#    z -0.020480 0.000000 1.963710 
# 
# From -- ./inp_files/69799.got.cif
#   From: 2010.05.17/outbox.cif.g08.bks.cpg/sg15_35_cif.got.tgz:69799.got - 2010.06.03 18:47:42.
