data_PCOD9279270
_publ_section_title
;
Structure prediction by ZEFSAII (Michael W. Deem and Ramdas Pophale) SiO2 
 PCOD9279270
Probable space group: C 2/C
;
_chemical_formula_sum "Si O2"
_cell_formula_units_Z 52
_cell_length_a 19.843940
_cell_length_b 18.590785
_cell_length_c 14.035106
_cell_angle_alpha 90.000000
_cell_angle_beta 29.924149
_cell_angle_gamma 90.000000
_cell_volume 2582.938014
_symmetry_space_group_name_H-M "C 2/C"
_symmetry_group_IT_number 15
_symmetry_cell_setting 'monoclinic'
loop_
_space_group_symop_operation_xyz
x,y,z
-x,y,1/2-z
-x,-y,-z
x,-y,1/2+z
1/2+x,1/2+y,z
1/2-x,1/2+y,1/2-z
1/2-x,1/2-y,-z
1/2+x,1/2-y,1/2+z
loop_
_atom_site_type_symbol
_atom_site_label
_atom_site_fract_x
_atom_site_fract_y
_atom_site_fract_z
Si Si1 0.476352 0.917143 0.993531
Si Si2 0.238262 0.620334 0.278997
Si Si3 0.000000 0.563550 0.250000
Si Si4 0.351746 0.238377 0.964141
Si Si5 0.741583 0.476938 0.566575
Si Si6 0.964326 0.028755 0.939190
Si Si7 0.300021 0.392977 0.060425
O O1 0.612832 0.879309 0.861501
O O2 0.455551 0.903138 0.905828
O O3 0.344225 0.890318 0.211347
O O4 0.500000 0.000000 0.000000
O O5 0.220737 0.688670 0.368577
O O6 0.230449 0.551915 0.361476
O O7 0.377326 0.601271 0.053900
O O8 0.875026 0.515632 0.369154
O O9 0.500000 0.209591 0.750000
O O10 0.250000 0.250000 0.000000
O O11 0.375391 0.317760 0.980028
O O12 0.613336 0.529434 0.711595
O O13 0.717134 0.408454 0.530415
O O14 0.878427 0.963505 0.000218
O O15 0.000000 0.000000 0.000000
#
# Coordination Sequence:
#
# PCOD9279270 Si02
#       7
#     8   8   4   8   8   8   8
#     4  12  21  38  62  93 126 166 219 274 328 381
#     4  11  22  39  58  93 135 167 215 263 325 398
#     4  12  22  36  64  96 124 166 212 276 326 382
#     4  12  26  41  64 100 141 182 210 264 346 416
#     4  11  19  33  61  90 130 164 210 264 322 391
#     4  10  21  35  55  84 127 173 216 261 308 381
#     4  12  22  39  61  95 135 173 215 269 336 397
#
# _framework density 20.132114000000001
#
# number of rings (size 3 to 8) (size 9 to 14) (size 15 to 20)
#    0.000    0.615    6.154    3.231    3.231    0.000 
#    0.000    0.000    0.000    0.923    4.000    0.000 
#    0.000    0.000    0.000    0.000    0.000    0.000 
#
# Total GULP energy -145019.366638 kJ/mol
# GULP energy per Si atom -5577.667948 kJ/mol
# Density = 2.008629 g / cm^3
# Si number density = 20.132114 Si / 1000 Ang^3
#
#
#
# Elastic Constant Matrix: (Units=GPa)
#
#
# Indices 1 2 3 4 5 6 
#
# 1 93.8186 14.2789 5.3710 -0.0002 2.0364 0.0002
# 2 14.2789 63.2869 28.7386 -0.0001 -3.1882 0.0001
# 3 5.3710 28.7386 115.6366 -0.0003 -18.1742 0.0002
# 4 -0.0002 -0.0001 -0.0003 22.3767 0.0002 7.8372
# 5 2.0364 -3.1882 -18.1742 0.0002 36.5070 -0.0002
# 6 0.0002 0.0001 0.0002 7.8372 -0.0002 21.9795
#
#
#
# Elastic Compliance Matrix: (Units=1/GPa)
#
#
# Indices 1 2 3 4 5 6 
#
# 1 0.011063 -0.002531 -0.000018 0.000000 -0.000847 0.000000
# 2 -0.002531 0.018407 -0.004537 0.000000 -0.000510 0.000000
# 3 -0.000018 -0.004537 0.010539 0.000000 0.004851 0.000000
# 4 0.000000 0.000000 0.000000 0.051067 0.000000 -0.018209
# 5 -0.000847 -0.000510 0.004851 0.000000 0.029810 0.000000
# 6 0.000000 0.000000 0.000000 -0.018209 0.000000 0.051990
#
#
# Mechanical properties :
#
#
# Convention : Reuss Voigt Hill
#
# Bulk Modulus (GPa) = 38.70411 41.05769 39.88090
# Shear Modulus (GPa) = 25.55464 31.12954 28.34209
#
# Velocity S-wave (km/s) = 3.56665 3.93652 3.75614
# Velocity P-wave (km/s) = 6.01898 6.41093 6.21804
#
# Compressibility (1/GPa) = 0.02583705
#
# Stress axis : x y z
#
# Youngs Moduli (GPa) = 90.38780 54.32822 94.88867
#
# Poissons Ratio (x) = 0.13748 0.00172
# Poissons Ratio (y) = 0.22874 0.43052
# Poissons Ratio (z) = 0.00163 0.24650
#
# Static dielectric constant tensor:
#      x y z
#    x 1.791910 0.000000 0.032770 
#    y 0.000000 1.708020 0.000000 
#    z 0.032770 0.000000 1.788070 
# 
# From -- ./inp_files/168974.got.cif
#   From: 2010.05.17/outbox.cif.g08.bks.cpg/sg15_85_cif.got.tgz:168974.got - 2010.06.03 18:47:42.
