data_PCOD9279770
_publ_section_title
;
Structure prediction by ZEFSAII (Michael W. Deem and Ramdas Pophale) SiO2 
 PCOD9279770
Probable space group: C 2/C
;
_chemical_formula_sum "Si O2"
_cell_formula_units_Z 48
_cell_length_a 29.540889
_cell_length_b 7.574531
_cell_length_c 9.440963
_cell_angle_alpha 90.000000
_cell_angle_beta 82.475220
_cell_angle_gamma 90.000000
_cell_volume 2094.302448
_symmetry_space_group_name_H-M "C 2/C"
_symmetry_group_IT_number 15
_symmetry_cell_setting 'monoclinic'
loop_
_space_group_symop_operation_xyz
x,y,z
-x,y,1/2-z
-x,-y,-z
x,-y,1/2+z
1/2+x,1/2+y,z
1/2-x,1/2+y,1/2-z
1/2-x,1/2-y,-z
1/2+x,1/2-y,1/2+z
loop_
_atom_site_type_symbol
_atom_site_label
_atom_site_fract_x
_atom_site_fract_y
_atom_site_fract_z
Si Si1 0.971976 0.877540 0.903339
Si Si2 0.864627 0.463092 0.863746
Si Si3 0.267648 0.876728 0.795271
Si Si4 0.380840 0.424908 0.339916
Si Si5 0.716523 0.494581 0.571581
Si Si6 0.094703 0.328681 0.907943
O O1 0.000000 0.836197 0.750000
O O2 0.926516 0.982152 0.871813
O O3 0.953435 0.711623 0.000617
O O4 0.000000 0.000000 0.000000
O O5 0.815769 0.471442 0.807074
O O6 0.870421 0.262580 0.922592
O O7 0.902595 0.466390 0.723521
O O8 0.872688 0.599725 0.983454
O O9 0.273819 0.683039 0.856317
O O10 0.251844 0.871898 0.640375
O O11 0.228883 0.971489 0.904718
O O12 0.336223 0.543380 0.377081
O O13 0.387777 0.350357 0.176979
#
# Coordination Sequence:
#
# PCOD9279770 Si02
#       6
#     8   8   8   8   8   8
#     4  12  24  45  69  94 127 158 206 269 328 388
#     4   9  20  42  63  91 130 170 215 252 311 369
#     4  10  21  36  58  89 128 169 208 257 290 362
#     4   9  23  41  63  91 129 161 214 255 318 381
#     4  10  22  36  56  90 126 166 211 253 303 355
#     4  10  22  42  66  92 123 170 205 261 316 374
#
# _framework density 22.919326999999999
#
# number of rings (size 3 to 8) (size 9 to 14) (size 15 to 20)
#    1.000    1.000    1.667    1.000    2.333    3.333 
#    0.000    4.167    0.000    0.000    0.000    0.000 
#    0.000    0.000    0.000    0.000    0.000    0.000 
#
# Total GULP energy -133970.213451 kJ/mol
# GULP energy per Si atom -5582.092227 kJ/mol
# Density = 2.286716 g / cm^3
# Si number density = 22.919327 Si / 1000 Ang^3
#
#
#
# Elastic Constant Matrix: (Units=GPa)
#
#
# Indices 1 2 3 4 5 6 
#
# 1 95.7048 8.6537 14.2360 0.0000 -1.3712 0.0000
# 2 8.6537 37.0156 15.1015 0.0000 9.5522 0.0000
# 3 14.2360 15.1015 105.4337 0.0000 -6.6624 0.0000
# 4 0.0000 0.0000 0.0000 16.5636 0.0000 7.1964
# 5 -1.3712 9.5522 -6.6624 0.0000 36.7980 0.0000
# 6 0.0000 0.0000 0.0000 7.1964 0.0000 24.0996
#
#
#
# Elastic Compliance Matrix: (Units=1/GPa)
#
#
# Indices 1 2 3 4 5 6 
#
# 1 0.010829 -0.002298 -0.001082 0.000000 0.000804 0.000000
# 2 -0.002298 0.031916 -0.004846 0.000000 -0.009248 0.000000
# 3 -0.001082 -0.004846 0.010522 0.000000 0.003123 0.000000
# 4 0.000000 0.000000 0.000000 0.069374 0.000000 -0.020716
# 5 0.000804 -0.009248 0.003123 0.000000 0.030171 0.000000
# 6 0.000000 0.000000 0.000000 -0.020716 0.000000 0.047680
#
#
# Mechanical properties :
#
#
# Convention : Reuss Voigt Hill
#
# Bulk Modulus (GPa) = 27.16179 34.90405 31.03292
# Shear Modulus (GPa) = 21.81352 28.83643 25.32498
#
# Velocity S-wave (km/s) = 3.08840 3.55092 3.32770
# Velocity P-wave (km/s) = 4.95927 5.66341 5.32299
#
# Compressibility (1/GPa) = 0.03681643
#
# Stress axis : x y z
#
# Youngs Moduli (GPa) = 92.34414 31.33211 95.03791
#
# Poissons Ratio (x) = 0.07199 0.10286
# Poissons Ratio (y) = 0.21217 0.46051
# Poissons Ratio (z) = 0.09994 0.15182
#
# Static dielectric constant tensor:
#      x y z
#    x 1.856740 0.000000 -0.029810 
#    y 0.000000 1.917820 0.000000 
#    z -0.029810 0.000000 1.847170 
# 
# From -- ./inp_files/68563.got.cif
#   From: 2010.05.17/outbox.cif.g08.bks.cpg/sg15_35_cif.got.tgz:68563.got - 2010.06.03 18:47:42.
