data_PCOD9279819
_publ_section_title
;
Structure prediction by ZEFSAII (Michael W. Deem and Ramdas Pophale) SiO2 
 PCOD9279819
Probable space group: C 2/C
;
_chemical_formula_sum "Si O2"
_cell_formula_units_Z 52
_cell_length_a 22.113419
_cell_length_b 26.134123
_cell_length_c 5.155103
_cell_angle_alpha 90.000000
_cell_angle_beta 123.900211
_cell_angle_gamma 90.000000
_cell_volume 2472.775097
_symmetry_space_group_name_H-M "C 2/C"
_symmetry_group_IT_number 15
_symmetry_cell_setting 'monoclinic'
loop_
_space_group_symop_operation_xyz
x,y,z
-x,y,1/2-z
-x,-y,-z
x,-y,1/2+z
1/2+x,1/2+y,z
1/2-x,1/2+y,1/2-z
1/2-x,1/2-y,-z
1/2+x,1/2-y,1/2+z
loop_
_atom_site_type_symbol
_atom_site_label
_atom_site_fract_x
_atom_site_fract_y
_atom_site_fract_z
Si Si1 0.500000 0.463427 0.250000
Si Si2 0.259511 0.116538 0.486728
Si Si3 0.000000 0.645142 0.750000
Si Si4 0.655601 0.464038 0.509730
Si Si5 0.716864 0.290164 0.125012
Si Si6 0.347705 0.804686 0.845624
Si Si7 0.845078 0.532465 0.990287
Si Si8 0.500000 0.922530 0.750000
O O1 0.500000 0.500000 0.500000
O O2 0.577970 0.437239 0.394294
O O3 0.218188 0.077114 0.203899
O O4 0.199978 0.155567 0.460543
O O5 0.316385 0.154183 0.479075
O O6 0.300565 0.082690 0.800755
O O7 0.929279 0.676855 0.487365
O O8 0.021102 0.610896 0.551985
O O9 0.659974 0.490699 0.238384
O O10 0.652120 0.255645 0.080538
O O11 0.783471 0.303405 0.477962
O O12 0.750000 0.250000 0.000000
O O13 0.829668 0.489912 0.734831
O O14 0.930276 0.545250 0.169091
#
# Coordination Sequence:
#
# PCOD9279819 Si02
#       8
#     4   8   4   8   8   8   8   4
#     4   8  16  34  56  78 112 150 192 236 290 352
#     4  11  22  37  62  88 125 161 207 260 313 374
#     4  12  24  41  72  95 124 174 219 267 324 398
#     4  10  21  36  59  90 121 161 202 247 298 368
#     4   9  21  41  65  90 117 158 204 268 322 381
#     4  10  22  41  66  92 121 161 214 262 323 382
#     4  12  25  39  58  89 132 173 220 262 305 365
#     4  12  24  43  60  89 130 182 219 263 320 362
#
# _framework density 21.029005000000002
#
# number of rings (size 3 to 8) (size 9 to 14) (size 15 to 20)
#    0.000    1.538    1.538    3.231    6.462    0.000 
#    0.000    0.000   10.154    0.000    0.000    0.000 
#    0.000    0.000    0.000    0.000    0.000    0.000 
#
# Total GULP energy -145071.561433 kJ/mol
# GULP energy per Si atom -5579.675440 kJ/mol
# Density = 2.098114 g / cm^3
# Si number density = 21.029005 Si / 1000 Ang^3
#
#
#
# Elastic Constant Matrix: (Units=GPa)
#
#
# Indices 1 2 3 4 5 6 
#
# 1 60.0496 28.3174 13.2642 0.0000 8.8952 0.0000
# 2 28.3174 104.0811 27.3484 0.0000 7.3689 0.0000
# 3 13.2642 27.3484 64.6879 0.0000 -6.7590 0.0000
# 4 0.0000 0.0000 0.0000 12.8233 0.0000 -11.8116
# 5 8.8952 7.3689 -6.7590 0.0000 41.7608 0.0000
# 6 0.0000 0.0000 0.0000 -11.8116 0.0000 8.0274
#
#
#
# Elastic Compliance Matrix: (Units=1/GPa)
#
#
# Indices 1 2 3 4 5 6 
#
# 1 0.019903 -0.004457 -0.002602 0.000000 -0.003874 0.000000
# 2 -0.004457 0.012113 -0.004406 0.000000 -0.001901 0.000000
# 3 -0.002602 -0.004406 0.018304 0.000000 0.004294 0.000000
# 4 0.000000 0.000000 0.000000 -0.219466 0.000000 -0.322925
# 5 -0.003874 -0.001901 0.004294 0.000000 0.025802 0.000000
# 6 0.000000 0.000000 0.000000 -0.322925 0.000000 -0.350584
#
#
# Mechanical properties :
#
#
# Convention : Reuss Voigt Hill
#
# Bulk Modulus (GPa) = 36.50861 40.74205 38.62533
# Shear Modulus (GPa) = -10.82556 23.18153 6.17799
#
# Velocity S-wave (km/s) = -2.27136 3.32378 1.71587
# Velocity P-wave (km/s) = 3.24345 5.84349 4.72580
#
# Compressibility (1/GPa) = 0.02739080
#
# Stress axis : x y z
#
# Youngs Moduli (GPa) = 50.24292 82.55724 54.63419
#
# Poissons Ratio (x) = 0.36798 0.14213
# Poissons Ratio (y) = 0.22394 0.24070
# Poissons Ratio (z) = 0.13071 0.36372
#
# Static dielectric constant tensor:
#      x y z
#    x 1.833250 0.000000 0.011070 
#    y 0.000000 1.778750 0.000000 
#    z 0.011070 0.000000 1.843560 
# 
# From -- ./inp_files/13423.got.cif
#   From: 2010.05.17/outbox.cif.g08.bks.cpg/sg15_7_cif.got.tgz:13423.got - 2010.06.03 18:47:42.
