data_PCOD9279887
_publ_section_title
;
Structure prediction by ZEFSAII (Michael W. Deem and Ramdas Pophale) SiO2 
 PCOD9279887
Probable space group: C 2/C
;
_chemical_formula_sum "Si O2"
_cell_formula_units_Z 56
_cell_length_a 24.822151
_cell_length_b 18.612003
_cell_length_c 17.154749
_cell_angle_alpha 90.000000
_cell_angle_beta 19.923800
_cell_angle_gamma 90.000000
_cell_volume 2700.712683
_symmetry_space_group_name_H-M "C 2/C"
_symmetry_group_IT_number 15
_symmetry_cell_setting 'monoclinic'
loop_
_space_group_symop_operation_xyz
x,y,z
-x,y,1/2-z
-x,-y,-z
x,-y,1/2+z
1/2+x,1/2+y,z
1/2-x,1/2+y,1/2-z
1/2-x,1/2-y,-z
1/2+x,1/2-y,1/2+z
loop_
_atom_site_type_symbol
_atom_site_label
_atom_site_fract_x
_atom_site_fract_y
_atom_site_fract_z
Si Si1 0.379062 0.550113 0.083731
Si Si2 0.563200 0.812146 0.810288
Si Si3 0.123316 0.340644 0.907219
Si Si4 0.227276 0.671551 0.570950
Si Si5 0.101962 0.152239 0.690565
Si Si6 0.726530 0.692877 0.809525
Si Si7 0.460317 0.592424 0.143528
O O1 0.219631 0.586066 0.269827
O O2 0.378173 0.561733 0.177898
O O3 0.526516 0.596761 0.852696
O O4 0.413175 0.469878 0.009037
O O5 0.592902 0.810759 0.862286
O O6 0.710114 0.857139 0.576732
O O7 0.576223 0.733434 0.755194
O O8 0.380639 0.835909 0.054381
O O9 0.229094 0.279385 0.803666
O O10 0.958474 0.346720 0.176195
O O11 0.250000 0.750000 0.500000
O O12 0.275737 0.673057 0.596091
O O13 0.332660 0.614248 0.381349
O O14 0.000000 0.144390 0.750000
O O15 0.567296 0.663352 0.987076
#
# Coordination Sequence:
#
# PCOD9279887 Si02
#       7
#     8   8   8   8   8   8   8
#     4  11  24  43  63  84 126 175 207 259 319 384
#     4  10  21  36  60  97 120 156 213 260 308 362
#     4  11  21  40  66  93 126 167 209 259 323 371
#     4  11  23  38  66  99 124 161 212 265 317 378
#     4  11  20  36  63  90 121 164 208 259 310 366
#     4  11  21  38  64  94 128 158 206 268 312 372
#     4  11  25  43  60  91 127 166 210 258 322 376
#
# _framework density 20.735265999999999
#
# number of rings (size 3 to 8) (size 9 to 14) (size 15 to 20)
#    0.000    1.143    4.286    2.143    0.000    4.000 
#    2.571    1.429    0.000    0.000    0.000    0.000 
#    0.000    0.000    0.000    0.000    0.000    0.000 
#
# Total GULP energy -156359.652641 kJ/mol
# GULP energy per Si atom -5584.273309 kJ/mol
# Density = 2.068807 g / cm^3
# Si number density = 20.735266 Si / 1000 Ang^3
#
#
#
# Elastic Constant Matrix: (Units=GPa)
#
#
# Indices 1 2 3 4 5 6 
#
# 1 28.9496 -5.5089 1.0365 0.0000 3.9301 0.0002
# 2 -5.5089 53.4681 9.0891 -0.0009 6.5001 0.0004
# 3 1.0365 9.0891 144.4240 0.0001 6.4292 0.0000
# 4 0.0000 -0.0009 0.0001 27.7067 -0.0003 2.4778
# 5 3.9301 6.5001 6.4292 -0.0003 24.3733 0.0000
# 6 0.0002 0.0004 0.0000 2.4778 0.0000 18.8745
#
#
#
# Elastic Compliance Matrix: (Units=1/GPa)
#
#
# Indices 1 2 3 4 5 6 
#
# 1 0.036392 0.004647 -0.000240 0.000000 -0.007044 0.000000
# 2 0.004647 0.020066 -0.001037 0.000001 -0.005827 -0.000001
# 3 -0.000240 -0.001037 0.007060 0.000000 -0.001547 0.000000
# 4 0.000000 0.000001 0.000000 0.036521 0.000000 -0.004794
# 5 -0.007044 -0.005827 -0.001547 0.000000 0.044127 0.000000
# 6 0.000000 -0.000001 0.000000 -0.004794 0.000000 0.053611
#
#
# Mechanical properties :
#
#
# Convention : Reuss Voigt Hill
#
# Bulk Modulus (GPa) = 14.23334 26.23057 20.23195
# Shear Modulus (GPa) = 23.31480 29.00589 26.16034
#
# Velocity S-wave (km/s) = 3.35685 3.74420 3.55580
# Velocity P-wave (km/s) = 4.68015 5.60087 5.16108
#
# Compressibility (1/GPa) = 0.07025759
#
# Stress axis : x y z
#
# Youngs Moduli (GPa) = 27.47864 49.83513 141.64514
#
# Poissons Ratio (x) = -0.23157 0.03400
# Poissons Ratio (y) = -0.12768 0.14685
# Poissons Ratio (z) = 0.00660 0.05167
#
# Static dielectric constant tensor:
#      x y z
#    x 1.761380 0.000000 -0.023230 
#    y 0.000000 1.722630 0.000000 
#    z -0.023230 0.000000 1.759520 
# 
# From -- ./inp_files/222934.got.cif
#   From: 2010.05.17/outbox.cif.g08.bks.cpg/sg15_112_cif.got.tgz:222934.got - 2010.06.03 18:47:42.
