data_PCOD9279950
_publ_section_title
;
Structure prediction by ZEFSAII (Michael W. Deem and Ramdas Pophale) SiO2 
 PCOD9279950
Probable space group: C 2/C
;
_chemical_formula_sum "Si O2"
_cell_formula_units_Z 60
_cell_length_a 11.430898
_cell_length_b 28.270859
_cell_length_c 9.097292
_cell_angle_alpha 90.000000
_cell_angle_beta 112.238982
_cell_angle_gamma 90.000000
_cell_volume 2721.203843
_symmetry_space_group_name_H-M "C 2/C"
_symmetry_group_IT_number 15
_symmetry_cell_setting 'monoclinic'
loop_
_space_group_symop_operation_xyz
x,y,z
-x,y,1/2-z
-x,-y,-z
x,-y,1/2+z
1/2+x,1/2+y,z
1/2-x,1/2+y,1/2-z
1/2-x,1/2-y,-z
1/2+x,1/2-y,1/2+z
loop_
_atom_site_type_symbol
_atom_site_label
_atom_site_fract_x
_atom_site_fract_y
_atom_site_fract_z
Si Si1 0.845409 0.737716 0.685323
Si Si2 0.504540 0.109741 0.585384
Si Si3 0.363407 0.120706 0.247767
Si Si4 0.286794 0.297258 0.932424
Si Si5 0.500000 0.019105 0.750000
Si Si6 0.132235 0.048371 0.729679
Si Si7 0.739833 0.530948 0.088630
Si Si8 0.271350 0.648699 0.698626
O O1 0.750000 0.750000 0.500000
O O2 0.847702 0.779813 0.809533
O O3 0.771194 0.692551 0.720805
O O4 0.000000 0.728444 0.750000
O O5 0.500000 0.127364 0.750000
O O6 0.386984 0.124034 0.432740
O O7 0.500715 0.053692 0.609041
O O8 0.635625 0.127564 0.582246
O O9 0.500000 0.104684 0.250000
O O10 0.332540 0.172533 0.176535
O O11 0.250554 0.084081 0.158003
O O12 0.250000 0.250000 0.000000
O O13 0.344531 0.330794 0.089733
O O14 0.625321 0.990098 0.809540
O O15 0.165074 0.102357 0.698161
O O16 0.000000 0.049501 0.750000
O O17 0.144962 0.007397 0.614645
O O18 0.223759 0.034266 0.907309
#
# Coordination Sequence:
#
# PCOD9279950 Si02
#       8
#     8   8   8   8   4   8   8   8
#     4  11  28  49  75 107 142 182 238 308 384 450
#     4  10  21  36  62 104 142 176 222 291 361 416
#     4  12  22  38  71 104 137 183 238 299 361 437
#     4  10  24  44  68 102 139 184 235 296 366 442
#     4  10  22  36  66 104 148 176 230 298 358 408
#     4  12  26  46  67  99 145 196 244 287 348 434
#     4  12  24  42  67 103 143 189 238 291 362 421
#     4  11  22  46  71 100 136 188 239 295 358 430
#
# _framework density 22.049064000000001
#
# number of rings (size 3 to 8) (size 9 to 14) (size 15 to 20)
#    0.400    0.533    4.667    1.600    3.733    2.133 
#    0.000    3.333    0.000    0.000    0.000    0.000 
#    0.000    0.000    0.000    0.000    0.000    0.000 
#
# Total GULP energy -167062.193088 kJ/mol
# GULP energy per Si atom -5568.739770 kJ/mol
# Density = 2.199888 g / cm^3
# Si number density = 22.049064 Si / 1000 Ang^3
#
#
#
# Elastic Constant Matrix: (Units=GPa)
#
#
# Indices 1 2 3 4 5 6 
#
# 1 83.1388 38.2713 11.3165 0.0000 -8.7386 0.0000
# 2 38.2713 136.7480 38.0273 0.0000 -7.5094 0.0000
# 3 11.3165 38.0273 102.2810 0.0000 -6.9966 0.0000
# 4 0.0000 0.0000 0.0000 40.2623 0.0000 -12.5182
# 5 -8.7386 -7.5094 -6.9966 0.0000 26.0947 0.0000
# 6 0.0000 0.0000 0.0000 -12.5182 0.0000 35.3648
#
#
#
# Elastic Compliance Matrix: (Units=1/GPa)
#
#
# Indices 1 2 3 4 5 6 
#
# 1 0.014142 -0.003782 0.000093 0.000000 0.003672 0.000000
# 2 -0.003782 0.009230 -0.002973 0.000000 0.000593 0.000000
# 3 0.000093 -0.002973 0.011018 0.000000 0.002130 0.000000
# 4 0.000000 0.000000 0.000000 0.027909 0.000000 0.009879
# 5 0.003672 0.000593 0.002130 0.000000 0.040293 0.000000
# 6 0.000000 0.000000 0.000000 0.009879 0.000000 0.031774
#
#
# Mechanical properties :
#
#
# Convention : Reuss Voigt Hill
#
# Bulk Modulus (GPa) = 47.46974 55.26644 51.36809
# Shear Modulus (GPa) = 32.31795 35.98120 34.14958
#
# Velocity S-wave (km/s) = 3.83264 4.04402 3.93975
# Velocity P-wave (km/s) = 6.41571 6.85019 6.63651
#
# Compressibility (1/GPa) = 0.02106605
#
# Stress axis : x y z
#
# Youngs Moduli (GPa) = 70.70886 108.33712 90.76315
#
# Poissons Ratio (x) = 0.40974 -0.00841
# Poissons Ratio (y) = 0.26743 0.26982
# Poissons Ratio (z) = -0.00655 0.32207
#
# Static dielectric constant tensor:
#      x y z
#    x 1.831550 0.000000 -0.069510 
#    y 0.000000 1.860880 0.000000 
#    z -0.069510 0.000000 1.745400 
# 
# From -- ./inp_files/35713.got.cif
#   From: 2010.05.17/outbox.cif.g08.bks.cpg/sg15_18_cif.got.tgz:35713.got - 2010.06.03 18:47:42.
