data_PCOD9279820
_publ_section_title
;
Structure prediction by ZEFSAII (Michael W. Deem and Ramdas Pophale) SiO2 
 PCOD9279820
Probable space group: C 2/C
;
_chemical_formula_sum "Si O2"
_cell_formula_units_Z 48
_cell_length_a 13.513118
_cell_length_b 6.618793
_cell_length_c 21.697352
_cell_angle_alpha 90.000000
_cell_angle_beta 94.736462
_cell_angle_gamma 90.000000
_cell_volume 1933.995533
_symmetry_space_group_name_H-M "C 2/C"
_symmetry_group_IT_number 15
_symmetry_cell_setting 'monoclinic'
loop_
_space_group_symop_operation_xyz
x,y,z
-x,y,1/2-z
-x,-y,-z
x,-y,1/2+z
1/2+x,1/2+y,z
1/2-x,1/2+y,1/2-z
1/2-x,1/2-y,-z
1/2+x,1/2-y,1/2+z
loop_
_atom_site_type_symbol
_atom_site_label
_atom_site_fract_x
_atom_site_fract_y
_atom_site_fract_z
Si Si1 0.604645 0.081024 0.484549
Si Si2 0.794324 0.648471 0.196616
Si Si3 0.675628 0.984428 0.663936
Si Si4 0.232177 0.322151 0.408872
Si Si5 0.475512 0.714178 0.639055
Si Si6 0.573249 0.559179 0.059675
O O1 0.665952 0.891110 0.462685
O O2 0.589344 0.214426 0.422926
O O3 0.626999 0.232707 0.541902
O O4 0.500000 0.000000 0.500000
O O5 0.788652 0.595056 0.267582
O O6 0.799428 0.451812 0.153144
O O7 0.897549 0.770491 0.190539
O O8 0.698324 0.778321 0.171500
O O9 0.749026 0.901810 0.614209
O O10 0.566508 0.878855 0.650155
O O11 0.340037 0.399407 0.432402
O O12 0.514758 0.492002 0.620352
O O13 0.500000 0.500000 0.000000
#
# Coordination Sequence:
#
# PCOD9279820 Si02
#       6
#     8   8   8   8   8   8
#     4  10  21  36  59  90 122 158 206 252 305 378
#     4  11  22  40  66  88 126 162 206 265 317 375
#     4  11  22  41  64  92 121 165 210 256 324 376
#     4  10  22  40  61  90 125 163 206 259 312 374
#     4   9  22  40  60  89 125 159 202 265 307 373
#     4   9  19  39  58  85 122 161 203 249 313 362
#
# _framework density 24.819084
#
# number of rings (size 3 to 8) (size 9 to 14) (size 15 to 20)
#    0.000    2.000    1.667    1.000    4.667    0.000 
#    0.000    2.500    0.000    0.000    0.000    0.000 
#    0.000    0.000    0.000    0.000    0.000    0.000 
#
# Total GULP energy -133932.357629 kJ/mol
# GULP energy per Si atom -5580.514901 kJ/mol
# Density = 2.476260 g / cm^3
# Si number density = 24.819084 Si / 1000 Ang^3
#
#
#
# Elastic Constant Matrix: (Units=GPa)
#
#
# Indices 1 2 3 4 5 6 
#
# 1 77.4897 -3.2266 21.0712 0.0000 -9.3543 0.0000
# 2 -3.2266 63.4571 15.2344 0.0000 -9.3322 0.0000
# 3 21.0712 15.2344 64.3278 0.0000 -9.9185 0.0000
# 4 0.0000 0.0000 0.0000 37.4911 0.0000 3.4400
# 5 -9.3543 -9.3322 -9.9185 0.0000 41.2939 0.0000
# 6 0.0000 0.0000 0.0000 3.4400 0.0000 35.4921
#
#
#
# Elastic Compliance Matrix: (Units=1/GPa)
#
#
# Indices 1 2 3 4 5 6 
#
# 1 0.014667 0.002324 -0.004945 0.000000 0.002660 0.000000
# 2 0.002324 0.017426 -0.004361 0.000000 0.003417 0.000000
# 3 -0.004945 -0.004361 0.018561 0.000000 0.002352 0.000000
# 4 0.000000 0.000000 0.000000 0.026912 0.000000 -0.002608
# 5 0.002660 0.003417 0.002352 0.000000 0.026157 0.000000
# 6 0.000000 0.000000 0.000000 -0.002608 0.000000 0.028428
#
#
# Mechanical properties :
#
#
# Convention : Reuss Voigt Hill
#
# Bulk Modulus (GPa) = 27.25501 30.15918 28.70709
# Shear Modulus (GPa) = 31.57648 34.33513 32.95580
#
# Velocity S-wave (km/s) = 3.57075 3.72347 3.64791
# Velocity P-wave (km/s) = 5.29204 5.53747 5.41615
#
# Compressibility (1/GPa) = 0.03669051
#
# Stress axis : x y z
#
# Youngs Moduli (GPa) = 68.17830 57.38403 53.87738
#
# Poissons Ratio (x) = -0.13337 0.26641
# Poissons Ratio (y) = -0.15845 0.23498
# Poissons Ratio (z) = 0.33712 0.25028
#
# Static dielectric constant tensor:
#      x y z
#    x 2.085920 0.000000 -0.081730 
#    y 0.000000 1.113230 0.000000 
#    z -0.081730 0.000000 2.070870 
# 
# From -- ./inp_files/241998.got.cif
#   From: 2010.05.17/outbox.cif.g08.bks.cpg/sg15_121_cif.got.tgz:241998.got - 2010.06.03 18:47:42.
