data_PCOD9279545
_publ_section_title
;
Structure prediction by ZEFSAII (Michael W. Deem and Ramdas Pophale) SiO2 
 PCOD9279545
Probable space group: C 2/C
;
_chemical_formula_sum "Si O2"
_cell_formula_units_Z 40
_cell_length_a 21.616086
_cell_length_b 9.672272
_cell_length_c 8.880722
_cell_angle_alpha 90.000000
_cell_angle_beta 57.849715
_cell_angle_gamma 90.000000
_cell_volume 1572.028538
_symmetry_space_group_name_H-M "C 2/C"
_symmetry_group_IT_number 15
_symmetry_cell_setting 'monoclinic'
loop_
_space_group_symop_operation_xyz
x,y,z
-x,y,1/2-z
-x,-y,-z
x,-y,1/2+z
1/2+x,1/2+y,z
1/2-x,1/2+y,1/2-z
1/2-x,1/2-y,-z
1/2+x,1/2-y,1/2+z
loop_
_atom_site_type_symbol
_atom_site_label
_atom_site_fract_x
_atom_site_fract_y
_atom_site_fract_z
Si Si1 0.113971 0.891624 0.606451
Si Si2 0.158263 0.134287 0.374864
Si Si3 0.955852 0.335636 0.494692
Si Si4 0.401248 0.991185 0.294072
Si Si5 0.265802 0.902574 0.284112
O O1 0.108759 0.868440 0.790131
O O2 0.061561 0.809551 0.560525
O O3 0.195109 0.835897 0.457041
O O4 0.117288 0.053572 0.561059
O O5 0.191675 0.284389 0.362585
O O6 0.226192 0.029692 0.252416
O O7 0.908363 0.447515 0.457594
O O8 0.929846 0.360689 0.698441
O O9 0.037559 0.388843 0.359684
O O10 0.322257 0.961367 0.331951
#
# Coordination Sequence:
#
# PCOD9279545 Si02
#       5
#     8   8   8   8   8
#     4  10  22  39  59  87 125 157 203 243 306 356
#     4  10  22  36  60  88 124 163 197 248 306 352
#     4  10  21  41  58  92 118 161 199 255 295 365
#     4  10  21  35  67  84 121 156 203 242 311 346
#     4  10  21  36  61  89 117 158 201 250 295 365
#
# _framework density 25.444832000000002
#
# number of rings (size 3 to 8) (size 9 to 14) (size 15 to 20)
#    1.200    0.800    2.000    1.800    2.800    0.800 
#    3.600    1.000    0.000    0.000    0.000    0.000 
#    0.000    0.000    0.000    0.000    0.000    0.000 
#
# Total GULP energy -111653.893732 kJ/mol
# GULP energy per Si atom -5582.694687 kJ/mol
# Density = 2.538692 g / cm^3
# Si number density = 25.444832 Si / 1000 Ang^3
#
#
#
# Elastic Constant Matrix: (Units=GPa)
#
#
# Indices 1 2 3 4 5 6 
#
# 1 125.1936 23.1492 -1.1231 0.0000 -5.0975 0.0000
# 2 23.1492 109.8354 -9.5338 0.0000 14.9181 0.0000
# 3 -1.1231 -9.5338 34.4044 0.0000 -2.3663 0.0000
# 4 0.0000 0.0000 0.0000 25.9079 0.0000 -0.0064
# 5 -5.0975 14.9181 -2.3663 0.0000 20.4422 0.0000
# 6 0.0000 0.0000 0.0000 -0.0064 0.0000 49.2600
#
#
#
# Elastic Compliance Matrix: (Units=1/GPa)
#
#
# Indices 1 2 3 4 5 6 
#
# 1 0.008575 -0.002337 -0.000104 0.000000 0.003831 0.000000
# 2 -0.002337 0.010929 0.002383 0.000000 -0.008282 0.000000
# 3 -0.000104 0.002383 0.029839 0.000000 0.001689 0.000000
# 4 0.000000 0.000000 0.000000 0.038598 0.000000 0.000005
# 5 0.003831 -0.008282 0.001689 0.000000 0.056114 0.000000
# 6 0.000000 0.000000 0.000000 0.000005 0.000000 0.020300
#
#
# Mechanical properties :
#
#
# Convention : Reuss Voigt Hill
#
# Bulk Modulus (GPa) = 20.31441 32.71312 26.51376
# Shear Modulus (GPa) = 27.64262 36.25141 31.94702
#
# Velocity S-wave (km/s) = 3.29960 3.77862 3.54720
# Velocity P-wave (km/s) = 4.74526 5.64993 5.21724
#
# Compressibility (1/GPa) = 0.04922615
#
# Stress axis : x y z
#
# Youngs Moduli (GPa) = 116.62128 91.50185 33.51312
#
# Poissons Ratio (x) = 0.21381 0.00349
# Poissons Ratio (y) = 0.27250 -0.07985
# Poissons Ratio (z) = 0.01214 -0.21801
#
# Static dielectric constant tensor:
#      x y z
#    x 1.967320 0.000000 -0.000770 
#    y 0.000000 2.038240 0.000000 
#    z -0.000770 0.000000 2.076070 
# 
# From -- ./inp_files/109540.got.cif
#   From: 2010.05.17/outbox.cif.g08.bks.cpg/sg15_55_cif.got.tgz:109540.got - 2010.06.03 18:47:42.
