data_PCOD9279556
_publ_section_title
;
Structure prediction by ZEFSAII (Michael W. Deem and Ramdas Pophale) SiO2 
 PCOD9279556
Probable space group: C 2/C
;
_chemical_formula_sum "Si O2"
_cell_formula_units_Z 36
_cell_length_a 11.266253
_cell_length_b 29.354885
_cell_length_c 5.184689
_cell_angle_alpha 90.000000
_cell_angle_beta 84.845096
_cell_angle_gamma 90.000000
_cell_volume 1707.742926
_symmetry_space_group_name_H-M "C 2/C"
_symmetry_group_IT_number 15
_symmetry_cell_setting 'monoclinic'
loop_
_space_group_symop_operation_xyz
x,y,z
-x,y,1/2-z
-x,-y,-z
x,-y,1/2+z
1/2+x,1/2+y,z
1/2-x,1/2+y,1/2-z
1/2-x,1/2-y,-z
1/2+x,1/2-y,1/2+z
loop_
_atom_site_type_symbol
_atom_site_label
_atom_site_fract_x
_atom_site_fract_y
_atom_site_fract_z
Si Si1 0.101642 0.305451 0.016344
Si Si2 0.000000 0.532138 0.250000
Si Si3 0.670686 0.721052 0.715216
Si Si4 0.793618 0.604277 0.166359
Si Si5 0.366039 0.618950 0.819680
O O1 0.229995 0.298454 0.114828
O O2 0.000000 0.313298 0.250000
O O3 0.088388 0.256416 0.885041
O O4 0.126559 0.349102 0.833784
O O5 0.886630 0.564365 0.210751
O O6 0.000000 0.500000 0.500000
O O7 0.750000 0.750000 0.500000
O O8 0.618718 0.673696 0.625889
O O9 0.696455 0.602107 0.409581
O O10 0.722117 0.606346 0.905200
O O11 0.500000 0.601307 0.750000
#
# Coordination Sequence:
#
# PCOD9279556 Si02
#       5
#     8   4   8   8   8
#     4  10  23  35  58  88 135 186 237 289 339 401
#     4  12  28  50  82 110 140 170 222 308 382 450
#     4  10  21  36  51  90 135 191 246 280 325 383
#     4  11  25  45  71 104 138 182 232 288 372 428
#     4  11  24  42  70  99 148 195 243 286 337 414
#
# _framework density 21.080456000000002
#
# number of rings (size 3 to 8) (size 9 to 14) (size 15 to 20)
#    0.000    1.333    2.222    2.000   10.889    0.000 
#    0.000    0.000    0.000   13.333    0.000    0.000 
#    0.000    0.000    0.000    0.000    0.000    0.000 
#
# Total GULP energy -100311.588085 kJ/mol
# GULP energy per Si atom -5572.866005 kJ/mol
# Density = 2.103248 g / cm^3
# Si number density = 21.080456 Si / 1000 Ang^3
#
#
#
# Elastic Constant Matrix: (Units=GPa)
#
#
# Indices 1 2 3 4 5 6 
#
# 1 93.1317 39.6046 25.9513 0.0000 -7.9658 0.0000
# 2 39.6046 117.9944 44.8022 0.0000 -8.0672 0.0000
# 3 25.9513 44.8022 120.9024 0.0000 -10.2771 0.0000
# 4 0.0000 0.0000 0.0000 31.5383 0.0000 5.9346
# 5 -7.9658 -8.0672 -10.2771 0.0000 43.3069 0.0000
# 6 0.0000 0.0000 0.0000 5.9346 0.0000 32.0769
#
#
#
# Elastic Compliance Matrix: (Units=1/GPa)
#
#
# Indices 1 2 3 4 5 6 
#
# 1 0.012786 -0.003724 -0.001249 0.000000 0.001362 0.000000
# 2 -0.003724 0.010989 -0.003222 0.000000 0.000597 0.000000
# 3 -0.001249 -0.003222 0.009862 0.000000 0.001510 0.000000
# 4 0.000000 0.000000 0.000000 0.032851 0.000000 -0.006078
# 5 0.001362 0.000597 0.001510 0.000000 0.023811 0.000000
# 6 0.000000 0.000000 0.000000 -0.006078 0.000000 0.032300
#
#
# Mechanical properties :
#
#
# Convention : Reuss Voigt Hill
#
# Bulk Modulus (GPa) = 57.98242 61.41608 59.69925
# Shear Modulus (GPa) = 34.54542 36.16245 35.35394
#
# Velocity S-wave (km/s) = 4.05253 4.14629 4.09968
# Velocity P-wave (km/s) = 7.03295 7.21940 7.12678
#
# Compressibility (1/GPa) = 0.01724661
#
# Stress axis : x y z
#
# Youngs Moduli (GPa) = 78.21276 90.99776 101.40445
#
# Poissons Ratio (x) = 0.33890 0.12661
# Poissons Ratio (y) = 0.29129 0.32673
# Poissons Ratio (z) = 0.09765 0.29320
#
# Static dielectric constant tensor:
#      x y z
#    x 1.798930 0.000000 0.020600 
#    y 0.000000 1.651030 0.000000 
#    z 0.020600 0.000000 1.758450 
# 
# From -- ./inp_files/4840.got.cif
#   From: 2010.05.17/outbox.cif.g08.bks.cpg/sg15_3_cif.got.tgz:4840.got - 2010.06.03 18:47:42.
