data_PCOD9279546
_publ_section_title
;
Structure prediction by ZEFSAII (Michael W. Deem and Ramdas Pophale) SiO2 
 PCOD9279546
Probable space group: C 2/C
;
_chemical_formula_sum "Si O2"
_cell_formula_units_Z 52
_cell_length_a 12.272822
_cell_length_b 12.353618
_cell_length_c 15.721691
_cell_angle_alpha 90.000000
_cell_angle_beta 73.071503
_cell_angle_gamma 90.000000
_cell_volume 2280.339481
_symmetry_space_group_name_H-M "C 2/C"
_symmetry_group_IT_number 15
_symmetry_cell_setting 'monoclinic'
loop_
_space_group_symop_operation_xyz
x,y,z
-x,y,1/2-z
-x,-y,-z
x,-y,1/2+z
1/2+x,1/2+y,z
1/2-x,1/2+y,1/2-z
1/2-x,1/2-y,-z
1/2+x,1/2-y,1/2+z
loop_
_atom_site_type_symbol
_atom_site_label
_atom_site_fract_x
_atom_site_fract_y
_atom_site_fract_z
Si Si1 0.362931 0.899648 0.682106
Si Si2 0.500000 0.324372 0.750000
Si Si3 0.669212 0.631671 0.350439
Si Si4 0.432916 0.670000 0.680397
Si Si5 0.784908 0.376689 0.164793
Si Si6 0.682414 0.316160 0.585579
Si Si7 0.619540 0.450414 0.047436
O O1 0.294734 0.891654 0.786068
O O2 0.449647 0.799454 0.662337
O O3 0.276327 0.860601 0.628849
O O4 0.374839 0.026912 0.661266
O O5 0.417808 0.395098 0.707277
O O6 0.585938 0.261921 0.667448
O O7 0.658101 0.761159 0.361960
O O8 0.653981 0.579381 0.444640
O O9 0.500000 0.641616 0.750000
O O10 0.302596 0.639681 0.734704
O O11 0.497280 0.603841 0.593643
O O12 0.708176 0.404422 0.098845
O O13 0.750000 0.250000 0.500000
O O14 0.622907 0.421005 0.558709
#
# Coordination Sequence:
#
# PCOD9279546 Si02
#       7
#     8   4   8   8   8   8   8
#     4   9  20  38  58  83 125 161 199 272 321 367
#     4  10  24  40  56  90 136 162 206 266 326 376
#     4  10  21  37  58  88 122 164 213 261 324 391
#     4   9  19  35  61  92 117 161 218 264 313 391
#     4   9  19  39  60  84 123 162 207 268 327 376
#     4  10  23  40  62  94 128 161 209 265 327 385
#     4  10  21  35  67  91 116 162 221 266 315 392
#
# _framework density 22.803622000000001
#
# number of rings (size 3 to 8) (size 9 to 14) (size 15 to 20)
#    0.000    2.462    0.000    0.462    9.692    4.308 
#    1.385    0.769    3.385    0.000    0.000    0.000 
#    0.000    0.000    0.000    0.000    0.000    0.000 
#
# Total GULP energy -145105.492403 kJ/mol
# GULP energy per Si atom -5580.980477 kJ/mol
# Density = 2.275172 g / cm^3
# Si number density = 22.803622 Si / 1000 Ang^3
#
#
#
# Elastic Constant Matrix: (Units=GPa)
#
#
# Indices 1 2 3 4 5 6 
#
# 1 37.1375 20.7236 23.0825 0.0000 4.0350 0.0000
# 2 20.7236 133.9969 48.8643 0.0000 -1.8915 0.0000
# 3 23.0825 48.8643 162.7432 0.0000 -10.3656 0.0000
# 4 0.0000 0.0000 0.0000 26.9769 0.0000 -0.0315
# 5 4.0350 -1.8915 -10.3656 0.0000 28.6156 0.0000
# 6 0.0000 0.0000 0.0000 -0.0315 0.0000 35.6097
#
#
#
# Elastic Compliance Matrix: (Units=1/GPa)
#
#
# Indices 1 2 3 4 5 6 
#
# 1 0.032011 -0.003637 -0.003839 0.000000 -0.006145 0.000000
# 2 -0.003637 0.008798 -0.002104 0.000000 0.000332 0.000000
# 3 -0.003839 -0.002104 0.007520 0.000000 0.003126 0.000000
# 4 0.000000 0.000000 0.000000 0.037069 0.000000 0.000033
# 5 -0.006145 0.000332 0.003126 0.000000 0.036967 0.000000
# 6 0.000000 0.000000 0.000000 0.000033 0.000000 0.028082
#
#
# Mechanical properties :
#
#
# Convention : Reuss Voigt Hill
#
# Bulk Modulus (GPa) = 34.28653 57.69096 45.98875
# Shear Modulus (GPa) = 27.88143 34.32091 31.10117
#
# Velocity S-wave (km/s) = 3.50047 3.88372 3.69707
# Velocity P-wave (km/s) = 5.60410 6.74278 6.19964
#
# Compressibility (1/GPa) = 0.02916597
#
# Stress axis : x y z
#
# Youngs Moduli (GPa) = 31.23954 113.66855 132.97498
#
# Poissons Ratio (x) = 0.41345 0.51055
# Poissons Ratio (y) = 0.11363 0.27984
# Poissons Ratio (z) = 0.11994 0.23921
#
# Static dielectric constant tensor:
#      x y z
#    x 1.925350 0.000000 -0.012410 
#    y 0.000000 1.920600 0.000000 
#    z -0.012410 0.000000 1.848380 
# 
# From -- ./inp_files/152553.got.cif
#   From: 2010.05.17/outbox.cif.g08.bks.cpg/sg15_77_cif.got.tgz:152553.got - 2010.06.03 18:47:42.
