data_PCOD9279205
_publ_section_title
;
Structure prediction by ZEFSAII (Michael W. Deem and Ramdas Pophale) SiO2 
 PCOD9279205
Probable space group: C 2/C
;
_chemical_formula_sum "Si O2"
_cell_formula_units_Z 56
_cell_length_a 21.673956
_cell_length_b 29.341435
_cell_length_c 21.896153
_cell_angle_alpha 90.000000
_cell_angle_beta 167.243973
_cell_angle_gamma 90.000000
_cell_volume 3074.584876
_symmetry_space_group_name_H-M "C 2/C"
_symmetry_group_IT_number 15
_symmetry_cell_setting 'monoclinic'
loop_
_space_group_symop_operation_xyz
x,y,z
-x,y,1/2-z
-x,-y,-z
x,-y,1/2+z
1/2+x,1/2+y,z
1/2-x,1/2+y,1/2-z
1/2-x,1/2-y,-z
1/2+x,1/2-y,1/2+z
loop_
_atom_site_type_symbol
_atom_site_label
_atom_site_fract_x
_atom_site_fract_y
_atom_site_fract_z
Si Si1 0.857190 0.570761 0.875325
Si Si2 0.566823 0.775880 0.640099
Si Si3 0.559889 0.496122 0.238400
Si Si4 0.272301 0.802845 0.478834
Si Si5 0.872745 0.401013 0.559408
Si Si6 0.708084 0.623128 0.144273
Si Si7 0.579072 0.011725 0.675817
O O1 0.597410 0.600788 0.648502
O O2 0.797634 0.548048 0.752637
O O3 0.124733 0.603257 0.136190
O O4 0.955446 0.529163 0.014132
O O5 0.280544 0.764481 0.329507
O O6 0.428685 0.777099 0.575188
O O7 0.737420 0.822775 0.801363
O O8 0.500000 0.509979 0.250000
O O9 0.686927 0.445047 0.366701
O O10 0.804910 0.527296 0.447252
O O11 0.304209 0.496954 0.943923
O O12 0.500000 0.811809 0.750000
O O13 0.196829 0.853958 0.383189
O O14 0.000000 0.783421 0.250000
O O15 0.000000 0.407107 0.750000
O O16 0.121937 0.393884 0.751433
#
# Coordination Sequence:
#
# PCOD9279205 Si02
#       7
#     8   8   8   8   8   8   8
#     4  11  23  40  58  78 105 143 183 230 266 317
#     4  11  23  38  54  76 102 129 171 230 284 341
#     4  12  23  36  53  79 110 147 176 224 281 320
#     4  10  21  35  51  68  94 133 177 224 278 333
#     4  10  22  35  51  73 106 141 182 234 280 328
#     4  11  23  39  58  77 102 140 188 223 287 328
#     4  11  24  39  55  81 110 139 184 227 272 310
#
# _framework density 18.213840999999999
#
# number of rings (size 3 to 8) (size 9 to 14) (size 15 to 20)
#    0.000    1.143    1.429    5.143    2.000   10.857 
#    0.000    0.000    0.000    0.000    0.000    0.000 
#    0.000    0.000    0.000    0.000    0.000  180.000 
#
# Total GULP energy -156307.834684 kJ/mol
# GULP energy per Si atom -5582.422667 kJ/mol
# Density = 1.817239 g / cm^3
# Si number density = 18.213841 Si / 1000 Ang^3
#
#
#
# Elastic Constant Matrix: (Units=GPa)
#
#
# Indices 1 2 3 4 5 6 
#
# 1 81.4566 35.0006 34.3326 0.0020 -3.7369 0.0085
# 2 35.0006 55.9534 29.1387 0.0033 7.3171 0.0082
# 3 34.3326 29.1387 125.5139 -0.0312 0.5972 0.0472
# 4 0.0020 0.0033 -0.0312 28.0692 0.0046 10.4766
# 5 -3.7369 7.3171 0.5972 0.0046 30.8090 0.0033
# 6 0.0085 0.0082 0.0472 10.4766 0.0033 21.1772
#
#
#
# Elastic Compliance Matrix: (Units=1/GPa)
#
#
# Indices 1 2 3 4 5 6 
#
# 1 0.018134 -0.010663 -0.002508 -0.000005 0.004781 0.000004
# 2 -0.010663 0.027315 -0.003388 -0.000007 -0.007715 0.000006
# 3 -0.002508 -0.003388 0.009438 0.000022 0.000318 -0.000030
# 4 -0.000005 -0.000007 0.000022 0.043694 -0.000004 -0.021616
# 5 0.004781 -0.007715 0.000318 -0.000004 0.034864 -0.000003
# 6 0.000004 0.000006 -0.000030 -0.021616 -0.000003 0.057914
#
#
# Mechanical properties :
#
#
# Convention : Reuss Voigt Hill
#
# Bulk Modulus (GPa) = 45.93323 51.09640 48.51481
# Shear Modulus (GPa) = 21.57641 26.97456 24.27548
#
# Velocity S-wave (km/s) = 3.44556 3.85254 3.65472
# Velocity P-wave (km/s) = 6.41114 6.92127 6.67108
#
# Compressibility (1/GPa) = 0.02177073
#
# Stress axis : x y z
#
# Youngs Moduli (GPa) = 55.14373 36.60960 105.95189
#
# Poissons Ratio (x) = 0.39036 0.26570
# Poissons Ratio (y) = 0.58799 0.35896
# Poissons Ratio (z) = 0.13829 0.12403
#
# Static dielectric constant tensor:
#      x y z
#    x 1.699910 0.000000 -0.027100 
#    y 0.000000 1.710540 -0.000020 
#    z -0.027100 -0.000020 1.714200 
# 
# From -- ./inp_files/282717.got.cif
#   From: 2010.05.17/outbox.cif.g08.bks.cpg/sg15_142_cif.got.tgz:282717.got - 2010.06.03 18:47:42.
