data_PCOD9279394
_publ_section_title
;
Structure prediction by ZEFSAII (Michael W. Deem and Ramdas Pophale) SiO2 
 PCOD9279394
Probable space group: C 2/C
;
_chemical_formula_sum "Si O2"
_cell_formula_units_Z 48
_cell_length_a 16.959606
_cell_length_b 7.951450
_cell_length_c 24.979615
_cell_angle_alpha 90.000000
_cell_angle_beta 32.687606
_cell_angle_gamma 90.000000
_cell_volume 1819.233551
_symmetry_space_group_name_H-M "C 2/C"
_symmetry_group_IT_number 15
_symmetry_cell_setting 'monoclinic'
loop_
_space_group_symop_operation_xyz
x,y,z
-x,y,1/2-z
-x,-y,-z
x,-y,1/2+z
1/2+x,1/2+y,z
1/2-x,1/2+y,1/2-z
1/2-x,1/2-y,-z
1/2+x,1/2-y,1/2+z
loop_
_atom_site_type_symbol
_atom_site_label
_atom_site_fract_x
_atom_site_fract_y
_atom_site_fract_z
Si Si1 0.500000 0.910593 0.750000
Si Si2 0.704810 0.068236 0.284321
Si Si3 0.934134 0.211562 0.946837
Si Si4 0.769679 0.152514 0.851650
Si Si5 0.000000 0.088819 0.250000
Si Si6 0.965409 0.737978 0.656536
Si Si7 0.703513 0.982301 0.041173
O O1 0.400609 0.787006 0.769394
O O2 0.382986 0.011355 0.852285
O O3 0.601741 0.231863 0.352057
O O4 0.719837 0.960576 0.330654
O O5 0.864054 0.139313 0.178903
O O6 0.626633 0.935997 0.290641
O O7 0.859848 0.355583 0.953145
O O8 0.862723 0.249939 0.045318
O O9 0.870109 0.036041 0.960131
O O10 0.855075 0.023607 0.842346
O O11 0.967907 0.185337 0.214166
O O12 0.129830 0.673500 0.550714
#
# Coordination Sequence:
#
# PCOD9279394 Si02
#       7
#     4   8   8   8   4   8   8
#     4   9  17  30  58  86 108 152 208 228 286 348
#     4  10  21  35  59  85 121 148 194 251 296 336
#     4   9  18  34  56  84 117 154 195 235 296 348
#     4   9  18  33  58  85 115 155 193 240 288 350
#     4   9  19  38  58  82 120 156 198 244 278 348
#     4  10  21  37  58  86 114 156 196 240 291 342
#     4   9  18  33  55  82 114 153 194 239 276 353
#
# _framework density 26.384737999999999
#
# number of rings (size 3 to 8) (size 9 to 14) (size 15 to 20)
#    0.000    2.667    0.000    1.000    4.667    0.000 
#    3.000    3.333    0.000   12.000    0.000    0.000 
#    0.000    0.000    0.000    0.000    0.000    0.000 
#
# Total GULP energy -133973.187131 kJ/mol
# GULP energy per Si atom -5582.216130 kJ/mol
# Density = 2.632469 g / cm^3
# Si number density = 26.384738 Si / 1000 Ang^3
#
#
#
# Elastic Constant Matrix: (Units=GPa)
#
#
# Indices 1 2 3 4 5 6 
#
# 1 93.9499 35.1959 31.8299 0.0004 -18.9758 -0.0004
# 2 35.1959 72.2976 15.3820 0.0008 -21.1227 -0.0002
# 3 31.8299 15.3820 119.6880 0.0003 -40.4037 -0.0002
# 4 0.0004 0.0008 0.0003 43.8983 -0.0002 -19.5378
# 5 -18.9758 -21.1227 -40.4037 -0.0002 54.0254 0.0002
# 6 -0.0004 -0.0002 -0.0002 -19.5378 0.0002 73.5443
#
#
#
# Elastic Compliance Matrix: (Units=1/GPa)
#
#
# Indices 1 2 3 4 5 6 
#
# 1 0.013949 -0.006068 -0.002778 0.000000 0.000449 0.000000
# 2 -0.006068 0.018256 0.001281 0.000000 0.005964 0.000000
# 3 -0.002778 0.001281 0.011730 0.000000 0.008298 0.000000
# 4 0.000000 0.000000 0.000000 0.025835 0.000000 0.006863
# 5 0.000449 0.005964 0.008298 0.000000 0.027205 0.000000
# 6 0.000000 0.000000 0.000000 0.006863 0.000000 0.015421
#
#
# Mechanical properties :
#
#
# Convention : Reuss Voigt Hill
#
# Bulk Modulus (GPa) = 34.71684 50.08346 42.40015
# Shear Modulus (GPa) = 36.46213 47.86210 42.16211
#
# Velocity S-wave (km/s) = 3.72148 4.26374 4.00180
# Velocity P-wave (km/s) = 5.62604 6.57742 6.12025
#
# Compressibility (1/GPa) = 0.02880446
#
# Stress axis : x y z
#
# Youngs Moduli (GPa) = 71.68801 54.77665 85.24869
#
# Poissons Ratio (x) = 0.33241 0.23683
# Poissons Ratio (y) = 0.43504 -0.10921
# Poissons Ratio (z) = 0.19916 -0.07017
#
# Static dielectric constant tensor:
#      x y z
#    x 2.095330 0.000000 -0.029070 
#    y 0.000000 2.180110 0.000000 
#    z -0.029070 0.000000 2.098190 
# 
# From -- ./inp_files/177031.got.cif
#   From: 2010.05.17/outbox.cif.g08.bks.cpg/sg15_89_cif.got.tgz:177031.got - 2010.06.03 18:47:42.
