data_PCOD9279087
_publ_section_title
;
Structure prediction by ZEFSAII (Michael W. Deem and Ramdas Pophale) SiO2 
 PCOD9279087
Probable space group: C 2/C
;
_chemical_formula_sum "Si O2"
_cell_formula_units_Z 44
_cell_length_a 12.295122
_cell_length_b 22.010266
_cell_length_c 9.793086
_cell_angle_alpha 90.000000
_cell_angle_beta 122.890907
_cell_angle_gamma 90.000000
_cell_volume 2225.384137
_symmetry_space_group_name_H-M "C 2/C"
_symmetry_group_IT_number 15
_symmetry_cell_setting 'monoclinic'
loop_
_space_group_symop_operation_xyz
x,y,z
-x,y,1/2-z
-x,-y,-z
x,-y,1/2+z
1/2+x,1/2+y,z
1/2-x,1/2+y,1/2-z
1/2-x,1/2-y,-z
1/2+x,1/2-y,1/2+z
loop_
_atom_site_type_symbol
_atom_site_label
_atom_site_fract_x
_atom_site_fract_y
_atom_site_fract_z
Si Si1 0.370623 0.958294 0.583844
Si Si2 0.127513 0.122850 0.588816
Si Si3 0.500000 0.408620 0.750000
Si Si4 0.172460 0.669313 0.570954
Si Si5 0.081821 0.209508 0.932728
Si Si6 0.704270 0.512149 0.228022
O O1 0.500000 0.980328 0.750000
O O2 0.393907 0.891767 0.532121
O O3 0.311093 0.999292 0.420582
O O4 0.265575 0.957762 0.634877
O O5 0.101504 0.127754 0.411160
O O6 0.251988 0.154721 0.738550
O O7 0.147726 0.053178 0.645623
O O8 0.001876 0.153935 0.569299
O O9 0.412149 0.449314 0.788865
O O10 0.096051 0.731924 0.537440
O O11 0.282343 0.685300 0.532204
O O12 0.000000 0.234666 0.750000
#
# Coordination Sequence:
#
# PCOD9279087 Si02
#       6
#     8   8   4   8   8   8
#     4  11  22  38  58  87 127 161 202 247 312 378
#     4  10  21  34  56  86 119 155 203 256 303 360
#     4  12  22  36  60  88 126 162 204 252 318 360
#     4   9  19  33  56  84 113 153 204 251 298 354
#     4   9  17  33  57  83 113 149 202 259 297 345
#     4  11  23  37  59  91 125 163 204 250 310 369
#
# _framework density 19.771868000000001
#
# number of rings (size 3 to 8) (size 9 to 14) (size 15 to 20)
#    0.000    1.818    1.818    2.727    6.364    0.000 
#    0.000    0.909    0.000    0.000    0.000    0.000 
#    0.000    0.000    0.000    0.000    0.000    0.000 
#
# Total GULP energy -122655.711744 kJ/mol
# GULP energy per Si atom -5575.259625 kJ/mol
# Density = 1.972687 g / cm^3
# Si number density = 19.771868 Si / 1000 Ang^3
#
#
#
# Elastic Constant Matrix: (Units=GPa)
#
#
# Indices 1 2 3 4 5 6 
#
# 1 34.1242 1.4275 -0.8452 0.0000 -1.1309 0.0000
# 2 1.4275 50.4885 35.4209 0.0000 7.1477 0.0000
# 3 -0.8452 35.4209 137.3904 0.0000 -0.3853 0.0000
# 4 0.0000 0.0000 0.0000 12.4852 0.0000 -2.0454
# 5 -1.1309 7.1477 -0.3853 0.0000 22.6031 0.0000
# 6 0.0000 0.0000 0.0000 -2.0454 0.0000 -0.2059
#
#
#
# Elastic Compliance Matrix: (Units=1/GPa)
#
#
# Indices 1 2 3 4 5 6 
#
# 1 0.029447 -0.001515 0.000577 0.000000 0.001962 0.000000
# 2 -0.001515 0.025697 -0.006658 0.000000 -0.008316 0.000000
# 3 0.000577 -0.006658 0.009005 0.000000 0.002288 0.000000
# 4 0.000000 0.000000 0.000000 0.030486 0.000000 -0.302812
# 5 0.001962 -0.008316 0.002288 0.000000 0.047009 0.000000
# 6 0.000000 0.000000 0.000000 -0.302812 0.000000 -1.848354
#
#
# Mechanical properties :
#
#
# Convention : Reuss Voigt Hill
#
# Bulk Modulus (GPa) = 20.42560 32.66772 26.54666
# Shear Modulus (GPa) = -2.98472 19.37646 8.19587
#
# Velocity S-wave (km/s) = -1.22998 3.13389 2.03819
# Velocity P-wave (km/s) = 2.88720 5.44548 4.35828
#
# Compressibility (1/GPa) = 0.04895817
#
# Stress axis : x y z
#
# Youngs Moduli (GPa) = 33.95877 38.91443 111.05015
#
# Poissons Ratio (x) = 0.05897 -0.06411
# Poissons Ratio (y) = 0.05146 0.73934
# Poissons Ratio (z) = -0.01961 0.25908
#
# Static dielectric constant tensor:
#      x y z
#    x 1.697580 0.000000 0.009240 
#    y 0.000000 1.713410 0.000000 
#    z 0.009240 0.000000 1.755650 
# 
# From -- ./inp_files/32752.got.cif
#   From: 2010.05.17/outbox.cif.g08.bks.cpg/sg15_17_cif.got.tgz:32752.got - 2010.06.03 18:47:42.
