data_PCOD9279180
_publ_section_title
;
Structure prediction by ZEFSAII (Michael W. Deem and Ramdas Pophale) SiO2 
 PCOD9279180
Probable space group: C 2/C
;
_chemical_formula_sum "Si O2"
_cell_formula_units_Z 56
_cell_length_a 21.221838
_cell_length_b 18.627695
_cell_length_c 9.309570
_cell_angle_alpha 90.000000
_cell_angle_beta 127.471209
_cell_angle_gamma 90.000000
_cell_volume 2920.826485
_symmetry_space_group_name_H-M "C 2/C"
_symmetry_group_IT_number 15
_symmetry_cell_setting 'monoclinic'
loop_
_space_group_symop_operation_xyz
x,y,z
-x,y,1/2-z
-x,-y,-z
x,-y,1/2+z
1/2+x,1/2+y,z
1/2-x,1/2+y,1/2-z
1/2-x,1/2-y,-z
1/2+x,1/2-y,1/2+z
loop_
_atom_site_type_symbol
_atom_site_label
_atom_site_fract_x
_atom_site_fract_y
_atom_site_fract_z
Si Si1 0.033831 0.276611 0.647477
Si Si2 0.944031 0.496853 0.285692
Si Si3 0.763837 0.541302 0.006567
Si Si4 0.264143 0.405485 0.356865
Si Si5 0.292542 0.187995 0.147453
Si Si6 0.901761 0.659468 0.771034
Si Si7 0.626870 0.729045 0.513803
O O1 0.117382 0.317647 0.789801
O O2 0.062824 0.225685 0.555420
O O3 0.000000 0.246252 0.750000
O O4 0.965647 0.325266 0.483355
O O5 0.927494 0.413227 0.225191
O O6 0.000000 0.534802 0.250000
O O7 0.000000 0.500000 0.500000
O O8 0.856756 0.528328 0.170792
O O9 0.749006 0.558638 0.818648
O O10 0.723799 0.469787 0.012702
O O11 0.745345 0.614591 0.065864
O O12 0.184232 0.360824 0.284566
O O13 0.334855 0.348065 0.456832
O O14 0.306029 0.217408 0.325846
O O15 0.250000 0.250000 0.000000
O O16 0.901266 0.727748 0.664591
#
# Coordination Sequence:
#
# PCOD9279180 Si02
#       7
#     8   8   8   8   8   8   8
#     4  10  21  34  62  91 123 159 204 250 308 370
#     4  11  22  33  50  82 125 164 189 229 293 375
#     4  11  22  37  57  83 122 167 204 252 304 379
#     4  11  24  40  59  90 125 163 211 251 313 371
#     4  10  21  38  62  86 126 158 208 251 307 364
#     4  11  22  38  60  89 127 163 210 246 305 370
#     4  10  23  40  60  87 128 159 212 262 297 362
#
# _framework density 19.172656
#
# number of rings (size 3 to 8) (size 9 to 14) (size 15 to 20)
#    0.857    0.571    1.429    5.143    6.000    1.143 
#    0.000    0.000    0.000    0.000    0.000   21.000 
#    0.000    0.000    0.000    0.000    0.000    0.000 
#
# Total GULP energy -155983.623285 kJ/mol
# GULP energy per Si atom -5570.843689 kJ/mol
# Density = 1.912902 g / cm^3
# Si number density = 19.172656 Si / 1000 Ang^3
#
#
#
# Elastic Constant Matrix: (Units=GPa)
#
#
# Indices 1 2 3 4 5 6 
#
# 1 64.1897 61.5049 18.5833 0.0000 -11.0724 0.0000
# 2 61.5049 127.5776 35.2026 0.0000 -3.0786 0.0000
# 3 18.5833 35.2026 84.9720 0.0000 -9.5129 0.0000
# 4 0.0000 0.0000 0.0000 22.6786 0.0000 -10.6245
# 5 -11.0724 -3.0786 -9.5129 0.0000 24.0303 0.0000
# 6 0.0000 0.0000 0.0000 -10.6245 0.0000 7.4585
#
#
#
# Elastic Compliance Matrix: (Units=1/GPa)
#
#
# Indices 1 2 3 4 5 6 
#
# 1 0.032623 -0.015637 0.000839 0.000000 0.013361 0.000000
# 2 -0.015637 0.016348 -0.004107 0.000000 -0.006736 0.000000
# 3 0.000839 -0.004107 0.013886 0.000000 0.005358 0.000000
# 4 0.000000 0.000000 0.000000 0.132551 0.000000 0.188816
# 5 0.013361 -0.006736 0.005358 0.000000 0.049028 0.000000
# 6 0.000000 0.000000 0.000000 0.188816 0.000000 0.403039
#
#
# Mechanical properties :
#
#
# Convention : Reuss Voigt Hill
#
# Bulk Modulus (GPa) = 39.92326 56.36898 48.14612
# Shear Modulus (GPa) = 7.20841 21.59671 14.40256
#
# Velocity S-wave (km/s) = 1.94111 3.35988 2.74378
# Velocity P-wave (km/s) = 5.08843 6.67205 5.93331
#
# Compressibility (1/GPa) = 0.02504805
#
# Stress axis : x y z
#
# Youngs Moduli (GPa) = 30.65291 61.17138 72.01335
#
# Poissons Ratio (x) = 0.95652 -0.06043
# Poissons Ratio (y) = 0.47931 0.29576
# Poissons Ratio (z) = -0.02572 0.25123
#
# Static dielectric constant tensor:
#      x y z
#    x 1.707790 0.000000 -0.028200 
#    y 0.000000 1.691220 0.000000 
#    z -0.028200 0.000000 1.674370 
# 
# From -- ./inp_files/62775.got.cif
#   From: 2010.05.17/outbox.cif.g08.bks.cpg/sg15_32_cif.got.tgz:62775.got - 2010.06.03 18:47:42.
