data_PCOD9279998
_publ_section_title
;
Structure prediction by ZEFSAII (Michael W. Deem and Ramdas Pophale) SiO2 
 PCOD9279998
Probable space group: C 2/C
;
_chemical_formula_sum "Si O2"
_cell_formula_units_Z 44
_cell_length_a 5.282974
_cell_length_b 21.433206
_cell_length_c 17.389770
_cell_angle_alpha 90.000000
_cell_angle_beta 116.583896
_cell_angle_gamma 90.000000
_cell_volume 1760.893105
_symmetry_space_group_name_H-M "C 2/C"
_symmetry_group_IT_number 15
_symmetry_cell_setting 'monoclinic'
loop_
_space_group_symop_operation_xyz
x,y,z
-x,y,1/2-z
-x,-y,-z
x,-y,1/2+z
1/2+x,1/2+y,z
1/2-x,1/2+y,1/2-z
1/2-x,1/2-y,-z
1/2+x,1/2-y,1/2+z
loop_
_atom_site_type_symbol
_atom_site_label
_atom_site_fract_x
_atom_site_fract_y
_atom_site_fract_z
Si Si1 0.390827 0.942494 0.936221
Si Si2 0.000000 0.347916 0.750000
Si Si3 0.649486 0.739682 0.108189
Si Si4 0.975853 0.125930 0.496783
Si Si5 0.012629 0.859440 0.332649
Si Si6 0.000000 0.734602 0.750000
Si Si7 0.000000 0.931016 0.750000
O O1 0.192041 0.964483 0.839402
O O2 0.665895 0.904850 0.944193
O O3 0.196480 0.901464 0.966280
O O4 0.500000 0.000000 0.000000
O O5 0.076702 0.301287 0.830055
O O6 0.268490 0.389317 0.763951
O O7 0.477644 0.732031 0.164703
O O8 0.720406 0.813132 0.111078
O O9 0.527404 0.700896 0.020161
O O10 0.054402 0.109263 0.595349
O O11 0.766245 0.810607 0.281293
O O12 0.000000 0.896534 0.250000
#
# Coordination Sequence:
#
# PCOD9279998 Si02
#       7
#     8   4   8   8   8   4   4
#     4  12  28  50  74 106 134 174 242 304 357 420
#     4  12  20  36  68 106 130 186 224 274 338 410
#     4  11  21  37  65 104 145 185 234 278 337 413
#     4  12  27  44  73 101 143 182 237 291 350 420
#     4  10  24  41  62 100 149 195 231 274 339 424
#     4  10  21  36  62  97 154 185 238 262 329 428
#     4  12  23  46  74  99 136 175 224 296 369 396
#
# _framework density 24.987324000000001
#
# number of rings (size 3 to 8) (size 9 to 14) (size 15 to 20)
#    0.000    0.727    6.364    1.636    7.636    0.727 
#    1.636    0.000    0.000    0.000    0.000    0.000 
#    0.000    0.000    0.000    0.000    0.000    0.000 
#
# Total GULP energy -122899.074125 kJ/mol
# GULP energy per Si atom -5586.321551 kJ/mol
# Density = 2.493045 g / cm^3
# Si number density = 24.987324 Si / 1000 Ang^3
#
#
#
# Elastic Constant Matrix: (Units=GPa)
#
#
# Indices 1 2 3 4 5 6 
#
# 1 133.2196 19.6639 2.6084 0.0000 1.2440 0.0000
# 2 19.6639 40.8237 15.3191 0.0000 7.6012 0.0000
# 3 2.6084 15.3191 148.3070 0.0000 -0.2754 0.0000
# 4 0.0000 0.0000 0.0000 21.7064 0.0000 1.0254
# 5 1.2440 7.6012 -0.2754 0.0000 27.4998 0.0000
# 6 0.0000 0.0000 0.0000 1.0254 0.0000 10.7699
#
#
#
# Elastic Compliance Matrix: (Units=1/GPa)
#
#
# Indices 1 2 3 4 5 6 
#
# 1 0.008107 -0.004160 0.000289 0.000000 0.000786 0.000000
# 2 -0.004160 0.029071 -0.002944 0.000000 -0.007877 0.000000
# 3 0.000289 -0.002944 0.007043 0.000000 0.000871 0.000000
# 4 0.000000 0.000000 0.000000 0.046277 0.000000 -0.004406
# 5 0.000786 -0.007877 0.000871 0.000000 0.038514 0.000000
# 6 0.000000 0.000000 0.000000 -0.004406 0.000000 0.093271
#
#
# Mechanical properties :
#
#
# Convention : Reuss Voigt Hill
#
# Bulk Modulus (GPa) = 32.68985 44.17035 38.43010
# Shear Modulus (GPa) = 20.31596 30.97915 25.64756
#
# Velocity S-wave (km/s) = 2.85450 3.52489 3.20726
# Velocity P-wave (km/s) = 4.89645 5.85508 5.39709
#
# Compressibility (1/GPa) = 0.03059054
#
# Stress axis : x y z
#
# Youngs Moduli (GPa) = 123.34389 34.39893 141.97617
#
# Poissons Ratio (x) = 0.14309 -0.04097
# Poissons Ratio (y) = 0.51308 0.41802
# Poissons Ratio (z) = -0.03559 0.10128
#
# Static dielectric constant tensor:
#      x y z
#    x 2.068170 0.000000 -0.006980 
#    y 0.000000 2.004900 0.000000 
#    z -0.006980 0.000000 2.065530 
# 
# From -- ./inp_files/129433.got.cif
#   From: 2010.05.17/outbox.cif.g08.bks.cpg/sg15_65_cif.got.tgz:129433.got - 2010.06.03 18:47:42.
