data_PCOD9279646
_publ_section_title
;
Structure prediction by ZEFSAII (Michael W. Deem and Ramdas Pophale) SiO2 
 PCOD9279646
Probable space group: C 2/C
;
_chemical_formula_sum "Si O2"
_cell_formula_units_Z 48
_cell_length_a 9.936463
_cell_length_b 34.482090
_cell_length_c 7.995886
_cell_angle_alpha 90.000000
_cell_angle_beta 118.609070
_cell_angle_gamma 90.000000
_cell_volume 2405.141316
_symmetry_space_group_name_H-M "C 2/C"
_symmetry_group_IT_number 15
_symmetry_cell_setting 'monoclinic'
loop_
_space_group_symop_operation_xyz
x,y,z
-x,y,1/2-z
-x,-y,-z
x,-y,1/2+z
1/2+x,1/2+y,z
1/2-x,1/2+y,1/2-z
1/2-x,1/2-y,-z
1/2+x,1/2-y,1/2+z
loop_
_atom_site_type_symbol
_atom_site_label
_atom_site_fract_x
_atom_site_fract_y
_atom_site_fract_z
Si Si1 0.000000 0.502389 0.250000
Si Si2 0.500000 0.574813 0.250000
Si Si3 0.013614 0.210797 0.062324
Si Si4 0.671385 0.948517 0.572999
Si Si5 0.867842 0.631659 0.309281
Si Si6 0.027043 0.127148 0.955797
Si Si7 0.365168 0.218374 0.307644
O O1 0.929379 0.530144 0.347220
O O2 0.132263 0.473006 0.386902
O O3 0.647861 0.550469 0.287251
O O4 0.543871 0.601362 0.436801
O O5 0.191974 0.221653 0.135096
O O6 0.000000 0.201543 0.250000
O O7 0.972324 0.171709 0.938721
O O8 0.904586 0.246467 0.953050
O O9 0.626199 0.903264 0.555585
O O10 0.873703 0.674895 0.387823
O O11 0.000000 0.627724 0.250000
O O12 0.706687 0.627985 0.113984
O O13 0.000000 0.113399 0.750000
O O14 0.500000 0.220012 0.250000
#
# Coordination Sequence:
#
# PCOD9279646 Si02
#       7
#     4   4   8   8   8   8   8
#     4  10  22  40  66  89 118 164 188 241 308 368
#     4  10  22  42  62  95 126 156 200 257 288 358
#     4  11  21  37  55  83 121 157 206 257 298 347
#     4  10  21  41  63  90 125 153 200 242 301 368
#     4   9  19  37  59  84 120 156 198 252 295 351
#     4  10  21  38  62  88 121 166 205 247 303 352
#     4  10  21  36  56  80 114 163 205 247 305 349
#
# _framework density 19.957246999999999
#
# number of rings (size 3 to 8) (size 9 to 14) (size 15 to 20)
#    0.000    2.000    1.667    1.500    0.000    4.667 
#    4.500    0.000    0.000    0.000    0.000    0.000 
#    0.000    0.000    0.000    0.000    0.000    0.000 
#
# Total GULP energy -133843.841834 kJ/mol
# GULP energy per Si atom -5576.826743 kJ/mol
# Density = 1.991182 g / cm^3
# Si number density = 19.957247 Si / 1000 Ang^3
#
#
#
# Elastic Constant Matrix: (Units=GPa)
#
#
# Indices 1 2 3 4 5 6 
#
# 1 59.9220 -2.1234 -12.6547 0.0000 8.1832 0.0000
# 2 -2.1234 92.2820 25.0678 0.0000 10.0467 0.0000
# 3 -12.6547 25.0678 45.0086 0.0000 -13.9272 0.0000
# 4 0.0000 0.0000 0.0000 -284.0740 0.0000 325.0042
# 5 8.1832 10.0467 -13.9272 0.0000 26.2378 0.0000
# 6 0.0000 0.0000 0.0000 325.0042 0.0000 -316.2534
#
#
#
# Elastic Compliance Matrix: (Units=1/GPa)
#
#
# Indices 1 2 3 4 5 6 
#
# 1 0.018018 -0.000412 0.004314 0.000000 -0.003172 0.000000
# 2 -0.000412 0.015667 -0.012753 0.000000 -0.012640 0.000000
# 3 0.004314 -0.012753 0.037845 0.000000 0.023626 0.000000
# 4 0.000000 0.000000 0.000000 0.020031 0.000000 0.020585
# 5 -0.003172 -0.012640 0.023626 0.000000 0.056483 0.000000
# 6 0.000000 0.000000 0.000000 0.020585 0.000000 0.017993
#
#
# Mechanical properties :
#
#
# Convention : Reuss Voigt Hill
#
# Bulk Modulus (GPa) = 18.57788 24.19911 21.38850
# Shear Modulus (GPa) = 24.79159 -102.35640 -38.78240
#
# Velocity S-wave (km/s) = 3.52836 -7.16932 -4.41304
# Velocity P-wave (km/s) = 5.09197 7.50869 3.90207
#
# Compressibility (1/GPa) = 0.05382745
#
# Stress axis : x y z
#
# Youngs Moduli (GPa) = 55.50016 63.82716 26.42390
#
# Poissons Ratio (x) = 0.02629 -0.11399
# Poissons Ratio (y) = 0.02286 0.33699
# Poissons Ratio (z) = -0.23942 0.81400
#
# Static dielectric constant tensor:
#      x y z
#    x 1.720440 0.000000 -0.006320 
#    y 0.000000 1.708630 0.000000 
#    z -0.006320 0.000000 1.711930 
# 
# From -- ./inp_files/33840.got.cif
#   From: 2010.05.17/outbox.cif.g08.bks.cpg/sg15_17_cif.got.tgz:33840.got - 2010.06.03 18:47:42.
