data_PCOD9279626
_publ_section_title
;
Structure prediction by ZEFSAII (Michael W. Deem and Ramdas Pophale) SiO2 
 PCOD9279626
Probable space group: C 2/C
;
_chemical_formula_sum "Si O2"
_cell_formula_units_Z 32
_cell_length_a 9.478638
_cell_length_b 26.579189
_cell_length_c 5.181138
_cell_angle_alpha 90.000000
_cell_angle_beta 77.958013
_cell_angle_gamma 90.000000
_cell_volume 1276.584148
_symmetry_space_group_name_H-M "C 2/C"
_symmetry_group_IT_number 15
_symmetry_cell_setting 'monoclinic'
loop_
_space_group_symop_operation_xyz
x,y,z
-x,y,1/2-z
-x,-y,-z
x,-y,1/2+z
1/2+x,1/2+y,z
1/2-x,1/2+y,1/2-z
1/2-x,1/2-y,-z
1/2+x,1/2-y,1/2+z
loop_
_atom_site_type_symbol
_atom_site_label
_atom_site_fract_x
_atom_site_fract_y
_atom_site_fract_z
Si Si1 0.587642 0.711993 0.950675
Si Si2 0.372614 0.824888 0.505233
Si Si3 0.097419 0.434521 0.954111
Si Si4 0.572038 0.555640 0.982139
O O1 0.500000 0.692453 0.750000
O O2 0.723728 0.676640 0.914712
O O3 0.500000 0.713875 0.250000
O O4 0.629860 0.770097 0.860998
O O5 0.500000 0.824496 0.250000
O O6 0.375116 0.877086 0.652766
O O7 0.000000 0.457397 0.750000
O O8 0.257279 0.451197 0.003296
O O9 0.000000 0.433259 0.250000
O O10 0.500000 0.577942 0.750000
O O11 0.500000 0.583894 0.250000
O O12 0.500000 0.500000 0.000000
#
# Coordination Sequence:
#
# PCOD9279626 Si02
#       4
#     8   8   8   8
#     4  10  21  36  55  82 115 159 203 241 290 346
#     4   9  21  37  57  83 120 156 197 248 293 344
#     4  11  23  40  63  92 122 158 201 248 301 357
#     4  10  22  43  65  90 123 156 192 244 303 361
#
# _framework density 25.066897000000001
#
# number of rings (size 3 to 8) (size 9 to 14) (size 15 to 20)
#    0.000    2.000    0.000    2.250    0.000   15.000 
#    0.000   15.000    0.000    0.000    0.000    0.000 
#    0.000    0.000    0.000    0.000    0.000    0.000 
#
# Total GULP energy -89112.402042 kJ/mol
# GULP energy per Si atom -5569.525128 kJ/mol
# Density = 2.500984 g / cm^3
# Si number density = 25.066897 Si / 1000 Ang^3
#
#
#
# Elastic Constant Matrix: (Units=GPa)
#
#
# Indices 1 2 3 4 5 6 
#
# 1 268.3477 21.6547 78.9658 0.0000 45.8808 0.0000
# 2 21.6547 113.5803 -9.7243 0.0000 17.8609 0.0000
# 3 78.9658 -9.7243 158.3383 0.0000 40.3186 0.0000
# 4 0.0000 0.0000 0.0000 -8.3624 0.0000 8.6781
# 5 45.8808 17.8609 40.3186 0.0000 60.0254 0.0000
# 6 0.0000 0.0000 0.0000 8.6781 0.0000 88.1868
#
#
#
# Elastic Compliance Matrix: (Units=1/GPa)
#
#
# Indices 1 2 3 4 5 6 
#
# 1 0.004691 -0.000716 -0.001839 0.000000 -0.002137 0.000000
# 2 -0.000716 0.009663 0.001862 0.000000 -0.003579 0.000000
# 3 -0.001839 0.001862 0.008601 0.000000 -0.004926 0.000000
# 4 0.000000 0.000000 0.000000 -0.108503 0.000000 0.010677
# 5 -0.002137 -0.003579 -0.004926 0.000000 0.022667 0.000000
# 6 0.000000 0.000000 0.000000 0.010677 0.000000 0.010289
#
#
# Mechanical properties :
#
#
# Convention : Reuss Voigt Hill
#
# Bulk Modulus (GPa) = 46.36346 80.22873 63.29609
# Shear Modulus (GPa) = -113.59481 57.92798 -27.83341
#
# Velocity S-wave (km/s) = -6.73907 4.81243 -3.33583
# Velocity P-wave (km/s) = 6.48208 7.93440 3.23553
#
# Compressibility (1/GPa) = 0.02156871
#
# Stress axis : x y z
#
# Youngs Moduli (GPa) = 213.17976 103.48817 116.26029
#
# Poissons Ratio (x) = 0.07407 0.21382
# Poissons Ratio (y) = 0.15258 -0.21644
# Poissons Ratio (z) = 0.39207 -0.19266
#
# Static dielectric constant tensor:
#      x y z
#    x 2.000020 0.000000 0.035920 
#    y 0.000000 2.122270 0.000000 
#    z 0.035920 0.000000 2.110090 
# 
# From -- ./inp_files/2384.got.cif
#   From: 2010.05.17/outbox.cif.g08.bks.cpg/sg15_2_cif.got.tgz:2384.got - 2010.06.03 18:47:42.
