data_PCOD9279397
_publ_section_title
;
Structure prediction by ZEFSAII (Michael W. Deem and Ramdas Pophale) SiO2 
 PCOD9279397
Probable space group: C 2/C
;
_chemical_formula_sum "Si O2"
_cell_formula_units_Z 52
_cell_length_a 9.935671
_cell_length_b 27.524081
_cell_length_c 9.824473
_cell_angle_alpha 90.000000
_cell_angle_beta 79.962611
_cell_angle_gamma 90.000000
_cell_volume 2645.578697
_symmetry_space_group_name_H-M "C 2/C"
_symmetry_group_IT_number 15
_symmetry_cell_setting 'monoclinic'
loop_
_space_group_symop_operation_xyz
x,y,z
-x,y,1/2-z
-x,-y,-z
x,-y,1/2+z
1/2+x,1/2+y,z
1/2-x,1/2+y,1/2-z
1/2-x,1/2-y,-z
1/2+x,1/2-y,1/2+z
loop_
_atom_site_type_symbol
_atom_site_label
_atom_site_fract_x
_atom_site_fract_y
_atom_site_fract_z
Si Si1 0.261494 0.394932 0.462603
Si Si2 0.169540 0.313139 0.890164
Si Si3 0.842290 0.415959 0.726206
Si Si4 0.061543 0.213214 0.990261
Si Si5 0.403915 0.981983 0.137766
Si Si6 0.000000 0.149187 0.750000
Si Si7 0.753469 0.799833 0.575161
O O1 0.255579 0.406852 0.625887
O O2 0.178211 0.435420 0.397833
O O3 0.401830 0.384509 0.358626
O O4 0.197604 0.341168 0.484315
O O5 0.156330 0.371995 0.883710
O O6 0.069269 0.271953 0.970609
O O7 0.175170 0.300505 0.729427
O O8 0.313692 0.301899 0.936284
O O9 0.812005 0.470395 0.682234
O O10 0.000000 0.417421 0.750000
O O11 0.076101 0.185376 0.842480
O O12 0.916478 0.194309 0.072552
O O13 0.500000 0.971151 0.250000
O O14 0.500000 0.000000 0.000000
O O15 0.750000 0.750000 0.500000
#
# Coordination Sequence:
#
# PCOD9279397 Si02
#       7
#     8   8   8   8   8   4   8
#     4  10  21  40  61  88 116 165 198 245 311 371
#     4  10  21  35  59  86 117 157 203 251 296 368
#     4  10  21  37  63  89 118 156 209 250 320 364
#     4  10  21  37  55  87 123 157 200 250 301 360
#     4  11  21  39  63  91 123 151 201 268 308 357
#     4  10  22  40  60  82 128 162 202 246 310 378
#     4  10  21  36  61  84 120 163 200 243 305 369
#
# _framework density 19.655434
#
# number of rings (size 3 to 8) (size 9 to 14) (size 15 to 20)
#    0.000    1.846    3.077    2.308    5.385    1.231 
#    0.000    2.308    6.769    0.000    0.000    0.000 
#    0.000    0.000    0.000    0.000    0.000    0.000 
#
# Total GULP energy -144811.759573 kJ/mol
# GULP energy per Si atom -5569.683061 kJ/mol
# Density = 1.961070 g / cm^3
# Si number density = 19.655434 Si / 1000 Ang^3
#
#
#
# Elastic Constant Matrix: (Units=GPa)
#
#
# Indices 1 2 3 4 5 6 
#
# 1 53.5834 35.6702 17.2154 0.0000 0.8843 0.0000
# 2 35.6702 183.1378 36.4016 0.0000 16.8848 0.0000
# 3 17.2154 36.4016 68.3536 0.0000 -4.2507 0.0000
# 4 0.0000 0.0000 0.0000 32.6564 0.0000 3.4584
# 5 0.8843 16.8848 -4.2507 0.0000 27.8307 0.0000
# 6 0.0000 0.0000 0.0000 3.4584 0.0000 34.2318
#
#
#
# Elastic Compliance Matrix: (Units=1/GPa)
#
#
# Indices 1 2 3 4 5 6 
#
# 1 0.022268 -0.003722 -0.003564 0.000000 0.001006 0.000000
# 2 -0.003722 0.007269 -0.003231 0.000000 -0.004785 0.000000
# 3 -0.003564 -0.003231 0.017544 0.000000 0.004753 0.000000
# 4 0.000000 0.000000 0.000000 0.030953 0.000000 -0.003127
# 5 0.001006 -0.004785 0.004753 0.000000 0.039529 0.000000
# 6 0.000000 0.000000 0.000000 -0.003127 0.000000 0.029529
#
#
# Mechanical properties :
#
#
# Convention : Reuss Voigt Hill
#
# Bulk Modulus (GPa) = 38.39168 53.73879 46.06523
# Shear Modulus (GPa) = 28.27941 33.32961 30.80451
#
# Velocity S-wave (km/s) = 3.79721 4.12235 3.96312
# Velocity P-wave (km/s) = 6.22895 7.07518 6.66551
#
# Compressibility (1/GPa) = 0.02604731
#
# Stress axis : x y z
#
# Youngs Moduli (GPa) = 44.90672 137.57690 57.00030
#
# Poissons Ratio (x) = 0.51201 0.20315
# Poissons Ratio (y) = 0.16713 0.18418
# Poissons Ratio (z) = 0.16005 0.44453
#
# Static dielectric constant tensor:
#      x y z
#    x 1.737280 0.000000 -0.010330 
#    y 0.000000 1.763870 0.000000 
#    z -0.010330 0.000000 1.766430 
# 
# From -- ./inp_files/33632.got.cif
#   From: 2010.05.17/outbox.cif.g08.bks.cpg/sg15_17_cif.got.tgz:33632.got - 2010.06.03 18:47:42.
