data_PCOD9279876
_publ_section_title
;
Structure prediction by ZEFSAII (Michael W. Deem and Ramdas Pophale) SiO2 
 PCOD9279876
Probable space group: C 2/C
;
_chemical_formula_sum "Si O2"
_cell_formula_units_Z 40
_cell_length_a 14.283886
_cell_length_b 13.032242
_cell_length_c 23.991460
_cell_angle_alpha 90.000000
_cell_angle_beta 155.165703
_cell_angle_gamma 90.000000
_cell_volume 1875.714440
_symmetry_space_group_name_H-M "C 2/C"
_symmetry_group_IT_number 15
_symmetry_cell_setting 'monoclinic'
loop_
_space_group_symop_operation_xyz
x,y,z
-x,y,1/2-z
-x,-y,-z
x,-y,1/2+z
1/2+x,1/2+y,z
1/2-x,1/2+y,1/2-z
1/2-x,1/2-y,-z
1/2+x,1/2-y,1/2+z
loop_
_atom_site_type_symbol
_atom_site_label
_atom_site_fract_x
_atom_site_fract_y
_atom_site_fract_z
Si Si1 0.866800 0.887889 0.568534
Si Si2 0.777103 0.703891 0.103427
Si Si3 0.119346 0.891061 0.055542
Si Si4 0.052889 0.118246 0.874323
Si Si5 0.107097 0.678685 0.693415
O O1 0.827243 0.886078 0.480315
O O2 0.616654 0.867595 0.454774
O O3 0.036665 0.794760 0.671004
O O4 0.959336 0.996619 0.638531
O O5 0.000000 0.658115 0.250000
O O6 0.837477 0.818266 0.116322
O O7 0.567927 0.693826 0.030870
O O8 0.711126 0.640834 0.012858
O O9 0.310640 0.876401 0.205069
O O10 0.000000 0.000000 0.000000
O O11 0.816405 0.167054 0.764872
#
# Coordination Sequence:
#
# PCOD9279876 Si02
#       5
#     8   8   8   8   8
#     4  11  22  40  64  88 132 173 206 274 330 377
#     4  10  21  36  60  93 124 159 214 269 307 380
#     4  11  21  38  62  96 122 169 214 275 318 377
#     4  10  22  39  61  92 126 171 216 263 321 385
#     4  10  23  38  58  95 127 165 219 268 324 391
#
# _framework density 21.325208
#
# number of rings (size 3 to 8) (size 9 to 14) (size 15 to 20)
#    0.000    1.600    4.000    1.800    2.800    4.800 
#    0.000    4.000    0.000   12.000    0.000    0.000 
#    0.000    0.000    0.000    0.000    0.000    0.000 
#
# Total GULP energy -111697.557638 kJ/mol
# GULP energy per Si atom -5584.877882 kJ/mol
# Density = 2.127667 g / cm^3
# Si number density = 21.325208 Si / 1000 Ang^3
#
#
#
# Elastic Constant Matrix: (Units=GPa)
#
#
# Indices 1 2 3 4 5 6 
#
# 1 48.8207 21.5185 11.2447 0.0002 22.9593 0.0000
# 2 21.5185 149.4805 54.7511 0.0018 9.9877 -0.0003
# 3 11.2447 54.7511 115.1643 0.0048 22.7197 -0.0008
# 4 0.0002 0.0018 0.0048 26.5442 -0.0007 -2.4055
# 5 22.9593 9.9877 22.7197 -0.0007 28.8094 -0.0006
# 6 0.0000 -0.0003 -0.0008 -2.4055 -0.0006 26.3092
#
#
#
# Elastic Compliance Matrix: (Units=1/GPa)
#
#
# Indices 1 2 3 4 5 6 
#
# 1 0.036056 -0.004927 0.004919 -0.000002 -0.030905 -0.000001
# 2 -0.004927 0.008775 -0.004578 0.000000 0.004494 0.000000
# 3 0.004919 -0.004578 0.012837 -0.000002 -0.012456 0.000000
# 4 -0.000002 0.000000 -0.000002 0.037988 0.000004 0.003473
# 5 -0.030905 0.004494 -0.012456 0.000004 0.067606 0.000002
# 6 -0.000001 0.000000 0.000000 0.003473 0.000002 0.038327
#
#
# Mechanical properties :
#
#
# Convention : Reuss Voigt Hill
#
# Bulk Modulus (GPa) = 20.62005 54.27711 37.44858
# Shear Modulus (GPa) = 22.03366 31.39599 26.71482
#
# Velocity S-wave (km/s) = 3.21786 3.84115 3.54324
# Velocity P-wave (km/s) = 4.84732 6.72160 5.85988
#
# Compressibility (1/GPa) = 0.04849649
#
# Stress axis : x y z
#
# Youngs Moduli (GPa) = 27.73469 113.95389 77.90229
#
# Poissons Ratio (x) = 0.56147 -0.38320
# Poissons Ratio (y) = 0.13665 0.35660
# Poissons Ratio (z) = -0.13643 0.52163
#
# Static dielectric constant tensor:
#      x y z
#    x 1.807290 0.000000 0.001500 
#    y 0.000000 1.788420 0.000000 
#    z 0.001500 0.000000 1.770200 
# 
# From -- ./inp_files/316016.got.cif
#   From: 2010.05.17/outbox.cif.g08.bks.cpg/sg15_159_cif.got.tgz:316016.got - 2010.06.03 18:47:42.
