data_PCOD9279033
_publ_section_title
;
Structure prediction by ZEFSAII (Michael W. Deem and Ramdas Pophale) SiO2 
 PCOD9279033
Probable space group: C 2/C
;
_chemical_formula_sum "Si O2"
_cell_formula_units_Z 64
_cell_length_a 27.045475
_cell_length_b 11.919443
_cell_length_c 11.817189
_cell_angle_alpha 90.000000
_cell_angle_beta 45.981027
_cell_angle_gamma 90.000000
_cell_volume 2739.428197
_symmetry_space_group_name_H-M "C 2/C"
_symmetry_group_IT_number 15
_symmetry_cell_setting 'monoclinic'
loop_
_space_group_symop_operation_xyz
x,y,z
-x,y,1/2-z
-x,-y,-z
x,-y,1/2+z
1/2+x,1/2+y,z
1/2-x,1/2+y,1/2-z
1/2-x,1/2-y,-z
1/2+x,1/2-y,1/2+z
loop_
_atom_site_type_symbol
_atom_site_label
_atom_site_fract_x
_atom_site_fract_y
_atom_site_fract_z
Si Si1 0.295480 0.387177 0.541393
Si Si2 0.891646 0.799521 0.989227
Si Si3 0.608716 0.088525 0.055794
Si Si4 0.954226 0.209418 0.153684
Si Si5 0.156916 0.573803 0.333589
Si Si6 0.928705 0.526704 0.671058
Si Si7 0.733942 0.366236 0.164226
Si Si8 0.064846 0.158984 0.575289
O O1 0.234673 0.459240 0.690766
O O2 0.299616 0.401843 0.401237
O O3 0.260673 0.263544 0.614930
O O4 0.365704 0.399656 0.494834
O O5 0.862350 0.671581 0.051170
O O6 0.828583 0.866498 0.147142
O O7 0.909940 0.834015 0.831907
O O8 0.964953 0.799144 0.939234
O O9 0.691544 0.074968 0.943902
O O10 0.610954 0.038396 0.923393
O O11 0.567311 0.005429 0.199725
O O12 0.579588 0.212461 0.092533
O O13 0.926907 0.336746 0.184302
O O14 0.945127 0.154846 0.043889
O O15 0.122799 0.588902 0.265675
O O16 0.000000 0.500000 0.500000
O O17 0.000000 0.116924 0.750000
#
# Coordination Sequence:
#
# PCOD9279033 Si02
#       8
#     8   8   8   8   8   8   8   8
#     4   9  19  34  54  74 104 147 189 228 268 324
#     4  10  21  34  54  76 112 152 182 225 280 339
#     4  11  22  33  53  83 111 146 185 226 276 332
#     4  11  21  34  50  84 114 144 183 227 287 335
#     4  11  20  34  52  78 113 149 186 218 275 340
#     4  12  21  31  51  79 119 153 178 222 273 341
#     4   9  18  36  53  74 104 149 195 223 263 329
#     4  11  22  34  53  83 109 140 185 238 277 319
#
# _framework density 23.362539999999999
#
# number of rings (size 3 to 8) (size 9 to 14) (size 15 to 20)
#    0.000    1.500    5.000    1.500    1.750    0.000 
#    0.000    6.875    0.000    0.000    3.250    1.750 
#    0.000    0.000    0.000    0.000    0.000    0.000 
#
# Total GULP energy -178144.919443 kJ/mol
# GULP energy per Si atom -5567.028733 kJ/mol
# Density = 2.330937 g / cm^3
# Si number density = 23.362540 Si / 1000 Ang^3
#
#
#
# Elastic Constant Matrix: (Units=GPa)
#
#
# Indices 1 2 3 4 5 6 
#
# 1 153.1963 7.8634 97.0002 0.0000 -17.5958 0.0000
# 2 7.8634 29.1735 25.2452 0.0000 -3.7246 0.0000
# 3 97.0002 25.2452 231.9878 0.0000 -12.0747 0.0000
# 4 0.0000 0.0000 0.0000 14.3250 0.0000 -7.5589
# 5 -17.5958 -3.7246 -12.0747 0.0000 33.7009 0.0000
# 6 0.0000 0.0000 0.0000 -7.5589 0.0000 20.8964
#
#
#
# Elastic Compliance Matrix: (Units=1/GPa)
#
#
# Indices 1 2 3 4 5 6 
#
# 1 0.009313 0.001280 -0.003844 0.000000 0.003626 0.000000
# 2 0.001280 0.038270 -0.004529 0.000000 0.003275 0.000000
# 3 -0.003844 -0.004529 0.006400 0.000000 -0.000215 0.000000
# 4 0.000000 0.000000 0.000000 0.086276 0.000000 0.031209
# 5 0.003626 0.003275 -0.000215 0.000000 0.031851 0.000000
# 6 0.000000 0.000000 0.000000 0.031209 0.000000 0.059145
#
#
# Mechanical properties :
#
#
# Convention : Reuss Voigt Hill
#
# Bulk Modulus (GPa) = 25.12906 74.95278 50.04092
# Shear Modulus (GPa) = 19.32688 32.73437 26.03062
#
# Velocity S-wave (km/s) = 2.87933 3.74725 3.34159
# Velocity P-wave (km/s) = 4.67264 7.13265 6.02944
#
# Compressibility (1/GPa) = 0.03979457
#
# Stress axis : x y z
#
# Youngs Moduli (GPa) = 107.38226 26.12995 156.25811
#
# Poissons Ratio (x) = -0.03343 0.60070
# Poissons Ratio (y) = -0.13740 0.70772
# Poissons Ratio (z) = 0.41281 0.11835
#
# Static dielectric constant tensor:
#      x y z
#    x 2.035710 0.000000 0.042320 
#    y 0.000000 2.076060 0.000000 
#    z 0.042320 0.000000 2.039090 
# 
# From -- ./inp_files/123494.got.cif
#   From: 2010.05.17/outbox.cif.g08.bks.cpg/sg15_62_cif.got.tgz:123494.got - 2010.06.03 18:47:42.
