data_PCOD9279361
_publ_section_title
;
Structure prediction by ZEFSAII (Michael W. Deem and Ramdas Pophale) SiO2 
 PCOD9279361
Probable space group: C 2/C
;
_chemical_formula_sum "Si O2"
_cell_formula_units_Z 48
_cell_length_a 21.581551
_cell_length_b 8.092789
_cell_length_c 12.405385
_cell_angle_alpha 90.000000
_cell_angle_beta 107.269814
_cell_angle_gamma 90.000000
_cell_volume 2068.982874
_symmetry_space_group_name_H-M "C 2/C"
_symmetry_group_IT_number 15
_symmetry_cell_setting 'monoclinic'
loop_
_space_group_symop_operation_xyz
x,y,z
-x,y,1/2-z
-x,-y,-z
x,-y,1/2+z
1/2+x,1/2+y,z
1/2-x,1/2+y,1/2-z
1/2-x,1/2-y,-z
1/2+x,1/2-y,1/2+z
loop_
_atom_site_type_symbol
_atom_site_label
_atom_site_fract_x
_atom_site_fract_y
_atom_site_fract_z
Si Si1 0.653688 0.397551 0.970877
Si Si2 0.159274 0.552643 0.368444
Si Si3 0.454708 0.162722 0.589824
Si Si4 0.241600 0.762790 0.839843
Si Si5 0.917329 0.506816 0.360384
Si Si6 0.817470 0.247276 0.416815
O O1 0.581173 0.335822 0.906641
O O2 0.698573 0.395568 0.885435
O O3 0.688628 0.260365 0.067523
O O4 0.654938 0.569395 0.034411
O O5 0.097426 0.467910 0.393215
O O6 0.206816 0.408229 0.354883
O O7 0.123952 0.617227 0.243680
O O8 0.193991 0.664049 0.474077
O O9 0.526984 0.112803 0.660358
O O10 0.452903 0.129317 0.460440
O O11 0.234651 0.779460 0.707394
O O12 0.868301 0.373878 0.387593
#
# Coordination Sequence:
#
# PCOD9279361 Si02
#       6
#     8   8   8   8   8   8
#     4  10  21  36  55  80 113 147 186 234 282 326
#     4   9  18  34  55  79 108 145 184 223 274 335
#     4   9  18  33  54  77 109 147 181 226 280 330
#     4   9  21  38  53  79 117 149 181 228 284 338
#     4   9  18  34  55  79 108 144 187 227 274 335
#     4  10  21  35  58  86 109 144 192 233 278 331
#
# _framework density 23.199805999999999
#
# number of rings (size 3 to 8) (size 9 to 14) (size 15 to 20)
#    0.000    2.667    0.000    0.500    0.000    9.333 
#    0.000    0.000    0.000   18.000    0.000    0.000 
#    0.000    0.000    0.000    0.000    0.000    0.000 
#
# Total GULP energy -133830.905615 kJ/mol
# GULP energy per Si atom -5576.287734 kJ/mol
# Density = 2.314700 g / cm^3
# Si number density = 23.199806 Si / 1000 Ang^3
#
#
#
# Elastic Constant Matrix: (Units=GPa)
#
#
# Indices 1 2 3 4 5 6 
#
# 1 71.3183 14.2096 36.7287 0.0000 21.5619 0.0000
# 2 14.2096 64.0029 37.0405 0.0000 -1.7275 0.0000
# 3 36.7287 37.0405 160.8896 0.0000 7.9686 0.0000
# 4 0.0000 0.0000 0.0000 30.5762 0.0000 -0.0085
# 5 21.5619 -1.7275 7.9686 0.0000 29.4179 0.0000
# 6 0.0000 0.0000 0.0000 -0.0085 0.0000 26.8520
#
#
#
# Elastic Compliance Matrix: (Units=1/GPa)
#
#
# Indices 1 2 3 4 5 6 
#
# 1 0.020709 -0.003077 -0.003303 0.000000 -0.014464 0.000000
# 2 -0.003077 0.018626 -0.003803 0.000000 0.004379 0.000000
# 3 -0.003303 -0.003803 0.007841 0.000000 0.000073 0.000000
# 4 0.000000 0.000000 0.000000 0.032705 0.000000 0.000010
# 5 -0.014464 0.004379 0.000073 0.000000 0.044832 0.000000
# 6 0.000000 0.000000 0.000000 0.000010 0.000000 0.037241
#
#
# Mechanical properties :
#
#
# Convention : Reuss Voigt Hill
#
# Bulk Modulus (GPa) = 37.29685 52.46317 44.88001
# Shear Modulus (GPa) = 26.14297 31.25135 28.69716
#
# Velocity S-wave (km/s) = 3.36052 3.67420 3.52086
# Velocity P-wave (km/s) = 5.58289 6.37671 5.99296
#
# Compressibility (1/GPa) = 0.02681192
#
# Stress axis : x y z
#
# Youngs Moduli (GPa) = 48.28907 53.68749 127.53061
#
# Poissons Ratio (x) = 0.16518 0.42120
# Poissons Ratio (y) = 0.14857 0.48497
# Poissons Ratio (z) = 0.15949 0.20416
#
# Static dielectric constant tensor:
#      x y z
#    x 1.931110 0.000000 -0.036550 
#    y 0.000000 1.844260 0.000000 
#    z -0.036550 0.000000 2.005960 
# 
# From -- ./inp_files/116442.got.cif
#   From: 2010.05.17/outbox.cif.g08.bks.cpg/sg15_59_cif.got.tgz:116442.got - 2010.06.03 18:47:42.
