data_PCOD9279438
_publ_section_title
;
Structure prediction by ZEFSAII (Michael W. Deem and Ramdas Pophale) SiO2 
 PCOD9279438
Probable space group: C 2/C
;
_chemical_formula_sum "Si O2"
_cell_formula_units_Z 60
_cell_length_a 14.320450
_cell_length_b 13.251731
_cell_length_c 26.746974
_cell_angle_alpha 90.000000
_cell_angle_beta 28.560340
_cell_angle_gamma 90.000000
_cell_volume 2426.655616
_symmetry_space_group_name_H-M "C 2/C"
_symmetry_group_IT_number 15
_symmetry_cell_setting 'monoclinic'
loop_
_space_group_symop_operation_xyz
x,y,z
-x,y,1/2-z
-x,-y,-z
x,-y,1/2+z
1/2+x,1/2+y,z
1/2-x,1/2+y,1/2-z
1/2-x,1/2-y,-z
1/2+x,1/2-y,1/2+z
loop_
_atom_site_type_symbol
_atom_site_label
_atom_site_fract_x
_atom_site_fract_y
_atom_site_fract_z
Si Si1 0.000000 0.462079 0.750000
Si Si2 0.680672 0.325400 0.075816
Si Si3 0.903293 0.068087 0.631667
Si Si4 0.726938 0.584371 0.958122
Si Si5 0.425533 0.112241 0.637360
Si Si6 0.904228 0.403902 0.609637
Si Si7 0.268433 0.229763 0.862802
Si Si8 0.165787 0.693460 0.245366
O O1 0.858881 0.523238 0.854759
O O2 0.853055 0.394840 0.786020
O O3 0.550770 0.404239 0.107041
O O4 0.527236 0.259108 0.177830
O O5 0.750000 0.250000 0.000000
O O6 0.873212 0.373248 0.007535
O O7 0.696823 0.073719 0.756473
O O8 0.868596 0.157206 0.607542
O O9 0.020143 0.971453 0.557027
O O10 0.709840 0.697017 0.945307
O O11 0.851451 0.595403 0.950134
O O12 0.338774 0.223201 0.666782
O O13 0.379832 0.023565 0.619837
O O14 0.770533 0.342954 0.634725
O O15 0.857907 0.356812 0.687570
O O16 0.500000 0.210993 0.750000
#
# Coordination Sequence:
#
# PCOD9279438 Si02
#       8
#     4   8   8   8   8   8   8   8
#     4  12  22  36  64  96 120 156 208 258 304 360
#     4   9  15  33  59  88 109 159 209 239 293 376
#     4  11  20  36  63  92 123 158 206 259 302 364
#     4  12  22  38  65  98 124 153 207 262 309 362
#     4  11  21  41  64  89 124 165 205 247 311 371
#     4  11  20  37  63  86 120 165 204 245 312 378
#     4  12  22  36  57  93 131 152 194 254 312 363
#     4  10  21  35  60  87 124 153 203 261 300 359
#
# _framework density 24.725386
#
# number of rings (size 3 to 8) (size 9 to 14) (size 15 to 20)
#    0.000    1.067    8.667    1.200    0.000    0.000 
#    1.200    0.000    2.933    2.400    0.000    0.000 
#    0.000    0.000    0.000    0.000    0.000    0.000 
#
# Total GULP energy -167486.879249 kJ/mol
# GULP energy per Si atom -5582.895975 kJ/mol
# Density = 2.466911 g / cm^3
# Si number density = 24.725386 Si / 1000 Ang^3
#
#
#
# Elastic Constant Matrix: (Units=GPa)
#
#
# Indices 1 2 3 4 5 6 
#
# 1 72.7462 56.4881 33.3647 0.0006 -15.4786 0.0001
# 2 56.4881 81.5172 19.6200 0.0008 0.0263 0.0006
# 3 33.3647 19.6200 91.7150 0.0033 -27.7407 -0.0029
# 4 0.0006 0.0008 0.0033 25.8672 -0.0002 -8.0291
# 5 -15.4786 0.0263 -27.7407 -0.0002 25.4140 0.0013
# 6 0.0001 0.0006 -0.0029 -8.0291 0.0013 33.8054
#
#
#
# Elastic Compliance Matrix: (Units=1/GPa)
#
#
# Indices 1 2 3 4 5 6 
#
# 1 0.041650 -0.028366 -0.002093 0.000000 0.023112 -0.000001
# 2 -0.028366 0.032610 -0.002826 0.000000 -0.020394 0.000000
# 3 -0.002093 -0.002826 0.017742 -0.000002 0.018095 0.000000
# 4 0.000000 0.000000 -0.000002 0.041736 -0.000002 0.009913
# 5 0.023112 -0.020394 0.018095 -0.000002 0.073198 -0.000002
# 6 -0.000001 0.000000 0.000000 0.009913 -0.000002 0.031935
#
#
# Mechanical properties :
#
#
# Convention : Reuss Voigt Hill
#
# Bulk Modulus (GPa) = 39.31747 51.65820 45.48784
# Shear Modulus (GPa) = 15.92771 26.11768 21.02270
#
# Velocity S-wave (km/s) = 2.54083 3.25362 2.91906
# Velocity P-wave (km/s) = 4.95419 5.92054 5.45879
#
# Compressibility (1/GPa) = 0.02543398
#
# Stress axis : x y z
#
# Youngs Moduli (GPa) = 24.00947 30.66525 56.36241
#
# Poissons Ratio (x) = 0.86984 0.11797
# Poissons Ratio (y) = 0.68104 0.15926
# Poissons Ratio (z) = 0.05025 0.08665
#
# Static dielectric constant tensor:
#      x y z
#    x 1.975350 0.000000 0.037660 
#    y 0.000000 2.037350 0.000000 
#    z 0.037660 0.000000 2.006490 
# 
# From -- ./inp_files/313979.got.cif
#   From: 2010.05.17/outbox.cif.g08.bks.cpg/sg15_157_cif.got.tgz:313979.got - 2010.06.03 18:47:42.
