data_PCOD9279001
_publ_section_title
;
Structure prediction by ZEFSAII (Michael W. Deem and Ramdas Pophale) SiO2 
 PCOD9279001
Probable space group: C 2/C
;
_chemical_formula_sum "Si O2"
_cell_formula_units_Z 64
_cell_length_a 18.625598
_cell_length_b 19.209592
_cell_length_c 10.190309
_cell_angle_alpha 90.000000
_cell_angle_beta 45.446661
_cell_angle_gamma 90.000000
_cell_volume 2598.125324
_symmetry_space_group_name_H-M "C 2/C"
_symmetry_group_IT_number 15
_symmetry_cell_setting 'monoclinic'
loop_
_space_group_symop_operation_xyz
x,y,z
-x,y,1/2-z
-x,-y,-z
x,-y,1/2+z
1/2+x,1/2+y,z
1/2-x,1/2+y,1/2-z
1/2-x,1/2-y,-z
1/2+x,1/2-y,1/2+z
loop_
_atom_site_type_symbol
_atom_site_label
_atom_site_fract_x
_atom_site_fract_y
_atom_site_fract_z
Si Si1 0.641674 0.263277 0.277255
Si Si2 0.308245 0.422600 0.259112
Si Si3 0.125623 0.768150 0.005598
Si Si4 0.923666 0.612850 0.468241
Si Si5 0.858401 0.831275 0.770784
Si Si6 0.310173 0.474672 0.974110
Si Si7 0.923886 0.438118 0.242628
Si Si8 0.874915 0.291540 0.437540
O O1 0.656248 0.343225 0.302241
O O2 0.752771 0.228440 0.124632
O O3 0.589594 0.219888 0.459033
O O4 0.589651 0.265599 0.202592
O O5 0.186130 0.419563 0.420416
O O6 0.337689 0.466303 0.091669
O O7 0.342834 0.457926 0.350085
O O8 0.097117 0.825285 0.933007
O O9 0.104473 0.693349 0.967750
O O10 0.965801 0.574632 0.543035
O O11 0.000000 0.614076 0.250000
O O12 0.900859 0.776210 0.819974
O O13 0.851630 0.907252 0.842519
O O14 0.745291 0.801382 0.899102
O O15 0.187425 0.470746 0.126284
O O16 0.905319 0.361744 0.327183
O O17 0.000000 0.471827 0.250000
#
# Coordination Sequence:
#
# PCOD9279001 Si02
#       8
#     8   8   8   8   8   8   8   8
#     4   9  17  29  48  72  94 117 154 202 250 294
#     4  10  21  35  48  69  99 133 169 202 237 284
#     4   9  17  29  48  72  93 119 153 198 256 294
#     4  10  21  35  48  68 101 133 165 205 240 281
#     4   9  15  29  50  68  89 120 153 198 254 293
#     4  10  21  34  49  69  98 133 168 204 239 283
#     4  10  21  34  49  70  96 133 173 200 235 289
#     4   9  15  29  50  68  90 118 154 202 249 291
#
# _framework density 24.633147000000001
#
# number of rings (size 3 to 8) (size 9 to 14) (size 15 to 20)
#    0.000    2.500    2.500    0.000    3.500    1.500 
#    0.000    2.500    0.000    0.000    0.000    0.000 
#    0.000    6.000    0.000    0.000    0.000    0.000 
#
# Total GULP energy -178875.557453 kJ/mol
# GULP energy per Si atom -5589.861170 kJ/mol
# Density = 2.457708 g / cm^3
# Si number density = 24.633147 Si / 1000 Ang^3
#
#
#
# Elastic Constant Matrix: (Units=GPa)
#
#
# Indices 1 2 3 4 5 6 
#
# 1 64.0296 -9.5317 20.1423 0.0000 14.6934 0.0000
# 2 -9.5317 30.6256 9.1417 0.0000 -2.7710 0.0000
# 3 20.1423 9.1417 125.8735 0.0000 25.5190 0.0000
# 4 0.0000 0.0000 0.0000 15.6118 0.0000 15.8390
# 5 14.6934 -2.7710 25.5190 0.0000 33.6226 0.0000
# 6 0.0000 0.0000 0.0000 15.8390 0.0000 9.4099
#
#
#
# Elastic Compliance Matrix: (Units=1/GPa)
#
#
# Indices 1 2 3 4 5 6 
#
# 1 0.018550 0.005887 -0.002187 0.000000 -0.005961 0.000000
# 2 0.005887 0.036103 -0.004309 0.000000 0.003673 0.000000
# 3 -0.002187 -0.004309 0.010029 0.000000 -0.007011 0.000000
# 4 0.000000 0.000000 0.000000 -0.090507 0.000000 0.152345
# 5 -0.005961 0.003673 -0.007011 0.000000 0.037971 0.000000
# 6 0.000000 0.000000 0.000000 0.152345 0.000000 -0.150160
#
#
# Mechanical properties :
#
#
# Convention : Reuss Voigt Hill
#
# Bulk Modulus (GPa) = 15.75698 28.89258 22.32478
# Shear Modulus (GPa) = -43.23697 25.11396 -9.06150
#
# Velocity S-wave (km/s) = -4.19410 3.19645 -1.92004
# Velocity P-wave (km/s) = 4.12837 5.03763 2.04136
#
# Compressibility (1/GPa) = 0.06346393
#
# Stress axis : x y z
#
# Youngs Moduli (GPa) = 53.90769 27.69846 99.71294
#
# Poissons Ratio (x) = -0.16306 0.21811
# Poissons Ratio (y) = -0.31736 0.42963
# Poissons Ratio (z) = 0.11792 0.11934
#
# Static dielectric constant tensor:
#      x y z
#    x 2.028220 0.000000 -0.077640 
#    y 0.000000 1.897140 0.000000 
#    z -0.077640 0.000000 2.084640 
# 
# From -- ./inp_files/63260.got.cif
#   From: 2010.05.17/outbox.cif.g08.bks.cpg/sg15_32_cif.got.tgz:63260.got - 2010.06.03 18:47:42.
