data_PCOD9279669
_publ_section_title
;
Structure prediction by ZEFSAII (Michael W. Deem and Ramdas Pophale) SiO2 
 PCOD9279669
Probable space group: C 2/C
;
_chemical_formula_sum "Si O2"
_cell_formula_units_Z 60
_cell_length_a 6.443259
_cell_length_b 29.638301
_cell_length_c 17.725146
_cell_angle_alpha 90.000000
_cell_angle_beta 90.778974
_cell_angle_gamma 90.000000
_cell_volume 3384.609548
_symmetry_space_group_name_H-M "C 2/C"
_symmetry_group_IT_number 15
_symmetry_cell_setting 'monoclinic'
loop_
_space_group_symop_operation_xyz
x,y,z
-x,y,1/2-z
-x,-y,-z
x,-y,1/2+z
1/2+x,1/2+y,z
1/2-x,1/2+y,1/2-z
1/2-x,1/2-y,-z
1/2+x,1/2-y,1/2+z
loop_
_atom_site_type_symbol
_atom_site_label
_atom_site_fract_x
_atom_site_fract_y
_atom_site_fract_z
Si Si1 0.073281 0.366652 0.055734
Si Si2 0.356673 0.283334 0.060051
Si Si3 0.866404 0.467784 0.677004
Si Si4 0.188488 0.834410 0.955712
Si Si5 0.204584 0.120471 0.094131
Si Si6 0.983297 0.702563 0.159287
Si Si7 0.000000 0.975945 0.250000
Si Si8 0.609726 0.946475 0.169536
O O1 0.189696 0.321202 0.082789
O O2 0.052812 0.404604 0.117975
O O3 0.224819 0.384434 0.991517
O O4 0.860832 0.355703 0.011304
O O5 0.421020 0.252382 0.130563
O O6 0.250000 0.250000 0.000000
O O7 0.543405 0.305096 0.011444
O O8 0.788351 0.423942 0.634304
O O9 0.662978 0.493842 0.705085
O O10 0.000000 0.452660 0.750000
O O11 0.015016 0.505769 0.639027
O O12 0.311362 0.808427 0.889784
O O13 0.039849 0.869886 0.911996
O O14 0.316453 0.164848 0.130117
O O15 0.000000 0.699872 0.250000
O O16 0.145729 0.949255 0.309722
O O17 0.500000 0.941085 0.250000
#
# Coordination Sequence:
#
# PCOD9279669 Si02
#       8
#     8   8   8   8   8   8   4   8
#     4  10  22  38  58  82 112 149 194 235 284 342
#     4  11  20  41  60  82 113 156 194 231 290 350
#     4   9  19  35  57  83 115 149 187 230 289 339
#     4  10  21  38  62  77 117 157 185 230 294 342
#     4  10  21  36  56  86 114 149 190 232 284 349
#     4  11  23  38  57  88 119 146 192 246 283 340
#     4   8  18  36  60  76 114 152 182 230 288 332
#     4   9  20  39  57  82 114 148 189 239 285 335
#
# _framework density 17.727302999999999
#
# number of rings (size 3 to 8) (size 9 to 14) (size 15 to 20)
#    0.000    2.400    4.000    0.800    0.000   10.667 
#    3.600    1.333    0.000    0.000    0.000    0.000 
#    0.000    0.000    0.000    0.000    0.000    0.000 
#
# Total GULP energy -167039.658892 kJ/mol
# GULP energy per Si atom -5567.988630 kJ/mol
# Density = 1.768695 g / cm^3
# Si number density = 17.727303 Si / 1000 Ang^3
#
#
#
# Elastic Constant Matrix: (Units=GPa)
#
#
# Indices 1 2 3 4 5 6 
#
# 1 103.6007 44.4190 30.4126 0.0000 21.2844 0.0000
# 2 44.4190 123.1811 56.7463 0.0000 15.7247 0.0000
# 3 30.4126 56.7463 84.9533 0.0000 10.2704 0.0000
# 4 0.0000 0.0000 0.0000 36.5258 0.0000 9.5124
# 5 21.2844 15.7247 10.2704 0.0000 13.6737 0.0000
# 6 0.0000 0.0000 0.0000 9.5124 0.0000 11.8111
#
#
#
# Elastic Compliance Matrix: (Units=1/GPa)
#
#
# Indices 1 2 3 4 5 6 
#
# 1 0.015132 -0.002213 -0.001538 0.000000 -0.019853 0.000000
# 2 -0.002213 0.012989 -0.007143 0.000000 -0.006127 0.000000
# 3 -0.001538 -0.007143 0.017390 0.000000 -0.002452 0.000000
# 4 0.000000 0.000000 0.000000 0.034644 0.000000 -0.027902
# 5 -0.019853 -0.006127 -0.002452 0.000000 0.112924 0.000000
# 6 0.000000 0.000000 0.000000 -0.027902 0.000000 0.107138
#
#
# Mechanical properties :
#
#
# Convention : Reuss Voigt Hill
#
# Bulk Modulus (GPa) = 42.15754 63.87677 53.01715
# Shear Modulus (GPa) = 15.15545 24.41260 19.78403
#
# Velocity S-wave (km/s) = 2.92708 3.71498 3.34431
# Velocity P-wave (km/s) = 5.93772 7.38327 6.69959
#
# Compressibility (1/GPa) = 0.02372055
#
# Stress axis : x y z
#
# Youngs Moduli (GPa) = 66.08573 76.98756 57.50474
#
# Poissons Ratio (x) = 0.17041 0.08847
# Poissons Ratio (y) = 0.14628 0.41077
# Poissons Ratio (z) = 0.10167 0.54994
#
# Static dielectric constant tensor:
#      x y z
#    x 1.660700 0.000000 0.016810 
#    y 0.000000 1.637560 0.000000 
#    z 0.016810 0.000000 1.600770 
# 
# From -- ./inp_files/186568.got.cif
#   From: 2010.05.17/outbox.cif.g08.bks.cpg/sg15_94_cif.got.tgz:186568.got - 2010.06.03 18:47:42.
