data_PCOD9279498
_publ_section_title
;
Structure prediction by ZEFSAII (Michael W. Deem and Ramdas Pophale) SiO2 
 PCOD9279498
Probable space group: C 2/C
;
_chemical_formula_sum "Si O2"
_cell_formula_units_Z 64
_cell_length_a 31.708662
_cell_length_b 11.578781
_cell_length_c 18.616925
_cell_angle_alpha 90.000000
_cell_angle_beta 25.546284
_cell_angle_gamma 90.000000
_cell_volume 2947.595030
_symmetry_space_group_name_H-M "C 2/C"
_symmetry_group_IT_number 15
_symmetry_cell_setting 'monoclinic'
loop_
_space_group_symop_operation_xyz
x,y,z
-x,y,1/2-z
-x,-y,-z
x,-y,1/2+z
1/2+x,1/2+y,z
1/2-x,1/2+y,1/2-z
1/2-x,1/2-y,-z
1/2+x,1/2-y,1/2+z
loop_
_atom_site_type_symbol
_atom_site_label
_atom_site_fract_x
_atom_site_fract_y
_atom_site_fract_z
Si Si1 0.892237 0.058793 0.603225
Si Si2 0.550045 0.075510 0.595230
Si Si3 0.919841 0.104812 0.925601
Si Si4 0.091524 0.351131 0.317406
Si Si5 0.120757 0.903318 0.750016
Si Si6 0.073584 0.320317 0.502479
Si Si7 0.210001 0.031179 0.961921
Si Si8 0.798155 0.775018 0.143531
O O1 0.832016 0.164701 0.664965
O O2 0.003723 0.099201 0.443591
O O3 0.903183 0.966209 0.523129
O O4 0.844268 0.993086 0.743551
O O5 0.500000 0.080214 0.750000
O O6 0.477241 0.121386 0.644380
O O7 0.645060 0.156462 0.452029
O O8 0.576398 0.945048 0.533895
O O9 0.000000 0.048791 0.750000
O O10 0.966482 0.225400 0.880870
O O11 0.820920 0.087185 0.030859
O O12 0.148841 0.230612 0.214456
O O13 0.034791 0.335212 0.480662
O O14 0.174484 0.448788 0.202467
O O15 0.154004 0.951036 0.622556
O O16 0.182241 0.269842 0.323750
O O17 0.177856 0.135025 0.957506
#
# Coordination Sequence:
#
# PCOD9279498 Si02
#       8
#     8   8   8   8   8   8   8   8
#     4  10  21  35  62  92 126 168 215 270 334 397
#     4  12  26  46  71  99 139 185 231 281 350 415
#     4  11  21  42  66  92 134 175 225 275 336 404
#     4  11  23  42  65  99 139 176 225 279 345 407
#     4  11  19  37  60  99 130 170 216 277 341 397
#     4  11  26  44  67  97 134 183 227 281 339 411
#     4  10  23  37  65 101 134 172 220 287 335 398
#     4  10  24  40  67  97 129 175 230 279 336 402
#
# _framework density 21.712616000000001
#
# number of rings (size 3 to 8) (size 9 to 14) (size 15 to 20)
#    0.000    1.250    3.750    1.875    5.250    2.000 
#    0.000    0.000    0.000    2.250    0.000    0.000 
#    0.000    0.000    0.000    0.000    0.000    0.000 
#
# Total GULP energy -178701.032927 kJ/mol
# GULP energy per Si atom -5584.407279 kJ/mol
# Density = 2.166320 g / cm^3
# Si number density = 21.712616 Si / 1000 Ang^3
#
#
#
# Elastic Constant Matrix: (Units=GPa)
#
#
# Indices 1 2 3 4 5 6 
#
# 1 102.4263 14.2156 19.4071 0.0000 11.1813 0.0000
# 2 14.2156 72.9755 -4.0674 0.0000 1.4333 0.0000
# 3 19.4071 -4.0674 30.5909 0.0000 2.8551 0.0000
# 4 0.0000 0.0000 0.0000 17.3116 0.0000 1.8239
# 5 11.1813 1.4333 2.8551 0.0000 28.9668 0.0000
# 6 0.0000 0.0000 0.0000 1.8239 0.0000 19.3180
#
#
#
# Elastic Compliance Matrix: (Units=1/GPa)
#
#
# Indices 1 2 3 4 5 6 
#
# 1 0.011987 -0.002686 -0.007612 0.000000 -0.003744 0.000000
# 2 -0.002686 0.014429 0.003626 0.000000 -0.000035 0.000000
# 3 -0.007612 0.003626 0.038094 0.000000 -0.000996 0.000000
# 4 0.000000 0.000000 0.000000 0.058345 0.000000 -0.005509
# 5 -0.003744 -0.000035 -0.000996 0.000000 0.036067 0.000000
# 6 0.000000 0.000000 0.000000 -0.005509 0.000000 0.052285
#
#
# Mechanical properties :
#
#
# Convention : Reuss Voigt Hill
#
# Bulk Modulus (GPa) = 19.54459 29.45590 24.50025
# Shear Modulus (GPa) = 20.69473 24.88177 22.78825
#
# Velocity S-wave (km/s) = 3.09061 3.38887 3.24317
# Velocity P-wave (km/s) = 4.66443 5.37665 5.03315
#
# Compressibility (1/GPa) = 0.05116506
#
# Stress axis : x y z
#
# Youngs Moduli (GPa) = 83.42442 69.30398 26.25098
#
# Poissons Ratio (x) = 0.18614 0.19983
# Poissons Ratio (y) = 0.22406 -0.09518
# Poissons Ratio (z) = 0.63505 -0.25127
#
# Static dielectric constant tensor:
#      x y z
#    x 1.846380 0.000000 -0.022940 
#    y 0.000000 1.857890 0.000000 
#    z -0.022940 0.000000 1.805850 
# 
# From -- ./inp_files/225137.got.cif
#   From: 2010.05.17/outbox.cif.g08.bks.cpg/sg15_113_cif.got.tgz:225137.got - 2010.06.03 18:47:42.
