data_PCOD9279750
_publ_section_title
;
Structure prediction by ZEFSAII (Michael W. Deem and Ramdas Pophale) SiO2 
 PCOD9279750
Probable space group: C 2/C
;
_chemical_formula_sum "Si O2"
_cell_formula_units_Z 64
_cell_length_a 14.814880
_cell_length_b 26.747283
_cell_length_c 9.501042
_cell_angle_alpha 90.000000
_cell_angle_beta 108.906657
_cell_angle_gamma 90.000000
_cell_volume 3561.738995
_symmetry_space_group_name_H-M "C 2/C"
_symmetry_group_IT_number 15
_symmetry_cell_setting 'monoclinic'
loop_
_space_group_symop_operation_xyz
x,y,z
-x,y,1/2-z
-x,-y,-z
x,-y,1/2+z
1/2+x,1/2+y,z
1/2-x,1/2+y,1/2-z
1/2-x,1/2-y,-z
1/2+x,1/2-y,1/2+z
loop_
_atom_site_type_symbol
_atom_site_label
_atom_site_fract_x
_atom_site_fract_y
_atom_site_fract_z
Si Si1 0.198627 0.663558 0.624226
Si Si2 0.105391 0.557155 0.624386
Si Si3 0.879754 0.542443 0.538837
Si Si4 0.106655 0.702457 0.851845
Si Si5 0.404451 0.320835 0.615150
Si Si6 0.792155 0.362126 0.868711
Si Si7 0.097443 0.188328 0.715967
Si Si8 0.888906 0.697307 0.191260
O O1 0.149408 0.609496 0.597923
O O2 0.179312 0.686450 0.767771
O O3 0.312010 0.662194 0.665902
O O4 0.147248 0.699635 0.486852
O O5 0.137200 0.546002 0.801850
O O6 0.131853 0.512558 0.531675
O O7 0.990147 0.558543 0.570463
O O8 0.815410 0.581305 0.420459
O O9 0.111502 0.761335 0.876457
O O10 0.000000 0.688982 0.750000
O O11 0.135505 0.671517 0.001960
O O12 0.500000 0.333545 0.750000
O O13 0.313820 0.348025 0.637313
O O14 0.411904 0.328446 0.450991
O O15 0.820518 0.343748 0.728303
O O16 0.116675 0.248328 0.738646
O O17 0.000000 0.179110 0.750000
O O18 0.000000 0.681848 0.250000
#
# Coordination Sequence:
#
# PCOD9279750 Si02
#       8
#     8   8   8   8   8   8   8   8
#     4  12  23  38  59  82 117 158 193 231 288 345
#     4  10  21  37  57  85 114 146 185 230 292 346
#     4  10  21  36  58  84 115 146 182 236 286 350
#     4  11  20  34  59  83 113 149 189 231 277 345
#     4  11  24  38  59  83 113 154 202 241 278 334
#     4  12  21  39  59  82 114 155 197 232 282 341
#     4  11  24  40  55  83 119 153 195 243 285 331
#     4  11  24  35  54  89 122 152 188 235 285 343
#
# _framework density 17.968751000000001
#
# number of rings (size 3 to 8) (size 9 to 14) (size 15 to 20)
#    0.000    1.000    3.750    3.750    8.750    0.000 
#    0.000    0.000    0.000    0.750    0.000    3.500 
#    0.000    0.000    0.000    0.000    0.000    0.000 
#
# Total GULP energy -178813.665952 kJ/mol
# GULP energy per Si atom -5587.927061 kJ/mol
# Density = 1.792785 g / cm^3
# Si number density = 17.968751 Si / 1000 Ang^3
#
#
#
# Elastic Constant Matrix: (Units=GPa)
#
#
# Indices 1 2 3 4 5 6 
#
# 1 81.1975 28.6400 7.4735 0.0000 5.9924 0.0000
# 2 28.6400 29.4429 14.0636 0.0000 2.2674 0.0000
# 3 7.4735 14.0636 39.2402 0.0000 3.5093 0.0000
# 4 0.0000 0.0000 0.0000 13.7039 0.0000 5.8354
# 5 5.9924 2.2674 3.5093 0.0000 25.2556 0.0000
# 6 0.0000 0.0000 0.0000 5.8354 0.0000 15.8225
#
#
#
# Elastic Compliance Matrix: (Units=1/GPa)
#
#
# Indices 1 2 3 4 5 6 
#
# 1 0.019444 -0.020549 0.003958 0.000000 -0.003319 0.000000
# 2 -0.020549 0.062765 -0.018746 0.000000 0.001846 0.000000
# 3 0.003958 -0.018746 0.031777 0.000000 -0.003672 0.000000
# 4 0.000000 0.000000 0.000000 0.086567 0.000000 -0.031926
# 5 -0.003319 0.001846 -0.003672 0.000000 0.040727 0.000000
# 6 0.000000 0.000000 0.000000 -0.031926 0.000000 0.074976
#
#
# Mechanical properties :
#
#
# Convention : Reuss Voigt Hill
#
# Bulk Modulus (GPa) = 23.08810 27.80385 25.44598
# Shear Modulus (GPa) = 12.45739 17.60331 15.03035
#
# Velocity S-wave (km/s) = 2.63588 3.13335 2.89532
# Velocity P-wave (km/s) = 4.70539 5.34767 5.03678
#
# Compressibility (1/GPa) = 0.04331235
#
# Stress axis : x y z
#
# Youngs Moduli (GPa) = 51.42871 15.93240 31.46913
#
# Poissons Ratio (x) = 0.32740 -0.12457
# Poissons Ratio (y) = 1.05682 0.58993
# Poissons Ratio (z) = -0.20357 0.29867
#
# Static dielectric constant tensor:
#      x y z
#    x 1.681710 0.000000 -0.044990 
#    y 0.000000 1.590260 0.000000 
#    z -0.044990 0.000000 1.654720 
# 
# From -- ./inp_files/43584.got.cif
#   From: 2010.05.17/outbox.cif.g08.bks.cpg/sg15_22_cif.got.tgz:43584.got - 2010.06.03 18:47:42.
