data_PCOD9279620
_publ_section_title
;
Structure prediction by ZEFSAII (Michael W. Deem and Ramdas Pophale) SiO2 
 PCOD9279620
Probable space group: C 2/C
;
_chemical_formula_sum "Si O2"
_cell_formula_units_Z 48
_cell_length_a 11.947412
_cell_length_b 11.763506
_cell_length_c 14.855078
_cell_angle_alpha 90.000000
_cell_angle_beta 111.599082
_cell_angle_gamma 90.000000
_cell_volume 1941.184741
_symmetry_space_group_name_H-M "C 2/C"
_symmetry_group_IT_number 15
_symmetry_cell_setting 'monoclinic'
loop_
_space_group_symop_operation_xyz
x,y,z
-x,y,1/2-z
-x,-y,-z
x,-y,1/2+z
1/2+x,1/2+y,z
1/2-x,1/2+y,1/2-z
1/2-x,1/2-y,-z
1/2+x,1/2-y,1/2+z
loop_
_atom_site_type_symbol
_atom_site_label
_atom_site_fract_x
_atom_site_fract_y
_atom_site_fract_z
Si Si1 0.441482 0.758232 0.829510
Si Si2 0.331011 0.336365 0.727243
Si Si3 0.631702 0.512381 0.636823
Si Si4 0.813628 0.910897 0.532099
Si Si5 0.552415 0.828836 0.475076
Si Si6 0.393033 0.092483 0.768716
O O1 0.500000 0.772644 0.750000
O O2 0.304009 0.803002 0.784975
O O3 0.440060 0.623390 0.852899
O O4 0.488365 0.823272 0.932614
O O5 0.403349 0.393507 0.829499
O O6 0.339055 0.420227 0.645133
O O7 0.378004 0.212952 0.712399
O O8 0.641959 0.505284 0.532404
O O9 0.765474 0.533624 0.718601
O O10 0.667934 0.908581 0.488571
O O11 0.877944 0.792498 0.520089
O O12 0.441987 0.870285 0.380683
O O13 0.500000 0.027758 0.750000
#
# Coordination Sequence:
#
# PCOD9279620 Si02
#       6
#     8   8   8   8   8   8
#     4   9  20  40  55  72 113 149 169 215 277 319
#     4  10  21  36  55  81 110 138 179 224 266 314
#     4  10  21  36  55  81 110 138 179 224 266 314
#     4   9  16  34  56  77 108 140 174 223 268 309
#     4   9  16  33  60  80  98 141 185 218 263 313
#     4  11  18  34  61  83 103 134 187 228 257 314
#
# _framework density 24.727166
#
# number of rings (size 3 to 8) (size 9 to 14) (size 15 to 20)
#    0.000    2.333    3.333    2.000    0.000    1.333 
#    6.000    5.000    0.000    0.000    0.000    0.000 
#    0.000    0.000    0.000    0.000    0.000    0.000 
#
# Total GULP energy -134025.466542 kJ/mol
# GULP energy per Si atom -5584.394439 kJ/mol
# Density = 2.467089 g / cm^3
# Si number density = 24.727166 Si / 1000 Ang^3
#
#
#
# Elastic Constant Matrix: (Units=GPa)
#
#
# Indices 1 2 3 4 5 6 
#
# 1 116.5222 -5.3989 57.5360 0.0000 -2.8788 0.0000
# 2 -5.3989 67.7584 3.9934 0.0000 -2.8940 0.0000
# 3 57.5360 3.9934 120.4849 0.0000 -36.7106 0.0000
# 4 0.0000 0.0000 0.0000 26.4221 0.0000 0.9049
# 5 -2.8788 -2.8940 -36.7106 0.0000 47.9822 0.0000
# 6 0.0000 0.0000 0.0000 0.9049 0.0000 7.8002
#
#
#
# Elastic Compliance Matrix: (Units=1/GPa)
#
#
# Indices 1 2 3 4 5 6 
#
# 1 0.012112 0.001190 -0.007277 0.000000 -0.004769 0.000000
# 2 0.001190 0.014921 -0.001000 0.000000 0.000206 0.000000
# 3 -0.007277 -0.001000 0.015200 0.000000 0.011132 0.000000
# 4 0.000000 0.000000 0.000000 0.037998 0.000000 -0.004408
# 5 -0.004769 0.000206 0.011132 0.000000 0.029084 0.000000
# 6 0.000000 0.000000 0.000000 -0.004408 0.000000 0.128713
#
#
# Mechanical properties :
#
#
# Convention : Reuss Voigt Hill
#
# Bulk Modulus (GPa) = 35.63772 46.33626 40.98699
# Shear Modulus (GPa) = 19.11644 33.01657 26.06650
#
# Velocity S-wave (km/s) = 2.78347 3.65805 3.25031
# Velocity P-wave (km/s) = 4.97735 6.05157 5.54055
#
# Compressibility (1/GPa) = 0.02806016
#
# Stress axis : x y z
#
# Youngs Moduli (GPa) = 82.56021 67.02002 65.79115
#
# Poissons Ratio (x) = -0.07977 0.47873
# Poissons Ratio (y) = -0.09827 0.06580
# Poissons Ratio (z) = 0.60075 0.06703
#
# Static dielectric constant tensor:
#      x y z
#    x 2.139650 0.000000 0.012530 
#    y 0.000000 1.989270 0.000000 
#    z 0.012530 0.000000 1.978160 
# 
# From -- ./inp_files/143756.got.cif
#   From: 2010.05.17/outbox.cif.g08.bks.cpg/sg15_72_cif.got.tgz:143756.got - 2010.06.03 18:47:42.
