data_PCOD9279317
_publ_section_title
;
Structure prediction by ZEFSAII (Michael W. Deem and Ramdas Pophale) SiO2 
 PCOD9279317
Probable space group: C 2/C
;
_chemical_formula_sum "Si O2"
_cell_formula_units_Z 64
_cell_length_a 9.361855
_cell_length_b 30.037735
_cell_length_c 24.403239
_cell_angle_alpha 90.000000
_cell_angle_beta 31.060810
_cell_angle_gamma 90.000000
_cell_volume 3540.642675
_symmetry_space_group_name_H-M "C 2/C"
_symmetry_group_IT_number 15
_symmetry_cell_setting 'monoclinic'
loop_
_space_group_symop_operation_xyz
x,y,z
-x,y,1/2-z
-x,-y,-z
x,-y,1/2+z
1/2+x,1/2+y,z
1/2-x,1/2+y,1/2-z
1/2-x,1/2-y,-z
1/2+x,1/2-y,1/2+z
loop_
_atom_site_type_symbol
_atom_site_label
_atom_site_fract_x
_atom_site_fract_y
_atom_site_fract_z
Si Si1 0.506082 0.566771 0.536613
Si Si2 0.782674 0.249828 0.130569
Si Si3 0.169330 0.026398 0.365421
Si Si4 0.931243 0.383457 0.617639
Si Si5 0.948903 0.900569 0.859122
Si Si6 0.240856 0.683872 0.495192
Si Si7 0.284748 0.203938 0.458293
Si Si8 0.206688 0.656624 0.632031
O O1 0.581533 0.548062 0.452012
O O2 0.412723 0.525376 0.604339
O O3 0.268534 0.603953 0.608951
O O4 0.782328 0.590590 0.468079
O O5 0.500000 0.266719 0.250000
O O6 0.672353 0.218244 0.118391
O O7 0.982733 0.291474 0.050730
O O8 0.997003 0.217748 0.092728
O O9 0.500000 0.030854 0.250000
O O10 0.008239 0.054041 0.371972
O O11 0.737474 0.388163 0.734625
O O12 0.770647 0.402492 0.618132
O O13 0.993918 0.330837 0.591661
O O14 0.841142 0.861939 0.935138
O O15 0.152573 0.675030 0.588055
O O16 0.250000 0.250000 0.500000
O O17 0.992862 0.179263 0.555209
O O18 0.000000 0.666056 0.750000
#
# Coordination Sequence:
#
# PCOD9279317 Si02
#       8
#     8   8   8   8   8   8   8   8
#     4  10  21  39  60  89 114 152 204 239 296 365
#     4  10  21  35  57  81 111 157 202 250 292 357
#     4  11  21  36  66  89 115 152 194 250 299 368
#     4  10  22  38  61  88 122 158 193 245 304 353
#     4  11  21  38  60  89 122 153 190 250 301 361
#     4  10  21  37  55  84 117 153 202 250 303 351
#     4  10  21  37  55  83 116 157 200 243 288 358
#     4  10  21  37  57  80 117 154 196 250 295 350
#
# _framework density 18.075816
#
# number of rings (size 3 to 8) (size 9 to 14) (size 15 to 20)
#    0.000    1.750    2.500    1.875    1.750    1.000 
#    4.500    0.000    0.000    0.000    0.000    0.000 
#    0.000    0.000    0.000    0.000    0.000    0.000 
#
# Total GULP energy -178371.321585 kJ/mol
# GULP energy per Si atom -5574.103800 kJ/mol
# Density = 1.803467 g / cm^3
# Si number density = 18.075816 Si / 1000 Ang^3
#
#
#
# Elastic Constant Matrix: (Units=GPa)
#
#
# Indices 1 2 3 4 5 6 
#
# 1 61.7992 32.8007 24.3243 0.0000 -2.3479 0.0001
# 2 32.8007 110.0056 12.8121 -0.0003 0.7054 0.0002
# 3 24.3243 12.8121 58.2946 -0.0052 8.7763 0.0033
# 4 0.0000 -0.0003 -0.0052 20.2715 0.0003 9.1444
# 5 -2.3479 0.7054 8.7763 0.0003 20.6661 0.0002
# 6 0.0001 0.0002 0.0033 9.1444 0.0002 25.3864
#
#
#
# Elastic Compliance Matrix: (Units=1/GPa)
#
#
# Indices 1 2 3 4 5 6 
#
# 1 0.023289 -0.005887 -0.009457 -0.000004 0.006863 0.000002
# 2 -0.005887 0.010824 0.000250 0.000000 -0.001144 0.000000
# 3 -0.009457 0.000250 0.022657 0.000009 -0.010705 -0.000006
# 4 -0.000004 0.000000 0.000009 0.058901 -0.000005 -0.021217
# 5 0.006863 -0.001144 -0.010705 -0.000005 0.053753 0.000003
# 6 0.000002 0.000000 -0.000006 -0.021217 0.000003 0.047034
#
#
# Mechanical properties :
#
#
# Convention : Reuss Voigt Hill
#
# Bulk Modulus (GPa) = 37.61980 41.10820 39.36400
# Shear Modulus (GPa) = 19.56893 23.94228 21.75560
#
# Velocity S-wave (km/s) = 3.29386 3.64338 3.47302
# Velocity P-wave (km/s) = 5.94335 6.36321 6.15686
#
# Compressibility (1/GPa) = 0.02658175
#
# Stress axis : x y z
#
# Youngs Moduli (GPa) = 42.93879 92.38766 44.13622
#
# Poissons Ratio (x) = 0.54386 0.41740
# Poissons Ratio (y) = 0.25277 -0.01102
# Poissons Ratio (z) = 0.40608 -0.02307
#
# Static dielectric constant tensor:
#      x y z
#    x 1.638650 0.000000 0.044420 
#    y 0.000000 1.625520 0.000000 
#    z 0.044420 0.000000 1.617560 
# 
# From -- ./inp_files/266737.got.cif
#   From: 2010.05.17/outbox.cif.g08.bks.cpg/sg15_134_cif.got.tgz:266737.got - 2010.06.03 18:47:42.
