data_PCOD9279430
_publ_section_title
;
Structure prediction by ZEFSAII (Michael W. Deem and Ramdas Pophale) SiO2 
 PCOD9279430
Probable space group: C 2/C
;
_chemical_formula_sum "Si O2"
_cell_formula_units_Z 60
_cell_length_a 32.293317
_cell_length_b 15.609025
_cell_length_c 12.687848
_cell_angle_alpha 90.000000
_cell_angle_beta 24.802467
_cell_angle_gamma 90.000000
_cell_volume 2682.867480
_symmetry_space_group_name_H-M "C 2/C"
_symmetry_group_IT_number 15
_symmetry_cell_setting 'monoclinic'
loop_
_space_group_symop_operation_xyz
x,y,z
-x,y,1/2-z
-x,-y,-z
x,-y,1/2+z
1/2+x,1/2+y,z
1/2-x,1/2+y,1/2-z
1/2-x,1/2-y,-z
1/2+x,1/2-y,1/2+z
loop_
_atom_site_type_symbol
_atom_site_label
_atom_site_fract_x
_atom_site_fract_y
_atom_site_fract_z
Si Si1 0.676189 0.085069 0.713514
Si Si2 0.857383 0.988897 0.363498
Si Si3 0.494094 0.237073 0.558329
Si Si4 0.722097 0.194574 0.421124
Si Si5 0.000000 0.577777 0.250000
Si Si6 0.080944 0.440572 0.223395
Si Si7 0.529135 0.407677 0.566166
Si Si8 0.416496 0.681862 0.855312
O O1 0.736053 0.154393 0.505865
O O2 0.618698 0.033714 0.752903
O O3 0.749479 0.029178 0.613044
O O4 0.588292 0.124499 0.986004
O O5 0.883527 0.907734 0.376495
O O6 0.937958 0.061389 0.204392
O O7 0.877818 0.956798 0.196850
O O8 0.375297 0.252626 0.841603
O O9 0.498977 0.136518 0.575882
O O10 0.542938 0.305814 0.523185
O O11 0.539117 0.259366 0.340537
O O12 0.674866 0.114011 0.465123
O O13 0.819703 0.220318 0.135961
O O14 0.050413 0.515411 0.218701
O O15 0.500000 0.431783 0.750000
O O16 0.500000 0.666092 0.750000
#
# Coordination Sequence:
#
# PCOD9279430 Si02
#       8
#     8   8   8   8   4   8   8   8
#     4   9  22  37  59  88 121 152 210 248 302 376
#     4  10  22  36  56  91 119 157 207 252 316 370
#     4   8  21  40  54  90 118 161 207 240 302 375
#     4   8  21  40  57  85 123 152 204 247 298 365
#     4  12  18  38  68  84 120 168 190 266 316 344
#     4   8  21  38  60  88 125 156 210 248 300 374
#     4  10  21  35  60  85 123 157 199 259 311 369
#     4  11  21  37  66  84 125 167 200 259 310 355
#
# _framework density 22.364131
#
# number of rings (size 3 to 8) (size 9 to 14) (size 15 to 20)
#    1.600    0.800    0.000    1.600    8.400    0.533 
#    7.200    1.333    0.000    4.000    0.000    0.000 
#    0.000    0.000    0.000    0.000    0.000    0.000 
#
# Total GULP energy -167103.098662 kJ/mol
# GULP energy per Si atom -5570.103289 kJ/mol
# Density = 2.231323 g / cm^3
# Si number density = 22.364131 Si / 1000 Ang^3
#
#
#
# Elastic Constant Matrix: (Units=GPa)
#
#
# Indices 1 2 3 4 5 6 
#
# 1 32.2557 -4.0922 7.1567 0.0000 10.8492 0.0000
# 2 -4.0922 70.7766 7.6246 0.0000 -0.8341 0.0000
# 3 7.1567 7.6246 150.5513 0.0000 22.6784 0.0000
# 4 0.0000 0.0000 0.0000 -265.2970 0.0000 -15.9072
# 5 10.8492 -0.8341 22.6784 0.0000 28.2896 0.0000
# 6 0.0000 0.0000 0.0000 -15.9072 0.0000 19.7988
#
#
#
# Elastic Compliance Matrix: (Units=1/GPa)
#
#
# Indices 1 2 3 4 5 6 
#
# 1 0.035862 0.001877 0.000300 0.000000 -0.013938 0.000000
# 2 0.001877 0.014337 -0.000876 0.000000 0.000405 0.000000
# 3 0.000300 -0.000876 0.007613 0.000000 -0.006244 0.000000
# 4 0.000000 0.000000 0.000000 -0.003596 0.000000 -0.002889
# 5 -0.013938 0.000405 -0.006244 0.000000 0.045711 0.000000
# 6 0.000000 0.000000 0.000000 -0.002889 0.000000 0.048187
#
#
# Mechanical properties :
#
#
# Convention : Reuss Voigt Hill
#
# Bulk Modulus (GPa) = 16.55291 30.55131 23.55211
# Shear Modulus (GPa) = 30.18405 -27.24876 1.46765
#
# Velocity S-wave (km/s) = 3.67776 -3.49436 0.81097
# Velocity P-wave (km/s) = 5.04502 1.60943 3.38097
#
# Compressibility (1/GPa) = 0.06041233
#
# Stress axis : x y z
#
# Youngs Moduli (GPa) = 27.88462 69.75118 131.35590
#
# Poissons Ratio (x) = -0.13092 -0.03938
# Poissons Ratio (y) = -0.05234 0.11512
# Poissons Ratio (z) = -0.00836 0.06113
#
# Static dielectric constant tensor:
#      x y z
#    x 1.826120 0.000000 0.012390 
#    y 0.000000 1.900350 0.000000 
#    z 0.012390 0.000000 1.849390 
# 
# From -- ./inp_files/127414.got.cif
#   From: 2010.05.17/outbox.cif.g08.bks.cpg/sg15_64_cif.got.tgz:127414.got - 2010.06.03 18:47:42.
