data_PCOD9279989
_publ_section_title
;
Structure prediction by ZEFSAII (Michael W. Deem and Ramdas Pophale) SiO2 
 PCOD9279989
Probable space group: C 2/C
;
_chemical_formula_sum "Si O2"
_cell_formula_units_Z 64
_cell_length_a 14.344744
_cell_length_b 24.180647
_cell_length_c 8.014340
_cell_angle_alpha 90.000000
_cell_angle_beta 105.229799
_cell_angle_gamma 90.000000
_cell_volume 2682.265647
_symmetry_space_group_name_H-M "C 2/C"
_symmetry_group_IT_number 15
_symmetry_cell_setting 'monoclinic'
loop_
_space_group_symop_operation_xyz
x,y,z
-x,y,1/2-z
-x,-y,-z
x,-y,1/2+z
1/2+x,1/2+y,z
1/2-x,1/2+y,1/2-z
1/2-x,1/2-y,-z
1/2+x,1/2-y,1/2+z
loop_
_atom_site_type_symbol
_atom_site_label
_atom_site_fract_x
_atom_site_fract_y
_atom_site_fract_z
Si Si1 0.907817 0.261995 0.015083
Si Si2 0.278576 0.467983 0.194591
Si Si3 0.056354 0.151703 0.613681
Si Si4 0.208106 0.190194 0.284678
Si Si5 0.726448 0.651237 0.933170
Si Si6 0.557983 0.047268 0.611341
Si Si7 0.856440 0.077813 0.078694
Si Si8 0.447690 0.162733 0.049016
O O1 0.967889 0.213250 0.952463
O O2 0.814841 0.285567 0.870391
O O3 0.983840 0.310898 0.057538
O O4 0.864589 0.232059 0.157372
O O5 0.165853 0.476595 0.180626
O O6 0.316187 0.443418 0.384193
O O7 0.279169 0.416475 0.062697
O O8 0.341643 0.522169 0.179566
O O9 0.048961 0.109633 0.454004
O O10 0.000000 0.131279 0.750000
O O11 0.165113 0.162389 0.737747
O O12 0.185381 0.178212 0.081430
O O13 0.200088 0.129477 0.367451
O O14 0.834353 0.676061 0.976368
O O15 0.500000 0.063409 0.750000
O O16 0.556644 0.097819 0.484100
O O17 0.500000 0.000000 0.500000
O O18 0.500000 0.175304 0.250000
#
# Coordination Sequence:
#
# PCOD9279989 Si02
#       8
#     8   8   8   8   8   8   8   8
#     4  10  22  40  61  88 129 171 215 264 327 369
#     4  10  21  36  62  93 126 175 215 262 329 389
#     4  10  23  45  68  92 128 167 218 279 328 387
#     4  10  21  38  64  91 125 173 214 268 316 381
#     4  10  22  41  66  96 128 169 220 264 327 394
#     4  11  24  36  55  90 129 174 216 263 312 387
#     4  10  21  39  65  91 130 168 209 271 326 381
#     4  11  22  40  62  93 131 172 215 266 319 392
#
# _framework density 23.860423999999998
#
# number of rings (size 3 to 8) (size 9 to 14) (size 15 to 20)
#    0.000    1.750    1.250    2.250    3.500    2.500 
#    2.250    5.000    0.000    0.000    0.000    0.000 
#    0.000    0.000    0.000    0.000    0.000    0.000 
#
# Total GULP energy -178539.127343 kJ/mol
# GULP energy per Si atom -5579.347729 kJ/mol
# Density = 2.380612 g / cm^3
# Si number density = 23.860424 Si / 1000 Ang^3
#
#
#
# Elastic Constant Matrix: (Units=GPa)
#
#
# Indices 1 2 3 4 5 6 
#
# 1 70.3243 13.4263 1.5366 0.0000 -7.0418 0.0000
# 2 13.4263 94.1777 4.9597 0.0000 -5.1368 0.0000
# 3 1.5366 4.9597 80.2226 0.0000 -2.9728 0.0000
# 4 0.0000 0.0000 0.0000 34.6404 0.0000 -16.7821
# 5 -7.0418 -5.1368 -2.9728 0.0000 22.2417 0.0000
# 6 0.0000 0.0000 0.0000 -16.7821 0.0000 50.7016
#
#
#
# Elastic Compliance Matrix: (Units=1/GPa)
#
#
# Indices 1 2 3 4 5 6 
#
# 1 0.015016 -0.001905 -0.000010 0.000000 0.004313 0.000000
# 2 -0.001905 0.011022 -0.000576 0.000000 0.001865 0.000000
# 3 -0.000010 -0.000576 0.012558 0.000000 0.001542 0.000000
# 4 0.000000 0.000000 0.000000 0.034381 0.000000 0.011380
# 5 0.004313 0.001865 0.001542 0.000000 0.046963 0.000000
# 6 0.000000 0.000000 0.000000 0.011380 0.000000 0.023490
#
#
# Mechanical properties :
#
#
# Convention : Reuss Voigt Hill
#
# Bulk Modulus (GPa) = 29.74931 31.61887 30.68409
# Shear Modulus (GPa) = 31.32509 36.50353 33.91431
#
# Velocity S-wave (km/s) = 3.62725 3.91561 3.77419
# Velocity P-wave (km/s) = 5.48067 5.80715 5.64627
#
# Compressibility (1/GPa) = 0.03361422
#
# Stress axis : x y z
#
# Youngs Moduli (GPa) = 66.59755 90.72867 79.62882
#
# Poissons Ratio (x) = 0.17283 0.00080
# Poissons Ratio (y) = 0.12686 0.04585
# Poissons Ratio (z) = 0.00067 0.05224
#
# Static dielectric constant tensor:
#      x y z
#    x 1.950480 0.000000 0.102340 
#    y 0.000000 1.914430 0.000000 
#    z 0.102340 0.000000 1.904960 
# 
# From -- ./inp_files/43554.got.cif
#   From: 2010.05.17/outbox.cif.g08.bks.cpg/sg15_22_cif.got.tgz:43554.got - 2010.06.03 18:47:42.
