data_PCOD9279727
_publ_section_title
;
Structure prediction by ZEFSAII (Michael W. Deem and Ramdas Pophale) SiO2 
 PCOD9279727
Probable space group: C 2/C
;
_chemical_formula_sum "Si O2"
_cell_formula_units_Z 40
_cell_length_a 13.806995
_cell_length_b 13.034656
_cell_length_c 21.500782
_cell_angle_alpha 90.000000
_cell_angle_beta 155.632907
_cell_angle_gamma 90.000000
_cell_volume 1596.476619
_symmetry_space_group_name_H-M "C 2/C"
_symmetry_group_IT_number 15
_symmetry_cell_setting 'monoclinic'
loop_
_space_group_symop_operation_xyz
x,y,z
-x,y,1/2-z
-x,-y,-z
x,-y,1/2+z
1/2+x,1/2+y,z
1/2-x,1/2+y,1/2-z
1/2-x,1/2-y,-z
1/2+x,1/2-y,1/2+z
loop_
_atom_site_type_symbol
_atom_site_label
_atom_site_fract_x
_atom_site_fract_y
_atom_site_fract_z
Si Si1 0.537536 0.337219 0.605463
Si Si2 0.755448 0.069028 0.631379
Si Si3 0.040048 0.741042 0.427140
Si Si4 0.696200 0.560763 0.692080
Si Si5 0.688030 0.869040 0.510277
O O1 0.590334 0.451413 0.611001
O O2 0.367561 0.240486 0.490228
O O3 0.421777 0.359801 0.605786
O O4 0.793290 0.286343 0.751162
O O5 0.579415 0.149870 0.498532
O O6 0.779495 0.058544 0.718546
O O7 0.000000 0.111489 0.750000
O O8 0.716270 0.960052 0.575815
O O9 0.250000 0.750000 0.500000
O O10 0.987669 0.848923 0.429715
O O11 0.965993 0.596158 0.835311
#
# Coordination Sequence:
#
# PCOD9279727 Si02
#       5
#     8   8   8   8   8
#     4  10  21  37  58  85 123 161 197 251 303 357
#     4  12  21  37  65  94 122 159 207 251 300 363
#     4  11  22  37  58  91 122 157 204 252 302 355
#     4  11  22  38  63  90 123 163 199 254 302 363
#     4  10  21  36  57  89 122 156 204 248 300 361
#
# _framework density 25.055174000000001
#
# number of rings (size 3 to 8) (size 9 to 14) (size 15 to 20)
#    0.000    1.200    6.000    0.600    0.000    0.000 
#    0.000    0.000    0.000    8.400    0.000    0.000 
#    0.000    0.000    0.000    0.000    0.000    0.000 
#
# Total GULP energy -111713.256965 kJ/mol
# GULP energy per Si atom -5585.662848 kJ/mol
# Density = 2.499815 g / cm^3
# Si number density = 25.055174 Si / 1000 Ang^3
#
#
#
# Elastic Constant Matrix: (Units=GPa)
#
#
# Indices 1 2 3 4 5 6 
#
# 1 92.8058 29.1948 32.3867 0.0000 12.4811 -0.0016
# 2 29.1948 222.3881 21.5171 0.0062 -11.7562 0.0037
# 3 32.3867 21.5171 69.8326 0.0115 31.4312 0.0063
# 4 0.0000 0.0062 0.0115 50.5604 -0.0024 13.3507
# 5 12.4811 -11.7562 31.4312 -0.0024 46.2908 -0.0024
# 6 -0.0016 0.0037 0.0063 13.3507 -0.0024 2.6410
#
#
#
# Elastic Compliance Matrix: (Units=1/GPa)
#
#
# Indices 1 2 3 4 5 6 
#
# 1 0.013145 -0.001163 -0.005775 0.000014 0.000082 -0.000048
# 2 -0.001163 0.005067 -0.002509 0.000001 0.003304 -0.000002
# 3 -0.005775 -0.002509 0.024997 -0.000040 -0.016053 0.000130
# 4 0.000014 0.000001 -0.000040 -0.059070 0.000036 0.298605
# 5 0.000082 0.003304 -0.016053 0.000036 0.033319 -0.000119
# 6 -0.000048 -0.000002 0.000130 0.298605 -0.000119 -1.130842
#
#
# Mechanical properties :
#
#
# Convention : Reuss Voigt Hill
#
# Bulk Modulus (GPa) = 41.12641 61.24708 51.18674
# Shear Modulus (GPa) = -4.60242 40.02699 17.71229
#
# Velocity S-wave (km/s) = -1.35680 4.00128 2.66170
# Velocity P-wave (km/s) = 3.74105 6.77089 5.46993
#
# Compressibility (1/GPa) = 0.02431528
#
# Stress axis : x y z
#
# Youngs Moduli (GPa) = 76.07318 197.36788 40.00558
#
# Poissons Ratio (x) = 0.22946 0.23103
# Poissons Ratio (y) = 0.08844 0.10037
# Poissons Ratio (z) = 0.43932 0.49520
#
# Static dielectric constant tensor:
#      x y z
#    x 1.991950 0.000000 0.000610 
#    y 0.000000 2.001750 0.000000 
#    z 0.000610 0.000000 2.064340 
# 
# From -- ./inp_files/316105.got.cif
#   From: 2010.05.17/outbox.cif.g08.bks.cpg/sg15_159_cif.got.tgz:316105.got - 2010.06.03 18:47:42.
