data_PCOD9279667
_publ_section_title
;
Structure prediction by ZEFSAII (Michael W. Deem and Ramdas Pophale) SiO2 
 PCOD9279667
Probable space group: C 2/C
;
_chemical_formula_sum "Si O2"
_cell_formula_units_Z 56
_cell_length_a 18.270636
_cell_length_b 24.113592
_cell_length_c 8.280568
_cell_angle_alpha 90.000000
_cell_angle_beta 134.900913
_cell_angle_gamma 90.000000
_cell_volume 2584.106884
_symmetry_space_group_name_H-M "C 2/C"
_symmetry_group_IT_number 15
_symmetry_cell_setting 'monoclinic'
loop_
_space_group_symop_operation_xyz
x,y,z
-x,y,1/2-z
-x,-y,-z
x,-y,1/2+z
1/2+x,1/2+y,z
1/2-x,1/2+y,1/2-z
1/2-x,1/2-y,-z
1/2+x,1/2-y,1/2+z
loop_
_atom_site_type_symbol
_atom_site_label
_atom_site_fract_x
_atom_site_fract_y
_atom_site_fract_z
Si Si1 0.776069 0.821570 0.326336
Si Si2 0.708922 0.672191 0.036897
Si Si3 0.088820 0.274586 0.487516
Si Si4 0.931062 0.262683 0.511009
Si Si5 0.268255 0.059934 0.221177
Si Si6 0.223206 0.566632 0.877859
Si Si7 0.004106 0.436905 0.449970
O O1 0.859420 0.777691 0.520981
O O2 0.664118 0.798330 0.202596
O O3 0.790761 0.883887 0.409772
O O4 0.779166 0.817294 0.135632
O O5 0.815282 0.690912 0.293538
O O6 0.621466 0.710161 0.982886
O O7 0.691434 0.606836 0.036857
O O8 0.000000 0.307245 0.250000
O O9 0.017148 0.249101 0.514774
O O10 0.000000 0.295542 0.750000
O O11 0.268980 0.064033 0.416270
O O12 0.380057 0.079777 0.323821
O O13 0.254789 0.995446 0.152845
O O14 0.104450 0.584567 0.652421
O O15 0.000000 0.434934 0.250000
O O16 0.000000 0.500000 0.500000
#
# Coordination Sequence:
#
# PCOD9279667 Si02
#       7
#     8   8   8   8   8   8   8
#     4  11  23  39  62  93 120 163 206 242 305 367
#     4  11  23  39  63  91 122 162 207 242 304 368
#     4  11  25  40  63  92 125 156 202 256 301 358
#     4  11  21  42  64  88 123 164 198 248 308 357
#     4  10  21  36  56  85 121 159 202 250 299 361
#     4  10  21  36  57  85 122 159 201 251 301 358
#     4   8  16  30  47  73 108 148 187 229 286 344
#
# _framework density 21.670929000000001
#
# number of rings (size 3 to 8) (size 9 to 14) (size 15 to 20)
#    0.000    1.714    2.857    1.714    6.000    2.857 
#    0.000    0.714    0.000    1.714    0.000    0.000 
#    0.000    0.000    0.000    0.000    0.000    0.000 
#
# Total GULP energy -156168.805286 kJ/mol
# GULP energy per Si atom -5577.457332 kJ/mol
# Density = 2.162161 g / cm^3
# Si number density = 21.670929 Si / 1000 Ang^3
#
#
#
# Elastic Constant Matrix: (Units=GPa)
#
#
# Indices 1 2 3 4 5 6 
#
# 1 71.6076 36.8246 5.4676 0.0000 11.9911 0.0000
# 2 36.8246 141.2688 6.1743 0.0000 0.3036 0.0000
# 3 5.4676 6.1743 61.2611 0.0000 4.6909 0.0000
# 4 0.0000 0.0000 0.0000 21.8562 0.0000 -2.2034
# 5 11.9911 0.3036 4.6909 0.0000 15.9626 0.0000
# 6 0.0000 0.0000 0.0000 -2.2034 0.0000 33.1672
#
#
#
# Elastic Compliance Matrix: (Units=1/GPa)
#
#
# Indices 1 2 3 4 5 6 
#
# 1 0.018826 -0.004872 -0.000116 0.000000 -0.014016 0.000000
# 2 -0.004872 0.008371 -0.000692 0.000000 0.003704 0.000000
# 3 -0.000116 -0.000692 0.016773 0.000000 -0.004829 0.000000
# 4 0.000000 0.000000 0.000000 0.046062 0.000000 0.003060
# 5 -0.014016 0.003704 -0.004829 0.000000 0.074523 0.000000
# 6 0.000000 0.000000 0.000000 0.003060 0.000000 0.030354
#
#
# Mechanical properties :
#
#
# Convention : Reuss Voigt Hill
#
# Bulk Modulus (GPa) = 30.66598 41.23003 35.94801
# Shear Modulus (GPa) = 23.02648 29.24194 26.13421
#
# Velocity S-wave (km/s) = 3.26322 3.67735 3.47646
# Velocity P-wave (km/s) = 5.32725 6.09076 5.72175
#
# Compressibility (1/GPa) = 0.03260942
#
# Stress axis : x y z
#
# Youngs Moduli (GPa) = 53.11673 119.45896 59.61792
#
# Poissons Ratio (x) = 0.58204 0.00692
# Poissons Ratio (y) = 0.25880 0.04128
# Poissons Ratio (z) = 0.00616 0.08272
#
# Static dielectric constant tensor:
#      x y z
#    x 1.808240 0.000000 -0.023170 
#    y 0.000000 1.777900 0.000000 
#    z -0.023170 0.000000 1.858410 
# 
# From -- ./inp_files/51563.got.cif
#   From: 2010.05.17/outbox.cif.g08.bks.cpg/sg15_26_cif.got.tgz:51563.got - 2010.06.03 18:47:42.
