data_PCOD9279409
_publ_section_title
;
Structure prediction by ZEFSAII (Michael W. Deem and Ramdas Pophale) SiO2 
 PCOD9279409
Probable space group: C 2/C
;
_chemical_formula_sum "Si O2"
_cell_formula_units_Z 48
_cell_length_a 14.808056
_cell_length_b 15.124452
_cell_length_c 11.882572
_cell_angle_alpha 90.000000
_cell_angle_beta 61.450329
_cell_angle_gamma 90.000000
_cell_volume 2337.663639
_symmetry_space_group_name_H-M "C 2/C"
_symmetry_group_IT_number 15
_symmetry_cell_setting 'monoclinic'
loop_
_space_group_symop_operation_xyz
x,y,z
-x,y,1/2-z
-x,-y,-z
x,-y,1/2+z
1/2+x,1/2+y,z
1/2-x,1/2+y,1/2-z
1/2-x,1/2-y,-z
1/2+x,1/2-y,1/2+z
loop_
_atom_site_type_symbol
_atom_site_label
_atom_site_fract_x
_atom_site_fract_y
_atom_site_fract_z
Si Si1 0.001187 0.412742 0.121413
Si Si2 0.328109 0.404896 0.319025
Si Si3 0.340452 0.794177 0.795485
Si Si4 0.961909 0.081173 0.946199
Si Si5 0.942660 0.718882 0.466592
Si Si6 0.336492 0.047262 0.152101
O O1 0.935394 0.503439 0.155489
O O2 0.000000 0.381903 0.250000
O O3 0.945577 0.345499 0.070022
O O4 0.113540 0.424996 0.997927
O O5 0.291556 0.303323 0.325672
O O6 0.436154 0.405650 0.189448
O O7 0.363698 0.433787 0.423228
O O8 0.248571 0.473684 0.317045
O O9 0.447526 0.787132 0.662828
O O10 0.366480 0.809890 0.911023
O O11 0.291020 0.874468 0.756187
O O12 0.935565 0.178986 0.009525
O O13 0.000000 0.000000 0.000000
#
# Coordination Sequence:
#
# PCOD9279409 Si02
#       6
#     8   8   8   8   8   8
#     4  10  22  36  55  86 123 153 190 241 296 348
#     4   9  19  38  58  87 112 149 202 235 287 354
#     4   8  16  34  62  81 112 149 189 244 286 339
#     4   9  18  37  60  82 115 153 190 243 290 346
#     4   8  16  35  58  82 111 152 194 235 291 342
#     4  10  21  35  59  89 118 154 195 238 296 347
#
# _framework density 20.533321000000001
#
# number of rings (size 3 to 8) (size 9 to 14) (size 15 to 20)
#    0.000    3.000    0.000    2.000    7.000    1.333 
#    6.000    1.667    0.000    6.000    0.000    0.000 
#    0.000    0.000    0.000    0.000    0.000    0.000 
#
# Total GULP energy -133754.187811 kJ/mol
# GULP energy per Si atom -5573.091159 kJ/mol
# Density = 2.048659 g / cm^3
# Si number density = 20.533321 Si / 1000 Ang^3
#
#
#
# Elastic Constant Matrix: (Units=GPa)
#
#
# Indices 1 2 3 4 5 6 
#
# 1 73.0418 71.1210 39.0928 0.0000 8.3694 0.0000
# 2 71.1210 161.4556 56.3528 0.0000 31.8485 0.0000
# 3 39.0928 56.3528 104.4977 0.0000 17.3996 0.0000
# 4 0.0000 0.0000 0.0000 25.9353 0.0000 -0.5757
# 5 8.3694 31.8485 17.3996 0.0000 35.4609 0.0000
# 6 0.0000 0.0000 0.0000 -0.5757 0.0000 40.3921
#
#
#
# Elastic Compliance Matrix: (Units=1/GPa)
#
#
# Indices 1 2 3 4 5 6 
#
# 1 0.026496 -0.011178 -0.004916 0.000000 0.006198 0.000000
# 2 -0.011178 0.013369 -0.001598 0.000000 -0.008584 0.000000
# 3 -0.004916 -0.001598 0.012892 0.000000 -0.003730 0.000000
# 4 0.000000 0.000000 0.000000 0.038570 0.000000 0.000550
# 5 0.006198 -0.008584 -0.003730 0.000000 0.036277 0.000000
# 6 0.000000 0.000000 0.000000 0.000550 0.000000 0.024765
#
#
# Mechanical properties :
#
#
# Convention : Reuss Voigt Hill
#
# Bulk Modulus (GPa) = 57.56640 74.68094 66.12367
# Shear Modulus (GPa) = 25.83387 31.85289 28.84338
#
# Velocity S-wave (km/s) = 3.55088 3.94290 3.75201
# Velocity P-wave (km/s) = 6.70135 7.56163 7.14445
#
# Compressibility (1/GPa) = 0.01737124
#
# Stress axis : x y z
#
# Youngs Moduli (GPa) = 37.74151 74.80071 77.56943
#
# Poissons Ratio (x) = 0.83614 0.38134
# Poissons Ratio (y) = 0.42188 0.12398
# Poissons Ratio (z) = 0.18554 0.11955
#
# Static dielectric constant tensor:
#      x y z
#    x 1.747210 0.000000 -0.037070 
#    y 0.000000 1.781340 0.000000 
#    z -0.037070 0.000000 1.773170 
# 
# From -- ./inp_files/96848.got.cif
#   From: 2010.05.17/outbox.cif.g08.bks.cpg/sg15_49_cif.got.tgz:96848.got - 2010.06.03 18:47:42.
