data_PCOD9279290
_publ_section_title
;
Structure prediction by ZEFSAII (Michael W. Deem and Ramdas Pophale) SiO2 
 PCOD9279290
Probable space group: C 2/C
;
_chemical_formula_sum "Si O2"
_cell_formula_units_Z 44
_cell_length_a 18.199453
_cell_length_b 21.741513
_cell_length_c 8.364806
_cell_angle_alpha 90.000000
_cell_angle_beta 135.897413
_cell_angle_gamma 90.000000
_cell_volume 2303.451266
_symmetry_space_group_name_H-M "C 2/C"
_symmetry_group_IT_number 15
_symmetry_cell_setting 'monoclinic'
loop_
_space_group_symop_operation_xyz
x,y,z
-x,y,1/2-z
-x,-y,-z
x,-y,1/2+z
1/2+x,1/2+y,z
1/2-x,1/2+y,1/2-z
1/2-x,1/2-y,-z
1/2+x,1/2-y,1/2+z
loop_
_atom_site_type_symbol
_atom_site_label
_atom_site_fract_x
_atom_site_fract_y
_atom_site_fract_z
Si Si1 0.110026 0.078768 0.639285
Si Si2 0.500000 0.275722 0.250000
Si Si3 0.123880 0.058258 0.284251
Si Si4 0.219017 0.180971 0.001274
Si Si5 0.071527 0.748586 0.704427
Si Si6 0.733662 0.840167 0.583704
O O1 0.121549 0.068838 0.469154
O O2 0.193900 0.130464 0.827011
O O3 0.982823 0.088948 0.458040
O O4 0.126279 0.014025 0.752911
O O5 0.396397 0.315504 0.101680
O O6 0.510250 0.243227 0.439507
O O7 0.226965 0.091366 0.380334
O O8 0.250000 0.250000 0.000000
O O9 0.289938 0.166176 0.264541
O O10 0.166867 0.798162 0.825743
O O11 0.000000 0.764594 0.750000
O O12 0.132339 0.685303 0.834537
#
# Coordination Sequence:
#
# PCOD9279290 Si02
#       6
#     8   4   8   8   8   8
#     4  10  21  35  57  82 120 153 188 234 297 351
#     4  10  22  34  54  80 118 148 194 234 286 340
#     4  10  21  35  56  84 115 155 189 236 291 361
#     4  11  22  36  55  85 117 154 191 239 292 347
#     4  10  21  36  54  81 120 155 191 241 288 343
#     4  10  22  34  55  83 117 149 199 233 287 351
#
# _framework density 19.101772
#
# number of rings (size 3 to 8) (size 9 to 14) (size 15 to 20)
#    0.000    1.818    0.000    4.364   12.727    2.909 
#    0.000    0.000    0.000    0.000    2.364    3.818 
#    0.000    0.000    0.000    0.000    0.000    0.000 
#
# Total GULP energy -122531.231334 kJ/mol
# GULP energy per Si atom -5569.601424 kJ/mol
# Density = 1.905830 g / cm^3
# Si number density = 19.101772 Si / 1000 Ang^3
#
#
#
# Elastic Constant Matrix: (Units=GPa)
#
#
# Indices 1 2 3 4 5 6 
#
# 1 61.0894 12.3671 16.9386 0.0000 -24.2231 0.0000
# 2 12.3671 71.9468 23.4948 0.0000 -18.2524 0.0000
# 3 16.9386 23.4948 84.0944 0.0000 -36.7575 0.0000
# 4 0.0000 0.0000 0.0000 37.1976 0.0000 1.2730
# 5 -24.2231 -18.2524 -36.7575 0.0000 29.7030 0.0000
# 6 0.0000 0.0000 0.0000 1.2730 0.0000 30.4418
#
#
#
# Elastic Compliance Matrix: (Units=1/GPa)
#
#
# Indices 1 2 3 4 5 6 
#
# 1 0.027136 0.000988 0.009140 0.000000 0.034048 0.000000
# 2 0.000988 0.016508 -0.000054 0.000000 0.010883 0.000000
# 3 0.009140 -0.000054 0.028990 0.000000 0.043296 0.000000
# 4 0.000000 0.000000 0.000000 0.026922 0.000000 -0.001126
# 5 0.034048 0.010883 0.043296 0.000000 0.121700 0.000000
# 6 0.000000 0.000000 0.000000 -0.001126 0.000000 0.032897
#
#
# Mechanical properties :
#
#
# Convention : Reuss Voigt Hill
#
# Bulk Modulus (GPa) = 10.77786 35.85907 23.31846
# Shear Modulus (GPa) = 18.87290 30.42382 24.64836
#
# Velocity S-wave (km/s) = 3.14669 3.99522 3.59607
# Velocity P-wave (km/s) = 4.34244 6.33212 5.42921
#
# Compressibility (1/GPa) = 0.09278283
#
# Stress axis : x y z
#
# Youngs Moduli (GPa) = 36.85204 60.57700 34.49453
#
# Poissons Ratio (x) = -0.05988 -0.31529
# Poissons Ratio (y) = -0.03643 0.00187
# Poissons Ratio (z) = -0.33684 0.00328
#
# Static dielectric constant tensor:
#      x y z
#    x 1.723470 0.000000 -0.018070 
#    y 0.000000 1.700450 0.000000 
#    z -0.018070 0.000000 1.766390 
# 
# From -- ./inp_files/40341.got.cif
#   From: 2010.05.17/outbox.cif.g08.bks.cpg/sg15_21_cif.got.tgz:40341.got - 2010.06.03 18:47:42.
