data_PCOD9279169
_publ_section_title
;
Structure prediction by ZEFSAII (Michael W. Deem and Ramdas Pophale) SiO2 
 PCOD9279169
Probable space group: C 2/C
;
_chemical_formula_sum "Si O2"
_cell_formula_units_Z 56
_cell_length_a 12.493689
_cell_length_b 26.896921
_cell_length_c 9.422859
_cell_angle_alpha 90.000000
_cell_angle_beta 111.335633
_cell_angle_gamma 90.000000
_cell_volume 2949.460304
_symmetry_space_group_name_H-M "C 2/C"
_symmetry_group_IT_number 15
_symmetry_cell_setting 'monoclinic'
loop_
_space_group_symop_operation_xyz
x,y,z
-x,y,1/2-z
-x,-y,-z
x,-y,1/2+z
1/2+x,1/2+y,z
1/2-x,1/2+y,1/2-z
1/2-x,1/2-y,-z
1/2+x,1/2-y,1/2+z
loop_
_atom_site_type_symbol
_atom_site_label
_atom_site_fract_x
_atom_site_fract_y
_atom_site_fract_z
Si Si1 0.287815 0.562145 0.845340
Si Si2 0.459091 0.396639 0.022951
Si Si3 0.865015 0.347059 0.209737
Si Si4 0.000000 0.187961 0.750000
Si Si5 0.266134 0.262047 0.173819
Si Si6 0.371596 0.495295 0.132179
Si Si7 0.224551 0.198824 0.407296
Si Si8 0.500000 0.355332 0.750000
O O1 0.181296 0.598499 0.771470
O O2 0.296064 0.520321 0.729336
O O3 0.405371 0.593676 0.884040
O O4 0.309309 0.536150 0.006903
O O5 0.443605 0.386717 0.849371
O O6 0.437603 0.347588 0.104977
O O7 0.394970 0.445445 0.049262
O O8 0.815381 0.305570 0.297040
O O9 0.000000 0.342537 0.250000
O O10 0.806892 0.338753 0.027503
O O11 0.897285 0.220614 0.763722
O O12 0.242881 0.212207 0.252782
O O13 0.250000 0.250000 0.000000
O O14 0.500000 0.509321 0.250000
O O15 0.250000 0.250000 0.500000
O O16 0.096498 0.179183 0.365577
#
# Coordination Sequence:
#
# PCOD9279169 Si02
#       8
#     8   8   8   4   8   8   8   4
#     4  11  21  39  56  91 115 158 199 249 314 374
#     4  11  19  34  57  89 122 153 189 258 321 362
#     4  11  24  43  63  85 130 172 212 252 307 377
#     4  12  20  40  59  86 132 156 202 261 314 366
#     4  11  24  38  63  91 121 165 210 262 313 362
#     4  10  21  34  61  88 125 150 197 257 320 376
#     4  10  23  38  58  88 117 166 209 253 307 370
#     4  12  22  34  63  88 124 150 214 261 312 362
#
# _framework density 18.986526000000001
#
# number of rings (size 3 to 8) (size 9 to 14) (size 15 to 20)
#    0.000    1.143    5.000    3.429    9.000    0.000 
#    0.000    0.714    0.000    0.000    0.000    0.000 
#    0.000    0.000    0.000    0.000    0.000    0.000 
#
# Total GULP energy -156278.522484 kJ/mol
# GULP energy per Si atom -5581.375803 kJ/mol
# Density = 1.894331 g / cm^3
# Si number density = 18.986526 Si / 1000 Ang^3
#
#
#
# Elastic Constant Matrix: (Units=GPa)
#
#
# Indices 1 2 3 4 5 6 
#
# 1 94.5522 27.8211 20.7483 0.0000 10.5638 0.0000
# 2 27.8211 62.1080 28.1539 0.0000 -3.7068 0.0000
# 3 20.7483 28.1539 110.0782 0.0000 -17.5043 0.0000
# 4 0.0000 0.0000 0.0000 35.4999 0.0000 -5.6924
# 5 10.5638 -3.7068 -17.5043 0.0000 33.8040 0.0000
# 6 0.0000 0.0000 0.0000 -5.6924 0.0000 22.7981
#
#
#
# Elastic Compliance Matrix: (Units=1/GPa)
#
#
# Indices 1 2 3 4 5 6 
#
# 1 0.013247 -0.005351 -0.002049 0.000000 -0.005787 0.000000
# 2 -0.005351 0.020380 -0.003904 0.000000 0.001885 0.000000
# 3 -0.002049 -0.003904 0.011445 0.000000 0.006139 0.000000
# 4 0.000000 0.000000 0.000000 0.029344 0.000000 0.007327
# 5 -0.005787 0.001885 0.006139 0.000000 0.034776 0.000000
# 6 0.000000 0.000000 0.000000 0.007327 0.000000 0.045693
#
#
# Mechanical properties :
#
#
# Convention : Reuss Voigt Hill
#
# Bulk Modulus (GPa) = 44.51302 46.68720 45.60011
# Shear Modulus (GPa) = 27.03001 31.08810 29.05906
#
# Velocity S-wave (km/s) = 3.77721 4.05084 3.91642
# Velocity P-wave (km/s) = 6.52062 6.82071 6.67236
#
# Compressibility (1/GPa) = 0.02246534
#
# Stress axis : x y z
#
# Youngs Moduli (GPa) = 75.49101 49.06761 87.37240
#
# Poissons Ratio (x) = 0.26254 0.17899
# Poissons Ratio (y) = 0.40392 0.34112
# Poissons Ratio (z) = 0.15465 0.19157
#
# Static dielectric constant tensor:
#      x y z
#    x 1.630690 0.000000 -0.056870 
#    y 0.000000 1.725280 0.000000 
#    z -0.056870 0.000000 1.711420 
# 
# From -- ./inp_files/34385.got.cif
#   From: 2010.05.17/outbox.cif.g08.bks.cpg/sg15_18_cif.got.tgz:34385.got - 2010.06.03 18:47:42.
