data_PCOD9279065
_publ_section_title
;
Structure prediction by ZEFSAII (Michael W. Deem and Ramdas Pophale) SiO2 
 PCOD9279065
Probable space group: C 2/C
;
_chemical_formula_sum "Si O2"
_cell_formula_units_Z 56
_cell_length_a 11.784838
_cell_length_b 15.478679
_cell_length_c 11.841240
_cell_angle_alpha 90.000000
_cell_angle_beta 82.468040
_cell_angle_gamma 90.000000
_cell_volume 2141.367951
_symmetry_space_group_name_H-M "C 2/C"
_symmetry_group_IT_number 15
_symmetry_cell_setting 'monoclinic'
loop_
_space_group_symop_operation_xyz
x,y,z
-x,y,1/2-z
-x,-y,-z
x,-y,1/2+z
1/2+x,1/2+y,z
1/2-x,1/2+y,1/2-z
1/2-x,1/2-y,-z
1/2+x,1/2-y,1/2+z
loop_
_atom_site_type_symbol
_atom_site_label
_atom_site_fract_x
_atom_site_fract_y
_atom_site_fract_z
Si Si1 0.309772 0.921916 0.201854
Si Si2 0.904672 0.677900 0.894410
Si Si3 0.177748 0.858442 0.574427
Si Si4 0.121218 0.122458 0.548222
Si Si5 0.102883 0.977421 0.393312
Si Si6 0.348838 0.108534 0.229881
Si Si7 0.446754 0.178176 0.430707
O O1 0.377547 0.854616 0.272691
O O2 0.241164 0.892528 0.099262
O O3 0.203210 0.950612 0.297100
O O4 0.379592 0.011821 0.185120
O O5 0.910560 0.780868 0.903780
O O6 0.788613 0.660398 0.981343
O O7 0.011382 0.641904 0.953419
O O8 0.227003 0.874146 0.691128
O O9 0.127447 0.938599 0.515516
O O10 0.113166 0.078075 0.425403
O O11 0.100503 0.225288 0.552257
O O12 0.012864 0.074211 0.623176
O O13 0.365941 0.121571 0.360292
O O14 0.434736 0.175965 0.157456
#
# Coordination Sequence:
#
# PCOD9279065 Si02
#       7
#     8   8   8   8   8   8   8
#     4  11  22  35  57  90 126 163 203 254 312 359
#     4   9  18  30  55  81 114 153 197 249 294 353
#     4   9  15  33  51  81 117 148 191 244 294 350
#     4  11  21  37  59  95 122 164 204 257 300 364
#     4  10  21  34  58  88 129 154 199 253 310 359
#     4  10  21  34  55  88 117 159 202 257 295 362
#     4  10  21  36  60  85 119 156 215 251 298 361
#
# _framework density 26.151506999999999
#
# number of rings (size 3 to 8) (size 9 to 14) (size 15 to 20)
#    0.000    2.000    2.857    1.286    6.000    0.571 
#    0.000    0.714    0.000    0.000    0.000    0.000 
#    0.000    0.000    0.000    0.000    0.000    0.000 
#
# Total GULP energy -156379.320494 kJ/mol
# GULP energy per Si atom -5584.975732 kJ/mol
# Density = 2.609199 g / cm^3
# Si number density = 26.151507 Si / 1000 Ang^3
#
#
#
# Elastic Constant Matrix: (Units=GPa)
#
#
# Indices 1 2 3 4 5 6 
#
# 1 92.0744 13.9540 36.4598 0.0000 34.3844 0.0000
# 2 13.9540 119.8642 17.9028 0.0000 19.5443 0.0000
# 3 36.4598 17.9028 156.7201 0.0000 28.1388 0.0000
# 4 0.0000 0.0000 0.0000 15.8776 0.0000 10.4561
# 5 34.3844 19.5443 28.1388 0.0000 56.6202 0.0000
# 6 0.0000 0.0000 0.0000 10.4561 0.0000 32.0211
#
#
#
# Elastic Compliance Matrix: (Units=1/GPa)
#
#
# Indices 1 2 3 4 5 6 
#
# 1 0.014587 -0.000126 -0.001972 0.000000 -0.007834 0.000000
# 2 -0.000126 0.008878 -0.000492 0.000000 -0.002743 0.000000
# 3 -0.001972 -0.000492 0.007302 0.000000 -0.002261 0.000000
# 4 0.000000 0.000000 0.000000 0.080235 0.000000 -0.026200
# 5 -0.007834 -0.002743 -0.002261 0.000000 0.024490 0.000000
# 6 0.000000 0.000000 0.000000 -0.026200 0.000000 0.039785
#
#
# Mechanical properties :
#
#
# Convention : Reuss Voigt Hill
#
# Bulk Modulus (GPa) = 39.08498 56.14354 47.61426
# Shear Modulus (GPa) = 26.45686 40.92660 33.69173
#
# Velocity S-wave (km/s) = 3.18414 3.96028 3.59322
# Velocity P-wave (km/s) = 5.33820 6.51359 5.95497
#
# Compressibility (1/GPa) = 0.02558527
#
# Stress axis : x y z
#
# Youngs Moduli (GPa) = 68.55586 112.63406 136.95091
#
# Poissons Ratio (x) = 0.01420 0.27012
# Poissons Ratio (y) = 0.00864 0.06742
# Poissons Ratio (z) = 0.13522 0.05545
#
# Static dielectric constant tensor:
#      x y z
#    x 2.136930 0.000000 -0.030240 
#    y 0.000000 2.101290 0.000000 
#    z -0.030240 0.000000 2.093910 
# 
# From -- ./inp_files/153502.got.cif
#   From: 2010.05.17/outbox.cif.g08.bks.cpg/sg15_77_cif.got.tgz:153502.got - 2010.06.03 18:47:42.
