data_PCOD9279775
_publ_section_title
;
Structure prediction by ZEFSAII (Michael W. Deem and Ramdas Pophale) SiO2 
 PCOD9279775
Probable space group: C 2/C
;
_chemical_formula_sum "Si O2"
_cell_formula_units_Z 56
_cell_length_a 10.250212
_cell_length_b 11.320380
_cell_length_c 22.176122
_cell_angle_alpha 90.000000
_cell_angle_beta 95.772252
_cell_angle_gamma 90.000000
_cell_volume 2560.187530
_symmetry_space_group_name_H-M "C 2/C"
_symmetry_group_IT_number 15
_symmetry_cell_setting 'monoclinic'
loop_
_space_group_symop_operation_xyz
x,y,z
-x,y,1/2-z
-x,-y,-z
x,-y,1/2+z
1/2+x,1/2+y,z
1/2-x,1/2+y,1/2-z
1/2-x,1/2-y,-z
1/2+x,1/2-y,1/2+z
loop_
_atom_site_type_symbol
_atom_site_label
_atom_site_fract_x
_atom_site_fract_y
_atom_site_fract_z
Si Si1 0.092667 0.896101 0.431616
Si Si2 0.420423 0.379898 0.304511
Si Si3 0.249360 0.053993 0.131582
Si Si4 0.535454 0.115251 0.188462
Si Si5 0.512953 0.658675 0.055757
Si Si6 0.854945 0.495292 0.920047
Si Si7 0.632422 0.115281 0.957508
O O1 0.060735 0.819519 0.489110
O O2 0.010410 0.869033 0.368408
O O3 0.245225 0.905989 0.424245
O O4 0.051808 0.030344 0.444796
O O5 0.500000 0.424679 0.250000
O O6 0.305309 0.470830 0.316950
O O7 0.396692 0.240620 0.291537
O O8 0.265856 0.960450 0.076913
O O9 0.390025 0.114846 0.150289
O O10 0.137710 0.146245 0.105829
O O11 0.500000 0.053455 0.250000
O O12 0.633573 0.052889 0.146794
O O13 0.402997 0.754495 0.066010
O O14 0.994706 0.551040 0.940419
O O15 0.836067 0.395693 0.970508
#
# Coordination Sequence:
#
# PCOD9279775 Si02
#       7
#     8   8   8   8   8   8   8
#     4  10  21  36  58  90 120 151 202 245 293 361
#     4  10  23  41  61  86 116 164 203 242 301 345
#     4  10  22  42  58  88 126 148 200 256 284 366
#     4  10  23  41  61  86 116 164 203 242 301 345
#     4  10  21  37  59  89 120 158 188 242 313 353
#     4  10  21  36  58  90 120 151 202 245 293 361
#     4  10  21  37  59  89 120 158 188 242 313 353
#
# _framework density 21.873397000000001
#
# number of rings (size 3 to 8) (size 9 to 14) (size 15 to 20)
#    0.000    2.000    1.429    0.857    6.000    1.143 
#    0.000    0.000    0.000    7.714    0.000    0.000 
#    0.000    0.000    0.000    0.000    0.000    0.000 
#
# Total GULP energy -156193.896570 kJ/mol
# GULP energy per Si atom -5578.353449 kJ/mol
# Density = 2.182361 g / cm^3
# Si number density = 21.873397 Si / 1000 Ang^3
#
#
#
# Elastic Constant Matrix: (Units=GPa)
#
#
# Indices 1 2 3 4 5 6 
#
# 1 63.7966 2.4014 -10.7626 0.0000 -5.1810 0.0000
# 2 2.4014 61.1081 -6.0528 0.0000 -7.6547 0.0000
# 3 -10.7626 -6.0528 72.7436 0.0000 -16.6708 0.0000
# 4 0.0000 0.0000 0.0000 19.2365 0.0000 -3.3560
# 5 -5.1810 -7.6547 -16.6708 0.0000 31.6531 0.0000
# 6 0.0000 0.0000 0.0000 -3.3560 0.0000 -15.3415
#
#
#
# Elastic Compliance Matrix: (Units=1/GPa)
#
#
# Indices 1 2 3 4 5 6 
#
# 1 0.016643 0.000282 0.003555 0.000000 0.004665 0.000000
# 2 0.000282 0.017346 0.002794 0.000000 0.005713 0.000000
# 3 0.003555 0.002794 0.016824 0.000000 0.010118 0.000000
# 4 0.000000 0.000000 0.000000 0.050073 0.000000 -0.010954
# 5 0.004665 0.005713 0.010118 0.000000 0.039067 0.000000
# 6 0.000000 0.000000 0.000000 -0.010954 0.000000 -0.062787
#
#
# Mechanical properties :
#
#
# Convention : Reuss Voigt Hill
#
# Bulk Modulus (GPa) = 15.60657 18.75780 17.18219
# Shear Modulus (GPa) = 58.64300 21.24711 39.94506
#
# Velocity S-wave (km/s) = 5.18347 3.12006 4.27803
# Velocity P-wave (km/s) = 6.55553 4.64477 5.68106
#
# Compressibility (1/GPa) = 0.06407558
#
# Stress axis : x y z
#
# Youngs Moduli (GPa) = 60.08634 57.65118 59.43810
#
# Poissons Ratio (x) = -0.01628 -0.21129
# Poissons Ratio (y) = -0.01697 -0.16608
# Poissons Ratio (z) = -0.21360 -0.16109
#
# Static dielectric constant tensor:
#      x y z
#    x 1.812950 0.000000 -0.009380 
#    y 0.000000 1.874280 0.000000 
#    z -0.009380 0.000000 1.849340 
# 
# From -- ./inp_files/236959.got.cif
#   From: 2010.05.17/outbox.cif.g08.bks.cpg/sg15_119_cif.got.tgz:236959.got - 2010.06.03 18:47:42.
