data_PCOD9279372
_publ_section_title
;
Structure prediction by ZEFSAII (Michael W. Deem and Ramdas Pophale) SiO2 
 PCOD9279372
Probable space group: C 2/C
;
_chemical_formula_sum "Si O2"
_cell_formula_units_Z 48
_cell_length_a 25.302606
_cell_length_b 9.147692
_cell_length_c 19.799601
_cell_angle_alpha 90.000000
_cell_angle_beta 150.074903
_cell_angle_gamma 90.000000
_cell_volume 2286.221804
_symmetry_space_group_name_H-M "C 2/C"
_symmetry_group_IT_number 15
_symmetry_cell_setting 'monoclinic'
loop_
_space_group_symop_operation_xyz
x,y,z
-x,y,1/2-z
-x,-y,-z
x,-y,1/2+z
1/2+x,1/2+y,z
1/2-x,1/2+y,1/2-z
1/2-x,1/2-y,-z
1/2+x,1/2-y,1/2+z
loop_
_atom_site_type_symbol
_atom_site_label
_atom_site_fract_x
_atom_site_fract_y
_atom_site_fract_z
Si Si1 0.761523 0.137707 0.622108
Si Si2 0.972483 0.847085 0.293561
Si Si3 0.121190 0.643248 0.690470
Si Si4 0.620341 0.540260 0.145588
Si Si5 0.942940 0.429993 0.535677
Si Si6 0.815185 0.952865 0.932670
O O1 0.850812 0.103289 0.665389
O O2 0.651570 0.053385 0.514322
O O3 0.730324 0.307017 0.583191
O O4 0.825000 0.098908 0.760582
O O5 0.000000 0.790121 0.250000
O O6 0.994066 0.715517 0.370454
O O7 0.063118 0.968399 0.408695
O O8 0.123699 0.817472 0.696020
O O9 0.104011 0.599416 0.591730
O O10 0.229960 0.580418 0.841461
O O11 0.022725 0.564936 0.618176
O O12 0.675606 0.579814 0.136873
O O13 0.500000 0.500000 0.000000
#
# Coordination Sequence:
#
# PCOD9279372 Si02
#       6
#     8   8   8   8   8   8
#     4  11  21  38  58  90 121 157 214 249 317 358
#     4  11  23  41  63  90 123 166 221 258 297 374
#     4  11  21  36  59  91 134 150 202 257 318 377
#     4  12  21  34  60  95 128 159 194 256 319 385
#     4  10  21  35  58  89 122 163 194 260 312 360
#     4  11  21  38  61  92 121 162 202 259 319 358
#
# _framework density 20.995339000000001
#
# number of rings (size 3 to 8) (size 9 to 14) (size 15 to 20)
#    0.000    1.000    8.333    0.000    2.333    4.000 
#    0.000    0.000    0.000    2.000    0.000    0.000 
#    0.000    0.000    0.000    0.000    0.000    0.000 
#
# Total GULP energy -133855.408109 kJ/mol
# GULP energy per Si atom -5577.308671 kJ/mol
# Density = 2.094755 g / cm^3
# Si number density = 20.995339 Si / 1000 Ang^3
#
#
#
# Elastic Constant Matrix: (Units=GPa)
#
#
# Indices 1 2 3 4 5 6 
#
# 1 100.9686 18.3609 40.0839 0.0000 37.5320 0.0000
# 2 18.3609 47.9770 40.0083 0.0000 20.3616 0.0000
# 3 40.0839 40.0083 70.6837 0.0000 30.3410 0.0000
# 4 0.0000 0.0000 0.0000 20.5335 0.0000 5.3481
# 5 37.5320 20.3616 30.3410 0.0000 45.8447 0.0000
# 6 0.0000 0.0000 0.0000 5.3481 0.0000 13.8372
#
#
#
# Elastic Compliance Matrix: (Units=1/GPa)
#
#
# Indices 1 2 3 4 5 6 
#
# 1 0.015610 0.003931 -0.006764 0.000000 -0.010049 0.000000
# 2 0.003931 0.040955 -0.022658 0.000000 -0.006413 0.000000
# 3 -0.006764 -0.022658 0.033679 0.000000 -0.006689 0.000000
# 4 0.000000 0.000000 0.000000 0.054152 0.000000 -0.020930
# 5 -0.010049 -0.006413 -0.006689 0.000000 0.037315 0.000000
# 6 0.000000 0.000000 0.000000 -0.020930 0.000000 0.080358
#
#
# Mechanical properties :
#
#
# Convention : Reuss Voigt Hill
#
# Bulk Modulus (GPa) = 25.46920 46.28173 35.87547
# Shear Modulus (GPa) = 15.33092 24.12150 19.72621
#
# Velocity S-wave (km/s) = 2.70516 3.39322 3.06854
# Velocity P-wave (km/s) = 4.68129 6.11911 5.44784
#
# Compressibility (1/GPa) = 0.03926311
#
# Stress axis : x y z
#
# Youngs Moduli (GPa) = 64.06242 24.41695 29.69179
#
# Poissons Ratio (x) = -0.09599 0.20083
# Poissons Ratio (y) = -0.25185 0.67276
# Poissons Ratio (z) = 0.43330 0.55324
#
# Static dielectric constant tensor:
#      x y z
#    x 1.811850 0.000000 0.028430 
#    y 0.000000 1.732760 0.000000 
#    z 0.028430 0.000000 1.795770 
# 
# From -- ./inp_files/257237.got.cif
#   From: 2010.05.17/outbox.cif.g08.bks.cpg/sg15_129_cif.got.tgz:257237.got - 2010.06.03 18:47:42.
