data_PCOD9279847
_publ_section_title
;
Structure prediction by ZEFSAII (Michael W. Deem and Ramdas Pophale) SiO2 
 PCOD9279847
Probable space group: C 2/C
;
_chemical_formula_sum "Si O2"
_cell_formula_units_Z 56
_cell_length_a 32.642666
_cell_length_b 11.349147
_cell_length_c 9.316295
_cell_angle_alpha 90.000000
_cell_angle_beta 124.806366
_cell_angle_gamma 90.000000
_cell_volume 2833.874495
_symmetry_space_group_name_H-M "C 2/C"
_symmetry_group_IT_number 15
_symmetry_cell_setting 'monoclinic'
loop_
_space_group_symop_operation_xyz
x,y,z
-x,y,1/2-z
-x,-y,-z
x,-y,1/2+z
1/2+x,1/2+y,z
1/2-x,1/2+y,1/2-z
1/2-x,1/2-y,-z
1/2+x,1/2-y,1/2+z
loop_
_atom_site_type_symbol
_atom_site_label
_atom_site_fract_x
_atom_site_fract_y
_atom_site_fract_z
Si Si1 0.194802 0.231584 0.219497
Si Si2 0.400106 0.876585 0.126060
Si Si3 0.452541 0.665567 0.742066
Si Si4 0.694802 0.268417 0.059711
Si Si5 0.866211 1.000000 0.982422
Si Si6 0.400106 0.876585 0.474365
Si Si7 0.452541 0.665566 0.068099
O O1 0.250000 0.250000 0.266229
O O2 0.198760 0.246779 0.397519
O O3 0.155322 0.330655 0.094010
O O4 0.169824 0.103241 0.147318
O O5 0.404345 0.881183 0.308690
O O6 0.435032 0.777249 0.126705
O O7 0.344678 0.830655 0.972721
O O8 0.410245 1.000000 0.070490
O O9 0.500000 0.619800 0.750000
O O10 0.406215 0.574313 0.655515
O O11 0.435032 0.777249 0.613424
O O12 0.465985 0.696836 0.931969
O O13 0.669824 0.396759 0.031977
O O14 0.906215 0.074313 0.969345
O O15 0.500000 0.619800 0.250000
#
# Coordination Sequence:
#
# PCOD9279847 Si02
#       7
#     8   8   8   8   8   8   8
#     4   9  19  35  56  83 116 157 199 242 292 347
#     4  10  21  38  60  86 121 160 201 249 298 353
#     4  11  23  39  61  89 120 157 201 248 303 361
#     4   9  19  35  56  83 116 157 199 242 292 347
#     4  10  21  36  60  86 122 156 195 248 296 350
#     4  10  21  38  60  86 121 160 201 249 298 353
#     4  11  23  39  61  89 120 157 201 248 303 361
#
# _framework density 19.760930999999999
#
# number of rings (size 3 to 8) (size 9 to 14) (size 15 to 20)
#    0.000    2.000    0.000    3.000    2.000    5.143 
#    0.000    2.857    0.000    5.143    0.000    0.000 
#    0.000    0.000    0.000    0.000    0.000    0.000 
#
# Total GULP energy -155953.839882 kJ/mol
# GULP energy per Si atom -5569.779996 kJ/mol
# Density = 1.971595 g / cm^3
# Si number density = 19.760931 Si / 1000 Ang^3
#
#
#
# Elastic Constant Matrix: (Units=GPa)
#
#
# Indices 1 2 3 4 5 6 
#
# 1 106.2840 46.0256 53.3295 0.0000 13.7302 0.0000
# 2 46.0256 136.5164 43.2438 0.0000 3.2173 0.0000
# 3 53.3295 43.2438 94.5309 0.0000 -0.1374 0.0000
# 4 0.0000 0.0000 0.0000 8.1978 0.0000 8.3315
# 5 13.7302 3.2173 -0.1374 0.0000 36.5796 0.0000
# 6 0.0000 0.0000 0.0000 8.3315 0.0000 15.4018
#
#
#
# Elastic Compliance Matrix: (Units=1/GPa)
#
#
# Indices 1 2 3 4 5 6 
#
# 1 0.014833 -0.002598 -0.007188 0.000000 -0.005366 0.000000
# 2 -0.002598 0.009043 -0.002671 0.000000 0.000170 0.000000
# 3 -0.007188 -0.002671 0.015860 0.000000 0.002992 0.000000
# 4 0.000000 0.000000 0.000000 0.270930 0.000000 -0.146558
# 5 -0.005366 0.000170 0.002992 0.000000 0.029348 0.000000
# 6 0.000000 0.000000 0.000000 -0.146558 0.000000 0.144207
#
#
# Mechanical properties :
#
#
# Convention : Reuss Voigt Hill
#
# Bulk Modulus (GPa) = 67.46163 69.16989 68.31576
# Shear Modulus (GPa) = 9.72619 25.01799 17.37209
#
# Velocity S-wave (km/s) = 2.22095 3.56200 2.96820
# Velocity P-wave (km/s) = 6.38669 7.21086 6.81125
#
# Compressibility (1/GPa) = 0.01482324
#
# Stress axis : x y z
#
# Youngs Moduli (GPa) = 67.41505 110.58240 63.05263
#
# Poissons Ratio (x) = 0.28726 0.45321
# Poissons Ratio (y) = 0.17512 0.16842
# Poissons Ratio (z) = 0.48456 0.29537
#
# Static dielectric constant tensor:
#      x y z
#    x 1.769100 0.000000 0.058910 
#    y 0.000000 1.692380 0.000000 
#    z 0.058910 0.000000 1.718160 
# 
# From -- ./inp_files/69439.got.cif
#   From: 2010.05.17/outbox.cif.g08.bks.cpg/sg15_35_cif.got.tgz:69439.got - 2010.06.03 18:47:42.
