data_PCOD9279308
_publ_section_title
;
Structure prediction by ZEFSAII (Michael W. Deem and Ramdas Pophale) SiO2 
 PCOD9279308
Probable space group: C 2/C
;
_chemical_formula_sum "Si O2"
_cell_formula_units_Z 60
_cell_length_a 9.364727
_cell_length_b 23.248435
_cell_length_c 18.780999
_cell_angle_alpha 90.000000
_cell_angle_beta 135.781369
_cell_angle_gamma 90.000000
_cell_volume 2851.598300
_symmetry_space_group_name_H-M "C 2/C"
_symmetry_group_IT_number 15
_symmetry_cell_setting 'monoclinic'
loop_
_space_group_symop_operation_xyz
x,y,z
-x,y,1/2-z
-x,-y,-z
x,-y,1/2+z
1/2+x,1/2+y,z
1/2-x,1/2+y,1/2-z
1/2-x,1/2-y,-z
1/2+x,1/2-y,1/2+z
loop_
_atom_site_type_symbol
_atom_site_label
_atom_site_fract_x
_atom_site_fract_y
_atom_site_fract_z
Si Si1 0.327190 0.971865 0.140826
Si Si2 0.060467 0.153533 0.089131
Si Si3 0.824106 0.331586 0.814087
Si Si4 0.104834 0.064527 0.972924
Si Si5 0.854856 0.638698 0.965563
Si Si6 0.155470 0.249568 0.861458
Si Si7 0.583594 0.147426 0.901335
Si Si8 0.500000 0.240286 0.750000
O O1 0.500000 0.001075 0.250000
O O2 0.413782 0.912441 0.140641
O O3 0.127154 0.956751 0.115634
O O4 0.245083 0.012205 0.049044
O O5 0.181119 0.137438 0.204622
O O6 0.153457 0.216014 0.103392
O O7 0.103618 0.110878 0.038069
O O8 0.816952 0.156086 0.012021
O O9 0.690780 0.282344 0.804680
O O10 0.006248 0.298402 0.838611
O O11 0.941877 0.369258 0.913992
O O12 0.194053 0.091834 0.933810
O O13 0.746143 0.700010 0.942899
O O14 0.926798 0.642449 0.910263
O O15 0.000000 0.219612 0.750000
O O16 0.531162 0.199111 0.828956
#
# Coordination Sequence:
#
# PCOD9279308 Si02
#       8
#     8   8   8   8   8   8   8   4
#     4  10  23  45  70  93 120 168 221 268 326 395
#     4  10  21  41  62  92 129 170 221 254 320 390
#     4  11  23  35  60  95 129 173 213 256 311 383
#     4  10  24  41  70  96 126 165 218 272 327 384
#     4  12  24  38  62  96 132 166 205 273 323 380
#     4  10  21  35  56  90 127 168 213 252 306 389
#     4  11  24  41  64  89 127 173 215 270 322 380
#     4  12  24  40  60  88 134 180 220 254 322 388
#
# _framework density 21.040831000000001
#
# number of rings (size 3 to 8) (size 9 to 14) (size 15 to 20)
#    0.000    1.333    2.000    3.600    5.600    3.200 
#    0.000    0.000    0.000    0.000    0.000    0.000 
#    0.000    0.000    0.000    0.000    0.000    0.000 
#
# Total GULP energy -167646.931496 kJ/mol
# GULP energy per Si atom -5588.231050 kJ/mol
# Density = 2.099294 g / cm^3
# Si number density = 21.040831 Si / 1000 Ang^3
#
#
#
# Elastic Constant Matrix: (Units=GPa)
#
#
# Indices 1 2 3 4 5 6 
#
# 1 106.3671 14.5610 12.7774 0.0000 1.2131 0.0000
# 2 14.5610 33.5896 -5.4313 0.0000 14.8943 0.0000
# 3 12.7774 -5.4313 88.6643 0.0000 -1.7933 0.0000
# 4 0.0000 0.0000 0.0000 7.2707 0.0000 6.3872
# 5 1.2131 14.8943 -1.7933 0.0000 15.9781 0.0000
# 6 0.0000 0.0000 0.0000 6.3872 0.0000 23.1133
#
#
#
# Elastic Compliance Matrix: (Units=1/GPa)
#
#
# Indices 1 2 3 4 5 6 
#
# 1 0.010594 -0.007577 -0.001869 0.000000 0.006049 0.000000
# 2 -0.007577 0.056581 0.003511 0.000000 -0.051774 0.000000
# 3 -0.001869 0.003511 0.011726 0.000000 -0.001815 0.000000
# 4 0.000000 0.000000 0.000000 0.181634 0.000000 -0.050193
# 5 0.006049 -0.051774 -0.001815 0.000000 0.110185 0.000000
# 6 0.000000 0.000000 0.000000 -0.050193 0.000000 0.057136
#
#
# Mechanical properties :
#
#
# Convention : Reuss Voigt Hill
#
# Bulk Modulus (GPa) = 14.91828 30.27056 22.59442
# Shear Modulus (GPa) = 10.82091 23.05334 16.93713
#
# Velocity S-wave (km/s) = 2.27024 3.31365 2.84027
# Velocity P-wave (km/s) = 3.73865 5.39056 4.63873
#
# Compressibility (1/GPa) = 0.06703187
#
# Stress axis : x y z
#
# Youngs Moduli (GPa) = 94.39224 17.67384 85.27966
#
# Poissons Ratio (x) = 0.13391 0.15935
# Poissons Ratio (y) = 0.71519 -0.29939
# Poissons Ratio (z) = 0.17637 -0.06205
#
# Static dielectric constant tensor:
#      x y z
#    x 1.781030 0.000000 -0.033020 
#    y 0.000000 1.741940 0.000000 
#    z -0.033020 0.000000 1.828040 
# 
# From -- ./inp_files/234581.got.cif
#   From: 2010.05.17/outbox.cif.g08.bks.cpg/sg15_118_cif.got.tgz:234581.got - 2010.06.03 18:47:42.
