data_PCOD9279657
_publ_section_title
;
Structure prediction by ZEFSAII (Michael W. Deem and Ramdas Pophale) SiO2 
 PCOD9279657
Probable space group: C 2/C
;
_chemical_formula_sum "Si O2"
_cell_formula_units_Z 32
_cell_length_a 9.282896
_cell_length_b 13.244217
_cell_length_c 11.573846
_cell_angle_alpha 90.000000
_cell_angle_beta 120.894587
_cell_angle_gamma 90.000000
_cell_volume 1221.046394
_symmetry_space_group_name_H-M "C 2/C"
_symmetry_group_IT_number 15
_symmetry_cell_setting 'monoclinic'
loop_
_space_group_symop_operation_xyz
x,y,z
-x,y,1/2-z
-x,-y,-z
x,-y,1/2+z
1/2+x,1/2+y,z
1/2-x,1/2+y,1/2-z
1/2-x,1/2-y,-z
1/2+x,1/2-y,1/2+z
loop_
_atom_site_type_symbol
_atom_site_label
_atom_site_fract_x
_atom_site_fract_y
_atom_site_fract_z
Si Si1 0.621320 0.789622 0.114722
Si Si2 0.000000 0.971435 0.750000
Si Si3 0.801115 0.684451 0.369989
Si Si4 0.310920 0.585424 0.503719
Si Si5 0.000000 0.423194 0.750000
O O1 0.421581 0.802793 0.028273
O O2 0.647413 0.683143 0.056789
O O3 0.705293 0.777524 0.273079
O O4 0.720955 0.873965 0.083963
O O5 0.163192 0.901756 0.822956
O O6 0.022917 0.033542 0.877946
O O7 0.932083 0.647675 0.324735
O O8 0.165180 0.525805 0.373280
#
# Coordination Sequence:
#
# PCOD9279657 Si02
#       5
#     8   4   8   8   4
#     4   9  18  37  62  78 102 148 196 220 258 330
#     4  12  24  33  52  89 124 138 168 232 292 317
#     4  10  21  36  56  84 111 144 185 228 270 324
#     4   9  18  36  60  82 104 143 189 229 263 322
#     4   8  18  35  56  77 102 138 188 222 258 317
#
# _framework density 26.207032000000002
#
# number of rings (size 3 to 8) (size 9 to 14) (size 15 to 20)
#    0.000    2.500    0.000    3.000    0.000   11.000 
#    0.000    2.500    0.000    6.000    0.000    0.000 
#    0.000    0.000    0.000    0.000    0.000    0.000 
#
# Total GULP energy -89449.103958 kJ/mol
# GULP energy per Si atom -5590.568997 kJ/mol
# Density = 2.614738 g / cm^3
# Si number density = 26.207032 Si / 1000 Ang^3
#
#
#
# Elastic Constant Matrix: (Units=GPa)
#
#
# Indices 1 2 3 4 5 6 
#
# 1 76.0597 10.7547 46.5301 0.0000 10.5676 0.0000
# 2 10.7547 48.2448 32.3175 0.0000 12.5290 0.0000
# 3 46.5301 32.3175 155.7409 0.0000 38.5671 0.0000
# 4 0.0000 0.0000 0.0000 -7.1867 0.0000 -13.2264
# 5 10.5676 12.5290 38.5671 0.0000 54.4725 0.0000
# 6 0.0000 0.0000 0.0000 -13.2264 0.0000 2.7830
#
#
#
# Elastic Compliance Matrix: (Units=1/GPa)
#
#
# Indices 1 2 3 4 5 6 
#
# 1 0.016102 -0.000469 -0.004810 0.000000 0.000390 0.000000
# 2 -0.000469 0.024355 -0.004304 0.000000 -0.002464 0.000000
# 3 -0.004810 -0.004304 0.010034 0.000000 -0.005181 0.000000
# 4 0.000000 0.000000 0.000000 -0.014277 0.000000 -0.067849
# 5 0.000390 -0.002464 -0.005181 0.000000 0.022517 0.000000
# 6 0.000000 0.000000 0.000000 -0.067849 0.000000 0.036866
#
#
# Mechanical properties :
#
#
# Convention : Reuss Voigt Hill
#
# Bulk Modulus (GPa) = 31.92183 51.02779 41.47481
# Shear Modulus (GPa) = 39.93439 22.70997 31.32218
#
# Velocity S-wave (km/s) = 3.90783 2.94693 3.46089
# Velocity P-wave (km/s) = 5.70689 5.57607 5.64186
#
# Compressibility (1/GPa) = 0.03132652
#
# Stress axis : x y z
#
# Youngs Moduli (GPa) = 62.10299 41.05967 99.65992
#
# Poissons Ratio (x) = 0.01924 0.47937
# Poissons Ratio (y) = 0.02910 0.42891
# Poissons Ratio (z) = 0.29872 0.17671
#
# Static dielectric constant tensor:
#      x y z
#    x 2.166670 0.000000 -0.045260 
#    y 0.000000 2.106220 0.000000 
#    z -0.045260 0.000000 2.126090 
# 
# From -- ./inp_files/27682.got.cif
#   From: 2010.05.17/outbox.cif.g08.bks.cpg/sg15_14_cif.got.tgz:27682.got - 2010.06.03 18:47:42.
