data_PCOD9279724
_publ_section_title
;
Structure prediction by ZEFSAII (Michael W. Deem and Ramdas Pophale) SiO2 
 PCOD9279724
Probable space group: C 2/C
;
_chemical_formula_sum "Si O2"
_cell_formula_units_Z 56
_cell_length_a 13.600423
_cell_length_b 21.193653
_cell_length_c 11.489065
_cell_angle_alpha 90.000000
_cell_angle_beta 44.199206
_cell_angle_gamma 90.000000
_cell_volume 2308.725889
_symmetry_space_group_name_H-M "C 2/C"
_symmetry_group_IT_number 15
_symmetry_cell_setting 'monoclinic'
loop_
_space_group_symop_operation_xyz
x,y,z
-x,y,1/2-z
-x,-y,-z
x,-y,1/2+z
1/2+x,1/2+y,z
1/2-x,1/2+y,1/2-z
1/2-x,1/2-y,-z
1/2+x,1/2-y,1/2+z
loop_
_atom_site_type_symbol
_atom_site_label
_atom_site_fract_x
_atom_site_fract_y
_atom_site_fract_z
Si Si1 0.938721 0.560737 0.182697
Si Si2 0.684014 0.319830 0.670420
Si Si3 0.635331 0.410041 0.902303
Si Si4 0.169929 0.116580 0.794065
Si Si5 0.035761 0.583015 0.851313
Si Si6 0.581022 0.729360 0.016905
Si Si7 0.662136 0.313813 0.077989
O O1 0.769319 0.548898 0.323877
O O2 0.006181 0.491080 0.120570
O O3 0.000000 0.590442 0.250000
O O4 0.972091 0.597994 0.034951
O O5 0.648411 0.386652 0.757728
O O6 0.640270 0.311859 0.574706
O O7 0.841534 0.295253 0.547807
O O8 0.584492 0.268018 0.819585
O O9 0.472947 0.425305 0.071217
O O10 0.667721 0.346456 0.948029
O O11 0.299021 0.094171 0.762542
O O12 0.122645 0.186516 0.874564
O O13 0.210120 0.130653 0.626784
O O14 0.000000 0.608379 0.750000
O O15 0.500000 0.300632 0.250000
O O16 0.750000 0.250000 0.000000
#
# Coordination Sequence:
#
# PCOD9279724 Si02
#       7
#     8   8   8   8   8   8   8
#     4  10  22  42  63  87 120 157 202 253 309 368
#     4   9  18  32  49  75 107 146 186 225 277 336
#     4  10  21  36  59  84 115 156 198 244 298 355
#     4  10  21  37  57  85 120 150 198 249 296 353
#     4  10  23  41  62  90 122 155 199 257 310 365
#     4   9  18  32  49  73 111 145 182 231 275 336
#     4  10  21  36  57  88 121 158 202 251 296 355
#
# _framework density 24.255801999999999
#
# number of rings (size 3 to 8) (size 9 to 14) (size 15 to 20)
#    0.000    2.286    0.000    1.714    2.000    3.429 
#    2.571    0.000    0.000    5.143    0.000    0.000 
#    0.000    0.000    0.000    0.000    0.000    0.000 
#
# Total GULP energy -156104.543530 kJ/mol
# GULP energy per Si atom -5575.162269 kJ/mol
# Density = 2.420060 g / cm^3
# Si number density = 24.255802 Si / 1000 Ang^3
#
#
#
# Elastic Constant Matrix: (Units=GPa)
#
#
# Indices 1 2 3 4 5 6 
#
# 1 163.9979 20.1765 59.6817 0.0000 10.1195 0.0000
# 2 20.1765 24.6881 10.3877 0.0000 8.8415 0.0000
# 3 59.6817 10.3877 84.7967 0.0000 11.4167 0.0000
# 4 0.0000 0.0000 0.0000 14.5819 0.0000 -7.5688
# 5 10.1195 8.8415 11.4167 0.0000 47.7680 0.0000
# 6 0.0000 0.0000 0.0000 -7.5688 0.0000 24.7583
#
#
#
# Elastic Compliance Matrix: (Units=1/GPa)
#
#
# Indices 1 2 3 4 5 6 
#
# 1 0.008708 -0.004911 -0.005581 0.000000 0.000398 0.000000
# 2 -0.004911 0.047780 -0.001391 0.000000 -0.007471 0.000000
# 3 -0.005581 -0.001391 0.016219 0.000000 -0.002437 0.000000
# 4 0.000000 0.000000 0.000000 0.081513 0.000000 0.024919
# 5 0.000398 -0.007471 -0.002437 0.000000 0.022815 0.000000
# 6 0.000000 0.000000 0.000000 0.024919 0.000000 0.048008
#
#
# Mechanical properties :
#
#
# Convention : Reuss Voigt Hill
#
# Bulk Modulus (GPa) = 20.43245 50.44160 35.43702
# Shear Modulus (GPa) = 18.85911 29.63742 24.24826
#
# Velocity S-wave (km/s) = 2.79141 3.49932 3.16522
# Velocity P-wave (km/s) = 4.33951 6.09654 5.29146
#
# Compressibility (1/GPa) = 0.04894176
#
# Stress axis : x y z
#
# Youngs Moduli (GPa) = 114.83223 20.92933 61.65444
#
# Poissons Ratio (x) = 0.10279 0.34410
# Poissons Ratio (y) = 0.56397 0.08574
# Poissons Ratio (z) = 0.64089 0.02910
#
# Static dielectric constant tensor:
#      x y z
#    x 1.984900 0.000000 -0.001580 
#    y 0.000000 1.909410 0.000000 
#    z -0.001580 0.000000 2.035480 
# 
# From -- ./inp_files/101104.got.cif
#   From: 2010.05.17/outbox.cif.g08.bks.cpg/sg15_51_cif.got.tgz:101104.got - 2010.06.03 18:47:42.
