data_PCOD9279927
_publ_section_title
;
Structure prediction by ZEFSAII (Michael W. Deem and Ramdas Pophale) SiO2 
 PCOD9279927
Probable space group: C 2/C
;
_chemical_formula_sum "Si O2"
_cell_formula_units_Z 40
_cell_length_a 23.985932
_cell_length_b 5.379505
_cell_length_c 21.773768
_cell_angle_alpha 90.000000
_cell_angle_beta 143.038958
_cell_angle_gamma 90.000000
_cell_volume 1689.286769
_symmetry_space_group_name_H-M "C 2/C"
_symmetry_group_IT_number 15
_symmetry_cell_setting 'monoclinic'
loop_
_space_group_symop_operation_xyz
x,y,z
-x,y,1/2-z
-x,-y,-z
x,-y,1/2+z
1/2+x,1/2+y,z
1/2-x,1/2+y,1/2-z
1/2-x,1/2-y,-z
1/2+x,1/2-y,1/2+z
loop_
_atom_site_type_symbol
_atom_site_label
_atom_site_fract_x
_atom_site_fract_y
_atom_site_fract_z
Si Si1 0.135849 0.109385 0.512567
Si Si2 0.540357 0.319335 0.185151
Si Si3 0.916992 0.612903 0.644409
Si Si4 0.288818 0.796979 0.601659
Si Si5 0.941293 0.254090 0.935813
O O1 0.151827 0.286972 0.468517
O O2 0.135838 0.235717 0.578788
O O3 0.204528 0.876268 0.570453
O O4 0.031814 0.027696 0.400748
O O5 0.632557 0.387288 0.304336
O O6 0.582004 0.226268 0.156494
O O7 0.473191 0.119058 0.161226
O O8 0.853662 0.534184 0.645538
O O9 0.000000 0.767793 0.750000
O O10 0.250000 0.750000 0.500000
O O11 0.000000 0.500000 0.000000
O O12 0.000000 0.000000 0.000000
#
# Coordination Sequence:
#
# PCOD9279927 Si02
#       5
#     8   8   8   8   8
#     4  11  22  40  66  92 130 179 217 282 339 403
#     4  10  22  42  62  92 128 175 220 277 337 403
#     4  10  21  36  61  92 129 168 216 270 342 404
#     4  11  23  39  62  97 135 170 225 278 341 416
#     4  10  21  42  70  95 127 176 228 275 336 404
#
# _framework density 23.678632
#
# number of rings (size 3 to 8) (size 9 to 14) (size 15 to 20)
#    0.000    1.600    4.000    0.600    2.800    0.000 
#    0.000    6.000    0.000    0.000    0.000    0.000 
#    0.000    0.000    0.000    0.000    0.000    0.000 
#
# Total GULP energy -111366.506944 kJ/mol
# GULP energy per Si atom -5568.325347 kJ/mol
# Density = 2.362474 g / cm^3
# Si number density = 23.678632 Si / 1000 Ang^3
#
#
#
# Elastic Constant Matrix: (Units=GPa)
#
#
# Indices 1 2 3 4 5 6 
#
# 1 96.7693 2.5367 17.8964 -0.0026 -15.4174 -0.0035
# 2 2.5367 60.0255 6.2566 -0.0044 -0.0759 -0.0069
# 3 17.8964 6.2566 111.0361 -0.0009 6.0177 -0.0026
# 4 -0.0026 -0.0044 -0.0009 27.1933 -0.0001 3.6148
# 5 -15.4174 -0.0759 6.0177 -0.0001 30.9302 -0.0006
# 6 -0.0035 -0.0069 -0.0026 3.6148 -0.0006 35.4262
#
#
#
# Elastic Compliance Matrix: (Units=1/GPa)
#
#
# Indices 1 2 3 4 5 6 
#
# 1 0.011753 -0.000257 -0.002221 0.000001 0.006290 0.000001
# 2 -0.000257 0.016765 -0.000908 0.000002 0.000090 0.000003
# 3 -0.002221 -0.000908 0.009576 0.000000 -0.002972 0.000000
# 4 0.000001 0.000002 0.000000 0.037279 0.000001 -0.003804
# 5 0.006290 0.000090 -0.002972 0.000001 0.036045 0.000001
# 6 0.000001 0.000003 0.000000 -0.003804 0.000001 0.028616
#
#
# Mechanical properties :
#
#
# Convention : Reuss Voigt Hill
#
# Bulk Modulus (GPa) = 31.92573 35.69004 33.80789
# Shear Modulus (GPa) = 31.79692 34.78603 33.29148
#
# Velocity S-wave (km/s) = 3.66847 3.83703 3.75370
# Velocity P-wave (km/s) = 5.60854 5.89371 5.75289
#
# Compressibility (1/GPa) = 0.03132270
#
# Stress axis : x y z
#
# Youngs Moduli (GPa) = 85.08152 59.64726 104.42476
#
# Poissons Ratio (x) = 0.01535 0.23190
# Poissons Ratio (y) = 0.02189 0.09482
# Poissons Ratio (z) = 0.18895 0.05416
#
# Static dielectric constant tensor:
#      x y z
#    x 2.062860 0.000000 0.001260 
#    y 0.000000 2.046850 0.000000 
#    z 0.001260 0.000000 1.950180 
# 
# From -- ./inp_files/170908.got.cif
#   From: 2010.05.17/outbox.cif.g08.bks.cpg/sg15_86_cif.got.tgz:170908.got - 2010.06.03 18:47:42.
