data_PCOD9279377
_publ_section_title
;
Structure prediction by ZEFSAII (Michael W. Deem and Ramdas Pophale) SiO2 
 PCOD9279377
Probable space group: C 2/C
;
_chemical_formula_sum "Si O2"
_cell_formula_units_Z 44
_cell_length_a 11.078382
_cell_length_b 9.480817
_cell_length_c 24.069406
_cell_angle_alpha 90.000000
_cell_angle_beta 139.132583
_cell_angle_gamma 90.000000
_cell_volume 1654.137499
_symmetry_space_group_name_H-M "C 2/C"
_symmetry_group_IT_number 15
_symmetry_cell_setting 'monoclinic'
loop_
_space_group_symop_operation_xyz
x,y,z
-x,y,1/2-z
-x,-y,-z
x,-y,1/2+z
1/2+x,1/2+y,z
1/2-x,1/2+y,1/2-z
1/2-x,1/2-y,-z
1/2+x,1/2-y,1/2+z
loop_
_atom_site_type_symbol
_atom_site_label
_atom_site_fract_x
_atom_site_fract_y
_atom_site_fract_z
Si Si1 0.731483 0.345185 0.218386
Si Si2 0.444972 0.829693 0.401861
Si Si3 0.705331 0.639214 0.421060
Si Si4 0.392815 0.211737 0.154027
Si Si5 0.000000 0.873569 0.750000
Si Si6 0.694598 0.551894 0.589753
O O1 0.821397 0.389606 0.308244
O O2 0.528333 0.285254 0.158225
O O3 0.864286 0.224484 0.239246
O O4 0.717042 0.457322 0.164242
O O5 0.555893 0.695254 0.413484
O O6 0.612979 0.919787 0.486066
O O7 0.305956 0.777940 0.401014
O O8 0.616148 0.552273 0.339151
O O9 0.769769 0.787170 0.415030
O O10 0.500000 0.211314 0.250000
O O11 0.349782 0.052271 0.120905
O O12 0.500000 0.500000 0.500000
#
# Coordination Sequence:
#
# PCOD9279377 Si02
#       6
#     8   8   8   8   4   8
#     4   9  20  35  56  86 122 159 206 253 312 377
#     4   9  17  34  54  81 115 160 200 243 307 372
#     4   9  17  31  55  81 116 155 201 248 305 367
#     4  10  21  35  58  90 119 158 210 255 311 373
#     4   8  16  32  54  82 108 156 200 246 302 364
#     4  11  21  35  57  92 119 155 207 264 301 373
#
# _framework density 26.599965000000001
#
# number of rings (size 3 to 8) (size 9 to 14) (size 15 to 20)
#    0.000    2.545    1.818    0.000    7.636    0.727 
#    0.000    0.000    0.000    9.818    7.091    0.000 
#    0.000    0.000    0.000    0.000    0.000    0.000 
#
# Total GULP energy -123189.714571 kJ/mol
# GULP energy per Si atom -5599.532480 kJ/mol
# Density = 2.653942 g / cm^3
# Si number density = 26.599965 Si / 1000 Ang^3
#
#
#
# Elastic Constant Matrix: (Units=GPa)
#
#
# Indices 1 2 3 4 5 6 
#
# 1 151.2070 34.7948 53.3342 0.0000 20.6431 0.0000
# 2 34.7948 62.8217 23.9454 0.0000 7.9031 0.0000
# 3 53.3342 23.9454 187.5384 0.0000 -4.1931 0.0000
# 4 0.0000 0.0000 0.0000 10.4677 0.0000 12.2631
# 5 20.6431 7.9031 -4.1931 0.0000 52.3094 0.0000
# 6 0.0000 0.0000 0.0000 12.2631 0.0000 -4.7057
#
#
#
# Elastic Compliance Matrix: (Units=1/GPa)
#
#
# Indices 1 2 3 4 5 6 
#
# 1 0.008571 -0.003589 -0.002047 0.000000 -0.003004 0.000000
# 2 -0.003589 0.018626 -0.001391 0.000000 -0.001509 0.000000
# 3 -0.002047 -0.001391 0.006126 0.000000 0.001509 0.000000
# 4 0.000000 0.000000 0.000000 0.023571 0.000000 0.061426
# 5 -0.003004 -0.001509 0.001509 0.000000 0.020652 0.000000
# 6 0.000000 0.000000 0.000000 0.061426 0.000000 -0.052432
#
#
# Mechanical properties :
#
#
# Convention : Reuss Voigt Hill
#
# Bulk Modulus (GPa) = 51.89665 69.52399 60.71032
# Shear Modulus (GPa) = 109.67146 30.91378 70.29262
#
# Velocity S-wave (km/s) = 6.42802 3.41277 5.14618
# Velocity P-wave (km/s) = 8.63973 6.45933 7.62784
#
# Compressibility (1/GPa) = 0.01926907
#
# Stress axis : x y z
#
# Youngs Moduli (GPa) = 116.66667 53.68767 163.24890
#
# Poissons Ratio (x) = 0.19271 0.33409
# Poissons Ratio (y) = 0.41877 0.22711
# Poissons Ratio (z) = 0.23876 0.07469
#
# Static dielectric constant tensor:
#      x y z
#    x 2.060520 0.000000 -0.002440 
#    y 0.000000 2.068180 0.000000 
#    z -0.002440 0.000000 2.162790 
# 
# From -- ./inp_files/292336.got.cif
#   From: 2010.05.17/outbox.cif.g08.bks.cpg/sg15_147_cif.got.tgz:292336.got - 2010.06.03 18:47:42.
