data_PCOD9279880
_publ_section_title
;
Structure prediction by ZEFSAII (Michael W. Deem and Ramdas Pophale) SiO2 
 PCOD9279880
Probable space group: C 2/C
;
_chemical_formula_sum "Si O2"
_cell_formula_units_Z 56
_cell_length_a 12.300609
_cell_length_b 16.545849
_cell_length_c 20.528546
_cell_angle_alpha 90.000000
_cell_angle_beta 144.528523
_cell_angle_gamma 90.000000
_cell_volume 2424.513660
_symmetry_space_group_name_H-M "C 2/C"
_symmetry_group_IT_number 15
_symmetry_cell_setting 'monoclinic'
loop_
_space_group_symop_operation_xyz
x,y,z
-x,y,1/2-z
-x,-y,-z
x,-y,1/2+z
1/2+x,1/2+y,z
1/2-x,1/2+y,1/2-z
1/2-x,1/2-y,-z
1/2+x,1/2-y,1/2+z
loop_
_atom_site_type_symbol
_atom_site_label
_atom_site_fract_x
_atom_site_fract_y
_atom_site_fract_z
Si Si1 0.161265 0.851639 0.908576
Si Si2 0.402972 0.919644 0.928868
Si Si3 0.602650 0.364684 0.541260
Si Si4 0.178211 0.663906 0.880047
Si Si5 0.503421 0.610191 0.849143
Si Si6 0.271157 0.812207 0.370962
Si Si7 0.822564 0.060171 0.296475
O O1 0.208040 0.909820 0.871753
O O2 0.167550 0.760253 0.886822
O O3 0.961109 0.867505 0.843170
O O4 0.306720 0.869469 0.038691
O O5 0.368139 0.924016 0.835140
O O6 0.522942 0.845376 0.014314
O O7 0.500000 0.000000 0.000000
O O8 0.378872 0.355211 0.445451
O O9 0.611804 0.377381 0.469152
O O10 0.716819 0.283223 0.613500
O O11 0.678799 0.434950 0.626152
O O12 0.000000 0.638276 0.750000
O O13 0.322328 0.665908 0.743788
O O14 0.648468 0.636870 0.863648
O O15 0.416755 0.520801 0.813914
#
# Coordination Sequence:
#
# PCOD9279880 Si02
#       7
#     8   8   8   8   8   8   8
#     4  10  22  36  59  90 128 159 209 263 334 389
#     4  12  22  38  64  95 129 164 227 273 331 402
#     4  11  25  43  68  97 135 175 222 280 345 399
#     4  10  21  36  60  94 124 164 205 268 332 402
#     4  11  25  47  67  91 138 175 233 272 341 400
#     4  11  25  42  67 100 125 182 229 283 323 409
#     4  11  24  42  67  98 132 175 215 278 344 403
#
# _framework density 23.097417
#
# number of rings (size 3 to 8) (size 9 to 14) (size 15 to 20)
#    0.000    1.143    2.857    3.000    6.000    0.000 
#    0.000    0.000    0.000    0.000    0.000    0.000 
#    0.000    0.000    0.000    0.000    0.000    0.000 
#
# Total GULP energy -156414.410389 kJ/mol
# GULP energy per Si atom -5586.228942 kJ/mol
# Density = 2.304485 g / cm^3
# Si number density = 23.097417 Si / 1000 Ang^3
#
#
#
# Elastic Constant Matrix: (Units=GPa)
#
#
# Indices 1 2 3 4 5 6 
#
# 1 50.4173 -6.4628 18.1250 0.0000 -17.1608 0.0000
# 2 -6.4628 46.1568 0.9215 -0.0001 0.9818 0.0000
# 3 18.1250 0.9215 166.4481 -0.0005 -26.9754 -0.0002
# 4 0.0000 -0.0001 -0.0005 31.2196 -0.0001 -2.4154
# 5 -17.1608 0.9818 -26.9754 -0.0001 33.0316 0.0000
# 6 0.0000 0.0000 -0.0002 -2.4154 0.0000 17.8279
#
#
#
# Elastic Compliance Matrix: (Units=1/GPa)
#
#
# Indices 1 2 3 4 5 6 
#
# 1 0.024628 0.003206 -0.000739 0.000000 0.012096 0.000000
# 2 0.003206 0.022106 -0.000355 0.000000 0.000719 0.000000
# 3 -0.000739 -0.000355 0.006950 0.000000 0.005302 0.000000
# 4 0.000000 0.000000 0.000000 0.032370 0.000000 0.004386
# 5 0.012096 0.000719 0.005302 0.000000 0.040867 0.000000
# 6 0.000000 0.000000 0.000000 0.004386 0.000000 0.056686
#
#
# Mechanical properties :
#
#
# Convention : Reuss Voigt Hill
#
# Bulk Modulus (GPa) = 17.26903 32.02107 24.64505
# Shear Modulus (GPa) = 25.16530 33.11173 29.13851
#
# Velocity S-wave (km/s) = 3.30438 3.79036 3.55568
# Velocity P-wave (km/s) = 4.69589 5.74885 5.24885
#
# Compressibility (1/GPa) = 0.05790712
#
# Stress axis : x y z
#
# Youngs Moduli (GPa) = 40.60358 45.23667 143.89321
#
# Poissons Ratio (x) = -0.14502 0.10637
# Poissons Ratio (y) = -0.13017 0.05109
# Poissons Ratio (z) = 0.03002 0.01606
#
# Static dielectric constant tensor:
#      x y z
#    x 1.966270 0.000000 -0.017230 
#    y 0.000000 1.849230 0.000000 
#    z -0.017230 0.000000 1.964700 
# 
# From -- ./inp_files/245181.got.cif
#   From: 2010.05.17/outbox.cif.g08.bks.cpg/sg15_123_cif.got.tgz:245181.got - 2010.06.03 18:47:42.
