data_PCOD9279564
_publ_section_title
;
Structure prediction by ZEFSAII (Michael W. Deem and Ramdas Pophale) SiO2 
 PCOD9279564
Probable space group: C 2/C
;
_chemical_formula_sum "Si O2"
_cell_formula_units_Z 48
_cell_length_a 29.763996
_cell_length_b 14.923003
_cell_length_c 9.697745
_cell_angle_alpha 90.000000
_cell_angle_beta 142.383130
_cell_angle_gamma 90.000000
_cell_volume 2629.162277
_symmetry_space_group_name_H-M "C 2/C"
_symmetry_group_IT_number 15
_symmetry_cell_setting 'monoclinic'
loop_
_space_group_symop_operation_xyz
x,y,z
-x,y,1/2-z
-x,-y,-z
x,-y,1/2+z
1/2+x,1/2+y,z
1/2-x,1/2+y,1/2-z
1/2-x,1/2-y,-z
1/2+x,1/2-y,1/2+z
loop_
_atom_site_type_symbol
_atom_site_label
_atom_site_fract_x
_atom_site_fract_y
_atom_site_fract_z
Si Si1 0.229456 0.500311 0.433900
Si Si2 0.751993 0.676316 0.388509
Si Si3 0.912443 0.359444 0.149872
Si Si4 0.196566 0.815142 0.460573
Si Si5 0.436059 0.798170 0.899289
Si Si6 0.875134 0.447541 0.572603
O O1 0.273310 0.417079 0.605116
O O2 0.277730 0.582052 0.493666
O O3 0.184128 0.541440 0.450013
O O4 0.171842 0.459219 0.182021
O O5 0.750000 0.750000 0.500000
O O6 0.834561 0.660393 0.530766
O O7 0.707195 0.706654 0.146792
O O8 0.927527 0.465082 0.207903
O O9 0.976412 0.298060 0.368170
O O10 0.909623 0.344868 0.978596
O O11 0.250000 0.750000 0.500000
O O12 0.112389 0.791556 0.220911
O O13 0.417197 0.857953 0.718979
#
# Coordination Sequence:
#
# PCOD9279564 Si02
#       6
#     8   8   8   8   8   8
#     4  11  21  34  58  84 118 150 198 235 283 345
#     4  11  23  38  59  89 117 150 197 248 291 344
#     4  10  21  36  52  90 117 154 194 228 301 357
#     4  12  20  38  57  85 116 158 198 232 286 353
#     4  11  21  34  60  82 122 157 188 240 287 360
#     4  11  17  36  52  85 118 154 184 233 291 346
#
# _framework density 18.256765000000001
#
# number of rings (size 3 to 8) (size 9 to 14) (size 15 to 20)
#    0.000    1.000    8.333    1.500    0.000    0.000 
#    0.000    4.167    0.000    1.000    0.000    0.000 
#    0.000    0.000    0.000    0.000    0.000    0.000 
#
# Total GULP energy -133813.363695 kJ/mol
# GULP energy per Si atom -5575.556821 kJ/mol
# Density = 1.821521 g / cm^3
# Si number density = 18.256765 Si / 1000 Ang^3
#
#
#
# Elastic Constant Matrix: (Units=GPa)
#
#
# Indices 1 2 3 4 5 6 
#
# 1 38.0918 6.8823 10.7640 0.0000 -7.7424 0.0000
# 2 6.8823 60.4877 24.1873 0.0000 2.9311 0.0000
# 3 10.7640 24.1873 77.4145 0.0000 -4.9728 0.0000
# 4 0.0000 0.0000 0.0000 29.5778 0.0000 -3.6041
# 5 -7.7424 2.9311 -4.9728 0.0000 32.8721 0.0000
# 6 0.0000 0.0000 0.0000 -3.6041 0.0000 27.2505
#
#
#
# Elastic Compliance Matrix: (Units=1/GPa)
#
#
# Indices 1 2 3 4 5 6 
#
# 1 0.028833 -0.002475 -0.002813 0.000000 0.006586 0.000000
# 2 -0.002475 0.019328 -0.005900 0.000000 -0.003199 0.000000
# 3 -0.002813 -0.005900 0.015292 0.000000 0.002177 0.000000
# 4 0.000000 0.000000 0.000000 0.034363 0.000000 0.004545
# 5 0.006586 -0.003199 0.002177 0.000000 0.032587 0.000000
# 6 0.000000 0.000000 0.000000 0.004545 0.000000 0.037298
#
#
# Mechanical properties :
#
#
# Convention : Reuss Voigt Hill
#
# Bulk Modulus (GPa) = 24.34440 28.85124 26.59782
# Shear Modulus (GPa) = 24.53759 26.88410 25.71085
#
# Velocity S-wave (km/s) = 3.67008 3.84155 3.75679
# Velocity P-wave (km/s) = 5.59667 5.95937 5.78086
#
# Compressibility (1/GPa) = 0.04107721
#
# Stress axis : x y z
#
# Youngs Moduli (GPa) = 34.68241 51.73775 65.39420
#
# Poissons Ratio (x) = 0.12805 0.18393
# Poissons Ratio (y) = 0.08584 0.38584
# Poissons Ratio (z) = 0.09755 0.30527
#
# Static dielectric constant tensor:
#      x y z
#    x 1.630340 0.000000 -0.005550 
#    y 0.000000 1.666750 0.000000 
#    z -0.005550 0.000000 1.669390 
# 
# From -- ./inp_files/70012.got.cif
#   From: 2010.05.17/outbox.cif.g08.bks.cpg/sg15_36_cif.got.tgz:70012.got - 2010.06.03 18:47:42.
