data_PCOD9279718
_publ_section_title
;
Structure prediction by ZEFSAII (Michael W. Deem and Ramdas Pophale) SiO2 
 PCOD9279718
Probable space group: C 2/C
;
_chemical_formula_sum "Si O2"
_cell_formula_units_Z 52
_cell_length_a 23.589390
_cell_length_b 22.015721
_cell_length_c 5.609831
_cell_angle_alpha 90.000000
_cell_angle_beta 81.561141
_cell_angle_gamma 90.000000
_cell_volume 2881.851963
_symmetry_space_group_name_H-M "C 2/C"
_symmetry_group_IT_number 15
_symmetry_cell_setting 'monoclinic'
loop_
_space_group_symop_operation_xyz
x,y,z
-x,y,1/2-z
-x,-y,-z
x,-y,1/2+z
1/2+x,1/2+y,z
1/2-x,1/2+y,1/2-z
1/2-x,1/2-y,-z
1/2+x,1/2-y,1/2+z
loop_
_atom_site_type_symbol
_atom_site_label
_atom_site_fract_x
_atom_site_fract_y
_atom_site_fract_z
Si Si1 0.701956 0.736587 0.222758
Si Si2 0.000000 0.761617 0.750000
Si Si3 0.801814 0.329344 0.892166
Si Si4 0.366280 0.534824 0.061751
Si Si5 0.109367 0.244374 0.935972
Si Si6 0.728661 0.034390 0.137768
Si Si7 0.941976 0.850179 0.405979
O O1 0.735978 0.692212 0.378418
O O2 0.686398 0.799728 0.358863
O O3 0.750000 0.750000 0.000000
O O4 0.646557 0.713086 0.122201
O O5 0.967002 0.805131 0.588230
O O6 0.050396 0.728258 0.575888
O O7 0.848399 0.294728 0.700189
O O8 0.802411 0.400840 0.864958
O O9 0.379422 0.497954 0.807191
O O10 0.401703 0.596814 0.023780
O O11 0.297561 0.544634 0.097746
O O12 0.092182 0.192993 0.757345
O O13 0.715547 0.003120 0.402203
O O14 0.000000 0.876529 0.250000
#
# Coordination Sequence:
#
# PCOD9279718 Si02
#       7
#     8   4   8   8   8   8   8
#     4   9  20  32  55  89 115 151 188 251 290 367
#     4  10  22  38  56  84 120 150 196 252 322 346
#     4  10  21  36  57  90 116 154 200 240 306 363
#     4  10  24  40  57  81 113 164 210 252 297 346
#     4  10  21  36  57  87 115 152 192 250 307 361
#     4  10  24  40  59  86 123 161 199 247 297 358
#     4  10  23  38  57  82 113 155 202 257 300 350
#
# _framework density 18.043952000000001
#
# number of rings (size 3 to 8) (size 9 to 14) (size 15 to 20)
#    0.000    2.154    0.000    0.923   17.231    1.846 
#    0.000    0.000    0.000    0.000    0.000    1.077 
#    0.000    0.000    0.000    0.000    0.000    0.000 
#
# Total GULP energy -144897.654442 kJ/mol
# GULP energy per Si atom -5572.986709 kJ/mol
# Density = 1.800288 g / cm^3
# Si number density = 18.043952 Si / 1000 Ang^3
#
#
#
# Elastic Constant Matrix: (Units=GPa)
#
#
# Indices 1 2 3 4 5 6 
#
# 1 96.9418 39.7865 45.4522 0.0000 1.9347 0.0000
# 2 39.7865 83.4379 25.3900 0.0000 -2.8070 0.0000
# 3 45.4522 25.3900 82.1695 0.0000 5.7832 0.0000
# 4 0.0000 0.0000 0.0000 1.9387 0.0000 -13.3022
# 5 1.9347 -2.8070 5.7832 0.0000 41.4859 0.0000
# 6 0.0000 0.0000 0.0000 -13.3022 0.0000 25.6286
#
#
#
# Elastic Compliance Matrix: (Units=1/GPa)
#
#
# Indices 1 2 3 4 5 6 
#
# 1 0.015865 -0.005410 -0.007096 0.000000 -0.000117 0.000000
# 2 -0.005410 0.015164 -0.001801 0.000000 0.001529 0.000000
# 3 -0.007096 -0.001801 0.016802 0.000000 -0.002133 0.000000
# 4 0.000000 0.000000 0.000000 -0.201386 0.000000 -0.104527
# 5 -0.000117 0.001529 -0.002133 0.000000 0.024511 0.000000
# 6 0.000000 0.000000 0.000000 -0.104527 0.000000 -0.015234
#
#
# Mechanical properties :
#
#
# Convention : Reuss Voigt Hill
#
# Bulk Modulus (GPa) = 52.03554 53.75629 52.89592
# Shear Modulus (GPa) = -45.76255 23.93868 -10.91194
#
# Velocity S-wave (km/s) = -5.04150 3.64632 -2.46182
# Velocity P-wave (km/s) = 2.23343 6.89812 4.61497
#
# Compressibility (1/GPa) = 0.01921763
#
# Stress axis : x y z
#
# Youngs Moduli (GPa) = 63.03156 65.94573 59.51781
#
# Poissons Ratio (x) = 0.35675 0.42234
# Poissons Ratio (y) = 0.34098 0.10718
# Poissons Ratio (z) = 0.44727 0.11876
#
# Static dielectric constant tensor:
#      x y z
#    x 1.634840 0.000000 -0.001150 
#    y 0.000000 1.596630 0.000000 
#    z -0.001150 0.000000 1.708430 
# 
# From -- ./inp_files/13319.got.cif
#   From: 2010.05.17/outbox.cif.g08.bks.cpg/sg15_7_cif.got.tgz:13319.got - 2010.06.03 18:47:42.
