data_PCOD9279304
_publ_section_title
;
Structure prediction by ZEFSAII (Michael W. Deem and Ramdas Pophale) SiO2 
 PCOD9279304
Probable space group: C 2/C
;
_chemical_formula_sum "Si O2"
_cell_formula_units_Z 48
_cell_length_a 12.008065
_cell_length_b 12.774862
_cell_length_c 22.548793
_cell_angle_alpha 90.000000
_cell_angle_beta 143.332875
_cell_angle_gamma 90.000000
_cell_volume 2065.603206
_symmetry_space_group_name_H-M "C 2/C"
_symmetry_group_IT_number 15
_symmetry_cell_setting 'monoclinic'
loop_
_space_group_symop_operation_xyz
x,y,z
-x,y,1/2-z
-x,-y,-z
x,-y,1/2+z
1/2+x,1/2+y,z
1/2-x,1/2+y,1/2-z
1/2-x,1/2-y,-z
1/2+x,1/2-y,1/2+z
loop_
_atom_site_type_symbol
_atom_site_label
_atom_site_fract_x
_atom_site_fract_y
_atom_site_fract_z
Si Si1 0.281947 0.017922 0.892102
Si Si2 0.741928 0.257895 0.399896
Si Si3 0.043830 0.193578 0.614310
Si Si4 0.412886 0.528937 0.065694
Si Si5 0.732646 0.624457 0.259699
Si Si6 0.909987 0.467580 0.656303
O O1 0.242934 0.140322 0.859060
O O2 0.182836 0.994006 0.912055
O O3 0.207407 0.944055 0.808270
O O4 0.500000 0.000000 0.000000
O O5 0.598822 0.286045 0.392035
O O6 0.682272 0.140613 0.357464
O O7 0.944877 0.247420 0.515891
O O8 0.227707 0.255928 0.707283
O O9 0.043457 0.070432 0.605307
O O10 0.559132 0.619563 0.140982
O O11 0.248177 0.529045 0.947369
O O12 0.922650 0.572956 0.314250
O O13 0.000000 0.526346 0.750000
#
# Coordination Sequence:
#
# PCOD9279304 Si02
#       6
#     8   8   8   8   8   8
#     4  11  17  31  54  89 124 150 185 252 311 357
#     4   8  15  29  52  78 112 146 192 240 294 340
#     4   8  15  31  50  79 117 152 184 239 292 345
#     4  10  21  35  56  88 121 158 203 244 302 362
#     4  11  20  33  59  86 122 159 195 249 309 355
#     4  10  21  37  56  81 115 162 209 249 283 354
#
# _framework density 23.237763000000001
#
# number of rings (size 3 to 8) (size 9 to 14) (size 15 to 20)
#    0.000    2.333    3.333    2.500    0.000    4.667 
#    0.000    0.000    0.000    3.000    0.000    0.000 
#    0.000    0.000    0.000    0.000    0.000    0.000 
#
# Total GULP energy -134055.795437 kJ/mol
# GULP energy per Si atom -5585.658143 kJ/mol
# Density = 2.318487 g / cm^3
# Si number density = 23.237763 Si / 1000 Ang^3
#
#
#
# Elastic Constant Matrix: (Units=GPa)
#
#
# Indices 1 2 3 4 5 6 
#
# 1 62.8617 13.0298 29.6869 0.0000 -4.5382 0.0000
# 2 13.0298 26.8191 32.5591 0.0000 -0.6513 0.0000
# 3 29.6869 32.5591 183.5083 0.0000 6.1673 0.0000
# 4 0.0000 0.0000 0.0000 27.0151 0.0000 5.3181
# 5 -4.5382 -0.6513 6.1673 0.0000 32.2713 0.0000
# 6 0.0000 0.0000 0.0000 5.3181 0.0000 24.7865
#
#
#
# Elastic Compliance Matrix: (Units=1/GPa)
#
#
# Indices 1 2 3 4 5 6 
#
# 1 0.018367 -0.006542 -0.001905 0.000000 0.002815 0.000000
# 2 -0.006542 0.050069 -0.007879 0.000000 0.001596 0.000000
# 3 -0.001905 -0.007879 0.007216 0.000000 -0.001806 0.000000
# 4 0.000000 0.000000 0.000000 0.038649 0.000000 -0.008292
# 5 0.002815 0.001596 -0.001806 0.000000 0.031760 0.000000
# 6 0.000000 0.000000 0.000000 -0.008292 0.000000 0.042124
#
#
# Mechanical properties :
#
#
# Convention : Reuss Voigt Hill
#
# Bulk Modulus (GPa) = 23.25579 47.08229 35.16904
# Shear Modulus (GPa) = 21.26116 30.00882 25.63499
#
# Velocity S-wave (km/s) = 3.02808 3.59748 3.32499
# Velocity P-wave (km/s) = 4.71754 6.12869 5.46882
#
# Compressibility (1/GPa) = 0.04300004
#
# Stress axis : x y z
#
# Youngs Moduli (GPa) = 54.44572 19.97235 138.57780
#
# Poissons Ratio (x) = 0.13066 0.26401
# Poissons Ratio (y) = 0.35619 1.09184
# Poissons Ratio (z) = 0.10373 0.15736
#
# Static dielectric constant tensor:
#      x y z
#    x 1.907360 0.000000 -0.008580 
#    y 0.000000 1.899520 0.000000 
#    z -0.008580 0.000000 1.914750 
# 
# From -- ./inp_files/239011.got.cif
#   From: 2010.05.17/outbox.cif.g08.bks.cpg/sg15_120_cif.got.tgz:239011.got - 2010.06.03 18:47:42.
