data_PCOD9279047
_publ_section_title
;
Structure prediction by ZEFSAII (Michael W. Deem and Ramdas Pophale) SiO2 
 PCOD9279047
Probable space group: C 2/C
;
_chemical_formula_sum "Si O2"
_cell_formula_units_Z 48
_cell_length_a 11.000426
_cell_length_b 24.529968
_cell_length_c 8.892947
_cell_angle_alpha 90.000000
_cell_angle_beta 72.449001
_cell_angle_gamma 90.000000
_cell_volume 2287.966273
_symmetry_space_group_name_H-M "C 2/C"
_symmetry_group_IT_number 15
_symmetry_cell_setting 'monoclinic'
loop_
_space_group_symop_operation_xyz
x,y,z
-x,y,1/2-z
-x,-y,-z
x,-y,1/2+z
1/2+x,1/2+y,z
1/2-x,1/2+y,1/2-z
1/2-x,1/2-y,-z
1/2+x,1/2-y,1/2+z
loop_
_atom_site_type_symbol
_atom_site_label
_atom_site_fract_x
_atom_site_fract_y
_atom_site_fract_z
Si Si1 0.791483 0.002230 0.321908
Si Si2 0.557941 0.781186 0.569952
Si Si3 0.560331 0.432011 0.989599
Si Si4 0.203221 0.311159 0.977563
Si Si5 0.253766 0.423185 0.093062
Si Si6 0.305730 0.322639 0.613367
O O1 0.882279 0.965967 0.394016
O O2 0.875704 0.039671 0.179489
O O3 0.714493 0.043382 0.458182
O O4 0.712183 0.959067 0.251628
O O5 0.500000 0.759030 0.750000
O O6 0.443304 0.806644 0.518995
O O7 0.624760 0.733824 0.450409
O O8 0.669008 0.821685 0.582064
O O9 0.408396 0.428613 0.039089
O O10 0.610537 0.371114 0.979072
O O11 0.219984 0.359518 0.092161
O O12 0.283069 0.328016 0.799548
O O13 0.250000 0.250000 0.000000
#
# Coordination Sequence:
#
# PCOD9279047 Si02
#       6
#     8   8   8   8   8   8
#     4  10  21  34  54  86 118 153 194 243 286 344
#     4   9  21  40  58  82 111 149 196 237 289 348
#     4  11  19  33  56  83 115 149 191 238 294 337
#     4  11  23  37  58  87 119 152 191 243 294 350
#     4  11  20  34  56  85 119 150 193 242 295 339
#     4  10  21  38  61  80 113 155 193 235 292 351
#
# _framework density 20.979330999999998
#
# number of rings (size 3 to 8) (size 9 to 14) (size 15 to 20)
#    0.000    1.667    1.667    5.000    0.000    7.333 
#    0.000    0.000    0.000    6.000    0.000    0.000 
#    0.000    0.000    0.000    0.000    0.000    0.000 
#
# Total GULP energy -134070.981648 kJ/mol
# GULP energy per Si atom -5586.290902 kJ/mol
# Density = 2.093158 g / cm^3
# Si number density = 20.979331 Si / 1000 Ang^3
#
#
#
# Elastic Constant Matrix: (Units=GPa)
#
#
# Indices 1 2 3 4 5 6 
#
# 1 36.2394 15.5244 11.7834 0.0000 5.9366 0.0000
# 2 15.5244 110.6038 8.9352 0.0000 19.4801 0.0000
# 3 11.7834 8.9352 44.3609 0.0000 18.8576 0.0000
# 4 0.0000 0.0000 0.0000 24.5475 0.0000 0.6870
# 5 5.9366 19.4801 18.8576 0.0000 21.7351 0.0000
# 6 0.0000 0.0000 0.0000 0.6870 0.0000 21.9670
#
#
#
# Elastic Compliance Matrix: (Units=1/GPa)
#
#
# Indices 1 2 3 4 5 6 
#
# 1 0.031809 -0.004232 -0.008739 0.000000 0.002687 0.000000
# 2 -0.004232 0.011567 0.004293 0.000000 -0.012936 0.000000
# 3 -0.008739 0.004293 0.039006 0.000000 -0.035303 0.000000
# 4 0.000000 0.000000 0.000000 0.040773 0.000000 -0.001275
# 5 0.002687 -0.012936 -0.035303 0.000000 0.087498 0.000000
# 6 0.000000 0.000000 0.000000 -0.001275 0.000000 0.045563
#
#
# Mechanical properties :
#
#
# Convention : Reuss Voigt Hill
#
# Bulk Modulus (GPa) = 15.37847 29.29889 22.33868
# Shear Modulus (GPa) = 16.93507 23.98065 20.45786
#
# Velocity S-wave (km/s) = 2.84426 3.38459 3.12612
# Velocity P-wave (km/s) = 4.25824 5.41016 4.86839
#
# Compressibility (1/GPa) = 0.06502598
#
# Stress axis : x y z
#
# Youngs Moduli (GPa) = 31.43809 86.45474 25.63707
#
# Poissons Ratio (x) = 0.36587 0.22404
# Poissons Ratio (y) = 0.13304 -0.11007
# Poissons Ratio (z) = 0.27474 -0.37117
#
# Static dielectric constant tensor:
#      x y z
#    x 1.739680 0.000000 0.015750 
#    y 0.000000 1.756970 0.000000 
#    z 0.015750 0.000000 1.812670 
# 
# From -- ./inp_files/32136.got.cif
#   From: 2010.05.17/outbox.cif.g08.bks.cpg/sg15_17_cif.got.tgz:32136.got - 2010.06.03 18:47:42.
