data_PCOD9279860
_publ_section_title
;
Structure prediction by ZEFSAII (Michael W. Deem and Ramdas Pophale) SiO2 
 PCOD9279860
Probable space group: C 2/C
;
_chemical_formula_sum "Si O2"
_cell_formula_units_Z 48
_cell_length_a 25.319418
_cell_length_b 12.995794
_cell_length_c 22.541861
_cell_angle_alpha 90.000000
_cell_angle_beta 20.311517
_cell_angle_gamma 90.000000
_cell_volume 2574.726827
_symmetry_space_group_name_H-M "C 2/C"
_symmetry_group_IT_number 15
_symmetry_cell_setting 'monoclinic'
loop_
_space_group_symop_operation_xyz
x,y,z
-x,y,1/2-z
-x,-y,-z
x,-y,1/2+z
1/2+x,1/2+y,z
1/2-x,1/2+y,1/2-z
1/2-x,1/2-y,-z
1/2+x,1/2-y,1/2+z
loop_
_atom_site_type_symbol
_atom_site_label
_atom_site_fract_x
_atom_site_fract_y
_atom_site_fract_z
Si Si1 0.914853 0.365376 0.023989
Si Si2 0.589003 0.398436 0.100540
Si Si3 0.264381 0.439919 0.775389
Si Si4 0.927551 0.687441 0.261731
Si Si5 0.560266 0.474250 0.518294
Si Si6 0.358282 0.262092 0.132097
O O1 0.875113 0.482252 0.082588
O O2 0.755252 0.305045 0.197901
O O3 0.990376 0.366180 0.880206
O O4 0.016855 0.303538 0.963872
O O5 0.500000 0.445572 0.250000
O O6 0.472952 0.307199 0.203167
O O7 0.614963 0.483795 0.023228
O O8 0.749413 0.342870 0.947450
O O9 0.377951 0.479446 0.706405
O O10 0.362969 0.451136 0.611257
O O11 0.219683 0.322325 0.827781
O O12 0.000000 0.662263 0.250000
O O13 0.597581 0.360007 0.454574
#
# Coordination Sequence:
#
# PCOD9279860 Si02
#       6
#     8   8   8   8   8   8
#     4  11  22  34  61  87 126 152 197 241 300 353
#     4  11  24  39  62  85 124 159 203 244 297 353
#     4  10  21  36  60  88 122 157 195 245 300 354
#     4  11  23  38  59  92 120 162 197 243 297 355
#     4  10  22  38  60  91 120 156 197 246 304 352
#     4  11  21  39  58  91 120 158 196 246 298 355
#
# _framework density 18.642754
#
# number of rings (size 3 to 8) (size 9 to 14) (size 15 to 20)
#    0.000    1.333    1.667    5.500    9.333    1.333 
#    0.000    0.000    0.000    2.000    0.000    0.000 
#    0.000    0.000    0.000    0.000    0.000    0.000 
#
# Total GULP energy -133863.302719 kJ/mol
# GULP energy per Si atom -5577.637613 kJ/mol
# Density = 1.860032 g / cm^3
# Si number density = 18.642754 Si / 1000 Ang^3
#
#
#
# Elastic Constant Matrix: (Units=GPa)
#
#
# Indices 1 2 3 4 5 6 
#
# 1 82.6489 39.6796 40.9712 -0.0002 -1.5258 -0.0003
# 2 39.6796 99.5865 39.9663 0.0013 -6.4428 0.0006
# 3 40.9712 39.9663 92.1782 -0.0011 -0.6845 0.0023
# 4 -0.0002 0.0013 -0.0011 17.1371 0.0020 -7.4272
# 5 -1.5258 -6.4428 -0.6845 0.0020 18.7137 -0.0013
# 6 -0.0003 0.0006 0.0023 -7.4272 -0.0013 22.0568
#
#
#
# Elastic Compliance Matrix: (Units=1/GPa)
#
#
# Indices 1 2 3 4 5 6 
#
# 1 0.017068 -0.004576 -0.005605 0.000001 -0.000389 0.000001
# 2 -0.004576 0.013690 -0.003870 -0.000002 0.004198 0.000000
# 3 -0.005605 -0.003870 0.015009 0.000001 -0.001240 -0.000001
# 4 0.000001 -0.000002 0.000001 0.068324 -0.000006 0.023007
# 5 -0.000389 0.004198 -0.001240 -0.000006 0.054805 0.000001
# 6 0.000001 0.000000 -0.000001 0.023007 0.000001 0.053085
#
#
# Mechanical properties :
#
#
# Convention : Reuss Voigt Hill
#
# Bulk Modulus (GPa) = 56.61524 57.29419 56.95472
# Shear Modulus (GPa) = 19.53343 21.83462 20.68403
#
# Velocity S-wave (km/s) = 3.24045 3.42601 3.33452
# Velocity P-wave (km/s) = 6.66597 6.81538 6.74109
#
# Compressibility (1/GPa) = 0.01766309
#
# Stress axis : x y z
#
# Youngs Moduli (GPa) = 58.58988 73.04721 66.62797
#
# Poissons Ratio (x) = 0.33429 0.37345
# Poissons Ratio (y) = 0.26813 0.25787
# Poissons Ratio (z) = 0.32839 0.28272
#
# Static dielectric constant tensor:
#      x y z
#    x 1.698920 0.000000 -0.048000 
#    y 0.000000 1.638220 0.000000 
#    z -0.048000 0.000000 1.703680 
# 
# From -- ./inp_files/55251.got.cif
#   From: 2010.05.17/outbox.cif.g08.bks.cpg/sg15_28_cif.got.tgz:55251.got - 2010.06.03 18:47:42.
