data_PCOD9279757
_publ_section_title
;
Structure prediction by ZEFSAII (Michael W. Deem and Ramdas Pophale) SiO2 
 PCOD9279757
Probable space group: C 2/C
;
_chemical_formula_sum "Si O2"
_cell_formula_units_Z 64
_cell_length_a 8.398449
_cell_length_b 15.413594
_cell_length_c 22.134420
_cell_angle_alpha 90.000000
_cell_angle_beta 56.356525
_cell_angle_gamma 90.000000
_cell_volume 2385.371169
_symmetry_space_group_name_H-M "C 2/C"
_symmetry_group_IT_number 15
_symmetry_cell_setting 'monoclinic'
loop_
_space_group_symop_operation_xyz
x,y,z
-x,y,1/2-z
-x,-y,-z
x,-y,1/2+z
1/2+x,1/2+y,z
1/2-x,1/2+y,1/2-z
1/2-x,1/2-y,-z
1/2+x,1/2-y,1/2+z
loop_
_atom_site_type_symbol
_atom_site_label
_atom_site_fract_x
_atom_site_fract_y
_atom_site_fract_z
Si Si1 0.540497 0.040046 0.356189
Si Si2 0.757116 0.987518 0.936632
Si Si3 0.612537 0.212735 0.161901
Si Si4 0.526483 0.719241 0.344482
Si Si5 0.634897 0.199069 0.471325
Si Si6 0.940542 0.162298 0.931250
Si Si7 0.617742 0.109841 0.663563
Si Si8 0.893023 0.946617 0.714832
O O1 0.645956 0.011917 0.395193
O O2 0.473417 0.137962 0.362440
O O3 0.680201 0.022919 0.268882
O O4 0.368910 0.978279 0.376138
O O5 0.642827 0.903506 0.988645
O O6 0.976475 0.964866 0.870209
O O7 0.795634 0.077854 0.965769
O O8 0.500000 0.218215 0.250000
O O9 0.834691 0.194990 0.129860
O O10 0.606532 0.299044 0.124367
O O11 0.304368 0.694461 0.386198
O O12 0.512861 0.821762 0.346152
O O13 0.620897 0.657907 0.274833
O O14 0.750000 0.250000 0.500000
O O15 0.465795 0.258929 0.477103
O O16 0.162337 0.135981 0.877623
O O17 0.500000 0.113361 0.750000
O O18 0.000000 0.984361 0.750000
#
# Coordination Sequence:
#
# PCOD9279757 Si02
#       8
#     8   8   8   8   8   8   8   8
#     4  11  21  35  55  89 130 170 203 243 303 386
#     4  10  21  39  63  85 126 161 206 266 320 377
#     4  12  22  35  60  93 134 172 205 245 307 386
#     4  10  21  36  58  85 123 162 210 258 312 369
#     4  10  23  45  68  91 119 159 215 280 337 378
#     4  11  24  40  62  94 124 165 215 260 321 386
#     4  11  22  33  55  88 127 167 208 248 299 379
#     4   9  18  32  54  85 122 168 200 238 300 371
#
# _framework density 26.830204999999999
#
# number of rings (size 3 to 8) (size 9 to 14) (size 15 to 20)
#    0.000    1.500    2.500    3.000    5.250    2.000 
#    0.000    0.625    0.000    3.750    0.000    0.000 
#    0.000    0.000    0.000    0.000    0.000    0.000 
#
# Total GULP energy -178184.782539 kJ/mol
# GULP energy per Si atom -5568.274454 kJ/mol
# Density = 2.676914 g / cm^3
# Si number density = 26.830205 Si / 1000 Ang^3
#
#
#
# Elastic Constant Matrix: (Units=GPa)
#
#
# Indices 1 2 3 4 5 6 
#
# 1 152.5010 43.9698 23.6755 0.0000 5.2261 0.0002
# 2 43.9698 133.3431 46.4389 0.0000 4.2735 0.0001
# 3 23.6755 46.4389 89.4771 0.0000 8.6293 0.0000
# 4 0.0000 0.0000 0.0000 23.5024 0.0000 3.7632
# 5 5.2261 4.2735 8.6293 0.0000 20.6083 -0.0001
# 6 0.0002 0.0001 0.0000 3.7632 -0.0001 70.5186
#
#
#
# Elastic Compliance Matrix: (Units=1/GPa)
#
#
# Indices 1 2 3 4 5 6 
#
# 1 0.007321 -0.002125 -0.000727 0.000000 -0.001111 0.000000
# 2 -0.002125 0.009771 -0.004549 0.000000 0.000418 0.000000
# 3 -0.000727 -0.004549 0.014194 0.000000 -0.004816 0.000000
# 4 0.000000 0.000000 0.000000 0.042915 0.000000 -0.002290
# 5 -0.001111 0.000418 -0.004816 0.000000 0.050736 0.000000
# 6 0.000000 0.000000 0.000000 -0.002290 0.000000 0.014303
#
#
# Mechanical properties :
#
#
# Convention : Reuss Voigt Hill
#
# Bulk Modulus (GPa) = 60.66759 67.05441 63.86100
# Shear Modulus (GPa) = 31.34057 40.34168 35.84113
#
# Velocity S-wave (km/s) = 3.42147 3.88182 3.65889
# Velocity P-wave (km/s) = 6.18622 6.71847 6.45783
#
# Compressibility (1/GPa) = 0.01648327
#
# Stress axis : x y z
#
# Youngs Moduli (GPa) = 136.59225 102.34112 70.45293
#
# Poissons Ratio (x) = 0.21751 0.05121
# Poissons Ratio (y) = 0.29031 0.32051
# Poissons Ratio (z) = 0.09929 0.46557
#
# Static dielectric constant tensor:
#      x y z
#    x 2.055470 0.000000 0.019550 
#    y 0.000000 2.275680 0.000000 
#    z 0.019550 0.000000 2.244190 
# 
# From -- ./inp_files/288723.got.cif
#   From: 2010.05.17/outbox.cif.g08.bks.cpg/sg15_145_cif.got.tgz:288723.got - 2010.06.03 18:47:42.
