data_PCOD9279753
_publ_section_title
;
Structure prediction by ZEFSAII (Michael W. Deem and Ramdas Pophale) SiO2 
 PCOD9279753
Probable space group: C 2/C
;
_chemical_formula_sum "Si O2"
_cell_formula_units_Z 48
_cell_length_a 12.955648
_cell_length_b 9.357762
_cell_length_c 14.593204
_cell_angle_alpha 90.000000
_cell_angle_beta 109.220602
_cell_angle_gamma 90.000000
_cell_volume 1670.600043
_symmetry_space_group_name_H-M "C 2/C"
_symmetry_group_IT_number 15
_symmetry_cell_setting 'monoclinic'
loop_
_space_group_symop_operation_xyz
x,y,z
-x,y,1/2-z
-x,-y,-z
x,-y,1/2+z
1/2+x,1/2+y,z
1/2-x,1/2+y,1/2-z
1/2-x,1/2-y,-z
1/2+x,1/2-y,1/2+z
loop_
_atom_site_type_symbol
_atom_site_label
_atom_site_fract_x
_atom_site_fract_y
_atom_site_fract_z
Si Si1 0.500000 0.887080 0.750000
Si Si2 0.494773 0.633775 0.612801
Si Si3 0.500000 0.604113 0.250000
Si Si4 0.386295 0.264940 0.927963
Si Si5 0.266918 0.324751 0.633073
Si Si6 0.748525 0.448348 0.501514
Si Si7 0.189750 0.567711 0.754343
O O1 0.602251 0.989681 0.793035
O O2 0.520277 0.778974 0.672935
O O3 0.544507 0.500931 0.682067
O O4 0.495518 0.666045 0.504007
O O5 0.363497 0.597023 0.586987
O O6 0.601149 0.684172 0.325064
O O7 0.346247 0.145515 0.989986
O O8 0.375991 0.181546 0.831125
O O9 0.293942 0.388184 0.913539
O O10 0.230705 0.390907 0.525017
O O11 0.232094 0.448862 0.695319
O O12 0.231123 0.172463 0.664364
#
# Coordination Sequence:
#
# PCOD9279753 Si02
#       7
#     4   8   4   8   8   8   8
#     4  11  23  34  54  86 124 146 184 242 280 314
#     4   8  16  31  59  81 106 146 189 221 277 338
#     4   9  17  34  60  82 108 148 180 234 280 338
#     4   8  15  32  56  86 104 150 187 227 273 343
#     4  10  21  36  58  85 111 148 188 232 282 341
#     4   7  14  31  57  79 108 141 185 228 272 331
#     4  11  24  35  59  85 117 147 189 235 283 329
#
# _framework density 28.732191
#
# number of rings (size 3 to 8) (size 9 to 14) (size 15 to 20)
#    1.000    2.000    0.000    0.500    9.333    0.667 
#    0.000    0.833    0.000    5.000    0.000    0.000 
#    0.000    0.000    0.000    0.000    0.000    0.000 
#
# Total GULP energy -134057.683597 kJ/mol
# GULP energy per Si atom -5585.736817 kJ/mol
# Density = 2.866680 g / cm^3
# Si number density = 28.732191 Si / 1000 Ang^3
#
#
#
# Elastic Constant Matrix: (Units=GPa)
#
#
# Indices 1 2 3 4 5 6 
#
# 1 63.3688 18.6409 5.7340 0.0000 -1.5765 0.0000
# 2 18.6409 178.7153 16.6993 0.0000 -13.4642 0.0000
# 3 5.7340 16.6993 103.0296 0.0000 -20.1840 0.0000
# 4 0.0000 0.0000 0.0000 49.4616 0.0000 -1.2261
# 5 -1.5765 -13.4642 -20.1840 0.0000 47.5201 0.0000
# 6 0.0000 0.0000 0.0000 -1.2261 0.0000 43.4909
#
#
#
# Elastic Compliance Matrix: (Units=1/GPa)
#
#
# Indices 1 2 3 4 5 6 
#
# 1 0.016324 -0.001655 -0.000683 0.000000 -0.000217 0.000000
# 2 -0.001655 0.005927 -0.000600 0.000000 0.001370 0.000000
# 3 -0.000683 -0.000600 0.010693 0.000000 0.004349 0.000000
# 4 0.000000 0.000000 0.000000 0.020232 0.000000 0.000570
# 5 -0.000217 0.001370 0.004349 0.000000 0.023272 0.000000
# 6 0.000000 0.000000 0.000000 0.000570 0.000000 0.023009
#
#
# Mechanical properties :
#
#
# Convention : Reuss Voigt Hill
#
# Bulk Modulus (GPa) = 36.94410 47.47354 42.20882
# Shear Modulus (GPa) = 43.72268 48.36380 46.04324
#
# Velocity S-wave (km/s) = 3.90517 4.10721 4.00746
# Velocity P-wave (km/s) = 5.76366 6.24907 6.01127
#
# Compressibility (1/GPa) = 0.02706792
#
# Stress axis : x y z
#
# Youngs Moduli (GPa) = 61.25975 168.70754 93.51671
#
# Poissons Ratio (x) = 0.27925 0.06385
# Poissons Ratio (y) = 0.10140 0.05614
# Poissons Ratio (z) = 0.04183 0.10128
#
# Static dielectric constant tensor:
#      x y z
#    x 2.211840 0.000000 -0.009880 
#    y 0.000000 2.309660 0.000000 
#    z -0.009880 0.000000 2.354220 
# 
# From -- ./inp_files/208719.got.cif
#   From: 2010.05.17/outbox.cif.g08.bks.cpg/sg15_105_cif.got.tgz:208719.got - 2010.06.03 18:47:42.
