data_PCOD9279540
_publ_section_title
;
Structure prediction by ZEFSAII (Michael W. Deem and Ramdas Pophale) SiO2 
 PCOD9279540
Probable space group: C 2/C
;
_chemical_formula_sum "Si O2"
_cell_formula_units_Z 52
_cell_length_a 21.714634
_cell_length_b 13.879531
_cell_length_c 15.857823
_cell_angle_alpha 90.000000
_cell_angle_beta 33.153580
_cell_angle_gamma 90.000000
_cell_volume 2613.767612
_symmetry_space_group_name_H-M "C 2/C"
_symmetry_group_IT_number 15
_symmetry_cell_setting 'monoclinic'
loop_
_space_group_symop_operation_xyz
x,y,z
-x,y,1/2-z
-x,-y,-z
x,-y,1/2+z
1/2+x,1/2+y,z
1/2-x,1/2+y,1/2-z
1/2-x,1/2-y,-z
1/2+x,1/2-y,1/2+z
loop_
_atom_site_type_symbol
_atom_site_label
_atom_site_fract_x
_atom_site_fract_y
_atom_site_fract_z
Si Si1 0.756673 0.117056 0.348567
Si Si2 0.868092 0.057890 0.398262
Si Si3 0.872967 0.852962 0.322931
Si Si4 0.013246 0.112373 0.504237
Si Si5 0.000000 0.680576 0.250000
Si Si6 0.830058 0.403294 0.068267
Si Si7 0.191855 0.176878 0.874574
O O1 0.810246 0.098769 0.379672
O O2 0.860169 0.133230 0.165961
O O3 0.691333 0.216974 0.415495
O O4 0.691314 0.018441 0.400577
O O5 0.812001 0.100323 0.545482
O O6 0.000000 0.084703 0.250000
O O7 0.861857 0.942292 0.398934
O O8 0.766255 0.863487 0.384630
O O9 0.900703 0.751480 0.332273
O O10 0.979148 0.870869 0.139229
O O11 0.920990 0.165239 0.552081
O O12 0.000000 0.000000 0.500000
O O13 0.947982 0.620464 0.387478
O O14 0.797531 0.350893 0.193049
#
# Coordination Sequence:
#
# PCOD9279540 Si02
#       7
#     8   8   8   8   4   8   8
#     4  11  22  39  61  92 128 163 203 259 307 376
#     4  11  19  35  60  96 120 157 203 256 300 359
#     4  10  21  35  65  93 114 158 213 267 299 366
#     4  11  18  39  65  88 125 157 209 263 302 354
#     4  12  22  40  62  86 122 166 210 260 322 358
#     4  10  24  41  59  88 125 162 204 260 312 364
#     4  11  22  37  63  95 120 163 207 249 316 364
#
# _framework density 19.894653000000002
#
# number of rings (size 3 to 8) (size 9 to 14) (size 15 to 20)
#    0.000    1.231    6.923    1.846    0.000    1.231 
#    1.385    3.077    0.000    8.308    0.000    0.000 
#    0.000    0.000    0.000    0.000    0.000    0.000 
#
# Total GULP energy -145126.361681 kJ/mol
# GULP energy per Si atom -5581.783142 kJ/mol
# Density = 1.984937 g / cm^3
# Si number density = 19.894653 Si / 1000 Ang^3
#
#
#
# Elastic Constant Matrix: (Units=GPa)
#
#
# Indices 1 2 3 4 5 6 
#
# 1 41.2211 46.9266 2.9624 0.0000 5.7550 0.0000
# 2 46.9266 117.5914 65.2903 0.0000 15.1423 0.0000
# 3 2.9624 65.2903 106.7493 0.0000 19.3464 0.0000
# 4 0.0000 0.0000 0.0000 23.5782 0.0000 -3.0873
# 5 5.7550 15.1423 19.3464 0.0000 22.9037 0.0000
# 6 0.0000 0.0000 0.0000 -3.0873 0.0000 28.0183
#
#
#
# Elastic Compliance Matrix: (Units=1/GPa)
#
#
# Indices 1 2 3 4 5 6 
#
# 1 0.069609 -0.039931 0.024650 0.000000 -0.011913 0.000000
# 2 -0.039931 0.035877 -0.021673 0.000000 0.004620 0.000000
# 3 0.024650 -0.021673 0.024164 0.000000 -0.012276 0.000000
# 4 0.000000 0.000000 0.000000 0.043033 0.000000 0.004742
# 5 -0.011913 0.004620 -0.012276 0.000000 0.053969 0.000000
# 6 0.000000 0.000000 0.000000 0.004742 0.000000 0.036213
#
#
# Mechanical properties :
#
#
# Convention : Reuss Voigt Hill
#
# Bulk Modulus (GPa) = 17.93954 55.10227 36.52090
# Shear Modulus (GPa) = 14.07049 24.92553 19.49801
#
# Velocity S-wave (km/s) = 2.66230 3.54344 3.13399
# Velocity P-wave (km/s) = 4.29969 6.67071 5.61185
#
# Compressibility (1/GPa) = 0.05574280
#
# Stress axis : x y z
#
# Youngs Moduli (GPa) = 14.36603 27.87279 41.38385
#
# Poissons Ratio (x) = 1.11298 -1.02010
# Poissons Ratio (y) = 0.57365 0.89690
# Poissons Ratio (z) = -0.35412 0.60408
#
# Static dielectric constant tensor:
#      x y z
#    x 1.711930 0.000000 -0.015170 
#    y 0.000000 1.741300 0.000000 
#    z -0.015170 0.000000 1.709470 
# 
# From -- ./inp_files/222438.got.cif
#   From: 2010.05.17/outbox.cif.g08.bks.cpg/sg15_112_cif.got.tgz:222438.got - 2010.06.03 18:47:42.
