data_PCOD9279032
_publ_section_title
;
Structure prediction by ZEFSAII (Michael W. Deem and Ramdas Pophale) SiO2 
 PCOD9279032
Probable space group: C 2/C
;
_chemical_formula_sum "Si O2"
_cell_formula_units_Z 64
_cell_length_a 16.496311
_cell_length_b 25.327922
_cell_length_c 13.504128
_cell_angle_alpha 90.000000
_cell_angle_beta 35.443137
_cell_angle_gamma 90.000000
_cell_volume 3271.915535
_symmetry_space_group_name_H-M "C 2/C"
_symmetry_group_IT_number 15
_symmetry_cell_setting 'monoclinic'
loop_
_space_group_symop_operation_xyz
x,y,z
-x,y,1/2-z
-x,-y,-z
x,-y,1/2+z
1/2+x,1/2+y,z
1/2-x,1/2+y,1/2-z
1/2-x,1/2-y,-z
1/2+x,1/2-y,1/2+z
loop_
_atom_site_type_symbol
_atom_site_label
_atom_site_fract_x
_atom_site_fract_y
_atom_site_fract_z
Si Si1 0.842052 0.548851 0.593190
Si Si2 0.657941 0.055750 0.277764
Si Si3 0.669411 0.306409 0.584598
Si Si4 0.845835 0.661657 0.093963
Si Si5 0.833012 0.931584 0.420969
Si Si6 0.152544 0.816816 0.081069
Si Si7 0.753992 0.246252 0.819147
Si Si8 0.334333 0.151553 0.736119
O O1 0.841315 0.492562 0.646853
O O2 0.731430 0.548104 0.616071
O O3 0.812739 0.596761 0.699137
O O4 0.998820 0.559063 0.396683
O O5 0.685460 0.111012 0.306551
O O6 0.768819 0.042886 0.082703
O O7 0.500000 0.301060 0.750000
O O8 0.750000 0.250000 0.500000
O O9 0.727699 0.331766 0.628041
O O10 0.729503 0.339302 0.431614
O O11 0.846462 0.715376 0.158995
O O12 0.002337 0.654343 0.895011
O O13 0.766290 0.871558 0.497165
O O14 0.000000 0.938695 0.250000
O O15 0.181104 0.780188 0.147109
O O16 0.000000 0.837493 0.250000
O O17 0.152514 0.787022 0.976743
O O18 0.691940 0.200021 0.814091
#
# Coordination Sequence:
#
# PCOD9279032 Si02
#       8
#     8   8   8   8   8   8   8   8
#     4  10  23  44  67  91 123 166 213 259 307 364
#     4  10  23  44  67  91 123 166 213 259 307 364
#     4  12  26  41  62  90 125 167 210 261 315 377
#     4  11  23  40  64  92 123 164 210 258 309 370
#     4  11  22  39  63  94 128 160 202 254 308 369
#     4  10  21  34  53  91 131 164 192 237 305 369
#     4  11  20  35  60  90 126 163 196 251 298 376
#     4  11  23  40  64  92 123 164 210 258 309 370
#
# _framework density 19.560407000000001
#
# number of rings (size 3 to 8) (size 9 to 14) (size 15 to 20)
#    0.000    1.250    3.750    2.250    0.000    3.500 
#    0.000    5.000    0.000    0.000    0.000    0.000 
#    0.000    0.000    0.000    0.000    0.000    0.000 
#
# Total GULP energy -178344.649446 kJ/mol
# GULP energy per Si atom -5573.270295 kJ/mol
# Density = 1.951589 g / cm^3
# Si number density = 19.560407 Si / 1000 Ang^3
#
#
#
# Elastic Constant Matrix: (Units=GPa)
#
#
# Indices 1 2 3 4 5 6 
#
# 1 127.2372 30.3385 56.5361 0.0203 -11.8373 0.0047
# 2 30.3385 66.3023 3.9401 0.0092 -7.9280 0.0040
# 3 56.5361 3.9401 110.0581 0.0581 -12.1641 0.0255
# 4 0.0203 0.0092 0.0581 71.4025 -0.0484 37.3507
# 5 -11.8373 -7.9280 -12.1641 -0.0484 23.8822 -0.0195
# 6 0.0047 0.0040 0.0255 37.3507 -0.0195 26.2408
#
#
#
# Elastic Compliance Matrix: (Units=1/GPa)
#
#
# Indices 1 2 3 4 5 6 
#
# 1 0.011653 -0.004842 -0.005671 0.000000 0.001280 0.000004
# 2 -0.004842 0.017718 0.002371 0.000003 0.004690 -0.000004
# 3 -0.005671 0.002371 0.012388 -0.000006 0.004286 0.000001
# 4 0.000000 0.000003 -0.000006 0.054830 0.000045 -0.078044
# 5 0.001280 0.004690 0.004286 0.000045 0.046246 -0.000035
# 6 0.000004 -0.000004 0.000001 -0.078044 -0.000035 0.149195
#
#
# Mechanical properties :
#
#
# Convention : Reuss Voigt Hill
#
# Bulk Modulus (GPa) = 39.25404 53.91413 46.58409
# Shear Modulus (GPa) = 15.78254 38.49063 27.13659
#
# Velocity S-wave (km/s) = 2.84361 4.44078 3.72872
# Velocity P-wave (km/s) = 5.55816 7.34281 6.51191
#
# Compressibility (1/GPa) = 0.02547508
#
# Stress axis : x y z
#
# Youngs Moduli (GPa) = 85.81577 56.44017 80.72210
#
# Poissons Ratio (x) = 0.27329 0.45779
# Poissons Ratio (y) = 0.41552 -0.19142
# Poissons Ratio (z) = 0.48668 -0.13384
#
# Static dielectric constant tensor:
#      x y z
#    x 1.665180 0.000000 -0.005370 
#    y 0.000000 1.739340 0.000000 
#    z -0.005370 0.000000 1.712020 
# 
# From -- ./inp_files/101316.got.cif
#   From: 2010.05.17/outbox.cif.g08.bks.cpg/sg15_51_cif.got.tgz:101316.got - 2010.06.03 18:47:42.
