data_PCOD9279079
_publ_section_title
;
Structure prediction by ZEFSAII (Michael W. Deem and Ramdas Pophale) SiO2 
 PCOD9279079
Probable space group: C 2/C
;
_chemical_formula_sum "Si O2"
_cell_formula_units_Z 52
_cell_length_a 18.594493
_cell_length_b 26.227597
_cell_length_c 11.514341
_cell_angle_alpha 90.000000
_cell_angle_beta 24.686405
_cell_angle_gamma 90.000000
_cell_volume 2345.286853
_symmetry_space_group_name_H-M "C 2/C"
_symmetry_group_IT_number 15
_symmetry_cell_setting 'monoclinic'
loop_
_space_group_symop_operation_xyz
x,y,z
-x,y,1/2-z
-x,-y,-z
x,-y,1/2+z
1/2+x,1/2+y,z
1/2-x,1/2+y,1/2-z
1/2-x,1/2-y,-z
1/2+x,1/2-y,1/2+z
loop_
_atom_site_type_symbol
_atom_site_label
_atom_site_fract_x
_atom_site_fract_y
_atom_site_fract_z
Si Si1 0.217832 0.566876 0.917018
Si Si2 0.990743 0.399032 0.966113
Si Si3 0.926279 0.092982 0.141912
Si Si4 0.689814 0.964607 0.833834
Si Si5 0.523102 0.697756 0.905275
Si Si6 0.797914 0.302447 0.795680
Si Si7 0.500000 0.477899 0.750000
O O1 0.416172 0.566041 0.657176
O O2 0.162142 0.511058 0.960894
O O3 0.115258 0.588591 0.174678
O O4 0.188465 0.599685 0.840767
O O5 0.025671 0.444349 0.004777
O O6 0.061378 0.347352 0.917350
O O7 0.981279 0.152143 0.056260
O O8 0.761165 0.082138 0.305768
O O9 0.925156 0.060627 0.261451
O O10 0.842016 0.987086 0.527762
O O11 0.677717 0.685665 0.585984
O O12 0.593851 0.750434 0.852787
O O13 0.345761 0.703232 0.093158
#
# Coordination Sequence:
#
# PCOD9279079 Si02
#       7
#     8   8   8   8   8   8   4
#     4  10  22  31  51  80 114 151 176 221 274 331
#     4  11  20  34  53  80 117 146 175 226 281 331
#     4  11  20  37  56  81 112 147 189 231 275 322
#     4  11  20  36  54  82 110 151 192 222 267 323
#     4  10  21  35  56  83 109 141 181 235 279 336
#     4  10  21  34  56  84 110 140 181 227 289 334
#     4  10  22  32  58  82 108 148 190 228 264 336
#
# _framework density 22.172129000000002
#
# number of rings (size 3 to 8) (size 9 to 14) (size 15 to 20)
#    0.000    1.538    3.077    4.154    2.154    1.231 
#    0.000    0.000    0.000    0.923    0.000    0.000 
#    0.000    0.000    0.000    0.000    0.000    0.000 
#
# Total GULP energy -145054.584204 kJ/mol
# GULP energy per Si atom -5579.022469 kJ/mol
# Density = 2.212166 g / cm^3
# Si number density = 22.172129 Si / 1000 Ang^3
#
#
#
# Elastic Constant Matrix: (Units=GPa)
#
#
# Indices 1 2 3 4 5 6 
#
# 1 72.2381 33.6434 -1.9108 -0.0128 -18.8119 -0.0012
# 2 33.6434 138.6676 6.6441 -0.0066 -11.9546 -0.0063
# 3 -1.9108 6.6441 34.5206 -0.0013 -3.0013 0.0077
# 4 -0.0128 -0.0066 -0.0013 27.4450 0.0036 -10.0835
# 5 -18.8119 -11.9546 -3.0013 0.0036 29.6066 -0.0057
# 6 -0.0012 -0.0063 0.0077 -10.0835 -0.0057 34.7515
#
#
#
# Elastic Compliance Matrix: (Units=1/GPa)
#
#
# Indices 1 2 3 4 5 6 
#
# 1 0.018343 -0.003677 0.002630 0.000008 0.010437 0.000003
# 2 -0.003677 0.008257 -0.001721 0.000001 0.000823 0.000002
# 3 0.002630 -0.001721 0.029793 -0.000001 0.003997 -0.000006
# 4 0.000008 0.000001 -0.000001 0.040784 0.000002 0.011834
# 5 0.010437 0.000823 0.003997 0.000002 0.041146 0.000007
# 6 0.000003 0.000002 -0.000006 0.011834 0.000007 0.032209
#
#
# Mechanical properties :
#
#
# Convention : Reuss Voigt Hill
#
# Bulk Modulus (GPa) = 19.66263 35.79772 27.73018
# Shear Modulus (GPa) = 25.90416 32.16392 29.03404
#
# Velocity S-wave (km/s) = 3.42178 3.81287 3.62260
# Velocity P-wave (km/s) = 4.94963 5.96359 5.48011
#
# Compressibility (1/GPa) = 0.05085789
#
# Stress axis : x y z
#
# Youngs Moduli (GPa) = 54.51678 121.11002 33.56541
#
# Poissons Ratio (x) = 0.44527 -0.08829
# Poissons Ratio (y) = 0.20044 0.05777
# Poissons Ratio (z) = -0.14340 0.20844
#
# Static dielectric constant tensor:
#      x y z
#    x 1.840120 -0.000010 -0.006640 
#    y -0.000010 1.827000 0.000010 
#    z -0.006640 0.000010 1.853190 
# 
# From -- ./inp_files/108331.got.cif
#   From: 2010.05.17/outbox.cif.g08.bks.cpg/sg15_55_cif.got.tgz:108331.got - 2010.06.03 18:47:42.
