data_PCOD9279396
_publ_section_title
;
Structure prediction by ZEFSAII (Michael W. Deem and Ramdas Pophale) SiO2 
 PCOD9279396
Probable space group: C 2/C
;
_chemical_formula_sum "Si O2"
_cell_formula_units_Z 24
_cell_length_a 7.698152
_cell_length_b 11.787477
_cell_length_c 12.571986
_cell_angle_alpha 90.000000
_cell_angle_beta 114.237775
_cell_angle_gamma 90.000000
_cell_volume 1040.242200
_symmetry_space_group_name_H-M "C 2/C"
_symmetry_group_IT_number 15
_symmetry_cell_setting 'monoclinic'
loop_
_space_group_symop_operation_xyz
x,y,z
-x,y,1/2-z
-x,-y,-z
x,-y,1/2+z
1/2+x,1/2+y,z
1/2-x,1/2+y,1/2-z
1/2-x,1/2-y,-z
1/2+x,1/2-y,1/2+z
loop_
_atom_site_type_symbol
_atom_site_label
_atom_site_fract_x
_atom_site_fract_y
_atom_site_fract_z
Si Si1 0.751125 0.402465 0.037160
Si Si2 0.704368 0.308856 0.813090
Si Si3 0.796361 0.155630 0.423986
O O1 0.831723 0.313354 0.142076
O O2 0.787779 0.531565 0.074353
O O3 0.817333 0.374506 0.933617
O O4 0.524575 0.370528 0.982581
O O5 0.500000 0.370339 0.750000
O O6 0.772286 0.303283 0.709660
O O7 0.750000 0.250000 0.500000
#
# Coordination Sequence:
#
# PCOD9279396 Si02
#       3
#     8   8   8
#     4   9  20  39  56  80 118 148 184 240 282 338
#     4   9  19  38  56  77 114 150 183 236 292 328
#     4  10  21  35  59  86 109 150 194 227 289 346
#
# _framework density 23.071549000000001
#
# number of rings (size 3 to 8) (size 9 to 14) (size 15 to 20)
#    0.000    2.667    0.000    0.000    4.667    1.333 
#    6.000    5.000    0.000    0.000    0.000    0.000 
#    0.000    0.000    0.000    0.000    0.000    0.000 
#
# Total GULP energy -66942.363736 kJ/mol
# GULP energy per Si atom -5578.530311 kJ/mol
# Density = 2.301904 g / cm^3
# Si number density = 23.071549 Si / 1000 Ang^3
#
#
#
# Elastic Constant Matrix: (Units=GPa)
#
#
# Indices 1 2 3 4 5 6 
#
# 1 61.4099 4.4189 27.3461 0.0000 -8.6410 0.0000
# 2 4.4189 149.9599 99.0703 0.0000 -39.1923 0.0000
# 3 27.3461 99.0703 246.2734 0.0000 -58.4484 0.0000
# 4 0.0000 0.0000 0.0000 16.0537 0.0000 -0.5225
# 5 -8.6410 -39.1923 -58.4484 0.0000 43.4525 0.0000
# 6 0.0000 0.0000 0.0000 -0.5225 0.0000 26.8890
#
#
#
# Elastic Compliance Matrix: (Units=1/GPa)
#
#
# Indices 1 2 3 4 5 6 
#
# 1 0.017352 0.001316 -0.001991 0.000000 0.001959 0.000000
# 2 0.001316 0.009924 -0.002867 0.000000 0.005356 0.000000
# 3 -0.001991 -0.002867 0.006944 0.000000 0.006359 0.000000
# 4 0.000000 0.000000 0.000000 0.062330 0.000000 0.001211
# 5 0.001959 0.005356 0.006359 0.000000 0.036787 0.000000
# 6 0.000000 0.000000 0.000000 0.001211 0.000000 0.037213
#
#
# Mechanical properties :
#
#
# Convention : Reuss Voigt Hill
#
# Bulk Modulus (GPa) = 36.85236 79.92374 58.38805
# Shear Modulus (GPa) = 26.78393 39.06625 32.92509
#
# Velocity S-wave (km/s) = 3.41091 4.11939 3.78178
# Velocity P-wave (km/s) = 5.61428 7.57250 6.66569
#
# Compressibility (1/GPa) = 0.02713530
#
# Stress axis : x y z
#
# Youngs Moduli (GPa) = 57.63128 100.77052 144.00743
#
# Poissons Ratio (x) = -0.13264 0.28675
# Poissons Ratio (y) = -0.07586 0.41288
# Poissons Ratio (z) = 0.11476 0.28892
#
# Static dielectric constant tensor:
#      x y z
#    x 2.032020 0.000000 0.036720 
#    y 0.000000 1.850440 0.000000 
#    z 0.036720 0.000000 1.905190 
# 
# From -- ./inp_files/26907.got.cif
#   From: 2010.05.17/outbox.cif.g08.bks.cpg/sg15_14_cif.got.tgz:26907.got - 2010.06.03 18:47:42.
