data_PCOD9279043
_publ_section_title
;
Structure prediction by ZEFSAII (Michael W. Deem and Ramdas Pophale) SiO2 
 PCOD9279043
Probable space group: C 2/C
;
_chemical_formula_sum "Si O2"
_cell_formula_units_Z 40
_cell_length_a 10.073950
_cell_length_b 19.144675
_cell_length_c 7.678423
_cell_angle_alpha 90.000000
_cell_angle_beta 97.115515
_cell_angle_gamma 90.000000
_cell_volume 1469.474749
_symmetry_space_group_name_H-M "C 2/C"
_symmetry_group_IT_number 15
_symmetry_cell_setting 'monoclinic'
loop_
_space_group_symop_operation_xyz
x,y,z
-x,y,1/2-z
-x,-y,-z
x,-y,1/2+z
1/2+x,1/2+y,z
1/2-x,1/2+y,1/2-z
1/2-x,1/2-y,-z
1/2+x,1/2-y,1/2+z
loop_
_atom_site_type_symbol
_atom_site_label
_atom_site_fract_x
_atom_site_fract_y
_atom_site_fract_z
Si Si1 0.786340 0.785745 0.705148
Si Si2 0.270800 0.104945 0.055226
Si Si3 0.443678 0.132491 0.552699
Si Si4 0.227849 0.037950 0.679081
Si Si5 0.598119 0.331350 0.107538
O O1 0.797986 0.824317 0.889844
O O2 0.659053 0.825926 0.590795
O O3 0.734729 0.706404 0.702881
O O4 0.904317 0.798062 0.585350
O O5 0.232641 0.044553 0.185443
O O6 0.426615 0.117741 0.043355
O O7 0.222131 0.069336 0.870705
O O8 0.500000 0.160657 0.750000
O O9 0.362203 0.063864 0.602381
O O10 0.111548 0.085661 0.576464
O O11 0.500000 0.316537 0.250000
#
# Coordination Sequence:
#
# PCOD9279043 Si02
#       5
#     8   8   8   8   8
#     4  10  21  37  60  86 112 146 188 230 280 335
#     4  11  20  35  56  83 115 147 188 234 277 328
#     4   9  18  32  55  86 117 147 180 228 284 332
#     4  10  21  34  54  84 116 150 188 228 279 338
#     4  10  21  40  59  80 114 150 184 230 280 333
#
# _framework density 27.220610000000001
#
# number of rings (size 3 to 8) (size 9 to 14) (size 15 to 20)
#    0.000    2.000    0.000    4.800    0.000    4.000 
#    0.000    9.000    0.000    0.000    0.000    0.000 
#    0.000    0.000    0.000    0.000    0.000    0.000 
#
# Total GULP energy -111710.092752 kJ/mol
# GULP energy per Si atom -5585.504638 kJ/mol
# Density = 2.715866 g / cm^3
# Si number density = 27.220610 Si / 1000 Ang^3
#
#
#
# Elastic Constant Matrix: (Units=GPa)
#
#
# Indices 1 2 3 4 5 6 
#
# 1 94.2290 6.2839 27.7276 0.0000 -34.7279 0.0000
# 2 6.2839 96.6166 23.5529 0.0000 -4.8551 0.0000
# 3 27.7276 23.5529 152.1107 0.0000 -31.2605 0.0000
# 4 0.0000 0.0000 0.0000 46.1606 0.0000 0.6841
# 5 -34.7279 -4.8551 -31.2605 0.0000 59.1003 0.0000
# 6 0.0000 0.0000 0.0000 0.6841 0.0000 10.2520
#
#
#
# Elastic Compliance Matrix: (Units=1/GPa)
#
#
# Indices 1 2 3 4 5 6 
#
# 1 0.013673 -0.000292 -0.000899 0.000000 0.007535 0.000000
# 2 -0.000292 0.010762 -0.001646 0.000000 -0.000158 0.000000
# 3 -0.000899 -0.001646 0.007693 0.000000 0.003406 0.000000
# 4 0.000000 0.000000 0.000000 0.021685 0.000000 -0.001447
# 5 0.007535 -0.000158 0.003406 0.000000 0.023137 0.000000
# 6 0.000000 0.000000 0.000000 -0.001447 0.000000 0.097639
#
#
# Mechanical properties :
#
#
# Convention : Reuss Voigt Hill
#
# Bulk Modulus (GPa) = 37.79776 50.89833 44.34804
# Shear Modulus (GPa) = 26.44383 42.12870 34.28626
#
# Velocity S-wave (km/s) = 3.12021 3.93832 3.55289
# Velocity P-wave (km/s) = 5.18621 6.27850 5.75831
#
# Compressibility (1/GPa) = 0.02645660
#
# Stress axis : x y z
#
# Youngs Moduli (GPa) = 73.13428 92.91593 129.99312
#
# Poissons Ratio (x) = 0.02709 0.11683
# Poissons Ratio (y) = 0.02132 0.21393
# Poissons Ratio (z) = 0.06573 0.15291
#
# Static dielectric constant tensor:
#      x y z
#    x 2.175020 0.000000 0.093420 
#    y 0.000000 2.205540 0.000000 
#    z 0.093420 0.000000 2.232180 
# 
# From -- ./inp_files/30285.got.cif
#   From: 2010.05.17/outbox.cif.g08.bks.cpg/sg15_16_cif.got.tgz:30285.got - 2010.06.03 18:47:42.
