data_PCOD9279144
_publ_section_title
;
Structure prediction by ZEFSAII (Michael W. Deem and Ramdas Pophale) SiO2 
 PCOD9279144
Probable space group: C 2/C
;
_chemical_formula_sum "Si O2"
_cell_formula_units_Z 52
_cell_length_a 20.545601
_cell_length_b 11.412353
_cell_length_c 18.156835
_cell_angle_alpha 90.000000
_cell_angle_beta 140.939875
_cell_angle_gamma 90.000000
_cell_volume 2682.675762
_symmetry_space_group_name_H-M "C 2/C"
_symmetry_group_IT_number 15
_symmetry_cell_setting 'monoclinic'
loop_
_space_group_symop_operation_xyz
x,y,z
-x,y,1/2-z
-x,-y,-z
x,-y,1/2+z
1/2+x,1/2+y,z
1/2-x,1/2+y,1/2-z
1/2-x,1/2-y,-z
1/2+x,1/2-y,1/2+z
loop_
_atom_site_type_symbol
_atom_site_label
_atom_site_fract_x
_atom_site_fract_y
_atom_site_fract_z
Si Si1 0.086621 0.900627 0.561523
Si Si2 0.758771 0.056909 0.892550
Si Si3 0.013919 0.661389 0.047654
Si Si4 0.000000 0.728967 0.750000
Si Si5 0.702545 0.364464 0.919711
Si Si6 0.763277 0.317198 0.823899
Si Si7 0.975952 0.442967 0.355579
O O1 0.156037 0.847585 0.689267
O O2 0.027449 0.790652 0.474514
O O3 0.172800 0.963287 0.588771
O O4 0.000000 0.000000 0.500000
O O5 0.773856 0.184553 0.865636
O O6 0.636889 0.038282 0.778399
O O7 0.793628 0.050076 0.008214
O O8 0.137559 0.659982 0.140259
O O9 0.983397 0.570394 0.084729
O O10 0.968625 0.619456 0.928838
O O11 0.089481 0.815290 0.801120
O O12 0.969922 0.643585 0.655609
O O13 0.760796 0.395577 0.896065
O O14 0.750000 0.250000 0.000000
#
# Coordination Sequence:
#
# PCOD9279144 Si02
#       7
#     8   8   8   4   8   8   8
#     4  12  24  37  64  92 128 163 203 252 313 371
#     4  11  21  38  59  93 121 161 196 255 311 358
#     4  11  23  39  59  91 122 164 202 250 303 371
#     4  12  20  36  64  90 116 158 200 254 302 362
#     4  10  21  34  59  91 124 144 199 263 300 354
#     4  11  21  39  59  92 125 152 202 258 304 359
#     4  11  22  37  63  87 121 160 204 250 304 360
#
# _framework density 19.383631999999999
#
# number of rings (size 3 to 8) (size 9 to 14) (size 15 to 20)
#    0.000    0.923    7.692    1.846    2.154    0.000 
#    0.000    0.000    3.385    0.923    0.000    0.000 
#    0.000    0.000    0.000    0.000    0.000    0.000 
#
# Total GULP energy -144869.446540 kJ/mol
# GULP energy per Si atom -5571.901790 kJ/mol
# Density = 1.933951 g / cm^3
# Si number density = 19.383632 Si / 1000 Ang^3
#
#
#
# Elastic Constant Matrix: (Units=GPa)
#
#
# Indices 1 2 3 4 5 6 
#
# 1 52.5729 16.6312 27.9665 0.0000 0.9830 0.0000
# 2 16.6312 94.7828 29.7542 0.0000 -2.6255 0.0000
# 3 27.9665 29.7542 83.2322 0.0000 2.8592 0.0000
# 4 0.0000 0.0000 0.0000 25.2431 0.0000 2.6494
# 5 0.9830 -2.6255 2.8592 0.0000 32.4052 0.0000
# 6 0.0000 0.0000 0.0000 2.6494 0.0000 23.8063
#
#
#
# Elastic Compliance Matrix: (Units=1/GPa)
#
#
# Indices 1 2 3 4 5 6 
#
# 1 0.023447 -0.001858 -0.007206 0.000000 -0.000226 0.000000
# 2 -0.001858 0.012090 -0.003744 0.000000 0.001366 0.000000
# 3 -0.007206 -0.003744 0.015825 0.000000 -0.001481 0.000000
# 4 0.000000 0.000000 0.000000 0.040083 0.000000 -0.004461
# 5 -0.000226 0.001366 -0.001481 0.000000 0.031108 0.000000
# 6 0.000000 0.000000 0.000000 -0.004461 0.000000 0.042502
#
#
# Mechanical properties :
#
#
# Convention : Reuss Voigt Hill
#
# Bulk Modulus (GPa) = 38.84383 42.14353 40.49368
# Shear Modulus (GPa) = 25.09366 26.70665 25.90015
#
# Velocity S-wave (km/s) = 3.60193 3.71589 3.65935
# Velocity P-wave (km/s) = 6.11404 6.34031 6.22820
#
# Compressibility (1/GPa) = 0.02574411
#
# Stress axis : x y z
#
# Youngs Moduli (GPa) = 42.65002 82.71427 63.18973
#
# Poissons Ratio (x) = 0.15370 0.45535
# Poissons Ratio (y) = 0.07925 0.23661
# Poissons Ratio (z) = 0.30734 0.30972
#
# Static dielectric constant tensor:
#      x y z
#    x 1.700120 0.000000 0.060770 
#    y 0.000000 1.713920 0.000000 
#    z 0.060770 0.000000 2.043320 
# 
# From -- ./inp_files/215103.got.cif
#   From: 2010.05.17/outbox.cif.g08.bks.cpg/sg15_108_cif.got.tgz:215103.got - 2010.06.03 18:47:42.
