data_PCOD9279944
_publ_section_title
;
Structure prediction by ZEFSAII (Michael W. Deem and Ramdas Pophale) SiO2 
 PCOD9279944
Probable space group: C 2/C
;
_chemical_formula_sum "Si O2"
_cell_formula_units_Z 44
_cell_length_a 16.436155
_cell_length_b 10.940856
_cell_length_c 9.618477
_cell_angle_alpha 90.000000
_cell_angle_beta 89.447904
_cell_angle_gamma 90.000000
_cell_volume 1729.568147
_symmetry_space_group_name_H-M "C 2/C"
_symmetry_group_IT_number 15
_symmetry_cell_setting 'monoclinic'
loop_
_space_group_symop_operation_xyz
x,y,z
-x,y,1/2-z
-x,-y,-z
x,-y,1/2+z
1/2+x,1/2+y,z
1/2-x,1/2+y,1/2-z
1/2-x,1/2-y,-z
1/2+x,1/2-y,1/2+z
loop_
_atom_site_type_symbol
_atom_site_label
_atom_site_fract_x
_atom_site_fract_y
_atom_site_fract_z
Si Si1 0.660903 0.070444 0.349523
Si Si2 0.401663 0.552784 0.239744
Si Si3 0.500000 0.931285 0.250000
Si Si4 0.698131 0.138038 0.057362
Si Si5 0.415937 0.260801 0.961276
Si Si6 0.582308 0.345515 0.058916
O O1 0.713205 0.090060 0.210966
O O2 0.643054 0.194444 0.431444
O O3 0.573624 0.012921 0.306037
O O4 0.699098 0.972168 0.451457
O O5 0.500000 0.568609 0.250000
O O6 0.371468 0.654157 0.350009
O O7 0.387435 0.421047 0.308627
O O8 0.383860 0.588144 0.081303
O O9 0.537857 0.843508 0.130403
O O10 0.610395 0.205518 0.066213
O O11 0.750000 0.250000 0.000000
O O12 0.484858 0.338965 0.041216
#
# Coordination Sequence:
#
# PCOD9279944 Si02
#       6
#     8   8   4   8   8   8
#     4  12  25  45  73 104 138 179 238 293 363 409
#     4  10  21  36  61  98 145 173 212 265 344 415
#     4  12  18  40  70 112 142 172 214 306 358 422
#     4  12  29  49  70  96 138 186 244 288 338 426
#     4  11  19  37  67 106 139 176 218 289 357 411
#     4  11  23  40  64  99 144 180 224 278 346 414
#
# _framework density 25.439875000000001
#
# number of rings (size 3 to 8) (size 9 to 14) (size 15 to 20)
#    0.000    0.727    6.364    3.818    5.091    1.455 
#    0.000    0.909    0.000    0.000    0.000    0.000 
#    0.000    0.000    0.000    0.000    0.000    0.000 
#
# Total GULP energy -123368.038489 kJ/mol
# GULP energy per Si atom -5607.638113 kJ/mol
# Density = 2.538197 g / cm^3
# Si number density = 25.439875 Si / 1000 Ang^3
#
#
#
# Elastic Constant Matrix: (Units=GPa)
#
#
# Indices 1 2 3 4 5 6 
#
# 1 56.8028 21.4314 32.2176 0.0000 3.0563 0.0000
# 2 21.4314 128.8710 103.2936 0.0000 -1.4065 0.0000
# 3 32.2176 103.2936 205.4596 0.0000 -13.4245 0.0000
# 4 0.0000 0.0000 0.0000 69.1080 0.0000 -6.6661
# 5 3.0563 -1.4065 -13.4245 0.0000 29.9936 0.0000
# 6 0.0000 0.0000 0.0000 -6.6661 0.0000 32.0531
#
#
#
# Elastic Compliance Matrix: (Units=1/GPa)
#
#
# Indices 1 2 3 4 5 6 
#
# 1 0.019765 -0.001116 -0.002754 0.000000 -0.003299 0.000000
# 2 -0.001116 0.013228 -0.006621 0.000000 -0.002229 0.000000
# 3 -0.002754 -0.006621 0.008886 0.000000 0.003947 0.000000
# 4 0.000000 0.000000 0.000000 0.014766 0.000000 0.003071
# 5 -0.003299 -0.002229 0.003947 0.000000 0.035339 0.000000
# 6 0.000000 0.000000 0.000000 0.003071 0.000000 0.031837
#
#
# Mechanical properties :
#
#
# Convention : Reuss Voigt Hill
#
# Bulk Modulus (GPa) = 47.85269 78.33540 63.09405
# Shear Modulus (GPa) = 32.94519 41.84365 37.39442
#
# Velocity S-wave (km/s) = 3.60255 4.06002 3.83810
# Velocity P-wave (km/s) = 6.01294 7.26895 6.67057
#
# Compressibility (1/GPa) = 0.02089747
#
# Stress axis : x y z
#
# Youngs Moduli (GPa) = 50.59390 75.59887 112.54275
#
# Poissons Ratio (x) = 0.08433 0.30995
# Poissons Ratio (y) = 0.05644 0.74513
# Poissons Ratio (z) = 0.13934 0.50053
#
# Static dielectric constant tensor:
#      x y z
#    x 2.105820 0.000000 -0.026660 
#    y 0.000000 1.980750 0.000000 
#    z -0.026660 0.000000 1.996260 
# 
# From -- ./inp_files/54422.got.cif
#   From: 2010.05.17/outbox.cif.g08.bks.cpg/sg15_28_cif.got.tgz:54422.got - 2010.06.03 18:47:42.
