data_PCOD9279037
_publ_section_title
;
Structure prediction by ZEFSAII (Michael W. Deem and Ramdas Pophale) SiO2 
 PCOD9279037
Probable space group: C 2/C
;
_chemical_formula_sum "Si O2"
_cell_formula_units_Z 48
_cell_length_a 17.238897
_cell_length_b 21.374815
_cell_length_c 20.222885
_cell_angle_alpha 90.000000
_cell_angle_beta 159.557096
_cell_angle_gamma 90.000000
_cell_volume 2602.681125
_symmetry_space_group_name_H-M "C 2/C"
_symmetry_group_IT_number 15
_symmetry_cell_setting 'monoclinic'
loop_
_space_group_symop_operation_xyz
x,y,z
-x,y,1/2-z
-x,-y,-z
x,-y,1/2+z
1/2+x,1/2+y,z
1/2-x,1/2+y,1/2-z
1/2-x,1/2-y,-z
1/2+x,1/2-y,1/2+z
loop_
_atom_site_type_symbol
_atom_site_label
_atom_site_fract_x
_atom_site_fract_y
_atom_site_fract_z
Si Si1 0.864326 0.501606 0.036383
Si Si2 0.902352 0.375783 0.988279
Si Si3 0.444293 0.216455 0.779593
Si Si4 0.707965 0.952976 0.154353
Si Si5 0.530902 0.340739 0.912117
Si Si6 0.828636 0.983421 0.475295
O O1 0.811443 0.435750 0.957104
O O2 0.736919 0.505841 0.003549
O O3 0.125335 0.498969 0.263871
O O4 0.799419 0.553796 0.930928
O O5 0.929529 0.322521 0.064203
O O6 0.134775 0.394731 0.140211
O O7 0.728716 0.358438 0.791729
O O8 0.500000 0.194237 0.750000
O O9 0.515331 0.288646 0.841574
O O10 0.185930 0.198379 0.585768
O O11 0.940363 0.984132 0.359957
O O12 0.500000 0.000000 0.000000
O O13 0.645870 0.408290 0.998859
#
# Coordination Sequence:
#
# PCOD9279037 Si02
#       6
#     8   8   8   8   8   8
#     4  10  21  34  54  80 105 141 179 217 271 311
#     4  11  23  37  50  77 107 143 185 215 271 306
#     4  12  25  35  51  75 105 147 191 222 254 298
#     4  10  21  35  52  75 106 145 176 220 271 320
#     4  12  23  34  52  73 107 144 182 224 250 307
#     4  11  21  34  57  80 109 139 180 224 262 322
#
# _framework density 18.442520999999999
#
# number of rings (size 3 to 8) (size 9 to 14) (size 15 to 20)
#    0.000    1.000    6.667    2.000    2.333    4.000 
#    0.000    0.000    0.000    0.000    0.000    0.000 
#    0.000    5.333    0.000    0.000    0.000    0.000 
#
# Total GULP energy -133644.664533 kJ/mol
# GULP energy per Si atom -5568.527689 kJ/mol
# Density = 1.840054 g / cm^3
# Si number density = 18.442521 Si / 1000 Ang^3
#
#
#
# Elastic Constant Matrix: (Units=GPa)
#
#
# Indices 1 2 3 4 5 6 
#
# 1 31.2538 22.2340 1.8839 0.0215 0.3886 0.0014
# 2 22.2340 48.5136 14.9297 0.0524 3.5374 0.0266
# 3 1.8839 14.9297 111.0482 0.1123 8.6542 0.0243
# 4 0.0215 0.0524 0.1123 30.6740 0.0225 -3.2366
# 5 0.3886 3.5374 8.6542 0.0225 28.2100 0.0010
# 6 0.0014 0.0266 0.0243 -3.2366 0.0010 16.6581
#
#
#
# Elastic Compliance Matrix: (Units=1/GPa)
#
#
# Indices 1 2 3 4 5 6 
#
# 1 0.048066 -0.022797 0.002129 -0.000001 0.001543 0.000029
# 2 -0.022797 0.032409 -0.003768 -0.000029 -0.002594 -0.000050
# 3 0.002129 -0.003768 0.009672 -0.000030 -0.002524 -0.000014
# 4 -0.000001 -0.000029 -0.000030 0.033283 -0.000014 0.006467
# 5 0.001543 -0.002594 -0.002524 -0.000014 0.036527 0.000003
# 6 0.000029 -0.000050 -0.000014 0.006467 0.000003 0.061287
#
#
# Mechanical properties :
#
#
# Convention : Reuss Voigt Hill
#
# Bulk Modulus (GPa) = 24.22699 29.87899 27.05299
# Shear Modulus (GPa) = 17.61331 25.22629 21.41980
#
# Velocity S-wave (km/s) = 3.09372 3.70244 3.41168
# Velocity P-wave (km/s) = 5.09181 5.87483 5.49728
#
# Compressibility (1/GPa) = 0.04127627
#
# Stress axis : x y z
#
# Youngs Moduli (GPa) = 20.80461 30.85516 103.38762
#
# Poissons Ratio (x) = 0.70340 -0.22013
# Poissons Ratio (y) = 0.47428 0.38960
# Poissons Ratio (z) = -0.04430 0.11627
#
# Static dielectric constant tensor:
#      x y z
#    x 1.676060 0.000000 0.015320 
#    y 0.000000 1.680280 -0.000050 
#    z 0.015320 -0.000050 1.755440 
# 
# From -- ./inp_files/216579.got.cif
#   From: 2010.05.17/outbox.cif.g08.bks.cpg/sg15_109_cif.got.tgz:216579.got - 2010.06.03 18:47:42.
