data_PCOD9279930
_publ_section_title
;
Structure prediction by ZEFSAII (Michael W. Deem and Ramdas Pophale) SiO2 
 PCOD9279930
Probable space group: C 2/C
;
_chemical_formula_sum "Si O2"
_cell_formula_units_Z 48
_cell_length_a 5.101046
_cell_length_b 23.099934
_cell_length_c 22.669274
_cell_angle_alpha 90.000000
_cell_angle_beta 122.033404
_cell_angle_gamma 90.000000
_cell_volume 2264.486604
_symmetry_space_group_name_H-M "C 2/C"
_symmetry_group_IT_number 15
_symmetry_cell_setting 'monoclinic'
loop_
_space_group_symop_operation_xyz
x,y,z
-x,y,1/2-z
-x,-y,-z
x,-y,1/2+z
1/2+x,1/2+y,z
1/2-x,1/2+y,1/2-z
1/2-x,1/2-y,-z
1/2+x,1/2-y,1/2+z
loop_
_atom_site_type_symbol
_atom_site_label
_atom_site_fract_x
_atom_site_fract_y
_atom_site_fract_z
Si Si1 0.427629 0.463576 0.433029
Si Si2 0.372204 0.120702 0.865725
Si Si3 0.278826 0.843341 0.477599
Si Si4 0.870894 0.030956 0.798006
Si Si5 0.830502 0.743815 0.817519
Si Si6 0.997033 0.730574 0.393916
O O1 0.500000 0.500000 0.500000
O O2 0.632183 0.406141 0.465751
O O3 0.474782 0.494654 0.374669
O O4 0.086803 0.435394 0.385475
O O5 0.466959 0.148591 0.939641
O O6 0.381671 0.174272 0.822805
O O7 0.023998 0.095174 0.822750
O O8 0.454534 0.821808 0.555615
O O9 0.040049 0.791304 0.434472
O O10 0.500000 0.031419 0.750000
O O11 0.000000 0.008340 0.750000
O O12 0.500000 0.756279 0.750000
O O13 0.761351 0.766331 0.875843
O O14 0.144874 0.770230 0.830147
#
# Coordination Sequence:
#
# PCOD9279930 Si02
#       6
#     8   8   8   8   8   8
#     4  11  23  40  64  99 128 168 220 269 317 378
#     4  10  21  36  61  93 127 157 203 262 326 380
#     4   9  21  35  60  89 123 162 201 257 320 378
#     4  11  22  39  61  90 126 169 200 260 331 383
#     4  11  22  34  58  91 123 157 205 256 321 384
#     4  10  21  37  58  89 123 160 200 249 321 390
#
# _framework density 21.196856
#
# number of rings (size 3 to 8) (size 9 to 14) (size 15 to 20)
#    0.000    1.667    3.333    1.000    2.333    4.667 
#    0.000    0.000    0.000    1.000    4.333    0.000 
#    0.000    0.000    0.000    0.000    0.000    0.000 
#
# Total GULP energy -133618.650063 kJ/mol
# GULP energy per Si atom -5567.443753 kJ/mol
# Density = 2.114861 g / cm^3
# Si number density = 21.196856 Si / 1000 Ang^3
#
#
#
# Elastic Constant Matrix: (Units=GPa)
#
#
# Indices 1 2 3 4 5 6 
#
# 1 95.1534 8.1225 26.3043 0.0000 -3.2983 0.0000
# 2 8.1225 29.4222 27.4288 0.0000 -15.8294 0.0000
# 3 26.3043 27.4288 114.8756 0.0000 -22.2701 0.0000
# 4 0.0000 0.0000 0.0000 20.7916 0.0000 -8.4956
# 5 -3.2983 -15.8294 -22.2701 0.0000 37.0002 0.0000
# 6 0.0000 0.0000 0.0000 -8.4956 0.0000 14.0215
#
#
#
# Elastic Compliance Matrix: (Units=1/GPa)
#
#
# Indices 1 2 3 4 5 6 
#
# 1 0.011270 -0.001400 -0.002454 0.000000 -0.001071 0.000000
# 2 -0.001400 0.051477 -0.008746 0.000000 0.016634 0.000000
# 3 -0.002454 -0.008746 0.011986 0.000000 0.003254 0.000000
# 4 0.000000 0.000000 0.000000 0.063921 0.000000 0.038730
# 5 -0.001071 0.016634 0.003254 0.000000 0.036006 0.000000
# 6 0.000000 0.000000 0.000000 0.038730 0.000000 0.094785
#
#
# Mechanical properties :
#
#
# Convention : Reuss Voigt Hill
#
# Bulk Modulus (GPa) = 20.18838 40.35137 30.26988
# Shear Modulus (GPa) = 16.06910 26.20238 21.13574
#
# Velocity S-wave (km/s) = 2.75633 3.51970 3.16114
# Velocity P-wave (km/s) = 4.43562 5.96620 5.25691
#
# Compressibility (1/GPa) = 0.04953343
#
# Stress axis : x y z
#
# Youngs Moduli (GPa) = 88.73026 19.42619 83.43022
#
# Poissons Ratio (x) = 0.02719 0.20475
# Poissons Ratio (y) = 0.12421 0.72967
# Poissons Ratio (z) = 0.21775 0.16990
#
# Static dielectric constant tensor:
#      x y z
#    x 1.904340 0.000000 -0.035980 
#    y 0.000000 1.740900 0.000000 
#    z -0.035980 0.000000 1.854970 
# 
# From -- ./inp_files/261466.got.cif
#   From: 2010.05.17/outbox.cif.g08.bks.cpg/sg15_131_cif.got.tgz:261466.got - 2010.06.03 18:47:42.
