data_PCOD9279884
_publ_section_title
;
Structure prediction by ZEFSAII (Michael W. Deem and Ramdas Pophale) SiO2 
 PCOD9279884
Probable space group: C 2/C
;
_chemical_formula_sum "Si O2"
_cell_formula_units_Z 60
_cell_length_a 20.467359
_cell_length_b 30.434046
_cell_length_c 13.225832
_cell_angle_alpha 90.000000
_cell_angle_beta 156.075996
_cell_angle_gamma 90.000000
_cell_volume 3340.886192
_symmetry_space_group_name_H-M "C 2/C"
_symmetry_group_IT_number 15
_symmetry_cell_setting 'monoclinic'
loop_
_space_group_symop_operation_xyz
x,y,z
-x,y,1/2-z
-x,-y,-z
x,-y,1/2+z
1/2+x,1/2+y,z
1/2-x,1/2+y,1/2-z
1/2-x,1/2-y,-z
1/2+x,1/2-y,1/2+z
loop_
_atom_site_type_symbol
_atom_site_label
_atom_site_fract_x
_atom_site_fract_y
_atom_site_fract_z
Si Si1 0.691789 0.810606 0.515067
Si Si2 0.188280 0.214368 0.537181
Si Si3 0.112906 0.107028 0.127022
Si Si4 0.500000 0.577858 0.750000
Si Si5 0.355226 0.950948 0.319448
Si Si6 0.120258 0.126709 0.517703
Si Si7 0.188916 0.991961 0.746483
Si Si8 0.686192 0.975478 0.877918
O O1 0.500000 0.815975 0.250000
O O2 0.737403 0.805705 0.460694
O O3 0.750515 0.763542 0.644158
O O4 0.777289 0.851198 0.690668
O O5 0.186996 0.176397 0.619048
O O6 0.000000 0.222204 0.250000
O O7 0.971459 0.110574 0.011605
O O8 0.205380 0.060566 0.272494
O O9 0.047448 0.104676 0.918926
O O10 0.349094 0.547162 0.567834
O O11 0.247122 0.987003 0.225320
O O12 0.532495 0.949927 0.617146
O O13 0.351626 0.973823 0.205787
O O14 0.265892 0.905418 0.199045
O O15 0.000000 0.125230 0.250000
O O16 0.289413 0.020208 0.968800
O O17 0.000000 0.000000 0.500000
#
# Coordination Sequence:
#
# PCOD9279884 Si02
#       8
#     8   8   8   4   8   8   8   8
#     4  10  21  36  60  96 126 148 189 264 326 360
#     4   9  18  37  61  91 121 150 192 253 323 370
#     4  12  23  37  62  88 120 167 204 241 307 375
#     4  12  24  42  56  80 130 172 204 242 304 364
#     4  11  23  35  56  86 116 155 200 255 294 352
#     4  11  20  36  64  92 115 158 209 246 305 377
#     4  12  21  37  59  81 114 164 206 248 285 351
#     4  11  23  38  54  79 121 159 203 249 301 347
#
# _framework density 17.959306999999999
#
# number of rings (size 3 to 8) (size 9 to 14) (size 15 to 20)
#    0.000    1.067    6.667    1.200    0.933    2.133 
#    0.000    0.000    0.000    0.800    3.467    0.000 
#    0.000    0.000    0.000    0.000    0.000    0.000 
#
# Total GULP energy -167224.368151 kJ/mol
# GULP energy per Si atom -5574.145605 kJ/mol
# Density = 1.791843 g / cm^3
# Si number density = 17.959307 Si / 1000 Ang^3
#
#
#
# Elastic Constant Matrix: (Units=GPa)
#
#
# Indices 1 2 3 4 5 6 
#
# 1 44.8951 -5.7062 17.5986 0.0000 -8.5357 0.0000
# 2 -5.7062 123.6143 33.8853 0.0000 -1.9186 0.0000
# 3 17.5986 33.8853 77.8311 0.0001 6.3594 0.0000
# 4 0.0000 0.0000 0.0001 33.6322 0.0000 -1.8752
# 5 -8.5357 -1.9186 6.3594 0.0000 30.1726 0.0000
# 6 0.0000 0.0000 0.0000 -1.8752 0.0000 32.1248
#
#
#
# Elastic Compliance Matrix: (Units=1/GPa)
#
#
# Indices 1 2 3 4 5 6 
#
# 1 0.028173 0.003894 -0.008890 0.000000 0.010091 0.000000
# 2 0.003894 0.009787 -0.005375 0.000000 0.002857 0.000000
# 3 -0.008890 -0.005375 0.017737 0.000000 -0.006595 0.000000
# 4 0.000000 0.000000 0.000000 0.029831 0.000000 0.001741
# 5 0.010091 0.002857 -0.006595 0.000000 0.037569 0.000000
# 6 0.000000 0.000000 0.000000 0.001741 0.000000 0.031230
#
#
# Mechanical properties :
#
#
# Convention : Reuss Voigt Hill
#
# Bulk Modulus (GPa) = 28.60804 37.54401 33.07603
# Shear Modulus (GPa) = 26.77798 32.55678 29.66738
#
# Velocity S-wave (km/s) = 3.86558 4.26233 4.06879
# Velocity P-wave (km/s) = 5.99063 6.72114 6.36637
#
# Compressibility (1/GPa) = 0.03495521
#
# Stress axis : x y z
#
# Youngs Moduli (GPa) = 35.49560 102.17470 56.37785
#
# Poissons Ratio (x) = -0.39787 0.50120
# Poissons Ratio (y) = -0.13822 0.30303
# Poissons Ratio (z) = 0.31556 0.54918
#
# Static dielectric constant tensor:
#      x y z
#    x 1.675300 0.000000 0.003440 
#    y 0.000000 1.653240 0.000000 
#    z 0.003440 0.000000 1.626910 
# 
# From -- ./inp_files/174970.got.cif
#   From: 2010.05.17/outbox.cif.g08.bks.cpg/sg15_88_cif.got.tgz:174970.got - 2010.06.03 18:47:42.
