data_PCOD9279658
_publ_section_title
;
Structure prediction by ZEFSAII (Michael W. Deem and Ramdas Pophale) SiO2 
 PCOD9279658
Probable space group: C 2/C
;
_chemical_formula_sum "Si O2"
_cell_formula_units_Z 48
_cell_length_a 11.283746
_cell_length_b 7.742038
_cell_length_c 23.939563
_cell_angle_alpha 90.000000
_cell_angle_beta 72.664851
_cell_angle_gamma 90.000000
_cell_volume 1996.348355
_symmetry_space_group_name_H-M "C 2/C"
_symmetry_group_IT_number 15
_symmetry_cell_setting 'monoclinic'
loop_
_space_group_symop_operation_xyz
x,y,z
-x,y,1/2-z
-x,-y,-z
x,-y,1/2+z
1/2+x,1/2+y,z
1/2-x,1/2+y,1/2-z
1/2-x,1/2-y,-z
1/2+x,1/2-y,1/2+z
loop_
_atom_site_type_symbol
_atom_site_label
_atom_site_fract_x
_atom_site_fract_y
_atom_site_fract_z
Si Si1 0.513901 0.942770 0.411928
Si Si2 0.720830 0.598875 0.118971
Si Si3 0.620432 0.358424 0.519645
Si Si4 0.755606 0.499144 0.404101
Si Si5 0.348473 0.300179 0.684624
Si Si6 0.372491 0.396064 0.259128
O O1 0.481782 0.790605 0.460339
O O2 0.385076 0.041502 0.417545
O O3 0.554790 0.842260 0.349357
O O4 0.635505 0.047190 0.411706
O O5 0.634721 0.550578 0.077768
O O6 0.722024 0.806655 0.123830
O O7 0.674005 0.497428 0.179446
O O8 0.750000 0.250000 0.500000
O O9 0.639351 0.478052 0.463368
O O10 0.721652 0.632188 0.360894
O O11 0.403458 0.463386 0.708061
O O12 0.243558 0.221769 0.739574
O O13 0.500000 0.293667 0.250000
#
# Coordination Sequence:
#
# PCOD9279658 Si02
#       6
#     8   8   8   8   8   8
#     4   9  19  37  57  81 112 144 182 226 270 323
#     4   9  18  36  59  81 109 148 184 221 275 323
#     4   8  17  33  56  83 112 144 181 220 269 327
#     4  10  21  36  56  84 114 144 181 224 271 327
#     4  11  24  38  57  84 108 144 188 224 277 328
#     4  11  23  40  59  80 110 144 185 232 273 324
#
# _framework density 24.043897999999999
#
# number of rings (size 3 to 8) (size 9 to 14) (size 15 to 20)
#    0.000    2.667    0.000    3.000    0.000   10.667 
#    0.000    4.167    0.000    0.000    0.000    1.167 
#    0.000    0.000    0.000    0.000    0.000    0.000 
#
# Total GULP energy -134063.654111 kJ/mol
# GULP energy per Si atom -5585.985588 kJ/mol
# Density = 2.398917 g / cm^3
# Si number density = 24.043898 Si / 1000 Ang^3
#
#
#
# Elastic Constant Matrix: (Units=GPa)
#
#
# Indices 1 2 3 4 5 6 
#
# 1 79.9729 16.6951 10.8449 0.0000 -21.7587 0.0000
# 2 16.6951 35.0502 -4.5769 0.0000 2.3998 0.0000
# 3 10.8449 -4.5769 70.1143 0.0000 3.6146 0.0000
# 4 0.0000 0.0000 0.0000 32.3177 0.0000 6.8507
# 5 -21.7587 2.3998 3.6146 0.0000 39.9448 0.0000
# 6 0.0000 0.0000 0.0000 6.8507 0.0000 26.6789
#
#
#
# Elastic Compliance Matrix: (Units=1/GPa)
#
#
# Indices 1 2 3 4 5 6 
#
# 1 0.018032 -0.009848 -0.003987 0.000000 0.010775 0.000000
# 2 -0.009848 0.034299 0.004164 0.000000 -0.007802 0.000000
# 3 -0.003987 0.004164 0.015347 0.000000 -0.003811 0.000000
# 4 0.000000 0.000000 0.000000 0.032724 0.000000 -0.008403
# 5 0.010775 -0.007802 -0.003811 0.000000 0.031717 0.000000
# 6 0.000000 0.000000 0.000000 -0.008403 0.000000 0.039640
#
#
# Mechanical properties :
#
#
# Convention : Reuss Voigt Hill
#
# Bulk Modulus (GPa) = 20.68789 25.67373 23.18081
# Shear Modulus (GPa) = 24.12955 30.59991 27.36473
#
# Velocity S-wave (km/s) = 3.17134 3.57132 3.37726
# Velocity P-wave (km/s) = 4.69391 5.26372 4.98696
#
# Compressibility (1/GPa) = 0.04833745
#
# Stress axis : x y z
#
# Youngs Moduli (GPa) = 55.45586 29.15533 65.15726
#
# Poissons Ratio (x) = 0.28711 0.25981
# Poissons Ratio (y) = 0.54611 -0.27133
# Poissons Ratio (z) = 0.22113 -0.12141
#
# Static dielectric constant tensor:
#      x y z
#    x 2.004790 0.000000 0.009710 
#    y 0.000000 1.919470 0.000000 
#    z 0.009710 0.000000 1.992430 
# 
# From -- ./inp_files/268032.got.cif
#   From: 2010.05.17/outbox.cif.g08.bks.cpg/sg15_135_cif.got.tgz:268032.got - 2010.06.03 18:47:42.
