data_PCOD9279838
_publ_section_title
;
Structure prediction by ZEFSAII (Michael W. Deem and Ramdas Pophale) SiO2 
 PCOD9279838
Probable space group: C 2/C
;
_chemical_formula_sum "Si O2"
_cell_formula_units_Z 64
_cell_length_a 9.313424
_cell_length_b 23.092354
_cell_length_c 14.958235
_cell_angle_alpha 90.000000
_cell_angle_beta 105.816598
_cell_angle_gamma 90.000000
_cell_volume 3095.250389
_symmetry_space_group_name_H-M "C 2/C"
_symmetry_group_IT_number 15
_symmetry_cell_setting 'monoclinic'
loop_
_space_group_symop_operation_xyz
x,y,z
-x,y,1/2-z
-x,-y,-z
x,-y,1/2+z
1/2+x,1/2+y,z
1/2-x,1/2+y,1/2-z
1/2-x,1/2-y,-z
1/2+x,1/2-y,1/2+z
loop_
_atom_site_type_symbol
_atom_site_label
_atom_site_fract_x
_atom_site_fract_y
_atom_site_fract_z
Si Si1 0.170415 0.017194 0.558718
Si Si2 0.997021 0.100205 0.643424
Si Si3 0.299332 0.193678 0.340835
Si Si4 0.430458 0.214192 0.639917
Si Si5 0.878783 0.391312 0.994591
Si Si6 0.714417 0.903623 0.976842
Si Si7 0.460292 0.725609 0.638910
Si Si8 0.692150 0.292144 0.621376
O O1 0.279080 0.055558 0.513991
O O2 0.128475 0.058869 0.633177
O O3 0.256062 0.956983 0.585856
O O4 0.000000 0.000000 0.500000
O O5 0.832571 0.084779 0.577722
O O6 0.019125 0.165752 0.610804
O O7 0.000000 0.100760 0.750000
O O8 0.217463 0.250197 0.364058
O O9 0.282727 0.138111 0.398739
O O10 0.469686 0.214151 0.379425
O O11 0.249148 0.188339 0.229818
O O12 0.500000 0.200030 0.750000
O O13 0.404262 0.157935 0.575229
O O14 0.530963 0.263695 0.608295
O O15 0.044896 0.404722 0.984150
O O16 0.772686 0.845631 0.937105
O O17 0.500000 0.722719 0.750000
O O18 0.285440 0.735761 0.605609
#
# Coordination Sequence:
#
# PCOD9279838 Si02
#       8
#     8   8   8   8   8   8   8   8
#     4  10  25  46  63  89 126 167 224 277 320 379
#     4  10  22  42  67  93 124 172 216 267 329 391
#     4  10  21  36  59  97 131 168 207 257 331 394
#     4  10  23  38  60 100 136 167 212 267 328 398
#     4  12  23  39  69  91 132 172 222 267 330 384
#     4  11  24  41  65  93 132 170 223 270 321 387
#     4   9  17  33  59  90 127 156 199 256 315 387
#     4  10  21  39  60  96 138 166 204 265 327 396
#
# _framework density 20.676839999999999
#
# number of rings (size 3 to 8) (size 9 to 14) (size 15 to 20)
#    0.000    1.750    1.250    2.250    5.250    4.000 
#    4.500    0.000    5.500    0.000    0.000    0.000 
#    0.000    0.000    0.000    0.000    0.000    0.000 
#
# Total GULP energy -178274.417186 kJ/mol
# GULP energy per Si atom -5571.075537 kJ/mol
# Density = 2.062978 g / cm^3
# Si number density = 20.676840 Si / 1000 Ang^3
#
#
#
# Elastic Constant Matrix: (Units=GPa)
#
#
# Indices 1 2 3 4 5 6 
#
# 1 90.6928 35.6085 35.2061 0.0000 -10.8477 0.0000
# 2 35.6085 116.8406 45.2032 0.0000 -17.4018 0.0000
# 3 35.2061 45.2032 79.8611 0.0000 -4.3758 0.0000
# 4 0.0000 0.0000 0.0000 6.1047 0.0000 -22.0624
# 5 -10.8477 -17.4018 -4.3758 0.0000 22.7417 0.0000
# 6 0.0000 0.0000 0.0000 -22.0624 0.0000 34.9709
#
#
#
# Elastic Compliance Matrix: (Units=1/GPa)
#
#
# Indices 1 2 3 4 5 6 
#
# 1 0.014191 -0.001703 -0.005046 0.000000 0.004495 0.000000
# 2 -0.001703 0.012496 -0.005905 0.000000 0.007613 0.000000
# 3 -0.005046 -0.005905 0.017898 0.000000 -0.003481 0.000000
# 4 0.000000 0.000000 0.000000 -0.127977 0.000000 -0.080738
# 5 0.004495 0.007613 -0.003481 0.000000 0.051272 0.000000
# 6 0.000000 0.000000 0.000000 -0.080738 0.000000 -0.022341
#
#
# Mechanical properties :
#
#
# Convention : Reuss Voigt Hill
#
# Bulk Modulus (GPa) = 51.87535 57.71446 54.79491
# Shear Modulus (GPa) = -220.00950 24.18858 -97.91046
#
# Velocity S-wave (km/s) = -10.32641 3.42400 -6.88880
# Velocity P-wave (km/s) = 10.81835 6.60340 6.05936
#
# Compressibility (1/GPa) = 0.01927698
#
# Stress axis : x y z
#
# Youngs Moduli (GPa) = 70.46543 80.02395 55.87307
#
# Poissons Ratio (x) = 0.13632 0.28192
# Poissons Ratio (y) = 0.12004 0.32993
# Poissons Ratio (z) = 0.35554 0.47255
#
# Static dielectric constant tensor:
#      x y z
#    x 1.791740 0.000000 0.019370 
#    y 0.000000 1.750950 0.000000 
#    z 0.019370 0.000000 1.778460 
# 
# From -- ./inp_files/137854.got.cif
#   From: 2010.05.17/outbox.cif.g08.bks.cpg/sg15_69_cif.got.tgz:137854.got - 2010.06.03 18:47:42.
