data_PCOD9279969
_publ_section_title
;
Structure prediction by ZEFSAII (Michael W. Deem and Ramdas Pophale) SiO2 
 PCOD9279969
Probable space group: C 2/C
;
_chemical_formula_sum "Si O2"
_cell_formula_units_Z 48
_cell_length_a 10.052038
_cell_length_b 19.303282
_cell_length_c 28.174071
_cell_angle_alpha 90.000000
_cell_angle_beta 152.606766
_cell_angle_gamma 90.000000
_cell_volume 2515.256842
_symmetry_space_group_name_H-M "C 2/C"
_symmetry_group_IT_number 15
_symmetry_cell_setting 'monoclinic'
loop_
_space_group_symop_operation_xyz
x,y,z
-x,y,1/2-z
-x,-y,-z
x,-y,1/2+z
1/2+x,1/2+y,z
1/2-x,1/2+y,1/2-z
1/2-x,1/2-y,-z
1/2+x,1/2-y,1/2+z
loop_
_atom_site_type_symbol
_atom_site_label
_atom_site_fract_x
_atom_site_fract_y
_atom_site_fract_z
Si Si1 0.597161 0.146833 0.731173
Si Si2 0.997305 0.079490 0.984461
Si Si3 0.205269 0.074762 0.948337
Si Si4 0.196179 0.589081 0.029985
Si Si5 0.164038 0.680419 0.649969
Si Si6 0.166098 0.831996 0.630067
O O1 0.500000 0.181172 0.750000
O O2 0.329902 0.095656 0.635784
O O3 0.611409 0.193113 0.688862
O O4 0.905508 0.107922 0.833917
O O5 0.199216 0.090576 0.002400
O O6 0.093633 0.126282 0.059252
O O7 0.000000 0.000000 0.000000
O O8 0.215436 0.991370 0.945145
O O9 0.484472 0.100761 0.007601
O O10 0.480658 0.635063 0.114069
O O11 0.009911 0.615507 0.925701
O O12 0.500000 0.665558 0.750000
O O13 0.090429 0.751149 0.599476
O O14 0.500000 0.835890 0.750000
#
# Coordination Sequence:
#
# PCOD9279969 Si02
#       6
#     8   8   8   8   8   8
#     4  10  21  36  62  90 120 157 203 254 299 367
#     4  11  21  38  61  90 121 162 202 249 304 366
#     4  10  22  37  60  95 122 153 206 255 315 346
#     4  11  21  39  61  89 125 160 198 260 299 363
#     4  11  21  41  62  90 121 165 207 244 304 374
#     4  11  25  39  63  87 123 168 208 246 301 367
#
# _framework density 19.083537
#
# number of rings (size 3 to 8) (size 9 to 14) (size 15 to 20)
#    0.000    1.333    5.000    0.500    2.333    0.000 
#    0.000    5.000    0.000    0.000    0.000    0.000 
#    0.000    0.000    0.000    0.000    0.000    0.000 
#
# Total GULP energy -133838.483221 kJ/mol
# GULP energy per Si atom -5576.603468 kJ/mol
# Density = 1.904010 g / cm^3
# Si number density = 19.083537 Si / 1000 Ang^3
#
#
#
# Elastic Constant Matrix: (Units=GPa)
#
#
# Indices 1 2 3 4 5 6 
#
# 1 153.1761 13.1324 31.6015 -0.0013 3.6696 0.0015
# 2 13.1324 43.1893 9.4385 -0.0026 -9.4141 0.0067
# 3 31.6015 9.4385 67.8262 -0.0093 14.3156 0.0147
# 4 -0.0013 -0.0026 -0.0093 12.6860 0.0005 2.4308
# 5 3.6696 -9.4141 14.3156 0.0005 41.5107 -0.0019
# 6 0.0015 0.0067 0.0147 2.4308 -0.0019 2.8701
#
#
#
# Elastic Compliance Matrix: (Units=1/GPa)
#
#
# Indices 1 2 3 4 5 6 
#
# 1 0.007320 -0.001492 -0.003230 -0.000006 0.000129 0.000021
# 2 -0.001492 0.026281 -0.004581 0.000009 0.007672 -0.000040
# 3 -0.003230 -0.004581 0.018383 0.000035 -0.007093 -0.000116
# 4 -0.000006 0.000009 0.000035 0.094098 -0.000014 -0.079695
# 5 0.000129 0.007672 -0.007093 -0.000014 0.028265 0.000049
# 6 0.000021 -0.000040 -0.000116 -0.079695 0.000049 0.415913
#
#
# Mechanical properties :
#
#
# Convention : Reuss Voigt Hill
#
# Bulk Modulus (GPa) = 29.96025 41.39294 35.67660
# Shear Modulus (GPa) = 8.06463 25.41465 16.73964
#
# Velocity S-wave (km/s) = 2.05794 3.65328 2.96493
# Velocity P-wave (km/s) = 4.62390 6.28751 5.51875
#
# Compressibility (1/GPa) = 0.03337756
#
# Stress axis : x y z
#
# Youngs Moduli (GPa) = 136.61948 38.05032 54.39779
#
# Poissons Ratio (x) = 0.05676 0.17570
# Poissons Ratio (y) = 0.20381 0.24922
# Poissons Ratio (z) = 0.44126 0.17432
#
# Static dielectric constant tensor:
#      x y z
#    x 1.718240 0.000000 0.015190 
#    y 0.000000 1.641830 0.000000 
#    z 0.015190 0.000000 1.656110 
# 
# From -- ./inp_files/135919.got.cif
#   From: 2010.05.17/outbox.cif.g08.bks.cpg/sg15_68_cif.got.tgz:135919.got - 2010.06.03 18:47:42.
