data_PCOD9279798
_publ_section_title
;
Structure prediction by ZEFSAII (Michael W. Deem and Ramdas Pophale) SiO2 
 PCOD9279798
Probable space group: C 2/C
;
_chemical_formula_sum "Si O2"
_cell_formula_units_Z 44
_cell_length_a 14.862043
_cell_length_b 21.859296
_cell_length_c 10.861203
_cell_angle_alpha 90.000000
_cell_angle_beta 43.152941
_cell_angle_gamma 90.000000
_cell_volume 2413.324897
_symmetry_space_group_name_H-M "C 2/C"
_symmetry_group_IT_number 15
_symmetry_cell_setting 'monoclinic'
loop_
_space_group_symop_operation_xyz
x,y,z
-x,y,1/2-z
-x,-y,-z
x,-y,1/2+z
1/2+x,1/2+y,z
1/2-x,1/2+y,1/2-z
1/2-x,1/2-y,-z
1/2+x,1/2-y,1/2+z
loop_
_atom_site_type_symbol
_atom_site_label
_atom_site_fract_x
_atom_site_fract_y
_atom_site_fract_z
Si Si1 0.295210 0.120863 0.849202
Si Si2 0.363021 0.014141 0.208511
Si Si3 0.023721 0.813047 0.580623
Si Si4 0.988677 0.316477 0.526247
Si Si5 0.739713 0.619144 0.190436
Si Si6 0.500000 0.106350 0.250000
O O1 0.426072 0.151023 0.664686
O O2 0.300194 0.049658 0.809539
O O3 0.287666 0.124897 0.002903
O O4 0.167608 0.157099 0.927425
O O5 0.269288 0.052226 0.212268
O O6 0.397569 0.059104 0.288469
O O7 0.500000 0.000000 0.000000
O O8 0.005910 0.754889 0.509811
O O9 0.910813 0.861112 0.658099
O O10 0.000000 0.796178 0.750000
O O11 0.042607 0.347705 0.597686
O O12 0.836060 0.336047 0.669736
#
# Coordination Sequence:
#
# PCOD9279798 Si02
#       6
#     8   8   8   8   8   4
#     4  11  21  35  62  87 111 154 188 241 289 332
#     4  11  20  36  61  84 114 145 199 239 280 340
#     4  10  22  39  57  86 120 146 190 238 292 341
#     4  11  21  37  61  85 115 151 192 235 282 345
#     4  10  21  36  59  87 112 149 190 244 282 334
#     4  10  22  36  58  92 110 150 194 242 280 330
#
# _framework density 18.232108
#
# number of rings (size 3 to 8) (size 9 to 14) (size 15 to 20)
#    0.000    1.455    3.636    3.818    0.000    3.636 
#    0.000    8.182    0.000    0.000    0.000    0.000 
#    0.000    0.000    0.000    0.000    0.000    0.000 
#
# Total GULP energy -122690.490681 kJ/mol
# GULP energy per Si atom -5576.840486 kJ/mol
# Density = 1.819061 g / cm^3
# Si number density = 18.232108 Si / 1000 Ang^3
#
#
#
# Elastic Constant Matrix: (Units=GPa)
#
#
# Indices 1 2 3 4 5 6 
#
# 1 74.8384 44.5412 17.2332 0.0000 -2.1689 0.0000
# 2 44.5412 124.4801 22.1310 0.0000 4.6827 0.0000
# 3 17.2332 22.1310 24.8932 0.0000 -7.1306 0.0000
# 4 0.0000 0.0000 0.0000 3.5754 0.0000 2.2791
# 5 -2.1689 4.6827 -7.1306 0.0000 22.3405 0.0000
# 6 0.0000 0.0000 0.0000 2.2791 0.0000 31.0637
#
#
#
# Elastic Compliance Matrix: (Units=1/GPa)
#
#
# Indices 1 2 3 4 5 6 
#
# 1 0.018263 -0.005122 -0.008005 0.000000 0.000292 0.000000
# 2 -0.005122 0.011556 -0.008325 0.000000 -0.005577 0.000000
# 3 -0.008005 -0.008325 0.058765 0.000000 0.019724 0.000000
# 4 0.000000 0.000000 0.000000 0.293410 0.000000 -0.021527
# 5 0.000292 -0.005577 0.019724 0.000000 0.052255 0.000000
# 6 0.000000 0.000000 0.000000 -0.021527 0.000000 0.033771
#
#
# Mechanical properties :
#
#
# Convention : Reuss Voigt Hill
#
# Bulk Modulus (GPa) = 21.89247 43.55807 32.72527
# Shear Modulus (GPa) = 9.50295 20.74969 15.12632
#
# Velocity S-wave (km/s) = 2.28550 3.37721 2.88349
# Velocity P-wave (km/s) = 4.35872 6.25701 5.39206
#
# Compressibility (1/GPa) = 0.04567781
#
# Stress axis : x y z
#
# Youngs Moduli (GPa) = 54.75646 86.53363 17.01692
#
# Poissons Ratio (x) = 0.44326 0.13623
# Poissons Ratio (y) = 0.28048 0.14167
# Poissons Ratio (z) = 0.43835 0.72041
#
# Static dielectric constant tensor:
#      x y z
#    x 1.645260 0.000000 0.021790 
#    y 0.000000 1.622280 0.000000 
#    z 0.021790 0.000000 1.602770 
# 
# From -- ./inp_files/42004.got.cif
#   From: 2010.05.17/outbox.cif.g08.bks.cpg/sg15_22_cif.got.tgz:42004.got - 2010.06.03 18:47:42.
