data_PCOD9279206
_publ_section_title
;
Structure prediction by ZEFSAII (Michael W. Deem and Ramdas Pophale) SiO2 
 PCOD9279206
Probable space group: C 2/C
;
_chemical_formula_sum "Si O2"
_cell_formula_units_Z 64
_cell_length_a 21.223257
_cell_length_b 23.744692
_cell_length_c 8.547099
_cell_angle_alpha 90.000000
_cell_angle_beta 65.488006
_cell_angle_gamma 90.000000
_cell_volume 3919.031676
_symmetry_space_group_name_H-M "C 2/C"
_symmetry_group_IT_number 15
_symmetry_cell_setting 'monoclinic'
loop_
_space_group_symop_operation_xyz
x,y,z
-x,y,1/2-z
-x,-y,-z
x,-y,1/2+z
1/2+x,1/2+y,z
1/2-x,1/2+y,1/2-z
1/2-x,1/2-y,-z
1/2+x,1/2-y,1/2+z
loop_
_atom_site_type_symbol
_atom_site_label
_atom_site_fract_x
_atom_site_fract_y
_atom_site_fract_z
Si Si1 0.842494 0.234717 0.081358
Si Si2 0.782816 0.328331 0.638514
Si Si3 0.761246 0.658587 0.791895
Si Si4 0.865239 0.777110 0.188897
Si Si5 0.149907 0.439385 0.423812
Si Si6 0.494329 0.121563 0.443295
Si Si7 0.860187 0.435140 0.691571
Si Si8 0.009726 0.747939 0.924501
O O1 0.788373 0.189612 0.204506
O O2 0.807971 0.295430 0.151993
O O3 0.915768 0.231769 0.092666
O O4 0.851928 0.228914 0.886750
O O5 0.772660 0.329938 0.463240
O O6 0.836808 0.279314 0.632041
O O7 0.811461 0.387647 0.667663
O O8 0.682414 0.672703 0.827511
O O9 0.789147 0.597951 0.713176
O O10 0.946370 0.780022 0.072286
O O11 0.151539 0.436378 0.609998
O O12 0.151936 0.503478 0.366243
O O13 0.076904 0.410890 0.449135
O O14 0.500000 0.131298 0.250000
O O15 0.560843 0.084710 0.420474
O O16 0.495215 0.181985 0.524467
O O17 0.000000 0.753972 0.750000
#
# Coordination Sequence:
#
# PCOD9279206 Si02
#       8
#     8   8   8   8   8   8   8   8
#     4  11  21  35  54  76 105 139 174 216 268 320
#     4  11  21  35  53  77 104 136 178 222 266 313
#     4  11  21  35  53  77 104 136 178 222 266 313
#     4  11  21  35  54  76 105 139 174 216 268 320
#     4  11  22  36  53  75 105 144 185 223 265 312
#     4  10  21  35  51  72 106 144 182 219 260 309
#     4  11  22  36  53  75 105 144 185 223 265 312
#     4  12  22  33  53  80 108 140 177 217 264 317
#
# _framework density 16.330565
#
# number of rings (size 3 to 8) (size 9 to 14) (size 15 to 20)
#    0.000    1.000    2.500    8.250    0.000    1.000 
#    0.000    0.000    0.000    0.000    0.000    0.875 
#    0.000    0.000    0.000    0.000    0.000    0.000 
#
# Total GULP energy -178911.695631 kJ/mol
# GULP energy per Si atom -5590.990488 kJ/mol
# Density = 1.629340 g / cm^3
# Si number density = 16.330565 Si / 1000 Ang^3
#
#
#
# Elastic Constant Matrix: (Units=GPa)
#
#
# Indices 1 2 3 4 5 6 
#
# 1 67.6521 29.2791 -11.9064 0.0000 -6.1027 0.0000
# 2 29.2791 75.9951 12.1585 0.0000 -5.2650 0.0000
# 3 -11.9064 12.1585 23.8118 0.0000 3.6556 0.0000
# 4 0.0000 0.0000 0.0000 23.8091 0.0000 2.0886
# 5 -6.1027 -5.2650 3.6556 0.0000 33.5658 0.0000
# 6 0.0000 0.0000 0.0000 2.0886 0.0000 23.4561
#
#
#
# Elastic Compliance Matrix: (Units=1/GPa)
#
#
# Indices 1 2 3 4 5 6 
#
# 1 0.022847 -0.011528 0.017238 0.000000 0.000468 0.000000
# 2 -0.011528 0.020470 -0.016666 0.000000 0.002930 0.000000
# 3 0.017238 -0.016666 0.060050 0.000000 -0.006020 0.000000
# 4 0.000000 0.000000 0.000000 0.042331 0.000000 -0.003769
# 5 0.000468 0.002930 -0.006020 0.000000 0.030993 0.000000
# 6 0.000000 0.000000 0.000000 -0.003769 0.000000 0.042969
#
#
# Mechanical properties :
#
#
# Convention : Reuss Voigt Hill
#
# Bulk Modulus (GPa) = 12.27676 25.16902 18.72289
# Shear Modulus (GPa) = 18.60667 25.36137 21.98402
#
# Velocity S-wave (km/s) = 3.37913 3.94509 3.67302
# Velocity P-wave (km/s) = 4.77060 6.01642 5.42936
#
# Compressibility (1/GPa) = 0.08145473
#
# Stress axis : x y z
#
# Youngs Moduli (GPa) = 43.77001 48.85314 16.65292
#
# Poissons Ratio (x) = 0.56317 -0.28707
# Poissons Ratio (y) = 0.50457 0.27754
# Poissons Ratio (z) = -0.75452 0.81418
#
# Static dielectric constant tensor:
#      x y z
#    x 1.553470 0.000000 -0.001710 
#    y 0.000000 1.516030 0.000000 
#    z -0.001710 0.000000 1.551500 
# 
# From -- ./inp_files/57857.got.cif
#   From: 2010.05.17/outbox.cif.g08.bks.cpg/sg15_29_cif.got.tgz:57857.got - 2010.06.03 18:47:42.
