data_PCOD9279484
_publ_section_title
;
Structure prediction by ZEFSAII (Michael W. Deem and Ramdas Pophale) SiO2 
 PCOD9279484
Probable space group: C 2/C
;
_chemical_formula_sum "Si O2"
_cell_formula_units_Z 64
_cell_length_a 18.838628
_cell_length_b 14.600071
_cell_length_c 14.641654
_cell_angle_alpha 90.000000
_cell_angle_beta 130.750103
_cell_angle_gamma 90.000000
_cell_volume 3050.799018
_symmetry_space_group_name_H-M "C 2/C"
_symmetry_group_IT_number 15
_symmetry_cell_setting 'monoclinic'
loop_
_space_group_symop_operation_xyz
x,y,z
-x,y,1/2-z
-x,-y,-z
x,-y,1/2+z
1/2+x,1/2+y,z
1/2-x,1/2+y,1/2-z
1/2-x,1/2-y,-z
1/2+x,1/2-y,1/2+z
loop_
_atom_site_type_symbol
_atom_site_label
_atom_site_fract_x
_atom_site_fract_y
_atom_site_fract_z
Si Si1 0.360012 0.145854 0.023267
Si Si2 0.432084 0.748066 0.104910
Si Si3 0.527296 0.749673 0.569785
Si Si4 0.604611 0.951868 0.375242
Si Si5 0.322269 0.743493 0.668866
Si Si6 0.108674 0.049003 0.831480
Si Si7 0.294745 0.585237 0.949397
Si Si8 0.581258 0.446105 0.117673
O O1 0.455340 0.185442 0.061295
O O2 0.336699 0.176467 0.107843
O O3 0.363512 0.036006 0.033416
O O4 0.279788 0.200755 0.900823
O O5 0.500000 0.731114 0.250000
O O6 0.402120 0.853793 0.082039
O O7 0.344253 0.677633 0.030689
O O8 0.481107 0.741159 0.046313
O O9 0.629879 0.773338 0.696605
O O10 0.524345 0.644668 0.600841
O O11 0.500000 0.973964 0.250000
O O12 0.683704 0.929504 0.365142
O O13 0.369186 0.656571 0.655218
O O14 0.128691 0.011265 0.746478
O O15 0.000000 0.029806 0.750000
O O16 0.163066 0.997626 0.955602
O O17 0.337172 0.578492 0.884131
O O18 0.500000 0.500000 0.000000
#
# Coordination Sequence:
#
# PCOD9279484 Si02
#       8
#     8   8   8   8   8   8   8   8
#     4  11  22  41  68  96 133 170 213 271 338 403
#     4  10  24  46  66  95 127 177 228 274 331 386
#     4  10  22  41  63  94 130 169 220 273 326 387
#     4  11  24  45  67  94 130 181 226 269 329 395
#     4  10  21  38  64  98 129 167 212 263 337 399
#     4  11  19  35  62  94 134 161 207 267 330 390
#     4  11  22  41  65  92 133 171 217 275 326 392
#     4  10  21  35  61  99 130 166 210 265 333 396
#
# _framework density 20.978110000000001
#
# number of rings (size 3 to 8) (size 9 to 14) (size 15 to 20)
#    0.000    1.500    2.500    3.375    1.750    0.500 
#   15.750    2.500    0.000    0.000    0.000    0.000 
#    0.000    0.000    0.000    0.000    0.000    0.000 
#
# Total GULP energy -178254.950918 kJ/mol
# GULP energy per Si atom -5570.467216 kJ/mol
# Density = 2.093036 g / cm^3
# Si number density = 20.978110 Si / 1000 Ang^3
#
#
#
# Elastic Constant Matrix: (Units=GPa)
#
#
# Indices 1 2 3 4 5 6 
#
# 1 80.3076 26.0834 41.4863 0.0000 12.4742 0.0000
# 2 26.0834 71.1182 8.5366 0.0000 1.9908 0.0000
# 3 41.4863 8.5366 88.2888 0.0000 -2.3692 0.0000
# 4 0.0000 0.0000 0.0000 16.7708 0.0000 1.0844
# 5 12.4742 1.9908 -2.3692 0.0000 35.6913 0.0000
# 6 0.0000 0.0000 0.0000 1.0844 0.0000 27.6185
#
#
#
# Elastic Compliance Matrix: (Units=1/GPa)
#
#
# Indices 1 2 3 4 5 6 
#
# 1 0.020321 -0.006148 -0.009152 0.000000 -0.007367 0.000000
# 2 -0.006148 0.016114 0.001367 0.000000 0.001341 0.000000
# 3 -0.009152 0.001367 0.015606 0.000000 0.004158 0.000000
# 4 0.000000 0.000000 0.000000 0.059779 0.000000 -0.002347
# 5 -0.007367 0.001341 0.004158 0.000000 0.030794 0.000000
# 6 0.000000 0.000000 0.000000 -0.002347 0.000000 0.036300
#
#
# Mechanical properties :
#
#
# Convention : Reuss Voigt Hill
#
# Bulk Modulus (GPa) = 41.36458 43.54746 42.45602
# Shear Modulus (GPa) = 23.27313 26.92333 25.09823
#
# Velocity S-wave (km/s) = 3.33438 3.58635 3.46266
# Velocity P-wave (km/s) = 5.88089 6.16058 6.02236
#
# Compressibility (1/GPa) = 0.02417527
#
# Stress axis : x y z
#
# Youngs Moduli (GPa) = 49.20975 62.05618 64.07650
#
# Poissons Ratio (x) = 0.38154 0.58643
# Poissons Ratio (y) = 0.30255 -0.08759
# Poissons Ratio (z) = 0.45037 -0.08482
#
# Static dielectric constant tensor:
#      x y z
#    x 1.795910 0.000000 0.023800 
#    y 0.000000 1.788670 0.000000 
#    z 0.023800 0.000000 1.857750 
# 
# From -- ./inp_files/162591.got.cif
#   From: 2010.05.17/outbox.cif.g08.bks.cpg/sg15_82_cif.got.tgz:162591.got - 2010.06.03 18:47:42.
