data_PCOD9279909
_publ_section_title
;
Structure prediction by ZEFSAII (Michael W. Deem and Ramdas Pophale) SiO2 
 PCOD9279909
Probable space group: C 2/C
;
_chemical_formula_sum "Si O2"
_cell_formula_units_Z 40
_cell_length_a 12.026317
_cell_length_b 23.217623
_cell_length_c 11.319231
_cell_angle_alpha 90.000000
_cell_angle_beta 33.921814
_cell_angle_gamma 90.000000
_cell_volume 1763.798858
_symmetry_space_group_name_H-M "C 2/C"
_symmetry_group_IT_number 15
_symmetry_cell_setting 'monoclinic'
loop_
_space_group_symop_operation_xyz
x,y,z
-x,y,1/2-z
-x,-y,-z
x,-y,1/2+z
1/2+x,1/2+y,z
1/2-x,1/2+y,1/2-z
1/2-x,1/2-y,-z
1/2+x,1/2-y,1/2+z
loop_
_atom_site_type_symbol
_atom_site_label
_atom_site_fract_x
_atom_site_fract_y
_atom_site_fract_z
Si Si1 0.766532 0.383732 0.801655
Si Si2 0.474449 0.712513 0.898394
Si Si3 0.380542 0.496586 0.477830
Si Si4 0.615365 0.626538 0.034575
Si Si5 0.619076 0.178975 0.875325
O O1 0.571387 0.381432 0.889893
O O2 0.960108 0.367864 0.556267
O O3 0.711888 0.330131 0.933477
O O4 0.770779 0.444396 0.864197
O O5 0.500000 0.742058 0.750000
O O6 0.675856 0.675745 0.732335
O O7 0.462759 0.758135 0.015875
O O8 0.500000 0.482505 0.250000
O O9 0.500000 0.500000 0.500000
O O10 0.303398 0.561326 0.522062
O O11 0.500000 0.649102 0.250000
O O12 0.793541 0.666313 0.830990
#
# Coordination Sequence:
#
# PCOD9279909 Si02
#       5
#     8   8   8   8   8
#     4  10  21  36  61  89 120 153 204 250 304 377
#     4  11  22  38  57  85 125 161 192 249 315 368
#     4   9  18  38  62  89 124 163 200 255 314 369
#     4   9  21  41  62  84 120 160 199 250 309 363
#     4  11  22  36  59  87 118 157 203 245 302 365
#
# _framework density 22.678324
#
# number of rings (size 3 to 8) (size 9 to 14) (size 15 to 20)
#    0.000    2.000    2.000    1.200    0.000    1.600 
#    0.000    4.000    0.000   14.400    0.000    0.000 
#    0.000    0.000    0.000    0.000    0.000    0.000 
#
# Total GULP energy -111374.279832 kJ/mol
# GULP energy per Si atom -5568.713992 kJ/mol
# Density = 2.262671 g / cm^3
# Si number density = 22.678324 Si / 1000 Ang^3
#
#
#
# Elastic Constant Matrix: (Units=GPa)
#
#
# Indices 1 2 3 4 5 6 
#
# 1 29.2889 7.0220 25.3250 0.0000 4.1856 0.0000
# 2 7.0220 98.2273 89.4380 0.0000 8.9423 0.0000
# 3 25.3250 89.4380 186.4835 0.0001 11.0745 -0.0002
# 4 0.0000 0.0000 0.0001 34.2991 0.0000 10.4096
# 5 4.1856 8.9423 11.0745 0.0000 37.0635 0.0000
# 6 0.0000 0.0000 -0.0002 10.4096 0.0000 6.7688
#
#
#
# Elastic Compliance Matrix: (Units=1/GPa)
#
#
# Indices 1 2 3 4 5 6 
#
# 1 0.039804 0.003904 -0.007080 0.000000 -0.003321 -0.000001
# 2 0.003904 0.018574 -0.009311 0.000000 -0.002140 -0.000001
# 3 -0.007080 -0.009311 0.010800 0.000000 -0.000181 0.000001
# 4 0.000000 0.000000 0.000000 0.054674 0.000000 -0.084082
# 5 -0.003321 -0.002140 -0.000181 0.000000 0.027926 0.000000
# 6 -0.000001 -0.000001 0.000001 -0.084082 0.000000 0.277046
#
#
# Mechanical properties :
#
#
# Convention : Reuss Voigt Hill
#
# Bulk Modulus (GPa) = 22.62323 61.95217 42.28770
# Shear Modulus (GPa) = 10.67156 28.44060 19.55608
#
# Velocity S-wave (km/s) = 2.17160 3.54515 2.93972
# Velocity P-wave (km/s) = 4.03549 6.64338 5.49635
#
# Compressibility (1/GPa) = 0.04420236
#
# Stress axis : x y z
#
# Youngs Moduli (GPa) = 25.12342 53.83737 92.58846
#
# Poissons Ratio (x) = -0.21017 0.65557
# Poissons Ratio (y) = -0.09808 0.86213
# Poissons Ratio (z) = 0.17789 0.50130
#
# Static dielectric constant tensor:
#      x y z
#    x 2.010920 0.000000 0.137240 
#    y 0.000000 1.910310 0.000000 
#    z 0.137240 0.000000 1.936940 
# 
# From -- ./inp_files/100584.got.cif
#   From: 2010.05.17/outbox.cif.g08.bks.cpg/sg15_51_cif.got.tgz:100584.got - 2010.06.03 18:47:42.
