data_PCOD9279704
_publ_section_title
;
Structure prediction by ZEFSAII (Michael W. Deem and Ramdas Pophale) SiO2 
 PCOD9279704
Probable space group: C 2/C
;
_chemical_formula_sum "Si O2"
_cell_formula_units_Z 44
_cell_length_a 12.374684
_cell_length_b 12.034379
_cell_length_c 23.868022
_cell_angle_alpha 90.000000
_cell_angle_beta 43.094001
_cell_angle_gamma 90.000000
_cell_volume 2428.400905
_symmetry_space_group_name_H-M "C 2/C"
_symmetry_group_IT_number 15
_symmetry_cell_setting 'monoclinic'
loop_
_space_group_symop_operation_xyz
x,y,z
-x,y,1/2-z
-x,-y,-z
x,-y,1/2+z
1/2+x,1/2+y,z
1/2-x,1/2+y,1/2-z
1/2-x,1/2-y,-z
1/2+x,1/2-y,1/2+z
loop_
_atom_site_type_symbol
_atom_site_label
_atom_site_fract_x
_atom_site_fract_y
_atom_site_fract_z
Si Si1 0.014810 0.079295 0.909227
Si Si2 0.000000 0.680196 0.250000
Si Si3 0.470826 0.170183 0.827858
Si Si4 0.245483 0.526714 0.091974
Si Si5 0.205562 0.244121 0.771697
Si Si6 0.030751 0.087569 0.302105
O O1 0.137460 0.014620 0.903158
O O2 0.091558 0.195939 0.862495
O O3 0.998554 0.006715 0.859155
O O4 0.851679 0.084619 0.004739
O O5 0.887015 0.604790 0.331256
O O6 0.888321 0.746880 0.250157
O O7 0.500000 0.153435 0.750000
O O8 0.343705 0.083023 0.896409
O O9 0.644311 0.160729 0.789482
O O10 0.426854 0.299932 0.851512
O O11 0.293051 0.359454 0.755294
O O12 0.000000 0.052701 0.250000
#
# Coordination Sequence:
#
# PCOD9279704 Si02
#       6
#     8   4   8   8   8   8
#     4  11  21  35  57  94 115 147 192 248 280 346
#     4  12  22  38  60  82 114 164 184 242 294 344
#     4   9  16  34  59  81 104 151 191 230 270 346
#     4  11  20  36  63  84 117 147 202 234 284 348
#     4  10  21  36  57  83 113 154 198 227 291 340
#     4   9  19  36  58  82 115 153 187 234 289 337
#
# _framework density 18.118919000000002
#
# number of rings (size 3 to 8) (size 9 to 14) (size 15 to 20)
#    1.091    0.727    4.545    0.000    1.273    1.455 
#    0.000    1.818    0.000    2.182    0.000    0.000 
#    0.000    0.000    0.000    0.000    0.000    0.000 
#
# Total GULP energy -122534.770992 kJ/mol
# GULP energy per Si atom -5569.762318 kJ/mol
# Density = 1.807768 g / cm^3
# Si number density = 18.118919 Si / 1000 Ang^3
#
#
#
# Elastic Constant Matrix: (Units=GPa)
#
#
# Indices 1 2 3 4 5 6 
#
# 1 125.3906 12.6102 30.8530 0.0000 3.6941 0.0000
# 2 12.6102 25.4518 28.2009 0.0000 6.5200 0.0000
# 3 30.8530 28.2009 96.2312 0.0000 1.9999 0.0000
# 4 0.0000 0.0000 0.0000 -0.3451 0.0000 5.6731
# 5 3.6941 6.5200 1.9999 0.0000 19.7537 0.0000
# 6 0.0000 0.0000 0.0000 5.6731 0.0000 10.6075
#
#
#
# Elastic Compliance Matrix: (Units=1/GPa)
#
#
# Indices 1 2 3 4 5 6 
#
# 1 0.008728 -0.001502 -0.002340 0.000000 -0.000900 0.000000
# 2 -0.001502 0.065189 -0.018219 0.000000 -0.019391 0.000000
# 3 -0.002340 -0.018219 0.016381 0.000000 0.004793 0.000000
# 4 0.000000 0.000000 0.000000 -0.295923 0.000000 0.158266
# 5 -0.000900 -0.019391 0.004793 0.000000 0.056707 0.000000
# 6 0.000000 0.000000 0.000000 0.158266 0.000000 0.009629
#
#
# Mechanical properties :
#
#
# Convention : Reuss Voigt Hill
#
# Bulk Modulus (GPa) = 21.65572 43.37800 32.51686
# Shear Modulus (GPa) = -62.67593 17.69717 -22.48938
#
# Velocity S-wave (km/s) = -5.88783 3.12865 -3.52690
# Velocity P-wave (km/s) = 5.85185 6.08637 1.18318
#
# Compressibility (1/GPa) = 0.04617717
#
# Stress axis : x y z
#
# Youngs Moduli (GPa) = 114.57007 15.34006 61.04476
#
# Poissons Ratio (x) = 0.02303 0.14282
# Poissons Ratio (y) = 0.17204 1.11220
# Poissons Ratio (z) = 0.26805 0.27949
#
# Static dielectric constant tensor:
#      x y z
#    x 1.638290 0.000000 -0.020230 
#    y 0.000000 1.648840 0.000000 
#    z -0.020230 0.000000 1.606630 
# 
# From -- ./inp_files/269677.got.cif
#   From: 2010.05.17/outbox.cif.g08.bks.cpg/sg15_135_cif.got.tgz:269677.got - 2010.06.03 18:47:42.
