data_PCOD9279685
_publ_section_title
;
Structure prediction by ZEFSAII (Michael W. Deem and Ramdas Pophale) SiO2 
 PCOD9279685
Probable space group: C 2/C
;
_chemical_formula_sum "Si O2"
_cell_formula_units_Z 44
_cell_length_a 18.295201
_cell_length_b 10.150590
_cell_length_c 20.438445
_cell_angle_alpha 90.000000
_cell_angle_beta 153.880267
_cell_angle_gamma 90.000000
_cell_volume 1670.991104
_symmetry_space_group_name_H-M "C 2/C"
_symmetry_group_IT_number 15
_symmetry_cell_setting 'monoclinic'
loop_
_space_group_symop_operation_xyz
x,y,z
-x,y,1/2-z
-x,-y,-z
x,-y,1/2+z
1/2+x,1/2+y,z
1/2-x,1/2+y,1/2-z
1/2-x,1/2-y,-z
1/2+x,1/2-y,1/2+z
loop_
_atom_site_type_symbol
_atom_site_label
_atom_site_fract_x
_atom_site_fract_y
_atom_site_fract_z
Si Si1 0.441334 0.848340 0.070106
Si Si2 0.666833 0.011221 0.676259
Si Si3 0.870058 0.132850 0.533703
Si Si4 0.390008 0.611227 0.250944
Si Si5 0.500000 0.171422 0.250000
Si Si6 0.959536 0.844418 0.456028
O O1 0.571134 0.969441 0.167959
O O2 0.516193 0.748551 0.182149
O O3 0.254333 0.900920 0.919490
O O4 0.444330 0.745960 0.008058
O O5 0.785556 0.138965 0.776814
O O6 0.500000 0.000000 0.500000
O O7 0.783620 0.907138 0.733574
O O8 0.675426 0.100493 0.379743
O O9 0.943612 0.235766 0.644523
O O10 0.908115 0.194727 0.492434
O O11 0.976195 0.002917 0.634704
O O12 0.000000 0.000000 0.500000
#
# Coordination Sequence:
#
# PCOD9279685 Si02
#       6
#     8   8   8   8   4   8
#     4  11  19  33  54  89 137 159 186 244 330 391
#     4   9  19  32  46  79 128 169 192 226 297 397
#     4  10  23  43  65  94 121 167 224 270 302 375
#     4  10  21  36  56  90 127 165 205 249 313 384
#     4  10  24  48  68  86 122 178 226 264 308 348
#     4  11  20  34  59  97 130 159 197 258 331 390
#
# _framework density 26.331678
#
# number of rings (size 3 to 8) (size 9 to 14) (size 15 to 20)
#    0.000    1.818    5.455    0.000    5.091    0.000 
#    0.000    5.455    0.000    3.273    0.000    0.000 
#    0.000    0.000    0.000    0.000    0.000    0.000 
#
# Total GULP energy -122473.249228 kJ/mol
# GULP energy per Si atom -5566.965874 kJ/mol
# Density = 2.627175 g / cm^3
# Si number density = 26.331678 Si / 1000 Ang^3
#
#
#
# Elastic Constant Matrix: (Units=GPa)
#
#
# Indices 1 2 3 4 5 6 
#
# 1 75.5606 15.4865 24.0340 0.0001 -9.9510 0.0000
# 2 15.4865 86.9571 44.7981 0.0022 2.0323 0.0001
# 3 24.0340 44.7981 221.8827 0.0021 33.4186 0.0001
# 4 0.0001 0.0022 0.0021 52.7934 0.0003 -13.0989
# 5 -9.9510 2.0323 33.4186 0.0003 15.5616 0.0002
# 6 0.0000 0.0001 0.0001 -13.0989 0.0002 17.2864
#
#
#
# Elastic Compliance Matrix: (Units=1/GPa)
#
#
# Indices 1 2 3 4 5 6 
#
# 1 0.018119 -0.001089 -0.005187 0.000000 0.022867 0.000000
# 2 -0.001089 0.013258 -0.003242 -0.000001 0.004533 -0.000001
# 3 -0.005187 -0.003242 0.009103 0.000000 -0.022443 0.000000
# 4 0.000000 -0.000001 0.000000 0.023328 0.000000 0.017677
# 5 0.022867 0.004533 -0.022443 0.000000 0.126488 -0.000002
# 6 0.000000 -0.000001 0.000000 0.017677 -0.000002 0.071244
#
#
# Mechanical properties :
#
#
# Convention : Reuss Voigt Hill
#
# Bulk Modulus (GPa) = 46.63068 61.44861 54.03964
# Shear Modulus (GPa) = 17.37784 37.13375 27.25579
#
# Velocity S-wave (km/s) = 2.57175 3.75938 3.22078
# Velocity P-wave (km/s) = 5.15422 6.49853 5.86502
#
# Compressibility (1/GPa) = 0.02144511
#
# Stress axis : x y z
#
# Youngs Moduli (GPa) = 55.19080 75.42658 109.84871
#
# Poissons Ratio (x) = 0.08215 0.56977
# Poissons Ratio (y) = 0.06011 0.35608
# Poissons Ratio (z) = 0.28627 0.24450
#
# Static dielectric constant tensor:
#      x y z
#    x 2.229250 0.000000 0.005560 
#    y 0.000000 2.146640 0.000000 
#    z 0.005560 0.000000 2.270690 
# 
# From -- ./inp_files/300890.got.cif
#   From: 2010.05.17/outbox.cif.g08.bks.cpg/sg15_151_cif.got.tgz:300890.got - 2010.06.03 18:47:42.
