data_PCOD9279298
_publ_section_title
;
Structure prediction by ZEFSAII (Michael W. Deem and Ramdas Pophale) SiO2 
 PCOD9279298
Probable space group: C 2/C
;
_chemical_formula_sum "Si O2"
_cell_formula_units_Z 60
_cell_length_a 23.481581
_cell_length_b 24.150558
_cell_length_c 17.670676
_cell_angle_alpha 90.000000
_cell_angle_beta 162.679477
_cell_angle_gamma 90.000000
_cell_volume 2983.397182
_symmetry_space_group_name_H-M "C 2/C"
_symmetry_group_IT_number 15
_symmetry_cell_setting 'monoclinic'
loop_
_space_group_symop_operation_xyz
x,y,z
-x,y,1/2-z
-x,-y,-z
x,-y,1/2+z
1/2+x,1/2+y,z
1/2-x,1/2+y,1/2-z
1/2-x,1/2-y,-z
1/2+x,1/2-y,1/2+z
loop_
_atom_site_type_symbol
_atom_site_label
_atom_site_fract_x
_atom_site_fract_y
_atom_site_fract_z
Si Si1 0.192593 0.464461 0.740743
Si Si2 0.811924 0.967568 0.730098
Si Si3 0.773146 0.829743 0.285844
Si Si4 0.885285 0.378358 0.728231
Si Si5 0.054534 0.928839 0.906171
Si Si6 0.162249 0.215279 0.000486
Si Si7 0.952550 0.780273 0.980865
Si Si8 0.000000 0.541458 0.250000
O O1 0.231410 0.442138 0.705488
O O2 0.164991 0.414853 0.762837
O O3 0.000000 0.500000 0.500000
O O4 0.349791 0.510194 0.964898
O O5 0.880831 0.931486 0.746390
O O6 0.644515 0.006656 0.485232
O O7 0.000000 0.000000 0.000000
O O8 0.811304 0.878966 0.393726
O O9 0.971111 0.818752 0.490425
O O10 0.596660 0.851526 0.009195
O O11 0.696000 0.770963 0.222271
O O12 0.722646 0.332565 0.519758
O O13 0.879870 0.418688 0.651150
O O14 0.000000 0.920041 0.750000
O O15 0.348362 0.251261 0.246654
O O16 0.000000 0.248146 0.750000
O O17 0.114618 0.194287 0.024540
#
# Coordination Sequence:
#
# PCOD9279298 Si02
#       8
#     8   8   8   8   8   8   8   4
#     4  11  20  41  59  86 127 162 197 239 291 357
#     4  10  23  38  61  86 123 170 204 245 295 353
#     4  10  21  42  62  86 114 157 197 248 314 361
#     4  11  23  34  60  87 121 164 193 240 293 368
#     4  11  23  39  64  92 120 155 205 252 295 362
#     4  10  21  35  56  87 113 153 198 248 298 355
#     4   9  21  40  61  79 117 153 197 253 310 361
#     4  12  22  38  56  88 132 166 202 244 300 348
#
# _framework density 20.111301999999998
#
# number of rings (size 3 to 8) (size 9 to 14) (size 15 to 20)
#    0.000    1.600    2.667    2.000    3.733    2.667 
#    2.400    0.667    0.000    0.000    0.000    0.000 
#    0.000    0.000    0.000    0.000    0.000    0.000 
#
# Total GULP energy -167229.327226 kJ/mol
# GULP energy per Si atom -5574.310908 kJ/mol
# Density = 2.006553 g / cm^3
# Si number density = 20.111302 Si / 1000 Ang^3
#
#
#
# Elastic Constant Matrix: (Units=GPa)
#
#
# Indices 1 2 3 4 5 6 
#
# 1 129.3267 27.3725 16.3195 0.0001 -1.3647 0.0001
# 2 27.3725 46.5435 4.6950 -0.0001 -1.2263 0.0000
# 3 16.3195 4.6950 40.4387 -0.0001 -4.4869 0.0005
# 4 0.0001 -0.0001 -0.0001 -46.5466 0.0001 66.3504
# 5 -1.3647 -1.2263 -4.4869 0.0001 28.9379 0.0001
# 6 0.0001 0.0000 0.0005 66.3504 0.0001 -32.6459
#
#
#
# Elastic Compliance Matrix: (Units=1/GPa)
#
#
# Indices 1 2 3 4 5 6 
#
# 1 0.009208 -0.005104 -0.003153 0.000000 -0.000271 0.000000
# 2 -0.005104 0.024578 -0.000717 0.000000 0.000690 0.000000
# 3 -0.003153 -0.000717 0.026521 0.000000 0.003933 0.000000
# 4 0.000000 0.000000 0.000000 0.011324 0.000000 0.023016
# 5 -0.000271 0.000690 0.003933 0.000000 0.035183 0.000000
# 6 0.000000 0.000000 0.000000 0.023016 0.000000 0.016146
#
#
# Mechanical properties :
#
#
# Convention : Reuss Voigt Hill
#
# Bulk Modulus (GPa) = 23.60883 34.78700 29.19791
# Shear Modulus (GPa) = 32.25218 1.14386 16.69802
#
# Velocity S-wave (km/s) = 4.00895 0.75498 2.88458
# Velocity P-wave (km/s) = 5.76138 4.25380 5.06400
#
# Compressibility (1/GPa) = 0.04235703
#
# Stress axis : x y z
#
# Youngs Moduli (GPa) = 108.60432 40.68744 37.70594
#
# Poissons Ratio (x) = 0.20768 0.11890
# Poissons Ratio (y) = 0.55434 0.02704
# Poissons Ratio (z) = 0.34247 0.02918
#
# Static dielectric constant tensor:
#      x y z
#    x 1.782090 0.000000 0.032020 
#    y 0.000000 1.720350 0.000000 
#    z 0.032020 0.000000 1.699130 
# 
# From -- ./inp_files/169946.got.cif
#   From: 2010.05.17/outbox.cif.g08.bks.cpg/sg15_85_cif.got.tgz:169946.got - 2010.06.03 18:47:42.
