data_PCOD9279534
_publ_section_title
;
Structure prediction by ZEFSAII (Michael W. Deem and Ramdas Pophale) SiO2 
 PCOD9279534
Probable space group: C 2/C
;
_chemical_formula_sum "Si O2"
_cell_formula_units_Z 48
_cell_length_a 7.954810
_cell_length_b 12.032334
_cell_length_c 23.207272
_cell_angle_alpha 90.000000
_cell_angle_beta 49.021459
_cell_angle_gamma 90.000000
_cell_volume 1676.968816
_symmetry_space_group_name_H-M "C 2/C"
_symmetry_group_IT_number 15
_symmetry_cell_setting 'monoclinic'
loop_
_space_group_symop_operation_xyz
x,y,z
-x,y,1/2-z
-x,-y,-z
x,-y,1/2+z
1/2+x,1/2+y,z
1/2-x,1/2+y,1/2-z
1/2-x,1/2-y,-z
1/2+x,1/2-y,1/2+z
loop_
_atom_site_type_symbol
_atom_site_label
_atom_site_fract_x
_atom_site_fract_y
_atom_site_fract_z
Si Si1 0.272679 0.842370 0.544216
Si Si2 0.177933 0.839284 0.336041
Si Si3 0.639591 0.547718 0.401777
Si Si4 0.244587 0.976395 0.207470
Si Si5 0.853529 0.763806 0.685839
Si Si6 0.591549 0.859169 0.568165
O O1 0.250000 0.750000 0.500000
O O2 0.502809 0.870023 0.522686
O O3 0.677575 0.604091 0.455140
O O4 0.121709 0.945197 0.557268
O O5 0.235063 0.923670 0.375596
O O6 0.382898 0.712058 0.370901
O O7 0.281520 0.750225 0.267596
O O8 0.962075 0.769398 0.403796
O O9 0.711738 0.440951 0.281432
O O10 0.740614 0.639963 0.334069
O O11 0.429362 0.057247 0.141114
O O12 0.000000 0.019810 0.250000
O O13 0.289661 0.853384 0.170581
#
# Coordination Sequence:
#
# PCOD9279534 Si02
#       6
#     8   8   8   8   8   8
#     4  10  25  49  67  92 138 187 240 286 334 419
#     4  10  22  38  67 102 146 168 217 291 363 424
#     4  10  23  44  66 103 137 177 230 289 353 419
#     4  10  21  35  64  99 140 177 215 275 358 431
#     4   8  22  40  66  97 141 175 217 287 347 411
#     4  12  25  38  71 103 133 184 230 289 360 420
#
# _framework density 28.623073000000002
#
# number of rings (size 3 to 8) (size 9 to 14) (size 15 to 20)
#    2.000    0.000    0.000    3.000    4.667    4.000 
#    0.000    1.667    0.000    0.000    0.000    0.000 
#    0.000    0.000    0.000    0.000    0.000    0.000 
#
# Total GULP energy -133698.094288 kJ/mol
# GULP energy per Si atom -5570.753929 kJ/mol
# Density = 2.855793 g / cm^3
# Si number density = 28.623073 Si / 1000 Ang^3
#
#
#
# Elastic Constant Matrix: (Units=GPa)
#
#
# Indices 1 2 3 4 5 6 
#
# 1 154.1314 38.1150 37.7233 -0.0004 12.9343 0.0003
# 2 38.1150 198.3765 36.5904 -0.0002 27.8671 0.0002
# 3 37.7233 36.5904 77.7445 -0.0001 23.0265 0.0001
# 4 -0.0004 -0.0002 -0.0001 54.9648 0.0002 8.5729
# 5 12.9343 27.8671 23.0265 0.0002 35.4289 -0.0002
# 6 0.0003 0.0002 0.0001 8.5729 -0.0002 57.8033
#
#
#
# Elastic Compliance Matrix: (Units=1/GPa)
#
#
# Indices 1 2 3 4 5 6 
#
# 1 0.007489 -0.000846 -0.003248 0.000000 0.000042 0.000000
# 2 -0.000846 0.005943 -0.001354 0.000000 -0.003485 0.000000
# 3 -0.003248 -0.001354 0.017844 0.000000 -0.009347 0.000000
# 4 0.000000 0.000000 0.000000 0.018624 0.000000 -0.002762
# 5 0.000042 -0.003485 -0.009347 0.000000 0.037026 0.000000
# 6 0.000000 0.000000 0.000000 -0.002762 0.000000 0.017710
#
#
# Mechanical properties :
#
#
# Convention : Reuss Voigt Hill
#
# Bulk Modulus (GPa) = 49.06877 72.78997 60.92937
# Shear Modulus (GPa) = 40.87460 50.82766 45.85113
#
# Velocity S-wave (km/s) = 3.78303 4.21855 4.00671
# Velocity P-wave (km/s) = 6.02180 7.01526 6.53743
#
# Compressibility (1/GPa) = 0.02037956
#
# Stress axis : x y z
#
# Youngs Moduli (GPa) = 133.53803 168.27019 56.04000
#
# Poissons Ratio (x) = 0.14229 0.18202
# Poissons Ratio (y) = 0.11292 0.07590
# Poissons Ratio (z) = 0.43375 0.22789
#
# Static dielectric constant tensor:
#      x y z
#    x 2.180650 0.000000 0.061460 
#    y 0.000000 2.295690 0.000000 
#    z 0.061460 0.000000 2.287550 
# 
# From -- ./inp_files/287534.got.cif
#   From: 2010.05.17/outbox.cif.g08.bks.cpg/sg15_144_cif.got.tgz:287534.got - 2010.06.03 18:47:42.
