data_PCOD9279824
_publ_section_title
;
Structure prediction by ZEFSAII (Michael W. Deem and Ramdas Pophale) SiO2 
 PCOD9279824
Probable space group: C 2/C
;
_chemical_formula_sum "Si O2"
_cell_formula_units_Z 48
_cell_length_a 13.320774
_cell_length_b 8.432248
_cell_length_c 24.537927
_cell_angle_alpha 90.000000
_cell_angle_beta 127.871311
_cell_angle_gamma 90.000000
_cell_volume 2175.720907
_symmetry_space_group_name_H-M "C 2/C"
_symmetry_group_IT_number 15
_symmetry_cell_setting 'monoclinic'
loop_
_space_group_symop_operation_xyz
x,y,z
-x,y,1/2-z
-x,-y,-z
x,-y,1/2+z
1/2+x,1/2+y,z
1/2-x,1/2+y,1/2-z
1/2-x,1/2-y,-z
1/2+x,1/2-y,1/2+z
loop_
_atom_site_type_symbol
_atom_site_label
_atom_site_fract_x
_atom_site_fract_y
_atom_site_fract_z
Si Si1 0.950688 0.696972 0.562917
Si Si2 0.301283 0.141983 0.806816
Si Si3 0.889883 0.284513 0.834782
Si Si4 0.781590 0.008855 0.525629
Si Si5 0.599608 0.657609 0.827490
Si Si6 0.539430 0.331881 0.487839
O O1 0.864423 0.540143 0.531247
O O2 0.027887 0.707678 0.532261
O O3 0.057095 0.711363 0.644640
O O4 0.859638 0.848269 0.537526
O O5 0.220554 0.174019 0.726263
O O6 0.213679 0.213479 0.826138
O O7 0.328825 0.956060 0.823251
O O8 0.943105 0.215289 0.908287
O O9 0.007361 0.277702 0.830299
O O10 0.831976 0.055713 0.602363
O O11 0.826414 0.138222 0.496317
O O12 0.500000 0.579998 0.750000
O O13 0.500000 0.500000 0.500000
#
# Coordination Sequence:
#
# PCOD9279824 Si02
#       6
#     8   8   8   8   8   8
#     4  10  21  36  59  91 121 160 212 255 309 384
#     4  11  24  39  67  89 130 166 212 266 317 383
#     4  10  23  40  63  95 124 172 213 257 328 384
#     4   9  19  37  59  86 126 160 204 259 312 375
#     4   9  20  38  60  83 124 160 206 257 318 369
#     4   9  19  36  62  87 123 162 206 258 319 374
#
# _framework density 22.061651999999999
#
# number of rings (size 3 to 8) (size 9 to 14) (size 15 to 20)
#    0.000    2.333    0.000    1.000    9.333    4.000 
#    0.000    3.333   14.667    0.000    0.000    0.000 
#    0.000    0.000    0.000    0.000    0.000    0.000 
#
# Total GULP energy -133911.709413 kJ/mol
# GULP energy per Si atom -5579.654559 kJ/mol
# Density = 2.201144 g / cm^3
# Si number density = 22.061652 Si / 1000 Ang^3
#
#
#
# Elastic Constant Matrix: (Units=GPa)
#
#
# Indices 1 2 3 4 5 6 
#
# 1 50.7833 25.9490 33.0604 0.0000 16.1888 0.0000
# 2 25.9490 37.0783 12.4078 0.0000 5.8647 0.0000
# 3 33.0604 12.4078 104.0725 0.0000 18.2619 0.0000
# 4 0.0000 0.0000 0.0000 32.0130 0.0000 6.2857
# 5 16.1888 5.8647 18.2619 0.0000 40.9046 0.0000
# 6 0.0000 0.0000 0.0000 6.2857 0.0000 23.1990
#
#
#
# Elastic Compliance Matrix: (Units=1/GPa)
#
#
# Indices 1 2 3 4 5 6 
#
# 1 0.040138 -0.023910 -0.008370 0.000000 -0.008721 0.000000
# 2 -0.023910 0.042621 0.002089 0.000000 0.002419 0.000000
# 3 -0.008370 0.002089 0.012466 0.000000 -0.002553 0.000000
# 4 0.000000 0.000000 0.000000 0.032992 0.000000 -0.008939
# 5 -0.008721 0.002419 -0.002553 0.000000 0.028691 0.000000
# 6 0.000000 0.000000 0.000000 -0.008939 0.000000 0.045527
#
#
# Mechanical properties :
#
#
# Convention : Reuss Voigt Hill
#
# Bulk Modulus (GPa) = 28.69843 37.19651 32.94747
# Shear Modulus (GPa) = 18.21951 27.25779 22.73865
#
# Velocity S-wave (km/s) = 2.87687 3.51882 3.21391
# Velocity P-wave (km/s) = 4.90629 5.77982 5.36088
#
# Compressibility (1/GPa) = 0.03484511
#
# Stress axis : x y z
#
# Youngs Moduli (GPa) = 24.91436 23.46245 80.21666
#
# Poissons Ratio (x) = 0.56098 0.67138
# Poissons Ratio (y) = 0.59570 -0.16761
# Poissons Ratio (z) = 0.20852 -0.04902
#
# Static dielectric constant tensor:
#      x y z
#    x 1.863720 0.000000 0.016980 
#    y 0.000000 1.815890 0.000000 
#    z 0.016980 0.000000 1.810890 
# 
# From -- ./inp_files/295470.got.cif
#   From: 2010.05.17/outbox.cif.g08.bks.cpg/sg15_148_cif.got.tgz:295470.got - 2010.06.03 18:47:42.
