data_PCOD9279972
_publ_section_title
;
Structure prediction by ZEFSAII (Michael W. Deem and Ramdas Pophale) SiO2 
 PCOD9279972
Probable space group: C 2/C
;
_chemical_formula_sum "Si O2"
_cell_formula_units_Z 64
_cell_length_a 18.742680
_cell_length_b 10.421708
_cell_length_c 15.863110
_cell_angle_alpha 90.000000
_cell_angle_beta 106.606894
_cell_angle_gamma 90.000000
_cell_volume 2969.306740
_symmetry_space_group_name_H-M "C 2/C"
_symmetry_group_IT_number 15
_symmetry_cell_setting 'monoclinic'
loop_
_space_group_symop_operation_xyz
x,y,z
-x,y,1/2-z
-x,-y,-z
x,-y,1/2+z
1/2+x,1/2+y,z
1/2-x,1/2+y,1/2-z
1/2-x,1/2-y,-z
1/2+x,1/2-y,1/2+z
loop_
_atom_site_type_symbol
_atom_site_label
_atom_site_fract_x
_atom_site_fract_y
_atom_site_fract_z
Si Si1 0.782911 0.704074 0.810497
Si Si2 0.409831 0.329272 0.080339
Si Si3 0.456721 0.150045 0.574656
Si Si4 0.061161 0.144879 0.565567
Si Si5 0.386526 0.776410 0.752900
Si Si6 0.605295 0.914343 0.046840
Si Si7 0.305190 0.457296 0.926241
Si Si8 0.648753 0.939333 0.319832
O O1 0.695876 0.717420 0.768561
O O2 0.813332 0.598381 0.886589
O O3 0.806025 0.838295 0.861096
O O4 0.820318 0.662506 0.736426
O O5 0.480025 0.406539 0.065829
O O6 0.418207 0.295329 0.180851
O O7 0.405883 0.193541 0.028982
O O8 0.335188 0.402799 0.025630
O O9 0.445496 0.286103 0.526653
O O10 0.544184 0.118877 0.598000
O O11 0.416306 0.125535 0.648383
O O12 0.416106 0.048663 0.499308
O O13 0.073989 0.247449 0.645845
O O14 0.132328 0.054397 0.586069
O O15 0.380330 0.927802 0.731264
O O16 0.222163 0.515721 0.898332
#
# Coordination Sequence:
#
# PCOD9279972 Si02
#       8
#     8   8   8   8   8   8   8   8
#     4  10  22  39  61  83 126 159 199 255 306 363
#     4  10  21  39  67  89 119 162 211 254 303 371
#     4  10  21  36  62  90 125 152 204 252 312 364
#     4  11  22  42  60  92 126 163 205 260 308 363
#     4  11  22  39  64  91 119 160 212 254 307 366
#     4   9  19  38  59  92 119 158 193 253 315 362
#     4  10  23  41  62  88 127 166 210 250 307 374
#     4  11  22  40  62  94 122 163 206 256 311 367
#
# _framework density 21.553851999999999
#
# number of rings (size 3 to 8) (size 9 to 14) (size 15 to 20)
#    0.000    1.750    2.500    1.500    1.750    2.500 
#    4.500    0.000    5.500    0.000    0.000    0.000 
#    0.000    0.000    0.000    0.000    0.000    0.000 
#
# Total GULP energy -178741.710545 kJ/mol
# GULP energy per Si atom -5585.678455 kJ/mol
# Density = 2.150479 g / cm^3
# Si number density = 21.553852 Si / 1000 Ang^3
#
#
#
# Elastic Constant Matrix: (Units=GPa)
#
#
# Indices 1 2 3 4 5 6 
#
# 1 63.9481 15.9062 25.6218 0.0000 -17.5452 0.0000
# 2 15.9062 34.6984 6.1063 0.0000 -6.6832 0.0000
# 3 25.6218 6.1063 64.0752 0.0000 -4.8402 0.0000
# 4 0.0000 0.0000 0.0000 19.1978 0.0000 -0.5906
# 5 -17.5452 -6.6832 -4.8402 0.0000 39.5935 0.0000
# 6 0.0000 0.0000 0.0000 -0.5906 0.0000 29.0111
#
#
#
# Elastic Compliance Matrix: (Units=1/GPa)
#
#
# Indices 1 2 3 4 5 6 
#
# 1 0.022807 -0.007565 -0.007804 0.000000 0.007876 0.000000
# 2 -0.007565 0.032694 0.000074 0.000000 0.002175 0.000000
# 3 -0.007804 0.000074 0.018632 0.000000 -0.001168 0.000000
# 4 0.000000 0.000000 0.000000 0.052122 0.000000 0.001061
# 5 0.007876 0.002175 -0.001168 0.000000 0.028971 0.000000
# 6 0.000000 0.000000 0.000000 0.001061 0.000000 0.034491
#
#
# Mechanical properties :
#
#
# Convention : Reuss Voigt Hill
#
# Bulk Modulus (GPa) = 22.96626 28.66561 25.81594
# Shear Modulus (GPa) = 21.29284 25.23298 23.26291
#
# Velocity S-wave (km/s) = 3.14648 3.42525 3.28882
# Velocity P-wave (km/s) = 4.88660 5.38252 5.14055
#
# Compressibility (1/GPa) = 0.04354213
#
# Stress axis : x y z
#
# Youngs Moduli (GPa) = 43.84648 30.58710 53.67113
#
# Poissons Ratio (x) = 0.23138 0.41885
# Poissons Ratio (y) = 0.33168 -0.00395
# Poissons Ratio (z) = 0.34218 -0.00225
#
# Static dielectric constant tensor:
#      x y z
#    x 1.797270 0.000000 0.007860 
#    y 0.000000 1.777010 0.000000 
#    z 0.007860 0.000000 1.802650 
# 
# From -- ./inp_files/167666.got.cif
#   From: 2010.05.17/outbox.cif.g08.bks.cpg/sg15_84_cif.got.tgz:167666.got - 2010.06.03 18:47:42.
