data_PCOD9279674
_publ_section_title
;
Structure prediction by ZEFSAII (Michael W. Deem and Ramdas Pophale) SiO2 
 PCOD9279674
Probable space group: C 2/C
;
_chemical_formula_sum "Si O2"
_cell_formula_units_Z 48
_cell_length_a 24.199183
_cell_length_b 12.092744
_cell_length_c 8.830794
_cell_angle_alpha 90.000000
_cell_angle_beta 109.757195
_cell_angle_gamma 90.000000
_cell_volume 2432.072870
_symmetry_space_group_name_H-M "C 2/C"
_symmetry_group_IT_number 15
_symmetry_cell_setting 'monoclinic'
loop_
_space_group_symop_operation_xyz
x,y,z
-x,y,1/2-z
-x,-y,-z
x,-y,1/2+z
1/2+x,1/2+y,z
1/2-x,1/2+y,1/2-z
1/2-x,1/2-y,-z
1/2+x,1/2-y,1/2+z
loop_
_atom_site_type_symbol
_atom_site_label
_atom_site_fract_x
_atom_site_fract_y
_atom_site_fract_z
Si Si1 0.569514 0.596445 0.572139
Si Si2 0.963481 0.232851 0.347011
Si Si3 0.413286 0.363111 0.069512
Si Si4 0.653862 0.274858 0.954694
Si Si5 0.273548 0.366917 0.971042
Si Si6 0.240698 0.588183 0.095789
O O1 0.514590 0.641857 0.424558
O O2 0.579906 0.471514 0.530495
O O3 0.560015 0.611124 0.741167
O O4 0.625754 0.670710 0.578030
O O5 0.941922 0.240340 0.504579
O O6 0.899893 0.217828 0.212324
O O7 0.000000 0.303153 0.250000
O O8 0.343787 0.357266 0.032098
O O9 0.707152 0.349759 0.946133
O O10 0.680504 0.152593 0.999829
O O11 0.252296 0.396022 0.783094
O O12 0.250000 0.250000 0.000000
O O13 0.247917 0.461561 0.056215
#
# Coordination Sequence:
#
# PCOD9279674 Si02
#       6
#     8   8   8   8   8   8
#     4  11  21  34  56  88 127 165 214 261 329 387
#     4  10  21  36  56  86 121 165 215 257 326 387
#     4  12  21  36  54  89 133 166 209 270 324 394
#     4  10  21  40  60  86 125 170 213 261 323 382
#     4  12  26  41  66  98 133 177 223 265 327 394
#     4  11  24  41  63  89 132 172 217 269 323 381
#
# _framework density 19.736252
#
# number of rings (size 3 to 8) (size 9 to 14) (size 15 to 20)
#    0.000    1.000    3.333    5.000    4.667    1.333 
#    0.000    0.000    0.000    0.000    0.000   44.333 
#    0.000    0.000    0.000    0.000    0.000    0.000 
#
# Total GULP energy -133682.642665 kJ/mol
# GULP energy per Si atom -5570.110111 kJ/mol
# Density = 1.969133 g / cm^3
# Si number density = 19.736252 Si / 1000 Ang^3
#
#
#
# Elastic Constant Matrix: (Units=GPa)
#
#
# Indices 1 2 3 4 5 6 
#
# 1 121.5377 45.8630 50.5388 0.0000 -1.2158 0.0000
# 2 45.8630 94.3577 31.9048 0.0000 -7.0152 0.0000
# 3 50.5388 31.9048 140.6806 0.0000 -17.6524 0.0000
# 4 0.0000 0.0000 0.0000 1.0510 0.0000 0.6094
# 5 -1.2158 -7.0152 -17.6524 0.0000 44.6402 0.0000
# 6 0.0000 0.0000 0.0000 0.6094 0.0000 15.6251
#
#
#
# Elastic Compliance Matrix: (Units=1/GPa)
#
#
# Indices 1 2 3 4 5 6 
#
# 1 0.011254 -0.004502 -0.003233 0.000000 -0.001679 0.000000
# 2 -0.004502 0.013307 -0.001214 0.000000 0.001489 0.000000
# 3 -0.003233 -0.001214 0.008954 0.000000 0.003262 0.000000
# 4 0.000000 0.000000 0.000000 0.973467 0.000000 -0.037970
# 5 -0.001679 0.001489 0.003262 0.000000 0.023879 0.000000
# 6 0.000000 0.000000 0.000000 -0.037970 0.000000 0.065481
#
#
# Mechanical properties :
#
#
# Convention : Reuss Voigt Hill
#
# Bulk Modulus (GPa) = 64.02600 68.13215 66.07908
# Shear Modulus (GPa) = 4.46649 27.48121 15.97385
#
# Velocity S-wave (km/s) = 1.50599 3.73557 2.84802
# Velocity P-wave (km/s) = 5.96114 7.29398 6.66099
#
# Compressibility (1/GPa) = 0.01561865
#
# Stress axis : x y z
#
# Youngs Moduli (GPa) = 88.85573 75.14694 111.67876
#
# Poissons Ratio (x) = 0.33831 0.36103
# Poissons Ratio (y) = 0.40002 0.13556
# Poissons Ratio (z) = 0.28725 0.09122
#
# Static dielectric constant tensor:
#      x y z
#    x 1.614600 0.000000 -0.091690 
#    y 0.000000 1.632840 0.000000 
#    z -0.091690 0.000000 1.722740 
# 
# From -- ./inp_files/60661.got.cif
#   From: 2010.05.17/outbox.cif.g08.bks.cpg/sg15_31_cif.got.tgz:60661.got - 2010.06.03 18:47:42.
