data_PCOD9279191
_publ_section_title
;
Structure prediction by ZEFSAII (Michael W. Deem and Ramdas Pophale) SiO2 
 PCOD9279191
Probable space group: C 2/C
;
_chemical_formula_sum "Si O2"
_cell_formula_units_Z 60
_cell_length_a 14.746697
_cell_length_b 20.894974
_cell_length_c 11.169397
_cell_angle_alpha 90.000000
_cell_angle_beta 48.511085
_cell_angle_gamma 90.000000
_cell_volume 2578.082344
_symmetry_space_group_name_H-M "C 2/C"
_symmetry_group_IT_number 15
_symmetry_cell_setting 'monoclinic'
loop_
_space_group_symop_operation_xyz
x,y,z
-x,y,1/2-z
-x,-y,-z
x,-y,1/2+z
1/2+x,1/2+y,z
1/2-x,1/2+y,1/2-z
1/2-x,1/2-y,-z
1/2+x,1/2-y,1/2+z
loop_
_atom_site_type_symbol
_atom_site_label
_atom_site_fract_x
_atom_site_fract_y
_atom_site_fract_z
Si Si1 0.722375 0.977330 0.188841
Si Si2 0.681835 0.745760 0.376210
Si Si3 0.242217 0.888041 0.765313
Si Si4 0.589414 0.729312 0.994413
Si Si5 0.836189 0.381753 0.068490
Si Si6 0.035075 0.634387 0.590517
Si Si7 0.500000 0.035098 0.250000
Si Si8 0.123563 0.103746 0.122326
O O1 0.743085 0.935913 0.292667
O O2 0.788052 0.045415 0.146707
O O3 0.584801 0.997843 0.272582
O O4 0.776043 0.937486 0.031927
O O5 0.729729 0.673589 0.360113
O O6 0.538243 0.734022 0.468413
O O7 0.784755 0.765812 0.188080
O O8 0.694027 0.809402 0.448113
O O9 0.370770 0.896878 0.584508
O O10 0.161484 0.874692 0.720254
O O11 0.587683 0.795046 0.070349
O O12 0.596401 0.665987 0.066598
O O13 0.916434 0.362940 0.114324
O O14 0.908798 0.420057 0.904539
O O15 0.000000 0.608771 0.750000
O O16 0.000000 0.065246 0.250000
#
# Coordination Sequence:
#
# PCOD9279191 Si02
#       8
#     8   8   8   8   8   8   4   8
#     4  12  26  45  66 100 140 186 233 291 353 420
#     4  10  22  43  70 101 141 177 231 288 362 418
#     4  11  24  41  65  96 138 180 224 288 351 417
#     4  10  21  39  64 105 141 177 217 291 358 426
#     4  11  23  42  70 104 137 184 226 295 347 416
#     4  10  21  34  65 103 138 167 214 282 359 410
#     4  12  26  46  70 100 142 180 248 290 344 416
#     4  12  24  42  65  99 138 183 229 286 358 430
#
# _framework density 23.273111
#
# number of rings (size 3 to 8) (size 9 to 14) (size 15 to 20)
#    0.000    1.067    4.000    2.400    6.533    1.600 
#    0.000    0.667    1.467    0.000    0.000    0.000 
#    0.000    0.000    0.000    0.000    0.000    0.000 
#
# Total GULP energy -167111.258143 kJ/mol
# GULP energy per Si atom -5570.375271 kJ/mol
# Density = 2.322014 g / cm^3
# Si number density = 23.273111 Si / 1000 Ang^3
#
#
#
# Elastic Constant Matrix: (Units=GPa)
#
#
# Indices 1 2 3 4 5 6 
#
# 1 60.2484 20.1087 40.0355 0.0000 -3.3163 0.0000
# 2 20.1087 162.5025 25.6705 0.0000 14.6841 0.0000
# 3 40.0355 25.6705 53.6409 0.0000 -6.1567 0.0000
# 4 0.0000 0.0000 0.0000 6.2645 0.0000 -15.0600
# 5 -3.3163 14.6841 -6.1567 0.0000 34.4188 0.0000
# 6 0.0000 0.0000 0.0000 -15.0600 0.0000 19.4984
#
#
#
# Elastic Compliance Matrix: (Units=1/GPa)
#
#
# Indices 1 2 3 4 5 6 
#
# 1 0.032983 -0.000066 -0.024726 0.000000 -0.001217 0.000000
# 2 -0.000066 0.007092 -0.003771 0.000000 -0.003707 0.000000
# 3 -0.024726 -0.003771 0.039626 0.000000 0.006315 0.000000
# 4 0.000000 0.000000 0.000000 -0.186310 0.000000 -0.143900
# 5 -0.001217 -0.003707 0.006315 0.000000 0.031648 0.000000
# 6 0.000000 0.000000 0.000000 -0.143900 0.000000 -0.059858
#
#
# Mechanical properties :
#
#
# Convention : Reuss Voigt Hill
#
# Bulk Modulus (GPa) = 44.29120 49.78015 47.03568
# Shear Modulus (GPa) = -71.25682 24.74146 -23.25768
#
# Velocity S-wave (km/s) = -5.53933 3.26405 -3.16466
# Velocity P-wave (km/s) = 4.67331 5.97004 2.62693
#
# Compressibility (1/GPa) = 0.02257785
#
# Stress axis : x y z
#
# Youngs Moduli (GPa) = 30.31840 140.99476 25.23592
#
# Poissons Ratio (x) = 0.00925 0.62398
# Poissons Ratio (y) = 0.00199 0.09516
# Poissons Ratio (z) = 0.74964 0.53164
#
# Static dielectric constant tensor:
#      x y z
#    x 1.971770 0.000000 -0.039580 
#    y 0.000000 2.026210 0.000000 
#    z -0.039580 0.000000 1.921170 
# 
# From -- ./inp_files/107636.got.cif
#   From: 2010.05.17/outbox.cif.g08.bks.cpg/sg15_54_cif.got.tgz:107636.got - 2010.06.03 18:47:42.
