data_PCOD9279132
_publ_section_title
;
Structure prediction by ZEFSAII (Michael W. Deem and Ramdas Pophale) SiO2 
 PCOD9279132
Probable space group: C 2/C
;
_chemical_formula_sum "Si O2"
_cell_formula_units_Z 52
_cell_length_a 5.921684
_cell_length_b 15.138370
_cell_length_c 28.849117
_cell_angle_alpha 90.000000
_cell_angle_beta 62.373878
_cell_angle_gamma 90.000000
_cell_volume 2291.325555
_symmetry_space_group_name_H-M "C 2/C"
_symmetry_group_IT_number 15
_symmetry_cell_setting 'monoclinic'
loop_
_space_group_symop_operation_xyz
x,y,z
-x,y,1/2-z
-x,-y,-z
x,-y,1/2+z
1/2+x,1/2+y,z
1/2-x,1/2+y,1/2-z
1/2-x,1/2-y,-z
1/2+x,1/2-y,1/2+z
loop_
_atom_site_type_symbol
_atom_site_label
_atom_site_fract_x
_atom_site_fract_y
_atom_site_fract_z
Si Si1 0.500000 0.425585 0.250000
Si Si2 0.567110 0.774317 0.394748
Si Si3 0.165786 0.446463 0.929666
Si Si4 0.507582 0.424621 0.350068
Si Si5 0.259472 0.582051 0.529025
Si Si6 0.248024 0.671131 0.037480
Si Si7 0.995780 0.696473 0.699428
O O1 0.500598 0.470228 0.299932
O O2 0.745476 0.363408 0.226378
O O3 0.800462 0.845343 0.373142
O O4 0.329885 0.827293 0.438578
O O5 0.629811 0.699569 0.425723
O O6 0.528320 0.747380 0.345144
O O7 0.422762 0.498038 0.892713
O O8 0.940620 0.511316 0.931231
O O9 0.043117 0.355334 0.924282
O O10 0.177286 0.426707 0.983253
O O11 0.772637 0.372950 0.330425
O O12 0.567295 0.592786 0.500827
O O13 0.250000 0.750000 0.000000
O O14 0.000000 0.741089 0.750000
#
# Coordination Sequence:
#
# PCOD9279132 Si02
#       7
#     4   8   8   8   8   8   8
#     4   8  16  34  58  94 112 140 202 252 308 362
#     4  10  21  34  58  88 121 158 205 244 304 356
#     4  10  22  38  57  90 124 162 207 248 299 353
#     4   9  19  35  59  90 117 152 199 260 304 353
#     4  10  22  38  56  84 125 164 208 243 290 356
#     4  12  24  37  58  87 130 168 200 247 293 359
#     4   9  18  34  59  88 122 144 196 262 307 353
#
# _framework density 22.694286999999999
#
# number of rings (size 3 to 8) (size 9 to 14) (size 15 to 20)
#    0.000    2.154    1.538    0.923    2.154    3.692 
#    0.000    0.000    0.000    0.000   36.000    0.000 
#   13.846    0.000    0.000    0.000    0.000    0.000 
#
# Total GULP energy -144799.261974 kJ/mol
# GULP energy per Si atom -5569.202384 kJ/mol
# Density = 2.264263 g / cm^3
# Si number density = 22.694287 Si / 1000 Ang^3
#
#
#
# Elastic Constant Matrix: (Units=GPa)
#
#
# Indices 1 2 3 4 5 6 
#
# 1 80.0241 11.7853 28.9271 0.0000 -15.6302 0.0000
# 2 11.7853 42.9806 22.8308 0.0000 2.6202 0.0000
# 3 28.9271 22.8308 111.9196 0.0001 18.1124 -0.0001
# 4 0.0000 0.0000 0.0001 12.1952 0.0000 0.6952
# 5 -15.6302 2.6202 18.1124 0.0000 62.8324 0.0000
# 6 0.0000 0.0000 -0.0001 0.6952 0.0000 31.8703
#
#
#
# Elastic Compliance Matrix: (Units=1/GPa)
#
#
# Indices 1 2 3 4 5 6 
#
# 1 0.015417 -0.002222 -0.004371 0.000000 0.005188 0.000000
# 2 -0.002222 0.026427 -0.004772 0.000000 -0.000279 0.000000
# 3 -0.004371 -0.004772 0.011729 0.000000 -0.004269 0.000000
# 4 0.000000 0.000000 0.000000 0.082101 0.000000 -0.001791
# 5 0.005188 -0.000279 -0.004269 0.000000 0.018448 0.000000
# 6 0.000000 0.000000 0.000000 -0.001791 0.000000 0.031416
#
#
# Mechanical properties :
#
#
# Convention : Reuss Voigt Hill
#
# Bulk Modulus (GPa) = 32.42080 40.22343 36.32212
# Shear Modulus (GPa) = 22.87821 32.80498 27.84159
#
# Velocity S-wave (km/s) = 3.17851 3.80612 3.50639
# Velocity P-wave (km/s) = 5.27138 6.08916 5.69497
#
# Compressibility (1/GPa) = 0.03084440
#
# Stress axis : x y z
#
# Youngs Moduli (GPa) = 64.86462 37.83992 85.25853
#
# Poissons Ratio (x) = 0.08407 0.37267
# Poissons Ratio (y) = 0.14411 0.40681
# Poissons Ratio (z) = 0.28352 0.18055
#
# Static dielectric constant tensor:
#      x y z
#    x 1.884960 0.000000 -0.005880 
#    y 0.000000 1.933580 0.000000 
#    z -0.005880 0.000000 1.907070 
# 
# From -- ./inp_files/285835.got.cif
#   From: 2010.05.17/outbox.cif.g08.bks.cpg/sg15_143_cif.got.tgz:285835.got - 2010.06.03 18:47:42.
