data_PCOD9279015
_publ_section_title
;
Structure prediction by ZEFSAII (Michael W. Deem and Ramdas Pophale) SiO2 
 PCOD9279015
Probable space group: C 2/C
;
_chemical_formula_sum "Si O2"
_cell_formula_units_Z 44
_cell_length_a 18.233539
_cell_length_b 26.466895
_cell_length_c 17.479743
_cell_angle_alpha 90.000000
_cell_angle_beta 163.680413
_cell_angle_gamma 90.000000
_cell_volume 2370.321770
_symmetry_space_group_name_H-M "C 2/C"
_symmetry_group_IT_number 15
_symmetry_cell_setting 'monoclinic'
loop_
_space_group_symop_operation_xyz
x,y,z
-x,y,1/2-z
-x,-y,-z
x,-y,1/2+z
1/2+x,1/2+y,z
1/2-x,1/2+y,1/2-z
1/2-x,1/2-y,-z
1/2+x,1/2-y,1/2+z
loop_
_atom_site_type_symbol
_atom_site_label
_atom_site_fract_x
_atom_site_fract_y
_atom_site_fract_z
Si Si1 0.500000 0.714526 0.250000
Si Si2 0.482490 0.714651 0.404989
Si Si3 0.245114 0.584633 0.947516
Si Si4 0.385005 0.608092 0.915772
Si Si5 0.745016 0.962580 0.947365
Si Si6 0.606776 0.945260 0.635089
O O1 0.750000 0.750000 0.500000
O O2 0.495909 0.692454 0.331481
O O3 0.531327 0.666429 0.507362
O O4 0.709285 0.756454 0.641033
O O5 0.260801 0.600025 0.875471
O O6 0.233868 0.523735 0.936031
O O7 0.000000 0.605199 0.750000
O O8 0.500000 0.598834 0.250000
O O9 0.149055 0.590269 0.625239
O O10 0.648214 0.574512 0.170147
O O11 0.500000 0.943519 0.750000
O O12 0.719894 0.947519 0.834034
O O13 0.000000 0.947615 0.250000
O O14 0.500000 0.000000 0.500000
#
# Coordination Sequence:
#
# PCOD9279015 Si02
#       6
#     4   8   8   8   8   8
#     4   8  16  32  52  72 102 148 190 242 288 306
#     4  10  21  39  55  79 113 150 201 251 290 338
#     4  10  21  34  51  79 114 155 203 236 274 335
#     4  12  24  37  60  84 116 164 197 247 298 340
#     4  10  21  37  57  78 114 159 192 234 281 341
#     4  12  24  39  58  88 123 153 194 243 293 350
#
# _framework density 18.562881000000001
#
# number of rings (size 3 to 8) (size 9 to 14) (size 15 to 20)
#    0.000    1.455    1.818    3.818    6.364    0.000 
#    6.545    0.000    0.000    0.000    0.000    0.000 
#    0.000   50.909    0.000    0.000    0.000    0.000 
#
# Total GULP energy -122792.570369 kJ/mol
# GULP energy per Si atom -5581.480471 kJ/mol
# Density = 1.852063 g / cm^3
# Si number density = 18.562881 Si / 1000 Ang^3
#
#
#
# Elastic Constant Matrix: (Units=GPa)
#
#
# Indices 1 2 3 4 5 6 
#
# 1 73.1927 19.1263 33.5541 -0.0023 -3.2571 -0.0013
# 2 19.1263 59.6797 27.4511 -0.0107 -9.1030 -0.0066
# 3 33.5541 27.4511 133.9494 -0.0041 -2.9958 0.0079
# 4 -0.0023 -0.0107 -0.0041 18.4270 -0.0015 -10.1485
# 5 -3.2571 -9.1030 -2.9958 -0.0015 39.4361 -0.0016
# 6 -0.0013 -0.0066 0.0079 -10.1485 -0.0016 16.9199
#
#
#
# Elastic Compliance Matrix: (Units=1/GPa)
#
#
# Indices 1 2 3 4 5 6 
#
# 1 0.016128 -0.003616 -0.003294 0.000000 0.000247 0.000001
# 2 -0.003616 0.019959 -0.003093 0.000024 0.004074 0.000024
# 3 -0.003294 -0.003093 0.008918 -0.000005 -0.000309 -0.000009
# 4 0.000000 0.000024 -0.000005 0.081037 0.000010 0.048606
# 5 0.000247 0.004074 -0.000309 0.000010 0.026295 0.000010
# 6 0.000001 0.000024 -0.000009 0.048606 0.000010 0.088255
#
#
# Mechanical properties :
#
#
# Convention : Reuss Voigt Hill
#
# Bulk Modulus (GPa) = 40.00170 47.45386 43.72778
# Shear Modulus (GPa) = 18.59205 27.40263 22.99734
#
# Velocity S-wave (km/s) = 3.16819 3.84631 3.52360
# Velocity P-wave (km/s) = 5.91433 6.73386 6.33736
#
# Compressibility (1/GPa) = 0.02499894
#
# Stress axis : x y z
#
# Youngs Moduli (GPa) = 62.00246 50.10196 112.13814
#
# Poissons Ratio (x) = 0.18118 0.36933
# Poissons Ratio (y) = 0.22422 0.34689
# Poissons Ratio (z) = 0.20421 0.15499
#
# Static dielectric constant tensor:
#      x y z
#    x 1.649830 0.000000 0.006840 
#    y 0.000000 1.679020 -0.000020 
#    z 0.006840 -0.000020 1.647130 
# 
# From -- ./inp_files/11887.got.cif
#   From: 2010.05.17/outbox.cif.g08.bks.cpg/sg15_6_cif.got.tgz:11887.got - 2010.06.03 18:47:42.
