data_PCOD9279573
_publ_section_title
;
Structure prediction by ZEFSAII (Michael W. Deem and Ramdas Pophale) SiO2 
 PCOD9279573
Probable space group: C 2/C
;
_chemical_formula_sum "Si O2"
_cell_formula_units_Z 48
_cell_length_a 14.505318
_cell_length_b 28.798974
_cell_length_c 5.394721
_cell_angle_alpha 90.000000
_cell_angle_beta 73.822675
_cell_angle_gamma 90.000000
_cell_volume 2164.348689
_symmetry_space_group_name_H-M "C 2/C"
_symmetry_group_IT_number 15
_symmetry_cell_setting 'monoclinic'
loop_
_space_group_symop_operation_xyz
x,y,z
-x,y,1/2-z
-x,-y,-z
x,-y,1/2+z
1/2+x,1/2+y,z
1/2-x,1/2+y,1/2-z
1/2-x,1/2-y,-z
1/2+x,1/2-y,1/2+z
loop_
_atom_site_type_symbol
_atom_site_label
_atom_site_fract_x
_atom_site_fract_y
_atom_site_fract_z
Si Si1 0.307502 0.111208 0.690803
Si Si2 0.721881 0.211791 0.819378
Si Si3 0.885943 0.794281 0.830124
Si Si4 0.889984 0.018595 0.293246
Si Si5 0.309923 0.612277 0.209580
Si Si6 0.890638 0.481704 0.264624
O O1 0.333939 0.163840 0.590418
O O2 0.235893 0.098829 0.518970
O O3 0.384527 0.070351 0.661227
O O4 0.262701 0.113003 0.001503
O O5 0.823382 0.196003 0.623445
O O6 0.652553 0.242873 0.701046
O O7 0.750000 0.250000 0.000000
O O8 0.853009 0.835768 0.671446
O O9 0.000000 0.794989 0.750000
O O10 0.885295 0.072393 0.223320
O O11 0.000000 0.003058 0.250000
O O12 0.846240 0.009886 0.596661
O O13 0.847568 0.486911 0.574573
O O14 0.000000 0.494934 0.250000
#
# Coordination Sequence:
#
# PCOD9279573 Si02
#       6
#     8   8   8   8   8   8
#     4  11  23  38  65  88 123 162 202 257 326 371
#     4  10  21  42  62  91 131 163 213 280 321 392
#     4  10  22  40  65  90 125 171 214 265 333 396
#     4  10  21  36  53  78 117 155 193 245 293 346
#     4  11  22  38  59  90 119 160 206 255 306 384
#     4  10  22  41  63  91 127 165 212 267 323 394
#
# _framework density 22.177571
#
# number of rings (size 3 to 8) (size 9 to 14) (size 15 to 20)
#    0.000    1.667    1.667    2.500    0.000    5.333 
#    0.000    1.667    7.333    0.000    0.000    0.000 
#    0.000    0.000    0.000    0.000    0.000    0.000 
#
# Total GULP energy -133685.357407 kJ/mol
# GULP energy per Si atom -5570.223225 kJ/mol
# Density = 2.212709 g / cm^3
# Si number density = 22.177571 Si / 1000 Ang^3
#
#
#
# Elastic Constant Matrix: (Units=GPa)
#
#
# Indices 1 2 3 4 5 6 
#
# 1 57.8797 15.1983 33.0940 0.0000 3.7409 0.0000
# 2 15.1983 138.8857 38.0477 0.0000 18.2893 0.0000
# 3 33.0940 38.0477 121.5258 0.0000 29.4829 0.0000
# 4 0.0000 0.0000 0.0000 43.8691 0.0000 12.7912
# 5 3.7409 18.2893 29.4829 0.0000 27.0112 0.0000
# 6 0.0000 0.0000 0.0000 12.7912 0.0000 27.0745
#
#
#
# Elastic Compliance Matrix: (Units=1/GPa)
#
#
# Indices 1 2 3 4 5 6 
#
# 1 0.021023 -0.001163 -0.006591 0.000000 0.005070 0.000000
# 2 -0.001163 0.008205 -0.001283 0.000000 -0.003994 0.000000
# 3 -0.006591 -0.001283 0.013592 0.000000 -0.013055 0.000000
# 4 0.000000 0.000000 0.000000 0.026437 0.000000 -0.012490
# 5 0.005070 -0.003994 -0.013055 0.000000 0.053273 0.000000
# 6 0.000000 0.000000 0.000000 -0.012490 0.000000 0.042836
#
#
# Mechanical properties :
#
#
# Convention : Reuss Voigt Hill
#
# Bulk Modulus (GPa) = 40.40917 54.55236 47.48077
# Shear Modulus (GPa) = 26.08390 35.05437 30.56914
#
# Velocity S-wave (km/s) = 3.43321 3.98002 3.71668
# Velocity P-wave (km/s) = 5.82891 6.76551 6.31460
#
# Compressibility (1/GPa) = 0.02474686
#
# Stress axis : x y z
#
# Youngs Moduli (GPa) = 47.56603 121.87873 73.57016
#
# Poissons Ratio (x) = 0.14169 0.48491
# Poissons Ratio (y) = 0.05530 0.09441
# Poissons Ratio (z) = 0.31351 0.15641
#
# Static dielectric constant tensor:
#      x y z
#    x 1.812870 0.000000 -0.028460 
#    y 0.000000 1.873770 0.000000 
#    z -0.028460 0.000000 1.949160 
# 
# From -- ./inp_files/8261.got.cif
#   From: 2010.05.17/outbox.cif.g08.bks.cpg/sg15_5_cif.got.tgz:8261.got - 2010.06.03 18:47:42.
