data_PCOD9279466
_publ_section_title
;
Structure prediction by ZEFSAII (Michael W. Deem and Ramdas Pophale) SiO2 
 PCOD9279466
Probable space group: C 2/C
;
_chemical_formula_sum "Si O2"
_cell_formula_units_Z 48
_cell_length_a 14.606953
_cell_length_b 15.413383
_cell_length_c 9.819434
_cell_angle_alpha 90.000000
_cell_angle_beta 100.456406
_cell_angle_gamma 90.000000
_cell_volume 2174.058835
_symmetry_space_group_name_H-M "C 2/C"
_symmetry_group_IT_number 15
_symmetry_cell_setting 'monoclinic'
loop_
_space_group_symop_operation_xyz
x,y,z
-x,y,1/2-z
-x,-y,-z
x,-y,1/2+z
1/2+x,1/2+y,z
1/2-x,1/2+y,1/2-z
1/2-x,1/2-y,-z
1/2+x,1/2-y,1/2+z
loop_
_atom_site_type_symbol
_atom_site_label
_atom_site_fract_x
_atom_site_fract_y
_atom_site_fract_z
Si Si1 0.759283 0.722611 0.281149
Si Si2 0.508232 0.399590 0.463642
Si Si3 0.159256 0.111319 0.796576
Si Si4 0.592169 0.752123 0.430011
Si Si5 0.805041 0.533889 0.270771
Si Si6 0.921815 0.549830 0.565542
O O1 0.775344 0.805095 0.191442
O O2 0.659019 0.726340 0.324075
O O3 0.836462 0.737806 0.422127
O O4 0.779281 0.630633 0.218090
O O5 0.500000 0.500000 0.500000
O O6 0.428741 0.383268 0.328518
O O7 0.610948 0.392547 0.429576
O O8 0.482006 0.324066 0.563303
O O9 0.218839 0.030883 0.758008
O O10 0.552662 0.849480 0.403740
O O11 0.836578 0.545681 0.435917
O O12 0.885062 0.494416 0.194404
O O13 0.000000 0.500000 0.500000
#
# Coordination Sequence:
#
# PCOD9279466 Si02
#       6
#     8   8   8   8   8   8
#     4   9  18  35  60  86 113 159 208 237 299 366
#     4  10  21  35  61  87 121 156 205 251 300 361
#     4  10  21  37  58  90 120 156 204 253 296 362
#     4   9  18  36  61  85 116 162 202 247 294 373
#     4  11  23  40  67  87 122 161 204 251 303 368
#     4  11  24  41  64  91 121 159 206 255 306 361
#
# _framework density 22.078520000000001
#
# number of rings (size 3 to 8) (size 9 to 14) (size 15 to 20)
#    0.000    2.000    1.667    1.500    7.000    0.000 
#    0.000    2.500    3.667    0.000    0.000    0.000 
#    0.000    0.000    0.000    0.000    0.000    0.000 
#
# Total GULP energy -133984.944525 kJ/mol
# GULP energy per Si atom -5582.706022 kJ/mol
# Density = 2.202827 g / cm^3
# Si number density = 22.078520 Si / 1000 Ang^3
#
#
#
# Elastic Constant Matrix: (Units=GPa)
#
#
# Indices 1 2 3 4 5 6 
#
# 1 74.1754 46.5472 36.3633 0.0000 -38.8152 0.0000
# 2 46.5472 194.9519 51.2733 0.0000 -54.4613 0.0000
# 3 36.3633 51.2733 69.5710 0.0000 -28.5081 0.0000
# 4 0.0000 0.0000 0.0000 30.2543 0.0000 -8.6282
# 5 -38.8152 -54.4613 -28.5081 0.0000 55.2458 0.0000
# 6 0.0000 0.0000 0.0000 -8.6282 0.0000 36.3959
#
#
#
# Elastic Compliance Matrix: (Units=1/GPa)
#
#
# Indices 1 2 3 4 5 6 
#
# 1 0.023795 -0.000251 -0.006979 0.000000 0.012870 0.000000
# 2 -0.000251 0.007608 -0.003139 0.000000 0.005705 0.000000
# 3 -0.006979 -0.003139 0.021632 0.000000 0.003165 0.000000
# 4 0.000000 0.000000 0.000000 0.035450 0.000000 0.008404
# 5 0.012870 0.005705 0.003165 0.000000 0.034400 0.000000
# 6 0.000000 0.000000 0.000000 0.008404 0.000000 0.029468
#
#
# Mechanical properties :
#
#
# Convention : Reuss Voigt Hill
#
# Bulk Modulus (GPa) = 30.96107 67.45178 49.20642
# Shear Modulus (GPa) = 27.19540 38.01349 32.60445
#
# Velocity S-wave (km/s) = 3.51345 4.15389 3.84702
# Velocity P-wave (km/s) = 5.52383 7.32281 6.48600
#
# Compressibility (1/GPa) = 0.03229863
#
# Stress axis : x y z
#
# Youngs Moduli (GPa) = 42.02643 131.43255 46.22862
#
# Poissons Ratio (x) = 0.03293 0.32261
# Poissons Ratio (y) = 0.01053 0.14510
# Poissons Ratio (z) = 0.29329 0.41254
#
# Static dielectric constant tensor:
#      x y z
#    x 1.812570 0.000000 0.058780 
#    y 0.000000 1.776730 0.000000 
#    z 0.058780 0.000000 1.863740 
# 
# From -- ./inp_files/96287.got.cif
#   From: 2010.05.17/outbox.cif.g08.bks.cpg/sg15_49_cif.got.tgz:96287.got - 2010.06.03 18:47:42.
