data_PCOD9279495
_publ_section_title
;
Structure prediction by ZEFSAII (Michael W. Deem and Ramdas Pophale) SiO2 
 PCOD9279495
Probable space group: C 2/C
;
_chemical_formula_sum "Si O2"
_cell_formula_units_Z 64
_cell_length_a 32.147754
_cell_length_b 14.738911
_cell_length_c 20.946892
_cell_angle_alpha 90.000000
_cell_angle_beta 16.702012
_cell_angle_gamma 90.000000
_cell_volume 2852.420552
_symmetry_space_group_name_H-M "C 2/C"
_symmetry_group_IT_number 15
_symmetry_cell_setting 'monoclinic'
loop_
_space_group_symop_operation_xyz
x,y,z
-x,y,1/2-z
-x,-y,-z
x,-y,1/2+z
1/2+x,1/2+y,z
1/2-x,1/2+y,1/2-z
1/2-x,1/2-y,-z
1/2+x,1/2-y,1/2+z
loop_
_atom_site_type_symbol
_atom_site_label
_atom_site_fract_x
_atom_site_fract_y
_atom_site_fract_z
Si Si1 0.242159 0.349196 0.821631
Si Si2 0.663563 0.158791 0.005771
Si Si3 0.647572 0.843904 0.383030
Si Si4 0.660686 0.652179 0.187420
Si Si5 0.123811 0.533223 0.393092
Si Si6 0.811794 0.478773 0.914029
Si Si7 0.962595 0.246889 0.240552
Si Si8 0.660300 0.162752 0.220326
O O1 0.278280 0.248789 0.744664
O O2 0.347343 0.371476 0.725990
O O3 0.239262 0.424480 0.772044
O O4 0.069961 0.333074 0.087243
O O5 0.500000 0.194996 0.250000
O O6 0.672188 0.075352 0.042613
O O7 0.683090 0.130436 0.903520
O O8 0.767963 0.242132 0.868968
O O9 0.478492 0.821967 0.620624
O O10 0.677205 0.932351 0.296316
O O11 0.533112 0.698301 0.334576
O O12 0.713504 0.565263 0.071033
O O13 0.796806 0.721517 0.990277
O O14 0.112376 0.605827 0.353198
O O15 0.966886 0.512951 0.656890
O O16 0.747015 0.407357 0.958447
O O17 0.000000 0.191729 0.250000
#
# Coordination Sequence:
#
# PCOD9279495 Si02
#       8
#     8   8   8   8   8   8   8   8
#     4  11  22  38  62  93 129 168 219 269 326 389
#     4  12  23  42  68  96 127 171 219 275 329 391
#     4  11  24  40  66  93 130 174 216 271 333 390
#     4  10  21  35  62  91 124 165 214 274 317 388
#     4  11  22  40  65  95 128 170 222 272 317 398
#     4  11  22  39  68  96 122 168 229 270 316 398
#     4   9  20  35  57  89 128 166 207 262 335 381
#     4  11  25  41  64  96 134 169 215 272 334 393
#
# _framework density 22.437083999999999
#
# number of rings (size 3 to 8) (size 9 to 14) (size 15 to 20)
#    0.000    1.250    5.000    2.625    1.750    4.000 
#    0.000    3.125    0.000    3.000    0.000    0.000 
#    0.000    0.000    0.000    0.000    0.000    0.000 
#
# Total GULP energy -178499.250222 kJ/mol
# GULP energy per Si atom -5578.101569 kJ/mol
# Density = 2.238602 g / cm^3
# Si number density = 22.437084 Si / 1000 Ang^3
#
#
#
# Elastic Constant Matrix: (Units=GPa)
#
#
# Indices 1 2 3 4 5 6 
#
# 1 122.5951 19.0120 3.5908 0.0004 -18.4321 -0.0001
# 2 19.0120 80.9733 20.8795 0.0009 -7.1444 -0.0004
# 3 3.5908 20.8795 16.5592 0.0012 -1.5470 -0.0005
# 4 0.0004 0.0009 0.0012 22.2400 -0.0004 4.3742
# 5 -18.4321 -7.1444 -1.5470 -0.0004 28.2134 0.0001
# 6 -0.0001 -0.0004 -0.0005 4.3742 0.0001 37.8972
#
#
#
# Elastic Compliance Matrix: (Units=1/GPa)
#
#
# Indices 1 2 3 4 5 6 
#
# 1 0.009273 -0.001923 0.000940 0.000000 0.005623 0.000000
# 2 -0.001923 0.019026 -0.023360 0.000001 0.002280 0.000000
# 3 0.000940 -0.023360 0.089604 -0.000004 -0.000388 0.000002
# 4 0.000000 0.000001 -0.000004 0.046009 0.000000 -0.005310
# 5 0.005623 0.002280 -0.000388 0.000000 0.039674 0.000000
# 6 0.000000 0.000000 0.000002 -0.005310 0.000000 0.027000
#
#
# Mechanical properties :
#
#
# Convention : Reuss Voigt Hill
#
# Bulk Modulus (GPa) = 14.44755 34.12134 24.28445
# Shear Modulus (GPa) = 16.53743 29.44647 22.99195
#
# Velocity S-wave (km/s) = 2.71783 3.62664 3.20461
# Velocity P-wave (km/s) = 4.03756 5.72514 4.95374
#
# Compressibility (1/GPa) = 0.06921587
#
# Stress axis : x y z
#
# Youngs Moduli (GPa) = 107.83925 52.55941 11.16024
#
# Poissons Ratio (x) = 0.10110 -0.01049
# Poissons Ratio (y) = 0.20743 0.26070
# Poissons Ratio (z) = -0.10135 1.22778
#
# Static dielectric constant tensor:
#      x y z
#    x 1.989460 0.000000 0.086350 
#    y 0.000000 1.844480 0.000000 
#    z 0.086350 0.000000 1.912570 
# 
# From -- ./inp_files/259443.got.cif
#   From: 2010.05.17/outbox.cif.g08.bks.cpg/sg15_130_cif.got.tgz:259443.got - 2010.06.03 18:47:42.
