data_PCOD9279508
_publ_section_title
;
Structure prediction by ZEFSAII (Michael W. Deem and Ramdas Pophale) SiO2 
 PCOD9279508
Probable space group: C 2/C
;
_chemical_formula_sum "Si O2"
_cell_formula_units_Z 56
_cell_length_a 12.842760
_cell_length_b 9.210651
_cell_length_c 22.774696
_cell_angle_alpha 90.000000
_cell_angle_beta 121.130598
_cell_angle_gamma 90.000000
_cell_volume 2306.059662
_symmetry_space_group_name_H-M "C 2/C"
_symmetry_group_IT_number 15
_symmetry_cell_setting 'monoclinic'
loop_
_space_group_symop_operation_xyz
x,y,z
-x,y,1/2-z
-x,-y,-z
x,-y,1/2+z
1/2+x,1/2+y,z
1/2-x,1/2+y,1/2-z
1/2-x,1/2-y,-z
1/2+x,1/2-y,1/2+z
loop_
_atom_site_type_symbol
_atom_site_label
_atom_site_fract_x
_atom_site_fract_y
_atom_site_fract_z
Si Si1 0.921967 0.814823 0.784638
Si Si2 0.612023 0.992196 0.461350
Si Si3 0.125891 0.870469 0.251568
Si Si4 0.538015 0.319580 0.942784
Si Si5 0.289482 0.711021 0.836261
Si Si6 0.824823 0.522549 0.892119
Si Si7 0.823435 0.962726 0.942972
O O1 0.857547 0.970117 0.773419
O O2 0.000466 0.797539 0.864921
O O3 0.831820 0.687996 0.738480
O O4 0.000000 0.836051 0.750000
O O5 0.621594 0.819567 0.478366
O O6 0.664500 0.060718 0.536250
O O7 0.686995 0.053463 0.428040
O O8 0.465545 0.000023 0.413406
O O9 0.238313 0.867709 0.330425
O O10 0.000000 0.857844 0.250000
O O11 0.119028 0.770080 0.191881
O O12 0.413296 0.338892 0.944214
O O13 0.609265 0.464059 0.981376
O O14 0.270822 0.861115 0.865612
O O15 0.319159 0.585037 0.890471
#
# Coordination Sequence:
#
# PCOD9279508 Si02
#       7
#     8   8   8   8   8   8   8
#     4  10  21  35  63  87 122 167 213 266 331 391
#     4  11  23  43  65  93 137 175 211 278 343 402
#     4  10  22  39  63  88 124 170 212 264 324 394
#     4  11  22  40  65  99 128 168 229 280 328 407
#     4  11  21  42  60  94 126 162 217 275 320 400
#     4  10  24  43  62  93 131 170 214 262 340 406
#     4  11  24  38  69  98 129 169 227 280 332 401
#
# _framework density 24.283847000000002
#
# number of rings (size 3 to 8) (size 9 to 14) (size 15 to 20)
#    0.000    1.429    2.857    2.143    6.000    0.000 
#    5.143    1.429    0.000    0.000    0.000    0.000 
#    0.000    0.000    0.000    0.000    0.000    0.000 
#
# Total GULP energy -156152.745810 kJ/mol
# GULP energy per Si atom -5576.883779 kJ/mol
# Density = 2.422858 g / cm^3
# Si number density = 24.283847 Si / 1000 Ang^3
#
#
#
# Elastic Constant Matrix: (Units=GPa)
#
#
# Indices 1 2 3 4 5 6 
#
# 1 133.6636 -3.7140 36.6308 0.0000 -10.5887 0.0000
# 2 -3.7140 32.5664 9.7496 0.0000 -7.7161 0.0000
# 3 36.6308 9.7496 149.0345 0.0000 1.6254 0.0000
# 4 0.0000 0.0000 0.0000 21.9088 0.0000 11.4641
# 5 -10.5887 -7.7161 1.6254 0.0000 35.4883 0.0000
# 6 0.0000 0.0000 0.0000 11.4641 0.0000 23.1480
#
#
#
# Elastic Compliance Matrix: (Units=1/GPa)
#
#
# Indices 1 2 3 4 5 6 
#
# 1 0.008414 0.002377 -0.002258 0.000000 0.003131 0.000000
# 2 0.002377 0.033780 -0.002883 0.000000 0.008186 0.000000
# 3 -0.002258 -0.002883 0.007471 0.000000 -0.001643 0.000000
# 4 0.000000 0.000000 0.000000 0.061610 0.000000 -0.030513
# 5 0.003131 0.008186 -0.001643 0.000000 0.030968 0.000000
# 6 0.000000 0.000000 0.000000 -0.030513 0.000000 0.058312
#
#
# Mechanical properties :
#
#
# Convention : Reuss Voigt Hill
#
# Bulk Modulus (GPa) = 22.65608 44.51082 33.58345
# Shear Modulus (GPa) = 22.64530 34.28220 28.46375
#
# Velocity S-wave (km/s) = 3.05704 3.76137 3.42735
# Velocity P-wave (km/s) = 4.67018 6.10189 5.43340
#
# Compressibility (1/GPa) = 0.04413826
#
# Stress axis : x y z
#
# Youngs Moduli (GPa) = 118.84522 29.60294 133.84479
#
# Poissons Ratio (x) = -0.07038 0.30219
# Poissons Ratio (y) = -0.28254 0.38594
# Poissons Ratio (z) = 0.26833 0.08536
#
# Static dielectric constant tensor:
#      x y z
#    x 2.107620 0.000000 -0.007190 
#    y 0.000000 2.122790 0.000000 
#    z -0.007190 0.000000 1.954640 
# 
# From -- ./inp_files/237616.got.cif
#   From: 2010.05.17/outbox.cif.g08.bks.cpg/sg15_119_cif.got.tgz:237616.got - 2010.06.03 18:47:42.
