data_PCOD9279570
_publ_section_title
;
Structure prediction by ZEFSAII (Michael W. Deem and Ramdas Pophale) SiO2 
 PCOD9279570
Probable space group: C 2/C
;
_chemical_formula_sum "Si O2"
_cell_formula_units_Z 48
_cell_length_a 4.937445
_cell_length_b 16.286724
_cell_length_c 30.297644
_cell_angle_alpha 90.000000
_cell_angle_beta 101.047529
_cell_angle_gamma 90.000000
_cell_volume 2391.229496
_symmetry_space_group_name_H-M "C 2/C"
_symmetry_group_IT_number 15
_symmetry_cell_setting 'monoclinic'
loop_
_space_group_symop_operation_xyz
x,y,z
-x,y,1/2-z
-x,-y,-z
x,-y,1/2+z
1/2+x,1/2+y,z
1/2-x,1/2+y,1/2-z
1/2-x,1/2-y,-z
1/2+x,1/2-y,1/2+z
loop_
_atom_site_type_symbol
_atom_site_label
_atom_site_fract_x
_atom_site_fract_y
_atom_site_fract_z
Si Si1 0.227562 0.301071 0.219079
Si Si2 0.971494 0.424935 0.532900
Si Si3 0.769683 0.490417 0.280636
Si Si4 0.017594 0.410247 0.868268
Si Si5 0.964549 0.191337 0.032518
Si Si6 0.991560 0.199036 0.131145
O O1 0.500000 0.262384 0.250000
O O2 0.294546 0.395664 0.209682
O O3 0.104958 0.257996 0.172358
O O4 0.000000 0.300445 0.250000
O O5 0.734282 0.352909 0.518901
O O6 0.000000 0.500000 0.500000
O O7 0.937550 0.451895 0.582712
O O8 0.269485 0.383893 0.539342
O O9 0.500000 0.529333 0.250000
O O10 0.873062 0.535480 0.327153
O O11 0.000000 0.491089 0.250000
O O12 0.821703 0.330292 0.870261
O O13 0.313918 0.380942 0.860805
O O14 0.035036 0.231419 0.082303
O O15 0.750000 0.250000 0.000000
#
# Coordination Sequence:
#
# PCOD9279570 Si02
#       6
#     8   8   8   8   8   8
#     4  10  21  36  53  77 108 140 177 220 267 322
#     4  10  21  38  58  83 113 145 185 231 278 332
#     4  10  21  36  53  77 108 140 177 220 267 322
#     4  10  21  36  55  80 108 139 180 225 268 322
#     4  10  21  38  58  83 113 145 185 231 278 332
#     4  10  21  36  55  80 108 139 180 225 268 322
#
# _framework density 20.073353999999998
#
# number of rings (size 3 to 8) (size 9 to 14) (size 15 to 20)
#    0.000    2.000    0.000    3.000    0.000    5.333 
#    0.000    5.000    0.000    0.000    0.000    0.000 
#    0.000    0.000    0.000    0.000    0.000    0.000 
#
# Total GULP energy -133771.728676 kJ/mol
# GULP energy per Si atom -5573.822028 kJ/mol
# Density = 2.002767 g / cm^3
# Si number density = 20.073354 Si / 1000 Ang^3
#
#
#
# Elastic Constant Matrix: (Units=GPa)
#
#
# Indices 1 2 3 4 5 6 
#
# 1 86.3107 -2.0016 5.9443 0.0000 14.9878 0.0000
# 2 -2.0016 33.7077 57.7304 0.0000 2.3721 0.0000
# 3 5.9443 57.7304 157.9656 0.0000 21.3912 0.0000
# 4 0.0000 0.0000 0.0000 13.4312 0.0000 30.0936
# 5 14.9878 2.3721 21.3912 0.0000 27.1600 0.0000
# 6 0.0000 0.0000 0.0000 30.0936 0.0000 -4.5545
#
#
#
# Elastic Compliance Matrix: (Units=1/GPa)
#
#
# Indices 1 2 3 4 5 6 
#
# 1 0.012868 0.001120 0.000091 0.000000 -0.007271 0.000000
# 2 0.001120 0.087914 -0.034755 0.000000 0.019076 0.000000
# 3 0.000091 -0.034755 0.020848 0.000000 -0.013435 0.000000
# 4 0.000000 0.000000 0.000000 0.004711 0.000000 0.031127
# 5 -0.007271 0.019076 -0.013435 0.000000 0.049746 0.000000
# 6 0.000000 0.000000 0.000000 0.031127 0.000000 -0.013892
#
#
# Mechanical properties :
#
#
# Convention : Reuss Voigt Hill
#
# Bulk Modulus (GPa) = 18.33423 44.59223 31.46323
# Shear Modulus (GPa) = 20.20498 21.62807 20.91652
#
# Velocity S-wave (km/s) = 3.17607 3.28602 3.23151
# Velocity P-wave (km/s) = 4.75430 6.05476 5.44350
#
# Compressibility (1/GPa) = 0.05454280
#
# Stress axis : x y z
#
# Youngs Moduli (GPa) = 77.71034 11.37469 47.96656
#
# Poissons Ratio (x) = -0.01274 -0.00437
# Poissons Ratio (y) = -0.08702 1.66707
# Poissons Ratio (z) = -0.00708 0.39532
#
# Static dielectric constant tensor:
#      x y z
#    x 1.698220 0.000000 0.024140 
#    y 0.000000 1.715000 0.000000 
#    z 0.024140 0.000000 1.745820 
# 
# From -- ./inp_files/260766.got.cif
#   From: 2010.05.17/outbox.cif.g08.bks.cpg/sg15_131_cif.got.tgz:260766.got - 2010.06.03 18:47:42.
