data_PCOD9279715
_publ_section_title
;
Structure prediction by ZEFSAII (Michael W. Deem and Ramdas Pophale) SiO2 
 PCOD9279715
Probable space group: C 2/C
;
_chemical_formula_sum "Si O2"
_cell_formula_units_Z 40
_cell_length_a 26.382931
_cell_length_b 5.017147
_cell_length_c 16.559627
_cell_angle_alpha 90.000000
_cell_angle_beta 56.215617
_cell_angle_gamma 90.000000
_cell_volume 1821.807755
_symmetry_space_group_name_H-M "C 2/C"
_symmetry_group_IT_number 15
_symmetry_cell_setting 'monoclinic'
loop_
_space_group_symop_operation_xyz
x,y,z
-x,y,1/2-z
-x,-y,-z
x,-y,1/2+z
1/2+x,1/2+y,z
1/2-x,1/2+y,1/2-z
1/2-x,1/2-y,-z
1/2+x,1/2-y,1/2+z
loop_
_atom_site_type_symbol
_atom_site_label
_atom_site_fract_x
_atom_site_fract_y
_atom_site_fract_z
Si Si1 0.359967 0.927168 0.799912
Si Si2 0.712119 0.574486 0.195588
Si Si3 0.930639 0.529645 0.587013
Si Si4 0.856304 0.967960 0.092369
Si Si5 0.191527 0.674110 0.996736
O O1 0.336740 0.629288 0.801675
O O2 0.419002 0.982263 0.693065
O O3 0.310526 0.133504 0.807618
O O4 0.356803 0.956480 0.899141
O O5 0.703015 0.503422 0.297309
O O6 0.777447 0.509706 0.099339
O O7 0.903913 0.814824 0.585862
O O8 0.000000 0.500000 0.500000
O O9 0.889159 0.311268 0.577613
O O10 0.837758 0.071988 0.020978
O O11 0.250000 0.750000 0.000000
#
# Coordination Sequence:
#
# PCOD9279715 Si02
#       5
#     8   8   8   8   8
#     4   9  19  35  56  83 113 151 194 233 289 351
#     4   9  19  34  53  81 117 153 187 229 283 352
#     4  10  21  41  63  82 112 155 204 255 291 330
#     4  10  22  36  59  90 113 151 204 236 287 364
#     4  10  21  36  57  86 124 154 180 233 295 353
#
# _framework density 21.956216000000001
#
# number of rings (size 3 to 8) (size 9 to 14) (size 15 to 20)
#    0.000    2.400    0.000    1.200    0.000   14.400 
#    0.000    1.000    0.000    2.400    0.000    0.000 
#    0.000    0.000    0.000    0.000    0.000    0.000 
#
# Total GULP energy -111774.218784 kJ/mol
# GULP energy per Si atom -5588.710939 kJ/mol
# Density = 2.190624 g / cm^3
# Si number density = 21.956216 Si / 1000 Ang^3
#
#
#
# Elastic Constant Matrix: (Units=GPa)
#
#
# Indices 1 2 3 4 5 6 
#
# 1 56.4656 14.9710 58.5116 -0.0001 -10.3362 0.0052
# 2 14.9710 52.5744 16.1721 -0.0017 -10.9128 0.0219
# 3 58.5116 16.1721 182.0813 -0.0015 -21.7497 0.0002
# 4 -0.0001 -0.0017 -0.0015 32.0422 -0.0019 1.2377
# 5 -10.3362 -10.9128 -21.7497 -0.0019 35.9964 -0.0008
# 6 0.0052 0.0219 0.0002 1.2377 -0.0008 16.1484
#
#
#
# Elastic Compliance Matrix: (Units=1/GPa)
#
#
# Indices 1 2 3 4 5 6 
#
# 1 0.028002 -0.005100 -0.008374 0.000000 0.001435 -0.000002
# 2 -0.005100 0.021453 0.000362 0.000003 0.005258 -0.000027
# 3 -0.008374 0.000362 0.008490 0.000000 0.002835 0.000002
# 4 0.000000 0.000003 0.000000 0.031301 0.000003 -0.002399
# 5 0.001435 0.005258 0.002835 0.000003 0.031499 -0.000006
# 6 -0.000002 -0.000027 0.000002 -0.002399 -0.000006 0.062110
#
#
# Mechanical properties :
#
#
# Convention : Reuss Voigt Hill
#
# Bulk Modulus (GPa) = 31.52637 52.27007 41.89822
# Shear Modulus (GPa) = 22.76306 30.26851 26.51578
#
# Velocity S-wave (km/s) = 3.22335 3.71696 3.47892
# Velocity P-wave (km/s) = 5.31444 6.50225 5.93812
#
# Compressibility (1/GPa) = 0.03171948
#
# Stress axis : x y z
#
# Youngs Moduli (GPa) = 35.71129 46.61324 117.79189
#
# Poissons Ratio (x) = 0.23774 0.98641
# Poissons Ratio (y) = 0.18213 -0.04259
# Poissons Ratio (z) = 0.29905 -0.01685
#
# Static dielectric constant tensor:
#      x y z
#    x 1.750530 -0.000010 0.033580 
#    y -0.000010 1.848400 0.000000 
#    z 0.033580 0.000000 1.901770 
# 
# From -- ./inp_files/175320.got.cif
#   From: 2010.05.17/outbox.cif.g08.bks.cpg/sg15_88_cif.got.tgz:175320.got - 2010.06.03 18:47:42.
