data_PCOD9279137
_publ_section_title
;
Structure prediction by ZEFSAII (Michael W. Deem and Ramdas Pophale) SiO2 
 PCOD9279137
Probable space group: C 2/C
;
_chemical_formula_sum "Si O2"
_cell_formula_units_Z 48
_cell_length_a 18.800008
_cell_length_b 14.011825
_cell_length_c 8.979172
_cell_angle_alpha 90.000000
_cell_angle_beta 103.198563
_cell_angle_gamma 90.000000
_cell_volume 2302.834559
_symmetry_space_group_name_H-M "C 2/C"
_symmetry_group_IT_number 15
_symmetry_cell_setting 'monoclinic'
loop_
_space_group_symop_operation_xyz
x,y,z
-x,y,1/2-z
-x,-y,-z
x,-y,1/2+z
1/2+x,1/2+y,z
1/2-x,1/2+y,1/2-z
1/2-x,1/2-y,-z
1/2+x,1/2-y,1/2+z
loop_
_atom_site_type_symbol
_atom_site_label
_atom_site_fract_x
_atom_site_fract_y
_atom_site_fract_z
Si Si1 0.775524 0.619277 0.185896
Si Si2 0.294483 0.542790 0.639106
Si Si3 0.438397 0.093326 0.343698
Si Si4 0.045425 0.620631 0.621901
Si Si5 0.820578 0.273392 0.185367
Si Si6 0.321576 0.623474 0.946692
O O1 0.751696 0.527469 0.274515
O O2 0.861949 0.630551 0.247320
O O3 0.730276 0.705304 0.238066
O O4 0.752689 0.602227 0.003214
O O5 0.338541 0.606120 0.780899
O O6 0.338413 0.470248 0.552581
O O7 0.500000 0.082097 0.250000
O O8 0.483242 0.156583 0.480935
O O9 0.427154 0.986553 0.406806
O O10 0.114638 0.685424 0.686106
O O11 0.000000 0.612286 0.750000
O O12 0.766687 0.355645 0.098010
O O13 0.848586 0.213023 0.056527
#
# Coordination Sequence:
#
# PCOD9279137 Si02
#       6
#     8   8   8   8   8   8
#     4  10  21  34  59  83 123 154 202 248 285 354
#     4   9  18  34  55  83 110 153 195 238 296 341
#     4  10  23  37  55  84 119 162 196 229 288 366
#     4  10  22  37  59  80 122 161 191 235 292 361
#     4  10  21  36  52  87 119 153 200 243 299 342
#     4   9  19  32  55  77 115 144 195 245 283 346
#
# _framework density 20.843876999999999
#
# number of rings (size 3 to 8) (size 9 to 14) (size 15 to 20)
#    0.000    2.333    0.000    2.000   16.333    0.667 
#    0.000    0.000    0.000    0.000    0.000   18.667 
#    0.000    0.000    0.000    0.000    0.000    0.000 
#
# Total GULP energy -133775.133767 kJ/mol
# GULP energy per Si atom -5573.963907 kJ/mol
# Density = 2.079644 g / cm^3
# Si number density = 20.843877 Si / 1000 Ang^3
#
#
#
# Elastic Constant Matrix: (Units=GPa)
#
#
# Indices 1 2 3 4 5 6 
#
# 1 73.1240 31.2306 26.5670 0.0000 14.3568 0.0000
# 2 31.2306 68.9259 41.4716 0.0000 11.0428 0.0000
# 3 26.5670 41.4716 151.1917 0.0000 1.1776 0.0000
# 4 0.0000 0.0000 0.0000 25.5892 0.0000 -7.8794
# 5 14.3568 11.0428 1.1776 0.0000 26.0468 0.0000
# 6 0.0000 0.0000 0.0000 -7.8794 0.0000 31.9865
#
#
#
# Elastic Compliance Matrix: (Units=1/GPa)
#
#
# Indices 1 2 3 4 5 6 
#
# 1 0.018319 -0.006246 -0.001448 0.000000 -0.007384 0.000000
# 2 -0.006246 0.020949 -0.004608 0.000000 -0.005230 0.000000
# 3 -0.001448 -0.004608 0.008114 0.000000 0.002385 0.000000
# 4 0.000000 0.000000 0.000000 0.042286 0.000000 0.010417
# 5 -0.007384 -0.005230 0.002385 0.000000 0.044572 0.000000
# 6 0.000000 0.000000 0.000000 0.010417 0.000000 0.033829
#
#
# Mechanical properties :
#
#
# Convention : Reuss Voigt Hill
#
# Bulk Modulus (GPa) = 43.90321 54.64224 49.27272
# Shear Modulus (GPa) = 24.96678 29.65601 27.31140
#
# Velocity S-wave (km/s) = 3.46468 3.77605 3.62371
# Velocity P-wave (km/s) = 6.09212 6.72929 6.41862
#
# Compressibility (1/GPa) = 0.02277738
#
# Stress axis : x y z
#
# Youngs Moduli (GPa) = 54.58863 47.73505 123.24422
#
# Poissons Ratio (x) = 0.29816 0.17848
# Poissons Ratio (y) = 0.34096 0.56791
# Poissons Ratio (z) = 0.07905 0.21996
#
# Static dielectric constant tensor:
#      x y z
#    x 1.713680 0.000000 -0.039520 
#    y 0.000000 1.847030 0.000000 
#    z -0.039520 0.000000 1.739710 
# 
# From -- ./inp_files/55432.got.cif
#   From: 2010.05.17/outbox.cif.g08.bks.cpg/sg15_28_cif.got.tgz:55432.got - 2010.06.03 18:47:42.
