data_PCOD9279175
_publ_section_title
;
Structure prediction by ZEFSAII (Michael W. Deem and Ramdas Pophale) SiO2 
 PCOD9279175
Probable space group: C 2/C
;
_chemical_formula_sum "Si O2"
_cell_formula_units_Z 56
_cell_length_a 17.981271
_cell_length_b 8.964365
_cell_length_c 17.482233
_cell_angle_alpha 90.000000
_cell_angle_beta 114.670905
_cell_angle_gamma 90.000000
_cell_volume 2560.749108
_symmetry_space_group_name_H-M "C 2/C"
_symmetry_group_IT_number 15
_symmetry_cell_setting 'monoclinic'
loop_
_space_group_symop_operation_xyz
x,y,z
-x,y,1/2-z
-x,-y,-z
x,-y,1/2+z
1/2+x,1/2+y,z
1/2-x,1/2+y,1/2-z
1/2-x,1/2-y,-z
1/2+x,1/2-y,1/2+z
loop_
_atom_site_type_symbol
_atom_site_label
_atom_site_fract_x
_atom_site_fract_y
_atom_site_fract_z
Si Si1 0.818687 0.531584 0.105224
Si Si2 0.548159 0.067643 0.447433
Si Si3 0.910971 0.361478 0.785159
Si Si4 0.728640 0.030714 0.681944
Si Si5 0.742996 0.760232 0.587483
Si Si6 0.375327 0.400107 0.359469
Si Si7 0.352143 0.312936 0.935495
O O1 0.865419 0.502609 0.045616
O O2 0.877165 0.631168 0.184882
O O3 0.805053 0.371903 0.139626
O O4 0.728837 0.609194 0.061013
O O5 0.488055 0.047173 0.349319
O O6 0.580193 0.233230 0.483225
O O7 0.500000 0.000000 0.500000
O O8 0.835645 0.429112 0.800379
O O9 0.930857 0.198174 0.827635
O O10 0.798671 0.072944 0.770659
O O11 0.685782 0.178150 0.630898
O O12 0.762298 0.920452 0.630819
O O13 0.750000 0.750000 0.500000
O O14 0.655771 0.702447 0.583042
O O15 0.395408 0.559856 0.403298
#
# Coordination Sequence:
#
# PCOD9279175 Si02
#       7
#     8   8   8   8   8   8   8
#     4  11  23  43  66  92 127 177 224 261 325 403
#     4  12  26  39  63  95 135 166 210 274 340 385
#     4  11  22  41  63  92 129 172 213 265 327 395
#     4  11  18  38  68  96 126 168 217 266 321 392
#     4  10  21  34  62 101 128 155 219 283 315 371
#     4  10  21  38  65  94 125 172 219 267 319 395
#     4  11  21  40  68  95 126 166 220 268 325 391
#
# _framework density 21.868600000000001
#
# number of rings (size 3 to 8) (size 9 to 14) (size 15 to 20)
#    0.000    1.143    5.714    2.571    2.000    1.714 
#    0.000    0.000    3.143    0.000    0.000    0.000 
#    0.000    0.000    0.000    0.000    0.000    0.000 
#
# Total GULP energy -156019.673373 kJ/mol
# GULP energy per Si atom -5572.131192 kJ/mol
# Density = 2.181883 g / cm^3
# Si number density = 21.868600 Si / 1000 Ang^3
#
#
#
# Elastic Constant Matrix: (Units=GPa)
#
#
# Indices 1 2 3 4 5 6 
#
# 1 76.3301 10.3149 25.0682 0.0000 -12.8286 0.0000
# 2 10.3149 88.6927 5.7002 0.0000 -13.9821 0.0000
# 3 25.0682 5.7002 78.8479 0.0000 4.2751 0.0000
# 4 0.0000 0.0000 0.0000 42.4284 0.0000 -3.8067
# 5 -12.8286 -13.9821 4.2751 0.0000 40.6106 0.0000
# 6 0.0000 0.0000 0.0000 -3.8067 0.0000 13.9382
#
#
#
# Elastic Compliance Matrix: (Units=1/GPa)
#
#
# Indices 1 2 3 4 5 6 
#
# 1 0.015815 -0.000662 -0.005269 0.000000 0.005323 0.000000
# 2 -0.000662 0.012044 -0.000879 0.000000 0.004030 0.000000
# 3 -0.005269 -0.000879 0.014611 0.000000 -0.003505 0.000000
# 4 0.000000 0.000000 0.000000 0.024161 0.000000 0.006599
# 5 0.005323 0.004030 -0.003505 0.000000 0.028062 0.000000
# 6 0.000000 0.000000 0.000000 0.006599 0.000000 0.073548
#
#
# Mechanical properties :
#
#
# Convention : Reuss Voigt Hill
#
# Bulk Modulus (GPa) = 34.66005 36.22636 35.44321
# Shear Modulus (GPa) = 26.11272 32.91459 29.51366
#
# Velocity S-wave (km/s) = 3.45929 3.88378 3.67766
# Velocity P-wave (km/s) = 5.64262 6.05913 5.85458
#
# Compressibility (1/GPa) = 0.02885166
#
# Stress axis : x y z
#
# Youngs Moduli (GPa) = 63.22933 83.03136 68.43964
#
# Poissons Ratio (x) = 0.05493 0.36061
# Poissons Ratio (y) = 0.04183 0.06015
# Poissons Ratio (z) = 0.33316 0.07297
#
# Static dielectric constant tensor:
#      x y z
#    x 1.868170 0.000000 -0.037450 
#    y 0.000000 1.899730 0.000000 
#    z -0.037450 0.000000 1.839310 
# 
# From -- ./inp_files/209652.got.cif
#   From: 2010.05.17/outbox.cif.g08.bks.cpg/sg15_105_cif.got.tgz:209652.got - 2010.06.03 18:47:42.
