data_PCOD9279846
_publ_section_title
;
Structure prediction by ZEFSAII (Michael W. Deem and Ramdas Pophale) SiO2 
 PCOD9279846
Probable space group: C 2/C
;
_chemical_formula_sum "Si O2"
_cell_formula_units_Z 56
_cell_length_a 13.108741
_cell_length_b 8.824199
_cell_length_c 20.468586
_cell_angle_alpha 90.000000
_cell_angle_beta 76.741560
_cell_angle_gamma 90.000000
_cell_volume 2304.576544
_symmetry_space_group_name_H-M "C 2/C"
_symmetry_group_IT_number 15
_symmetry_cell_setting 'monoclinic'
loop_
_space_group_symop_operation_xyz
x,y,z
-x,y,1/2-z
-x,-y,-z
x,-y,1/2+z
1/2+x,1/2+y,z
1/2-x,1/2+y,1/2-z
1/2-x,1/2-y,-z
1/2+x,1/2-y,1/2+z
loop_
_atom_site_type_symbol
_atom_site_label
_atom_site_fract_x
_atom_site_fract_y
_atom_site_fract_z
Si Si1 0.162951 0.345128 0.855926
Si Si2 0.975621 0.195113 0.178174
Si Si3 0.712480 0.173357 0.874045
Si Si4 0.827838 0.061375 0.022782
Si Si5 0.879332 0.656476 0.284156
Si Si6 0.665181 0.120470 0.611482
Si Si7 0.507118 0.406566 0.400317
O O1 0.178470 0.502549 0.889983
O O2 0.174018 0.377062 0.777475
O O3 0.251807 0.229667 0.865611
O O4 0.051751 0.261525 0.883360
O O5 0.865551 0.257979 0.169603
O O6 0.000000 0.229771 0.250000
O O7 0.061180 0.279813 0.119456
O O8 0.981182 0.016545 0.163233
O O9 0.698380 0.279179 0.939209
O O10 0.826156 0.198992 0.825733
O O11 0.725441 0.954285 0.041227
O O12 0.912092 0.981135 0.059046
O O13 0.891269 0.083336 0.947142
O O14 0.861089 0.517614 0.336083
O O15 0.000000 0.675212 0.250000
#
# Coordination Sequence:
#
# PCOD9279846 Si02
#       7
#     8   8   8   8   8   8   8
#     4  11  21  35  57  89 119 152 196 246 304 351
#     4  11  21  37  60  89 122 159 201 242 299 360
#     4  10  22  38  61  86 118 155 193 249 300 360
#     4   8  18  40  58  81 116 159 205 240 295 349
#     4  11  22  38  58  83 119 157 194 241 303 365
#     4  10  21  36  60  85 117 159 199 245 293 362
#     4   9  20  36  59  84 117 159 200 247 289 353
#
# _framework density 24.299474
#
# number of rings (size 3 to 8) (size 9 to 14) (size 15 to 20)
#    0.000    2.000    0.000    4.714    0.000    4.000 
#    0.000    0.714    0.000   12.000    0.000    0.000 
#    0.000    0.000    0.000    0.000    0.000    0.000 
#
# Total GULP energy -156857.591387 kJ/mol
# GULP energy per Si atom -5602.056835 kJ/mol
# Density = 2.424417 g / cm^3
# Si number density = 24.299474 Si / 1000 Ang^3
#
#
#
# Elastic Constant Matrix: (Units=GPa)
#
#
# Indices 1 2 3 4 5 6 
#
# 1 71.3585 36.2471 33.7756 0.0000 -17.7884 0.0000
# 2 36.2471 145.2780 34.5307 0.0000 -21.8574 0.0000
# 3 33.7756 34.5307 83.0768 0.0000 -17.2794 0.0000
# 4 0.0000 0.0000 0.0000 8.3456 0.0000 -12.1321
# 5 -17.7884 -21.8574 -17.2794 0.0000 49.4139 0.0000
# 6 0.0000 0.0000 0.0000 -12.1321 0.0000 34.9813
#
#
#
# Elastic Compliance Matrix: (Units=1/GPa)
#
#
# Indices 1 2 3 4 5 6 
#
# 1 0.019117 -0.002841 -0.005846 0.000000 0.003581 0.000000
# 2 -0.002841 0.008345 -0.001896 0.000000 0.002005 0.000000
# 3 -0.005846 -0.001896 0.015734 0.000000 0.002559 0.000000
# 4 0.000000 0.000000 0.000000 0.241664 0.000000 0.083813
# 5 0.003581 0.002005 0.002559 0.000000 0.023308 0.000000
# 6 0.000000 0.000000 0.000000 0.083813 0.000000 0.057655
#
#
# Mechanical properties :
#
#
# Convention : Reuss Voigt Hill
#
# Bulk Modulus (GPa) = 45.39693 56.53559 50.96626
# Shear Modulus (GPa) = 12.67964 31.55883 22.11924
#
# Velocity S-wave (km/s) = 2.28679 3.60772 3.02035
# Velocity P-wave (km/s) = 5.06906 6.37737 5.76048
#
# Compressibility (1/GPa) = 0.02202792
#
# Stress axis : x y z
#
# Youngs Moduli (GPa) = 52.30995 119.83701 63.55550
#
# Poissons Ratio (x) = 0.34050 0.37157
# Poissons Ratio (y) = 0.14863 0.12051
# Poissons Ratio (z) = 0.30582 0.22724
#
# Static dielectric constant tensor:
#      x y z
#    x 1.958440 0.000000 -0.004410 
#    y 0.000000 1.898730 0.000000 
#    z -0.004410 0.000000 1.912970 
# 
# From -- ./inp_files/273086.got.cif
#   From: 2010.05.17/outbox.cif.g08.bks.cpg/sg15_137_cif.got.tgz:273086.got - 2010.06.03 18:47:42.
