data_PCOD9279011
_publ_section_title
;
Structure prediction by ZEFSAII (Michael W. Deem and Ramdas Pophale) SiO2 
 PCOD9279011
Probable space group: C 2/C
;
_chemical_formula_sum "Si O2"
_cell_formula_units_Z 56
_cell_length_a 8.349615
_cell_length_b 24.088615
_cell_length_c 15.215838
_cell_angle_alpha 90.000000
_cell_angle_beta 124.568123
_cell_angle_gamma 90.000000
_cell_volume 2520.069587
_symmetry_space_group_name_H-M "C 2/C"
_symmetry_group_IT_number 15
_symmetry_cell_setting 'monoclinic'
loop_
_space_group_symop_operation_xyz
x,y,z
-x,y,1/2-z
-x,-y,-z
x,-y,1/2+z
1/2+x,1/2+y,z
1/2-x,1/2+y,1/2-z
1/2-x,1/2-y,-z
1/2+x,1/2-y,1/2+z
loop_
_atom_site_type_symbol
_atom_site_label
_atom_site_fract_x
_atom_site_fract_y
_atom_site_fract_z
Si Si1 0.265220 0.842940 0.004500
Si Si2 0.738972 0.617245 0.679680
Si Si3 0.346962 0.790738 0.346502
Si Si4 0.736028 0.594738 0.317767
Si Si5 0.724316 0.376673 0.456827
Si Si6 0.795392 0.833838 0.859899
Si Si7 0.262443 0.531827 0.672762
O O1 0.305086 0.883377 0.099751
O O2 0.418938 0.793378 0.067457
O O3 0.307957 0.870589 0.924005
O O4 0.033493 0.833512 0.936059
O O5 0.797750 0.675857 0.742411
O O6 0.506725 0.615731 0.607495
O O7 0.801151 0.567453 0.762451
O O8 0.263253 0.828486 0.398663
O O9 0.255161 0.730171 0.324414
O O10 0.500000 0.593540 0.250000
O O11 0.774819 0.626106 0.239204
O O12 0.804371 0.531372 0.343418
O O13 0.784008 0.356164 0.571920
O O14 0.794681 0.433528 0.432236
O O15 0.500000 0.530885 0.750000
#
# Coordination Sequence:
#
# PCOD9279011 Si02
#       7
#     8   8   8   8   8   8   8
#     4  10  21  34  51  78 108 141 175 210 262 312
#     4   9  19  35  56  79 101 137 179 214 258 313
#     4  11  20  34  54  78 108 140 173 217 260 308
#     4   9  19  34  52  78 107 137 174 219 261 306
#     4   9  19  36  56  78 102 138 177 214 260 311
#     4  10  21  35  53  79 108 138 176 214 258 310
#     4   8  15  32  56  78 102 131 175 222 258 304
#
# _framework density 22.221609000000001
#
# number of rings (size 3 to 8) (size 9 to 14) (size 15 to 20)
#    0.000    2.571    0.000    2.571    0.000    6.857 
#    0.000   10.714    0.000    3.429    0.000    0.000 
#    0.000    0.000    0.000    0.000    0.000    0.000 
#
# Total GULP energy -156340.035064 kJ/mol
# GULP energy per Si atom -5583.572681 kJ/mol
# Density = 2.217103 g / cm^3
# Si number density = 22.221609 Si / 1000 Ang^3
#
#
#
# Elastic Constant Matrix: (Units=GPa)
#
#
# Indices 1 2 3 4 5 6 
#
# 1 32.7218 -16.8020 9.7343 0.0000 -5.0783 0.0000
# 2 -16.8020 128.2322 39.0039 0.0000 -22.3563 0.0000
# 3 9.7343 39.0039 89.6257 0.0000 -32.9621 0.0000
# 4 0.0000 0.0000 0.0000 17.2921 0.0000 4.8653
# 5 -5.0783 -22.3563 -32.9621 0.0000 53.7181 0.0000
# 6 0.0000 0.0000 0.0000 4.8653 0.0000 12.1220
#
#
#
# Elastic Compliance Matrix: (Units=1/GPa)
#
#
# Indices 1 2 3 4 5 6 
#
# 1 0.036410 0.007077 -0.006051 0.000000 0.002675 0.000000
# 2 0.007077 0.010490 -0.004497 0.000000 0.002275 0.000000
# 3 -0.006051 -0.004497 0.016625 0.000000 0.007758 0.000000
# 4 0.000000 0.000000 0.000000 0.065192 0.000000 -0.026166
# 5 0.002675 0.002275 0.007758 0.000000 0.024576 0.000000
# 6 0.000000 0.000000 0.000000 -0.026166 0.000000 0.092997
#
#
# Mechanical properties :
#
#
# Convention : Reuss Voigt Hill
#
# Bulk Modulus (GPa) = 17.67279 34.93911 26.30595
# Shear Modulus (GPa) = 18.37616 31.20267 24.78942
#
# Velocity S-wave (km/s) = 2.87879 3.75128 3.34362
# Velocity P-wave (km/s) = 4.36121 5.87537 5.17398
#
# Compressibility (1/GPa) = 0.05658418
#
# Stress axis : x y z
#
# Youngs Moduli (GPa) = 27.46500 95.32658 60.15107
#
# Poissons Ratio (x) = -0.67467 0.36397
# Poissons Ratio (y) = -0.19438 0.27050
# Poissons Ratio (z) = 0.16619 0.42869
#
# Static dielectric constant tensor:
#      x y z
#    x 1.836730 0.000000 0.045860 
#    y 0.000000 1.772350 0.000000 
#    z 0.045860 0.000000 1.812050 
# 
# From -- ./inp_files/137927.got.cif
#   From: 2010.05.17/outbox.cif.g08.bks.cpg/sg15_69_cif.got.tgz:137927.got - 2010.06.03 18:47:42.
