data_PCOD9279689
_publ_section_title
;
Structure prediction by ZEFSAII (Michael W. Deem and Ramdas Pophale) SiO2 
 PCOD9279689
Probable space group: C 2/C
;
_chemical_formula_sum "Si O2"
_cell_formula_units_Z 64
_cell_length_a 13.103866
_cell_length_b 28.016768
_cell_length_c 15.692251
_cell_angle_alpha 90.000000
_cell_angle_beta 146.561321
_cell_angle_gamma 90.000000
_cell_volume 3174.601076
_symmetry_space_group_name_H-M "C 2/C"
_symmetry_group_IT_number 15
_symmetry_cell_setting 'monoclinic'
loop_
_space_group_symop_operation_xyz
x,y,z
-x,y,1/2-z
-x,-y,-z
x,-y,1/2+z
1/2+x,1/2+y,z
1/2-x,1/2+y,1/2-z
1/2-x,1/2-y,-z
1/2+x,1/2-y,1/2+z
loop_
_atom_site_type_symbol
_atom_site_label
_atom_site_fract_x
_atom_site_fract_y
_atom_site_fract_z
Si Si1 0.952682 0.099723 0.580059
Si Si2 0.107804 0.568528 0.416738
Si Si3 0.362764 0.495635 0.324116
Si Si4 0.689311 0.136987 0.245312
Si Si5 0.931981 0.274559 0.576840
Si Si6 0.468258 0.963913 0.126818
Si Si7 0.863687 0.186770 0.738183
Si Si8 0.318384 0.591453 0.180637
O O1 0.787746 0.100965 0.533716
O O2 0.840423 0.115441 0.416732
O O3 0.040016 0.048299 0.654312
O O4 0.114691 0.136919 0.702888
O O5 0.146204 0.513716 0.462964
O O6 0.000000 0.567453 0.250000
O O7 0.965218 0.595872 0.375806
O O8 0.500000 0.500000 0.500000
O O9 0.352269 0.544446 0.264288
O O10 0.163149 0.478107 0.218942
O O11 0.579121 0.183261 0.208075
O O12 0.782424 0.136881 0.217436
O O13 0.750000 0.250000 0.500000
O O14 0.837133 0.299180 0.431502
O O15 0.055639 0.228715 0.647689
O O16 0.500000 0.955049 0.250000
O O17 0.354437 0.922942 0.000211
O O18 0.000000 0.186069 0.750000
O O19 0.500000 0.598048 0.250000
#
# Coordination Sequence:
#
# PCOD9279689 Si02
#       8
#     8   8   8   8   8   8   8   8
#     4  11  22  35  62  89 129 168 214 266 321 392
#     4   9  17  33  51  82 115 162 210 259 319 372
#     4  12  22  41  59  91 131 177 227 274 327 391
#     4  11  22  38  61  86 126 168 214 263 328 391
#     4  10  21  37  59  86 127 159 200 255 326 404
#     4  11  23  39  60  84 123 173 223 281 327 377
#     4  10  21  36  56  92 125 163 199 249 322 393
#     4  12  25  40  61  89 126 178 228 272 326 386
#
# _framework density 20.160012999999999
#
# number of rings (size 3 to 8) (size 9 to 14) (size 15 to 20)
#    0.000    1.250    2.500    5.625    1.750    6.000 
#    0.000    0.000    0.000    0.000    0.000    4.375 
#    0.000    0.000    0.000    0.000    0.000    0.000 
#
# Total GULP energy -178320.764481 kJ/mol
# GULP energy per Si atom -5572.523890 kJ/mol
# Density = 2.011413 g / cm^3
# Si number density = 20.160013 Si / 1000 Ang^3
#
#
#
# Elastic Constant Matrix: (Units=GPa)
#
#
# Indices 1 2 3 4 5 6 
#
# 1 91.2436 3.0467 16.4037 0.0000 11.4007 0.0001
# 2 3.0467 69.8222 13.3843 0.0000 2.1742 0.0000
# 3 16.4037 13.3843 78.1722 0.0001 5.1581 0.0001
# 4 0.0000 0.0000 0.0001 33.0173 0.0001 3.3586
# 5 11.4007 2.1742 5.1581 0.0001 19.7180 0.0001
# 6 0.0001 0.0000 0.0001 3.3586 0.0001 14.1485
#
#
#
# Elastic Compliance Matrix: (Units=1/GPa)
#
#
# Indices 1 2 3 4 5 6 
#
# 1 0.012150 0.000081 -0.002136 0.000000 -0.006475 0.000000
# 2 0.000081 0.014828 -0.002488 0.000000 -0.001031 0.000000
# 3 -0.002136 -0.002488 0.013805 0.000000 -0.002102 0.000000
# 4 0.000000 0.000000 0.000000 0.031037 0.000000 -0.007368
# 5 -0.006475 -0.001031 -0.002102 0.000000 0.055122 0.000000
# 6 0.000000 0.000000 0.000000 -0.007368 0.000000 0.072428
#
#
# Mechanical properties :
#
#
# Convention : Reuss Voigt Hill
#
# Bulk Modulus (GPa) = 31.54879 33.87861 32.71370
# Shear Modulus (GPa) = 22.82885 27.13698 24.98291
#
# Velocity S-wave (km/s) = 3.36874 3.67288 3.52409
# Velocity P-wave (km/s) = 5.55107 5.90153 5.72898
#
# Compressibility (1/GPa) = 0.03169694
#
# Stress axis : x y z
#
# Youngs Moduli (GPa) = 82.30408 67.44210 72.43671
#
# Poissons Ratio (x) = -0.00546 0.15474
# Poissons Ratio (y) = -0.00666 0.18020
# Poissons Ratio (z) = 0.17582 0.16777
#
# Static dielectric constant tensor:
#      x y z
#    x 1.799600 0.000000 -0.002790 
#    y 0.000000 1.870560 0.000000 
#    z -0.002790 0.000000 1.778490 
# 
# From -- ./inp_files/148792.got.cif
#   From: 2010.05.17/outbox.cif.g08.bks.cpg/sg15_75_cif.got.tgz:148792.got - 2010.06.03 18:47:42.
