data_PCOD9279521
_publ_section_title
;
Structure prediction by ZEFSAII (Michael W. Deem and Ramdas Pophale) SiO2 
 PCOD9279521
Probable space group: C 2/C
;
_chemical_formula_sum "Si O2"
_cell_formula_units_Z 40
_cell_length_a 17.408435
_cell_length_b 12.235856
_cell_length_c 19.046186
_cell_angle_alpha 90.000000
_cell_angle_beta 145.848410
_cell_angle_gamma 90.000000
_cell_volume 2277.521168
_symmetry_space_group_name_H-M "C 2/C"
_symmetry_group_IT_number 15
_symmetry_cell_setting 'monoclinic'
loop_
_space_group_symop_operation_xyz
x,y,z
-x,y,1/2-z
-x,-y,-z
x,-y,1/2+z
1/2+x,1/2+y,z
1/2-x,1/2+y,1/2-z
1/2-x,1/2-y,-z
1/2+x,1/2-y,1/2+z
loop_
_atom_site_type_symbol
_atom_site_label
_atom_site_fract_x
_atom_site_fract_y
_atom_site_fract_z
Si Si1 0.492804 0.175277 0.457539
Si Si2 0.401306 0.403320 0.454124
Si Si3 0.217496 0.521801 0.696405
Si Si4 0.502499 0.521367 0.331530
Si Si5 0.089350 0.228589 0.884695
O O1 0.453521 0.285107 0.469368
O O2 0.622261 0.113065 0.588766
O O3 0.530841 0.212102 0.408432
O O4 0.368955 0.089077 0.362767
O O5 0.500000 0.500000 0.500000
O O6 0.264180 0.432208 0.307597
O O7 0.410571 0.412150 0.545049
O O8 0.350502 0.496698 0.748928
O O9 0.500000 0.565806 0.250000
O O10 0.567432 0.400945 0.376333
O O11 0.000000 0.263210 0.750000
O O12 0.250000 0.250000 0.000000
#
# Coordination Sequence:
#
# PCOD9279521 Si02
#       5
#     8   8   8   8   8
#     4  11  22  39  61  89 122 155 205 245 303 365
#     4  10  21  35  64  83 112 161 194 240 295 367
#     4  10  23  38  61  89 120 157 199 255 292 366
#     4  10  21  38  57  88 120 155 199 249 307 359
#     4  11  23  35  62  93 125 156 191 263 318 362
#
# _framework density 17.562954000000001
#
# number of rings (size 3 to 8) (size 9 to 14) (size 15 to 20)
#    0.000    1.600    4.000    2.400    8.400    0.000 
#    0.000    1.000    0.000    0.000    0.000    0.000 
#    0.000    0.000    0.000    0.000    0.000    0.000 
#
# Total GULP energy -111580.216444 kJ/mol
# GULP energy per Si atom -5579.010822 kJ/mol
# Density = 1.752298 g / cm^3
# Si number density = 17.562954 Si / 1000 Ang^3
#
#
#
# Elastic Constant Matrix: (Units=GPa)
#
#
# Indices 1 2 3 4 5 6 
#
# 1 122.6849 45.2758 83.0260 0.0000 -35.8406 0.0000
# 2 45.2758 99.3767 50.2658 0.0000 -23.5197 0.0000
# 3 83.0260 50.2658 143.4577 0.0000 -27.4404 0.0000
# 4 0.0000 0.0000 0.0000 12.3410 0.0000 3.1333
# 5 -35.8406 -23.5197 -27.4404 0.0000 39.7109 0.0000
# 6 0.0000 0.0000 0.0000 3.1333 0.0000 7.8250
#
#
#
# Elastic Compliance Matrix: (Units=1/GPa)
#
#
# Indices 1 2 3 4 5 6 
#
# 1 0.016076 -0.001716 -0.007054 0.000000 0.008618 0.000000
# 2 -0.001716 0.013315 -0.002834 0.000000 0.004378 0.000000
# 3 -0.007054 -0.002834 0.012108 0.000000 0.000321 0.000000
# 4 0.000000 0.000000 0.000000 0.090201 0.000000 -0.036119
# 5 0.008618 0.004378 0.000321 0.000000 0.035775 0.000000
# 6 0.000000 0.000000 0.000000 -0.036119 0.000000 0.142259
#
#
# Mechanical properties :
#
#
# Convention : Reuss Voigt Hill
#
# Bulk Modulus (GPa) = 54.67931 80.29493 67.48712
# Shear Modulus (GPa) = 14.74757 24.43883 19.59320
#
# Velocity S-wave (km/s) = 2.90090 3.73433 3.34368
# Velocity P-wave (km/s) = 6.51315 8.02566 7.30864
#
# Compressibility (1/GPa) = 0.01828845
#
# Stress axis : x y z
#
# Youngs Moduli (GPa) = 62.20553 75.10551 82.59161
#
# Poissons Ratio (x) = 0.12892 0.58260
# Poissons Ratio (y) = 0.10677 0.23410
# Poissons Ratio (z) = 0.43879 0.21288
#
# Static dielectric constant tensor:
#      x y z
#    x 1.602520 0.000000 -0.020830 
#    y 0.000000 1.566180 0.000000 
#    z -0.020830 0.000000 1.621330 
# 
# From -- ./inp_files/94631.got.cif
#   From: 2010.05.17/outbox.cif.g08.bks.cpg/sg15_48_cif.got.tgz:94631.got - 2010.06.03 18:47:42.
