data_PCOD9279676
_publ_section_title
;
Structure prediction by ZEFSAII (Michael W. Deem and Ramdas Pophale) SiO2 
 PCOD9279676
Probable space group: C 2/C
;
_chemical_formula_sum "Si O2"
_cell_formula_units_Z 52
_cell_length_a 17.658261
_cell_length_b 25.768544
_cell_length_c 9.049446
_cell_angle_alpha 90.000000
_cell_angle_beta 38.662734
_cell_angle_gamma 90.000000
_cell_volume 2572.501208
_symmetry_space_group_name_H-M "C 2/C"
_symmetry_group_IT_number 15
_symmetry_cell_setting 'monoclinic'
loop_
_space_group_symop_operation_xyz
x,y,z
-x,y,1/2-z
-x,-y,-z
x,-y,1/2+z
1/2+x,1/2+y,z
1/2-x,1/2+y,1/2-z
1/2-x,1/2-y,-z
1/2+x,1/2-y,1/2+z
loop_
_atom_site_type_symbol
_atom_site_label
_atom_site_fract_x
_atom_site_fract_y
_atom_site_fract_z
Si Si1 0.758887 0.539618 0.863169
Si Si2 0.849784 0.177418 0.384432
Si Si3 0.866465 0.445010 0.522191
Si Si4 0.337003 0.140148 0.601974
Si Si5 0.000000 0.910450 0.750000
Si Si6 0.401467 0.843419 0.675538
Si Si7 0.370166 0.209322 0.964894
O O1 0.807485 0.485012 0.729748
O O2 0.837271 0.580437 0.649158
O O3 0.784285 0.551858 0.997715
O O4 0.617643 0.553542 0.043492
O O5 0.780701 0.163297 0.641137
O O6 0.743682 0.179439 0.427152
O O7 0.886587 0.236895 0.352790
O O8 0.949240 0.132779 0.209138
O O9 0.879870 0.391935 0.597059
O O10 0.000000 0.457828 0.250000
O O11 0.457942 0.163291 0.491634
O O12 0.336667 0.146411 0.428734
O O13 0.354877 0.791833 0.663767
O O14 0.500000 0.181925 0.750000
#
# Coordination Sequence:
#
# PCOD9279676 Si02
#       7
#     8   8   8   8   4   8   8
#     4  11  24  39  63  84 123 162 206 248 309 358
#     4  10  21  38  63  85 124 158 205 246 304 361
#     4  12  23  39  61  93 122 158 202 261 303 366
#     4  10  21  36  56  87 119 162 188 255 303 360
#     4  10  22  42  58  90 118 166 202 248 296 374
#     4  11  21  35  58  88 126 146 203 249 312 354
#     4  11  20  36  62  93 116 161 203 255 300 368
#
# _framework density 20.213791000000001
#
# number of rings (size 3 to 8) (size 9 to 14) (size 15 to 20)
#    0.000    1.231    3.846    3.692    2.154    1.231 
#    0.000    0.000    0.000   11.077    0.000    0.000 
#    0.000    0.000    0.000    0.000    0.000    0.000 
#
# Total GULP energy -144740.265896 kJ/mol
# GULP energy per Si atom -5566.933304 kJ/mol
# Density = 2.016778 g / cm^3
# Si number density = 20.213791 Si / 1000 Ang^3
#
#
#
# Elastic Constant Matrix: (Units=GPa)
#
#
# Indices 1 2 3 4 5 6 
#
# 1 137.4337 27.6074 51.3107 0.0000 -0.5200 0.0000
# 2 27.6074 64.4918 11.7141 0.0000 0.7064 0.0000
# 3 51.3107 11.7141 61.3793 0.0000 5.1888 0.0000
# 4 0.0000 0.0000 0.0000 26.7482 0.0000 2.5582
# 5 -0.5200 0.7064 5.1888 0.0000 42.7471 0.0000
# 6 0.0000 0.0000 0.0000 2.5582 0.0000 13.1786
#
#
#
# Elastic Compliance Matrix: (Units=1/GPa)
#
#
# Indices 1 2 3 4 5 6 
#
# 1 0.011248 -0.003213 -0.008897 0.000000 0.001270 0.000000
# 2 -0.003213 0.016981 -0.000533 0.000000 -0.000255 0.000000
# 3 -0.008897 -0.000533 0.024087 0.000000 -0.003023 0.000000
# 4 0.000000 0.000000 0.000000 0.038093 0.000000 -0.007394
# 5 0.001270 -0.000255 -0.003023 0.000000 0.023780 0.000000
# 6 0.000000 0.000000 0.000000 -0.007394 0.000000 0.077316
#
#
# Mechanical properties :
#
#
# Convention : Reuss Voigt Hill
#
# Bulk Modulus (GPa) = 36.99679 49.39658 43.19669
# Shear Modulus (GPa) = 22.14326 28.04627 25.09476
#
# Velocity S-wave (km/s) = 3.31335 3.72893 3.52727
# Velocity P-wave (km/s) = 5.74284 6.55973 6.16483
#
# Compressibility (1/GPa) = 0.02702937
#
# Stress axis : x y z
#
# Youngs Moduli (GPa) = 88.90285 58.88967 41.51572
#
# Poissons Ratio (x) = 0.18921 0.36938
# Poissons Ratio (y) = 0.28564 0.02214
# Poissons Ratio (z) = 0.79099 0.03141
#
# Static dielectric constant tensor:
#      x y z
#    x 1.779310 0.000000 -0.003880 
#    y 0.000000 1.824570 0.000000 
#    z -0.003880 0.000000 1.745830 
# 
# From -- ./inp_files/52132.got.cif
#   From: 2010.05.17/outbox.cif.g08.bks.cpg/sg15_27_cif.got.tgz:52132.got - 2010.06.03 18:47:42.
