data_PCOD9279742
_publ_section_title
;
Structure prediction by ZEFSAII (Michael W. Deem and Ramdas Pophale) SiO2 
 PCOD9279742
Probable space group: C 2/C
;
_chemical_formula_sum "Si O2"
_cell_formula_units_Z 56
_cell_length_a 9.393639
_cell_length_b 26.192386
_cell_length_c 14.726635
_cell_angle_alpha 90.000000
_cell_angle_beta 54.922992
_cell_angle_gamma 90.000000
_cell_volume 2965.293376
_symmetry_space_group_name_H-M "C 2/C"
_symmetry_group_IT_number 15
_symmetry_cell_setting 'monoclinic'
loop_
_space_group_symop_operation_xyz
x,y,z
-x,y,1/2-z
-x,-y,-z
x,-y,1/2+z
1/2+x,1/2+y,z
1/2-x,1/2+y,1/2-z
1/2-x,1/2-y,-z
1/2+x,1/2-y,1/2+z
loop_
_atom_site_type_symbol
_atom_site_label
_atom_site_fract_x
_atom_site_fract_y
_atom_site_fract_z
Si Si1 0.652392 0.823606 0.968319
Si Si2 0.503310 0.733478 0.354736
Si Si3 0.327299 0.836212 0.751978
Si Si4 0.135328 0.942181 0.870516
Si Si5 0.260692 0.487890 0.008608
Si Si6 0.299323 0.527670 0.801417
Si Si7 0.506598 0.907168 0.346758
O O1 0.622496 0.833152 0.872842
O O2 0.856099 0.810807 0.907929
O O3 0.553894 0.775899 0.051660
O O4 0.586313 0.872287 0.046299
O O5 0.500000 0.752083 0.250000
O O6 0.688723 0.709806 0.312812
O O7 0.500000 0.832823 0.750000
O O8 0.221206 0.888180 0.815085
O O9 0.925776 0.949074 0.942608
O O10 0.203877 0.983895 0.773340
O O11 0.185287 0.963298 0.951432
O O12 0.217393 0.505911 0.923623
O O13 0.102759 0.459507 0.114307
O O14 0.500000 0.538493 0.750000
O O15 0.199599 0.577282 0.804013
O O16 0.500000 0.883151 0.250000
#
# Coordination Sequence:
#
# PCOD9279742 Si02
#       7
#     8   8   8   8   8   8   8
#     4  10  22  40  65  88 114 158 199 246 305 348
#     4   9  20  44  66  87 116 149 201 254 294 364
#     4  11  24  37  63  93 121 154 200 245 308 359
#     4  10  21  38  56  86 118 160 200 240 289 357
#     4  10  21  36  58  78 118 159 198 243 285 336
#     4  10  22  38  55  79 120 157 196 242 291 347
#     4  12  22  35  57  89 114 151 198 245 293 355
#
# _framework density 18.885145999999999
#
# number of rings (size 3 to 8) (size 9 to 14) (size 15 to 20)
#    0.000    1.714    1.429    2.571    4.000    4.571 
#    0.000    0.714    0.000    0.000    0.000    0.000 
#    0.000    0.000    0.000    0.000    0.000    0.000 
#
# Total GULP energy -156297.939010 kJ/mol
# GULP energy per Si atom -5582.069250 kJ/mol
# Density = 1.884216 g / cm^3
# Si number density = 18.885146 Si / 1000 Ang^3
#
#
#
# Elastic Constant Matrix: (Units=GPa)
#
#
# Indices 1 2 3 4 5 6 
#
# 1 101.0181 36.6686 43.8448 0.0000 -1.4216 0.0000
# 2 36.6686 51.0920 23.0786 0.0000 -6.4492 0.0000
# 3 43.8448 23.0786 104.7597 0.0000 5.9108 0.0000
# 4 0.0000 0.0000 0.0000 41.6940 0.0000 -1.8701
# 5 -1.4216 -6.4492 5.9108 0.0000 19.7092 0.0000
# 6 0.0000 0.0000 0.0000 -1.8701 0.0000 -0.4841
#
#
#
# Elastic Compliance Matrix: (Units=1/GPa)
#
#
# Indices 1 2 3 4 5 6 
#
# 1 0.014973 -0.008881 -0.004279 0.000000 -0.000543 0.000000
# 2 -0.008881 0.028575 -0.003122 0.000000 0.009646 0.000000
# 3 -0.004279 -0.003122 0.012308 0.000000 -0.005021 0.000000
# 4 0.000000 0.000000 0.000000 0.020442 0.000000 -0.078972
# 5 -0.000543 0.009646 -0.005021 0.000000 0.055361 0.000000
# 6 0.000000 0.000000 0.000000 -0.078972 0.000000 -1.760716
#
#
# Mechanical properties :
#
#
# Convention : Reuss Voigt Hill
#
# Bulk Modulus (GPa) = 42.93796 51.56156 47.24976
# Shear Modulus (GPa) = -3.14717 22.40233 9.62758
#
# Velocity S-wave (km/s) = -1.29232 3.44792 2.26032
# Velocity P-wave (km/s) = 4.53420 6.57365 5.64676
#
# Compressibility (1/GPa) = 0.02328941
#
# Stress axis : x y z
#
# Youngs Moduli (GPa) = 66.78768 34.99611 81.24945
#
# Poissons Ratio (x) = 0.31082 0.34769
# Poissons Ratio (y) = 0.59317 0.25367
# Poissons Ratio (z) = 0.28581 0.10926
#
# Static dielectric constant tensor:
#      x y z
#    x 1.665660 0.000000 -0.004230 
#    y 0.000000 1.641280 0.000000 
#    z -0.004230 0.000000 1.672810 
# 
# From -- ./inp_files/81251.got.cif
#   From: 2010.05.17/outbox.cif.g08.bks.cpg/sg15_41_cif.got.tgz:81251.got - 2010.06.03 18:47:42.
