data_PCOD9279923
_publ_section_title
;
Structure prediction by ZEFSAII (Michael W. Deem and Ramdas Pophale) SiO2 
 PCOD9279923
Probable space group: C 2/C
;
_chemical_formula_sum "Si O2"
_cell_formula_units_Z 40
_cell_length_a 13.049078
_cell_length_b 18.178745
_cell_length_c 10.389543
_cell_angle_alpha 90.000000
_cell_angle_beta 136.984888
_cell_angle_gamma 90.000000
_cell_volume 1681.304224
_symmetry_space_group_name_H-M "C 2/C"
_symmetry_group_IT_number 15
_symmetry_cell_setting 'monoclinic'
loop_
_space_group_symop_operation_xyz
x,y,z
-x,y,1/2-z
-x,-y,-z
x,-y,1/2+z
1/2+x,1/2+y,z
1/2-x,1/2+y,1/2-z
1/2-x,1/2-y,-z
1/2+x,1/2-y,1/2+z
loop_
_atom_site_type_symbol
_atom_site_label
_atom_site_fract_x
_atom_site_fract_y
_atom_site_fract_z
Si Si1 0.334493 0.984891 0.656888
Si Si2 0.542164 0.261859 0.631888
Si Si3 0.824528 0.860476 0.122698
Si Si4 0.674038 0.164013 0.234953
Si Si5 0.765016 0.147132 0.869707
O O1 0.500000 0.992246 0.750000
O O2 0.220334 0.944782 0.453112
O O3 0.349443 0.924237 0.785910
O O4 0.269305 0.063293 0.633354
O O5 0.458857 0.211056 0.447214
O O6 0.673978 0.313224 0.697297
O O7 0.630399 0.199383 0.791513
O O8 0.413754 0.316370 0.562947
O O9 0.788297 0.845382 0.236783
O O10 0.000000 0.847821 0.250000
O O11 0.709393 0.821199 0.917718
#
# Coordination Sequence:
#
# PCOD9279923 Si02
#       5
#     8   8   8   8   8
#     4  10  23  42  59  86 118 164 209 239 287 358
#     4  10  21  36  61  92 121 160 183 251 306 353
#     4  10  21  37  59  94 118 158 188 240 305 346
#     4   9  21  36  54  91 122 148 201 227 306 354
#     4  11  22  40  63  88 124 153 202 245 301 355
#
# _framework density 23.791055
#
# number of rings (size 3 to 8) (size 9 to 14) (size 15 to 20)
#    1.200    0.800    2.000    1.200    0.000   11.200 
#    0.000    3.000    0.000    0.000    0.000    0.000 
#    0.000    0.000    0.000    0.000    0.000    0.000 
#
# Total GULP energy -111736.266787 kJ/mol
# GULP energy per Si atom -5586.813339 kJ/mol
# Density = 2.373691 g / cm^3
# Si number density = 23.791055 Si / 1000 Ang^3
#
#
#
# Elastic Constant Matrix: (Units=GPa)
#
#
# Indices 1 2 3 4 5 6 
#
# 1 102.4496 41.6854 44.2181 0.0000 31.5501 0.0000
# 2 41.6854 184.5008 23.3821 0.0000 27.3009 0.0000
# 3 44.2181 23.3821 114.6459 0.0000 27.1770 0.0000
# 4 0.0000 0.0000 0.0000 23.2961 0.0000 -2.5784
# 5 31.5501 27.3009 27.1770 0.0000 42.4930 0.0000
# 6 0.0000 0.0000 0.0000 -2.5784 0.0000 35.3282
#
#
#
# Elastic Compliance Matrix: (Units=1/GPa)
#
#
# Indices 1 2 3 4 5 6 
#
# 1 0.014146 -0.001694 -0.003393 0.000000 -0.007244 0.000000
# 2 -0.001694 0.006205 0.000041 0.000000 -0.002755 0.000000
# 3 -0.003393 0.000041 0.011117 0.000000 -0.004617 0.000000
# 4 0.000000 0.000000 0.000000 0.043275 0.000000 0.003158
# 5 -0.007244 -0.002755 -0.004617 0.000000 0.033635 0.000000
# 6 0.000000 0.000000 0.000000 0.003158 0.000000 0.028537
#
#
# Mechanical properties :
#
#
# Convention : Reuss Voigt Hill
#
# Bulk Modulus (GPa) = 46.78174 68.90750 57.84462
# Shear Modulus (GPa) = 32.43954 39.71084 36.07519
#
# Velocity S-wave (km/s) = 3.69659 4.08996 3.89824
# Velocity P-wave (km/s) = 6.15841 7.16451 6.68042
#
# Compressibility (1/GPa) = 0.02137586
#
# Stress axis : x y z
#
# Youngs Moduli (GPa) = 70.69337 161.15333 89.94924
#
# Poissons Ratio (x) = 0.27300 0.30520
# Poissons Ratio (y) = 0.11976 -0.00368
# Poissons Ratio (z) = 0.23987 -0.00659
#
# Static dielectric constant tensor:
#      x y z
#    x 1.938670 0.000000 -0.068280 
#    y 0.000000 1.924500 0.000000 
#    z -0.068280 0.000000 1.920530 
# 
# From -- ./inp_files/48149.got.cif
#   From: 2010.05.17/outbox.cif.g08.bks.cpg/sg15_25_cif.got.tgz:48149.got - 2010.06.03 18:47:42.
