data_PCOD9279719
_publ_section_title
;
Structure prediction by ZEFSAII (Michael W. Deem and Ramdas Pophale) SiO2 
 PCOD9279719
Probable space group: C 2/C
;
_chemical_formula_sum "Si O2"
_cell_formula_units_Z 36
_cell_length_a 7.843654
_cell_length_b 29.970656
_cell_length_c 13.335765
_cell_angle_alpha 90.000000
_cell_angle_beta 35.229210
_cell_angle_gamma 90.000000
_cell_volume 1808.400536
_symmetry_space_group_name_H-M "C 2/C"
_symmetry_group_IT_number 15
_symmetry_cell_setting 'monoclinic'
loop_
_space_group_symop_operation_xyz
x,y,z
-x,y,1/2-z
-x,-y,-z
x,-y,1/2+z
1/2+x,1/2+y,z
1/2-x,1/2+y,1/2-z
1/2-x,1/2-y,-z
1/2+x,1/2-y,1/2+z
loop_
_atom_site_type_symbol
_atom_site_label
_atom_site_fract_x
_atom_site_fract_y
_atom_site_fract_z
Si Si1 0.870453 0.845060 0.974512
Si Si2 0.456918 0.140147 0.059762
Si Si3 0.221711 0.203261 0.457916
Si Si4 0.000000 0.578423 0.750000
Si Si5 0.657925 0.044385 0.886633
O O1 0.631105 0.835632 0.002491
O O2 0.171916 0.856036 0.769305
O O3 0.940995 0.807124 0.022468
O O4 0.757043 0.888535 0.087496
O O5 0.727363 0.164134 0.985414
O O6 0.523243 0.089076 0.001554
O O7 0.500000 0.201440 0.250000
O O8 0.250000 0.250000 0.500000
O O9 0.110280 0.550070 0.790759
O O10 0.000000 0.042464 0.750000
O O11 0.500000 0.000000 0.000000
#
# Coordination Sequence:
#
# PCOD9279719 Si02
#       5
#     8   8   8   4   8
#     4   9  19  37  61  84 114 162 195 243 304 357
#     4   9  20  40  60  79 122 156 196 247 304 360
#     4  10  21  36  57  87 115 154 199 245 300 363
#     4  10  22  40  64  88 120 158 210 248 312 364
#     4  11  25  41  62  93 123 160 207 256 307 367
#
# _framework density 19.907095000000002
#
# number of rings (size 3 to 8) (size 9 to 14) (size 15 to 20)
#    0.000    2.222    0.000    1.333    6.222    6.222 
#    6.000    2.222    0.000    0.000    0.000    0.000 
#    0.000    0.000    0.000    0.000    0.000    0.000 
#
# Total GULP energy -100483.082469 kJ/mol
# GULP energy per Si atom -5582.393471 kJ/mol
# Density = 1.986179 g / cm^3
# Si number density = 19.907095 Si / 1000 Ang^3
#
#
#
# Elastic Constant Matrix: (Units=GPa)
#
#
# Indices 1 2 3 4 5 6 
#
# 1 166.9840 82.8213 47.6930 0.0000 20.5343 0.0000
# 2 82.8213 100.6332 14.0840 0.0000 18.2940 0.0000
# 3 47.6930 14.0840 29.9261 0.0000 14.4627 0.0000
# 4 0.0000 0.0000 0.0000 24.7462 0.0000 13.3514
# 5 20.5343 18.2940 14.4627 0.0000 28.6597 0.0000
# 6 0.0000 0.0000 0.0000 13.3514 0.0000 -13.3803
#
#
#
# Elastic Compliance Matrix: (Units=1/GPa)
#
#
# Indices 1 2 3 4 5 6 
#
# 1 0.021110 -0.014818 -0.031650 0.000000 0.010305 0.000000
# 2 -0.014818 0.021775 0.019776 0.000000 -0.013263 0.000000
# 3 -0.031650 0.019776 0.092168 0.000000 -0.036458 0.000000
# 4 0.000000 0.000000 0.000000 0.026268 0.000000 0.026212
# 5 0.010305 -0.013263 -0.036458 0.000000 0.054373 0.000000
# 6 0.000000 0.000000 0.000000 0.026212 0.000000 -0.048582
#
#
# Mechanical properties :
#
#
# Convention : Reuss Voigt Hill
#
# Bulk Modulus (GPa) = 12.24418 65.19330 38.71874
# Shear Modulus (GPa) = 20.18413 18.20148 19.19281
#
# Velocity S-wave (km/s) = 3.18766 3.02705 3.10839
# Velocity P-wave (km/s) = 4.43985 6.71098 5.68988
#
# Compressibility (1/GPa) = 0.08167146
#
# Stress axis : x y z
#
# Youngs Moduli (GPa) = 47.36997 45.92366 10.84971
#
# Poissons Ratio (x) = 0.68048 0.34339
# Poissons Ratio (y) = 0.70191 -0.21457
# Poissons Ratio (z) = 1.49926 -0.90821
#
# Static dielectric constant tensor:
#      x y z
#    x 1.738650 0.000000 -0.002180 
#    y 0.000000 1.671040 0.000000 
#    z -0.002180 0.000000 1.702040 
# 
# From -- ./inp_files/25177.got.cif
#   From: 2010.05.17/outbox.cif.g08.bks.cpg/sg15_13_cif.got.tgz:25177.got - 2010.06.03 18:47:42.
