data_PCOD9279339
_publ_section_title
;
Structure prediction by ZEFSAII (Michael W. Deem and Ramdas Pophale) SiO2 
 PCOD9279339
Probable space group: C 2/C
;
_chemical_formula_sum "Si O2"
_cell_formula_units_Z 40
_cell_length_a 8.078880
_cell_length_b 12.213815
_cell_length_c 18.698830
_cell_angle_alpha 90.000000
_cell_angle_beta 115.761492
_cell_angle_gamma 90.000000
_cell_volume 1661.706105
_symmetry_space_group_name_H-M "C 2/C"
_symmetry_group_IT_number 15
_symmetry_cell_setting 'monoclinic'
loop_
_space_group_symop_operation_xyz
x,y,z
-x,y,1/2-z
-x,-y,-z
x,-y,1/2+z
1/2+x,1/2+y,z
1/2-x,1/2+y,1/2-z
1/2-x,1/2-y,-z
1/2+x,1/2-y,1/2+z
loop_
_atom_site_type_symbol
_atom_site_label
_atom_site_fract_x
_atom_site_fract_y
_atom_site_fract_z
Si Si1 0.791878 0.275742 0.165544
Si Si2 0.188968 0.904240 0.267381
Si Si3 0.068698 0.674888 0.457886
Si Si4 0.675223 0.069332 0.962199
Si Si5 0.077834 0.048339 0.363783
O O1 0.822757 0.327419 0.249646
O O2 0.578063 0.237593 0.118635
O O3 0.809661 0.365446 0.107419
O O4 0.899381 0.167331 0.164366
O O5 0.223105 0.969383 0.347304
O O6 0.000000 0.840556 0.250000
O O7 0.113858 0.995403 0.196478
O O8 0.250000 0.750000 0.500000
O O9 0.117930 0.555279 0.437523
O O10 0.958280 0.640971 0.510257
O O11 0.863583 0.056821 0.043620
#
# Coordination Sequence:
#
# PCOD9279339 Si02
#       5
#     8   8   8   8   8
#     4  11  20  39  61  85 113 157 191 239 295 336
#     4   8  20  38  53  80 118 153 187 234 286 351
#     4  10  21  35  57  90 118 148 182 237 295 336
#     4  10  21  37  60  89 117 142 199 244 281 350
#     4   8  18  37  56  80 117 147 184 245 284 335
#
# _framework density 24.071645
#
# number of rings (size 3 to 8) (size 9 to 14) (size 15 to 20)
#    1.200    1.200    0.000    3.600    0.000    4.800 
#    3.600   16.000    0.000    0.000    0.000    0.000 
#    0.000    0.000    0.000    0.000    0.000    0.000 
#
# Total GULP energy -111603.253018 kJ/mol
# GULP energy per Si atom -5580.162651 kJ/mol
# Density = 2.401686 g / cm^3
# Si number density = 24.071645 Si / 1000 Ang^3
#
#
#
# Elastic Constant Matrix: (Units=GPa)
#
#
# Indices 1 2 3 4 5 6 
#
# 1 35.7762 30.4821 4.9449 0.0000 5.5720 0.0000
# 2 30.4821 110.1297 22.7551 0.0000 -22.0483 0.0000
# 3 4.9449 22.7551 96.5463 0.0000 0.0991 0.0000
# 4 0.0000 0.0000 0.0000 23.4803 0.0000 4.4426
# 5 5.5720 -22.0483 0.0991 0.0000 46.8204 0.0000
# 6 0.0000 0.0000 0.0000 4.4426 0.0000 23.1547
#
#
#
# Elastic Compliance Matrix: (Units=1/GPa)
#
#
# Indices 1 2 3 4 5 6 
#
# 1 0.041581 -0.014075 0.001200 0.000000 -0.011579 0.000000
# 2 -0.014075 0.015362 -0.002909 0.000000 0.008915 0.000000
# 3 0.001200 -0.002909 0.010983 0.000000 -0.001536 0.000000
# 4 0.000000 0.000000 0.000000 0.044193 0.000000 -0.008479
# 5 -0.011579 0.008915 -0.001536 0.000000 0.026938 0.000000
# 6 0.000000 0.000000 0.000000 -0.008479 0.000000 0.044815
#
#
# Mechanical properties :
#
#
# Convention : Reuss Voigt Hill
#
# Bulk Modulus (GPa) = 27.50437 39.86850 33.68644
# Shear Modulus (GPa) = 21.97216 30.97575 26.47395
#
# Velocity S-wave (km/s) = 3.02451 3.59111 3.31992
# Velocity P-wave (km/s) = 4.86289 5.81319 5.35914
#
# Compressibility (1/GPa) = 0.03635786
#
# Stress axis : x y z
#
# Youngs Moduli (GPa) = 24.04916 65.09614 91.04596
#
# Poissons Ratio (x) = 0.91624 -0.10922
# Poissons Ratio (y) = 0.33850 0.26485
# Poissons Ratio (z) = -0.02885 0.18936
#
# Static dielectric constant tensor:
#      x y z
#    x 1.999900 0.000000 0.094640 
#    y 0.000000 1.860050 0.000000 
#    z 0.094640 0.000000 1.878570 
# 
# From -- ./inp_files/229946.got.cif
#   From: 2010.05.17/outbox.cif.g08.bks.cpg/sg15_115_cif.got.tgz:229946.got - 2010.06.03 18:47:42.
