data_PCOD9279660
_publ_section_title
;
Structure prediction by ZEFSAII (Michael W. Deem and Ramdas Pophale) SiO2 
 PCOD9279660
Probable space group: C 2/C
;
_chemical_formula_sum "Si O2"
_cell_formula_units_Z 56
_cell_length_a 26.333639
_cell_length_b 18.135735
_cell_length_c 9.403754
_cell_angle_alpha 90.000000
_cell_angle_beta 138.667721
_cell_angle_gamma 90.000000
_cell_volume 2965.996786
_symmetry_space_group_name_H-M "C 2/C"
_symmetry_group_IT_number 15
_symmetry_cell_setting 'monoclinic'
loop_
_space_group_symop_operation_xyz
x,y,z
-x,y,1/2-z
-x,-y,-z
x,-y,1/2+z
1/2+x,1/2+y,z
1/2-x,1/2+y,1/2-z
1/2-x,1/2-y,-z
1/2+x,1/2-y,1/2+z
loop_
_atom_site_type_symbol
_atom_site_label
_atom_site_fract_x
_atom_site_fract_y
_atom_site_fract_z
Si Si1 0.635196 0.768011 0.170344
Si Si2 0.179511 0.975898 0.313660
Si Si3 0.013744 0.805449 0.616190
Si Si4 0.575344 0.535254 0.327927
Si Si5 0.281262 0.146805 0.165771
Si Si6 0.742177 0.866153 0.563666
Si Si7 0.869502 0.248775 0.660297
O O1 0.569834 0.747173 0.145643
O O2 0.681397 0.840102 0.317911
O O3 0.694284 0.698842 0.300023
O O4 0.607452 0.772948 0.949698
O O5 0.245665 0.922222 0.507865
O O6 0.111842 0.982097 0.288147
O O7 0.214966 0.057402 0.373618
O O8 0.140747 0.951603 0.084446
O O9 0.049456 0.887425 0.703965
O O10 0.000000 0.781514 0.750000
O O11 0.933089 0.802991 0.364896
O O12 0.500000 0.504552 0.250000
O O13 0.297145 0.130058 0.363822
O O14 0.350649 0.183742 0.225931
O O15 0.210296 0.204578 0.020480
#
# Coordination Sequence:
#
# PCOD9279660 Si02
#       7
#     8   8   8   8   8   8   8
#     4  10  21  37  60  83 115 155 209 258 299 356
#     4  12  22  39  58  87 122 166 201 245 305 366
#     4  11  21  38  58  86 121 158 197 248 306 361
#     4  11  24  37  56  86 126 167 199 241 299 371
#     4  10  21  38  57  83 118 155 206 250 299 358
#     4  10  21  36  56  84 116 157 203 253 300 354
#     4  10  22  37  60  84 113 159 205 254 299 358
#
# _framework density 18.880668
#
# number of rings (size 3 to 8) (size 9 to 14) (size 15 to 20)
#    0.000    1.429    2.857    3.429    2.000    2.286 
#    0.000    0.000    0.000    0.857    0.000    0.000 
#    0.000    0.000    0.000    0.000    0.000    0.000 
#
# Total GULP energy -156395.747605 kJ/mol
# GULP energy per Si atom -5585.562414 kJ/mol
# Density = 1.883769 g / cm^3
# Si number density = 18.880668 Si / 1000 Ang^3
#
#
#
# Elastic Constant Matrix: (Units=GPa)
#
#
# Indices 1 2 3 4 5 6 
#
# 1 88.8074 24.2740 25.0455 0.0000 -14.1961 0.0000
# 2 24.2740 74.6722 24.3836 0.0000 -0.9399 0.0000
# 3 25.0455 24.3836 83.2553 0.0000 -25.8176 0.0000
# 4 0.0000 0.0000 0.0000 29.6514 0.0000 7.9555
# 5 -14.1961 -0.9399 -25.8176 0.0000 25.8320 0.0000
# 6 0.0000 0.0000 0.0000 7.9555 0.0000 14.9940
#
#
#
# Elastic Compliance Matrix: (Units=1/GPa)
#
#
# Indices 1 2 3 4 5 6 
#
# 1 0.013659 -0.004057 -0.000926 0.000000 0.006433 0.000000
# 2 -0.004057 0.016573 -0.005996 0.000000 -0.007619 0.000000
# 3 -0.000926 -0.005996 0.020028 0.000000 0.019289 0.000000
# 4 0.000000 0.000000 0.000000 0.039323 0.000000 -0.020864
# 5 0.006433 -0.007619 0.019289 0.000000 0.061249 0.000000
# 6 0.000000 0.000000 0.000000 -0.020864 0.000000 0.077763
#
#
# Mechanical properties :
#
#
# Convention : Reuss Voigt Hill
#
# Bulk Modulus (GPa) = 35.33373 43.79348 39.56361
# Shear Modulus (GPa) = 19.23186 25.63092 22.43139
#
# Velocity S-wave (km/s) = 3.19501 3.68845 3.45057
# Velocity P-wave (km/s) = 5.68909 6.43310 6.07250
#
# Compressibility (1/GPa) = 0.02830157
#
# Stress axis : x y z
#
# Youngs Moduli (GPa) = 73.21365 60.34021 49.93114
#
# Poissons Ratio (x) = 0.24479 0.04623
# Poissons Ratio (y) = 0.29701 0.29939
# Poissons Ratio (z) = 0.06778 0.36181
#
# Static dielectric constant tensor:
#      x y z
#    x 1.677220 0.000000 -0.012840 
#    y 0.000000 1.634120 0.000000 
#    z -0.012840 0.000000 1.658590 
# 
# From -- ./inp_files/49153.got.cif
#   From: 2010.05.17/outbox.cif.g08.bks.cpg/sg15_25_cif.got.tgz:49153.got - 2010.06.03 18:47:42.
