data_PCOD9279942
_publ_section_title
;
Structure prediction by ZEFSAII (Michael W. Deem and Ramdas Pophale) SiO2 
 PCOD9279942
Probable space group: C 2/C
;
_chemical_formula_sum "Si O2"
_cell_formula_units_Z 56
_cell_length_a 15.762416
_cell_length_b 18.262316
_cell_length_c 8.596652
_cell_angle_alpha 90.000000
_cell_angle_beta 84.499116
_cell_angle_gamma 90.000000
_cell_volume 2463.220654
_symmetry_space_group_name_H-M "C 2/C"
_symmetry_group_IT_number 15
_symmetry_cell_setting 'monoclinic'
loop_
_space_group_symop_operation_xyz
x,y,z
-x,y,1/2-z
-x,-y,-z
x,-y,1/2+z
1/2+x,1/2+y,z
1/2-x,1/2+y,1/2-z
1/2-x,1/2-y,-z
1/2+x,1/2-y,1/2+z
loop_
_atom_site_type_symbol
_atom_site_label
_atom_site_fract_x
_atom_site_fract_y
_atom_site_fract_z
Si Si1 0.330976 0.846606 0.489815
Si Si2 0.038368 0.217276 0.074299
Si Si3 0.905965 0.425319 0.742343
Si Si4 0.166561 0.099309 0.129065
Si Si5 0.230601 0.961631 0.926622
Si Si6 0.885628 0.265313 0.901235
Si Si7 0.741258 0.832993 0.333514
O O1 0.389459 0.775938 0.478150
O O2 0.384707 0.910519 0.565235
O O3 0.244725 0.842397 0.607326
O O4 0.299379 0.857015 0.320479
O O5 0.081766 0.138744 0.089436
O O6 0.000000 0.237495 0.250000
O O7 0.967808 0.224579 0.953445
O O8 0.824581 0.466023 0.830781
O O9 0.906245 0.343710 0.820327
O O10 0.000000 0.457650 0.750000
O O11 0.168320 0.068374 0.302919
O O12 0.195407 0.035074 0.008551
O O13 0.238836 0.902059 0.061240
O O14 0.827800 0.213606 0.804125
O O15 0.826975 0.283890 0.061328
#
# Coordination Sequence:
#
# PCOD9279942 Si02
#       7
#     8   8   8   8   8   8   8
#     4  11  23  38  67 100 133 173 215 273 346 402
#     4  12  23  40  66 103 134 167 222 283 336 389
#     4  10  21  38  63  99 136 168 217 285 331 399
#     4  11  25  44  67  93 133 184 228 271 325 407
#     4  10  23  45  65  92 134 187 230 262 330 407
#     4  10  21  36  61  97 135 167 215 275 336 390
#     4  10  21  38  66  95 130 178 217 267 336 401
#
# _framework density 22.734463999999999
#
# number of rings (size 3 to 8) (size 9 to 14) (size 15 to 20)
#    0.000    1.429    2.857    2.143    8.000    0.000 
#    0.000    6.429    0.000    0.000    0.000    3.000 
#    0.000    0.000    0.000    0.000    0.000    0.000 
#
# Total GULP energy -156756.037235 kJ/mol
# GULP energy per Si atom -5598.429901 kJ/mol
# Density = 2.268272 g / cm^3
# Si number density = 22.734464 Si / 1000 Ang^3
#
#
#
# Elastic Constant Matrix: (Units=GPa)
#
#
# Indices 1 2 3 4 5 6 
#
# 1 101.0945 64.1363 42.1157 0.0000 28.3615 0.0000
# 2 64.1363 80.9180 50.3590 0.0000 14.0032 0.0000
# 3 42.1157 50.3590 143.5066 0.0000 31.0173 0.0000
# 4 0.0000 0.0000 0.0000 24.7744 0.0000 -1.4402
# 5 28.3615 14.0032 31.0173 0.0000 35.3209 0.0000
# 6 0.0000 0.0000 0.0000 -1.4402 0.0000 29.6587
#
#
#
# Elastic Compliance Matrix: (Units=1/GPa)
#
#
# Indices 1 2 3 4 5 6 
#
# 1 0.024832 -0.018655 0.002431 0.000000 -0.014678 0.000000
# 2 -0.018655 0.029911 -0.007031 0.000000 0.009295 0.000000
# 3 0.002431 -0.007031 0.010542 0.000000 -0.008423 0.000000
# 4 0.000000 0.000000 0.000000 0.040478 0.000000 0.001966
# 5 -0.014678 0.009295 -0.008423 0.000000 0.043810 0.000000
# 6 0.000000 0.000000 0.000000 0.001966 0.000000 0.033812
#
#
# Mechanical properties :
#
#
# Convention : Reuss Voigt Hill
#
# Bulk Modulus (GPa) = 53.25591 70.97122 62.11356
# Shear Modulus (GPa) = 21.17272 29.21135 25.19203
#
# Velocity S-wave (km/s) = 3.05504 3.58843 3.33242
# Velocity P-wave (km/s) = 5.99336 6.96091 6.49518
#
# Compressibility (1/GPa) = 0.01877726
#
# Stress axis : x y z
#
# Youngs Moduli (GPa) = 40.27102 33.43240 94.85484
#
# Poissons Ratio (x) = 0.62368 -0.23062
# Poissons Ratio (y) = 0.75125 0.66688
# Poissons Ratio (z) = -0.09791 0.23505
#
# Static dielectric constant tensor:
#      x y z
#    x 1.856640 0.000000 -0.009710 
#    y 0.000000 1.863070 0.000000 
#    z -0.009710 0.000000 1.854200 
# 
# From -- ./inp_files/41252.got.cif
#   From: 2010.05.17/outbox.cif.g08.bks.cpg/sg15_21_cif.got.tgz:41252.got - 2010.06.03 18:47:42.
