data_PCOD9279092
_publ_section_title
;
Structure prediction by ZEFSAII (Michael W. Deem and Ramdas Pophale) SiO2 
 PCOD9279092
Probable space group: C 2/C
;
_chemical_formula_sum "Si O2"
_cell_formula_units_Z 52
_cell_length_a 13.809786
_cell_length_b 25.227235
_cell_length_c 11.784147
_cell_angle_alpha 90.000000
_cell_angle_beta 148.626711
_cell_angle_gamma 90.000000
_cell_volume 2137.315517
_symmetry_space_group_name_H-M "C 2/C"
_symmetry_group_IT_number 15
_symmetry_cell_setting 'monoclinic'
loop_
_space_group_symop_operation_xyz
x,y,z
-x,y,1/2-z
-x,-y,-z
x,-y,1/2+z
1/2+x,1/2+y,z
1/2-x,1/2+y,1/2-z
1/2-x,1/2-y,-z
1/2+x,1/2-y,1/2+z
loop_
_atom_site_type_symbol
_atom_site_label
_atom_site_fract_x
_atom_site_fract_y
_atom_site_fract_z
Si Si1 0.696203 0.921481 0.947437
Si Si2 0.172845 0.152823 0.105057
Si Si3 0.256065 0.899950 0.903353
Si Si4 0.311860 0.515526 0.753804
Si Si5 0.095935 0.680038 0.499849
Si Si6 0.183861 0.612223 0.782812
Si Si7 0.500000 0.726408 0.750000
O O1 0.838349 0.952817 0.164559
O O2 0.639968 0.870013 0.964589
O O3 0.500000 0.952945 0.750000
O O4 0.771378 0.901367 0.904431
O O5 0.130900 0.134998 0.191312
O O6 0.373508 0.183167 0.303810
O O7 0.021580 0.183139 0.876243
O O8 0.267690 0.959800 0.868407
O O9 0.212739 0.894640 0.993466
O O10 0.467335 0.881578 0.096866
O O11 0.211000 0.558027 0.736194
O O12 0.500000 0.500000 0.000000
O O13 0.207116 0.664289 0.725204
O O14 0.128205 0.729582 0.448916
#
# Coordination Sequence:
#
# PCOD9279092 Si02
#       7
#     8   8   8   8   8   8   4
#     4   9  19  37  59  84 118 157 207 252 297 376
#     4  10  21  34  56  88 120 145 204 255 309 360
#     4  10  22  39  61  85 121 166 207 251 305 373
#     4  11  24  36  61  90 124 161 204 254 320 361
#     4   9  18  37  59  86 108 153 201 259 303 366
#     4   9  21  42  62  84 117 164 215 252 299 385
#     4  12  20  32  62  90 120 154 198 264 324 362
#
# _framework density 24.329585000000002
#
# number of rings (size 3 to 8) (size 9 to 14) (size 15 to 20)
#    0.000    2.154    2.308    1.846    6.462    0.615 
#    0.000    0.769    0.000    0.000    0.000    0.000 
#    0.000    0.000    0.000    0.000    0.000    0.000 
#
# Total GULP energy -144807.924454 kJ/mol
# GULP energy per Si atom -5569.535556 kJ/mol
# Density = 2.427421 g / cm^3
# Si number density = 24.329585 Si / 1000 Ang^3
#
#
#
# Elastic Constant Matrix: (Units=GPa)
#
#
# Indices 1 2 3 4 5 6 
#
# 1 112.5632 45.5981 62.4989 0.0000 -35.6839 0.0000
# 2 45.5981 102.5223 73.9225 0.0000 -25.5032 0.0000
# 3 62.4989 73.9225 178.9233 0.0000 -45.6441 0.0000
# 4 0.0000 0.0000 0.0000 54.5776 0.0000 -1.6235
# 5 -35.6839 -25.5032 -45.6441 0.0000 52.4197 0.0000
# 6 0.0000 0.0000 0.0000 -1.6235 0.0000 21.2389
#
#
#
# Elastic Compliance Matrix: (Units=1/GPa)
#
#
# Indices 1 2 3 4 5 6 
#
# 1 0.012935 -0.003021 -0.001798 0.000000 0.005770 0.000000
# 2 -0.003021 0.014810 -0.004821 0.000000 0.000951 0.000000
# 3 -0.001798 -0.004821 0.009382 0.000000 0.004600 0.000000
# 4 0.000000 0.000000 0.000000 0.018364 0.000000 0.001404
# 5 0.005770 0.000951 0.004600 0.000000 0.027473 0.000000
# 6 0.000000 0.000000 0.000000 0.001404 0.000000 0.047191
#
#
# Mechanical properties :
#
#
# Convention : Reuss Voigt Hill
#
# Bulk Modulus (GPa) = 56.03136 84.22754 70.12945
# Shear Modulus (GPa) = 32.17795 39.77986 35.97891
#
# Velocity S-wave (km/s) = 3.64068 4.04795 3.84971
# Velocity P-wave (km/s) = 6.38380 7.51947 6.97479
#
# Compressibility (1/GPa) = 0.01784715
#
# Stress axis : x y z
#
# Youngs Moduli (GPa) = 77.30778 67.52005 106.58234
#
# Poissons Ratio (x) = 0.20400 0.19166
# Poissons Ratio (y) = 0.23357 0.51383
# Poissons Ratio (z) = 0.13902 0.32551
#
# Static dielectric constant tensor:
#      x y z
#    x 2.077920 0.000000 0.077700 
#    y 0.000000 1.978230 0.000000 
#    z 0.077700 0.000000 1.992170 
# 
# From -- ./inp_files/108373.got.cif
#   From: 2010.05.17/outbox.cif.g08.bks.cpg/sg15_55_cif.got.tgz:108373.got - 2010.06.03 18:47:42.
