data_PCOD9279250
_publ_section_title
;
Structure prediction by ZEFSAII (Michael W. Deem and Ramdas Pophale) SiO2 
 PCOD9279250
Probable space group: C 2/C
;
_chemical_formula_sum "Si O2"
_cell_formula_units_Z 40
_cell_length_a 21.810992
_cell_length_b 5.988335
_cell_length_c 13.761197
_cell_angle_alpha 90.000000
_cell_angle_beta 124.925196
_cell_angle_gamma 90.000000
_cell_volume 1473.664790
_symmetry_space_group_name_H-M "C 2/C"
_symmetry_group_IT_number 15
_symmetry_cell_setting 'monoclinic'
loop_
_space_group_symop_operation_xyz
x,y,z
-x,y,1/2-z
-x,-y,-z
x,-y,1/2+z
1/2+x,1/2+y,z
1/2-x,1/2+y,1/2-z
1/2-x,1/2-y,-z
1/2+x,1/2-y,1/2+z
loop_
_atom_site_type_symbol
_atom_site_label
_atom_site_fract_x
_atom_site_fract_y
_atom_site_fract_z
Si Si1 0.665374 0.909694 0.748954
Si Si2 0.502227 0.991646 0.117903
Si Si3 0.329279 0.482343 0.124877
Si Si4 0.005605 0.998474 0.122946
Si Si5 0.796263 0.195717 0.899925
O O1 0.590696 0.020272 0.719705
O O2 0.692182 0.766218 0.864301
O O3 0.648915 0.787237 0.632394
O O4 0.735491 0.057455 0.783989
O O5 0.476185 0.244612 0.125153
O O6 0.474252 0.746122 0.124958
O O7 0.500000 0.000000 0.000000
O O8 0.408722 0.500488 0.256149
O O9 0.259526 0.628699 0.100089
O O10 0.334484 0.546428 0.017088
O O11 0.000000 0.000000 0.000000
#
# Coordination Sequence:
#
# PCOD9279250 Si02
#       5
#     8   8   8   8   8
#     4  11  20  36  56  84 122 160 204 257 308 377
#     4   9  18  32  57  82 109 152 201 243 299 361
#     4  10  21  35  54  83 118 159 204 252 309 372
#     4   9  17  33  56  83 110 153 200 242 297 362
#     4  11  21  34  55  86 119 159 203 253 313 369
#
# _framework density 27.143212999999999
#
# number of rings (size 3 to 8) (size 9 to 14) (size 15 to 20)
#    0.000    2.000    4.000    0.600    0.000    0.000 
#    0.000    0.000    0.000   10.800    0.000   19.600 
#    0.000    0.000    0.000    0.000    0.000    0.000 
#
# Total GULP energy -111502.443542 kJ/mol
# GULP energy per Si atom -5575.122177 kJ/mol
# Density = 2.708143 g / cm^3
# Si number density = 27.143213 Si / 1000 Ang^3
#
#
#
# Elastic Constant Matrix: (Units=GPa)
#
#
# Indices 1 2 3 4 5 6 
#
# 1 69.9205 45.4409 25.9194 0.0000 1.7326 0.0000
# 2 45.4409 192.6745 17.8463 0.0000 4.9418 0.0000
# 3 25.9194 17.8463 114.3527 0.0000 -14.3364 0.0000
# 4 0.0000 0.0000 0.0000 32.9398 0.0000 15.5911
# 5 1.7326 4.9418 -14.3364 0.0000 56.8644 0.0000
# 6 0.0000 0.0000 0.0000 15.5911 0.0000 28.0285
#
#
#
# Elastic Compliance Matrix: (Units=1/GPa)
#
#
# Indices 1 2 3 4 5 6 
#
# 1 0.018245 -0.003934 -0.003664 0.000000 -0.001138 0.000000
# 2 -0.003934 0.006141 -0.000122 0.000000 -0.000445 0.000000
# 3 -0.003664 -0.000122 0.009923 0.000000 0.002624 0.000000
# 4 0.000000 0.000000 0.000000 0.041208 0.000000 -0.022922
# 5 -0.001138 -0.000445 0.002624 0.000000 0.018321 0.000000
# 6 0.000000 0.000000 0.000000 -0.022922 0.000000 0.048429
#
#
# Mechanical properties :
#
#
# Convention : Reuss Voigt Hill
#
# Bulk Modulus (GPa) = 53.00037 61.70676 57.35357
# Shear Modulus (GPa) = 30.48814 42.74928 36.61871
#
# Velocity S-wave (km/s) = 3.35510 3.97287 3.67698
# Velocity P-wave (km/s) = 5.88027 6.62028 6.26121
#
# Compressibility (1/GPa) = 0.01886779
#
# Stress axis : x y z
#
# Youngs Moduli (GPa) = 54.80825 162.84661 100.77114
#
# Poissons Ratio (x) = 0.64072 0.36924
# Poissons Ratio (y) = 0.21564 0.01232
# Poissons Ratio (z) = 0.20083 0.01992
#
# Static dielectric constant tensor:
#      x y z
#    x 2.150400 0.000000 0.100290 
#    y 0.000000 2.286680 0.000000 
#    z 0.100290 0.000000 2.197020 
# 
# From -- ./inp_files/179863.got.cif
#   From: 2010.05.17/outbox.cif.g08.bks.cpg/sg15_90_cif.got.tgz:179863.got - 2010.06.03 18:47:42.
