data_PCOD9279613
_publ_section_title
;
Structure prediction by ZEFSAII (Michael W. Deem and Ramdas Pophale) SiO2 
 PCOD9279613
Probable space group: C 2/C
;
_chemical_formula_sum "Si O2"
_cell_formula_units_Z 64
_cell_length_a 20.911145
_cell_length_b 17.158771
_cell_length_c 8.639351
_cell_angle_alpha 90.000000
_cell_angle_beta 83.928239
_cell_angle_gamma 90.000000
_cell_volume 3082.491906
_symmetry_space_group_name_H-M "C 2/C"
_symmetry_group_IT_number 15
_symmetry_cell_setting 'monoclinic'
loop_
_space_group_symop_operation_xyz
x,y,z
-x,y,1/2-z
-x,-y,-z
x,-y,1/2+z
1/2+x,1/2+y,z
1/2-x,1/2+y,1/2-z
1/2-x,1/2-y,-z
1/2+x,1/2-y,1/2+z
loop_
_atom_site_type_symbol
_atom_site_label
_atom_site_fract_x
_atom_site_fract_y
_atom_site_fract_z
Si Si1 0.050017 0.932309 0.027273
Si Si2 0.577010 0.008855 0.211637
Si Si3 0.437059 0.178358 0.378120
Si Si4 0.490526 0.280902 0.931737
Si Si5 0.155424 0.581895 0.473273
Si Si6 0.293644 0.587891 0.575641
Si Si7 0.641485 0.253241 0.362155
Si Si8 0.865640 0.979664 0.771552
O O1 0.084238 0.956690 0.176010
O O2 0.014540 0.851301 0.033009
O O3 0.101682 0.931662 0.874299
O O4 0.000000 0.000000 0.000000
O O5 0.500000 0.000500 0.250000
O O6 0.585480 0.089040 0.109399
O O7 0.620778 0.031275 0.348322
O O8 0.605234 0.932244 0.124804
O O9 0.500000 0.177415 0.250000
O O10 0.463434 0.209478 0.532991
O O11 0.387240 0.235900 0.302743
O O12 0.500000 0.300655 0.750000
O O13 0.418167 0.267240 0.005648
O O14 0.225072 0.563964 0.524422
O O15 0.165783 0.668712 0.407325
O O16 0.308533 0.675750 0.630910
O O17 0.308717 0.528839 0.710739
O O18 0.344105 0.570513 0.423689
#
# Coordination Sequence:
#
# PCOD9279613 Si02
#       8
#     8   8   8   8   8   8   8   8
#     4  11  20  33  52  82 115 150 190 233 279 328
#     4  10  21  40  61  85 111 136 177 233 288 342
#     4   8  18  35  54  78 110 148 182 220 281 338
#     4  11  20  32  52  82 113 143 183 233 281 329
#     4  11  23  38  61  85 108 145 185 228 280 335
#     4  11  21  39  56  80 113 150 193 229 264 329
#     4  10  21  36  55  79 112 150 185 225 275 331
#     4  10  22  35  55  79 112 154 189 227 274 318
#
# _framework density 20.762423999999999
#
# number of rings (size 3 to 8) (size 9 to 14) (size 15 to 20)
#    0.000    1.750    0.000    6.375    0.000    3.500 
#    0.000    0.000    0.000    0.000    0.000   15.750 
#    0.000    0.000    0.000    0.000    0.000    0.000 
#
# Total GULP energy -178541.511604 kJ/mol
# GULP energy per Si atom -5579.422238 kJ/mol
# Density = 2.071517 g / cm^3
# Si number density = 20.762424 Si / 1000 Ang^3
#
#
#
# Elastic Constant Matrix: (Units=GPa)
#
#
# Indices 1 2 3 4 5 6 
#
# 1 64.7774 -4.3986 10.2499 0.0000 31.1531 0.0000
# 2 -4.3986 36.8027 11.4410 0.0000 11.9349 0.0000
# 3 10.2499 11.4410 35.4861 0.0000 16.4507 0.0000
# 4 0.0000 0.0000 0.0000 7.2285 0.0000 -10.7623
# 5 31.1531 11.9349 16.4507 0.0000 35.2150 0.0000
# 6 0.0000 0.0000 0.0000 -10.7623 0.0000 6.7048
#
#
#
# Elastic Compliance Matrix: (Units=1/GPa)
#
#
# Indices 1 2 3 4 5 6 
#
# 1 0.033014 0.014715 0.002006 0.000000 -0.035130 0.000000
# 2 0.014715 0.038284 -0.005800 0.000000 -0.023283 0.000000
# 3 0.002006 -0.005800 0.037504 0.000000 -0.017329 0.000000
# 4 0.000000 0.000000 0.000000 -0.099534 0.000000 -0.159769
# 5 -0.035130 -0.023283 -0.017329 0.000000 0.075461 0.000000
# 6 0.000000 0.000000 0.000000 -0.159769 0.000000 -0.107308
#
#
# Mechanical properties :
#
#
# Convention : Reuss Voigt Hill
#
# Bulk Modulus (GPa) = 7.65442 19.07233 13.36337
# Shear Modulus (GPa) = -5735.02771 17.81457 -2858.60657
#
# Velocity S-wave (km/s) = -52.61380 2.93238 -37.14574
# Velocity P-wave (km/s) = 60.72276 4.54654 42.81695
#
# Compressibility (1/GPa) = 0.13064350
#
# Stress axis : x y z
#
# Youngs Moduli (GPa) = 30.28993 26.12042 26.66390
#
# Poissons Ratio (x) = -0.38436 -0.05348
# Poissons Ratio (y) = -0.44571 0.15465
# Poissons Ratio (z) = -0.06075 0.15149
#
# Static dielectric constant tensor:
#      x y z
#    x 1.771300 0.000000 0.029180 
#    y 0.000000 1.763390 0.000000 
#    z 0.029180 0.000000 1.753800 
# 
# From -- ./inp_files/56622.got.cif
#   From: 2010.05.17/outbox.cif.g08.bks.cpg/sg15_29_cif.got.tgz:56622.got - 2010.06.03 18:47:42.
