data_PCOD9279182
_publ_section_title
;
Structure prediction by ZEFSAII (Michael W. Deem and Ramdas Pophale) SiO2 
 PCOD9279182
Probable space group: C 2/C
;
_chemical_formula_sum "Si O2"
_cell_formula_units_Z 44
_cell_length_a 9.343080
_cell_length_b 20.056649
_cell_length_c 10.712538
_cell_angle_alpha 90.000000
_cell_angle_beta 99.315396
_cell_angle_gamma 90.000000
_cell_volume 1980.958384
_symmetry_space_group_name_H-M "C 2/C"
_symmetry_group_IT_number 15
_symmetry_cell_setting 'monoclinic'
loop_
_space_group_symop_operation_xyz
x,y,z
-x,y,1/2-z
-x,-y,-z
x,-y,1/2+z
1/2+x,1/2+y,z
1/2-x,1/2+y,1/2-z
1/2-x,1/2-y,-z
1/2+x,1/2-y,1/2+z
loop_
_atom_site_type_symbol
_atom_site_label
_atom_site_fract_x
_atom_site_fract_y
_atom_site_fract_z
Si Si1 0.656524 0.801859 0.322805
Si Si2 0.417068 0.430727 0.999768
Si Si3 0.838634 0.402187 0.710588
Si Si4 0.154740 0.248887 0.865581
Si Si5 0.171163 0.850616 0.919721
Si Si6 0.000000 0.851854 0.250000
O O1 0.500000 0.822908 0.250000
O O2 0.762404 0.800535 0.218586
O O3 0.725007 0.844907 0.443777
O O4 0.650147 0.724710 0.366111
O O5 0.260035 0.433225 0.912470
O O6 0.515550 0.380465 0.931279
O O7 0.500000 0.500000 0.000000
O O8 0.424141 0.404916 0.143435
O O9 0.859358 0.324344 0.676873
O O10 0.749868 0.396373 0.827290
O O11 0.000000 0.431277 0.750000
O O12 0.004770 0.209871 0.858813
O O13 0.250000 0.250000 0.000000
#
# Coordination Sequence:
#
# PCOD9279182 Si02
#       6
#     8   8   8   8   8   4
#     4  10  21  34  62  95 134 171 212 279 348 403
#     4  12  27  47  69  96 137 189 234 272 328 419
#     4  11  24  41  70  99 131 174 223 284 353 399
#     4  11  21  36  62  99 139 162 215 288 347 397
#     4  10  22  41  62  94 132 177 225 270 340 405
#     4  12  24  40  70 100 132 178 236 274 342 408
#
# _framework density 22.211471
#
# number of rings (size 3 to 8) (size 9 to 14) (size 15 to 20)
#    0.000    1.091    4.545    2.727    5.091    0.000 
#    0.000    1.818    0.000    0.000    0.000    0.000 
#    0.000    0.000    0.000    0.000    0.000    0.000 
#
# Total GULP energy -122559.187364 kJ/mol
# GULP energy per Si atom -5570.872153 kJ/mol
# Density = 2.216092 g / cm^3
# Si number density = 22.211471 Si / 1000 Ang^3
#
#
#
# Elastic Constant Matrix: (Units=GPa)
#
#
# Indices 1 2 3 4 5 6 
#
# 1 111.1676 0.3087 63.3133 0.0000 34.5427 0.0000
# 2 0.3087 67.1659 12.9830 0.0000 4.5916 0.0000
# 3 63.3133 12.9830 184.7894 0.0000 36.8617 0.0000
# 4 0.0000 0.0000 0.0000 16.2629 0.0000 -2.6724
# 5 34.5427 4.5916 36.8617 0.0000 44.8901 0.0000
# 6 0.0000 0.0000 0.0000 -2.6724 0.0000 27.1637
#
#
#
# Elastic Compliance Matrix: (Units=1/GPa)
#
#
# Indices 1 2 3 4 5 6 
#
# 1 0.013114 0.001052 -0.003029 0.000000 -0.007711 0.000000
# 2 0.001052 0.015202 -0.001144 0.000000 -0.001425 0.000000
# 3 -0.003029 -0.001144 0.007225 0.000000 -0.003485 0.000000
# 4 0.000000 0.000000 0.000000 0.062500 0.000000 0.006149
# 5 -0.007711 -0.001425 -0.003485 0.000000 0.031218 0.000000
# 6 0.000000 0.000000 0.000000 0.006149 0.000000 0.037419
#
#
# Mechanical properties :
#
#
# Convention : Reuss Voigt Hill
#
# Bulk Modulus (GPa) = 34.13053 57.37032 45.75042
# Shear Modulus (GPa) = 27.36943 36.76454 32.06698
#
# Velocity S-wave (km/s) = 3.51411 4.07283 3.80374
# Velocity P-wave (km/s) = 5.64489 6.92839 6.31931
#
# Compressibility (1/GPa) = 0.02929928
#
# Stress axis : x y z
#
# Youngs Moduli (GPa) = 76.25683 65.77954 138.41051
#
# Poissons Ratio (x) = -0.06922 0.41920
# Poissons Ratio (y) = -0.08025 0.15839
# Poissons Ratio (z) = 0.23096 0.07528
#
# Static dielectric constant tensor:
#      x y z
#    x 1.464320 0.000000 0.004910 
#    y 0.000000 1.734620 0.000000 
#    z 0.004910 0.000000 -0.234230 
# 
# From -- ./inp_files/78386.got.cif
#   From: 2010.05.17/outbox.cif.g08.bks.cpg/sg15_40_cif.got.tgz:78386.got - 2010.06.03 18:47:42.
