data_PCOD9279434
_publ_section_title
;
Structure prediction by ZEFSAII (Michael W. Deem and Ramdas Pophale) SiO2 
 PCOD9279434
Probable space group: C 2/C
;
_chemical_formula_sum "Si O2"
_cell_formula_units_Z 64
_cell_length_a 22.112996
_cell_length_b 11.832703
_cell_length_c 26.037033
_cell_angle_alpha 90.000000
_cell_angle_beta 31.306021
_cell_angle_gamma 90.000000
_cell_volume 3539.970368
_symmetry_space_group_name_H-M "C 2/C"
_symmetry_group_IT_number 15
_symmetry_cell_setting 'monoclinic'
loop_
_space_group_symop_operation_xyz
x,y,z
-x,y,1/2-z
-x,-y,-z
x,-y,1/2+z
1/2+x,1/2+y,z
1/2-x,1/2+y,1/2-z
1/2-x,1/2-y,-z
1/2+x,1/2-y,1/2+z
loop_
_atom_site_type_symbol
_atom_site_label
_atom_site_fract_x
_atom_site_fract_y
_atom_site_fract_z
Si Si1 0.545244 0.848740 0.888343
Si Si2 0.683365 0.378861 0.797261
Si Si3 0.259188 0.154579 0.036442
Si Si4 0.132605 0.657556 0.889405
Si Si5 0.980932 0.426839 0.135598
Si Si6 0.388587 0.729289 0.259081
Si Si7 0.101164 0.096544 0.815255
Si Si8 0.949500 0.973409 0.840041
O O1 0.677681 0.882961 0.804936
O O2 0.554193 0.717061 0.867608
O O3 0.513649 0.937894 0.866692
O O4 0.454255 0.865357 0.000707
O O5 0.643714 0.291615 0.869659
O O6 0.651917 0.323752 0.765333
O O7 0.623199 0.501067 0.842731
O O8 0.199459 0.201473 0.131598
O O9 0.187393 0.045625 0.067686
O O10 0.250000 0.250000 0.000000
O O11 0.390064 0.122582 0.955022
O O12 0.077806 0.606510 0.876606
O O13 0.265376 0.614391 0.802236
O O14 0.911883 0.360360 0.230393
O O15 0.502724 0.655563 0.189073
O O16 0.009418 0.043995 0.841666
O O17 0.000000 0.019072 0.750000
#
# Coordination Sequence:
#
# PCOD9279434 Si02
#       8
#     8   8   8   8   8   8   8   8
#     4  11  22  35  56  88 118 150 189 233 288 350
#     4   9  19  37  56  83 115 152 186 238 282 338
#     4  11  21  35  58  88 112 147 193 239 287 337
#     4  10  21  35  60  87 112 150 194 237 289 339
#     4  11  21  35  57  88 118 145 189 239 290 338
#     4   9  19  35  57  83 113 143 187 238 287 326
#     4  10  21  39  58  81 117 151 192 232 290 350
#     4   9  19  36  60  77 103 148 192 236 276 331
#
# _framework density 18.079248
#
# number of rings (size 3 to 8) (size 9 to 14) (size 15 to 20)
#    0.000    2.000    2.500    1.125    5.250    0.500 
#    0.000    3.125    2.750    0.000    0.000    0.000 
#    0.000    0.000    0.000    0.000    0.000    0.000 
#
# Total GULP energy -178248.091163 kJ/mol
# GULP energy per Si atom -5570.252849 kJ/mol
# Density = 1.803810 g / cm^3
# Si number density = 18.079248 Si / 1000 Ang^3
#
#
#
# Elastic Constant Matrix: (Units=GPa)
#
#
# Indices 1 2 3 4 5 6 
#
# 1 53.2326 15.6772 18.7677 0.0000 -11.2341 0.0000
# 2 15.6772 115.9693 15.8414 -0.0001 1.3709 0.0000
# 3 18.7677 15.8414 55.1286 -0.0004 -15.5036 0.0001
# 4 0.0000 -0.0001 -0.0004 12.8963 0.0001 -5.4133
# 5 -11.2341 1.3709 -15.5036 0.0001 17.9639 0.0000
# 6 0.0000 0.0000 0.0001 -5.4133 0.0000 19.1163
#
#
#
# Elastic Compliance Matrix: (Units=1/GPa)
#
#
# Indices 1 2 3 4 5 6 
#
# 1 0.023406 -0.002758 -0.003962 0.000000 0.011429 0.000000
# 2 -0.002758 0.009506 -0.003277 0.000000 -0.005278 0.000000
# 3 -0.003962 -0.003277 0.026150 0.000001 0.020341 0.000000
# 4 0.000000 0.000000 0.000001 0.088002 0.000000 0.024920
# 5 0.011429 -0.005278 0.020341 0.000000 0.080773 0.000000
# 6 0.000000 0.000000 0.000000 0.024920 0.000000 0.059368
#
#
# Mechanical properties :
#
#
# Convention : Reuss Voigt Hill
#
# Bulk Modulus (GPa) = 25.59575 36.10033 30.84804
# Shear Modulus (GPa) = 15.61419 21.59827 18.60623
#
# Velocity S-wave (km/s) = 2.94198 3.46011 3.21151
# Velocity P-wave (km/s) = 5.07234 5.99786 5.55441
#
# Compressibility (1/GPa) = 0.03906898
#
# Stress axis : x y z
#
# Youngs Moduli (GPa) = 42.72320 105.19824 38.24056
#
# Poissons Ratio (x) = 0.29015 0.15150
# Poissons Ratio (y) = 0.11784 0.12532
# Poissons Ratio (z) = 0.16925 0.34474
#
# Static dielectric constant tensor:
#      x y z
#    x 1.653150 0.000000 -0.024730 
#    y 0.000000 1.675050 0.000000 
#    z -0.024730 0.000000 1.619640 
# 
# From -- ./inp_files/300825.got.cif
#   From: 2010.05.17/outbox.cif.g08.bks.cpg/sg15_151_cif.got.tgz:300825.got - 2010.06.03 18:47:42.
