data_PCOD9279899
_publ_section_title
;
Structure prediction by ZEFSAII (Michael W. Deem and Ramdas Pophale) SiO2 
 PCOD9279899
Probable space group: C 2/C
;
_chemical_formula_sum "Si O2"
_cell_formula_units_Z 56
_cell_length_a 22.121394
_cell_length_b 4.997286
_cell_length_c 19.826317
_cell_angle_alpha 90.000000
_cell_angle_beta 73.950801
_cell_angle_gamma 90.000000
_cell_volume 2106.314765
_symmetry_space_group_name_H-M "C 2/C"
_symmetry_group_IT_number 15
_symmetry_cell_setting 'monoclinic'
loop_
_space_group_symop_operation_xyz
x,y,z
-x,y,1/2-z
-x,-y,-z
x,-y,1/2+z
1/2+x,1/2+y,z
1/2-x,1/2+y,1/2-z
1/2-x,1/2-y,-z
1/2+x,1/2-y,1/2+z
loop_
_atom_site_type_symbol
_atom_site_label
_atom_site_fract_x
_atom_site_fract_y
_atom_site_fract_z
Si Si1 0.842748 0.140867 0.020063
Si Si2 0.858489 0.248963 0.202399
Si Si3 0.060693 0.319319 0.194099
Si Si4 0.488713 0.507325 0.112484
Si Si5 0.270367 0.553975 0.432633
Si Si6 0.694078 0.281953 0.349603
Si Si7 0.551784 0.004049 0.056568
O O1 0.900214 0.344689 0.005781
O O2 0.835566 0.045331 0.944432
O O3 0.779443 0.309848 0.054979
O O4 0.842865 0.899314 0.072903
O O5 0.884896 0.282160 0.269209
O O6 0.838054 0.528488 0.175709
O O7 0.920141 0.119925 0.147636
O O8 0.805041 0.028199 0.202854
O O9 0.027969 0.059293 0.169661
O O10 0.083500 0.472269 0.120576
O O11 0.000000 0.451308 0.250000
O O12 0.494096 0.203961 0.088912
O O13 0.525383 0.709715 0.050612
O O14 0.250000 0.750000 0.500000
O O15 0.259497 0.697989 0.365074
#
# Coordination Sequence:
#
# PCOD9279899 Si02
#       7
#     8   8   8   8   8   8   8
#     4  10  21  40  61  90 114 149 196 249 298 347
#     4  11  21  36  58  84 124 156 197 231 290 350
#     4   8  20  35  59  81 115 154 201 233 272 333
#     4   9  21  36  53  85 113 161 191 236 276 335
#     4   9  20  38  63  86 108 148 194 244 291 349
#     4  11  22  35  58  89 116 155 190 242 294 355
#     4  10  21  36  61  86 116 148 204 240 282 337
#
# _framework density 26.586718999999999
#
# number of rings (size 3 to 8) (size 9 to 14) (size 15 to 20)
#    0.857    1.429    1.429    0.857    6.000    0.571 
#    0.000    4.286    0.000    0.000   14.857    0.000 
#    0.000    0.000    0.000    0.000    0.000    0.000 
#
# Total GULP energy -156484.263951 kJ/mol
# GULP energy per Si atom -5588.723713 kJ/mol
# Density = 2.652621 g / cm^3
# Si number density = 26.586719 Si / 1000 Ang^3
#
#
#
# Elastic Constant Matrix: (Units=GPa)
#
#
# Indices 1 2 3 4 5 6 
#
# 1 111.6549 36.3842 69.5565 0.0000 34.4866 0.0000
# 2 36.3842 147.2754 15.8277 0.0000 22.1621 0.0000
# 3 69.5565 15.8277 102.5210 0.0000 52.6928 0.0000
# 4 0.0000 0.0000 0.0000 12.7710 0.0000 7.9331
# 5 34.4866 22.1621 52.6928 0.0000 72.7810 0.0000
# 6 0.0000 0.0000 0.0000 7.9331 0.0000 39.8638
#
#
#
# Elastic Compliance Matrix: (Units=1/GPa)
#
#
# Indices 1 2 3 4 5 6 
#
# 1 0.016777 -0.003108 -0.011631 0.000000 0.001418 0.000000
# 2 -0.003108 0.007692 0.002179 0.000000 -0.002447 0.000000
# 3 -0.011631 0.002179 0.023599 0.000000 -0.012237 0.000000
# 4 0.000000 0.000000 0.000000 0.089347 0.000000 -0.017781
# 5 0.001418 -0.002447 -0.012237 0.000000 0.022673 0.000000
# 6 0.000000 0.000000 0.000000 -0.017781 0.000000 0.028624
#
#
# Mechanical properties :
#
#
# Convention : Reuss Voigt Hill
#
# Bulk Modulus (GPa) = 43.57971 67.22089 55.40030
# Shear Modulus (GPa) = 22.57523 41.06202 31.81862
#
# Velocity S-wave (km/s) = 2.91712 3.93422 3.46321
# Velocity P-wave (km/s) = 5.27003 6.78056 6.07245
#
# Compressibility (1/GPa) = 0.02294646
#
# Stress axis : x y z
#
# Youngs Moduli (GPa) = 59.60573 130.00697 42.37503
#
# Poissons Ratio (x) = 0.40407 0.49288
# Poissons Ratio (y) = 0.18526 -0.09233
# Poissons Ratio (z) = 0.69330 -0.28326
#
# Static dielectric constant tensor:
#      x y z
#    x 2.114970 0.000000 0.012190 
#    y 0.000000 2.067170 0.000000 
#    z 0.012190 0.000000 2.147540 
# 
# From -- ./inp_files/280816.got.cif
#   From: 2010.05.17/outbox.cif.g08.bks.cpg/sg15_141_cif.got.tgz:280816.got - 2010.06.03 18:47:42.
