data_PCOD9279236
_publ_section_title
;
Structure prediction by ZEFSAII (Michael W. Deem and Ramdas Pophale) SiO2 
 PCOD9279236
Probable space group: C 2/C
;
_chemical_formula_sum "Si O2"
_cell_formula_units_Z 64
_cell_length_a 20.953198
_cell_length_b 20.973398
_cell_length_c 10.103708
_cell_angle_alpha 90.000000
_cell_angle_beta 118.829377
_cell_angle_gamma 90.000000
_cell_volume 3889.856084
_symmetry_space_group_name_H-M "C 2/C"
_symmetry_group_IT_number 15
_symmetry_cell_setting 'monoclinic'
loop_
_space_group_symop_operation_xyz
x,y,z
-x,y,1/2-z
-x,-y,-z
x,-y,1/2+z
1/2+x,1/2+y,z
1/2-x,1/2+y,1/2-z
1/2-x,1/2-y,-z
1/2+x,1/2-y,1/2+z
loop_
_atom_site_type_symbol
_atom_site_label
_atom_site_fract_x
_atom_site_fract_y
_atom_site_fract_z
Si Si1 0.240650 0.424931 0.740650
Si Si2 0.583054 0.763125 0.312139
Si Si3 0.190156 0.500000 0.440156
Si Si4 0.935440 0.409042 0.285703
Si Si5 0.835530 0.705042 0.335530
Si Si6 0.916947 0.736875 0.146032
Si Si7 0.170251 0.196312 0.170251
Si Si8 0.564560 0.909042 0.914823
O O1 0.234404 0.466994 0.602811
O O2 0.234404 0.466994 0.865997
O O3 0.174011 0.372477 0.674011
O O4 0.310475 0.378621 0.810474
O O5 0.500000 0.741171 0.250000
O O6 0.578479 0.833633 0.243569
O O7 0.623002 0.772180 0.492436
O O8 0.627102 0.718404 0.256543
O O9 0.136911 0.447222 0.323451
O O10 0.136911 0.552779 0.450370
O O11 0.957558 0.423316 0.457558
O O12 0.000000 0.425554 0.250000
O O13 0.876998 0.727819 0.246433
O O14 0.751335 0.727624 0.251334
O O15 0.921522 0.666368 0.086610
O O16 0.000000 0.758830 0.250000
O O17 0.872898 0.781597 0.002340
O O18 0.500000 0.925554 0.750000
#
# Coordination Sequence:
#
# PCOD9279236 Si02
#       8
#     8   8   8   8   8   8   8   8
#     4  10  24  35  59  76 114 147 202 232 290 324
#     4  11  21  35  58  87 119 152 191 238 293 347
#     4  12  21  38  50  80 111 158 196 242 264 344
#     4  11  23  32  51  77 117 156 195 226 283 334
#     4  10  21  35  53  84 113 154 191 233 285 342
#     4  11  21  35  58  87 119 152 191 238 293 347
#     4  10  21  40  57  83 117 154 189 248 287 354
#     4  11  23  32  51  77 117 156 195 226 283 334
#
# _framework density 16.453052
#
# number of rings (size 3 to 8) (size 9 to 14) (size 15 to 20)
#    0.750    0.500    5.000    1.875    7.000    1.000 
#    0.000    1.250    0.000    0.000    0.000    2.625 
#    0.000    0.000    0.000    0.000    0.000    0.000 
#
# Total GULP energy -178583.346840 kJ/mol
# GULP energy per Si atom -5580.729589 kJ/mol
# Density = 1.641560 g / cm^3
# Si number density = 16.453052 Si / 1000 Ang^3
#
#
#
# Elastic Constant Matrix: (Units=GPa)
#
#
# Indices 1 2 3 4 5 6 
#
# 1 106.6448 45.6451 74.9960 0.0000 -5.9774 0.0000
# 2 45.6451 81.2813 54.7933 0.0000 -5.5982 0.0000
# 3 74.9960 54.7933 155.6441 0.0000 -24.0156 0.0000
# 4 0.0000 0.0000 0.0000 29.1252 0.0000 0.6555
# 5 -5.9774 -5.5982 -24.0156 0.0000 31.7514 0.0000
# 6 0.0000 0.0000 0.0000 0.6555 0.0000 30.1963
#
#
#
# Elastic Compliance Matrix: (Units=1/GPa)
#
#
# Indices 1 2 3 4 5 6 
#
# 1 0.015688 -0.004748 -0.006296 0.000000 -0.002646 0.000000
# 2 -0.004748 0.017644 -0.004055 0.000000 -0.000850 0.000000
# 3 -0.006296 -0.004055 0.011993 0.000000 0.007171 0.000000
# 4 0.000000 0.000000 0.000000 0.034351 0.000000 -0.000746
# 5 -0.002646 -0.000850 0.007171 0.000000 0.036270 0.000000
# 6 0.000000 0.000000 0.000000 -0.000746 0.000000 0.033133
#
#
# Mechanical properties :
#
#
# Convention : Reuss Voigt Hill
#
# Bulk Modulus (GPa) = 66.10602 77.15989 71.63296
# Shear Modulus (GPa) = 27.12673 29.42362 28.27517
#
# Velocity S-wave (km/s) = 4.06487 4.23346 4.15002
# Velocity P-wave (km/s) = 7.89282 8.41992 8.16063
#
# Compressibility (1/GPa) = 0.01512721
#
# Stress axis : x y z
#
# Youngs Moduli (GPa) = 63.74109 56.67579 83.38545
#
# Poissons Ratio (x) = 0.26910 0.52500
# Poissons Ratio (y) = 0.30265 0.33811
# Poissons Ratio (z) = 0.40132 0.22981
#
# Static dielectric constant tensor:
#      x y z
#    x 1.538330 0.000000 0.005460 
#    y 0.000000 1.554350 0.000000 
#    z 0.005460 0.000000 1.529410 
# 
# From -- ./inp_files/63269.got.cif
#   From: 2010.05.17/outbox.cif.g08.bks.cpg/sg15_32_cif.got.tgz:63269.got - 2010.06.03 18:47:42.
