data_PCOD9279917
_publ_section_title
;
Structure prediction by ZEFSAII (Michael W. Deem and Ramdas Pophale) SiO2 
 PCOD9279917
Probable space group: C 2/C
;
_chemical_formula_sum "Si O2"
_cell_formula_units_Z 48
_cell_length_a 5.637653
_cell_length_b 12.560918
_cell_length_c 28.789726
_cell_angle_alpha 90.000000
_cell_angle_beta 100.526743
_cell_angle_gamma 90.000000
_cell_volume 2004.406292
_symmetry_space_group_name_H-M "C 2/C"
_symmetry_group_IT_number 15
_symmetry_cell_setting 'monoclinic'
loop_
_space_group_symop_operation_xyz
x,y,z
-x,y,1/2-z
-x,-y,-z
x,-y,1/2+z
1/2+x,1/2+y,z
1/2-x,1/2+y,1/2-z
1/2-x,1/2-y,-z
1/2+x,1/2-y,1/2+z
loop_
_atom_site_type_symbol
_atom_site_label
_atom_site_fract_x
_atom_site_fract_y
_atom_site_fract_z
Si Si1 0.000000 0.619254 0.250000
Si Si2 0.478993 0.992259 0.920730
Si Si3 0.869792 0.431001 0.175712
Si Si4 0.000000 0.250646 0.250000
Si Si5 0.191749 0.212377 0.050648
Si Si6 0.936486 0.113649 0.604936
Si Si7 0.838348 0.105465 0.985360
O O1 0.090130 0.537496 0.293133
O O2 0.244558 0.684933 0.243961
O O3 0.628121 0.885068 0.932138
O O4 0.542621 0.038531 0.872432
O O5 0.192028 0.000872 0.909398
O O6 0.568280 0.068085 0.966255
O O7 0.992458 0.331404 0.205681
O O8 0.593067 0.395998 0.156281
O O9 0.237531 0.293922 0.094015
O O10 0.250000 0.250000 0.000000
O O11 0.913952 0.179347 0.030795
O O12 0.085590 0.141397 0.563766
O O13 0.000000 0.000000 0.000000
#
# Coordination Sequence:
#
# PCOD9279917 Si02
#       7
#     4   8   8   4   8   8   8
#     4  11  28  49  78 104 142 183 220 295 364 438
#     4  10  21  37  62  88 133 178 226 292 347 405
#     4  10  26  44  68 104 136 171 235 288 357 438
#     4  11  28  49  78 106 140 181 228 285 366 446
#     4   9  19  34  56  88 131 178 236 279 338 406
#     4  10  21  36  61  90 127 176 223 286 338 412
#     4   8  17  35  50  83 125 170 228 277 325 392
#
# _framework density 23.947241999999999
#
# number of rings (size 3 to 8) (size 9 to 14) (size 15 to 20)
#    0.000    2.333    0.000    0.000    7.000    8.000 
#    0.000   11.667    0.000    0.000    0.000    0.000 
#    0.000    0.000    0.000    0.000    0.000    0.000 
#
# Total GULP energy -133746.674686 kJ/mol
# GULP energy per Si atom -5572.778112 kJ/mol
# Density = 2.389274 g / cm^3
# Si number density = 23.947242 Si / 1000 Ang^3
#
#
#
# Elastic Constant Matrix: (Units=GPa)
#
#
# Indices 1 2 3 4 5 6 
#
# 1 66.7130 47.1830 49.9705 0.0000 17.2170 0.0000
# 2 47.1830 128.7184 79.3050 0.0000 14.9764 0.0000
# 3 49.9705 79.3050 151.5256 0.0000 27.4304 0.0000
# 4 0.0000 0.0000 0.0000 35.2098 0.0000 10.4975
# 5 17.2170 14.9764 27.4304 0.0000 48.7760 0.0000
# 6 0.0000 0.0000 0.0000 10.4975 0.0000 29.2011
#
#
#
# Elastic Compliance Matrix: (Units=1/GPa)
#
#
# Indices 1 2 3 4 5 6 
#
# 1 0.022886 -0.005489 -0.003916 0.000000 -0.004191 0.000000
# 2 -0.005489 0.012784 -0.005033 0.000000 0.000843 0.000000
# 3 -0.003916 -0.005033 0.011128 0.000000 -0.003330 0.000000
# 4 0.000000 0.000000 0.000000 0.031811 0.000000 -0.011436
# 5 -0.004191 0.000843 -0.003330 0.000000 0.023595 0.000000
# 6 0.000000 0.000000 0.000000 -0.011436 0.000000 0.038356
#
#
# Mechanical properties :
#
#
# Convention : Reuss Voigt Hill
#
# Bulk Modulus (GPa) = 55.79718 77.76378 66.78048
# Shear Modulus (GPa) = 28.50445 34.00396 31.25421
#
# Velocity S-wave (km/s) = 3.45382 3.77231 3.61657
# Velocity P-wave (km/s) = 6.26544 7.17755 6.73695
#
# Compressibility (1/GPa) = 0.01792205
#
# Stress axis : x y z
#
# Youngs Moduli (GPa) = 43.69395 78.22360 89.86172
#
# Poissons Ratio (x) = 0.42936 0.35191
# Poissons Ratio (y) = 0.23983 0.45229
# Poissons Ratio (z) = 0.17111 0.39372
#
# Static dielectric constant tensor:
#      x y z
#    x 2.238020 0.000000 0.008840 
#    y 0.000000 2.174930 0.000000 
#    z 0.008840 0.000000 1.851120 
# 
# From -- ./inp_files/305254.got.cif
#   From: 2010.05.17/outbox.cif.g08.bks.cpg/sg15_153_cif.got.tgz:305254.got - 2010.06.03 18:47:42.
