data_PCOD9279836
_publ_section_title
;
Structure prediction by ZEFSAII (Michael W. Deem and Ramdas Pophale) SiO2 
 PCOD9279836
Probable space group: C 2/C
;
_chemical_formula_sum "Si O2"
_cell_formula_units_Z 52
_cell_length_a 27.624144
_cell_length_b 13.825735
_cell_length_c 8.163075
_cell_angle_alpha 90.000000
_cell_angle_beta 55.516228
_cell_angle_gamma 90.000000
_cell_volume 2569.857686
_symmetry_space_group_name_H-M "C 2/C"
_symmetry_group_IT_number 15
_symmetry_cell_setting 'monoclinic'
loop_
_space_group_symop_operation_xyz
x,y,z
-x,y,1/2-z
-x,-y,-z
x,-y,1/2+z
1/2+x,1/2+y,z
1/2-x,1/2+y,1/2-z
1/2-x,1/2-y,-z
1/2+x,1/2-y,1/2+z
loop_
_atom_site_type_symbol
_atom_site_label
_atom_site_fract_x
_atom_site_fract_y
_atom_site_fract_z
Si Si1 0.620778 0.744523 0.863070
Si Si2 0.778553 0.857403 0.436708
Si Si3 0.500000 0.237159 0.750000
Si Si4 0.571711 0.872583 0.387521
Si Si5 0.692893 0.805124 0.045599
Si Si6 0.775331 0.506503 0.178159
Si Si7 0.897882 0.574060 0.339913
O O1 0.652279 0.664312 0.691224
O O2 0.615167 0.842960 0.767902
O O3 0.558679 0.714714 0.061617
O O4 0.666432 0.768081 0.923133
O O5 0.750000 0.750000 0.500000
O O6 0.751394 0.927074 0.627501
O O7 0.764621 0.916990 0.298550
O O8 0.474847 0.176449 0.644267
O O9 0.632667 0.810922 0.263353
O O10 0.560154 0.885577 0.600263
O O11 0.580069 0.978863 0.293464
O O12 0.750000 0.750000 0.000000
O O13 0.716169 0.914166 0.981239
O O14 0.840488 0.460967 0.053390
#
# Coordination Sequence:
#
# PCOD9279836 Si02
#       7
#     8   8   4   8   8   8   8
#     4  11  24  42  64  90 140 178 220 279 329 392
#     4  12  24  40  65  98 136 180 210 282 342 402
#     4  10  24  46  60  94 130 186 232 280 328 400
#     4  10  22  35  61  87 130 175 219 274 333 407
#     4  10  21  36  59  96 130 172 215 272 335 407
#     4  11  22  37  61  98 140 168 213 270 343 419
#     4  11  21  39  61  98 131 173 221 271 343 414
#
# _framework density 20.234584999999999
#
# number of rings (size 3 to 8) (size 9 to 14) (size 15 to 20)
#    0.000    1.231    3.077    4.615    6.462    3.077 
#    0.000    0.000    0.000    0.923    0.000    0.000 
#    0.000    0.000    0.000    0.000    0.000    0.000 
#
# Total GULP energy -144974.052572 kJ/mol
# GULP energy per Si atom -5575.925099 kJ/mol
# Density = 2.018853 g / cm^3
# Si number density = 20.234585 Si / 1000 Ang^3
#
#
#
# Elastic Constant Matrix: (Units=GPa)
#
#
# Indices 1 2 3 4 5 6 
#
# 1 124.9607 34.3934 53.1060 0.0000 -9.9015 0.0000
# 2 34.3934 73.6748 39.1588 0.0000 -13.0682 0.0000
# 3 53.1060 39.1588 108.7899 0.0000 -23.4274 0.0000
# 4 0.0000 0.0000 0.0000 23.7316 0.0000 13.6159
# 5 -9.9015 -13.0682 -23.4274 0.0000 39.6801 0.0000
# 6 0.0000 0.0000 0.0000 13.6159 0.0000 16.0386
#
#
#
# Elastic Compliance Matrix: (Units=1/GPa)
#
#
# Indices 1 2 3 4 5 6 
#
# 1 0.010537 -0.002767 -0.004328 0.000000 -0.000837 0.000000
# 2 -0.002767 0.017688 -0.004480 0.000000 0.002490 0.000000
# 3 -0.004328 -0.004480 0.014168 0.000000 0.005810 0.000000
# 4 0.000000 0.000000 0.000000 0.082152 0.000000 -0.069743
# 5 -0.000837 0.002490 0.005810 0.000000 0.029243 0.000000
# 6 0.000000 0.000000 0.000000 -0.069743 0.000000 0.121558
#
#
# Mechanical properties :
#
#
# Convention : Reuss Voigt Hill
#
# Bulk Modulus (GPa) = 51.96580 62.30466 57.13523
# Shear Modulus (GPa) = 16.39831 27.94121 22.16976
#
# Velocity S-wave (km/s) = 2.84986 3.72003 3.31363
# Velocity P-wave (km/s) = 6.04701 7.02207 6.55270
#
# Compressibility (1/GPa) = 0.01924342
#
# Stress axis : x y z
#
# Youngs Moduli (GPa) = 94.90285 56.53686 70.58017
#
# Poissons Ratio (x) = 0.15645 0.30547
# Poissons Ratio (y) = 0.26261 0.31617
# Poissons Ratio (z) = 0.41074 0.25327
#
# Static dielectric constant tensor:
#      x y z
#    x 1.791250 0.000000 -0.011620 
#    y 0.000000 1.700440 0.000000 
#    z -0.011620 0.000000 2.024390 
# 
# From -- ./inp_files/65366.got.cif
#   From: 2010.05.17/outbox.cif.g08.bks.cpg/sg15_33_cif.got.tgz:65366.got - 2010.06.03 18:47:42.
