data_PCOD9279953
_publ_section_title
;
Structure prediction by ZEFSAII (Michael W. Deem and Ramdas Pophale) SiO2 
 PCOD9279953
Probable space group: C 2/C
;
_chemical_formula_sum "Si O2"
_cell_formula_units_Z 64
_cell_length_a 23.721635
_cell_length_b 8.475043
_cell_length_c 22.519998
_cell_angle_alpha 90.000000
_cell_angle_beta 47.655784
_cell_angle_gamma 90.000000
_cell_volume 3346.299723
_symmetry_space_group_name_H-M "C 2/C"
_symmetry_group_IT_number 15
_symmetry_cell_setting 'monoclinic'
loop_
_space_group_symop_operation_xyz
x,y,z
-x,y,1/2-z
-x,-y,-z
x,-y,1/2+z
1/2+x,1/2+y,z
1/2-x,1/2+y,1/2-z
1/2-x,1/2-y,-z
1/2+x,1/2-y,1/2+z
loop_
_atom_site_type_symbol
_atom_site_label
_atom_site_fract_x
_atom_site_fract_y
_atom_site_fract_z
Si Si1 0.758054 0.578601 0.303806
Si Si2 0.593796 0.019792 0.733275
Si Si3 0.935148 0.609070 0.377623
Si Si4 0.455141 0.727190 0.150101
Si Si5 0.489350 0.383404 0.415475
Si Si6 0.382030 0.247476 0.584197
Si Si7 0.847607 0.781130 0.146233
Si Si8 0.093158 0.422766 0.996132
O O1 0.823103 0.514065 0.300890
O O2 0.704584 0.712930 0.371172
O O3 0.802343 0.655243 0.217608
O O4 0.701742 0.439139 0.323990
O O5 0.569999 0.198977 0.769004
O O6 0.587637 0.949457 0.671516
O O7 0.525737 0.930617 0.816026
O O8 0.883583 0.506234 0.458929
O O9 0.940821 0.784360 0.400856
O O10 0.490395 0.553534 0.125187
O O11 0.386027 0.733096 0.152256
O O12 0.516776 0.834666 0.071355
O O13 0.436311 0.373069 0.511975
O O14 0.570191 0.312100 0.381172
O O15 0.411511 0.075349 0.543544
O O16 0.859440 0.706131 0.072843
#
# Coordination Sequence:
#
# PCOD9279953 Si02
#       8
#     8   8   8   8   8   8   8   8
#     4  12  24  36  59  91 132 157 194 256 324 368
#     4  10  21  40  60  84 122 168 206 251 304 362
#     4   9  21  41  63  81 113 168 220 247 287 363
#     4  11  19  35  62  94 122 152 204 257 308 362
#     4  11  21  37  64  93 123 160 208 255 301 375
#     4  11  21  36  59  96 129 160 198 254 318 377
#     4  12  22  37  58  95 127 157 197 252 324 376
#     4  10  21  36  62  85 119 163 206 249 300 366
#
# _framework density 19.125603000000002
#
# number of rings (size 3 to 8) (size 9 to 14) (size 15 to 20)
#    0.000    1.250    3.750    3.750    1.750    0.000 
#    0.000    8.125    0.000    0.000    0.000    0.000 
#    0.000    0.000    0.000    0.000    0.000    0.000 
#
# Total GULP energy -178149.980176 kJ/mol
# GULP energy per Si atom -5567.186880 kJ/mol
# Density = 1.908207 g / cm^3
# Si number density = 19.125603 Si / 1000 Ang^3
#
#
#
# Elastic Constant Matrix: (Units=GPa)
#
#
# Indices 1 2 3 4 5 6 
#
# 1 68.7331 37.1644 46.7551 -0.0001 -1.7696 -0.0002
# 2 37.1644 86.9178 38.0762 -0.0027 14.4695 0.0002
# 3 46.7551 38.0762 95.1675 -0.0013 2.0622 0.0005
# 4 -0.0001 -0.0027 -0.0013 33.7075 0.0005 -2.1520
# 5 -1.7696 14.4695 2.0622 0.0005 30.5672 0.0000
# 6 -0.0002 0.0002 0.0005 -2.1520 0.0000 15.7346
#
#
#
# Elastic Compliance Matrix: (Units=1/GPa)
#
#
# Indices 1 2 3 4 5 6 
#
# 1 0.025259 -0.007588 -0.009497 -0.000001 0.005695 0.000001
# 2 -0.007588 0.017527 -0.003100 0.000001 -0.008527 0.000000
# 3 -0.009497 -0.003100 0.016418 0.000000 -0.000190 0.000000
# 4 -0.000001 0.000001 0.000000 0.029928 -0.000001 0.004093
# 5 0.005695 -0.008527 -0.000190 -0.000001 0.037094 0.000000
# 6 0.000001 0.000000 0.000000 0.004093 0.000000 0.064114
#
#
# Mechanical properties :
#
#
# Convention : Reuss Voigt Hill
#
# Bulk Modulus (GPa) = 53.09460 54.97886 54.03673
# Shear Modulus (GPa) = 21.09822 24.59005 22.84413
#
# Velocity S-wave (km/s) = 3.32496 3.58957 3.45980
# Velocity P-wave (km/s) = 6.52394 6.78150 6.65396
#
# Compressibility (1/GPa) = 0.01883431
#
# Stress axis : x y z
#
# Youngs Moduli (GPa) = 39.59043 57.05489 60.90901
#
# Poissons Ratio (x) = 0.43292 0.57845
# Poissons Ratio (y) = 0.30040 0.18881
# Poissons Ratio (z) = 0.37599 0.17686
#
# Static dielectric constant tensor:
#      x y z
#    x 1.683990 0.000000 0.009460 
#    y 0.000000 1.744570 0.000000 
#    z 0.009460 0.000000 1.674000 
# 
# From -- ./inp_files/281492.got.cif
#   From: 2010.05.17/outbox.cif.g08.bks.cpg/sg15_141_cif.got.tgz:281492.got - 2010.06.03 18:47:42.
