data_PCOD9279578
_publ_section_title
;
Structure prediction by ZEFSAII (Michael W. Deem and Ramdas Pophale) SiO2 
 PCOD9279578
Probable space group: C 2/C
;
_chemical_formula_sum "Si O2"
_cell_formula_units_Z 56
_cell_length_a 30.814476
_cell_length_b 9.121697
_cell_length_c 10.893546
_cell_angle_alpha 90.000000
_cell_angle_beta 67.917554
_cell_angle_gamma 90.000000
_cell_volume 2837.347638
_symmetry_space_group_name_H-M "C 2/C"
_symmetry_group_IT_number 15
_symmetry_cell_setting 'monoclinic'
loop_
_space_group_symop_operation_xyz
x,y,z
-x,y,1/2-z
-x,-y,-z
x,-y,1/2+z
1/2+x,1/2+y,z
1/2-x,1/2+y,1/2-z
1/2-x,1/2-y,-z
1/2+x,1/2-y,1/2+z
loop_
_atom_site_type_symbol
_atom_site_label
_atom_site_fract_x
_atom_site_fract_y
_atom_site_fract_z
Si Si1 0.424263 0.561602 0.547999
Si Si2 0.789716 0.345121 0.119420
Si Si3 0.894545 0.228134 0.960386
Si Si4 0.118776 0.674482 0.298083
Si Si5 0.047381 0.416289 0.419526
Si Si6 0.023106 0.133981 0.344936
Si Si7 0.722799 0.930626 0.645754
O O1 0.403253 0.443536 0.476359
O O2 0.391021 0.699315 0.593839
O O3 0.476872 0.628315 0.479309
O O4 0.433089 0.458592 0.656504
O O5 0.844687 0.295788 0.059846
O O6 0.761452 0.192636 0.134884
O O7 0.774768 0.431438 0.260802
O O8 0.779181 0.439783 0.003758
O O9 0.935926 0.312389 0.987341
O O10 0.896852 0.260665 0.815216
O O11 0.087936 0.532051 0.354231
O O12 0.172610 0.636291 0.232947
O O13 0.000000 0.500000 0.500000
O O14 0.039046 0.301886 0.317518
O O15 0.000000 0.067939 0.250000
#
# Coordination Sequence:
#
# PCOD9279578 Si02
#       7
#     8   8   8   8   8   8   8
#     4  10  21  38  55  82 117 156 204 242 299 362
#     4  10  22  44  66  96 125 161 206 259 321 379
#     4  10  23  40  60  87 123 158 202 259 307 370
#     4  11  22  39  62  86 119 162 202 255 313 363
#     4  11  22  37  56  87 118 158 206 247 301 371
#     4  10  21  36  53  80 116 154 201 249 291 354
#     4  10  23  42  68  93 126 159 206 260 317 382
#
# _framework density 19.736744000000002
#
# number of rings (size 3 to 8) (size 9 to 14) (size 15 to 20)
#    0.000    1.714    2.857    0.857    4.000    0.571 
#    0.000    1.429    0.000    0.000    0.000    0.000 
#    0.000    0.000    0.000    0.000    0.000    0.000 
#
# Total GULP energy -155909.860049 kJ/mol
# GULP energy per Si atom -5568.209287 kJ/mol
# Density = 1.969182 g / cm^3
# Si number density = 19.736744 Si / 1000 Ang^3
#
#
#
# Elastic Constant Matrix: (Units=GPa)
#
#
# Indices 1 2 3 4 5 6 
#
# 1 66.5035 9.0739 4.8081 0.0000 -0.8121 0.0000
# 2 9.0739 81.9979 22.4134 0.0000 -0.2797 0.0000
# 3 4.8081 22.4134 29.9722 0.0000 -3.1319 0.0000
# 4 0.0000 0.0000 0.0000 24.2760 0.0000 -1.2738
# 5 -0.8121 -0.2797 -3.1319 0.0000 27.3636 0.0000
# 6 0.0000 0.0000 0.0000 -1.2738 0.0000 24.6697
#
#
#
# Elastic Compliance Matrix: (Units=1/GPa)
#
#
# Indices 1 2 3 4 5 6 
#
# 1 0.015322 -0.001295 -0.001461 0.000000 0.000274 0.000000
# 2 -0.001295 0.015475 -0.011490 0.000000 -0.001195 0.000000
# 3 -0.001461 -0.011490 0.042684 0.000000 0.004725 0.000000
# 4 0.000000 0.000000 0.000000 0.041305 0.000000 0.002133
# 5 0.000274 -0.001195 0.004725 0.000000 0.037082 0.000000
# 6 0.000000 0.000000 0.000000 0.002133 0.000000 0.040646
#
#
# Mechanical properties :
#
#
# Convention : Reuss Voigt Hill
#
# Bulk Modulus (GPa) = 22.22679 27.89603 25.06141
# Shear Modulus (GPa) = 21.18620 24.74039 22.96330
#
# Velocity S-wave (km/s) = 3.27989 3.54435 3.41468
# Velocity P-wave (km/s) = 5.06258 5.56009 5.31716
#
# Compressibility (1/GPa) = 0.04499075
#
# Stress axis : x y z
#
# Youngs Moduli (GPa) = 65.26351 64.61911 23.42781
#
# Poissons Ratio (x) = 0.08371 0.03422
# Poissons Ratio (y) = 0.08454 0.26918
# Poissons Ratio (z) = 0.09533 0.74245
#
# Static dielectric constant tensor:
#      x y z
#    x 1.577500 0.000000 0.075750 
#    y 0.000000 1.742040 0.000000 
#    z 0.075750 0.000000 1.797620 
# 
# From -- ./inp_files/121886.got.cif
#   From: 2010.05.17/outbox.cif.g08.bks.cpg/sg15_61_cif.got.tgz:121886.got - 2010.06.03 18:47:42.
