data_PCOD9279231
_publ_section_title
;
Structure prediction by ZEFSAII (Michael W. Deem and Ramdas Pophale) SiO2 
 PCOD9279231
Probable space group: C 2/C
;
_chemical_formula_sum "Si O2"
_cell_formula_units_Z 40
_cell_length_a 20.822026
_cell_length_b 15.282663
_cell_length_c 5.292889
_cell_angle_alpha 90.000000
_cell_angle_beta 68.366394
_cell_angle_gamma 90.000000
_cell_volume 1565.641863
_symmetry_space_group_name_H-M "C 2/C"
_symmetry_group_IT_number 15
_symmetry_cell_setting 'monoclinic'
loop_
_space_group_symop_operation_xyz
x,y,z
-x,y,1/2-z
-x,-y,-z
x,-y,1/2+z
1/2+x,1/2+y,z
1/2-x,1/2+y,1/2-z
1/2-x,1/2-y,-z
1/2+x,1/2-y,1/2+z
loop_
_atom_site_type_symbol
_atom_site_label
_atom_site_fract_x
_atom_site_fract_y
_atom_site_fract_z
Si Si1 0.407113 0.530385 0.763945
Si Si2 0.128160 0.778856 0.367861
Si Si3 0.457733 0.885086 0.549176
Si Si4 0.720843 0.397044 0.531724
Si Si5 0.309507 0.882990 0.909426
O O1 0.440010 0.478749 0.486560
O O2 0.397157 0.631086 0.713855
O O3 0.335073 0.475086 0.894442
O O4 0.067838 0.710460 0.516805
O O5 0.176487 0.810260 0.527348
O O6 0.171767 0.720280 0.109803
O O7 0.500000 0.875478 0.750000
O O8 0.383489 0.926806 0.734081
O O9 0.500000 0.925032 0.250000
O O10 0.760179 0.392552 0.738540
O O11 0.774495 0.408560 0.222241
#
# Coordination Sequence:
#
# PCOD9279231 Si02
#       5
#     8   8   8   8   8
#     4  10  21  35  53  80 120 157 185 226 296 357
#     4   9  22  35  60  82 126 154 193 240 297 347
#     4  10  22  37  56  82 118 160 205 238 274 340
#     4  11  19  36  55  89 116 155 187 245 309 352
#     4  10  22  33  60  84 119 152 195 245 296 345
#
# _framework density 25.548628999999998
#
# number of rings (size 3 to 8) (size 9 to 14) (size 15 to 20)
#    1.200    0.800    0.000    4.800    0.000    8.000 
#    0.000    0.000    0.000   14.400    0.000    0.000 
#    0.000  224.000    0.000    0.000    0.000    0.000 
#
# Total GULP energy -111783.263580 kJ/mol
# GULP energy per Si atom -5589.163179 kJ/mol
# Density = 2.549048 g / cm^3
# Si number density = 25.548629 Si / 1000 Ang^3
#
#
#
# Elastic Constant Matrix: (Units=GPa)
#
#
# Indices 1 2 3 4 5 6 
#
# 1 134.6406 -14.0014 41.9130 0.0000 6.6176 0.0000
# 2 -14.0014 88.2162 -10.8455 0.0000 -7.9151 0.0000
# 3 41.9130 -10.8455 188.3280 0.0000 -1.2012 0.0000
# 4 0.0000 0.0000 0.0000 32.0556 0.0000 -6.0346
# 5 6.6176 -7.9151 -1.2012 0.0000 44.4309 0.0000
# 6 0.0000 0.0000 0.0000 -6.0346 0.0000 2.7829
#
#
#
# Elastic Compliance Matrix: (Units=1/GPa)
#
#
# Indices 1 2 3 4 5 6 
#
# 1 0.008130 0.000977 -0.001760 0.000000 -0.001084 0.000000
# 2 0.000977 0.011724 0.000470 0.000000 0.001956 0.000000
# 3 -0.001760 0.000470 0.005732 0.000000 0.000501 0.000000
# 4 0.000000 0.000000 0.000000 0.052715 0.000000 0.114309
# 5 -0.001084 0.001956 0.000501 0.000000 0.023030 0.000000
# 6 0.000000 0.000000 0.000000 0.114309 0.000000 0.607206
#
#
# Mechanical properties :
#
#
# Convention : Reuss Voigt Hill
#
# Bulk Modulus (GPa) = 40.06444 49.47967 44.77206
# Shear Modulus (GPa) = 6.96881 42.12845 24.54863
#
# Velocity S-wave (km/s) = 1.65336 4.06513 3.10314
# Velocity P-wave (km/s) = 4.40005 6.43760 5.51376
#
# Compressibility (1/GPa) = 0.02495979
#
# Stress axis : x y z
#
# Youngs Moduli (GPa) = 123.00226 85.29432 174.46346
#
# Poissons Ratio (x) = -0.08331 0.30706
# Poissons Ratio (y) = -0.12013 -0.08205
# Poissons Ratio (z) = 0.21649 -0.04011
#
# Static dielectric constant tensor:
#      x y z
#    x 2.099160 0.000000 -0.047960 
#    y 0.000000 2.011610 0.000000 
#    z -0.047960 0.000000 2.031020 
# 
# From -- ./inp_files/15267.got.cif
#   From: 2010.05.17/outbox.cif.g08.bks.cpg/sg15_8_cif.got.tgz:15267.got - 2010.06.03 18:47:42.
