data_PCOD9279680
_publ_section_title
;
Structure prediction by ZEFSAII (Michael W. Deem and Ramdas Pophale) SiO2 
 PCOD9279680
Probable space group: C 2/C
;
_chemical_formula_sum "Si O2"
_cell_formula_units_Z 64
_cell_length_a 30.264547
_cell_length_b 9.739436
_cell_length_c 17.404794
_cell_angle_alpha 90.000000
_cell_angle_beta 31.569854
_cell_angle_gamma 90.000000
_cell_volume 2685.869045
_symmetry_space_group_name_H-M "C 2/C"
_symmetry_group_IT_number 15
_symmetry_cell_setting 'monoclinic'
loop_
_space_group_symop_operation_xyz
x,y,z
-x,y,1/2-z
-x,-y,-z
x,-y,1/2+z
1/2+x,1/2+y,z
1/2-x,1/2+y,1/2-z
1/2-x,1/2-y,-z
1/2+x,1/2-y,1/2+z
loop_
_atom_site_type_symbol
_atom_site_label
_atom_site_fract_x
_atom_site_fract_y
_atom_site_fract_z
Si Si1 0.005675 0.315964 0.640552
Si Si2 0.246911 0.562817 0.163553
Si Si3 0.237124 0.432868 0.858178
Si Si4 0.074911 0.332425 0.894852
Si Si5 0.691853 0.806857 0.516522
Si Si6 0.422096 0.480830 0.415200
Si Si7 0.060963 0.379551 0.091779
Si Si8 0.908007 0.967516 0.106809
O O1 0.996668 0.341930 0.562819
O O2 0.907348 0.297588 0.813338
O O3 0.053161 0.176046 0.593695
O O4 0.051044 0.452503 0.605078
O O5 0.239044 0.522577 0.264658
O O6 0.153056 0.561444 0.268471
O O7 0.279735 0.718594 0.100382
O O8 0.332704 0.495548 0.004925
O O9 0.336942 0.416534 0.726007
O O10 0.210810 0.538910 0.963366
O O11 0.156385 0.334560 0.972085
O O12 0.113549 0.179828 0.826011
O O13 0.043526 0.342743 0.028907
O O14 0.750000 0.750000 0.500000
O O15 0.500000 0.525533 0.250000
O O16 0.415187 0.555591 0.505763
O O17 0.000000 0.333120 0.250000
O O18 0.000000 0.000000 0.000000
#
# Coordination Sequence:
#
# PCOD9279680 Si02
#       8
#     8   8   8   8   8   8   8   8
#     4  12  21  36  61  94 120 149 202 263 308 356
#     4  10  21  36  56  88 120 158 193 253 316 364
#     4  10  22  38  58  89 123 156 203 255 314 366
#     4  11  23  40  60  86 124 162 202 248 313 374
#     4  12  20  35  65  92 120 155 208 260 309 367
#     4  11  22  34  58  89 119 148 202 260 301 356
#     4  11  23  40  63  89 122 163 202 254 311 368
#     4  11  22  40  59  83 119 166 199 248 312 367
#
# _framework density 23.828413999999999
#
# number of rings (size 3 to 8) (size 9 to 14) (size 15 to 20)
#    0.000    1.000    6.250    1.500    0.000    0.500 
#    0.000    0.000    0.000    0.750    0.000    0.000 
#    0.000    0.000    0.000    0.000    0.000    0.000 
#
# Total GULP energy -178238.569023 kJ/mol
# GULP energy per Si atom -5569.955282 kJ/mol
# Density = 2.377418 g / cm^3
# Si number density = 23.828414 Si / 1000 Ang^3
#
#
#
# Elastic Constant Matrix: (Units=GPa)
#
#
# Indices 1 2 3 4 5 6 
#
# 1 119.6630 18.5704 45.9645 0.0000 -15.9360 0.0000
# 2 18.5704 74.2551 5.0862 0.0004 -3.1425 -0.0001
# 3 45.9645 5.0862 155.0547 0.0001 -13.6578 0.0000
# 4 0.0000 0.0004 0.0001 17.1808 0.0000 9.4264
# 5 -15.9360 -3.1425 -13.6578 0.0000 43.7195 0.0000
# 6 0.0000 -0.0001 0.0000 9.4264 0.0000 30.0904
#
#
#
# Elastic Compliance Matrix: (Units=1/GPa)
#
#
# Indices 1 2 3 4 5 6 
#
# 1 0.010089 -0.002226 -0.002682 0.000000 0.002680 0.000000
# 2 -0.002226 0.014020 0.000223 0.000000 0.000266 0.000000
# 3 -0.002682 0.000223 0.007355 0.000000 0.001336 0.000000
# 4 0.000000 0.000000 0.000000 0.070285 0.000000 -0.022018
# 5 0.002680 0.000266 0.001336 0.000000 0.024286 0.000000
# 6 0.000000 0.000000 0.000000 -0.022018 0.000000 0.040131
#
#
# Mechanical properties :
#
#
# Convention : Reuss Voigt Hill
#
# Bulk Modulus (GPa) = 45.25944 54.24610 49.75277
# Shear Modulus (GPa) = 27.33740 36.82160 32.07950
#
# Velocity S-wave (km/s) = 3.39080 3.93527 3.67314
# Velocity P-wave (km/s) = 5.86218 6.59266 6.23812
#
# Compressibility (1/GPa) = 0.02209484
#
# Stress axis : x y z
#
# Youngs Moduli (GPa) = 99.11513 71.32779 135.96762
#
# Poissons Ratio (x) = 0.15878 0.36464
# Poissons Ratio (y) = 0.22064 -0.03038
# Poissons Ratio (z) = 0.26581 -0.01594
#
# Static dielectric constant tensor:
#      x y z
#    x 1.937190 0.000000 -0.028340 
#    y 0.000000 2.015380 0.000000 
#    z -0.028340 0.000000 2.003070 
# 
# From -- ./inp_files/225179.got.cif
#   From: 2010.05.17/outbox.cif.g08.bks.cpg/sg15_113_cif.got.tgz:225179.got - 2010.06.03 18:47:42.
