data_PCOD9279211
_publ_section_title
;
Structure prediction by ZEFSAII (Michael W. Deem and Ramdas Pophale) SiO2 
 PCOD9279211
Probable space group: C 2/C
;
_chemical_formula_sum "Si O2"
_cell_formula_units_Z 64
_cell_length_a 15.956030
_cell_length_b 17.255434
_cell_length_c 19.533170
_cell_angle_alpha 90.000000
_cell_angle_beta 144.975555
_cell_angle_gamma 90.000000
_cell_volume 3086.592265
_symmetry_space_group_name_H-M "C 2/C"
_symmetry_group_IT_number 15
_symmetry_cell_setting 'monoclinic'
loop_
_space_group_symop_operation_xyz
x,y,z
-x,y,1/2-z
-x,-y,-z
x,-y,1/2+z
1/2+x,1/2+y,z
1/2-x,1/2+y,1/2-z
1/2-x,1/2-y,-z
1/2+x,1/2-y,1/2+z
loop_
_atom_site_type_symbol
_atom_site_label
_atom_site_fract_x
_atom_site_fract_y
_atom_site_fract_z
Si Si1 0.923473 0.307402 0.407228
Si Si2 0.045728 0.007679 0.917925
Si Si3 0.901813 0.706931 0.619899
Si Si4 0.696897 0.239312 0.170881
Si Si5 0.797499 0.082464 0.183494
Si Si6 0.175338 0.540280 0.958992
Si Si7 0.113975 0.517869 0.660536
Si Si8 0.130972 0.091833 0.596793
O O1 0.771899 0.260215 0.294345
O O2 0.894354 0.399310 0.383995
O O3 0.010775 0.292103 0.394059
O O4 0.029620 0.286177 0.541348
O O5 0.935774 0.972166 0.789235
O O6 0.209509 0.014836 0.000771
O O7 0.048531 0.938295 0.975710
O O8 0.977003 0.081473 0.910350
O O9 0.750000 0.750000 0.500000
O O10 0.868677 0.615970 0.613519
O O11 0.000000 0.735780 0.750000
O O12 0.795685 0.171062 0.205931
O O13 0.697194 0.323350 0.134683
O O14 0.669321 0.044309 0.143772
O O15 0.758497 0.078078 0.078791
O O16 0.033644 0.501504 0.897568
O O17 0.240471 0.531556 0.800802
#
# Coordination Sequence:
#
# PCOD9279211 Si02
#       8
#     8   8   8   8   8   8   8   8
#     4  10  21  35  51  80 105 149 181 225 272 347
#     4  10  22  37  57  78 115 149 192 226 281 344
#     4  11  24  34  49  76 118 154 178 224 283 346
#     4  11  20  34  57  79 110 140 194 224 283 330
#     4  11  21  37  56  85 110 147 185 242 283 347
#     4  11  23  33  55  82 111 146 188 231 285 337
#     4   9  20  38  56  78 113 145 194 222 290 342
#     4   9  21  39  55  78 112 156 184 231 276 346
#
# _framework density 20.734839999999998
#
# number of rings (size 3 to 8) (size 9 to 14) (size 15 to 20)
#    0.000    1.750    2.500    2.250    8.750    0.000 
#    0.000    0.000    0.000    0.750    0.000    0.000 
#    7.500    0.000    0.000    0.000    0.000    0.000 
#
# Total GULP energy -178497.243330 kJ/mol
# GULP energy per Si atom -5578.038854 kJ/mol
# Density = 2.068765 g / cm^3
# Si number density = 20.734840 Si / 1000 Ang^3
#
#
#
# Elastic Constant Matrix: (Units=GPa)
#
#
# Indices 1 2 3 4 5 6 
#
# 1 86.2780 29.6248 11.0820 0.0010 24.1676 0.0007
# 2 29.6248 62.4807 6.3216 0.0010 -0.1093 0.0007
# 3 11.0820 6.3216 112.3535 0.0016 6.8943 0.0017
# 4 0.0010 0.0010 0.0016 30.7111 0.0012 5.3959
# 5 24.1676 -0.1093 6.8943 0.0012 25.7886 0.0010
# 6 0.0007 0.0007 0.0017 5.3959 0.0010 10.8262
#
#
#
# Elastic Compliance Matrix: (Units=1/GPa)
#
#
# Indices 1 2 3 4 5 6 
#
# 1 0.020217 -0.009589 -0.000294 0.000000 -0.018908 0.000001
# 2 -0.009589 0.020647 -0.000786 0.000000 0.009284 -0.000001
# 3 -0.000294 -0.000786 0.009106 0.000000 -0.002162 -0.000001
# 4 0.000000 0.000000 0.000000 0.035687 -0.000001 -0.017787
# 5 -0.018908 0.009284 -0.002162 -0.000001 0.057114 -0.000004
# 6 0.000001 -0.000001 -0.000001 -0.017787 -0.000004 0.101234
#
#
# Mechanical properties :
#
#
# Convention : Reuss Voigt Hill
#
# Bulk Modulus (GPa) = 34.92497 39.46322 37.19410
# Shear Modulus (GPa) = 18.18919 27.73743 22.96331
#
# Velocity S-wave (km/s) = 2.96502 3.66145 3.33148
# Velocity P-wave (km/s) = 5.34808 6.07854 5.72497
#
# Compressibility (1/GPa) = 0.02863281
#
# Stress axis : x y z
#
# Youngs Moduli (GPa) = 49.46245 48.43240 109.81322
#
# Poissons Ratio (x) = 0.46443 0.03232
# Poissons Ratio (y) = 0.47431 0.08627
# Poissons Ratio (z) = 0.01456 0.03805
#
# Static dielectric constant tensor:
#      x y z
#    x 1.767200 0.000000 0.029330 
#    y 0.000000 1.739000 0.000000 
#    z 0.029330 0.000000 1.841760 
# 
# From -- ./inp_files/206473.got.cif
#   From: 2010.05.17/outbox.cif.g08.bks.cpg/sg15_104_cif.got.tgz:206473.got - 2010.06.03 18:47:42.
