data_PCOD9279919
_publ_section_title
;
Structure prediction by ZEFSAII (Michael W. Deem and Ramdas Pophale) SiO2 
 PCOD9279919
Probable space group: C 2/C
;
_chemical_formula_sum "Si O2"
_cell_formula_units_Z 64
_cell_length_a 23.538743
_cell_length_b 14.142867
_cell_length_c 21.808847
_cell_angle_alpha 90.000000
_cell_angle_beta 159.760360
_cell_angle_gamma 90.000000
_cell_volume 2511.675419
_symmetry_space_group_name_H-M "C 2/C"
_symmetry_group_IT_number 15
_symmetry_cell_setting 'monoclinic'
loop_
_space_group_symop_operation_xyz
x,y,z
-x,y,1/2-z
-x,-y,-z
x,-y,1/2+z
1/2+x,1/2+y,z
1/2-x,1/2+y,1/2-z
1/2-x,1/2-y,-z
1/2+x,1/2-y,1/2+z
loop_
_atom_site_type_symbol
_atom_site_label
_atom_site_fract_x
_atom_site_fract_y
_atom_site_fract_z
Si Si1 0.271176 0.122345 0.297207
Si Si2 0.550420 0.585924 0.233926
Si Si3 0.417123 0.619933 0.791294
Si Si4 0.227531 0.613036 0.859367
Si Si5 0.720864 0.897643 0.835385
Si Si6 0.610233 0.333753 0.094856
Si Si7 0.390376 0.914425 0.047237
Si Si8 0.918992 0.632145 0.105026
O O1 0.281780 0.082864 0.239708
O O2 0.362436 0.222505 0.383681
O O3 0.354830 0.069289 0.438398
O O4 0.076140 0.137792 0.112024
O O5 0.500000 0.552601 0.250000
O O6 0.568715 0.491709 0.210628
O O7 0.728267 0.633153 0.410270
O O8 0.398863 0.649151 0.058924
O O9 0.370415 0.634644 0.815150
O O10 0.267992 0.659926 0.599704
O O11 0.606127 0.653261 0.974584
O O12 0.225725 0.500561 0.871159
O O13 0.252850 0.625948 0.812507
O O14 0.057962 0.644124 0.717108
O O15 0.554036 0.849002 0.688765
O O16 0.405109 0.016849 0.093460
O O17 0.000000 0.666500 0.250000
#
# Coordination Sequence:
#
# PCOD9279919 Si02
#       8
#     8   8   8   8   8   8   8   8
#     4  11  23  40  61  90 128 164 208 256 320 382
#     4  10  21  37  60  88 127 161 204 257 307 367
#     4   9  22  35  59  88 120 162 202 252 312 372
#     4  10  21  36  61  91 124 155 205 257 322 371
#     4   9  22  36  59  92 121 157 204 258 320 374
#     4  11  23  40  62  91 126 168 205 259 321 379
#     4  10  22  35  58  92 120 162 201 251 313 375
#     4  10  22  36  59  91 126 159 206 253 312 367
#
# _framework density 25.480999000000001
#
# number of rings (size 3 to 8) (size 9 to 14) (size 15 to 20)
#    0.000    2.000    1.250    0.750   17.500    2.500 
#    0.000    0.000    0.000    3.000    0.000    0.000 
#    0.000    0.000    0.000    0.000    0.000    0.000 
#
# Total GULP energy -178870.028925 kJ/mol
# GULP energy per Si atom -5589.688404 kJ/mol
# Density = 2.542300 g / cm^3
# Si number density = 25.480999 Si / 1000 Ang^3
#
#
#
# Elastic Constant Matrix: (Units=GPa)
#
#
# Indices 1 2 3 4 5 6 
#
# 1 87.5085 7.7504 39.0036 0.0011 18.4847 -0.0011
# 2 7.7504 66.2369 18.0177 -0.0109 4.1043 -0.0079
# 3 39.0036 18.0177 138.5752 -0.0053 22.2402 -0.0049
# 4 0.0011 -0.0109 -0.0053 8.2085 -0.0027 28.6237
# 5 18.4847 4.1043 22.2402 -0.0027 55.2447 -0.0012
# 6 -0.0011 -0.0079 -0.0049 28.6237 -0.0012 -13.6200
#
#
#
# Elastic Compliance Matrix: (Units=1/GPa)
#
#
# Indices 1 2 3 4 5 6 
#
# 1 0.013596 -0.000509 -0.003246 -0.000001 -0.003205 -0.000001
# 2 -0.000509 0.015677 -0.001855 0.000006 -0.000247 0.000004
# 3 -0.003246 -0.001855 0.008739 0.000001 -0.002294 0.000001
# 4 -0.000001 0.000006 0.000001 0.014628 0.000001 0.030741
# 5 -0.003205 -0.000247 -0.002294 0.000001 0.020116 0.000001
# 6 -0.000001 0.000004 0.000001 0.030741 0.000001 -0.008816
#
#
# Mechanical properties :
#
#
# Convention : Reuss Voigt Hill
#
# Bulk Modulus (GPa) = 37.32603 46.87379 42.09991
# Shear Modulus (GPa) = 59.45847 25.13656 42.29752
#
# Velocity S-wave (km/s) = 4.83581 3.14424 4.07868
# Velocity P-wave (km/s) = 6.77204 5.62292 6.22405
#
# Compressibility (1/GPa) = 0.02679095
#
# Stress axis : x y z
#
# Youngs Moduli (GPa) = 73.54882 63.78804 114.42367
#
# Poissons Ratio (x) = 0.03249 0.37146
# Poissons Ratio (y) = 0.03746 0.21229
# Poissons Ratio (z) = 0.23876 0.11834
#
# Static dielectric constant tensor:
#      x y z
#    x 1.991010 0.000000 0.022870 
#    y 0.000000 2.019000 0.000000 
#    z 0.022870 0.000000 2.114170 
# 
# From -- ./inp_files/256016.got.cif
#   From: 2010.05.17/outbox.cif.g08.bks.cpg/sg15_129_cif.got.tgz:256016.got - 2010.06.03 18:47:42.
