data_PCOD9279315
_publ_section_title
;
Structure prediction by ZEFSAII (Michael W. Deem and Ramdas Pophale) SiO2 
 PCOD9279315
Probable space group: C 2/C
;
_chemical_formula_sum "Si O2"
_cell_formula_units_Z 64
_cell_length_a 22.798643
_cell_length_b 19.828679
_cell_length_c 8.237042
_cell_angle_alpha 90.000000
_cell_angle_beta 119.717679
_cell_angle_gamma 90.000000
_cell_volume 3233.949101
_symmetry_space_group_name_H-M "C 2/C"
_symmetry_group_IT_number 15
_symmetry_cell_setting 'monoclinic'
loop_
_space_group_symop_operation_xyz
x,y,z
-x,y,1/2-z
-x,-y,-z
x,-y,1/2+z
1/2+x,1/2+y,z
1/2-x,1/2+y,1/2-z
1/2-x,1/2-y,-z
1/2+x,1/2-y,1/2+z
loop_
_atom_site_type_symbol
_atom_site_label
_atom_site_fract_x
_atom_site_fract_y
_atom_site_fract_z
Si Si1 0.450389 0.835027 0.033873
Si Si2 0.157392 0.567487 0.951378
Si Si3 0.055647 0.310644 0.941822
Si Si4 0.424492 0.685737 0.957868
Si Si5 0.186461 0.069407 0.328058
Si Si6 0.160368 0.416545 0.064770
Si Si7 0.578028 0.322544 0.654891
Si Si8 0.685001 0.418845 0.217149
O O1 0.500000 0.814384 0.250000
O O2 0.395276 0.886301 0.024001
O O3 0.506120 0.858900 0.980476
O O4 0.418194 0.765827 0.923083
O O5 0.154321 0.580751 0.753554
O O6 0.235097 0.580099 0.113347
O O7 0.142442 0.489257 0.967398
O O8 0.000000 0.277226 0.750000
O O9 0.111557 0.357449 0.939425
O O10 0.089153 0.251571 0.093981
O O11 0.367348 0.638721 0.804271
O O12 0.418516 0.680010 0.145101
O O13 0.499464 0.661639 0.010870
O O14 0.133894 0.122827 0.181441
O O15 0.184956 0.076245 0.521079
O O16 0.167443 0.992939 0.258142
O O17 0.238228 0.403194 0.128019
#
# Coordination Sequence:
#
# PCOD9279315 Si02
#       8
#     8   8   8   8   8   8   8   8
#     4  11  19  37  56  76 105 137 179 222 260 315
#     4  10  21  35  57  80 107 141 178 216 265 310
#     4  11  23  37  54  79 109 139 176 223 268 309
#     4   9  16  33  60  80 102 140 177 220 259 313
#     4   9  19  36  55  81 109 140 174 220 261 315
#     4  10  21  37  54  79 109 141 177 220 260 315
#     4   9  17  35  57  77 110 137 177 217 264 313
#     4   9  19  35  56  80 109 139 177 216 265 312
#
# _framework density 19.790044999999999
#
# number of rings (size 3 to 8) (size 9 to 14) (size 15 to 20)
#    0.000    2.250    3.750    0.000    1.750    2.500 
#    4.500    3.750    0.000    3.750    0.000    0.000 
#    0.000    0.000    0.000    0.000    0.000    0.000 
#
# Total GULP energy -178387.034521 kJ/mol
# GULP energy per Si atom -5574.594829 kJ/mol
# Density = 1.974500 g / cm^3
# Si number density = 19.790045 Si / 1000 Ang^3
#
#
#
# Elastic Constant Matrix: (Units=GPa)
#
#
# Indices 1 2 3 4 5 6 
#
# 1 61.9266 59.2317 9.2811 0.0000 23.9481 0.0000
# 2 59.2317 111.5005 32.8982 0.0000 43.5606 0.0000
# 3 9.2811 32.8982 37.7601 0.0000 17.3966 0.0000
# 4 0.0000 0.0000 0.0000 30.7770 0.0000 6.8542
# 5 23.9481 43.5606 17.3966 0.0000 23.6525 0.0000
# 6 0.0000 0.0000 0.0000 6.8542 0.0000 42.6836
#
#
#
# Elastic Compliance Matrix: (Units=1/GPa)
#
#
# Indices 1 2 3 4 5 6 
#
# 1 0.036638 -0.018073 0.012851 0.000000 -0.013262 0.000000
# 2 -0.018073 0.040920 -0.007441 0.000000 -0.051589 0.000000
# 3 0.012851 -0.007441 0.044602 0.000000 -0.032113 0.000000
# 4 0.000000 0.000000 0.000000 0.033697 0.000000 -0.005411
# 5 -0.013262 -0.051589 -0.032113 0.000000 0.174338 0.000000
# 6 0.000000 0.000000 0.000000 -0.005411 0.000000 0.024297
#
#
# Mechanical properties :
#
#
# Convention : Reuss Voigt Hill
#
# Bulk Modulus (GPa) = 10.32703 46.00103 28.16403
# Shear Modulus (GPa) = 12.13313 26.74104 19.43708
#
# Velocity S-wave (km/s) = 2.47876 3.67991 3.13735
# Velocity P-wave (km/s) = 3.66360 6.43044 5.23319
#
# Compressibility (1/GPa) = 0.09683325
#
# Stress axis : x y z
#
# Youngs Moduli (GPa) = 27.29434 24.43811 22.42050
#
# Poissons Ratio (x) = 0.44168 -0.28813
# Poissons Ratio (y) = 0.49330 0.16683
# Poissons Ratio (z) = -0.35076 0.18184
#
# Static dielectric constant tensor:
#      x y z
#    x 1.725310 0.000000 -0.044210 
#    y 0.000000 1.662400 0.000000 
#    z -0.044210 0.000000 1.758400 
# 
# From -- ./inp_files/57885.got.cif
#   From: 2010.05.17/outbox.cif.g08.bks.cpg/sg15_29_cif.got.tgz:57885.got - 2010.06.03 18:47:42.
