data_PCOD9279475
_publ_section_title
;
Structure prediction by ZEFSAII (Michael W. Deem and Ramdas Pophale) SiO2 
 PCOD9279475
Probable space group: C 2/C
;
_chemical_formula_sum "Si O2"
_cell_formula_units_Z 40
_cell_length_a 29.754494
_cell_length_b 12.339826
_cell_length_c 15.526649
_cell_angle_alpha 90.000000
_cell_angle_beta 163.621838
_cell_angle_gamma 90.000000
_cell_volume 1607.500718
_symmetry_space_group_name_H-M "C 2/C"
_symmetry_group_IT_number 15
_symmetry_cell_setting 'monoclinic'
loop_
_space_group_symop_operation_xyz
x,y,z
-x,y,1/2-z
-x,-y,-z
x,-y,1/2+z
1/2+x,1/2+y,z
1/2-x,1/2+y,1/2-z
1/2-x,1/2-y,-z
1/2+x,1/2-y,1/2+z
loop_
_atom_site_type_symbol
_atom_site_label
_atom_site_fract_x
_atom_site_fract_y
_atom_site_fract_z
Si Si1 0.132476 0.485557 0.115801
Si Si2 0.501616 0.688438 0.991582
Si Si3 0.591342 0.343055 0.841311
Si Si4 0.168048 0.410318 0.869987
Si Si5 0.394255 0.572178 0.481054
O O1 0.232636 0.373518 0.303384
O O2 0.165947 0.533396 0.272830
O O3 0.223788 0.552553 0.211233
O O4 0.943360 0.471572 0.766456
O O5 0.348687 0.610696 0.727018
O O6 0.421512 0.796981 0.809112
O O7 0.605330 0.633290 0.108165
O O8 0.585657 0.707914 0.237069
O O9 0.500000 0.282390 0.750000
O O10 0.493020 0.458308 0.651821
O O11 0.500000 0.631563 0.750000
#
# Coordination Sequence:
#
# PCOD9279475 Si02
#       5
#     8   8   8   8   8
#     4   9  19  40  58  79 127 157 194 240 306 353
#     4  11  20  36  64  91 118 152 204 246 302 348
#     4   9  19  37  62  81 113 167 203 231 289 371
#     4  10  21  35  61  92 119 151 193 258 300 349
#     4   9  17  35  57  84 113 162 192 235 292 363
#
# _framework density 24.883348999999999
#
# number of rings (size 3 to 8) (size 9 to 14) (size 15 to 20)
#    0.000    2.800    4.000    0.600    0.000    0.800 
#    7.200    4.000    0.000    0.000    0.000    0.000 
#    0.000    0.000    0.000    0.000    0.000    0.000 
#
# Total GULP energy -111808.912696 kJ/mol
# GULP energy per Si atom -5590.445635 kJ/mol
# Density = 2.482671 g / cm^3
# Si number density = 24.883349 Si / 1000 Ang^3
#
#
#
# Elastic Constant Matrix: (Units=GPa)
#
#
# Indices 1 2 3 4 5 6 
#
# 1 188.5873 18.6737 89.8705 0.0000 26.5128 0.0000
# 2 18.6737 25.3721 16.0032 0.0000 11.8482 0.0000
# 3 89.8705 16.0032 82.7530 0.0000 43.7287 0.0000
# 4 0.0000 0.0000 0.0000 27.1170 0.0000 15.4890
# 5 26.5128 11.8482 43.7287 0.0000 61.3352 0.0000
# 6 0.0000 0.0000 0.0000 15.4890 0.0000 -20.4024
#
#
#
# Elastic Compliance Matrix: (Units=1/GPa)
#
#
# Indices 1 2 3 4 5 6 
#
# 1 0.012654 -0.001817 -0.017146 0.000000 0.007105 0.000000
# 2 -0.001817 0.045764 -0.004205 0.000000 -0.005057 0.000000
# 3 -0.017146 -0.004205 0.043597 0.000000 -0.022859 0.000000
# 4 0.000000 0.000000 0.000000 0.025723 0.000000 0.019528
# 5 0.007105 -0.005057 -0.022859 0.000000 0.030506 0.000000
# 6 0.000000 0.000000 0.000000 0.019528 0.000000 -0.034189
#
#
# Mechanical properties :
#
#
# Convention : Reuss Voigt Hill
#
# Bulk Modulus (GPa) = 17.95953 60.64523 39.30238
# Shear Modulus (GPa) = 26.46180 25.08763 25.77472
#
# Velocity S-wave (km/s) = 3.26457 3.17868 3.22191
# Velocity P-wave (km/s) = 4.63067 6.15603 5.44701
#
# Compressibility (1/GPa) = 0.05568075
#
# Stress axis : x y z
#
# Youngs Moduli (GPa) = 79.02349 21.85112 22.93736
#
# Poissons Ratio (x) = 0.03970 0.39328
# Poissons Ratio (y) = 0.14357 0.09644
# Poissons Ratio (z) = 1.35494 0.09188
#
# Static dielectric constant tensor:
#      x y z
#    x 1.965510 0.000000 0.018470 
#    y 0.000000 2.021230 0.000000 
#    z 0.018470 0.000000 2.008690 
# 
# From -- ./inp_files/178496.got.cif
#   From: 2010.05.17/outbox.cif.g08.bks.cpg/sg15_90_cif.got.tgz:178496.got - 2010.06.03 18:47:42.
