data_PCOD9279324
_publ_section_title
;
Structure prediction by ZEFSAII (Michael W. Deem and Ramdas Pophale) SiO2 
 PCOD9279324
Probable space group: C 2/C
;
_chemical_formula_sum "Si O2"
_cell_formula_units_Z 40
_cell_length_a 8.332763
_cell_length_b 30.091096
_cell_length_c 9.149293
_cell_angle_alpha 90.000000
_cell_angle_beta 128.202557
_cell_angle_gamma 90.000000
_cell_volume 1802.780228
_symmetry_space_group_name_H-M "C 2/C"
_symmetry_group_IT_number 15
_symmetry_cell_setting 'monoclinic'
loop_
_space_group_symop_operation_xyz
x,y,z
-x,y,1/2-z
-x,-y,-z
x,-y,1/2+z
1/2+x,1/2+y,z
1/2-x,1/2+y,1/2-z
1/2-x,1/2-y,-z
1/2+x,1/2-y,1/2+z
loop_
_atom_site_type_symbol
_atom_site_label
_atom_site_fract_x
_atom_site_fract_y
_atom_site_fract_z
Si Si1 0.000000 0.131461 0.250000
Si Si2 0.341203 0.683808 0.426417
Si Si3 0.353141 0.447773 0.825530
Si Si4 0.500000 0.246004 0.250000
Si Si5 0.766893 0.902828 0.061700
Si Si6 0.296299 0.961094 0.222961
O O1 0.007611 0.162551 0.109680
O O2 0.168268 0.094944 0.291187
O O3 0.434579 0.720188 0.586847
O O4 0.248572 0.645028 0.477220
O O5 0.156680 0.712476 0.258051
O O6 0.407107 0.451555 0.489588
O O7 0.272906 0.494913 0.726131
O O8 0.241505 0.436678 0.914040
O O9 0.653742 0.920371 0.140115
O O10 0.000000 0.904642 0.250000
O O11 0.500000 0.970193 0.250000
#
# Coordination Sequence:
#
# PCOD9279324 Si02
#       6
#     4   8   8   4   8   8
#     4  10  22  40  63  86 124 158 197 242 300 356
#     4  10  21  41  64  90 119 155 194 246 309 365
#     4   9  21  37  54  82 121 161 198 246 294 339
#     4  10  22  40  67  90 116 150 193 252 312 368
#     4   9  18  37  58  79 119 159 196 243 300 348
#     4  10  21  35  57  85 116 164 212 243 283 346
#
# _framework density 22.187951000000002
#
# number of rings (size 3 to 8) (size 9 to 14) (size 15 to 20)
#    0.000    2.400    1.000    0.000    7.000    3.200 
#    7.200    0.000    8.800    0.000    0.000    0.000 
#    0.000    0.000    0.000    0.000    0.000    0.000 
#
# Total GULP energy -111335.849419 kJ/mol
# GULP energy per Si atom -5566.792471 kJ/mol
# Density = 2.213745 g / cm^3
# Si number density = 22.187951 Si / 1000 Ang^3
#
#
#
# Elastic Constant Matrix: (Units=GPa)
#
#
# Indices 1 2 3 4 5 6 
#
# 1 95.1354 46.5449 42.8382 0.0000 -9.2970 0.0000
# 2 46.5449 134.1608 54.6168 0.0000 -15.9631 0.0000
# 3 42.8382 54.6168 48.7530 0.0000 -18.3164 0.0000
# 4 0.0000 0.0000 0.0000 37.8939 0.0000 -16.8237
# 5 -9.2970 -15.9631 -18.3164 0.0000 28.1477 0.0000
# 6 0.0000 0.0000 0.0000 -16.8237 0.0000 29.4827
#
#
#
# Elastic Compliance Matrix: (Units=1/GPa)
#
#
# Indices 1 2 3 4 5 6 
#
# 1 0.018114 0.000730 -0.018968 0.000000 -0.005946 0.000000
# 2 0.000730 0.013919 -0.017442 0.000000 -0.003215 0.000000
# 3 -0.018968 -0.017442 0.067038 0.000000 0.027466 0.000000
# 4 0.000000 0.000000 0.000000 0.035343 0.000000 0.020168
# 5 -0.005946 -0.003215 0.027466 0.000000 0.049612 0.000000
# 6 0.000000 0.000000 0.000000 0.020168 0.000000 0.045427
#
#
# Mechanical properties :
#
#
# Convention : Reuss Voigt Hill
#
# Bulk Modulus (GPa) = 36.08880 62.89431 49.49156
# Shear Modulus (GPa) = 16.12642 28.04149 22.08395
#
# Velocity S-wave (km/s) = 2.69887 3.55888 3.15828
# Velocity P-wave (km/s) = 5.10021 6.73017 5.97107
#
# Compressibility (1/GPa) = 0.02770942
#
# Stress axis : x y z
#
# Youngs Moduli (GPa) = 55.20502 71.84655 14.91699
#
# Poissons Ratio (x) = -0.05246 0.28295
# Poissons Ratio (y) = -0.04031 0.26018
# Poissons Ratio (z) = 1.04716 1.25316
#
# Static dielectric constant tensor:
#      x y z
#    x 1.878790 0.000000 0.047860 
#    y 0.000000 1.814250 0.000000 
#    z 0.047860 0.000000 1.891060 
# 
# From -- ./inp_files/33181.got.cif
#   From: 2010.05.17/outbox.cif.g08.bks.cpg/sg15_17_cif.got.tgz:33181.got - 2010.06.03 18:47:42.
