data_PCOD9279497
_publ_section_title
;
Structure prediction by ZEFSAII (Michael W. Deem and Ramdas Pophale) SiO2 
 PCOD9279497
Probable space group: C 2/C
;
_chemical_formula_sum "Si O2"
_cell_formula_units_Z 56
_cell_length_a 27.346157
_cell_length_b 17.441448
_cell_length_c 18.341050
_cell_angle_alpha 90.000000
_cell_angle_beta 160.827036
_cell_angle_gamma 90.000000
_cell_volume 2872.988853
_symmetry_space_group_name_H-M "C 2/C"
_symmetry_group_IT_number 15
_symmetry_cell_setting 'monoclinic'
loop_
_space_group_symop_operation_xyz
x,y,z
-x,y,1/2-z
-x,-y,-z
x,-y,1/2+z
1/2+x,1/2+y,z
1/2-x,1/2+y,1/2-z
1/2-x,1/2-y,-z
1/2+x,1/2-y,1/2+z
loop_
_atom_site_type_symbol
_atom_site_label
_atom_site_fract_x
_atom_site_fract_y
_atom_site_fract_z
Si Si1 0.838201 0.897696 0.872696
Si Si2 0.791580 0.342912 0.661717
Si Si3 0.667126 0.439244 0.353692
Si Si4 0.329443 0.752535 0.031717
Si Si5 0.833253 0.678655 0.989734
Si Si6 0.121853 0.720474 0.609951
Si Si7 0.169822 0.434026 0.494846
O O1 0.739187 0.880389 0.803610
O O2 0.886841 0.812632 0.913483
O O3 0.746479 0.942178 0.681782
O O4 0.989759 0.939749 0.107634
O O5 0.738384 0.401121 0.525212
O O6 0.698031 0.263877 0.523169
O O7 0.961109 0.316657 0.893852
O O8 0.720697 0.382745 0.364163
O O9 0.733260 0.521506 0.427820
O O10 0.500000 0.727703 0.250000
O O11 0.250000 0.750000 0.000000
O O12 0.223974 0.710432 0.824529
O O13 0.331357 0.843438 0.019391
O O14 0.000000 0.657723 0.250000
O O15 0.817206 0.686641 0.880239
O O16 0.000000 0.462278 0.250000
#
# Coordination Sequence:
#
# PCOD9279497 Si02
#       7
#     8   8   8   8   8   8   8
#     4  10  22  39  60  87 127 166 208 259 313 380
#     4  11  21  35  61  95 128 160 207 260 319 373
#     4  12  21  38  60  91 129 171 200 251 321 398
#     4  10  24  44  69  92 119 164 226 283 321 365
#     4  11  20  33  55  91 129 161 199 245 313 384
#     4  10  21  35  62  92 123 161 208 263 312 385
#     4  10  24  42  61  86 122 170 215 261 318 380
#
# _framework density 19.491895
#
# number of rings (size 3 to 8) (size 9 to 14) (size 15 to 20)
#    0.000    1.429    2.857    3.429    8.000    0.000 
#    0.000    3.571    0.000    0.000    0.000    0.000 
#    0.000    0.000    0.000    0.000    0.000    0.000 
#
# Total GULP energy -156287.237027 kJ/mol
# GULP energy per Si atom -5581.687037 kJ/mol
# Density = 1.944753 g / cm^3
# Si number density = 19.491895 Si / 1000 Ang^3
#
#
#
# Elastic Constant Matrix: (Units=GPa)
#
#
# Indices 1 2 3 4 5 6 
#
# 1 100.5871 7.2093 64.6906 0.0000 -6.1625 0.0000
# 2 7.2093 21.0874 19.3995 0.0000 -4.6609 0.0000
# 3 64.6906 19.3995 128.0989 0.0000 -14.1406 0.0000
# 4 0.0000 0.0000 0.0000 -4.5296 0.0000 8.7663
# 5 -6.1625 -4.6609 -14.1406 0.0000 26.3603 0.0000
# 6 0.0000 0.0000 0.0000 8.7663 0.0000 24.7325
#
#
#
# Elastic Compliance Matrix: (Units=1/GPa)
#
#
# Indices 1 2 3 4 5 6 
#
# 1 0.014807 0.002059 -0.007831 0.000000 -0.000375 0.000000
# 2 0.002059 0.056172 -0.008926 0.000000 0.005625 0.000000
# 3 -0.007831 -0.008926 0.013538 0.000000 0.003853 0.000000
# 4 0.000000 0.000000 0.000000 -0.130946 0.000000 0.046413
# 5 -0.000375 0.005625 0.003853 0.000000 0.040910 0.000000
# 6 0.000000 0.000000 0.000000 0.046413 0.000000 0.023982
#
#
# Mechanical properties :
#
#
# Convention : Reuss Voigt Hill
#
# Bulk Modulus (GPa) = 18.14135 48.04134 33.09134
# Shear Modulus (GPa) = 75.49088 19.87759 47.68424
#
# Velocity S-wave (km/s) = 6.23004 3.19688 4.95144
# Velocity P-wave (km/s) = 7.81528 6.19088 7.05002
#
# Compressibility (1/GPa) = 0.05512270
#
# Stress axis : x y z
#
# Youngs Moduli (GPa) = 67.53345 17.80235 73.86455
#
# Poissons Ratio (x) = -0.03666 0.57844
# Poissons Ratio (y) = -0.13905 0.65929
# Poissons Ratio (z) = 0.52886 0.15890
#
# Static dielectric constant tensor:
#      x y z
#    x 1.697670 0.000000 0.013180 
#    y 0.000000 1.662760 0.000000 
#    z 0.013180 0.000000 1.694000 
# 
# From -- ./inp_files/222990.got.cif
#   From: 2010.05.17/outbox.cif.g08.bks.cpg/sg15_112_cif.got.tgz:222990.got - 2010.06.03 18:47:42.
