data_PCOD9279213
_publ_section_title
;
Structure prediction by ZEFSAII (Michael W. Deem and Ramdas Pophale) SiO2 
 PCOD9279213
Probable space group: C 2/C
;
_chemical_formula_sum "Si O2"
_cell_formula_units_Z 64
_cell_length_a 7.229841
_cell_length_b 27.487696
_cell_length_c 20.157755
_cell_angle_alpha 90.000000
_cell_angle_beta 135.834681
_cell_angle_gamma 90.000000
_cell_volume 2791.093603
_symmetry_space_group_name_H-M "C 2/C"
_symmetry_group_IT_number 15
_symmetry_cell_setting 'monoclinic'
loop_
_space_group_symop_operation_xyz
x,y,z
-x,y,1/2-z
-x,-y,-z
x,-y,1/2+z
1/2+x,1/2+y,z
1/2-x,1/2+y,1/2-z
1/2-x,1/2-y,-z
1/2+x,1/2-y,1/2+z
loop_
_atom_site_type_symbol
_atom_site_label
_atom_site_fract_x
_atom_site_fract_y
_atom_site_fract_z
Si Si1 0.440264 0.871102 0.357421
Si Si2 0.010583 0.871102 0.142580
Si Si3 0.147417 0.695482 0.464185
Si Si4 0.979412 0.518294 0.602030
Si Si5 0.709322 0.695483 0.464184
Si Si6 0.274745 0.328084 0.750000
Si Si7 0.571291 0.518294 0.897970
Si Si8 0.275754 0.560651 0.250001
O O1 0.216050 0.869687 0.358025
O O2 0.522517 0.927543 0.369618
O O3 0.687561 0.840222 0.450293
O O4 0.280565 0.854337 0.250001
O O5 0.044049 0.927543 0.130384
O O6 0.886394 0.840222 0.049709
O O7 0.250000 0.750000 0.500000
O O8 0.916487 0.685281 0.458244
O O9 0.995272 0.691439 0.354250
O O10 0.214683 0.520465 0.607341
O O11 0.045476 0.473078 0.664604
O O12 0.720775 0.499999 0.500001
O O13 0.750000 0.750000 0.500000
O O14 0.421726 0.691439 0.354249
O O15 0.500000 0.323730 0.750000
O O16 0.216768 0.384333 0.750000
O O17 0.387071 0.473076 0.835401
O O18 0.500000 0.563189 0.250000
#
# Coordination Sequence:
#
# PCOD9279213 Si02
#       8
#     8   8   8   8   8   8   8   8
#     4   9  16  27  42  65  95 125 158 197 240 284
#     4   9  16  27  42  65  95 125 158 197 240 284
#     4  10  21  35  52  71  96 130 166 205 247 287
#     4   9  14  20  34  58  89 124 154 180 222 285
#     4  10  21  35  52  71  96 130 166 205 247 287
#     4   9  18  32  46  67  99 131 161 197 244 295
#     4   9  14  20  34  58  89 124 154 180 222 285
#     4   9  14  22  37  59  91 127 153 177 226 291
#
# _framework density 22.93008
#
# number of rings (size 3 to 8) (size 9 to 14) (size 15 to 20)
#    0.000    2.750    1.250    1.500    1.750    6.000 
#    0.000    0.000    0.000    0.000    0.000    0.000 
#    0.000   11.000    0.000    0.000    0.000    0.000 
#
# Total GULP energy -178419.151732 kJ/mol
# GULP energy per Si atom -5575.598492 kJ/mol
# Density = 2.287789 g / cm^3
# Si number density = 22.930080 Si / 1000 Ang^3
#
#
#
# Elastic Constant Matrix: (Units=GPa)
#
#
# Indices 1 2 3 4 5 6 
#
# 1 106.6435 -7.4989 6.3555 0.0000 -2.3815 0.0000
# 2 -7.4989 156.8300 117.8709 0.0000 2.1016 0.0000
# 3 6.3555 117.8709 283.8425 -0.0002 5.3486 -0.0001
# 4 0.0000 0.0000 -0.0002 36.1173 0.0000 0.7666
# 5 -2.3815 2.1016 5.3486 0.0000 -20.6270 0.0000
# 6 0.0000 0.0000 -0.0001 0.7666 0.0000 -9.4812
#
#
#
# Elastic Compliance Matrix: (Units=1/GPa)
#
#
# Indices 1 2 3 4 5 6 
#
# 1 0.009447 0.000887 -0.000558 0.000000 -0.001145 0.000000
# 2 0.000887 0.009353 -0.003901 0.000000 -0.000161 0.000000
# 3 -0.000558 -0.003901 0.005137 0.000000 0.000999 0.000000
# 4 0.000000 0.000000 0.000000 0.027640 0.000000 0.002235
# 5 -0.001145 -0.000161 0.000999 0.000000 -0.048105 0.000000
# 6 0.000000 0.000000 0.000000 0.002235 0.000000 -0.105291
#
#
# Mechanical properties :
#
#
# Convention : Reuss Voigt Hill
#
# Bulk Modulus (GPa) = 59.55311 86.75234 73.15273
# Shear Modulus (GPa) = -56.13046 29.90771 -13.11138
#
# Velocity S-wave (km/s) = -4.95299 3.61543 -2.39382
# Velocity P-wave (km/s) = 2.58486 7.43935 4.93267
#
# Compressibility (1/GPa) = 0.01679173
#
# Stress axis : x y z
#
# Youngs Moduli (GPa) = 105.85305 106.92292 194.68266
#
# Poissons Ratio (x) = -0.09479 0.10865
# Poissons Ratio (y) = -0.09384 0.75939
# Poissons Ratio (z) = 0.05908 0.41707
#
# Static dielectric constant tensor:
#      x y z
#    x 1.958150 0.000000 -0.002480 
#    y 0.000000 1.783370 0.000000 
#    z -0.002480 0.000000 1.809950 
# 
# From -- ./inp_files/293901.got.cif
#   From: 2010.05.17/outbox.cif.g08.bks.cpg/sg15_147_cif.got.tgz:293901.got - 2010.06.03 18:47:42.
