data_PCOD9279248
_publ_section_title
;
Structure prediction by ZEFSAII (Michael W. Deem and Ramdas Pophale) SiO2 
 PCOD9279248
Probable space group: C 2/C
;
_chemical_formula_sum "Si O2"
_cell_formula_units_Z 48
_cell_length_a 14.614502
_cell_length_b 13.423471
_cell_length_c 14.535847
_cell_angle_alpha 90.000000
_cell_angle_beta 44.387914
_cell_angle_gamma 90.000000
_cell_volume 1994.732865
_symmetry_space_group_name_H-M "C 2/C"
_symmetry_group_IT_number 15
_symmetry_cell_setting 'monoclinic'
loop_
_space_group_symop_operation_xyz
x,y,z
-x,y,1/2-z
-x,-y,-z
x,-y,1/2+z
1/2+x,1/2+y,z
1/2-x,1/2+y,1/2-z
1/2-x,1/2-y,-z
1/2+x,1/2-y,1/2+z
loop_
_atom_site_type_symbol
_atom_site_label
_atom_site_fract_x
_atom_site_fract_y
_atom_site_fract_z
Si Si1 0.378531 0.732662 0.505340
Si Si2 0.751946 0.748747 0.631196
Si Si3 0.151437 0.538154 0.163838
Si Si4 0.872416 0.323145 0.236470
Si Si5 0.997059 0.190215 0.616978
Si Si6 0.906832 0.985536 0.904487
O O1 0.221070 0.741926 0.627748
O O2 0.471979 0.804344 0.378865
O O3 0.428904 0.733496 0.574574
O O4 0.409321 0.621980 0.448314
O O5 0.707778 0.863902 0.672465
O O6 0.821809 0.706691 0.671992
O O7 0.867321 0.748213 0.472632
O O8 0.614121 0.692592 0.725409
O O9 0.155262 0.438149 0.222065
O O10 0.000000 0.555585 0.250000
O O11 0.252534 0.515155 0.007152
O O12 0.035030 0.075307 0.576268
O O13 0.000000 0.981205 0.750000
#
# Coordination Sequence:
#
# PCOD9279248 Si02
#       6
#     8   8   8   8   8   8
#     4   9  18  35  56  80 109 147 194 241 281 335
#     4   9  19  36  58  82 110 151 194 235 282 342
#     4  10  22  39  57  83 122 155 184 237 301 346
#     4   9  19  36  58  82 110 151 194 235 282 342
#     4   9  18  35  56  80 109 147 194 241 281 335
#     4  10  21  35  54  81 112 151 192 233 288 350
#
# _framework density 24.063372999999999
#
# number of rings (size 3 to 8) (size 9 to 14) (size 15 to 20)
#    0.000    2.667    0.000    0.500    0.000    8.000 
#    0.000   14.167    0.000    0.000    0.000    0.000 
#    0.000    0.000    0.000    0.000    0.000    0.000 
#
# Total GULP energy -133939.293797 kJ/mol
# GULP energy per Si atom -5580.803908 kJ/mol
# Density = 2.400860 g / cm^3
# Si number density = 24.063373 Si / 1000 Ang^3
#
#
#
# Elastic Constant Matrix: (Units=GPa)
#
#
# Indices 1 2 3 4 5 6 
#
# 1 81.4129 4.4184 51.7654 0.0000 -20.4178 0.0000
# 2 4.4184 76.2315 19.7048 0.0000 -2.7381 0.0000
# 3 51.7654 19.7048 185.2999 0.0000 -13.7881 0.0000
# 4 0.0000 0.0000 0.0000 43.0186 0.0000 -3.5889
# 5 -20.4178 -2.7381 -13.7881 0.0000 32.3178 0.0000
# 6 0.0000 0.0000 0.0000 -3.5889 0.0000 18.3718
#
#
#
# Elastic Compliance Matrix: (Units=1/GPa)
#
#
# Indices 1 2 3 4 5 6 
#
# 1 0.017200 0.000409 -0.004170 0.000000 0.009122 0.000000
# 2 0.000409 0.013508 -0.001494 0.000000 0.000765 0.000000
# 3 -0.004170 -0.001494 0.006728 0.000000 0.000110 0.000000
# 4 0.000000 0.000000 0.000000 0.023631 0.000000 0.004616
# 5 0.009122 0.000765 0.000110 0.000000 0.036818 0.000000
# 6 0.000000 0.000000 0.000000 0.004616 0.000000 0.055333
#
#
# Mechanical properties :
#
#
# Convention : Reuss Voigt Hill
#
# Bulk Modulus (GPa) = 37.13771 54.96906 46.05338
# Shear Modulus (GPa) = 28.95150 36.54538 32.74844
#
# Velocity S-wave (km/s) = 3.47239 3.90130 3.69307
# Velocity P-wave (km/s) = 5.61635 6.57165 6.11269
#
# Compressibility (1/GPa) = 0.02692681
#
# Stress axis : x y z
#
# Youngs Moduli (GPa) = 58.13989 74.03120 148.62190
#
# Poissons Ratio (x) = -0.03024 0.61970
# Poissons Ratio (y) = -0.02375 0.22198
# Poissons Ratio (z) = 0.24242 0.11057
#
# Static dielectric constant tensor:
#      x y z
#    x 2.051040 0.000000 0.012680 
#    y 0.000000 1.859460 0.000000 
#    z 0.012680 0.000000 2.046910 
# 
# From -- ./inp_files/211332.got.cif
#   From: 2010.05.17/outbox.cif.g08.bks.cpg/sg15_106_cif.got.tgz:211332.got - 2010.06.03 18:47:42.
