data_PCOD9279995
_publ_section_title
;
Structure prediction by ZEFSAII (Michael W. Deem and Ramdas Pophale) SiO2 
 PCOD9279995
Probable space group: C 2/C
;
_chemical_formula_sum "Si O2"
_cell_formula_units_Z 52
_cell_length_a 18.808422
_cell_length_b 17.851303
_cell_length_c 9.099577
_cell_angle_alpha 90.000000
_cell_angle_beta 42.399803
_cell_angle_gamma 90.000000
_cell_volume 2060.139117
_symmetry_space_group_name_H-M "C 2/C"
_symmetry_group_IT_number 15
_symmetry_cell_setting 'monoclinic'
loop_
_space_group_symop_operation_xyz
x,y,z
-x,y,1/2-z
-x,-y,-z
x,-y,1/2+z
1/2+x,1/2+y,z
1/2-x,1/2+y,1/2-z
1/2-x,1/2-y,-z
1/2+x,1/2-y,1/2+z
loop_
_atom_site_type_symbol
_atom_site_label
_atom_site_fract_x
_atom_site_fract_y
_atom_site_fract_z
Si Si1 0.000000 0.417486 0.750000
Si Si2 0.500000 0.597601 0.750000
Si Si3 0.500000 0.800454 0.250000
Si Si4 0.191807 0.836166 0.210006
Si Si5 0.858473 0.661714 0.224807
Si Si6 0.043875 0.836533 0.887202
Si Si7 0.666613 0.515492 0.144877
Si Si8 0.798122 0.548774 0.697416
O O1 0.055005 0.367403 0.791920
O O2 0.087703 0.466749 0.536475
O O3 0.553232 0.653772 0.549910
O O4 0.420720 0.540445 0.788609
O O5 0.411636 0.845591 0.480698
O O6 0.446320 0.742602 0.212332
O O7 0.165560 0.749792 0.231991
O O8 0.276255 0.863092 0.201394
O O9 0.078118 0.861040 0.444957
O O10 0.247965 0.865148 0.972279
O O11 0.117912 0.901921 0.716513
O O12 0.705016 0.490422 0.246295
O O13 0.776596 0.522561 0.891230
#
# Coordination Sequence:
#
# PCOD9279995 Si02
#       8
#     4   4   4   8   8   8   8   8
#     4  10  24  45  66  84 118 182 225 262 306 364
#     4  12  21  33  56  98 126 172 193 243 320 400
#     4  10  21  36  62  96 126 166 204 271 316 372
#     4   9  18  36  62  89 122 163 200 255 316 375
#     4   9  19  39  64  89 120 165 217 264 312 364
#     4  11  21  35  60  96 133 164 198 252 324 389
#     4  12  22  38  61  98 135 166 204 257 314 392
#     4  11  23  41  63  93 131 170 211 262 312 373
#
# _framework density 25.241012999999999
#
# number of rings (size 3 to 8) (size 9 to 14) (size 15 to 20)
#    0.000    1.538    3.077    3.692    0.000    3.077 
#    0.000    4.615    0.000   35.077    0.000    0.000 
#    0.000    0.000    0.000    0.000    0.000    0.000 
#
# Total GULP energy -144854.242194 kJ/mol
# GULP energy per Si atom -5571.317007 kJ/mol
# Density = 2.518356 g / cm^3
# Si number density = 25.241013 Si / 1000 Ang^3
#
#
#
# Elastic Constant Matrix: (Units=GPa)
#
#
# Indices 1 2 3 4 5 6 
#
# 1 44.4616 6.9379 -9.0668 0.0000 4.9396 0.0000
# 2 6.9379 73.7376 9.3452 0.0000 5.4845 0.0000
# 3 -9.0668 9.3452 137.1213 0.0000 6.2364 0.0000
# 4 0.0000 0.0000 0.0000 15.8643 0.0000 5.7119
# 5 4.9396 5.4845 6.2364 0.0000 46.8492 0.0000
# 6 0.0000 0.0000 0.0000 5.7119 0.0000 15.1816
#
#
#
# Elastic Compliance Matrix: (Units=1/GPa)
#
#
# Indices 1 2 3 4 5 6 
#
# 1 0.023487 -0.002258 0.001819 0.000000 -0.002454 0.000000
# 2 -0.002258 0.014000 -0.001046 0.000000 -0.001262 0.000000
# 3 0.001819 -0.001046 0.007533 0.000000 -0.001072 0.000000
# 4 0.000000 0.000000 0.000000 0.072912 0.000000 -0.027432
# 5 -0.002454 -0.001262 -0.001072 0.000000 0.021894 0.000000
# 6 0.000000 0.000000 0.000000 -0.027432 0.000000 0.076190
#
#
# Mechanical properties :
#
#
# Convention : Reuss Voigt Hill
#
# Bulk Modulus (GPa) = 23.78125 29.97257 26.87691
# Shear Modulus (GPa) = 21.45886 32.11931 26.78909
#
# Velocity S-wave (km/s) = 2.91891 3.57109 3.26134
# Velocity P-wave (km/s) = 4.56094 5.37623 4.98528
#
# Compressibility (1/GPa) = 0.04204993
#
# Stress axis : x y z
#
# Youngs Moduli (GPa) = 42.57656 71.42625 132.74728
#
# Poissons Ratio (x) = 0.16127 -0.24140
# Poissons Ratio (y) = 0.09613 0.13886
# Poissons Ratio (z) = -0.07743 0.07472
#
# Static dielectric constant tensor:
#      x y z
#    x 2.022480 0.000000 0.044110 
#    y 0.000000 2.066780 0.000000 
#    z 0.044110 0.000000 2.086210 
# 
# From -- ./inp_files/58603.got.cif
#   From: 2010.05.17/outbox.cif.g08.bks.cpg/sg15_30_cif.got.tgz:58603.got - 2010.06.03 18:47:42.
