data_PCOD9279813
_publ_section_title
;
Structure prediction by ZEFSAII (Michael W. Deem and Ramdas Pophale) SiO2 
 PCOD9279813
Probable space group: C 2/C
;
_chemical_formula_sum "Si O2"
_cell_formula_units_Z 64
_cell_length_a 30.219811
_cell_length_b 16.141450
_cell_length_c 10.035948
_cell_angle_alpha 90.000000
_cell_angle_beta 140.209475
_cell_angle_gamma 90.000000
_cell_volume 3133.003535
_symmetry_space_group_name_H-M "C 2/C"
_symmetry_group_IT_number 15
_symmetry_cell_setting 'monoclinic'
loop_
_space_group_symop_operation_xyz
x,y,z
-x,y,1/2-z
-x,-y,-z
x,-y,1/2+z
1/2+x,1/2+y,z
1/2-x,1/2+y,1/2-z
1/2-x,1/2-y,-z
1/2+x,1/2-y,1/2+z
loop_
_atom_site_type_symbol
_atom_site_label
_atom_site_fract_x
_atom_site_fract_y
_atom_site_fract_z
Si Si1 0.571814 0.234783 0.850263
Si Si2 0.186831 0.536641 0.478431
Si Si3 0.042788 0.544377 0.716478
Si Si4 0.671553 0.782252 0.835648
Si Si5 0.621435 0.351846 0.729129
Si Si6 0.273940 0.487237 0.430953
Si Si7 0.986269 0.059933 0.851087
Si Si8 0.657847 0.647696 0.019181
O O1 0.500000 0.268967 0.750000
O O2 0.550901 0.144511 0.741401
O O3 0.608835 0.287197 0.818919
O O4 0.625987 0.229693 0.097875
O O5 0.120420 0.490486 0.384249
O O6 0.166090 0.622587 0.363298
O O7 0.226005 0.487551 0.451162
O O8 0.238527 0.553578 0.720529
O O9 0.000000 0.522269 0.750000
O O10 0.000000 0.500000 0.500000
O O11 0.648412 0.728234 0.908290
O O12 0.750000 0.750000 0.000000
O O13 0.544304 0.369986 0.497363
O O14 0.663694 0.331911 0.690250
O O15 0.658081 0.434470 0.872888
O O16 0.286245 0.582662 0.411296
O O17 0.911330 0.096056 0.666690
O O18 0.000000 0.008816 0.750000
O O19 0.000000 0.000000 0.000000
#
# Coordination Sequence:
#
# PCOD9279813 Si02
#       8
#     8   8   8   8   8   8   8   8
#     4  11  25  47  71 102 139 183 238 290 354 423
#     4  12  25  44  70 100 134 180 230 285 352 416
#     4  11  25  48  75 102 134 178 235 296 352 415
#     4  12  25  44  70 100 140 189 229 289 359 427
#     4  11  24  41  65 100 139 184 223 285 338 405
#     4  12  23  42  65  99 141 180 230 279 346 421
#     4  10  21  36  59  89 128 173 221 264 316 391
#     4  11  24  42  63  98 140 182 234 281 338 415
#
# _framework density 20.427682999999998
#
# number of rings (size 3 to 8) (size 9 to 14) (size 15 to 20)
#    0.000    0.750    3.750    4.500    0.000    3.500 
#    0.000    3.125    0.000    0.000    0.000    0.000 
#    0.000    0.000    0.000    0.000    0.000    0.000 
#
# Total GULP energy -178533.988632 kJ/mol
# GULP energy per Si atom -5579.187145 kJ/mol
# Density = 2.038119 g / cm^3
# Si number density = 20.427683 Si / 1000 Ang^3
#
#
#
# Elastic Constant Matrix: (Units=GPa)
#
#
# Indices 1 2 3 4 5 6 
#
# 1 142.3669 47.9448 43.1507 0.0000 -23.1253 0.0000
# 2 47.9448 76.9316 14.4947 0.0000 -20.4450 0.0000
# 3 43.1507 14.4947 106.7740 0.0000 -29.2323 0.0000
# 4 0.0000 0.0000 0.0000 28.9827 0.0000 -9.6593
# 5 -23.1253 -20.4450 -29.2323 0.0000 44.5814 0.0000
# 6 0.0000 0.0000 0.0000 -9.6593 0.0000 17.3182
#
#
#
# Elastic Compliance Matrix: (Units=1/GPa)
#
#
# Indices 1 2 3 4 5 6 
#
# 1 0.009884 -0.005413 -0.003090 0.000000 0.000618 0.000000
# 2 -0.005413 0.017770 0.001509 0.000000 0.006331 0.000000
# 3 -0.003090 0.001509 0.012383 0.000000 0.007209 0.000000
# 4 0.000000 0.000000 0.000000 0.042381 0.000000 0.023638
# 5 0.000618 0.006331 0.007209 0.000000 0.030381 0.000000
# 6 0.000000 0.000000 0.000000 0.023638 0.000000 0.070927
#
#
# Mechanical properties :
#
#
# Convention : Reuss Voigt Hill
#
# Bulk Modulus (GPa) = 38.39157 59.69475 49.04316
# Shear Modulus (GPa) = 24.22467 32.87528 28.54997
#
# Velocity S-wave (km/s) = 3.44739 4.01602 3.74252
# Velocity P-wave (km/s) = 5.88903 7.12674 6.53725
#
# Compressibility (1/GPa) = 0.02604739
#
# Stress axis : x y z
#
# Youngs Moduli (GPa) = 101.17054 56.27309 80.75414
#
# Poissons Ratio (x) = 0.30463 0.24957
# Poissons Ratio (y) = 0.54769 -0.12182
# Poissons Ratio (z) = 0.31266 -0.08489
#
# Static dielectric constant tensor:
#      x y z
#    x 1.997010 0.000000 0.038120 
#    y 0.000000 1.735040 0.000000 
#    z 0.038120 0.000000 1.722440 
# 
# From -- ./inp_files/70607.got.cif
#   From: 2010.05.17/outbox.cif.g08.bks.cpg/sg15_36_cif.got.tgz:70607.got - 2010.06.03 18:47:42.
