data_PCOD9279978
_publ_section_title
;
Structure prediction by ZEFSAII (Michael W. Deem and Ramdas Pophale) SiO2 
 PCOD9279978
Probable space group: C 2/C
;
_chemical_formula_sum "Si O2"
_cell_formula_units_Z 60
_cell_length_a 26.842505
_cell_length_b 19.267696
_cell_length_c 5.320119
_cell_angle_alpha 90.000000
_cell_angle_beta 109.145158
_cell_angle_gamma 90.000000
_cell_volume 2599.344393
_symmetry_space_group_name_H-M "C 2/C"
_symmetry_group_IT_number 15
_symmetry_cell_setting 'monoclinic'
loop_
_space_group_symop_operation_xyz
x,y,z
-x,y,1/2-z
-x,-y,-z
x,-y,1/2+z
1/2+x,1/2+y,z
1/2-x,1/2+y,1/2-z
1/2-x,1/2-y,-z
1/2+x,1/2-y,1/2+z
loop_
_atom_site_type_symbol
_atom_site_label
_atom_site_fract_x
_atom_site_fract_y
_atom_site_fract_z
Si Si1 0.558238 0.327548 0.968647
Si Si2 0.592155 0.526786 0.338727
Si Si3 0.679440 0.251100 0.628074
Si Si4 0.711433 0.523926 0.911054
Si Si5 0.500000 0.747371 0.750000
Si Si6 0.082491 0.690995 0.722727
Si Si7 0.707948 0.323917 0.174289
Si Si8 0.563820 0.041098 0.870510
O O1 0.500000 0.337174 0.750000
O O2 0.589400 0.396354 0.949687
O O3 0.582840 0.258295 0.897533
O O4 0.545448 0.305109 0.231242
O O5 0.567167 0.479753 0.519344
O O6 0.651502 0.500744 0.375747
O O7 0.630163 0.202302 0.608712
O O8 0.677729 0.284748 0.350654
O O9 0.733165 0.207252 0.732426
O O10 0.684641 0.309069 0.858604
O O11 0.735870 0.475397 0.731849
O O12 0.711206 0.597758 0.775069
O O13 0.473809 0.798636 0.506934
O O14 0.085466 0.618358 0.866791
O O15 0.500000 0.045410 0.750000
O O16 0.579537 0.993069 0.660136
#
# Coordination Sequence:
#
# PCOD9279978 Si02
#       8
#     8   8   8   8   4   8   8   8
#     4  10  24  41  59  88 131 174 223 279 319 379
#     4  10  24  37  57  87 121 171 222 266 316 376
#     4  10  24  40  71  94 131 170 217 278 333 391
#     4  10  21  36  62  91 126 168 217 268 322 384
#     4  10  24  42  64  94 138 170 232 280 334 382
#     4  11  25  40  69 100 129 177 220 276 334 403
#     4  10  22  44  63 100 130 169 223 277 326 394
#     4  10  23  41  65  93 130 168 211 264 328 405
#
# _framework density 23.082744999999999
#
# number of rings (size 3 to 8) (size 9 to 14) (size 15 to 20)
#    0.000    1.867    0.000    2.000   17.733    0.533 
#    0.000    1.333    0.000    0.000    0.000    0.000 
#    0.000    0.000    0.000    0.000    0.000    0.000 
#
# Total GULP energy -167572.870263 kJ/mol
# GULP energy per Si atom -5585.762342 kJ/mol
# Density = 2.303021 g / cm^3
# Si number density = 23.082745 Si / 1000 Ang^3
#
#
#
# Elastic Constant Matrix: (Units=GPa)
#
#
# Indices 1 2 3 4 5 6 
#
# 1 36.9964 33.3166 38.1385 0.0000 -28.3535 0.0000
# 2 33.3166 148.8727 34.1957 0.0000 -31.5688 0.0000
# 3 38.1385 34.1957 128.2960 0.0000 -29.8350 0.0000
# 4 0.0000 0.0000 0.0000 27.1334 0.0000 -22.0098
# 5 -28.3535 -31.5688 -29.8350 0.0000 36.5233 0.0000
# 6 0.0000 0.0000 0.0000 -22.0098 0.0000 11.7287
#
#
#
# Elastic Compliance Matrix: (Units=1/GPa)
#
#
# Indices 1 2 3 4 5 6 
#
# 1 0.080976 -0.005088 -0.011258 0.000000 0.049268 0.000000
# 2 -0.005088 0.008591 0.000038 0.000000 0.003506 0.000000
# 3 -0.011258 0.000038 0.011242 0.000000 0.000476 0.000000
# 4 0.000000 0.000000 0.000000 -0.070574 0.000000 -0.132437
# 5 0.049268 0.003506 0.000476 0.000000 0.069047 0.000000
# 6 0.000000 0.000000 0.000000 -0.132437 0.000000 -0.163266
#
#
# Mechanical properties :
#
#
# Convention : Reuss Voigt Hill
#
# Bulk Modulus (GPa) = 14.66453 58.38520 36.52487
# Shear Modulus (GPa) = -578.91392 28.97802 -274.96795
#
# Velocity S-wave (km/s) = -15.85383 3.54700 -10.92618
# Velocity P-wave (km/s) = 18.13170 6.49028 11.97152
#
# Compressibility (1/GPa) = 0.06819174
#
# Stress axis : x y z
#
# Youngs Moduli (GPa) = 12.34930 116.40578 88.95394
#
# Poissons Ratio (x) = 0.59232 1.00147
# Poissons Ratio (y) = 0.06284 -0.00341
# Poissons Ratio (z) = 0.13903 -0.00446
#
# Static dielectric constant tensor:
#      x y z
#    x 1.904030 0.000000 0.030960 
#    y 0.000000 1.842580 0.000000 
#    z 0.030960 0.000000 2.014930 
# 
# From -- ./inp_files/17204.got.cif
#   From: 2010.05.17/outbox.cif.g08.bks.cpg/sg15_9_cif.got.tgz:17204.got - 2010.06.03 18:47:42.
