data_PCOD9279701
_publ_section_title
;
Structure prediction by ZEFSAII (Michael W. Deem and Ramdas Pophale) SiO2 
 PCOD9279701
Probable space group: C 2/C
;
_chemical_formula_sum "Si O2"
_cell_formula_units_Z 40
_cell_length_a 6.887338
_cell_length_b 18.487346
_cell_length_c 13.776655
_cell_angle_alpha 90.000000
_cell_angle_beta 55.146790
_cell_angle_gamma 90.000000
_cell_volume 1439.498551
_symmetry_space_group_name_H-M "C 2/C"
_symmetry_group_IT_number 15
_symmetry_cell_setting 'monoclinic'
loop_
_space_group_symop_operation_xyz
x,y,z
-x,y,1/2-z
-x,-y,-z
x,-y,1/2+z
1/2+x,1/2+y,z
1/2-x,1/2+y,1/2-z
1/2-x,1/2-y,-z
1/2+x,1/2-y,1/2+z
loop_
_atom_site_type_symbol
_atom_site_label
_atom_site_fract_x
_atom_site_fract_y
_atom_site_fract_z
Si Si1 0.786495 0.460689 0.113248
Si Si2 0.855072 0.703308 0.610549
Si Si3 0.746271 0.948895 0.688738
Si Si4 0.892650 0.086799 0.564793
Si Si5 0.858809 0.759450 0.142779
O O1 0.840340 0.381485 0.141859
O O2 0.723740 0.518806 0.213893
O O3 0.591034 0.436491 0.088668
O O4 0.000000 0.500000 0.000000
O O5 0.828358 0.752126 0.716021
O O6 0.612291 0.724664 0.622931
O O7 0.065883 0.711053 0.471134
O O8 0.500000 0.905893 0.750000
O O9 0.717071 0.020042 0.627884
O O10 0.969456 0.910646 0.576527
O O11 0.789872 0.164025 0.615519
#
# Coordination Sequence:
#
# PCOD9279701 Si02
#       5
#     8   8   8   8   8
#     4  11  20  35  56  85 117 150 187 234 292 346
#     4   9  18  31  53  80 109 144 186 236 286 335
#     4  11  21  35  55  85 111 151 192 234 289 347
#     4  10  21  36  57  82 116 151 188 239 289 340
#     4   9  17  33  52  79 110 145 186 238 286 330
#
# _framework density 27.787452999999999
#
# number of rings (size 3 to 8) (size 9 to 14) (size 15 to 20)
#    0.000    2.000    4.000    0.600    0.000    1.600 
#    3.600    0.000    0.000    1.200    0.000    0.000 
#    0.000    0.000    0.000    0.000    0.000    0.000 
#
# Total GULP energy -111824.345411 kJ/mol
# GULP energy per Si atom -5591.217271 kJ/mol
# Density = 2.772421 g / cm^3
# Si number density = 27.787453 Si / 1000 Ang^3
#
#
#
# Elastic Constant Matrix: (Units=GPa)
#
#
# Indices 1 2 3 4 5 6 
#
# 1 116.2378 0.1199 27.7677 0.0000 12.9678 0.0000
# 2 0.1199 40.4713 31.4037 0.0000 1.3200 0.0000
# 3 27.7677 31.4037 261.0472 0.0000 9.5809 0.0000
# 4 0.0000 0.0000 0.0000 41.9666 0.0000 -2.9848
# 5 12.9678 1.3200 9.5809 0.0000 43.5211 0.0000
# 6 0.0000 0.0000 0.0000 -2.9848 0.0000 24.6545
#
#
#
# Elastic Compliance Matrix: (Units=1/GPa)
#
#
# Indices 1 2 3 4 5 6 
#
# 1 0.009117 0.000812 -0.000975 0.000000 -0.002527 0.000000
# 2 0.000812 0.027326 -0.003361 0.000000 -0.000331 0.000000
# 3 -0.000975 -0.003361 0.004360 0.000000 -0.000567 0.000000
# 4 0.000000 0.000000 0.000000 0.024035 0.000000 0.002910
# 5 -0.002527 -0.000331 -0.000567 0.000000 0.023865 0.000000
# 6 0.000000 0.000000 0.000000 0.002910 0.000000 0.040913
#
#
# Mechanical properties :
#
#
# Convention : Reuss Voigt Hill
#
# Bulk Modulus (GPa) = 29.62679 59.59323 44.61001
# Shear Modulus (GPa) = 33.80309 45.92608 39.86459
#
# Velocity S-wave (km/s) = 3.49160 4.06983 3.79175
# Velocity P-wave (km/s) = 5.19039 6.60131 5.93791
#
# Compressibility (1/GPa) = 0.03375323
#
# Stress axis : x y z
#
# Youngs Moduli (GPa) = 109.68604 36.59579 229.37856
#
# Poissons Ratio (x) = -0.02971 0.22357
# Poissons Ratio (y) = -0.08903 0.77104
# Poissons Ratio (z) = 0.10691 0.12301
#
# Static dielectric constant tensor:
#      x y z
#    x 2.371750 0.000000 -0.055520 
#    y 0.000000 2.121460 0.000000 
#    z -0.055520 0.000000 2.232300 
# 
# From -- ./inp_files/135754.got.cif
#   From: 2010.05.17/outbox.cif.g08.bks.cpg/sg15_68_cif.got.tgz:135754.got - 2010.06.03 18:47:42.
