data_PCOD9279525
_publ_section_title
;
Structure prediction by ZEFSAII (Michael W. Deem and Ramdas Pophale) SiO2 
 PCOD9279525
Probable space group: C 2/C
;
_chemical_formula_sum "Si O2"
_cell_formula_units_Z 40
_cell_length_a 30.025147
_cell_length_b 5.202746
_cell_length_c 18.435937
_cell_angle_alpha 90.000000
_cell_angle_beta 141.018773
_cell_angle_gamma 90.000000
_cell_volume 1811.669633
_symmetry_space_group_name_H-M "C 2/C"
_symmetry_group_IT_number 15
_symmetry_cell_setting 'monoclinic'
loop_
_space_group_symop_operation_xyz
x,y,z
-x,y,1/2-z
-x,-y,-z
x,-y,1/2+z
1/2+x,1/2+y,z
1/2-x,1/2+y,1/2-z
1/2-x,1/2-y,-z
1/2+x,1/2-y,1/2+z
loop_
_atom_site_type_symbol
_atom_site_label
_atom_site_fract_x
_atom_site_fract_y
_atom_site_fract_z
Si Si1 0.419505 0.249796 0.344566
Si Si2 0.721328 0.045909 0.678454
Si Si3 0.084728 0.247584 0.069510
Si Si4 0.303666 0.212539 0.500420
Si Si5 0.165423 0.217732 0.907879
O O1 0.400494 0.462581 0.381536
O O2 0.504175 0.261209 0.440600
O O3 0.375877 0.325149 0.218424
O O4 0.407486 0.957702 0.355821
O O5 0.762681 0.314232 0.744405
O O6 0.640895 0.143338 0.583897
O O7 0.733470 0.900181 0.617796
O O8 0.250000 0.250000 0.500000
O O9 0.141929 0.508023 0.408243
O O10 0.339976 0.488506 0.541401
O O11 0.250000 0.250000 0.000000
#
# Coordination Sequence:
#
# PCOD9279525 Si02
#       5
#     8   8   8   8   8
#     4  10  21  41  65  96 125 178 215 282 326 419
#     4  12  26  40  65  97 139 176 227 294 338 393
#     4  10  23  39  65  93 133 167 228 268 347 388
#     4  10  23  39  58  95 132 174 217 264 342 399
#     4  10  21  35  64  91 127 164 225 260 328 401
#
# _framework density 22.079080999999999
#
# number of rings (size 3 to 8) (size 9 to 14) (size 15 to 20)
#    0.000    1.600    0.000    3.600   16.800    0.000 
#    0.000    1.000    0.000    2.400    0.000    0.000 
#    0.000    0.000    0.000    0.000    0.000    0.000 
#
# Total GULP energy -111575.896037 kJ/mol
# GULP energy per Si atom -5578.794802 kJ/mol
# Density = 2.202883 g / cm^3
# Si number density = 22.079081 Si / 1000 Ang^3
#
#
#
# Elastic Constant Matrix: (Units=GPa)
#
#
# Indices 1 2 3 4 5 6 
#
# 1 65.5112 24.3772 42.7489 0.0002 1.1585 0.0007
# 2 24.3772 176.3741 29.7936 -0.0015 3.1555 0.0024
# 3 42.7489 29.7936 98.5861 -0.0002 -6.9257 0.0004
# 4 0.0002 -0.0015 -0.0002 34.6333 0.0003 -7.4434
# 5 1.1585 3.1555 -6.9257 0.0003 27.6700 0.0004
# 6 0.0007 0.0024 0.0004 -7.4434 0.0004 33.7468
#
#
#
# Elastic Compliance Matrix: (Units=1/GPa)
#
#
# Indices 1 2 3 4 5 6 
#
# 1 0.021903 -0.001403 -0.009290 0.000000 -0.003082 0.000000
# 2 -0.001403 0.006101 -0.001303 0.000000 -0.000963 0.000000
# 3 -0.009290 -0.001303 0.014865 0.000000 0.004258 0.000000
# 4 0.000000 0.000000 0.000000 0.030311 0.000000 0.006686
# 5 -0.003082 -0.000963 0.004258 0.000000 0.037445 0.000000
# 6 0.000000 0.000000 0.000000 0.006686 0.000000 0.031107
#
#
# Mechanical properties :
#
#
# Convention : Reuss Voigt Hill
#
# Bulk Modulus (GPa) = 52.97554 59.36787 56.17170
# Shear Modulus (GPa) = 29.06688 35.44680 32.25684
#
# Velocity S-wave (km/s) = 3.63228 4.01115 3.82641
# Velocity P-wave (km/s) = 6.45267 6.95698 6.70956
#
# Compressibility (1/GPa) = 0.01887664
#
# Stress axis : x y z
#
# Youngs Moduli (GPa) = 45.65486 163.90702 67.27273
#
# Poissons Ratio (x) = 0.22994 0.62499
# Poissons Ratio (y) = 0.06405 0.08767
# Poissons Ratio (z) = 0.42415 0.21359
#
# Static dielectric constant tensor:
#      x y z
#    x 1.815790 0.000000 -0.041110 
#    y 0.000000 1.841850 0.000000 
#    z -0.041110 0.000000 1.783820 
# 
# From -- ./inp_files/258351.got.cif
#   From: 2010.05.17/outbox.cif.g08.bks.cpg/sg15_130_cif.got.tgz:258351.got - 2010.06.03 18:47:42.
