data_PCOD9279219
_publ_section_title
;
Structure prediction by ZEFSAII (Michael W. Deem and Ramdas Pophale) SiO2 
 PCOD9279219
Probable space group: C 2/C
;
_chemical_formula_sum "Si O2"
_cell_formula_units_Z 36
_cell_length_a 17.789669
_cell_length_b 9.246108
_cell_length_c 8.988800
_cell_angle_alpha 90.000000
_cell_angle_beta 105.303831
_cell_angle_gamma 90.000000
_cell_volume 1426.095756
_symmetry_space_group_name_H-M "C 2/C"
_symmetry_group_IT_number 15
_symmetry_cell_setting 'monoclinic'
loop_
_space_group_symop_operation_xyz
x,y,z
-x,y,1/2-z
-x,-y,-z
x,-y,1/2+z
1/2+x,1/2+y,z
1/2-x,1/2+y,1/2-z
1/2-x,1/2-y,-z
1/2+x,1/2-y,1/2+z
loop_
_atom_site_type_symbol
_atom_site_label
_atom_site_fract_x
_atom_site_fract_y
_atom_site_fract_z
Si Si1 0.500000 0.743825 0.250000
Si Si2 0.882476 0.245048 0.416738
Si Si3 0.418158 0.155729 0.253438
Si Si4 0.276013 0.760808 0.843224
Si Si5 0.412215 0.414837 0.446915
O O1 0.443619 0.823469 0.338202
O O2 0.561942 0.649481 0.380020
O O3 0.876959 0.314664 0.575053
O O4 0.798463 0.232519 0.298843
O O5 0.920827 0.084705 0.447094
O O6 0.500000 0.081798 0.250000
O O7 0.345756 0.125668 0.331816
O O8 0.447982 0.305482 0.345342
O O9 0.322167 0.609868 0.854696
O O10 0.250000 0.750000 0.000000
#
# Coordination Sequence:
#
# PCOD9279219 Si02
#       5
#     4   8   8   8   8
#     4  12  20  32  56  86 120 140 174 226 288 334
#     4  12  20  34  54  83 114 148 178 225 274 335
#     4  10  21  35  52  81 111 144 184 224 273 330
#     4  10  22  37  50  81 113 147 185 218 281 328
#     4  10  23  33  56  83 116 147 177 226 276 334
#
# _framework density 25.243748
#
# number of rings (size 3 to 8) (size 9 to 14) (size 15 to 20)
#    1.333    0.000    4.444    2.667    3.111    0.000 
#    0.000    0.000    0.000    0.000    2.889    4.667 
#    0.000    0.000    0.000    0.000    0.000    0.000 
#
# Total GULP energy -100209.535622 kJ/mol
# GULP energy per Si atom -5567.196423 kJ/mol
# Density = 2.518629 g / cm^3
# Si number density = 25.243748 Si / 1000 Ang^3
#
#
#
# Elastic Constant Matrix: (Units=GPa)
#
#
# Indices 1 2 3 4 5 6 
#
# 1 158.1542 22.0511 41.5241 0.0000 -10.7241 0.0000
# 2 22.0511 36.6571 9.9789 0.0000 -3.4880 0.0000
# 3 41.5241 9.9789 170.3344 0.0000 6.9970 0.0000
# 4 0.0000 0.0000 0.0000 2.4663 0.0000 3.9643
# 5 -10.7241 -3.4880 6.9970 0.0000 58.7953 0.0000
# 6 0.0000 0.0000 0.0000 3.9643 0.0000 37.3802
#
#
#
# Elastic Compliance Matrix: (Units=1/GPa)
#
#
# Indices 1 2 3 4 5 6 
#
# 1 0.007378 -0.003871 -0.001626 0.000000 0.001310 0.000000
# 2 -0.003871 0.029954 -0.000859 0.000000 0.001173 0.000000
# 3 -0.001626 -0.000859 0.006363 0.000000 -0.001105 0.000000
# 4 0.000000 0.000000 0.000000 0.488784 0.000000 -0.051837
# 5 0.001310 0.001173 -0.001105 0.000000 0.017448 0.000000
# 6 0.000000 0.000000 0.000000 -0.051837 0.000000 0.032250
#
#
# Mechanical properties :
#
#
# Convention : Reuss Voigt Hill
#
# Bulk Modulus (GPa) = 32.27599 56.91712 44.59655
# Shear Modulus (GPa) = 8.26150 39.16782 23.71466
#
# Velocity S-wave (km/s) = 1.81102 3.94329 3.06833
# Velocity P-wave (km/s) = 4.14567 6.58245 5.50069
#
# Compressibility (1/GPa) = 0.03098279
#
# Stress axis : x y z
#
# Youngs Moduli (GPa) = 135.53189 33.38436 157.16270
#
# Poissons Ratio (x) = 0.12924 0.25550
# Poissons Ratio (y) = 0.52468 0.13505
# Poissons Ratio (z) = 0.22033 0.02869
#
# Static dielectric constant tensor:
#      x y z
#    x 2.143010 0.000000 0.075570 
#    y 0.000000 2.163130 0.000000 
#    z 0.075570 0.000000 1.911640 
# 
# From -- ./inp_files/46797.got.cif
#   From: 2010.05.17/outbox.cif.g08.bks.cpg/sg15_24_cif.got.tgz:46797.got - 2010.06.03 18:47:42.
