data_PCOD9279911
_publ_section_title
;
Structure prediction by ZEFSAII (Michael W. Deem and Ramdas Pophale) SiO2 
 PCOD9279911
Probable space group: C 2/C
;
_chemical_formula_sum "Si O2"
_cell_formula_units_Z 40
_cell_length_a 17.909789
_cell_length_b 14.069142
_cell_length_c 8.562173
_cell_angle_alpha 90.000000
_cell_angle_beta 66.184147
_cell_angle_gamma 90.000000
_cell_volume 1973.744864
_symmetry_space_group_name_H-M "C 2/C"
_symmetry_group_IT_number 15
_symmetry_cell_setting 'monoclinic'
loop_
_space_group_symop_operation_xyz
x,y,z
-x,y,1/2-z
-x,-y,-z
x,-y,1/2+z
1/2+x,1/2+y,z
1/2-x,1/2+y,1/2-z
1/2-x,1/2-y,-z
1/2+x,1/2-y,1/2+z
loop_
_atom_site_type_symbol
_atom_site_label
_atom_site_fract_x
_atom_site_fract_y
_atom_site_fract_z
Si Si1 0.790805 0.515285 0.674787
Si Si2 0.061656 0.699938 0.819142
Si Si3 0.663873 0.203342 0.031533
Si Si4 0.556295 0.101148 0.342418
Si Si5 0.773599 0.640507 0.964072
O O1 0.814406 0.593737 0.526961
O O2 0.874918 0.471901 0.666749
O O3 0.743261 0.577424 0.843191
O O4 0.750682 0.422784 0.632123
O O5 0.129607 0.648740 0.654495
O O6 0.000000 0.752746 0.750000
O O7 0.117387 0.742882 0.915313
O O8 0.002238 0.631937 0.968293
O O9 0.602620 0.193773 0.229422
O O10 0.750000 0.250000 0.000000
O O11 0.500000 0.064059 0.250000
O O12 0.750000 0.750000 0.000000
#
# Coordination Sequence:
#
# PCOD9279911 Si02
#       5
#     8   8   8   8   8
#     4  11  22  38  61  86 127 171 207 254 327 371
#     4  10  21  36  61  89 127 168 197 263 316 394
#     4  10  23  38  57  89 132 171 207 250 318 397
#     4  10  21  38  57  93 135 163 198 252 340 406
#     4  11  25  39  58  92 131 168 219 259 313 399
#
# _framework density 20.266043
#
# number of rings (size 3 to 8) (size 9 to 14) (size 15 to 20)
#    0.000    1.600    4.000    0.000    5.600   10.400 
#    0.000    0.000    0.000    0.000    0.000   14.000 
#    0.000    0.000    0.000    0.000    0.000    0.000 
#
# Total GULP energy -111381.960586 kJ/mol
# GULP energy per Si atom -5569.098029 kJ/mol
# Density = 2.021992 g / cm^3
# Si number density = 20.266043 Si / 1000 Ang^3
#
#
#
# Elastic Constant Matrix: (Units=GPa)
#
#
# Indices 1 2 3 4 5 6 
#
# 1 97.8408 42.5641 40.0575 0.0000 16.5283 0.0000
# 2 42.5641 107.0178 61.6856 0.0000 14.0316 0.0000
# 3 40.0575 61.6856 83.1011 0.0000 1.9160 0.0000
# 4 0.0000 0.0000 0.0000 23.5184 0.0000 -4.8842
# 5 16.5283 14.0316 1.9160 0.0000 17.5406 0.0000
# 6 0.0000 0.0000 0.0000 -4.8842 0.0000 37.6591
#
#
#
# Elastic Compliance Matrix: (Units=1/GPa)
#
#
# Indices 1 2 3 4 5 6 
#
# 1 0.015488 -0.000470 -0.006806 0.000000 -0.013474 0.000000
# 2 -0.000470 0.019193 -0.013711 0.000000 -0.013412 0.000000
# 3 -0.006806 -0.013711 0.025154 0.000000 0.014633 0.000000
# 4 0.000000 0.000000 0.000000 0.043697 0.000000 0.005667
# 5 -0.013474 -0.013412 0.014633 0.000000 0.078838 0.000000
# 6 0.000000 0.000000 0.000000 0.005667 0.000000 0.027289
#
#
# Mechanical properties :
#
#
# Convention : Reuss Voigt Hill
#
# Bulk Modulus (GPa) = 55.98797 64.06380 60.02589
# Shear Modulus (GPa) = 19.41091 25.32044 22.36568
#
# Velocity S-wave (km/s) = 3.09820 3.53852 3.32566
# Velocity P-wave (km/s) = 6.36278 6.95521 6.66558
#
# Compressibility (1/GPa) = 0.01786098
#
# Stress axis : x y z
#
# Youngs Moduli (GPa) = 64.56615 52.10264 39.75463
#
# Poissons Ratio (x) = 0.02451 0.27057
# Poissons Ratio (y) = 0.03037 0.54507
# Poissons Ratio (z) = 0.43943 0.71437
#
# Static dielectric constant tensor:
#      x y z
#    x 1.807500 0.000000 0.071400 
#    y 0.000000 1.739440 0.000000 
#    z 0.071400 0.000000 1.831590 
# 
# From -- ./inp_files/46931.got.cif
#   From: 2010.05.17/outbox.cif.g08.bks.cpg/sg15_24_cif.got.tgz:46931.got - 2010.06.03 18:47:42.
