data_PCOD9279797
_publ_section_title
;
Structure prediction by ZEFSAII (Michael W. Deem and Ramdas Pophale) SiO2 
 PCOD9279797
Probable space group: C 2/C
;
_chemical_formula_sum "Si O2"
_cell_formula_units_Z 64
_cell_length_a 18.334890
_cell_length_b 31.148821
_cell_length_c 11.229737
_cell_angle_alpha 90.000000
_cell_angle_beta 25.319007
_cell_angle_gamma 90.000000
_cell_volume 2742.747698
_symmetry_space_group_name_H-M "C 2/C"
_symmetry_group_IT_number 15
_symmetry_cell_setting 'monoclinic'
loop_
_space_group_symop_operation_xyz
x,y,z
-x,y,1/2-z
-x,-y,-z
x,-y,1/2+z
1/2+x,1/2+y,z
1/2-x,1/2+y,1/2-z
1/2-x,1/2-y,-z
1/2+x,1/2-y,1/2+z
loop_
_atom_site_type_symbol
_atom_site_label
_atom_site_fract_x
_atom_site_fract_y
_atom_site_fract_z
Si Si1 0.810755 0.508966 0.149398
Si Si2 0.237225 0.715212 0.120910
Si Si3 0.124499 0.158565 0.238081
Si Si4 0.889934 0.371309 0.770387
Si Si5 0.373946 0.251699 0.655949
Si Si6 0.745652 0.660207 0.802439
Si Si7 0.308674 0.968092 0.916523
Si Si8 0.856711 0.608143 0.048389
O O1 0.737701 0.515186 0.392297
O O2 0.839785 0.557461 0.063677
O O3 0.724882 0.486671 0.160836
O O4 0.993237 0.484207 0.886487
O O5 0.232604 0.669902 0.058855
O O6 0.366540 0.723513 0.038335
O O7 0.043182 0.726172 0.449921
O O8 0.250000 0.750000 0.000000
O O9 0.163560 0.209119 0.200519
O O10 0.188490 0.132142 0.256059
O O11 0.924789 0.151135 0.517426
O O12 0.214502 0.143389 0.982750
O O13 0.818407 0.416675 0.920146
O O14 0.910597 0.381838 0.600375
O O15 0.084425 0.356685 0.514673
O O16 0.252714 0.211613 0.807572
O O17 0.000000 0.625541 0.750000
#
# Coordination Sequence:
#
# PCOD9279797 Si02
#       8
#     8   8   8   8   8   8   8   8
#     4   9  18  32  55  87 121 148 183 249 309 357
#     4  11  23  40  59  78 111 160 202 245 291 345
#     4  11  21  34  57  82 115 149 193 242 296 356
#     4  10  21  36  59  86 117 151 201 246 289 359
#     4  11  21  40  54  77 114 150 195 245 297 341
#     4  10  22  36  52  84 117 152 190 240 301 349
#     4   9  17  33  55  88 121 149 193 249 305 359
#     4  11  18  33  60  87 110 147 189 240 301 360
#
# _framework density 23.334264000000001
#
# number of rings (size 3 to 8) (size 9 to 14) (size 15 to 20)
#    0.000    1.750    5.000    0.750    0.000    0.000 
#   11.250    0.000    0.000    0.750    0.000    5.250 
#    0.000    0.000    0.000    0.000    0.000    0.000 
#
# Total GULP energy -178455.814490 kJ/mol
# GULP energy per Si atom -5576.744203 kJ/mol
# Density = 2.328115 g / cm^3
# Si number density = 23.334264 Si / 1000 Ang^3
#
#
#
# Elastic Constant Matrix: (Units=GPa)
#
#
# Indices 1 2 3 4 5 6 
#
# 1 79.4472 21.2670 30.1278 -0.0003 5.7261 0.0001
# 2 21.2670 131.1299 10.8502 0.0004 4.2148 -0.0002
# 3 30.1278 10.8502 38.3282 -0.0028 3.5495 0.0025
# 4 -0.0003 0.0004 -0.0028 8.9120 0.0013 15.1379
# 5 5.7261 4.2148 3.5495 0.0013 31.9480 -0.0011
# 6 0.0001 -0.0002 0.0025 15.1379 -0.0011 35.8711
#
#
#
# Elastic Compliance Matrix: (Units=1/GPa)
#
#
# Indices 1 2 3 4 5 6 
#
# 1 0.018423 -0.001794 -0.013832 -0.000017 -0.001528 0.000008
# 2 -0.001794 0.008004 -0.000796 -0.000002 -0.000646 0.000001
# 3 -0.013832 -0.000796 0.037333 0.000056 -0.001564 -0.000026
# 4 -0.000017 -0.000002 0.000056 0.396241 -0.000025 -0.167217
# 5 -0.001528 -0.000646 -0.001564 -0.000025 0.031834 0.000012
# 6 0.000008 0.000001 -0.000026 -0.167217 0.000012 0.098445
#
#
# Mechanical properties :
#
#
# Convention : Reuss Voigt Hill
#
# Bulk Modulus (GPa) = 32.34544 41.48836 36.91690
# Shear Modulus (GPa) = 7.89357 27.79024 17.84191
#
# Velocity S-wave (km/s) = 1.84124 3.45478 2.76818
# Velocity P-wave (km/s) = 4.29093 5.80798 5.10611
#
# Compressibility (1/GPa) = 0.03091626
#
# Stress axis : x y z
#
# Youngs Moduli (GPa) = 54.28109 124.94368 26.78611
#
# Poissons Ratio (x) = 0.22418 0.37050
# Poissons Ratio (y) = 0.09739 0.02131
# Poissons Ratio (z) = 0.75079 0.09940
#
# Static dielectric constant tensor:
#      x y z
#    x 1.975210 0.000000 -0.005770 
#    y 0.000000 1.778240 0.000000 
#    z -0.005770 0.000000 2.103080 
# 
# From -- ./inp_files/108632.got.cif
#   From: 2010.05.17/outbox.cif.g08.bks.cpg/sg15_55_cif.got.tgz:108632.got - 2010.06.03 18:47:42.
