data_PCOD9279267
_publ_section_title
;
Structure prediction by ZEFSAII (Michael W. Deem and Ramdas Pophale) SiO2 
 PCOD9279267
Probable space group: C 2/C
;
_chemical_formula_sum "Si O2"
_cell_formula_units_Z 44
_cell_length_a 10.741429
_cell_length_b 22.123493
_cell_length_c 24.522350
_cell_angle_alpha 90.000000
_cell_angle_beta 155.651918
_cell_angle_gamma 90.000000
_cell_volume 2402.531643
_symmetry_space_group_name_H-M "C 2/C"
_symmetry_group_IT_number 15
_symmetry_cell_setting 'monoclinic'
loop_
_space_group_symop_operation_xyz
x,y,z
-x,y,1/2-z
-x,-y,-z
x,-y,1/2+z
1/2+x,1/2+y,z
1/2-x,1/2+y,1/2-z
1/2-x,1/2-y,-z
1/2+x,1/2-y,1/2+z
loop_
_atom_site_type_symbol
_atom_site_label
_atom_site_fract_x
_atom_site_fract_y
_atom_site_fract_z
Si Si1 0.850458 0.554051 0.373265
Si Si2 0.067812 0.336022 0.893701
Si Si3 0.482547 0.203270 0.901424
Si Si4 0.211277 0.784047 0.174329
Si Si5 0.000000 0.717254 0.250000
Si Si6 0.353785 0.081335 0.893797
O O1 0.500000 0.562977 0.250000
O O2 0.889415 0.482690 0.377456
O O3 0.955652 0.598989 0.368237
O O4 0.050359 0.569808 0.505929
O O5 0.976447 0.321345 0.795214
O O6 0.908567 0.284948 0.868069
O O7 0.426813 0.324616 0.042696
O O8 0.307558 0.198466 0.774228
O O9 0.279929 0.237082 0.865517
O O10 0.549390 0.136095 0.948099
O O11 0.750000 0.250000 0.000000
O O12 0.500000 0.788205 0.250000
O O13 0.000000 0.098644 0.750000
#
# Coordination Sequence:
#
# PCOD9279267 Si02
#       6
#     8   8   8   8   4   8
#     4  10  22  37  62  89 115 150 193 245 290 344
#     4  10  21  35  58  84 117 150 192 243 286 346
#     4  11  22  34  59  84 117 148 186 240 284 346
#     4  10  21  35  55  84 115 154 191 237 295 343
#     4  10  22  36  52  88 112 148 186 234 292 338
#     4  10  21  39  59  88 117 150 195 239 293 340
#
# _framework density 18.314015000000001
#
# number of rings (size 3 to 8) (size 9 to 14) (size 15 to 20)
#    0.000    1.818    0.909    2.727   12.727    0.000 
#    0.000    0.000    2.000    2.182    0.000    0.000 
#    0.000    0.000    0.000    0.000    0.000    0.000 
#
# Total GULP energy -122803.654442 kJ/mol
# GULP energy per Si atom -5581.984293 kJ/mol
# Density = 1.827233 g / cm^3
# Si number density = 18.314015 Si / 1000 Ang^3
#
#
#
# Elastic Constant Matrix: (Units=GPa)
#
#
# Indices 1 2 3 4 5 6 
#
# 1 75.6979 61.9286 11.6059 -0.0007 11.1596 0.0026
# 2 61.9286 150.3486 27.4623 -0.0017 10.9546 0.0024
# 3 11.6059 27.4623 65.2699 -0.0141 7.3545 0.0370
# 4 -0.0007 -0.0017 -0.0141 18.3655 0.0223 1.3130
# 5 11.1596 10.9546 7.3545 0.0223 35.0330 -0.0113
# 6 0.0026 0.0024 0.0370 1.3130 -0.0113 28.7514
#
#
#
# Elastic Compliance Matrix: (Units=1/GPa)
#
#
# Indices 1 2 3 4 5 6 
#
# 1 0.020454 -0.008180 0.000257 0.000005 -0.004012 -0.000003
# 2 -0.008180 0.010571 -0.002985 -0.000002 -0.000073 0.000004
# 3 0.000257 -0.002985 0.016834 0.000018 -0.002682 -0.000023
# 4 0.000005 -0.000002 0.000018 0.054628 -0.000040 -0.002495
# 5 -0.004012 -0.000073 -0.002682 -0.000040 0.030408 0.000018
# 6 -0.000003 0.000004 -0.000023 -0.002495 0.000018 0.034895
#
#
# Mechanical properties :
#
#
# Convention : Reuss Voigt Hill
#
# Bulk Modulus (GPa) = 38.39862 54.81221 46.60542
# Shear Modulus (GPa) = 25.21589 29.11797 27.16693
#
# Velocity S-wave (km/s) = 3.71464 3.99172 3.85567
# Velocity P-wave (km/s) = 6.27777 7.15815 6.73237
#
# Compressibility (1/GPa) = 0.02604260
#
# Stress axis : x y z
#
# Youngs Moduli (GPa) = 48.88952 94.59850 59.40509
#
# Poissons Ratio (x) = 0.77379 -0.01524
# Poissons Ratio (y) = 0.39990 0.17733
# Poissons Ratio (z) = -0.01254 0.28238
#
# Static dielectric constant tensor:
#      x y z
#    x 1.597910 0.000000 -0.023590 
#    y 0.000000 1.639070 -0.000010 
#    z -0.023590 -0.000010 1.633300 
# 
# From -- ./inp_files/293798.got.cif
#   From: 2010.05.17/outbox.cif.g08.bks.cpg/sg15_147_cif.got.tgz:293798.got - 2010.06.03 18:47:42.
