data_PCOD9279341
_publ_section_title
;
Structure prediction by ZEFSAII (Michael W. Deem and Ramdas Pophale) SiO2 
 PCOD9279341
Probable space group: C 2/C
;
_chemical_formula_sum "Si O2"
_cell_formula_units_Z 56
_cell_length_a 9.186636
_cell_length_b 19.881225
_cell_length_c 13.937290
_cell_angle_alpha 90.000000
_cell_angle_beta 88.391980
_cell_angle_gamma 90.000000
_cell_volume 2544.526192
_symmetry_space_group_name_H-M "C 2/C"
_symmetry_group_IT_number 15
_symmetry_cell_setting 'monoclinic'
loop_
_space_group_symop_operation_xyz
x,y,z
-x,y,1/2-z
-x,-y,-z
x,-y,1/2+z
1/2+x,1/2+y,z
1/2-x,1/2+y,1/2-z
1/2-x,1/2-y,-z
1/2+x,1/2-y,1/2+z
loop_
_atom_site_type_symbol
_atom_site_label
_atom_site_fract_x
_atom_site_fract_y
_atom_site_fract_z
Si Si1 0.062057 0.814627 0.847547
Si Si2 0.632269 0.742651 0.687519
Si Si3 0.124971 0.296331 0.047496
Si Si4 0.816449 0.112165 0.677099
Si Si5 0.918346 0.135533 0.948314
Si Si6 0.095443 0.404781 0.484959
Si Si7 0.588986 0.002759 0.658109
O O1 0.227489 0.788643 0.830242
O O2 0.000000 0.843447 0.750000
O O3 0.966140 0.748777 0.875916
O O4 0.045669 0.862877 0.939762
O O5 0.500000 0.774380 0.750000
O O6 0.669104 0.672649 0.745413
O O7 0.573256 0.712770 0.588576
O O8 0.220966 0.351994 0.098198
O O9 0.008178 0.341143 0.991788
O O10 0.250000 0.250000 0.000000
O O11 0.724831 0.045149 0.698405
O O12 0.970815 0.096687 0.623221
O O13 0.751352 0.115904 0.941900
O O14 0.127344 0.445809 0.581018
O O15 0.014455 0.448618 0.404838
O O16 0.500000 0.976039 0.750000
#
# Coordination Sequence:
#
# PCOD9279341 Si02
#       7
#     8   8   8   8   8   8   8
#     4  12  23  37  57  88 129 172 202 245 316 381
#     4  10  21  35  57  90 118 160 214 261 302 369
#     4  11  21  38  61  88 125 173 202 246 309 391
#     4  10  21  37  64  88 119 160 218 258 310 374
#     4  11  22  39  57  92 128 156 205 268 312 370
#     4  10  23  40  66  91 123 163 215 260 319 369
#     4  10  22  43  65  92 119 165 213 268 312 375
#
# _framework density 22.008027999999999
#
# number of rings (size 3 to 8) (size 9 to 14) (size 15 to 20)
#    0.000    1.429    4.286    1.286    2.000    0.571 
#    2.571    0.000    0.000    2.571    0.000    0.000 
#    0.000    0.000    0.000    0.000    0.000    0.000 
#
# Total GULP energy -156309.576945 kJ/mol
# GULP energy per Si atom -5582.484891 kJ/mol
# Density = 2.195794 g / cm^3
# Si number density = 22.008028 Si / 1000 Ang^3
#
#
#
# Elastic Constant Matrix: (Units=GPa)
#
#
# Indices 1 2 3 4 5 6 
#
# 1 103.8186 9.0033 2.7166 0.0000 -32.5498 0.0000
# 2 9.0033 30.3120 1.1313 0.0000 -10.0109 0.0000
# 3 2.7166 1.1313 81.9635 0.0000 -15.8395 0.0000
# 4 0.0000 0.0000 0.0000 17.2777 0.0000 2.2115
# 5 -32.5498 -10.0109 -15.8395 0.0000 39.3439 0.0000
# 6 0.0000 0.0000 0.0000 2.2115 0.0000 13.8808
#
#
#
# Elastic Compliance Matrix: (Units=1/GPa)
#
#
# Indices 1 2 3 4 5 6 
#
# 1 0.013252 -0.000155 0.001815 0.000000 0.011655 0.000000
# 2 -0.000155 0.036163 0.001366 0.000000 0.009624 0.000000
# 3 0.001815 0.001366 0.013532 0.000000 0.007297 0.000000
# 4 0.000000 0.000000 0.000000 0.059083 0.000000 -0.009413
# 5 0.011655 0.009624 0.007297 0.000000 0.040446 0.000000
# 6 0.000000 0.000000 0.000000 -0.009413 0.000000 0.073542
#
#
# Mechanical properties :
#
#
# Convention : Reuss Voigt Hill
#
# Bulk Modulus (GPa) = 14.49268 26.86627 20.67947
# Shear Modulus (GPa) = 19.76556 27.65002 23.70779
#
# Velocity S-wave (km/s) = 3.00009 3.54836 3.28568
# Velocity P-wave (km/s) = 4.31280 5.38719 4.87965
#
# Compressibility (1/GPa) = 0.06900037
#
# Stress axis : x y z
#
# Youngs Moduli (GPa) = 75.45825 27.65219 73.90053
#
# Poissons Ratio (x) = 0.00428 -0.13415
# Poissons Ratio (y) = 0.01167 -0.10093
# Poissons Ratio (z) = -0.13698 -0.03777
#
# Static dielectric constant tensor:
#      x y z
#    x 1.841310 0.000000 0.046200 
#    y 0.000000 1.861980 0.000000 
#    z 0.046200 0.000000 1.855550 
# 
# From -- ./inp_files/136422.got.cif
#   From: 2010.05.17/outbox.cif.g08.bks.cpg/sg15_69_cif.got.tgz:136422.got - 2010.06.03 18:47:42.
