data_PCOD9279875
_publ_section_title
;
Structure prediction by ZEFSAII (Michael W. Deem and Ramdas Pophale) SiO2 
 PCOD9279875
Probable space group: C 2/C
;
_chemical_formula_sum "Si O2"
_cell_formula_units_Z 48
_cell_length_a 23.583073
_cell_length_b 8.629088
_cell_length_c 15.800363
_cell_angle_alpha 90.000000
_cell_angle_beta 136.005230
_cell_angle_gamma 90.000000
_cell_volume 2233.379761
_symmetry_space_group_name_H-M "C 2/C"
_symmetry_group_IT_number 15
_symmetry_cell_setting 'monoclinic'
loop_
_space_group_symop_operation_xyz
x,y,z
-x,y,1/2-z
-x,-y,-z
x,-y,1/2+z
1/2+x,1/2+y,z
1/2-x,1/2+y,1/2-z
1/2-x,1/2-y,-z
1/2+x,1/2-y,1/2+z
loop_
_atom_site_type_symbol
_atom_site_label
_atom_site_fract_x
_atom_site_fract_y
_atom_site_fract_z
Si Si1 0.728927 0.335625 0.125638
Si Si2 0.618675 0.161943 0.435286
Si Si3 0.850946 0.862927 0.872896
Si Si4 0.243777 0.558998 0.023488
Si Si5 0.000000 0.601424 0.750000
Si Si6 0.071652 0.125976 0.218584
Si Si7 0.000000 0.108930 0.750000
O O1 0.779430 0.238688 0.249624
O O2 0.679053 0.472291 0.119670
O O3 0.800942 0.692451 0.467343
O O4 0.773799 0.425306 0.095700
O O5 0.614980 0.250794 0.518925
O O6 0.578930 0.283887 0.328409
O O7 0.709519 0.104485 0.516233
O O8 0.561892 0.012236 0.364653
O O9 0.915179 0.882354 0.866549
O O10 0.339987 0.580637 0.145833
O O11 0.044311 0.711494 0.729337
O O12 0.002872 0.005787 0.174223
#
# Coordination Sequence:
#
# PCOD9279875 Si02
#       7
#     8   8   8   8   4   8   4
#     4  10  21  36  60  93 122 151 198 253 301 345
#     4  11  23  39  62  91 120 156 203 248 296 356
#     4  11  22  36  59  92 122 152 198 256 302 342
#     4  10  21  42  66  86 117 165 205 237 294 368
#     4  10  22  42  62  84 124 166 198 240 298 366
#     4  10  22  42  64  86 120 162 202 246 299 355
#     4  10  24  42  60  88 122 162 202 240 302 370
#
# _framework density 21.492090999999999
#
# number of rings (size 3 to 8) (size 9 to 14) (size 15 to 20)
#    0.000    1.667    0.000    6.000    0.000    6.667 
#    0.000    3.333    0.000    0.000    0.000    0.000 
#    0.000    0.000    0.000    0.000    0.000    0.000 
#
# Total GULP energy -133702.447207 kJ/mol
# GULP energy per Si atom -5570.935300 kJ/mol
# Density = 2.144317 g / cm^3
# Si number density = 21.492091 Si / 1000 Ang^3
#
#
#
# Elastic Constant Matrix: (Units=GPa)
#
#
# Indices 1 2 3 4 5 6 
#
# 1 101.4705 76.3141 8.7433 0.0000 -24.6400 0.0000
# 2 76.3141 143.9498 30.9542 0.0000 -6.8067 0.0000
# 3 8.7433 30.9542 48.0640 0.0000 -7.4927 0.0000
# 4 0.0000 0.0000 0.0000 5.8169 0.0000 -0.3456
# 5 -24.6400 -6.8067 -7.4927 0.0000 31.2895 0.0000
# 6 0.0000 0.0000 0.0000 -0.3456 0.0000 24.3075
#
#
#
# Elastic Compliance Matrix: (Units=1/GPa)
#
#
# Indices 1 2 3 4 5 6 
#
# 1 0.023099 -0.012894 0.006753 0.000000 0.017002 0.000000
# 2 -0.012894 0.015269 -0.008885 0.000000 -0.008960 0.000000
# 3 0.006753 -0.008885 0.026829 0.000000 0.009809 0.000000
# 4 0.000000 0.000000 0.000000 0.172057 0.000000 0.002446
# 5 0.017002 -0.008960 0.009809 0.000000 0.045748 0.000000
# 6 0.000000 0.000000 0.000000 0.002446 0.000000 0.041174
#
#
# Mechanical properties :
#
#
# Convention : Reuss Voigt Hill
#
# Bulk Modulus (GPa) = 28.45419 58.38973 43.42196
# Shear Modulus (GPa) = 13.66327 24.11430 18.88878
#
# Velocity S-wave (km/s) = 2.52411 3.35327 2.96779
# Velocity P-wave (km/s) = 4.66508 6.49766 5.65608
#
# Compressibility (1/GPa) = 0.03514420
#
# Stress axis : x y z
#
# Youngs Moduli (GPa) = 43.29148 65.49017 37.27371
#
# Poissons Ratio (x) = 0.84443 -0.25169
# Poissons Ratio (y) = 0.55820 0.33118
# Poissons Ratio (z) = -0.29233 0.58188
#
# Static dielectric constant tensor:
#      x y z
#    x 1.783840 0.000000 0.037840 
#    y 0.000000 1.807610 0.000000 
#    z 0.037840 0.000000 1.853080 
# 
# From -- ./inp_files/218400.got.cif
#   From: 2010.05.17/outbox.cif.g08.bks.cpg/sg15_110_cif.got.tgz:218400.got - 2010.06.03 18:47:42.
