data_PCOD9279318
_publ_section_title
;
Structure prediction by ZEFSAII (Michael W. Deem and Ramdas Pophale) SiO2 
 PCOD9279318
Probable space group: C 2/C
;
_chemical_formula_sum "Si O2"
_cell_formula_units_Z 44
_cell_length_a 19.143859
_cell_length_b 24.460837
_cell_length_c 14.473497
_cell_angle_alpha 90.000000
_cell_angle_beta 160.331148
_cell_angle_gamma 90.000000
_cell_volume 2281.218889
_symmetry_space_group_name_H-M "C 2/C"
_symmetry_group_IT_number 15
_symmetry_cell_setting 'monoclinic'
loop_
_space_group_symop_operation_xyz
x,y,z
-x,y,1/2-z
-x,-y,-z
x,-y,1/2+z
1/2+x,1/2+y,z
1/2-x,1/2+y,1/2-z
1/2-x,1/2-y,-z
1/2+x,1/2-y,1/2+z
loop_
_atom_site_type_symbol
_atom_site_label
_atom_site_fract_x
_atom_site_fract_y
_atom_site_fract_z
Si Si1 0.080447 0.427751 0.748022
Si Si2 0.000000 0.001030 0.750000
Si Si3 0.268717 0.312963 0.498625
Si Si4 0.615136 0.123215 0.650401
Si Si5 0.931064 0.093055 0.318238
Si Si6 0.078331 0.460605 0.455234
O O1 0.000000 0.412559 0.750000
O O2 0.051823 0.379959 0.638460
O O3 0.921061 0.476060 0.519184
O O4 0.300443 0.458840 0.011642
O O5 0.028856 0.957856 0.701538
O O6 0.500000 0.321657 0.750000
O O7 0.250000 0.250000 0.500000
O O8 0.115856 0.327461 0.224323
O O9 0.272831 0.359565 0.582821
O O10 0.573747 0.072169 0.667614
O O11 0.843511 0.119402 0.889209
O O12 0.804009 0.066431 0.243358
O O13 0.000000 0.458722 0.250000
#
# Coordination Sequence:
#
# PCOD9279318 Si02
#       6
#     8   4   8   8   8   8
#     4  11  23  35  53  77 113 158 195 225 268 329
#     4  12  18  36  54  78 118 154 196 226 274 328
#     4  10  21  35  57  82 113 144 176 237 290 338
#     4  11  22  36  52  81 114 152 187 232 281 337
#     4  11  19  34  53  80 118 145 185 234 282 341
#     4  11  18  30  53  77 110 156 180 220 273 333
#
# _framework density 19.287934
#
# number of rings (size 3 to 8) (size 9 to 14) (size 15 to 20)
#    0.000    1.091   10.000    0.545    2.545    2.182 
#    0.000    0.000    0.000    0.000    0.000    5.091 
#    0.000    0.000    0.000    0.000    0.000    0.000 
#
# Total GULP energy -122511.699677 kJ/mol
# GULP energy per Si atom -5568.713622 kJ/mol
# Density = 1.924403 g / cm^3
# Si number density = 19.287934 Si / 1000 Ang^3
#
#
#
# Elastic Constant Matrix: (Units=GPa)
#
#
# Indices 1 2 3 4 5 6 
#
# 1 62.4399 19.2782 22.1995 0.0000 0.8817 0.0000
# 2 19.2782 66.9181 28.2192 0.0000 -16.3828 0.0000
# 3 22.1995 28.2192 47.6286 0.0000 0.4082 -0.0001
# 4 0.0000 0.0000 0.0000 17.5472 0.0000 -1.5396
# 5 0.8817 -16.3828 0.4082 0.0000 32.2133 -0.0001
# 6 0.0000 0.0000 -0.0001 -1.5396 -0.0001 21.9677
#
#
#
# Elastic Compliance Matrix: (Units=1/GPa)
#
#
# Indices 1 2 3 4 5 6 
#
# 1 0.019582 -0.003050 -0.007303 0.000000 -0.001995 0.000000
# 2 -0.003050 0.024503 -0.013205 0.000000 0.012712 0.000000
# 3 -0.007303 -0.013205 0.032283 0.000000 -0.006925 0.000000
# 4 0.000000 0.000000 0.000000 0.057342 0.000000 0.004019
# 5 -0.001995 0.012712 -0.006925 0.000000 0.037651 0.000000
# 6 0.000000 0.000000 0.000000 0.004019 0.000000 0.045803
#
#
# Mechanical properties :
#
#
# Convention : Reuss Voigt Hill
#
# Bulk Modulus (GPa) = 34.18586 35.15336 34.66961
# Shear Modulus (GPa) = 18.24624 21.49827 19.87226
#
# Velocity S-wave (km/s) = 3.07904 3.34218 3.21330
# Velocity P-wave (km/s) = 5.51390 5.75836 5.63745
#
# Compressibility (1/GPa) = 0.02925186
#
# Stress axis : x y z
#
# Youngs Moduli (GPa) = 51.06827 40.81131 30.97631
#
# Poissons Ratio (x) = 0.12447 0.22621
# Poissons Ratio (y) = 0.15576 0.40904
# Poissons Ratio (z) = 0.37294 0.53891
#
# Static dielectric constant tensor:
#      x y z
#    x 1.755180 0.000000 -0.009660 
#    y 0.000000 1.392300 0.000000 
#    z -0.009660 0.000000 1.794460 
# 
# From -- ./inp_files/148642.got.cif
#   From: 2010.05.17/outbox.cif.g08.bks.cpg/sg15_75_cif.got.tgz:148642.got - 2010.06.03 18:47:42.
