data_PCOD9279207
_publ_section_title
;
Structure prediction by ZEFSAII (Michael W. Deem and Ramdas Pophale) SiO2 
 PCOD9279207
Probable space group: C 2/C
;
_chemical_formula_sum "Si O2"
_cell_formula_units_Z 48
_cell_length_a 7.275204
_cell_length_b 17.146173
_cell_length_c 22.334081
_cell_angle_alpha 90.000000
_cell_angle_beta 140.296376
_cell_angle_gamma 90.000000
_cell_volume 1779.740060
_symmetry_space_group_name_H-M "C 2/C"
_symmetry_group_IT_number 15
_symmetry_cell_setting 'monoclinic'
loop_
_space_group_symop_operation_xyz
x,y,z
-x,y,1/2-z
-x,-y,-z
x,-y,1/2+z
1/2+x,1/2+y,z
1/2-x,1/2+y,1/2-z
1/2-x,1/2-y,-z
1/2+x,1/2-y,1/2+z
loop_
_atom_site_type_symbol
_atom_site_label
_atom_site_fract_x
_atom_site_fract_y
_atom_site_fract_z
Si Si1 0.847388 0.913546 0.646304
Si Si2 0.117154 0.747101 0.378076
Si Si3 0.153212 0.579743 0.393728
Si Si4 0.721606 0.753902 0.581743
Si Si5 0.369143 0.421173 0.151667
Si Si6 0.166994 0.587017 0.913541
O O1 0.512387 0.917675 0.583321
O O2 0.896031 0.834009 0.623000
O O3 0.000000 0.906044 0.750000
O O4 0.931616 0.995405 0.636510
O O5 0.060733 0.659985 0.337683
O O6 0.465147 0.750931 0.469307
O O7 0.031300 0.834509 0.338465
O O8 0.956321 0.742042 0.401178
O O9 0.492799 0.584743 0.490486
O O10 0.091467 0.491272 0.356945
O O11 0.893781 0.673236 0.626718
O O12 0.500000 0.433959 0.250000
O O13 0.025526 0.417699 0.075222
#
# Coordination Sequence:
#
# PCOD9279207 Si02
#       6
#     8   8   8   8   8   8
#     4   9  18  33  51  73 104 137 166 205 259 305
#     4   9  18  34  53  76 104 132 170 213 253 301
#     4   8  16  31  51  71 100 136 164 201 256 306
#     4   9  18  32  54  79 100 130 171 213 254 299
#     4  10  21  35  51  74 105 138 169 206 255 305
#     4   9  17  32  53  74  98 134 172 203 248 305
#
# _framework density 26.970230000000001
#
# number of rings (size 3 to 8) (size 9 to 14) (size 15 to 20)
#    0.000    3.000    0.000    1.000    0.000    6.000 
#    0.000    1.667    0.000    1.000    0.000    0.000 
#    0.000    0.000    0.000    0.000    0.000    0.000 
#
# Total GULP energy -133779.438090 kJ/mol
# GULP energy per Si atom -5574.143254 kJ/mol
# Density = 2.690884 g / cm^3
# Si number density = 26.970230 Si / 1000 Ang^3
#
#
#
# Elastic Constant Matrix: (Units=GPa)
#
#
# Indices 1 2 3 4 5 6 
#
# 1 61.6117 11.8289 15.0277 0.0009 13.7075 0.0004
# 2 11.8289 408.4963 35.5250 -0.0012 -17.5056 -0.0003
# 3 15.0277 35.5250 61.6018 0.0009 15.8235 0.0009
# 4 0.0009 -0.0012 0.0009 6.1278 0.0009 -15.6843
# 5 13.7075 -17.5056 15.8235 0.0009 27.3948 0.0006
# 6 0.0004 -0.0003 0.0009 -15.6843 0.0006 30.9529
#
#
#
# Elastic Compliance Matrix: (Units=1/GPa)
#
#
# Indices 1 2 3 4 5 6 
#
# 1 0.018794 -0.000757 -0.001889 0.000004 -0.008797 0.000002
# 2 -0.000757 0.002827 -0.002356 -0.000002 0.003546 -0.000001
# 3 -0.001889 -0.002356 0.021367 0.000008 -0.012903 0.000004
# 4 0.000004 -0.000002 0.000008 -0.549567 0.000016 -0.278473
# 5 -0.008797 0.003546 -0.012903 0.000016 0.050624 0.000008
# 6 0.000002 -0.000001 0.000004 -0.278473 0.000008 -0.108799
#
#
# Mechanical properties :
#
#
# Convention : Reuss Voigt Hill
#
# Bulk Modulus (GPa) = 30.31799 72.94145 51.62972
# Shear Modulus (GPa) = -9.19531 44.18366 17.49417
#
# Velocity S-wave (km/s) = -1.84847 4.05191 2.54962
# Velocity P-wave (km/s) = 2.59035 6.99961 5.27752
#
# Compressibility (1/GPa) = 0.03298371
#
# Stress axis : x y z
#
# Youngs Moduli (GPa) = 53.20920 353.75470 46.80064
#
# Poissons Ratio (x) = 0.26777 0.08839
# Poissons Ratio (y) = 0.04028 0.11028
# Poissons Ratio (z) = 0.10049 0.83360
#
# Static dielectric constant tensor:
#      x y z
#    x 2.119780 0.000000 -0.016300 
#    y 0.000000 2.250670 0.000000 
#    z -0.016300 0.000000 2.161590 
# 
# From -- ./inp_files/189937.got.cif
#   From: 2010.05.17/outbox.cif.g08.bks.cpg/sg15_95_cif.got.tgz:189937.got - 2010.06.03 18:47:42.
