data_PCOD9279393
_publ_section_title
;
Structure prediction by ZEFSAII (Michael W. Deem and Ramdas Pophale) SiO2 
 PCOD9279393
Probable space group: C 2/C
;
_chemical_formula_sum "Si O2"
_cell_formula_units_Z 48
_cell_length_a 4.988681
_cell_length_b 29.191425
_cell_length_c 17.891352
_cell_angle_alpha 90.000000
_cell_angle_beta 111.294936
_cell_angle_gamma 90.000000
_cell_volume 2427.566636
_symmetry_space_group_name_H-M "C 2/C"
_symmetry_group_IT_number 15
_symmetry_cell_setting 'monoclinic'
loop_
_space_group_symop_operation_xyz
x,y,z
-x,y,1/2-z
-x,-y,-z
x,-y,1/2+z
1/2+x,1/2+y,z
1/2-x,1/2+y,1/2-z
1/2-x,1/2-y,-z
1/2+x,1/2-y,1/2+z
loop_
_atom_site_type_symbol
_atom_site_label
_atom_site_fract_x
_atom_site_fract_y
_atom_site_fract_z
Si Si1 0.929790 0.053232 0.993722
Si Si2 0.134911 0.183248 0.345756
Si Si3 0.790858 0.261927 0.592038
Si Si4 0.009020 0.607481 0.455204
Si Si5 0.753323 0.606404 0.668800
Si Si6 0.189013 0.339466 0.119094
O O1 0.205198 0.083524 0.046836
O O2 0.666014 0.068113 0.019103
O O3 0.844076 0.069003 0.901431
O O4 0.000000 0.000000 0.000000
O O5 0.387669 0.220390 0.367409
O O6 0.292893 0.135409 0.381090
O O7 0.000000 0.180510 0.250000
O O8 0.919257 0.200493 0.390041
O O9 0.750000 0.250000 0.500000
O O10 0.746704 0.213916 0.629365
O O11 0.113909 0.644853 0.527070
O O12 0.462326 0.629572 0.668529
O O13 0.000000 0.589011 0.750000
O O14 0.917077 0.646549 0.640557
#
# Coordination Sequence:
#
# PCOD9279393 Si02
#       6
#     8   8   8   8   8   8
#     4  10  21  39  64  89 113 153 202 244 304 385
#     4  12  26  41  60  91 128 166 212 263 306 357
#     4  12  24  39  63  88 124 170 218 255 299 363
#     4  10  21  39  61  84 117 157 196 245 305 372
#     4  10  21  36  56  86 120 147 189 250 305 350
#     4  10  21  35  59  82 112 160 197 235 296 361
#
# _framework density 19.772887999999998
#
# number of rings (size 3 to 8) (size 9 to 14) (size 15 to 20)
#    0.000    1.333    1.667    4.000    4.667    4.000 
#    0.000    1.667    0.000    0.000    0.000    0.000 
#    0.000    0.000    0.000    0.000    0.000    0.000 
#
# Total GULP energy -134044.070909 kJ/mol
# GULP energy per Si atom -5585.169621 kJ/mol
# Density = 1.972788 g / cm^3
# Si number density = 19.772888 Si / 1000 Ang^3
#
#
#
# Elastic Constant Matrix: (Units=GPa)
#
#
# Indices 1 2 3 4 5 6 
#
# 1 68.7819 -6.3826 20.9930 0.0000 10.3220 0.0000
# 2 -6.3826 81.3619 38.8834 0.0000 8.6893 0.0000
# 3 20.9930 38.8834 137.6960 0.0000 23.4956 0.0000
# 4 0.0000 0.0000 0.0000 15.3703 0.0000 7.6387
# 5 10.3220 8.6893 23.4956 0.0000 27.4613 0.0000
# 6 0.0000 0.0000 0.0000 7.6387 0.0000 11.6019
#
#
#
# Elastic Compliance Matrix: (Units=1/GPa)
#
#
# Indices 1 2 3 4 5 6 
#
# 1 0.016320 0.002999 -0.002490 0.000000 -0.004953 0.000000
# 2 0.002999 0.014796 -0.004267 0.000000 -0.002158 0.000000
# 3 -0.002490 -0.004267 0.009903 0.000000 -0.006186 0.000000
# 4 0.000000 0.000000 0.000000 0.096702 0.000000 -0.063669
# 5 -0.004953 -0.002158 -0.006186 0.000000 0.044253 0.000000
# 6 0.000000 0.000000 0.000000 -0.063669 0.000000 0.128112
#
#
# Mechanical properties :
#
#
# Convention : Reuss Voigt Hill
#
# Bulk Modulus (GPa) = 29.84813 43.86970 36.85891
# Shear Modulus (GPa) = 15.20825 26.50977 20.85901
#
# Velocity S-wave (km/s) = 2.77636 3.66555 3.25149
# Velocity P-wave (km/s) = 5.04042 6.33640 5.72520
#
# Compressibility (1/GPa) = 0.03350294
#
# Stress axis : x y z
#
# Youngs Moduli (GPa) = 61.27352 67.58663 100.98374
#
# Poissons Ratio (x) = -0.20271 0.25144
# Poissons Ratio (y) = -0.18377 0.43091
# Poissons Ratio (z) = 0.15257 0.28840
#
# Static dielectric constant tensor:
#      x y z
#    x 1.691230 0.000000 -0.022700 
#    y 0.000000 1.660790 0.000000 
#    z -0.022700 0.000000 1.746030 
# 
# From -- ./inp_files/185967.got.cif
#   From: 2010.05.17/outbox.cif.g08.bks.cpg/sg15_93_cif.got.tgz:185967.got - 2010.06.03 18:47:42.
