data_PCOD9279970
_publ_section_title
;
Structure prediction by ZEFSAII (Michael W. Deem and Ramdas Pophale) SiO2 
 PCOD9279970
Probable space group: C 2/C
;
_chemical_formula_sum "Si O2"
_cell_formula_units_Z 56
_cell_length_a 6.382539
_cell_length_b 27.352408
_cell_length_c 14.272969
_cell_angle_alpha 90.000000
_cell_angle_beta 101.389993
_cell_angle_gamma 90.000000
_cell_volume 2442.670488
_symmetry_space_group_name_H-M "C 2/C"
_symmetry_group_IT_number 15
_symmetry_cell_setting 'monoclinic'
loop_
_space_group_symop_operation_xyz
x,y,z
-x,y,1/2-z
-x,-y,-z
x,-y,1/2+z
1/2+x,1/2+y,z
1/2-x,1/2+y,1/2-z
1/2-x,1/2-y,-z
1/2+x,1/2-y,1/2+z
loop_
_atom_site_type_symbol
_atom_site_label
_atom_site_fract_x
_atom_site_fract_y
_atom_site_fract_z
Si Si1 0.714663 0.504119 0.962934
Si Si2 0.493830 0.021910 0.143317
Si Si3 0.171050 0.374770 0.849625
Si Si4 0.500000 0.155311 0.750000
Si Si5 0.631091 0.688801 0.585860
Si Si6 0.000000 0.169931 0.250000
Si Si7 0.661743 0.394268 0.350460
Si Si8 0.123912 0.700206 0.085561
O O1 0.706552 0.557700 0.914641
O O2 0.771318 0.469800 0.878742
O O3 0.500000 0.500000 0.000000
O O4 0.883339 0.486996 0.058579
O O5 0.500000 0.005555 0.250000
O O6 0.349546 0.069893 0.119736
O O7 0.395238 0.361081 0.824637
O O8 0.000000 0.374198 0.750000
O O9 0.073340 0.335723 0.911975
O O10 0.313721 0.185252 0.681949
O O11 0.622993 0.124532 0.680949
O O12 0.456753 0.647812 0.598216
O O13 0.753476 0.683776 0.497666
O O14 0.543355 0.744072 0.574352
O O15 0.198621 0.197832 0.315376
O O16 0.500000 0.406017 0.250000
#
# Coordination Sequence:
#
# PCOD9279970 Si02
#       8
#     8   8   8   4   8   4   8   8
#     4  11  27  42  70  98 124 170 216 271 326 393
#     4  10  25  44  66  98 131 167 210 265 327 387
#     4   9  21  39  61  90 128 162 204 255 305 378
#     4  10  23  42  66  86 130 172 206 264 318 371
#     4  10  23  40  62  95 124 167 212 258 311 379
#     4  10  21  36  62  90 122 174 202 248 318 373
#     4  10  25  43  68  94 125 166 217 266 321 387
#     4  10  22  38  62  93 130 163 210 259 309 377
#
# _framework density 22.925730000000001
#
# number of rings (size 3 to 8) (size 9 to 14) (size 15 to 20)
#    0.000    2.000    0.000    0.429    9.000   10.857 
#    0.000    2.857    0.000    0.000    0.000    0.000 
#    0.000    0.000    0.000    0.000    0.000    0.000 
#
# Total GULP energy -156241.194662 kJ/mol
# GULP energy per Si atom -5580.042667 kJ/mol
# Density = 2.287355 g / cm^3
# Si number density = 22.925730 Si / 1000 Ang^3
#
#
#
# Elastic Constant Matrix: (Units=GPa)
#
#
# Indices 1 2 3 4 5 6 
#
# 1 89.3520 33.5986 32.8643 0.0000 -26.1767 0.0000
# 2 33.5986 61.0298 35.1447 0.0000 -19.4939 0.0000
# 3 32.8643 35.1447 135.9747 0.0000 -21.0261 0.0000
# 4 0.0000 0.0000 0.0000 21.6662 0.0000 -2.1786
# 5 -26.1767 -19.4939 -21.0261 0.0000 50.1863 0.0000
# 6 0.0000 0.0000 0.0000 -2.1786 0.0000 17.4705
#
#
#
# Elastic Compliance Matrix: (Units=1/GPa)
#
#
# Indices 1 2 3 4 5 6 
#
# 1 0.015495 -0.006098 -0.001375 0.000000 0.005138 0.000000
# 2 -0.006098 0.023349 -0.003903 0.000000 0.004253 0.000000
# 3 -0.001375 -0.003903 0.008929 0.000000 0.001508 0.000000
# 4 0.000000 0.000000 0.000000 0.046741 0.000000 0.005829
# 5 0.005138 0.004253 0.001508 0.000000 0.024889 0.000000
# 6 0.000000 0.000000 0.000000 0.005829 0.000000 0.057966
#
#
# Mechanical properties :
#
#
# Convention : Reuss Voigt Hill
#
# Bulk Modulus (GPa) = 39.96629 54.39686 47.18158
# Shear Modulus (GPa) = 23.98522 30.18118 27.08320
#
# Velocity S-wave (km/s) = 3.23803 3.63226 3.44080
# Velocity P-wave (km/s) = 5.60808 6.43196 6.03410
#
# Compressibility (1/GPa) = 0.02502109
#
# Stress axis : x y z
#
# Youngs Moduli (GPa) = 64.53513 42.82844 112.00066
#
# Poissons Ratio (x) = 0.26117 0.15395
# Poissons Ratio (y) = 0.39354 0.43717
# Poissons Ratio (z) = 0.08871 0.16717
#
# Static dielectric constant tensor:
#      x y z
#    x 2.147950 0.000000 0.014760 
#    y 0.000000 1.920290 0.000000 
#    z 0.014760 0.000000 1.905670 
# 
# From -- ./inp_files/130840.got.cif
#   From: 2010.05.17/outbox.cif.g08.bks.cpg/sg15_66_cif.got.tgz:130840.got - 2010.06.03 18:47:42.
