data_PCOD9279519
_publ_section_title
;
Structure prediction by ZEFSAII (Michael W. Deem and Ramdas Pophale) SiO2 
 PCOD9279519
Probable space group: C 2/C
;
_chemical_formula_sum "Si O2"
_cell_formula_units_Z 64
_cell_length_a 10.325051
_cell_length_b 20.365820
_cell_length_c 12.494525
_cell_angle_alpha 90.000000
_cell_angle_beta 101.272028
_cell_angle_gamma 90.000000
_cell_volume 2576.644782
_symmetry_space_group_name_H-M "C 2/C"
_symmetry_group_IT_number 15
_symmetry_cell_setting 'monoclinic'
loop_
_space_group_symop_operation_xyz
x,y,z
-x,y,1/2-z
-x,-y,-z
x,-y,1/2+z
1/2+x,1/2+y,z
1/2-x,1/2+y,1/2-z
1/2-x,1/2-y,-z
1/2+x,1/2-y,1/2+z
loop_
_atom_site_type_symbol
_atom_site_label
_atom_site_fract_x
_atom_site_fract_y
_atom_site_fract_z
Si Si1 0.551994 0.964324 0.372417
Si Si2 0.627375 0.298794 0.690314
Si Si3 0.656038 0.569057 0.263608
Si Si4 0.154838 0.926148 0.302077
Si Si5 0.725052 0.138807 0.008597
Si Si6 0.465254 0.779026 0.532050
Si Si7 0.661888 0.914493 0.985378
Si Si8 0.841881 0.204094 0.825694
O O1 0.500000 0.944228 0.250000
O O2 0.674564 0.921878 0.430889
O O3 0.435707 0.942939 0.435438
O O4 0.603074 0.039256 0.383248
O O5 0.500000 0.297831 0.750000
O O6 0.669056 0.374584 0.676729
O O7 0.589079 0.261786 0.576305
O O8 0.743965 0.260665 0.769764
O O9 0.500000 0.559776 0.250000
O O10 0.709883 0.495367 0.264675
O O11 0.709248 0.605933 0.377691
O O12 0.196846 0.925049 0.433988
O O13 0.195881 0.858285 0.253239
O O14 0.000000 0.925925 0.250000
O O15 0.598696 0.181928 0.020692
O O16 0.813778 0.181445 0.943777
O O17 0.365956 0.838331 0.540296
O O18 0.509130 0.732024 0.636523
#
# Coordination Sequence:
#
# PCOD9279519 Si02
#       8
#     8   8   8   8   8   8   8   8
#     4  10  21  35  63  98 127 161 202 256 313 373
#     4  11  20  34  61  96 130 153 191 255 326 378
#     4  10  21  38  59  87 127 165 194 248 318 370
#     4  11  24  44  63  82 124 175 210 245 299 367
#     4  11  20  35  61  97 131 149 199 255 322 378
#     4  11  22  36  60  97 123 155 202 255 322 369
#     4  10  21  40  65  88 125 166 206 256 315 367
#     4  12  22  37  64  93 121 160 205 255 311 375
#
# _framework density 24.838502999999999
#
# number of rings (size 3 to 8) (size 9 to 14) (size 15 to 20)
#    0.000    1.250    5.000    2.625    1.750    0.000 
#    0.000    6.875    2.750    0.000    0.000    0.000 
#    0.000    0.000    0.000    0.000    0.000    0.000 
#
# Total GULP energy -178990.745864 kJ/mol
# GULP energy per Si atom -5593.460808 kJ/mol
# Density = 2.478197 g / cm^3
# Si number density = 24.838503 Si / 1000 Ang^3
#
#
#
# Elastic Constant Matrix: (Units=GPa)
#
#
# Indices 1 2 3 4 5 6 
#
# 1 42.5021 8.5263 15.8144 0.0000 15.6037 0.0000
# 2 8.5263 172.2056 33.7855 0.0000 16.1943 0.0000
# 3 15.8144 33.7855 122.6012 0.0000 30.8219 0.0000
# 4 0.0000 0.0000 0.0000 26.9528 0.0000 13.5029
# 5 15.6037 16.1943 30.8219 0.0000 40.0788 0.0000
# 6 0.0000 0.0000 0.0000 13.5029 0.0000 27.5212
#
#
#
# Elastic Compliance Matrix: (Units=1/GPa)
#
#
# Indices 1 2 3 4 5 6 
#
# 1 0.027573 -0.000239 -0.001012 0.000000 -0.009860 0.000000
# 2 -0.000239 0.006211 -0.001330 0.000000 -0.001393 0.000000
# 3 -0.001012 -0.001330 0.010437 0.000000 -0.007095 0.000000
# 4 0.000000 0.000000 0.000000 0.049194 0.000000 -0.024136
# 5 -0.009860 -0.001393 -0.007095 0.000000 0.034809 0.000000
# 6 0.000000 0.000000 0.000000 -0.024136 0.000000 0.048178
#
#
# Mechanical properties :
#
#
# Convention : Reuss Voigt Hill
#
# Bulk Modulus (GPa) = 25.60324 50.39569 37.99947
# Shear Modulus (GPa) = 25.69585 37.52274 31.60930
#
# Velocity S-wave (km/s) = 3.21988 3.89095 3.57121
# Velocity P-wave (km/s) = 4.91465 6.36548 5.68652
#
# Compressibility (1/GPa) = 0.03905755
#
# Stress axis : x y z
#
# Youngs Moduli (GPa) = 36.26782 161.00713 95.80922
#
# Poissons Ratio (x) = 0.03855 0.09695
# Poissons Ratio (y) = 0.00868 0.12747
# Poissons Ratio (z) = 0.03670 0.21421
#
# Static dielectric constant tensor:
#      x y z
#    x 2.028120 0.000000 -0.057320 
#    y 0.000000 1.985470 0.000000 
#    z -0.057320 0.000000 1.925580 
# 
# From -- ./inp_files/155226.got.cif
#   From: 2010.05.17/outbox.cif.g08.bks.cpg/sg15_78_cif.got.tgz:155226.got - 2010.06.03 18:47:42.
