data_PCOD9279345
_publ_section_title
;
Structure prediction by ZEFSAII (Michael W. Deem and Ramdas Pophale) SiO2 
 PCOD9279345
Probable space group: C 2/C
;
_chemical_formula_sum "Si O2"
_cell_formula_units_Z 60
_cell_length_a 18.315316
_cell_length_b 12.888863
_cell_length_c 13.662288
_cell_angle_alpha 90.000000
_cell_angle_beta 107.591023
_cell_angle_gamma 90.000000
_cell_volume 3074.353625
_symmetry_space_group_name_H-M "C 2/C"
_symmetry_group_IT_number 15
_symmetry_cell_setting 'monoclinic'
loop_
_space_group_symop_operation_xyz
x,y,z
-x,y,1/2-z
-x,-y,-z
x,-y,1/2+z
1/2+x,1/2+y,z
1/2-x,1/2+y,1/2-z
1/2-x,1/2-y,-z
1/2+x,1/2-y,1/2+z
loop_
_atom_site_type_symbol
_atom_site_label
_atom_site_fract_x
_atom_site_fract_y
_atom_site_fract_z
Si Si1 0.620734 0.601849 0.148156
Si Si2 0.748290 0.017918 0.676554
Si Si3 0.894638 0.604613 0.464973
Si Si4 0.001738 0.500747 0.643965
Si Si5 0.000000 0.012828 0.250000
Si Si6 0.132057 0.674812 0.720169
Si Si7 0.135364 0.974037 0.432771
Si Si8 0.161864 0.778823 0.942258
O O1 0.690349 0.545416 0.234137
O O2 0.546365 0.577374 0.185785
O O3 0.629583 0.725461 0.149680
O O4 0.621897 0.560363 0.038032
O O5 0.704743 0.103518 0.723254
O O6 0.791251 0.065213 0.599040
O O7 0.683677 0.939318 0.610655
O O8 0.920336 0.538584 0.570636
O O9 0.886563 0.722459 0.493194
O O10 0.961270 0.579262 0.416076
O O11 0.000000 0.453776 0.750000
O O12 0.057939 0.601280 0.675584
O O13 0.062173 0.949206 0.336144
O O14 0.138906 0.725277 0.830464
O O15 0.146898 0.099258 0.434935
O O16 0.250000 0.750000 0.000000
#
# Coordination Sequence:
#
# PCOD9279345 Si02
#       8
#     8   8   8   8   4   8   8   8
#     4  11  23  40  64  92 125 163 203 261 306 361
#     4  10  22  39  58  95 125 154 204 258 309 370
#     4  10  21  35  57  92 121 154 206 253 307 360
#     4  10  21  36  59  87 122 164 200 255 308 371
#     4  10  22  42  58  92 120 158 214 244 304 366
#     4  11  22  37  63  90 123 161 210 248 312 375
#     4  11  23  39  65  87 125 163 207 257 309 361
#     4  12  20  36  63  91 115 161 210 252 301 368
#
# _framework density 19.516299
#
# number of rings (size 3 to 8) (size 9 to 14) (size 15 to 20)
#    0.000    1.333    5.333    1.200    2.800    0.533 
#    0.000    0.000    1.467    4.800    0.000    0.000 
#    0.000    0.000    0.000    0.000    0.000    0.000 
#
# Total GULP energy -167456.940623 kJ/mol
# GULP energy per Si atom -5581.898021 kJ/mol
# Density = 1.947188 g / cm^3
# Si number density = 19.516299 Si / 1000 Ang^3
#
#
#
# Elastic Constant Matrix: (Units=GPa)
#
#
# Indices 1 2 3 4 5 6 
#
# 1 56.8482 15.8434 9.7341 0.0000 2.5144 0.0000
# 2 15.8434 66.3758 23.3314 0.0000 -17.3920 0.0000
# 3 9.7341 23.3314 104.4616 0.0000 -5.3027 0.0000
# 4 0.0000 0.0000 0.0000 30.9359 0.0000 -9.2794
# 5 2.5144 -17.3920 -5.3027 0.0000 29.5029 0.0000
# 6 0.0000 0.0000 0.0000 -9.2794 0.0000 19.8003
#
#
#
# Elastic Compliance Matrix: (Units=1/GPa)
#
#
# Indices 1 2 3 4 5 6 
#
# 1 0.019561 -0.005750 -0.000803 0.000000 -0.005201 0.000000
# 2 -0.005750 0.020855 -0.003505 0.000000 0.012154 0.000000
# 3 -0.000803 -0.003505 0.010424 0.000000 -0.000124 0.000000
# 4 0.000000 0.000000 0.000000 0.037612 0.000000 0.017627
# 5 -0.005201 0.012154 -0.000124 0.000000 0.041481 0.000000
# 6 0.000000 0.000000 0.000000 0.017627 0.000000 0.058765
#
#
# Mechanical properties :
#
#
# Convention : Reuss Voigt Hill
#
# Bulk Modulus (GPa) = 32.54675 36.16703 34.35689
# Shear Modulus (GPa) = 22.82546 27.96628 25.39587
#
# Velocity S-wave (km/s) = 3.42359 3.78957 3.61122
# Velocity P-wave (km/s) = 5.68690 6.14164 5.91864
#
# Compressibility (1/GPa) = 0.03072503
#
# Stress axis : x y z
#
# Youngs Moduli (GPa) = 51.12336 47.95062 95.93020
#
# Poissons Ratio (x) = 0.27569 0.07699
# Poissons Ratio (y) = 0.29394 0.33625
# Poissons Ratio (z) = 0.04103 0.16808
#
# Static dielectric constant tensor:
#      x y z
#    x 1.719630 0.000000 0.001230 
#    y 0.000000 1.653980 0.000000 
#    z 0.001230 0.000000 1.709720 
# 
# From -- ./inp_files/160965.got.cif
#   From: 2010.05.17/outbox.cif.g08.bks.cpg/sg15_81_cif.got.tgz:160965.got - 2010.06.03 18:47:42.
