data_PCOD9279129
_publ_section_title
;
Structure prediction by ZEFSAII (Michael W. Deem and Ramdas Pophale) SiO2 
 PCOD9279129
Probable space group: C 2/C
;
_chemical_formula_sum "Si O2"
_cell_formula_units_Z 56
_cell_length_a 11.758271
_cell_length_b 9.289142
_cell_length_c 27.531750
_cell_angle_alpha 90.000000
_cell_angle_beta 112.368070
_cell_angle_gamma 90.000000
_cell_volume 2780.872652
_symmetry_space_group_name_H-M "C 2/C"
_symmetry_group_IT_number 15
_symmetry_cell_setting 'monoclinic'
loop_
_space_group_symop_operation_xyz
x,y,z
-x,y,1/2-z
-x,-y,-z
x,-y,1/2+z
1/2+x,1/2+y,z
1/2-x,1/2+y,1/2-z
1/2-x,1/2-y,-z
1/2+x,1/2-y,1/2+z
loop_
_atom_site_type_symbol
_atom_site_label
_atom_site_fract_x
_atom_site_fract_y
_atom_site_fract_z
Si Si1 0.038328 0.035114 0.839910
Si Si2 0.160572 0.191297 0.165822
Si Si3 0.622020 0.327529 0.554744
Si Si4 0.623491 0.470390 0.961275
Si Si5 0.186240 0.491124 0.653672
Si Si6 0.599435 0.809198 0.730019
Si Si7 0.366029 0.994696 0.957465
O O1 0.074163 0.047145 0.903267
O O2 0.166929 0.008217 0.832460
O O3 0.967978 0.169398 0.804040
O O4 0.942590 0.902305 0.824245
O O5 0.185631 0.125012 0.116037
O O6 0.121113 0.353864 0.148066
O O7 0.281302 0.213736 0.217358
O O8 0.476651 0.347881 0.543130
O O9 0.637485 0.425086 0.509776
O O10 0.665950 0.165566 0.551924
O O11 0.759904 0.419590 0.970714
O O12 0.149345 0.402385 0.694031
O O13 0.135136 0.424704 0.595732
O O14 0.500000 0.879919 0.750000
O O15 0.500000 0.000000 0.000000
#
# Coordination Sequence:
#
# PCOD9279129 Si02
#       7
#     8   8   8   8   8   8   8
#     4  10  22  43  65  87 120 163 202 248 302 359
#     4  10  21  40  62  86 123 160 199 246 303 351
#     4   9  19  36  59  86 115 152 197 239 286 360
#     4   9  19  37  62  85 114 157 196 239 297 353
#     4  10  23  44  59  89 125 157 203 250 298 361
#     4  12  24  39  63  89 120 156 203 253 298 361
#     4  10  21  34  58  87 121 153 189 243 300 349
#
# _framework density 20.137563
#
# number of rings (size 3 to 8) (size 9 to 14) (size 15 to 20)
#    0.000    2.000    1.429    1.286    2.000    1.714 
#    5.143    0.000    0.000    0.000    0.000    0.000 
#    0.000    0.000    0.000    0.000    0.000    0.000 
#
# Total GULP energy -156030.079421 kJ/mol
# GULP energy per Si atom -5572.502836 kJ/mol
# Density = 2.009173 g / cm^3
# Si number density = 20.137563 Si / 1000 Ang^3
#
#
#
# Elastic Constant Matrix: (Units=GPa)
#
#
# Indices 1 2 3 4 5 6 
#
# 1 100.8833 32.6642 77.0058 0.0000 -14.9884 0.0000
# 2 32.6642 35.6051 17.7918 0.0000 -10.4181 0.0000
# 3 77.0058 17.7918 105.1048 0.0000 -0.1052 0.0000
# 4 0.0000 0.0000 0.0000 24.9468 0.0000 2.5190
# 5 -14.9884 -10.4181 -0.1052 0.0000 38.6066 0.0000
# 6 0.0000 0.0000 0.0000 2.5190 0.0000 29.1783
#
#
#
# Elastic Compliance Matrix: (Units=1/GPa)
#
#
# Indices 1 2 3 4 5 6 
#
# 1 0.032761 -0.017168 -0.021089 0.000000 0.008029 0.000000
# 2 -0.017168 0.042563 0.005378 0.000000 0.004835 0.000000
# 3 -0.021089 0.005378 0.024048 0.000000 -0.006670 0.000000
# 4 0.000000 0.000000 0.000000 0.040438 0.000000 -0.003491
# 5 0.008029 0.004835 -0.006670 0.000000 0.030306 0.000000
# 6 0.000000 0.000000 0.000000 -0.003491 0.000000 0.034573
#
#
# Mechanical properties :
#
#
# Convention : Reuss Voigt Hill
#
# Bulk Modulus (GPa) = 29.74818 55.16854 42.45836
# Shear Modulus (GPa) = 17.75240 26.15508 21.95374
#
# Velocity S-wave (km/s) = 2.97232 3.60783 3.30538
# Velocity P-wave (km/s) = 5.15598 6.69407 5.97472
#
# Compressibility (1/GPa) = 0.03361551
#
# Stress axis : x y z
#
# Youngs Moduli (GPa) = 30.52382 23.49440 41.58360
#
# Poissons Ratio (x) = 0.40336 0.87694
# Poissons Ratio (y) = 0.52404 -0.22365
# Poissons Ratio (z) = 0.64370 -0.12636
#
# Static dielectric constant tensor:
#      x y z
#    x 1.704900 0.000000 -0.013000 
#    y 0.000000 1.813150 0.000000 
#    z -0.013000 0.000000 1.774740 
# 
# From -- ./inp_files/291601.got.cif
#   From: 2010.05.17/outbox.cif.g08.bks.cpg/sg15_146_cif.got.tgz:291601.got - 2010.06.03 18:47:42.
