data_PCOD9279075
_publ_section_title
;
Structure prediction by ZEFSAII (Michael W. Deem and Ramdas Pophale) SiO2 
 PCOD9279075
Probable space group: C 2/C
;
_chemical_formula_sum "Si O2"
_cell_formula_units_Z 56
_cell_length_a 16.684619
_cell_length_b 16.249589
_cell_length_c 11.588141
_cell_angle_alpha 90.000000
_cell_angle_beta 57.707376
_cell_angle_gamma 90.000000
_cell_volume 2655.822489
_symmetry_space_group_name_H-M "C 2/C"
_symmetry_group_IT_number 15
_symmetry_cell_setting 'monoclinic'
loop_
_space_group_symop_operation_xyz
x,y,z
-x,y,1/2-z
-x,-y,-z
x,-y,1/2+z
1/2+x,1/2+y,z
1/2-x,1/2+y,1/2-z
1/2-x,1/2-y,-z
1/2+x,1/2-y,1/2+z
loop_
_atom_site_type_symbol
_atom_site_label
_atom_site_fract_x
_atom_site_fract_y
_atom_site_fract_z
Si Si1 0.235160 0.269701 0.646788
Si Si2 0.925033 0.781043 0.653937
Si Si3 0.375589 0.750887 0.462172
Si Si4 0.102237 0.038056 0.316186
Si Si5 0.742677 0.393523 0.513907
Si Si6 0.095704 0.867036 0.228161
Si Si7 0.236195 0.942894 0.924602
O O1 0.250000 0.250000 0.500000
O O2 0.334812 0.266027 0.640643
O O3 0.157369 0.202771 0.744415
O O4 0.205606 0.365634 0.669692
O O5 0.896580 0.757081 0.806816
O O6 0.955720 0.877798 0.625129
O O7 0.024442 0.738108 0.552287
O O8 0.314952 0.667431 0.526973
O O9 0.312022 0.831304 0.525790
O O10 0.169287 0.066777 0.159657
O O11 0.165787 0.027699 0.379260
O O12 0.059806 0.949402 0.321463
O O13 0.789305 0.474425 0.422564
O O14 0.000000 0.828744 0.250000
O O15 0.168079 0.904228 0.076283
#
# Coordination Sequence:
#
# PCOD9279075 Si02
#       7
#     8   8   8   8   8   8   8
#     4   9  19  38  51  73 107 149 180 212 265 318
#     4   9  18  33  56  77 115 143 169 224 275 324
#     4   9  18  32  54  87 110 137 180 218 275 322
#     4   9  19  33  52  80 110 138 171 225 284 311
#     4   9  18  33  54  82 112 137 178 226 260 331
#     4  10  21  34  56  79 105 138 185 224 263 325
#     4   9  19  36  54  75 113 144 170 220 278 316
#
# _framework density 21.085747000000001
#
# number of rings (size 3 to 8) (size 9 to 14) (size 15 to 20)
#    0.000    2.857    0.000    0.000    8.000    0.571 
#    5.143    0.000    3.143    7.714    0.000    0.000 
#    0.000    0.000    0.000    0.000    0.000    0.000 
#
# Total GULP energy -155959.451063 kJ/mol
# GULP energy per Si atom -5569.980395 kJ/mol
# Density = 2.103776 g / cm^3
# Si number density = 21.085747 Si / 1000 Ang^3
#
#
#
# Elastic Constant Matrix: (Units=GPa)
#
#
# Indices 1 2 3 4 5 6 
#
# 1 105.8301 70.7993 8.0458 0.0000 -11.7001 0.0000
# 2 70.7993 138.9099 13.1905 0.0000 -11.4921 0.0000
# 3 8.0458 13.1905 35.4309 0.0000 7.5623 0.0000
# 4 0.0000 0.0000 0.0000 29.2467 0.0000 11.2142
# 5 -11.7001 -11.4921 7.5623 0.0000 25.0016 0.0000
# 6 0.0000 0.0000 0.0000 11.2142 0.0000 33.1322
#
#
#
# Elastic Compliance Matrix: (Units=1/GPa)
#
#
# Indices 1 2 3 4 5 6 
#
# 1 0.014717 -0.007003 -0.001623 0.000000 0.004159 0.000000
# 2 -0.007003 0.011316 -0.003243 0.000000 0.002905 0.000000
# 3 -0.001623 -0.003243 0.032370 0.000000 -0.012041 0.000000
# 4 0.000000 0.000000 0.000000 0.039291 0.000000 -0.013299
# 5 0.004159 0.002905 -0.012041 0.000000 0.046921 0.000000
# 6 0.000000 0.000000 0.000000 -0.013299 0.000000 0.034683
#
#
# Mechanical properties :
#
#
# Convention : Reuss Voigt Hill
#
# Bulk Modulus (GPa) = 28.84623 51.58245 40.21434
# Shear Modulus (GPa) = 23.30010 30.01845 26.65927
#
# Velocity S-wave (km/s) = 3.32778 3.77720 3.55959
# Velocity P-wave (km/s) = 5.33626 6.59843 6.00062
#
# Compressibility (1/GPa) = 0.03466657
#
# Stress axis : x y z
#
# Youngs Moduli (GPa) = 67.94814 88.36738 30.89301
#
# Poissons Ratio (x) = 0.61882 0.05013
# Poissons Ratio (y) = 0.47583 0.10018
# Poissons Ratio (z) = 0.11026 0.28656
#
# Static dielectric constant tensor:
#      x y z
#    x 1.831920 0.000000 0.098090 
#    y 0.000000 1.836920 0.000000 
#    z 0.098090 0.000000 1.977130 
# 
# From -- ./inp_files/105645.got.cif
#   From: 2010.05.17/outbox.cif.g08.bks.cpg/sg15_53_cif.got.tgz:105645.got - 2010.06.03 18:47:42.
