data_PCOD9279014
_publ_section_title
;
Structure prediction by ZEFSAII (Michael W. Deem and Ramdas Pophale) SiO2 
 PCOD9279014
Probable space group: C 2/C
;
_chemical_formula_sum "Si O2"
_cell_formula_units_Z 40
_cell_length_a 18.164642
_cell_length_b 20.384970
_cell_length_c 8.849800
_cell_angle_alpha 90.000000
_cell_angle_beta 138.593239
_cell_angle_gamma 90.000000
_cell_volume 2167.378757
_symmetry_space_group_name_H-M "C 2/C"
_symmetry_group_IT_number 15
_symmetry_cell_setting 'monoclinic'
loop_
_space_group_symop_operation_xyz
x,y,z
-x,y,1/2-z
-x,-y,-z
x,-y,1/2+z
1/2+x,1/2+y,z
1/2-x,1/2+y,1/2-z
1/2-x,1/2-y,-z
1/2+x,1/2-y,1/2+z
loop_
_atom_site_type_symbol
_atom_site_label
_atom_site_fract_x
_atom_site_fract_y
_atom_site_fract_z
Si Si1 0.034256 0.698471 0.472856
Si Si2 0.134819 0.166385 0.196571
Si Si3 0.040359 0.932846 0.986830
Si Si4 0.734448 0.356515 0.170120
Si Si5 0.801635 0.280519 0.731251
O O1 0.092212 0.759103 0.647768
O O2 0.132282 0.645370 0.607741
O O3 0.000000 0.719391 0.250000
O O4 0.918908 0.685296 0.379037
O O5 0.202665 0.140362 0.445091
O O6 0.215139 0.170478 0.176565
O O7 0.024987 0.122677 0.020098
O O8 0.000000 0.931615 0.750000
O O9 0.169132 0.911085 0.167255
O O10 0.000000 0.000000 0.000000
O O11 0.687928 0.284913 0.150182
O O12 0.750000 0.250000 0.500000
#
# Coordination Sequence:
#
# PCOD9279014 Si02
#       5
#     8   8   8   8   8
#     4  11  19  31  52  83 117 142 176 220 271 324
#     4  10  21  34  51  79 113 143 180 220 271 328
#     4  10  22  39  57  79 104 141 187 232 271 320
#     4  10  21  34  51  79 113 143 182 222 271 324
#     4  11  19  30  52  82 113 146 176 217 269 326
#
# _framework density 18.455473000000001
#
# number of rings (size 3 to 8) (size 9 to 14) (size 15 to 20)
#    0.000    1.600    6.000    2.400    0.000    4.800 
#    0.000    0.000    0.000    1.200    0.000    0.000 
#    0.000    0.000    0.000    0.000    0.000    0.000 
#
# Total GULP energy -111408.991805 kJ/mol
# GULP energy per Si atom -5570.449590 kJ/mol
# Density = 1.841347 g / cm^3
# Si number density = 18.455473 Si / 1000 Ang^3
#
#
#
# Elastic Constant Matrix: (Units=GPa)
#
#
# Indices 1 2 3 4 5 6 
#
# 1 186.2155 44.8283 43.4915 0.0000 33.8999 0.0000
# 2 44.8283 49.6117 2.2646 0.0000 10.0946 0.0000
# 3 43.4915 2.2646 49.6986 0.0000 17.1908 0.0000
# 4 0.0000 0.0000 0.0000 9.5239 0.0000 -2.8930
# 5 33.8999 10.0946 17.1908 0.0000 38.3421 0.0000
# 6 0.0000 0.0000 0.0000 -2.8930 0.0000 38.2253
#
#
#
# Elastic Compliance Matrix: (Units=1/GPa)
#
#
# Indices 1 2 3 4 5 6 
#
# 1 0.009322 -0.007450 -0.006682 0.000000 -0.003285 0.000000
# 2 -0.007450 0.027307 0.006490 0.000000 -0.003512 0.000000
# 3 -0.006682 0.006490 0.028666 0.000000 -0.008653 0.000000
# 4 0.000000 0.000000 0.000000 0.107470 0.000000 0.008134
# 5 -0.003285 -0.003512 -0.008653 0.000000 0.033790 0.000000
# 6 0.000000 0.000000 0.000000 0.008134 0.000000 0.026776
#
#
# Mechanical properties :
#
#
# Convention : Reuss Voigt Hill
#
# Bulk Modulus (GPa) = 19.99559 51.85494 35.92527
# Shear Modulus (GPa) = 18.84758 30.21433 24.53096
#
# Velocity S-wave (km/s) = 3.19916 4.05056 3.64977
# Velocity P-wave (km/s) = 4.95017 7.07350 6.10486
#
# Compressibility (1/GPa) = 0.05001102
#
# Stress axis : x y z
#
# Youngs Moduli (GPa) = 107.27029 36.62116 34.88401
#
# Poissons Ratio (x) = 0.27283 0.23310
# Poissons Ratio (y) = 0.79917 -0.22640
# Poissons Ratio (z) = 0.71681 -0.23768
#
# Static dielectric constant tensor:
#      x y z
#    x 1.690120 0.000000 0.002670 
#    y 0.000000 1.634170 0.000000 
#    z 0.002670 0.000000 1.678080 
# 
# From -- ./inp_files/30489.got.cif
#   From: 2010.05.17/outbox.cif.g08.bks.cpg/sg15_16_cif.got.tgz:30489.got - 2010.06.03 18:47:42.
