data_PCOD9279918
_publ_section_title
;
Structure prediction by ZEFSAII (Michael W. Deem and Ramdas Pophale) SiO2 
 PCOD9279918
Probable space group: C 2/C
;
_chemical_formula_sum "Si O2"
_cell_formula_units_Z 64
_cell_length_a 16.798886
_cell_length_b 19.780564
_cell_length_c 17.218094
_cell_angle_alpha 90.000000
_cell_angle_beta 28.039253
_cell_angle_gamma 90.000000
_cell_volume 2689.506722
_symmetry_space_group_name_H-M "C 2/C"
_symmetry_group_IT_number 15
_symmetry_cell_setting 'monoclinic'
loop_
_space_group_symop_operation_xyz
x,y,z
-x,y,1/2-z
-x,-y,-z
x,-y,1/2+z
1/2+x,1/2+y,z
1/2-x,1/2+y,1/2-z
1/2-x,1/2-y,-z
1/2+x,1/2-y,1/2+z
loop_
_atom_site_type_symbol
_atom_site_label
_atom_site_fract_x
_atom_site_fract_y
_atom_site_fract_z
Si Si1 0.292563 0.617756 0.287652
Si Si2 0.837944 0.936084 0.026943
Si Si3 0.148413 0.104137 0.813129
Si Si4 0.199943 0.825873 0.558625
Si Si5 0.993222 0.624871 0.453808
Si Si6 0.369581 0.430046 0.432618
Si Si7 0.067644 0.226069 0.456313
Si Si8 0.349647 0.812617 0.832368
O O1 0.456411 0.570646 0.158007
O O2 0.223602 0.641650 0.429822
O O3 0.359816 0.682322 0.178310
O O4 0.143000 0.584658 0.366864
O O5 0.766360 0.870138 0.046146
O O6 0.775835 0.000279 0.031966
O O7 0.808665 0.932715 0.143596
O O8 0.306541 0.096198 0.620347
O O9 0.978224 0.079992 0.918117
O O10 0.096966 0.182135 0.876767
O O11 0.250000 0.750000 0.500000
O O12 0.000000 0.827635 0.750000
O O13 0.981689 0.696442 0.511168
O O14 0.056303 0.643556 0.314428
O O15 0.500000 0.435936 0.250000
O O16 0.250899 0.365042 0.526959
O O17 0.205633 0.226440 0.407917
O O18 0.500000 0.775509 0.750000
#
# Coordination Sequence:
#
# PCOD9279918 Si02
#       8
#     8   8   8   8   8   8   8   8
#     4   9  20  35  56  84 119 157 198 240 294 365
#     4  10  22  42  60  85 121 163 207 249 308 371
#     4  10  21  36  61  91 117 163 212 247 304 371
#     4  10  22  35  56  87 121 153 193 244 296 361
#     4  11  21  36  59  89 124 157 194 252 310 358
#     4  11  22  42  67  83 115 165 212 257 308 364
#     4   9  20  36  59  84 122 164 197 238 311 374
#     4  10  22  40  59  89 119 151 207 259 305 361
#
# _framework density 23.796185999999999
#
# number of rings (size 3 to 8) (size 9 to 14) (size 15 to 20)
#    0.000    2.000    0.000    4.500    7.000    0.500 
#    0.000    8.750    0.000    0.000    0.000    0.000 
#    0.000    0.000    0.000    0.000    0.000    0.000 
#
# Total GULP energy -178899.331068 kJ/mol
# GULP energy per Si atom -5590.604096 kJ/mol
# Density = 2.374202 g / cm^3
# Si number density = 23.796186 Si / 1000 Ang^3
#
#
#
# Elastic Constant Matrix: (Units=GPa)
#
#
# Indices 1 2 3 4 5 6 
#
# 1 89.1350 -9.6802 7.6955 -0.0001 3.1145 0.0006
# 2 -9.6802 56.6226 -6.9590 0.0026 -3.4557 0.0023
# 3 7.6955 -6.9590 65.7555 0.0073 12.6082 -0.0098
# 4 -0.0001 0.0026 0.0073 23.7486 -0.0052 4.1648
# 5 3.1145 -3.4557 12.6082 -0.0052 32.4902 0.0082
# 6 0.0006 0.0023 -0.0098 4.1648 0.0082 13.2382
#
#
#
# Elastic Compliance Matrix: (Units=1/GPa)
#
#
# Indices 1 2 3 4 5 6 
#
# 1 0.011525 0.001809 -0.001061 0.000000 -0.000500 -0.000001
# 2 0.001809 0.018226 0.001489 -0.000002 0.001187 -0.000002
# 3 -0.001061 0.001489 0.016681 -0.000010 -0.006213 0.000019
# 4 0.000000 -0.000002 -0.000010 0.044567 0.000014 -0.014021
# 5 -0.000500 0.001187 -0.006213 0.000014 0.033364 -0.000030
# 6 -0.000001 -0.000002 0.000019 -0.014021 -0.000030 0.079950
#
#
# Mechanical properties :
#
#
# Convention : Reuss Voigt Hill
#
# Bulk Modulus (GPa) = 19.64402 21.51395 20.57898
# Shear Modulus (GPa) = 23.06214 28.59253 25.82733
#
# Velocity S-wave (km/s) = 3.11650 3.47011 3.29805
# Velocity P-wave (km/s) = 4.60686 5.01160 4.81348
#
# Compressibility (1/GPa) = 0.05090609
#
# Stress axis : x y z
#
# Youngs Moduli (GPa) = 86.77139 54.86787 59.94832
#
# Poissons Ratio (x) = -0.09927 0.06362
# Poissons Ratio (y) = -0.15699 -0.08929
# Poissons Ratio (z) = 0.09209 -0.08173
#
# Static dielectric constant tensor:
#      x y z
#    x 1.967050 0.000030 -0.023270 
#    y 0.000030 1.915150 0.000010 
#    z -0.023270 0.000010 1.903790 
# 
# From -- ./inp_files/211967.got.cif
#   From: 2010.05.17/outbox.cif.g08.bks.cpg/sg15_106_cif.got.tgz:211967.got - 2010.06.03 18:47:42.
