data_PCOD9279962
_publ_section_title
;
Structure prediction by ZEFSAII (Michael W. Deem and Ramdas Pophale) SiO2 
 PCOD9279962
Probable space group: C 2/C
;
_chemical_formula_sum "Si O2"
_cell_formula_units_Z 32
_cell_length_a 9.627692
_cell_length_b 16.197750
_cell_length_c 19.272766
_cell_angle_alpha 90.000000
_cell_angle_beta 154.772210
_cell_angle_gamma 90.000000
_cell_volume 1281.010898
_symmetry_space_group_name_H-M "C 2/C"
_symmetry_group_IT_number 15
_symmetry_cell_setting 'monoclinic'
loop_
_space_group_symop_operation_xyz
x,y,z
-x,y,1/2-z
-x,-y,-z
x,-y,1/2+z
1/2+x,1/2+y,z
1/2-x,1/2+y,1/2-z
1/2-x,1/2-y,-z
1/2+x,1/2-y,1/2+z
loop_
_atom_site_type_symbol
_atom_site_label
_atom_site_fract_x
_atom_site_fract_y
_atom_site_fract_z
Si Si1 0.473313 0.625695 0.558760
Si Si2 0.337885 0.794929 0.442430
Si Si3 0.579874 0.020035 0.194290
Si Si4 0.686564 0.429103 0.903412
O O1 0.527149 0.709930 0.542547
O O2 0.285691 0.659704 0.543043
O O3 0.774885 0.566669 0.713260
O O4 0.218618 0.565953 0.404261
O O5 0.585827 0.853264 0.513187
O O6 0.000000 0.778242 0.250000
O O7 0.409136 0.994150 0.043924
O O8 0.880124 0.081959 0.316575
O O9 0.500000 0.459035 0.750000
#
# Coordination Sequence:
#
# PCOD9279962 Si02
#       4
#     8   8   8   8
#     4  10  22  38  60  86 121 151 195 237 293 341
#     4  11  22  38  56  89 124 153 183 244 297 341
#     4  10  21  36  62  88 115 150 198 242 282 343
#     4  11  20  32  59  89 118 148 194 243 293 336
#
# _framework density 24.980269
#
# number of rings (size 3 to 8) (size 9 to 14) (size 15 to 20)
#    0.000    1.500    5.000    0.750    3.500    0.000 
#    0.000    8.750    0.000    0.000    0.000    0.000 
#    0.000    0.000    0.000    0.000    0.000    0.000 
#
# Total GULP energy -89440.264499 kJ/mol
# GULP energy per Si atom -5590.016531 kJ/mol
# Density = 2.492341 g / cm^3
# Si number density = 24.980269 Si / 1000 Ang^3
#
#
#
# Elastic Constant Matrix: (Units=GPa)
#
#
# Indices 1 2 3 4 5 6 
#
# 1 65.5888 27.5195 7.5135 -0.0216 11.5593 -0.0006
# 2 27.5195 152.9708 35.9994 -0.0785 -3.7775 -0.0103
# 3 7.5135 35.9994 114.2033 -0.1499 -8.1996 -0.0222
# 4 -0.0216 -0.0785 -0.1499 -4.1413 -0.0703 2.8355
# 5 11.5593 -3.7775 -8.1996 -0.0703 35.6359 -0.0089
# 6 -0.0006 -0.0103 -0.0222 2.8355 -0.0089 35.9660
#
#
#
# Elastic Compliance Matrix: (Units=1/GPa)
#
#
# Indices 1 2 3 4 5 6 
#
# 1 0.017761 -0.003207 -0.000606 0.000090 -0.006240 -0.000010
# 2 -0.003207 0.007642 -0.002100 -0.000071 0.001367 0.000007
# 3 -0.000606 -0.002100 0.009615 -0.000321 0.002185 0.000031
# 4 0.000090 -0.000071 -0.000321 -0.229081 -0.000558 0.018060
# 5 -0.006240 0.001367 0.002185 -0.000558 0.030732 0.000053
# 6 -0.000010 0.000007 0.000031 0.018060 0.000053 0.026380
#
#
# Mechanical properties :
#
#
# Convention : Reuss Voigt Hill
#
# Bulk Modulus (GPa) = 43.11605 52.75864 47.93735
# Shear Modulus (GPa) = -42.59129 30.94082 -5.82523
#
# Velocity S-wave (km/s) = -4.13364 3.52321 -1.52872
# Velocity P-wave (km/s) = 2.34204 6.14139 4.01444
#
# Compressibility (1/GPa) = 0.02319322
#
# Stress axis : x y z
#
# Youngs Moduli (GPa) = 56.30259 130.85582 104.00863
#
# Poissons Ratio (x) = 0.41963 0.06299
# Poissons Ratio (y) = 0.18055 0.21841
# Poissons Ratio (z) = 0.03410 0.27478
#
# Static dielectric constant tensor:
#      x y z
#    x 2.188880 0.000000 -0.066830 
#    y 0.000000 1.904900 -0.000010 
#    z -0.066830 -0.000010 1.983220 
# 
# From -- ./inp_files/27628.got.cif
#   From: 2010.05.17/outbox.cif.g08.bks.cpg/sg15_14_cif.got.tgz:27628.got - 2010.06.03 18:47:42.
