data_PCOD9279154
_publ_section_title
;
Structure prediction by ZEFSAII (Michael W. Deem and Ramdas Pophale) SiO2 
 PCOD9279154
Probable space group: C 2/C
;
_chemical_formula_sum "Si O2"
_cell_formula_units_Z 52
_cell_length_a 25.617946
_cell_length_b 7.865813
_cell_length_c 21.917093
_cell_angle_alpha 90.000000
_cell_angle_beta 32.927476
_cell_angle_gamma 90.000000
_cell_volume 2400.667238
_symmetry_space_group_name_H-M "C 2/C"
_symmetry_group_IT_number 15
_symmetry_cell_setting 'monoclinic'
loop_
_space_group_symop_operation_xyz
x,y,z
-x,y,1/2-z
-x,-y,-z
x,-y,1/2+z
1/2+x,1/2+y,z
1/2-x,1/2+y,1/2-z
1/2-x,1/2-y,-z
1/2+x,1/2-y,1/2+z
loop_
_atom_site_type_symbol
_atom_site_label
_atom_site_fract_x
_atom_site_fract_y
_atom_site_fract_z
Si Si1 0.316061 0.072649 0.107260
Si Si2 0.662675 0.779132 0.503252
Si Si3 0.497156 0.742541 0.461459
Si Si4 0.000000 0.400120 0.750000
Si Si5 0.495990 0.612928 0.596264
Si Si6 0.796353 0.604122 0.747780
Si Si7 0.140365 0.633189 0.206091
O O1 0.274857 0.263253 0.150460
O O2 0.307998 0.961621 0.054363
O O3 0.265805 0.974235 0.212943
O O4 0.428895 0.101525 0.010436
O O5 0.585585 0.798957 0.632661
O O6 0.600289 0.686632 0.511757
O O7 0.759106 0.678819 0.424196
O O8 0.466172 0.671874 0.557750
O O9 0.495643 0.589529 0.414380
O O10 0.606085 0.796620 0.361034
O O11 0.936145 0.479721 0.757810
O O12 0.419021 0.697591 0.717243
O O13 0.826437 0.457609 0.764818
#
# Coordination Sequence:
#
# PCOD9279154 Si02
#       7
#     8   8   8   4   8   8   8
#     4  12  24  37  61  95 131 166 198 245 313 382
#     4  11  22  42  63  92 123 161 209 259 306 364
#     4  11  21  35  56  90 132 168 194 241 292 372
#     4  10  24  42  70  86 110 164 224 264 300 354
#     4  10  21  34  60  89 125 165 204 238 301 361
#     4  12  24  37  61  95 131 166 198 245 313 382
#     4  11  22  42  63  92 123 161 209 259 306 364
#
# _framework density 21.660644000000001
#
# number of rings (size 3 to 8) (size 9 to 14) (size 15 to 20)
#    0.000    0.923    3.077    5.538    4.308    0.000 
#    0.000    0.769    0.000   24.000    0.000    0.000 
#    0.000    0.000    0.000    0.000    0.000    0.000 
#
# Total GULP energy -145177.349700 kJ/mol
# GULP energy per Si atom -5583.744219 kJ/mol
# Density = 2.161134 g / cm^3
# Si number density = 21.660644 Si / 1000 Ang^3
#
#
#
# Elastic Constant Matrix: (Units=GPa)
#
#
# Indices 1 2 3 4 5 6 
#
# 1 51.7262 4.8835 28.0851 0.0023 -5.8578 0.0006
# 2 4.8835 62.9711 16.4226 0.0152 1.0249 0.0027
# 3 28.0851 16.4226 107.7671 -0.0027 -7.8720 0.0083
# 4 0.0023 0.0152 -0.0027 29.9305 0.0073 -13.8544
# 5 -5.8578 1.0249 -7.8720 0.0073 35.7936 -0.0064
# 6 0.0006 0.0027 0.0083 -13.8544 -0.0064 6.8931
#
#
#
# Elastic Compliance Matrix: (Units=1/GPa)
#
#
# Indices 1 2 3 4 5 6 
#
# 1 0.022736 -0.000318 -0.005696 0.000010 0.002477 0.000027
# 2 -0.000318 0.016581 -0.002523 -0.000149 -0.001082 -0.000304
# 3 -0.005696 -0.002523 0.011266 -0.000037 0.001618 -0.000085
# 4 0.000010 -0.000149 -0.000037 0.479696 0.000072 0.964136
# 5 0.002477 -0.001082 0.001618 0.000072 0.028730 0.000170
# 6 0.000027 -0.000304 -0.000085 0.964136 0.000170 2.082879
#
#
# Mechanical properties :
#
#
# Convention : Reuss Voigt Hill
#
# Bulk Modulus (GPa) = 29.84249 35.69410 32.76829
# Shear Modulus (GPa) = 1.87257 26.06166 13.96711
#
# Velocity S-wave (km/s) = 0.93079 3.47245 2.54208
# Velocity P-wave (km/s) = 3.86812 5.70892 4.87617
#
# Compressibility (1/GPa) = 0.03350927
#
# Stress axis : x y z
#
# Youngs Moduli (GPa) = 43.98380 60.31155 88.76060
#
# Poissons Ratio (x) = 0.01919 0.50555
# Poissons Ratio (y) = 0.01399 0.22393
# Poissons Ratio (z) = 0.25052 0.15215
#
# Static dielectric constant tensor:
#      x y z
#    x 1.853450 0.000000 0.030210 
#    y 0.000000 1.794820 0.000010 
#    z 0.030210 0.000010 1.822210 
# 
# From -- ./inp_files/283287.got.cif
#   From: 2010.05.17/outbox.cif.g08.bks.cpg/sg15_142_cif.got.tgz:283287.got - 2010.06.03 18:47:42.
