data_PCOD9279455
_publ_section_title
;
Structure prediction by ZEFSAII (Michael W. Deem and Ramdas Pophale) SiO2 
 PCOD9279455
Probable space group: C 2/C
;
_chemical_formula_sum "Si O2"
_cell_formula_units_Z 60
_cell_length_a 10.971667
_cell_length_b 26.324862
_cell_length_c 9.627182
_cell_angle_alpha 90.000000
_cell_angle_beta 76.839374
_cell_angle_gamma 90.000000
_cell_volume 2707.565366
_symmetry_space_group_name_H-M "C 2/C"
_symmetry_group_IT_number 15
_symmetry_cell_setting 'monoclinic'
loop_
_space_group_symop_operation_xyz
x,y,z
-x,y,1/2-z
-x,-y,-z
x,-y,1/2+z
1/2+x,1/2+y,z
1/2-x,1/2+y,1/2-z
1/2-x,1/2-y,-z
1/2+x,1/2-y,1/2+z
loop_
_atom_site_type_symbol
_atom_site_label
_atom_site_fract_x
_atom_site_fract_y
_atom_site_fract_z
Si Si1 0.632386 0.216085 0.985220
Si Si2 0.134700 0.633789 0.764716
Si Si3 0.158023 0.099546 0.013933
Si Si4 0.500000 0.853554 0.750000
Si Si5 0.037657 0.815862 0.901121
Si Si6 0.265134 0.393043 0.687367
Si Si7 0.396915 0.021192 0.657205
Si Si8 0.237120 0.994795 0.942238
O O1 0.682003 0.177877 0.852692
O O2 0.535132 0.259650 0.961210
O O3 0.750000 0.250000 0.000000
O O4 0.554513 0.181864 0.114083
O O5 0.223940 0.616895 0.613426
O O6 0.102281 0.582058 0.857279
O O7 0.000000 0.652856 0.750000
O O8 0.179190 0.100664 0.173733
O O9 0.051561 0.140884 0.010596
O O10 0.138746 0.039277 0.996951
O O11 0.617416 0.889339 0.752168
O O12 0.176024 0.839971 0.876105
O O13 0.000000 0.811777 0.750000
O O14 0.296572 0.435758 0.564304
O O15 0.500000 0.008374 0.750000
O O16 0.358451 0.998834 0.516150
O O17 0.274354 0.006330 0.774721
#
# Coordination Sequence:
#
# PCOD9279455 Si02
#       8
#     8   8   8   4   8   8   8   8
#     4  12  25  44  67 102 138 181 232 291 355 415
#     4  10  22  42  66  96 135 175 232 282 353 417
#     4  10  23  43  69  96 135 188 228 284 352 422
#     4  12  26  42  68 102 144 176 224 292 358 400
#     4  10  24  45  68  95 133 184 242 287 341 423
#     4  11  23  42  66 102 139 179 238 288 348 421
#     4  10  21  35  60  95 135 175 218 280 347 420
#     4  11  21  38  63  96 137 178 230 283 349 416
#
# _framework density 22.160129999999999
#
# number of rings (size 3 to 8) (size 9 to 14) (size 15 to 20)
#    0.000    1.333    2.667    2.400    2.800    2.667 
#    0.000    3.333    0.000    0.000    0.000    0.000 
#    0.000    0.000    0.000    0.000    0.000    0.000 
#
# Total GULP energy -167071.823019 kJ/mol
# GULP energy per Si atom -5569.060767 kJ/mol
# Density = 2.210969 g / cm^3
# Si number density = 22.160130 Si / 1000 Ang^3
#
#
#
# Elastic Constant Matrix: (Units=GPa)
#
#
# Indices 1 2 3 4 5 6 
#
# 1 48.8437 5.5279 1.6989 0.0000 -0.1895 0.0000
# 2 5.5279 107.2491 30.1672 0.0000 8.6792 0.0000
# 3 1.6989 30.1672 87.9218 0.0000 -1.0821 0.0000
# 4 0.0000 0.0000 0.0000 43.6604 0.0000 1.7406
# 5 -0.1895 8.6792 -1.0821 0.0000 17.1093 0.0000
# 6 0.0000 0.0000 0.0000 1.7406 0.0000 34.9106
#
#
#
# Elastic Compliance Matrix: (Units=1/GPa)
#
#
# Indices 1 2 3 4 5 6 
#
# 1 0.020604 -0.001126 -0.000002 0.000000 0.000799 0.000000
# 2 -0.001126 0.010918 -0.003796 0.000000 -0.005791 0.000000
# 3 -0.000002 -0.003796 0.012710 0.000000 0.002729 0.000000
# 4 0.000000 0.000000 0.000000 0.022950 0.000000 -0.001144
# 5 0.000799 -0.005791 0.002729 0.000000 0.061567 0.000000
# 6 0.000000 0.000000 0.000000 -0.001144 0.000000 0.028702
#
#
# Mechanical properties :
#
#
# Convention : Reuss Voigt Hill
#
# Bulk Modulus (GPa) = 29.08273 35.42251 32.25262
# Shear Modulus (GPa) = 27.97046 32.91074 30.44060
#
# Velocity S-wave (km/s) = 3.55660 3.85792 3.71032
# Velocity P-wave (km/s) = 5.47889 5.98868 5.73945
#
# Compressibility (1/GPa) = 0.03438467
#
# Stress axis : x y z
#
# Youngs Moduli (GPa) = 48.53404 91.58782 78.67971
#
# Poissons Ratio (x) = 0.10314 0.00015
# Poissons Ratio (y) = 0.05466 0.29865
# Poissons Ratio (z) = 0.00009 0.34765
#
# Static dielectric constant tensor:
#      x y z
#    x 1.877860 0.000000 0.020030 
#    y 0.000000 1.909580 0.000000 
#    z 0.020030 0.000000 1.809580 
# 
# From -- ./inp_files/34287.got.cif
#   From: 2010.05.17/outbox.cif.g08.bks.cpg/sg15_18_cif.got.tgz:34287.got - 2010.06.03 18:47:42.
