data_PCOD9279376
_publ_section_title
;
Structure prediction by ZEFSAII (Michael W. Deem and Ramdas Pophale) SiO2 
 PCOD9279376
Probable space group: C 2/C
;
_chemical_formula_sum "Si O2"
_cell_formula_units_Z 56
_cell_length_a 18.913168
_cell_length_b 23.400929
_cell_length_c 9.555859
_cell_angle_alpha 90.000000
_cell_angle_beta 38.205396
_cell_angle_gamma 90.000000
_cell_volume 2615.739314
_symmetry_space_group_name_H-M "C 2/C"
_symmetry_group_IT_number 15
_symmetry_cell_setting 'monoclinic'
loop_
_space_group_symop_operation_xyz
x,y,z
-x,y,1/2-z
-x,-y,-z
x,-y,1/2+z
1/2+x,1/2+y,z
1/2-x,1/2+y,1/2-z
1/2-x,1/2-y,-z
1/2+x,1/2-y,1/2+z
loop_
_atom_site_type_symbol
_atom_site_label
_atom_site_fract_x
_atom_site_fract_y
_atom_site_fract_z
Si Si1 0.459573 0.303458 0.974696
Si Si2 0.679345 0.795457 0.702897
Si Si3 0.158339 0.863451 0.833465
Si Si4 0.969538 0.544067 0.931763
Si Si5 0.267068 0.123429 0.605974
Si Si6 0.274820 0.456215 0.577802
Si Si7 0.700230 0.086532 0.641091
O O1 0.500000 0.308659 0.750000
O O2 0.549196 0.328308 0.948151
O O3 0.424432 0.238308 0.065317
O O4 0.344658 0.340059 0.178319
O O5 0.750000 0.750000 0.500000
O O6 0.763186 0.823488 0.688412
O O7 0.652033 0.843077 0.628706
O O8 0.135987 0.921279 0.962225
O O9 0.220203 0.880780 0.592058
O O10 0.000000 0.507204 0.750000
O O11 0.074150 0.587742 0.767157
O O12 0.841353 0.561149 0.157476
O O13 0.000000 0.500000 0.000000
O O14 0.225832 0.069982 0.576507
O O15 0.319824 0.109256 0.672224
O O16 0.260513 0.524264 0.576882
#
# Coordination Sequence:
#
# PCOD9279376 Si02
#       7
#     8   8   8   8   8   8   8
#     4  11  23  46  70  93 130 173 229 288 336 393
#     4   9  23  45  66  92 124 165 230 280 337 392
#     4  11  22  43  71  97 134 181 214 278 340 394
#     4  10  21  35  58  89 129 176 221 260 319 378
#     4  10  22  42  63  98 131 169 225 273 328 411
#     4  10  22  39  64 100 141 178 217 265 329 403
#     4  11  21  39  68  99 141 173 218 270 333 401
#
# _framework density 21.408860000000001
#
# number of rings (size 3 to 8) (size 9 to 14) (size 15 to 20)
#    0.000    1.714    2.857    0.857    6.000    5.714 
#    5.143    8.571    0.000    0.000    0.000    0.000 
#    0.000    0.000    0.000    0.000    0.000    0.000 
#
# Total GULP energy -155896.533795 kJ/mol
# GULP energy per Si atom -5567.733350 kJ/mol
# Density = 2.136013 g / cm^3
# Si number density = 21.408860 Si / 1000 Ang^3
#
#
#
# Elastic Constant Matrix: (Units=GPa)
#
#
# Indices 1 2 3 4 5 6 
#
# 1 57.2372 20.2525 15.6267 0.0000 27.8592 0.0000
# 2 20.2525 71.8946 18.6613 0.0001 2.7216 0.0000
# 3 15.6267 18.6613 85.1617 0.0001 25.0123 0.0001
# 4 0.0000 0.0001 0.0001 19.5555 0.0000 16.9614
# 5 27.8592 2.7216 25.0123 0.0000 41.0623 -0.0001
# 6 0.0000 0.0000 0.0001 16.9614 -0.0001 21.3700
#
#
#
# Elastic Compliance Matrix: (Units=1/GPa)
#
#
# Indices 1 2 3 4 5 6 
#
# 1 0.030196 -0.008370 0.002615 0.000000 -0.021525 0.000000
# 2 -0.008370 0.017117 -0.004323 0.000000 0.007178 0.000000
# 3 0.002615 -0.004323 0.015402 0.000000 -0.010870 0.000000
# 4 0.000000 0.000000 0.000000 0.164118 -0.000001 -0.130261
# 5 -0.021525 0.007178 -0.010870 -0.000001 0.045103 0.000001
# 6 0.000000 0.000000 0.000000 -0.130261 0.000001 0.150183
#
#
# Mechanical properties :
#
#
# Convention : Reuss Voigt Hill
#
# Bulk Modulus (GPa) = 23.49638 35.93048 29.71343
# Shear Modulus (GPa) = 10.95384 27.04777 19.00080
#
# Velocity S-wave (km/s) = 2.26442 3.55828 2.98236
# Velocity P-wave (km/s) = 4.22323 5.80527 5.07626
#
# Compressibility (1/GPa) = 0.04255975
#
# Stress axis : x y z
#
# Youngs Moduli (GPa) = 33.11740 58.41982 64.92531
#
# Poissons Ratio (x) = 0.48897 -0.16980
# Poissons Ratio (y) = 0.27719 0.28068
# Poissons Ratio (z) = -0.08661 0.25256
#
# Static dielectric constant tensor:
#      x y z
#    x 1.839220 0.000000 -0.090360 
#    y 0.000000 1.868290 0.000000 
#    z -0.090360 0.000000 1.565690 
# 
# From -- ./inp_files/52318.got.cif
#   From: 2010.05.17/outbox.cif.g08.bks.cpg/sg15_27_cif.got.tgz:52318.got - 2010.06.03 18:47:42.
