data_PCOD9279359
_publ_section_title
;
Structure prediction by ZEFSAII (Michael W. Deem and Ramdas Pophale) SiO2 
 PCOD9279359
Probable space group: C 2/C
;
_chemical_formula_sum "Si O2"
_cell_formula_units_Z 56
_cell_length_a 20.772824
_cell_length_b 10.375898
_cell_length_c 14.243921
_cell_angle_alpha 90.000000
_cell_angle_beta 81.493095
_cell_angle_gamma 90.000000
_cell_volume 3036.310796
_symmetry_space_group_name_H-M "C 2/C"
_symmetry_group_IT_number 15
_symmetry_cell_setting 'monoclinic'
loop_
_space_group_symop_operation_xyz
x,y,z
-x,y,1/2-z
-x,-y,-z
x,-y,1/2+z
1/2+x,1/2+y,z
1/2-x,1/2+y,1/2-z
1/2-x,1/2-y,-z
1/2+x,1/2-y,1/2+z
loop_
_atom_site_type_symbol
_atom_site_label
_atom_site_fract_x
_atom_site_fract_y
_atom_site_fract_z
Si Si1 0.828721 0.853475 0.496885
Si Si2 0.654344 0.360943 0.512725
Si Si3 0.209840 0.691446 0.156486
Si Si4 0.129741 0.543100 0.721368
Si Si5 0.557104 0.865298 0.071613
Si Si6 0.259154 0.755684 0.350134
Si Si7 0.406417 0.893917 0.060081
O O1 0.811586 0.820724 0.392662
O O2 0.762415 0.866266 0.571890
O O3 0.867461 0.728835 0.527825
O O4 0.863624 0.990392 0.496697
O O5 0.593782 0.267995 0.544410
O O6 0.704585 0.345812 0.589676
O O7 0.694598 0.305298 0.415852
O O8 0.147902 0.601526 0.189015
O O9 0.190424 0.372687 0.171819
O O10 0.068143 0.594886 0.677129
O O11 0.243427 0.292256 0.749656
O O12 0.122173 0.564768 0.833248
O O13 0.482254 0.859429 0.058566
O O14 0.592919 0.980435 0.006500
#
# Coordination Sequence:
#
# PCOD9279359 Si02
#       7
#     8   8   8   8   8   8   8
#     4  11  23  36  58  92 120 151 195 245 297 358
#     4  10  22  38  58  88 122 155 196 240 303 359
#     4  11  22  34  58  90 123 148 191 245 303 352
#     4  11  20  37  61  89 113 155 200 245 289 357
#     4  10  23  41  61  85 116 163 206 241 290 353
#     4  10  21  35  58  85 123 157 184 237 308 362
#     4  11  22  41  63  85 117 159 207 248 288 348
#
# _framework density 18.443435000000001
#
# number of rings (size 3 to 8) (size 9 to 14) (size 15 to 20)
#    0.000    1.429    4.286    1.286    2.000    0.571 
#    0.000    0.000    0.000    0.000    3.714    0.000 
#    0.000    0.000    0.000    0.000    0.000    0.000 
#
# Total GULP energy -156280.870159 kJ/mol
# GULP energy per Si atom -5581.459649 kJ/mol
# Density = 1.840146 g / cm^3
# Si number density = 18.443435 Si / 1000 Ang^3
#
#
#
# Elastic Constant Matrix: (Units=GPa)
#
#
# Indices 1 2 3 4 5 6 
#
# 1 48.7759 24.6938 6.8665 0.0000 -3.8180 0.0000
# 2 24.6938 100.4019 13.2099 0.0000 -6.8198 0.0000
# 3 6.8665 13.2099 91.0312 0.0000 -0.0098 0.0000
# 4 0.0000 0.0000 0.0000 13.4492 0.0000 -0.6465
# 5 -3.8180 -6.8198 -0.0098 0.0000 22.0252 0.0000
# 6 0.0000 0.0000 0.0000 -0.6465 0.0000 16.9521
#
#
#
# Elastic Compliance Matrix: (Units=1/GPa)
#
#
# Indices 1 2 3 4 5 6 
#
# 1 0.023620 -0.005518 -0.000981 0.000000 0.002385 0.000000
# 2 -0.005518 0.011665 -0.001276 0.000000 0.002655 0.000000
# 3 -0.000981 -0.001276 0.011244 0.000000 -0.000560 0.000000
# 4 0.000000 0.000000 0.000000 0.074490 0.000000 0.002841
# 5 0.002385 0.002655 -0.000560 0.000000 0.046638 0.000000
# 6 0.000000 0.000000 0.000000 0.002841 0.000000 0.059098
#
#
# Mechanical properties :
#
#
# Convention : Reuss Voigt Hill
#
# Bulk Modulus (GPa) = 32.27924 36.63882 34.45903
# Shear Modulus (GPa) = 19.79148 23.51455 21.65301
#
# Velocity S-wave (km/s) = 3.27936 3.57452 3.43012
# Velocity P-wave (km/s) = 5.64612 6.07823 5.86616
#
# Compressibility (1/GPa) = 0.03097966
#
# Stress axis : x y z
#
# Youngs Moduli (GPa) = 42.33612 85.72303 88.93346
#
# Poissons Ratio (x) = 0.47305 0.08721
# Poissons Ratio (y) = 0.23363 0.11350
# Poissons Ratio (z) = 0.04152 0.10941
#
# Static dielectric constant tensor:
#      x y z
#    x 1.640230 0.000000 0.029560 
#    y 0.000000 1.630550 0.000000 
#    z 0.029560 0.000000 1.636170 
# 
# From -- ./inp_files/166642.got.cif
#   From: 2010.05.17/outbox.cif.g08.bks.cpg/sg15_84_cif.got.tgz:166642.got - 2010.06.03 18:47:42.
