data_PCOD9279358
_publ_section_title
;
Structure prediction by ZEFSAII (Michael W. Deem and Ramdas Pophale) SiO2 
 PCOD9279358
Probable space group: C 2/C
;
_chemical_formula_sum "Si O2"
_cell_formula_units_Z 44
_cell_length_a 12.160085
_cell_length_b 21.470077
_cell_length_c 11.812080
_cell_angle_alpha 90.000000
_cell_angle_beta 50.333405
_cell_angle_gamma 90.000000
_cell_volume 2373.879192
_symmetry_space_group_name_H-M "C 2/C"
_symmetry_group_IT_number 15
_symmetry_cell_setting 'monoclinic'
loop_
_space_group_symop_operation_xyz
x,y,z
-x,y,1/2-z
-x,-y,-z
x,-y,1/2+z
1/2+x,1/2+y,z
1/2-x,1/2+y,1/2-z
1/2-x,1/2-y,-z
1/2+x,1/2-y,1/2+z
loop_
_atom_site_type_symbol
_atom_site_label
_atom_site_fract_x
_atom_site_fract_y
_atom_site_fract_z
Si Si1 0.000000 0.053081 0.250000
Si Si2 0.215381 0.497436 0.830896
Si Si3 0.097867 0.938784 0.448411
Si Si4 0.486170 0.913185 0.892959
Si Si5 0.654849 0.779817 0.460981
Si Si6 0.065552 0.815939 0.333776
O O1 0.932725 0.085787 0.404992
O O2 0.134535 0.013947 0.206490
O O3 0.247794 0.536080 0.694081
O O4 0.137583 0.432863 0.849464
O O5 0.120907 0.538262 0.977451
O O6 0.057749 0.884636 0.388601
O O7 0.000000 0.000000 0.500000
O O8 0.500000 0.922123 0.750000
O O9 0.422816 0.844414 0.955014
O O10 0.750000 0.750000 0.500000
O O11 0.770586 0.793679 0.287643
O O12 0.529329 0.729971 0.527651
O O13 0.000000 0.815918 0.250000
#
# Coordination Sequence:
#
# PCOD9279358 Si02
#       6
#     4   8   8   8   8   8
#     4  10  22  36  56  90 118 162 218 238 316 376
#     4  10  22  36  58  88 125 171 200 266 309 379
#     4  10  21  35  58  85 121 162 205 263 308 372
#     4  11  21  37  59  91 127 160 210 256 329 381
#     4  10  21  36  60  91 126 161 201 265 328 373
#     4  10  21  36  59  90 123 158 207 261 326 374
#
# _framework density 18.535062
#
# number of rings (size 3 to 8) (size 9 to 14) (size 15 to 20)
#    0.000    1.818    1.818    2.727    5.091    8.727 
#    0.000    0.000    0.000    4.364    0.000    0.000 
#    0.000    0.000    0.000    0.000    0.000    0.000 
#
# Total GULP energy -122479.378338 kJ/mol
# GULP energy per Si atom -5567.244470 kJ/mol
# Density = 1.849287 g / cm^3
# Si number density = 18.535062 Si / 1000 Ang^3
#
#
#
# Elastic Constant Matrix: (Units=GPa)
#
#
# Indices 1 2 3 4 5 6 
#
# 1 63.6688 35.9889 28.1932 0.0000 -18.0321 0.0000
# 2 35.9889 119.3800 38.5333 0.0000 -18.9592 0.0000
# 3 28.1932 38.5333 131.1482 0.0000 -15.4445 0.0000
# 4 0.0000 0.0000 0.0000 28.6166 0.0000 2.2421
# 5 -18.0321 -18.9592 -15.4445 0.0000 19.6033 0.0000
# 6 0.0000 0.0000 0.0000 2.2421 0.0000 19.1870
#
#
#
# Elastic Compliance Matrix: (Units=1/GPa)
#
#
# Indices 1 2 3 4 5 6 
#
# 1 0.023334 -0.003820 -0.001985 0.000000 0.016205 0.000000
# 2 -0.003820 0.011003 -0.001733 0.000000 0.005762 0.000000
# 3 -0.001985 -0.001733 0.008982 0.000000 0.003574 0.000000
# 4 0.000000 0.000000 0.000000 0.035268 0.000000 -0.004121
# 5 0.016205 0.005762 0.003574 0.000000 0.074307 0.000000
# 6 0.000000 0.000000 0.000000 -0.004121 0.000000 0.052600
#
#
# Mechanical properties :
#
#
# Convention : Reuss Voigt Hill
#
# Bulk Modulus (GPa) = 35.40827 57.73644 46.57235
# Shear Modulus (GPa) = 21.74058 27.58014 24.66036
#
# Velocity S-wave (km/s) = 3.42854 3.86164 3.65152
# Velocity P-wave (km/s) = 5.90068 7.14846 6.55433
#
# Compressibility (1/GPa) = 0.02824199
#
# Stress axis : x y z
#
# Youngs Moduli (GPa) = 42.85518 90.88706 111.33566
#
# Poissons Ratio (x) = 0.34719 0.22105
# Poissons Ratio (y) = 0.16371 0.19294
# Poissons Ratio (z) = 0.08509 0.15751
#
# Static dielectric constant tensor:
#      x y z
#    x 1.658030 0.000000 -0.009070 
#    y 0.000000 1.628660 0.000000 
#    z -0.009070 0.000000 1.725860 
# 
# From -- ./inp_files/88718.got.cif
#   From: 2010.05.17/outbox.cif.g08.bks.cpg/sg15_45_cif.got.tgz:88718.got - 2010.06.03 18:47:42.
