data_PCOD9279235
_publ_section_title
;
Structure prediction by ZEFSAII (Michael W. Deem and Ramdas Pophale) SiO2 
 PCOD9279235
Probable space group: C 2/C
;
_chemical_formula_sum "Si O2"
_cell_formula_units_Z 64
_cell_length_a 10.977107
_cell_length_b 15.082203
_cell_length_c 22.598325
_cell_angle_alpha 90.000000
_cell_angle_beta 113.355527
_cell_angle_gamma 90.000000
_cell_volume 3434.798246
_symmetry_space_group_name_H-M "C 2/C"
_symmetry_group_IT_number 15
_symmetry_cell_setting 'monoclinic'
loop_
_space_group_symop_operation_xyz
x,y,z
-x,y,1/2-z
-x,-y,-z
x,-y,1/2+z
1/2+x,1/2+y,z
1/2-x,1/2+y,1/2-z
1/2-x,1/2-y,-z
1/2+x,1/2-y,1/2+z
loop_
_atom_site_type_symbol
_atom_site_label
_atom_site_fract_x
_atom_site_fract_y
_atom_site_fract_z
Si Si1 0.894328 0.957240 0.905063
Si Si2 0.805163 0.602021 0.674491
Si Si3 0.181476 0.662997 0.015205
Si Si4 0.321397 0.482264 0.020507
Si Si5 0.915575 0.579206 0.953866
Si Si6 0.304585 0.689791 0.163843
Si Si7 0.898181 0.605649 0.818558
Si Si8 0.117358 0.185476 0.193645
O O1 0.853102 0.876411 0.855791
O O2 0.802705 0.040795 0.874951
O O3 0.872585 0.938096 0.970038
O O4 0.045190 0.986108 0.921234
O O5 0.773011 0.705672 0.662840
O O6 0.818251 0.574468 0.745773
O O7 0.948347 0.594146 0.670855
O O8 0.242111 0.575215 0.995940
O O9 0.218650 0.655102 0.092140
O O10 0.250000 0.750000 0.000000
O O11 0.022255 0.659722 0.975892
O O12 0.221012 0.418649 0.036202
O O13 0.879947 0.562192 0.878645
O O14 0.000000 0.500000 0.000000
O O15 0.459483 0.679057 0.176466
O O16 0.301790 0.657641 0.231538
O O17 0.864222 0.710429 0.816236
#
# Coordination Sequence:
#
# PCOD9279235 Si02
#       8
#     8   8   8   8   8   8   8   8
#     4  11  20  36  56  81 115 153 188 225 295 346
#     4   9  18  33  59  85 107 144 181 236 278 343
#     4  11  19  33  62  86 109 145 190 237 283 335
#     4  10  23  36  51  82 121 145 186 235 284 350
#     4  10  21  35  53  83 114 142 183 241 280 326
#     4   9  17  33  54  86 106 134 194 232 272 320
#     4   9  18  37  58  81 111 142 191 232 285 323
#     4   9  18  33  58  81 110 141 185 242 270 330
#
# _framework density 18.632826999999999
#
# number of rings (size 3 to 8) (size 9 to 14) (size 15 to 20)
#    0.000    2.250    1.250    5.250    0.000    2.000 
#    0.000    0.625    0.000    0.000    0.000    0.000 
#    0.000    0.000    0.000    0.000    0.000    0.000 
#
# Total GULP energy -178306.964675 kJ/mol
# GULP energy per Si atom -5572.092646 kJ/mol
# Density = 1.859042 g / cm^3
# Si number density = 18.632827 Si / 1000 Ang^3
#
#
#
# Elastic Constant Matrix: (Units=GPa)
#
#
# Indices 1 2 3 4 5 6 
#
# 1 69.0680 18.2079 20.8566 0.0000 -0.0991 0.0000
# 2 18.2079 37.9835 12.4780 0.0000 -11.5058 0.0000
# 3 20.8566 12.4780 105.9475 0.0000 -13.1167 0.0000
# 4 0.0000 0.0000 0.0000 30.0802 0.0000 -0.3998
# 5 -0.0991 -11.5058 -13.1167 0.0000 21.6360 0.0000
# 6 0.0000 0.0000 0.0000 -0.3998 0.0000 22.8839
#
#
#
# Elastic Compliance Matrix: (Units=1/GPa)
#
#
# Indices 1 2 3 4 5 6 
#
# 1 0.018015 -0.009698 -0.003279 0.000000 -0.007062 0.000000
# 2 -0.009698 0.036911 -0.000015 0.000000 0.019576 0.000000
# 3 -0.003279 -0.000015 0.010901 0.000000 0.006586 0.000000
# 4 0.000000 0.000000 0.000000 0.033252 0.000000 0.000581
# 5 -0.007062 0.019576 0.006586 0.000000 0.060590 0.000000
# 6 0.000000 0.000000 0.000000 0.000581 0.000000 0.043709
#
#
# Mechanical properties :
#
#
# Convention : Reuss Voigt Hill
#
# Bulk Modulus (GPa) = 25.09751 35.12044 30.10898
# Shear Modulus (GPa) = 20.60655 25.68379 23.14517
#
# Velocity S-wave (km/s) = 3.32916 3.71673 3.52827
# Velocity P-wave (km/s) = 5.31756 6.10806 5.72647
#
# Compressibility (1/GPa) = 0.03984459
#
# Stress axis : x y z
#
# Youngs Moduli (GPa) = 55.50931 27.09250 91.73356
#
# Poissons Ratio (x) = 0.26274 0.30075
# Poissons Ratio (y) = 0.53833 0.00133
# Poissons Ratio (z) = 0.18199 0.00039
#
# Static dielectric constant tensor:
#      x y z
#    x 1.642950 0.000000 -0.005230 
#    y 0.000000 1.645860 0.000000 
#    z -0.005230 0.000000 1.693580 
# 
# From -- ./inp_files/238781.got.cif
#   From: 2010.05.17/outbox.cif.g08.bks.cpg/sg15_120_cif.got.tgz:238781.got - 2010.06.03 18:47:42.
