data_PCOD9279609
_publ_section_title
;
Structure prediction by ZEFSAII (Michael W. Deem and Ramdas Pophale) SiO2 
 PCOD9279609
Probable space group: C 2/C
;
_chemical_formula_sum "Si O2"
_cell_formula_units_Z 44
_cell_length_a 14.167300
_cell_length_b 20.444876
_cell_length_c 8.561031
_cell_angle_alpha 90.000000
_cell_angle_beta 61.229207
_cell_angle_gamma 90.000000
_cell_volume 2173.578839
_symmetry_space_group_name_H-M "C 2/C"
_symmetry_group_IT_number 15
_symmetry_cell_setting 'monoclinic'
loop_
_space_group_symop_operation_xyz
x,y,z
-x,y,1/2-z
-x,-y,-z
x,-y,1/2+z
1/2+x,1/2+y,z
1/2-x,1/2+y,1/2-z
1/2-x,1/2-y,-z
1/2+x,1/2-y,1/2+z
loop_
_atom_site_type_symbol
_atom_site_label
_atom_site_fract_x
_atom_site_fract_y
_atom_site_fract_z
Si Si1 0.628791 0.424563 0.857271
Si Si2 0.729828 0.280510 0.346399
Si Si3 0.575925 0.170282 0.985409
Si Si4 0.155644 0.643899 0.266140
Si Si5 0.000000 0.973877 0.250000
Si Si6 0.001836 0.797495 0.918229
O O1 0.756021 0.411205 0.767113
O O2 0.583075 0.481748 0.784195
O O3 0.579149 0.357658 0.832236
O O4 0.573055 0.434090 0.070381
O O5 0.750000 0.250000 0.500000
O O6 0.826486 0.326764 0.214851
O O7 0.707560 0.215609 0.259650
O O8 0.617402 0.318648 0.441084
O O9 0.544711 0.247482 0.013093
O O10 0.622297 0.144803 0.111251
O O11 0.458328 0.138496 0.050464
O O12 0.000000 0.761975 0.750000
#
# Coordination Sequence:
#
# PCOD9279609 Si02
#       6
#     8   8   8   8   4   8
#     4  11  22  43  60  87 110 154 194 270 299 337
#     4  11  20  32  54  88 128 166 187 225 272 380
#     4  10  21  36  54  95 121 164 190 218 283 388
#     4  10  22  36  59  81 131 156 192 238 291 354
#     4  10  26  40  64  86 106 142 224 260 308 336
#     4  11  20  33  57  88 130 155 188 234 297 343
#
# _framework density 20.243113000000001
#
# number of rings (size 3 to 8) (size 9 to 14) (size 15 to 20)
#    0.000    1.455    4.545    0.545    2.545    1.455 
#    0.000    0.000    0.000    4.364    0.000    0.000 
#    0.000    0.000    0.000    0.000    0.000    0.000 
#
# Total GULP energy -122638.419383 kJ/mol
# GULP energy per Si atom -5574.473608 kJ/mol
# Density = 2.019704 g / cm^3
# Si number density = 20.243113 Si / 1000 Ang^3
#
#
#
# Elastic Constant Matrix: (Units=GPa)
#
#
# Indices 1 2 3 4 5 6 
#
# 1 133.5895 16.6755 51.3918 0.0000 -35.8435 0.0000
# 2 16.6755 11.9286 -0.8459 0.0000 -1.6709 0.0000
# 3 51.3918 -0.8459 87.1726 0.0000 -25.6921 0.0000
# 4 0.0000 0.0000 0.0000 17.6791 0.0000 -4.2170
# 5 -35.8435 -1.6709 -25.6921 0.0000 44.6824 0.0000
# 6 0.0000 0.0000 0.0000 -4.2170 0.0000 22.4035
#
#
#
# Elastic Compliance Matrix: (Units=1/GPa)
#
#
# Indices 1 2 3 4 5 6 
#
# 1 0.014324 -0.019513 -0.006577 0.000000 0.006979 0.000000
# 2 -0.019513 0.111177 0.011071 0.000000 -0.005130 0.000000
# 3 -0.006577 0.011071 0.016885 0.000000 0.004847 0.000000
# 4 0.000000 0.000000 0.000000 0.059223 0.000000 0.011148
# 5 0.006979 -0.005130 0.004847 0.000000 0.030574 0.000000
# 6 0.000000 0.000000 0.000000 0.011148 0.000000 0.046734
#
#
# Mechanical properties :
#
#
# Convention : Reuss Voigt Hill
#
# Bulk Modulus (GPa) = 8.90098 40.79262 24.84680
# Shear Modulus (GPa) = 14.43394 27.98427 21.20910
#
# Velocity S-wave (km/s) = 2.67316 3.72211 3.24036
# Velocity P-wave (km/s) = 3.73287 6.21830 5.12843
#
# Compressibility (1/GPa) = 0.11234716
#
# Stress axis : x y z
#
# Youngs Moduli (GPa) = 69.81197 8.99463 59.22473
#
# Poissons Ratio (x) = 0.17552 0.38953
# Poissons Ratio (y) = 1.36226 -0.65566
# Poissons Ratio (z) = 0.45916 -0.09958
#
# Static dielectric constant tensor:
#      x y z
#    x 1.796690 0.000000 -0.010020 
#    y 0.000000 1.678310 0.000000 
#    z -0.010020 0.000000 1.770890 
# 
# From -- ./inp_files/31842.got.cif
#   From: 2010.05.17/outbox.cif.g08.bks.cpg/sg15_16_cif.got.tgz:31842.got - 2010.06.03 18:47:42.
