data_PCOD9279271
_publ_section_title
;
Structure prediction by ZEFSAII (Michael W. Deem and Ramdas Pophale) SiO2 
 PCOD9279271
Probable space group: C 2/C
;
_chemical_formula_sum "Si O2"
_cell_formula_units_Z 40
_cell_length_a 16.990436
_cell_length_b 5.116572
_cell_length_c 17.118077
_cell_angle_alpha 90.000000
_cell_angle_beta 106.560556
_cell_angle_gamma 90.000000
_cell_volume 1426.393416
_symmetry_space_group_name_H-M "C 2/C"
_symmetry_group_IT_number 15
_symmetry_cell_setting 'monoclinic'
loop_
_space_group_symop_operation_xyz
x,y,z
-x,y,1/2-z
-x,-y,-z
x,-y,1/2+z
1/2+x,1/2+y,z
1/2-x,1/2+y,1/2-z
1/2-x,1/2-y,-z
1/2+x,1/2-y,1/2+z
loop_
_atom_site_type_symbol
_atom_site_label
_atom_site_fract_x
_atom_site_fract_y
_atom_site_fract_z
Si Si1 0.039577 0.220586 0.144006
Si Si2 0.201260 0.172984 0.564802
Si Si3 0.426132 0.337792 0.173690
Si Si4 0.152473 0.280939 0.707063
Si Si5 0.097124 0.666880 0.505875
O O1 0.104855 0.443199 0.186831
O O2 0.954610 0.138106 0.163405
O O3 0.156766 0.782731 0.301258
O O4 0.027594 0.263046 0.048888
O O5 0.250000 0.250000 0.500000
O O6 0.224781 0.228451 0.663722
O O7 0.130281 0.386960 0.537778
O O8 0.169121 0.880390 0.542492
O O9 0.500000 0.234401 0.250000
O O10 0.590438 0.452472 0.165545
O O11 0.424890 0.197742 0.090531
#
# Coordination Sequence:
#
# PCOD9279271 Si02
#       5
#     8   8   8   8   8
#     4   9  19  35  54  79 114 151 185 226 279 345
#     4  10  21  41  61  79 109 151 198 250 287 324
#     4  10  21  35  55  85 121 151 179 230 288 345
#     4   9  20  35  55  83 112 148 193 231 281 345
#     4  10  21  36  59  86 109 147 197 231 284 357
#
# _framework density 28.042753999999999
#
# number of rings (size 3 to 8) (size 9 to 14) (size 15 to 20)
#    0.000    2.400    0.000    1.200    0.000   13.600 
#    0.000   14.000    0.000    0.000    0.000    0.000 
#    0.000    0.000    0.000    0.000    0.000    0.000 
#
# Total GULP energy -111615.612657 kJ/mol
# GULP energy per Si atom -5580.780633 kJ/mol
# Density = 2.797893 g / cm^3
# Si number density = 28.042754 Si / 1000 Ang^3
#
#
#
# Elastic Constant Matrix: (Units=GPa)
#
#
# Indices 1 2 3 4 5 6 
#
# 1 55.1618 30.7132 25.8877 0.0000 -28.8095 0.0000
# 2 30.7132 157.6795 -2.0080 0.0000 5.7112 0.0000
# 3 25.8877 -2.0080 207.1880 0.0000 -49.4015 0.0000
# 4 0.0000 0.0000 0.0000 43.0369 0.0000 -8.7824
# 5 -28.8095 5.7112 -49.4015 0.0000 53.0438 0.0000
# 6 0.0000 0.0000 0.0000 -8.7824 0.0000 40.8294
#
#
#
# Elastic Compliance Matrix: (Units=1/GPa)
#
#
# Indices 1 2 3 4 5 6 
#
# 1 0.031039 -0.006689 0.000319 0.000000 0.017876 0.000000
# 2 -0.006689 0.007811 -0.000200 0.000000 -0.004660 0.000000
# 3 0.000319 -0.000200 0.006210 0.000000 0.005979 0.000000
# 4 0.000000 0.000000 0.000000 0.024303 0.000000 0.005227
# 5 0.017876 -0.004660 0.005979 0.000000 0.034631 0.000000
# 6 0.000000 0.000000 0.000000 0.005227 0.000000 0.025617
#
#
# Mechanical properties :
#
#
# Convention : Reuss Voigt Hill
#
# Bulk Modulus (GPa) = 31.32729 58.80167 45.06448
# Shear Modulus (GPa) = 32.59651 51.74446 42.17049
#
# Velocity S-wave (km/s) = 3.41308 4.30024 3.88208
# Velocity P-wave (km/s) = 5.16988 6.75797 6.01655
#
# Compressibility (1/GPa) = 0.03192105
#
# Stress axis : x y z
#
# Youngs Moduli (GPa) = 32.21737 128.02167 161.02381
#
# Poissons Ratio (x) = 0.85637 -0.05139
# Poissons Ratio (y) = 0.21551 0.03214
# Poissons Ratio (z) = -0.01028 0.02556
#
# Static dielectric constant tensor:
#      x y z
#    x 2.307180 0.000000 -0.174520 
#    y 0.000000 2.224800 0.000000 
#    z -0.174520 0.000000 2.571830 
# 
# From -- ./inp_files/217298.got.cif
#   From: 2010.05.17/outbox.cif.g08.bks.cpg/sg15_109_cif.got.tgz:217298.got - 2010.06.03 18:47:42.
