data_PCOD9279388
_publ_section_title
;
Structure prediction by ZEFSAII (Michael W. Deem and Ramdas Pophale) SiO2 
 PCOD9279388
Probable space group: C 2/C
;
_chemical_formula_sum "Si O2"
_cell_formula_units_Z 56
_cell_length_a 14.048254
_cell_length_b 23.220777
_cell_length_c 9.154281
_cell_angle_alpha 90.000000
_cell_angle_beta 67.201306
_cell_angle_gamma 90.000000
_cell_volume 2752.922308
_symmetry_space_group_name_H-M "C 2/C"
_symmetry_group_IT_number 15
_symmetry_cell_setting 'monoclinic'
loop_
_space_group_symop_operation_xyz
x,y,z
-x,y,1/2-z
-x,-y,-z
x,-y,1/2+z
1/2+x,1/2+y,z
1/2-x,1/2+y,1/2-z
1/2-x,1/2-y,-z
1/2+x,1/2-y,1/2+z
loop_
_atom_site_type_symbol
_atom_site_label
_atom_site_fract_x
_atom_site_fract_y
_atom_site_fract_z
Si Si1 0.758427 0.023027 0.287394
Si Si2 0.459988 0.410556 0.604226
Si Si3 0.684835 0.564617 0.947919
Si Si4 0.227899 0.808420 0.419747
Si Si5 0.564085 0.835844 0.364477
Si Si6 0.999280 0.786532 0.570441
Si Si7 0.970021 0.558878 0.098968
O O1 0.857683 0.052403 0.151922
O O2 0.791749 0.020937 0.435447
O O3 0.654535 0.059812 0.335831
O O4 0.746645 0.959751 0.224617
O O5 0.500000 0.411117 0.750000
O O6 0.565735 0.432052 0.466387
O O7 0.437005 0.344538 0.575800
O O8 0.713967 0.627450 0.997432
O O9 0.250000 0.750000 0.500000
O O10 0.318359 0.822531 0.253053
O O11 0.112142 0.797115 0.437126
O O12 0.500000 0.842261 0.250000
O O13 0.534019 0.775921 0.458874
O O14 0.529015 0.888951 0.484031
O O15 0.000000 0.783404 0.750000
O O16 0.000000 0.556299 0.250000
O O17 0.000000 0.500000 0.000000
#
# Coordination Sequence:
#
# PCOD9279388 Si02
#       7
#     8   8   8   8   8   8   8
#     4  11  21  37  61  81 123 158 201 251 319 368
#     4   8  17  32  56  90 118 150 198 251 304 376
#     4  10  21  35  58  94 120 157 202 251 315 377
#     4  11  19  33  57  90 127 155 206 267 310 366
#     4  11  21  34  61  91 117 154 210 259 321 371
#     4   9  17  30  54  90 120 151 205 259 302 370
#     4  12  26  43  60  85 124 167 219 265 317 384
#
# _framework density 20.342019000000001
#
# number of rings (size 3 to 8) (size 9 to 14) (size 15 to 20)
#    0.000    1.714    2.857    4.286    0.000    0.000 
#    0.000    0.000    0.000    6.857    0.000    0.000 
#    0.000    0.000    0.000    0.000    0.000    0.000 
#
# Total GULP energy -155873.975947 kJ/mol
# GULP energy per Si atom -5566.927712 kJ/mol
# Density = 2.029572 g / cm^3
# Si number density = 20.342019 Si / 1000 Ang^3
#
#
#
# Elastic Constant Matrix: (Units=GPa)
#
#
# Indices 1 2 3 4 5 6 
#
# 1 93.8015 39.5318 44.6345 0.0000 -26.4101 0.0000
# 2 39.5318 152.4436 59.4767 0.0000 -11.7724 0.0000
# 3 44.6345 59.4767 78.9141 0.0000 -16.4296 0.0000
# 4 0.0000 0.0000 0.0000 36.3210 0.0000 -7.6514
# 5 -26.4101 -11.7724 -16.4296 0.0000 35.7866 0.0000
# 6 0.0000 0.0000 0.0000 -7.6514 0.0000 21.8854
#
#
#
# Elastic Compliance Matrix: (Units=1/GPa)
#
#
# Indices 1 2 3 4 5 6 
#
# 1 0.016908 -0.000976 -0.006962 0.000000 0.008960 0.000000
# 2 -0.000976 0.009350 -0.006639 0.000000 -0.000693 0.000000
# 3 -0.006962 -0.006639 0.022212 0.000000 0.002876 0.000000
# 4 0.000000 0.000000 0.000000 0.029721 0.000000 0.010391
# 5 0.008960 -0.000693 0.002876 0.000000 0.035649 0.000000
# 6 0.000000 0.000000 0.000000 0.010391 0.000000 0.049325
#
#
# Mechanical properties :
#
#
# Convention : Reuss Voigt Hill
#
# Bulk Modulus (GPa) = 51.77155 68.04946 59.91051
# Shear Modulus (GPa) = 25.15637 30.89968 28.02803
#
# Velocity S-wave (km/s) = 3.52045 3.90167 3.71595
# Velocity P-wave (km/s) = 6.48310 7.33639 6.92290
#
# Compressibility (1/GPa) = 0.01931563
#
# Stress axis : x y z
#
# Youngs Moduli (GPa) = 59.14412 106.95620 45.02096
#
# Poissons Ratio (x) = 0.10443 0.31343
# Poissons Ratio (y) = 0.05775 0.29888
# Poissons Ratio (z) = 0.41175 0.71005
#
# Static dielectric constant tensor:
#      x y z
#    x 1.763580 0.000000 -0.066570 
#    y 0.000000 1.802100 0.000000 
#    z -0.066570 0.000000 1.675170 
# 
# From -- ./inp_files/42102.got.cif
#   From: 2010.05.17/outbox.cif.g08.bks.cpg/sg15_22_cif.got.tgz:42102.got - 2010.06.03 18:47:42.
