data_PCOD9279166
_publ_section_title
;
Structure prediction by ZEFSAII (Michael W. Deem and Ramdas Pophale) SiO2 
 PCOD9279166
Probable space group: C 2/C
;
_chemical_formula_sum "Si O2"
_cell_formula_units_Z 44
_cell_length_a 13.093166
_cell_length_b 9.274451
_cell_length_c 20.821848
_cell_angle_alpha 90.000000
_cell_angle_beta 59.763368
_cell_angle_gamma 90.000000
_cell_volume 2184.450882
_symmetry_space_group_name_H-M "C 2/C"
_symmetry_group_IT_number 15
_symmetry_cell_setting 'monoclinic'
loop_
_space_group_symop_operation_xyz
x,y,z
-x,y,1/2-z
-x,-y,-z
x,-y,1/2+z
1/2+x,1/2+y,z
1/2-x,1/2+y,1/2-z
1/2-x,1/2-y,-z
1/2+x,1/2-y,1/2+z
loop_
_atom_site_type_symbol
_atom_site_label
_atom_site_fract_x
_atom_site_fract_y
_atom_site_fract_z
Si Si1 0.926801 0.429315 0.150951
Si Si2 0.340909 0.982652 0.998814
Si Si3 0.590157 0.285085 0.946118
Si Si4 0.666833 0.603999 0.944462
Si Si5 0.253525 0.862997 0.656860
Si Si6 0.500000 0.749918 0.250000
O O1 0.870734 0.295426 0.130523
O O2 0.831613 0.557950 0.186503
O O3 0.028857 0.482801 0.069665
O O4 0.984158 0.358623 0.195094
O O5 0.256257 0.059504 0.973068
O O6 0.356232 0.811969 0.012630
O O7 0.293087 0.051655 0.079989
O O8 0.630382 0.447955 0.932075
O O9 0.447551 0.305283 0.995410
O O10 0.716092 0.698154 0.870427
O O11 0.114081 0.853578 0.710799
#
# Coordination Sequence:
#
# PCOD9279166 Si02
#       6
#     8   8   8   8   8   4
#     4  11  22  42  65  87 124 164 214 257 317 375
#     4  11  19  39  65  93 120 161 203 267 312 369
#     4  10  21  34  60  99 122 149 201 269 310 360
#     4  11  19  33  62  96 124 151 197 258 321 368
#     4  11  22  40  67  90 122 167 213 256 312 381
#     4  12  26  40  64  90 126 182 210 256 320 388
#
# _framework density 20.142361999999999
#
# number of rings (size 3 to 8) (size 9 to 14) (size 15 to 20)
#    0.000    1.091    5.455    3.273    0.000    1.455 
#    0.000    0.000    4.000    2.182    0.000    0.000 
#    0.000    0.000    0.000    0.000    0.000    0.000 
#
# Total GULP energy -122488.843282 kJ/mol
# GULP energy per Si atom -5567.674695 kJ/mol
# Density = 2.009652 g / cm^3
# Si number density = 20.142362 Si / 1000 Ang^3
#
#
#
# Elastic Constant Matrix: (Units=GPa)
#
#
# Indices 1 2 3 4 5 6 
#
# 1 88.8695 35.6397 16.9175 0.0000 -8.8318 0.0000
# 2 35.6397 126.7815 20.0506 0.0000 -9.4952 0.0000
# 3 16.9175 20.0506 46.7061 0.0000 -9.4925 0.0000
# 4 0.0000 0.0000 0.0000 8.5897 0.0000 -2.3070
# 5 -8.8318 -9.4952 -9.4925 0.0000 37.5665 0.0000
# 6 0.0000 0.0000 0.0000 -2.3070 0.0000 36.9304
#
#
#
# Elastic Compliance Matrix: (Units=1/GPa)
#
#
# Indices 1 2 3 4 5 6 
#
# 1 0.013253 -0.003112 -0.003153 0.000000 0.001532 0.000000
# 2 -0.003112 0.009252 -0.002654 0.000000 0.000936 0.000000
# 3 -0.003153 -0.002654 0.024672 0.000000 0.004822 0.000000
# 4 0.000000 0.000000 0.000000 0.118405 0.000000 0.007397
# 5 0.001532 0.000936 0.004822 0.000000 0.028435 0.000000
# 6 0.000000 0.000000 0.000000 0.007397 0.000000 0.027540
#
#
# Mechanical properties :
#
#
# Convention : Reuss Voigt Hill
#
# Bulk Modulus (GPa) = 34.08500 45.28587 39.68543
# Shear Modulus (GPa) = 20.06618 29.26728 24.66673
#
# Velocity S-wave (km/s) = 3.15972 3.81599 3.50325
# Velocity P-wave (km/s) = 5.50187 6.47668 6.00907
#
# Compressibility (1/GPa) = 0.02933842
#
# Stress axis : x y z
#
# Youngs Moduli (GPa) = 75.45436 108.08045 40.53164
#
# Poissons Ratio (x) = 0.33637 0.12779
# Poissons Ratio (y) = 0.23483 0.10759
# Poissons Ratio (z) = 0.23790 0.28689
#
# Static dielectric constant tensor:
#      x y z
#    x 1.827960 0.000000 -0.010050 
#    y 0.000000 1.731620 0.000000 
#    z -0.010050 0.000000 1.726770 
# 
# From -- ./inp_files/202688.got.cif
#   From: 2010.05.17/outbox.cif.g08.bks.cpg/sg15_102_cif.got.tgz:202688.got - 2010.06.03 18:47:42.
