data_PCOD9279994
_publ_section_title
;
Structure prediction by ZEFSAII (Michael W. Deem and Ramdas Pophale) SiO2 
 PCOD9279994
Probable space group: C 2/C
;
_chemical_formula_sum "Si O2"
_cell_formula_units_Z 52
_cell_length_a 12.074353
_cell_length_b 21.581523
_cell_length_c 12.837180
_cell_angle_alpha 90.000000
_cell_angle_beta 128.397904
_cell_angle_gamma 90.000000
_cell_volume 2621.648130
_symmetry_space_group_name_H-M "C 2/C"
_symmetry_group_IT_number 15
_symmetry_cell_setting 'monoclinic'
loop_
_space_group_symop_operation_xyz
x,y,z
-x,y,1/2-z
-x,-y,-z
x,-y,1/2+z
1/2+x,1/2+y,z
1/2-x,1/2+y,1/2-z
1/2-x,1/2-y,-z
1/2+x,1/2-y,1/2+z
loop_
_atom_site_type_symbol
_atom_site_label
_atom_site_fract_x
_atom_site_fract_y
_atom_site_fract_z
Si Si1 0.527112 0.335487 0.937066
Si Si2 0.257834 0.175627 0.738924
Si Si3 0.403843 0.532709 0.354359
Si Si4 0.251728 0.217179 0.113945
Si Si5 0.839060 0.579514 0.148725
Si Si6 0.500000 0.760576 0.250000
Si Si7 0.841050 0.922097 0.165759
O O1 0.473735 0.401708 0.865068
O O2 0.401987 0.304939 0.933636
O O3 0.571459 0.287206 0.873450
O O4 0.653288 0.346898 0.089138
O O5 0.198882 0.234477 0.769376
O O6 0.397396 0.198034 0.760603
O O7 0.261074 0.121170 0.825035
O O8 0.500000 0.500000 0.500000
O O9 0.252565 0.549924 0.313539
O O10 0.376457 0.485056 0.246350
O O11 0.338506 0.154037 0.159022
O O12 0.250000 0.250000 0.000000
O O13 0.000000 0.557218 0.250000
O O14 0.742759 0.567221 0.990019
O O15 0.000000 0.891885 0.250000
#
# Coordination Sequence:
#
# PCOD9279994 Si02
#       7
#     8   8   8   8   8   4   8
#     4  10  22  39  62  92 123 173 229 273 324 399
#     4  11  22  38  65  93 129 170 220 273 334 406
#     4  11  22  43  66  95 127 178 234 277 324 403
#     4  10  21  36  62  95 132 168 211 272 341 398
#     4  11  25  41  63 102 138 167 221 285 340 398
#     4  10  24  40  56  94 134 172 214 270 354 410
#     4  12  23  41  73  96 124 177 230 278 335 401
#
# _framework density 19.834851
#
# number of rings (size 3 to 8) (size 9 to 14) (size 15 to 20)
#    0.000    1.231    4.615    1.385    3.231    0.615 
#    1.385    1.538    0.000    0.000    0.000    0.000 
#    0.000    0.000    0.000    0.000    0.000    0.000 
#
# Total GULP energy -145088.087298 kJ/mol
# GULP energy per Si atom -5580.311050 kJ/mol
# Density = 1.978971 g / cm^3
# Si number density = 19.834851 Si / 1000 Ang^3
#
#
#
# Elastic Constant Matrix: (Units=GPa)
#
#
# Indices 1 2 3 4 5 6 
#
# 1 86.2445 47.9882 33.8275 0.0000 -7.1232 0.0000
# 2 47.9882 102.4303 15.4493 0.0000 -10.6353 0.0000
# 3 33.8275 15.4493 69.7486 0.0000 -4.5033 0.0000
# 4 0.0000 0.0000 0.0000 39.6421 0.0000 -15.0240
# 5 -7.1232 -10.6353 -4.5033 0.0000 32.6602 0.0000
# 6 0.0000 0.0000 0.0000 -15.0240 0.0000 32.5885
#
#
#
# Elastic Compliance Matrix: (Units=1/GPa)
#
#
# Indices 1 2 3 4 5 6 
#
# 1 0.018782 -0.007624 -0.007382 0.000000 0.000596 0.000000
# 2 -0.007624 0.013496 0.000892 0.000000 0.002855 0.000000
# 3 -0.007382 0.000892 0.017793 0.000000 0.001134 0.000000
# 4 0.000000 0.000000 0.000000 0.030566 0.000000 0.014092
# 5 0.000596 0.002855 0.001134 0.000000 0.031834 0.000000
# 6 0.000000 0.000000 0.000000 0.014092 0.000000 0.037182
#
#
# Mechanical properties :
#
#
# Convention : Reuss Voigt Hill
#
# Bulk Modulus (GPa) = 45.77839 50.32814 48.05326
# Shear Modulus (GPa) = 27.00345 31.72205 29.36275
#
# Velocity S-wave (km/s) = 3.69374 4.00347 3.85172
# Velocity P-wave (km/s) = 6.42818 6.84099 6.63779
#
# Compressibility (1/GPa) = 0.02184437
#
# Stress axis : x y z
#
# Youngs Moduli (GPa) = 53.24372 74.09420 56.20238
#
# Poissons Ratio (x) = 0.56488 0.41487
# Poissons Ratio (y) = 0.40592 -0.05016
# Poissons Ratio (z) = 0.39303 -0.06612
#
# Static dielectric constant tensor:
#      x y z
#    x 1.747440 0.000000 -0.000950 
#    y 0.000000 1.722080 0.000000 
#    z -0.000950 0.000000 1.699120 
# 
# From -- ./inp_files/89120.got.cif
#   From: 2010.05.17/outbox.cif.g08.bks.cpg/sg15_45_cif.got.tgz:89120.got - 2010.06.03 18:47:42.
