data_PCOD9279243
_publ_section_title
;
Structure prediction by ZEFSAII (Michael W. Deem and Ramdas Pophale) SiO2 
 PCOD9279243
Probable space group: C 2/C
;
_chemical_formula_sum "Si O2"
_cell_formula_units_Z 40
_cell_length_a 22.455547
_cell_length_b 5.255281
_cell_length_c 14.728670
_cell_angle_alpha 90.000000
_cell_angle_beta 93.724077
_cell_angle_gamma 90.000000
_cell_volume 1734.463211
_symmetry_space_group_name_H-M "C 2/C"
_symmetry_group_IT_number 15
_symmetry_cell_setting 'monoclinic'
loop_
_space_group_symop_operation_xyz
x,y,z
-x,y,1/2-z
-x,-y,-z
x,-y,1/2+z
1/2+x,1/2+y,z
1/2-x,1/2+y,1/2-z
1/2-x,1/2-y,-z
1/2+x,1/2-y,1/2+z
loop_
_atom_site_type_symbol
_atom_site_label
_atom_site_fract_x
_atom_site_fract_y
_atom_site_fract_z
Si Si1 0.804405 0.984554 0.975431
Si Si2 0.760534 0.910821 0.148279
Si Si3 0.155180 0.279632 0.694861
Si Si4 0.573714 0.785348 0.995803
Si Si5 0.459014 0.284946 0.397913
O O1 0.754942 0.837987 0.911491
O O2 0.857317 0.785915 0.008831
O O3 0.833774 0.166720 0.904533
O O4 0.780744 0.095128 0.068159
O O5 0.813388 0.884067 0.224579
O O6 0.698987 0.976768 0.194163
O O7 0.083741 0.282593 0.691187
O O8 0.551777 0.573329 0.067692
O O9 0.562205 0.068524 0.031525
O O10 0.530462 0.747229 0.905178
#
# Coordination Sequence:
#
# PCOD9279243 Si02
#       5
#     8   8   8   8   8
#     4  10  21  35  54  77 114 142 191 230 286 338
#     4  11  21  34  53  82 109 149 184 234 284 344
#     4  11  20  36  54  81 111 150 187 236 287 346
#     4   9  17  34  53  83 104 147 186 233 278 337
#     4   9  18  31  58  77 109 144 190 227 283 334
#
# _framework density 23.061889000000001
#
# number of rings (size 3 to 8) (size 9 to 14) (size 15 to 20)
#    0.000    2.000    4.000    0.600    0.000    0.000 
#    0.000    1.000    0.000    0.000    0.000    8.400 
#    0.000    0.000    0.000    0.000    0.000    0.000 
#
# Total GULP energy -111343.573089 kJ/mol
# GULP energy per Si atom -5567.178654 kJ/mol
# Density = 2.300940 g / cm^3
# Si number density = 23.061889 Si / 1000 Ang^3
#
#
#
# Elastic Constant Matrix: (Units=GPa)
#
#
# Indices 1 2 3 4 5 6 
#
# 1 91.9744 1.4136 53.7075 0.0000 51.7130 0.0000
# 2 1.4136 62.4314 20.0670 0.0000 -0.3862 0.0000
# 3 53.7075 20.0670 122.4890 0.0000 37.6575 0.0000
# 4 0.0000 0.0000 0.0000 21.4695 0.0000 7.1518
# 5 51.7130 -0.3862 37.6575 0.0000 59.1973 0.0000
# 6 0.0000 0.0000 0.0000 7.1518 0.0000 29.5550
#
#
#
# Elastic Compliance Matrix: (Units=1/GPa)
#
#
# Indices 1 2 3 4 5 6 
#
# 1 0.023644 0.001031 -0.005206 0.000000 -0.017336 0.000000
# 2 0.001031 0.017215 -0.003767 0.000000 0.001608 0.000000
# 3 -0.005206 -0.003767 0.012025 0.000000 -0.003126 0.000000
# 4 0.000000 0.000000 0.000000 0.050661 0.000000 -0.012259
# 5 -0.017336 0.001608 -0.003126 0.000000 0.034036 0.000000
# 6 0.000000 0.000000 0.000000 -0.012259 0.000000 0.036802
#
#
# Mechanical properties :
#
#
# Convention : Reuss Voigt Hill
#
# Bulk Modulus (GPa) = 27.02701 47.47455 37.25078
# Shear Modulus (GPa) = 24.67906 35.49148 30.08527
#
# Velocity S-wave (km/s) = 3.27482 3.92722 3.61577
# Velocity P-wave (km/s) = 5.10334 6.41829 5.79821
#
# Compressibility (1/GPa) = 0.03700003
#
# Stress axis : x y z
#
# Youngs Moduli (GPa) = 42.29328 58.08938 83.16076
#
# Poissons Ratio (x) = -0.05988 0.43297
# Poissons Ratio (y) = -0.04360 0.31323
# Poissons Ratio (z) = 0.22020 0.21880
#
# Static dielectric constant tensor:
#      x y z
#    x 2.053100 0.000000 0.020540 
#    y 0.000000 1.976690 0.000000 
#    z 0.020540 0.000000 1.877370 
# 
# From -- ./inp_files/120815.got.cif
#   From: 2010.05.17/outbox.cif.g08.bks.cpg/sg15_61_cif.got.tgz:120815.got - 2010.06.03 18:47:42.
