data_PCOD9279234
_publ_section_title
;
Structure prediction by ZEFSAII (Michael W. Deem and Ramdas Pophale) SiO2 
 PCOD9279234
Probable space group: C 2/C
;
_chemical_formula_sum "Si O2"
_cell_formula_units_Z 48
_cell_length_a 9.516662
_cell_length_b 22.228360
_cell_length_c 14.472530
_cell_angle_alpha 90.000000
_cell_angle_beta 42.884509
_cell_angle_gamma 90.000000
_cell_volume 2083.431362
_symmetry_space_group_name_H-M "C 2/C"
_symmetry_group_IT_number 15
_symmetry_cell_setting 'monoclinic'
loop_
_space_group_symop_operation_xyz
x,y,z
-x,y,1/2-z
-x,-y,-z
x,-y,1/2+z
1/2+x,1/2+y,z
1/2-x,1/2+y,1/2-z
1/2-x,1/2-y,-z
1/2+x,1/2-y,1/2+z
loop_
_atom_site_type_symbol
_atom_site_label
_atom_site_fract_x
_atom_site_fract_y
_atom_site_fract_z
Si Si1 0.775572 0.323005 0.473116
Si Si2 0.963527 0.926991 0.630226
Si Si3 0.234039 0.348328 0.242159
Si Si4 0.575010 0.440811 0.075173
Si Si5 0.983819 0.265657 0.863200
Si Si6 0.980384 0.604963 0.146034
O O1 0.750000 0.250000 0.500000
O O2 0.589989 0.366708 0.596833
O O3 0.778752 0.340697 0.362737
O O4 0.004939 0.343092 0.392867
O O5 0.942438 0.930712 0.528033
O O6 0.728875 0.928725 0.779092
O O7 0.072710 0.989343 0.601676
O O8 0.371627 0.405121 0.206321
O O9 0.369097 0.290270 0.199383
O O10 0.795270 0.414056 0.997245
O O11 0.055645 0.327265 0.873407
O O12 0.000000 0.282749 0.750000
O O13 0.750000 0.250000 0.000000
O O14 0.000000 0.598724 0.250000
#
# Coordination Sequence:
#
# PCOD9279234 Si02
#       6
#     8   8   8   8   8   8
#     4  10  21  35  54  79 116 149 186 235 288 354
#     4   9  18  29  50  75 110 149 184 235 288 343
#     4  10  21  35  53  83 113 145 189 240 289 348
#     4   9  17  30  47  78 110 141 187 235 291 330
#     4  11  22  36  59  87 116 150 192 245 294 342
#     4   9  17  30  49  75 107 138 179 234 281 335
#
# _framework density 23.038917000000001
#
# number of rings (size 3 to 8) (size 9 to 14) (size 15 to 20)
#    0.000    2.333    1.667    1.000    7.000    0.000 
#    0.000    0.000    0.000    0.000    8.667    3.500 
#    0.000    0.000    0.000    0.000    0.000    0.000 
#
# Total GULP energy -133837.166179 kJ/mol
# GULP energy per Si atom -5576.548591 kJ/mol
# Density = 2.298648 g / cm^3
# Si number density = 23.038917 Si / 1000 Ang^3
#
#
#
# Elastic Constant Matrix: (Units=GPa)
#
#
# Indices 1 2 3 4 5 6 
#
# 1 36.6258 15.6927 35.1700 0.0000 -5.2643 0.0000
# 2 15.6927 140.7046 40.6716 0.0000 -36.9961 0.0000
# 3 35.1700 40.6716 113.8917 0.0001 -31.7677 0.0000
# 4 0.0000 0.0000 0.0001 21.0074 0.0000 4.3519
# 5 -5.2643 -36.9961 -31.7677 0.0000 48.3494 0.0000
# 6 0.0000 0.0000 0.0000 4.3519 0.0000 2.2423
#
#
#
# Elastic Compliance Matrix: (Units=1/GPa)
#
#
# Indices 1 2 3 4 5 6 
#
# 1 0.040154 -0.002231 -0.013297 0.000000 -0.006072 0.000000
# 2 -0.002231 0.009255 -0.000867 0.000000 0.006269 0.000000
# 3 -0.013297 -0.000867 0.015436 0.000000 0.008031 0.000000
# 4 0.000000 0.000000 0.000000 0.079610 0.000000 -0.154506
# 5 -0.006072 0.006269 0.008031 0.000000 0.030095 -0.000001
# 6 0.000000 0.000000 0.000000 -0.154506 -0.000001 0.745825
#
#
# Mechanical properties :
#
#
# Convention : Reuss Voigt Hill
#
# Bulk Modulus (GPa) = 31.19659 52.69897 41.94778
# Shear Modulus (GPa) = 5.18753 27.63236 16.40995
#
# Velocity S-wave (km/s) = 1.50217 3.46696 2.67174
# Velocity P-wave (km/s) = 4.07172 6.24099 5.26920
#
# Compressibility (1/GPa) = 0.03205479
#
# Stress axis : x y z
#
# Youngs Moduli (GPa) = 24.90382 108.04997 64.78361
#
# Poissons Ratio (x) = 0.24110 0.86140
# Poissons Ratio (y) = 0.05557 0.05619
# Poissons Ratio (z) = 0.33113 0.09372
#
# Static dielectric constant tensor:
#      x y z
#    x 1.366870 0.000000 0.102850 
#    y 0.000000 1.798780 0.000000 
#    z 0.102850 0.000000 1.868500 
# 
# From -- ./inp_files/88339.got.cif
#   From: 2010.05.17/outbox.cif.g08.bks.cpg/sg15_45_cif.got.tgz:88339.got - 2010.06.03 18:47:42.
