data_PCOD9279310
_publ_section_title
;
Structure prediction by ZEFSAII (Michael W. Deem and Ramdas Pophale) SiO2 
 PCOD9279310
Probable space group: C 2/C
;
_chemical_formula_sum "Si O2"
_cell_formula_units_Z 52
_cell_length_a 8.806696
_cell_length_b 11.430854
_cell_length_c 23.911571
_cell_angle_alpha 90.000000
_cell_angle_beta 87.860699
_cell_angle_gamma 90.000000
_cell_volume 2405.453659
_symmetry_space_group_name_H-M "C 2/C"
_symmetry_group_IT_number 15
_symmetry_cell_setting 'monoclinic'
loop_
_space_group_symop_operation_xyz
x,y,z
-x,y,1/2-z
-x,-y,-z
x,-y,1/2+z
1/2+x,1/2+y,z
1/2-x,1/2+y,1/2-z
1/2-x,1/2-y,-z
1/2+x,1/2-y,1/2+z
loop_
_atom_site_type_symbol
_atom_site_label
_atom_site_fract_x
_atom_site_fract_y
_atom_site_fract_z
Si Si1 0.369838 0.192377 0.833875
Si Si2 0.061510 0.489888 0.868044
Si Si3 0.963547 0.758938 0.522456
Si Si4 0.119084 0.889225 0.421456
Si Si5 0.825937 0.420708 0.960730
Si Si6 0.110318 0.090201 0.111247
Si Si7 0.500000 0.970280 0.250000
O O1 0.216516 0.169625 0.871044
O O2 0.403612 0.329434 0.833266
O O3 0.372385 0.118769 0.776474
O O4 0.508636 0.125305 0.864032
O O5 0.224363 0.465896 0.891038
O O6 0.055145 0.456252 0.802331
O O7 0.931439 0.426487 0.904976
O O8 0.925652 0.622980 0.512004
O O9 0.807733 0.824310 0.541700
O O10 0.018160 0.805471 0.461025
O O11 0.086293 0.811947 0.563172
O O12 0.235543 0.957227 0.461627
O O13 0.012393 0.989732 0.396761
#
# Coordination Sequence:
#
# PCOD9279310 Si02
#       7
#     8   8   8   8   8   8   4
#     4   9  21  41  59  80 120 147 196 250 291 345
#     4   9  20  38  62  82 116 154 204 242 302 346
#     4  10  21  35  56  92 134 150 197 235 287 367
#     4  10  21  38  58  87 125 156 191 239 285 360
#     4   9  18  35  56  84 122 171 178 233 302 351
#     4  11  21  36  62  94 113 160 194 238 291 361
#     4   8  20  46  58  76 118 150 196 272 290 342
#
# _framework density 21.617543999999999
#
# number of rings (size 3 to 8) (size 9 to 14) (size 15 to 20)
#    0.923    1.538    0.000    2.769    0.000    7.385 
#    2.769    5.385    3.385    0.000    0.000    0.000 
#    0.000    0.000    0.000    0.000    0.000    0.000 
#
# Total GULP energy -144923.044317 kJ/mol
# GULP energy per Si atom -5573.963243 kJ/mol
# Density = 2.156834 g / cm^3
# Si number density = 21.617544 Si / 1000 Ang^3
#
#
#
# Elastic Constant Matrix: (Units=GPa)
#
#
# Indices 1 2 3 4 5 6 
#
# 1 122.1785 27.8549 39.6150 0.0000 -10.0229 0.0000
# 2 27.8549 56.6378 10.8869 0.0000 -3.5749 0.0000
# 3 39.6150 10.8869 86.8695 0.0000 -9.3846 0.0000
# 4 0.0000 0.0000 0.0000 27.4857 0.0000 7.3418
# 5 -10.0229 -3.5749 -9.3846 0.0000 20.8967 0.0000
# 6 0.0000 0.0000 0.0000 7.3418 0.0000 18.4866
#
#
#
# Elastic Compliance Matrix: (Units=1/GPa)
#
#
# Indices 1 2 3 4 5 6 
#
# 1 0.010696 -0.004318 -0.004059 0.000000 0.002569 0.000000
# 2 -0.004318 0.019930 -0.000404 0.000000 0.001157 0.000000
# 3 -0.004059 -0.000404 0.013868 0.000000 0.004212 0.000000
# 4 0.000000 0.000000 0.000000 0.040700 0.000000 -0.016164
# 5 0.002569 0.001157 0.004212 0.000000 0.051176 0.000000
# 6 0.000000 0.000000 0.000000 -0.016164 0.000000 0.060512
#
#
# Mechanical properties :
#
#
# Convention : Reuss Voigt Hill
#
# Bulk Modulus (GPa) = 37.12895 46.93328 42.03112
# Shear Modulus (GPa) = 22.37915 25.86239 24.12077
#
# Velocity S-wave (km/s) = 3.22099 3.46260 3.34398
# Velocity P-wave (km/s) = 5.57187 6.14361 5.86471
#
# Compressibility (1/GPa) = 0.02693316
#
# Stress axis : x y z
#
# Youngs Moduli (GPa) = 93.49283 50.17483 72.10749
#
# Poissons Ratio (x) = 0.21666 0.29269
# Poissons Ratio (y) = 0.40370 0.02910
# Poissons Ratio (z) = 0.37949 0.02025
#
# Static dielectric constant tensor:
#      x y z
#    x 1.813550 0.000000 0.049510 
#    y 0.000000 1.825840 0.000000 
#    z 0.049510 0.000000 1.867830 
# 
# From -- ./inp_files/287603.got.cif
#   From: 2010.05.17/outbox.cif.g08.bks.cpg/sg15_144_cif.got.tgz:287603.got - 2010.06.03 18:47:42.
