data_PCOD9279588
_publ_section_title
;
Structure prediction by ZEFSAII (Michael W. Deem and Ramdas Pophale) SiO2 
 PCOD9279588
Probable space group: C 2/C
;
_chemical_formula_sum "Si O2"
_cell_formula_units_Z 56
_cell_length_a 7.218177
_cell_length_b 32.643057
_cell_length_c 12.369827
_cell_angle_alpha 90.000000
_cell_angle_beta 61.112234
_cell_angle_gamma 90.000000
_cell_volume 2551.947338
_symmetry_space_group_name_H-M "C 2/C"
_symmetry_group_IT_number 15
_symmetry_cell_setting 'monoclinic'
loop_
_space_group_symop_operation_xyz
x,y,z
-x,y,1/2-z
-x,-y,-z
x,-y,1/2+z
1/2+x,1/2+y,z
1/2-x,1/2+y,1/2-z
1/2-x,1/2-y,-z
1/2+x,1/2-y,1/2+z
loop_
_atom_site_type_symbol
_atom_site_label
_atom_site_fract_x
_atom_site_fract_y
_atom_site_fract_z
Si Si1 0.140707 0.874542 0.367243
Si Si2 0.466359 0.059117 0.035526
Si Si3 0.048996 0.218443 0.904810
Si Si4 0.450626 0.863334 0.093926
Si Si5 0.350051 0.769618 0.131934
Si Si6 0.872834 0.958108 0.054028
Si Si7 0.249556 0.993168 0.197809
O O1 0.029665 0.830821 0.410285
O O2 0.239251 0.876562 0.218970
O O3 0.348784 0.871357 0.384942
O O4 0.019644 0.915108 0.441152
O O5 0.517747 0.106928 0.016876
O O6 0.268842 0.051198 0.009711
O O7 0.655902 0.033996 0.926003
O O8 0.383813 0.035045 0.162764
O O9 0.266503 0.229865 0.779837
O O10 0.862880 0.234615 0.879638
O O11 0.010107 0.236878 0.034632
O O12 0.438144 0.814951 0.081913
O O13 0.731116 0.968073 0.197978
O O14 0.000000 0.000000 0.000000
O O15 0.000000 0.000226 0.250000
#
# Coordination Sequence:
#
# PCOD9279588 Si02
#       7
#     8   8   8   8   8   8   8
#     4   9  18  32  53  76 103 133 179 217 253 313
#     4  10  21  36  54  76 109 143 183 233 271 318
#     4   9  18  34  53  81 103 133 170 213 265 316
#     4   9  17  33  53  75 101 138 171 216 262 307
#     4   9  18  33  56  77 106 134 166 215 265 321
#     4  11  20  36  54  76 111 146 179 230 277 313
#     4  11  21  34  53  79 103 143 186 228 269 327
#
# _framework density 21.944025
#
# number of rings (size 3 to 8) (size 9 to 14) (size 15 to 20)
#    0.000    2.286    2.857    0.429    0.000    1.714 
#    0.000    1.429    0.000    0.000    0.000    0.000 
#    0.000    0.000    0.000    0.000    0.000    0.000 
#
# Total GULP energy -156211.433268 kJ/mol
# GULP energy per Si atom -5578.979760 kJ/mol
# Density = 2.189408 g / cm^3
# Si number density = 21.944025 Si / 1000 Ang^3
#
#
#
# Elastic Constant Matrix: (Units=GPa)
#
#
# Indices 1 2 3 4 5 6 
#
# 1 44.9996 -4.9481 7.7439 0.0000 -11.1932 0.0000
# 2 -4.9481 136.7497 62.5867 0.0000 -8.6548 0.0000
# 3 7.7439 62.5867 66.9752 0.0000 -7.9342 0.0000
# 4 0.0000 0.0000 0.0000 39.2546 0.0000 -2.0528
# 5 -11.1932 -8.6548 -7.9342 0.0000 25.9144 0.0000
# 6 0.0000 0.0000 0.0000 -2.0528 0.0000 25.5092
#
#
#
# Elastic Compliance Matrix: (Units=1/GPa)
#
#
# Indices 1 2 3 4 5 6 
#
# 1 0.026444 0.004293 -0.005755 0.000000 0.011094 0.000000
# 2 0.004293 0.013484 -0.012808 0.000000 0.002436 0.000000
# 3 -0.005755 -0.012808 0.027772 0.000000 0.001739 0.000000
# 4 0.000000 0.000000 0.000000 0.025582 0.000000 0.002059
# 5 0.011094 0.002436 0.001739 0.000000 0.044727 0.000000
# 6 0.000000 0.000000 0.000000 0.002059 0.000000 0.039367
#
#
# Mechanical properties :
#
#
# Convention : Reuss Voigt Hill
#
# Bulk Modulus (GPa) = 25.53684 42.16548 33.85116
# Shear Modulus (GPa) = 22.83415 30.35843 26.59629
#
# Velocity S-wave (km/s) = 3.22928 3.72351 3.48516
# Velocity P-wave (km/s) = 5.05637 6.14351 5.62626
#
# Compressibility (1/GPa) = 0.03915911
#
# Stress axis : x y z
#
# Youngs Moduli (GPa) = 37.81531 74.16072 36.00808
#
# Poissons Ratio (x) = -0.31836 0.20722
# Poissons Ratio (y) = -0.16233 0.46121
# Poissons Ratio (z) = 0.21762 0.94988
#
# Static dielectric constant tensor:
#      x y z
#    x 1.903640 0.000000 0.008990 
#    y 0.000000 2.473970 0.000000 
#    z 0.008990 0.000000 1.833710 
# 
# From -- ./inp_files/139452.got.cif
#   From: 2010.05.17/outbox.cif.g08.bks.cpg/sg15_70_cif.got.tgz:139452.got - 2010.06.03 18:47:42.
