data_PCOD9279151
_publ_section_title
;
Structure prediction by ZEFSAII (Michael W. Deem and Ramdas Pophale) SiO2 
 PCOD9279151
Probable space group: C 2/C
;
_chemical_formula_sum "Si O2"
_cell_formula_units_Z 44
_cell_length_a 5.429905
_cell_length_b 19.187913
_cell_length_c 24.810310
_cell_angle_alpha 90.000000
_cell_angle_beta 64.091256
_cell_angle_gamma 90.000000
_cell_volume 2325.139622
_symmetry_space_group_name_H-M "C 2/C"
_symmetry_group_IT_number 15
_symmetry_cell_setting 'monoclinic'
loop_
_space_group_symop_operation_xyz
x,y,z
-x,y,1/2-z
-x,-y,-z
x,-y,1/2+z
1/2+x,1/2+y,z
1/2-x,1/2+y,1/2-z
1/2-x,1/2-y,-z
1/2+x,1/2-y,1/2+z
loop_
_atom_site_type_symbol
_atom_site_label
_atom_site_fract_x
_atom_site_fract_y
_atom_site_fract_z
Si Si1 0.326868 0.357024 0.210853
Si Si2 0.969963 0.297612 0.687852
Si Si3 0.406295 0.061859 0.047594
Si Si4 0.162599 0.888150 0.917496
Si Si5 0.434546 0.505886 0.158017
Si Si6 0.000000 0.098854 0.250000
O O1 0.500000 0.364456 0.250000
O O2 0.406135 0.281899 0.179415
O O3 0.393117 0.424750 0.169432
O O4 0.000000 0.356190 0.250000
O O5 0.718348 0.350107 0.700772
O O6 0.000000 0.299978 0.750000
O O7 0.230056 0.326386 0.630767
O O8 0.164489 0.108514 0.044369
O O9 0.659969 0.105484 0.045843
O O10 0.245313 0.025490 0.112717
O O11 0.500000 0.000000 0.000000
O O12 0.221275 0.958413 0.876745
O O13 0.364070 0.548392 0.218886
#
# Coordination Sequence:
#
# PCOD9279151 Si02
#       6
#     8   8   8   8   8   4
#     4  11  25  35  51  82 123 153 177 222 283 339
#     4  11  20  35  52  83 118 150 185 219 280 340
#     4  10  21  37  58  86 107 140 195 246 283 317
#     4  10  21  34  60  81 104 149 189 230 276 326
#     4  10  23  32  60  82 114 148 183 232 277 335
#     4  12  18  36  54  86 114 148 186 226 272 346
#
# _framework density 18.923594000000001
#
# number of rings (size 3 to 8) (size 9 to 14) (size 15 to 20)
#    1.091    0.364    5.455    0.545    5.091    0.000 
#    0.000    0.000    0.000    2.182    0.000    0.000 
#    0.000    0.000    0.000    0.000    0.000    0.000 
#
# Total GULP energy -122559.496459 kJ/mol
# GULP energy per Si atom -5570.886203 kJ/mol
# Density = 1.888052 g / cm^3
# Si number density = 18.923594 Si / 1000 Ang^3
#
#
#
# Elastic Constant Matrix: (Units=GPa)
#
#
# Indices 1 2 3 4 5 6 
#
# 1 116.7241 12.7552 -1.4754 0.0000 0.1408 0.0000
# 2 12.7552 98.3857 3.7126 0.0000 -0.7543 0.0000
# 3 -1.4754 3.7126 3.7514 0.0000 0.3796 0.0000
# 4 0.0000 0.0000 0.0000 3.4499 0.0000 2.9481
# 5 0.1408 -0.7543 0.3796 0.0000 15.4180 0.0000
# 6 0.0000 0.0000 0.0000 2.9481 0.0000 8.6117
#
#
#
# Elastic Compliance Matrix: (Units=1/GPa)
#
#
# Indices 1 2 3 4 5 6 
#
# 1 0.008772 -0.001320 0.004783 0.000000 -0.000262 0.000000
# 2 -0.001320 0.010766 -0.011256 0.000000 0.000816 0.000000
# 3 0.004783 -0.011256 0.280348 0.000000 -0.007497 0.000000
# 4 0.000000 0.000000 0.000000 0.409730 0.000000 -0.140267
# 5 -0.000262 0.000816 -0.007497 0.000000 0.065086 0.000000
# 6 0.000000 0.000000 0.000000 -0.140267 0.000000 0.164140
#
#
# Mechanical properties :
#
#
# Convention : Reuss Voigt Hill
#
# Bulk Modulus (GPa) = 3.51741 27.64952 15.58347
# Shear Modulus (GPa) = 4.76555 19.08718 11.92637
#
# Velocity S-wave (km/s) = 1.58864 3.17936 2.51318
# Velocity P-wave (km/s) = 2.28644 5.30289 4.08341
#
# Compressibility (1/GPa) = 0.28429998
#
# Stress axis : x y z
#
# Youngs Moduli (GPa) = 113.99646 92.88334 3.56699
#
# Poissons Ratio (x) = 0.12258 -0.01706
# Poissons Ratio (y) = 0.15045 0.04015
# Poissons Ratio (z) = -0.54522 1.04553
#
# Static dielectric constant tensor:
#      x y z
#    x 1.728580 0.000000 0.005130 
#    y 0.000000 1.632300 0.000000 
#    z 0.005130 0.000000 1.673920 
# 
# From -- ./inp_files/260627.got.cif
#   From: 2010.05.17/outbox.cif.g08.bks.cpg/sg15_131_cif.got.tgz:260627.got - 2010.06.03 18:47:42.
