data_PCOD9279145
_publ_section_title
;
Structure prediction by ZEFSAII (Michael W. Deem and Ramdas Pophale) SiO2 
 PCOD9279145
Probable space group: C 2/C
;
_chemical_formula_sum "Si O2"
_cell_formula_units_Z 60
_cell_length_a 19.947321
_cell_length_b 5.143123
_cell_length_c 20.656696
_cell_angle_alpha 90.000000
_cell_angle_beta 82.698278
_cell_angle_gamma 90.000000
_cell_volume 2102.016546
_symmetry_space_group_name_H-M "C 2/C"
_symmetry_group_IT_number 15
_symmetry_cell_setting 'monoclinic'
loop_
_space_group_symop_operation_xyz
x,y,z
-x,y,1/2-z
-x,-y,-z
x,-y,1/2+z
1/2+x,1/2+y,z
1/2-x,1/2+y,1/2-z
1/2-x,1/2-y,-z
1/2+x,1/2-y,1/2+z
loop_
_atom_site_type_symbol
_atom_site_label
_atom_site_fract_x
_atom_site_fract_y
_atom_site_fract_z
Si Si1 0.230736 0.054503 0.918878
Si Si2 0.873774 0.331109 0.196112
Si Si3 0.500000 0.973436 0.750000
Si Si4 0.474341 0.568979 0.643468
Si Si5 0.238974 0.054247 0.673167
Si Si6 0.887659 0.126733 0.359343
Si Si7 0.597634 0.834503 0.939736
Si Si8 0.641878 0.117738 0.054247
O O1 0.246707 0.312391 0.875790
O O2 0.154515 0.116877 0.948064
O O3 0.280695 0.974797 0.971027
O O4 0.242155 0.811643 0.869587
O O5 0.796217 0.414443 0.221696
O O6 0.888039 0.504546 0.129026
O O7 0.927151 0.394706 0.246226
O O8 0.901048 0.047834 0.170704
O O9 0.501648 0.785542 0.688253
O O10 0.531078 0.356823 0.649044
O O11 0.468872 0.678331 0.572327
O O12 0.158962 0.998128 0.693094
O O13 0.870410 0.903093 0.415979
O O14 0.868456 0.410916 0.386495
O O15 0.597927 0.031036 0.998803
#
# Coordination Sequence:
#
# PCOD9279145 Si02
#       8
#     8   8   4   8   8   8   8   8
#     4   9  17  34  56  87 121 164 210 248 286 345
#     4  10  21  40  65  89 117 156 208 263 307 366
#     4  10  24  42  68  88 112 148 206 260 322 364
#     4  11  23  41  64  89 119 160 203 260 316 369
#     4   9  18  37  61  87 120 160 201 249 302 360
#     4  10  24  39  61  89 132 169 198 244 309 368
#     4  10  21  34  59  91 124 165 212 249 292 357
#     4  10  22  37  57  90 132 172 204 241 296 364
#
# _framework density 28.544018999999999
#
# number of rings (size 3 to 8) (size 9 to 14) (size 15 to 20)
#    0.000    2.133    1.333    0.800    5.600    1.067 
#    0.000    5.333    5.867    0.000    0.000    0.000 
#    0.000    0.000    0.000    0.000    0.000    0.000 
#
# Total GULP energy -167663.706607 kJ/mol
# GULP energy per Si atom -5588.790220 kJ/mol
# Density = 2.847905 g / cm^3
# Si number density = 28.544019 Si / 1000 Ang^3
#
#
#
# Elastic Constant Matrix: (Units=GPa)
#
#
# Indices 1 2 3 4 5 6 
#
# 1 155.4686 25.7622 42.0831 0.0000 24.6382 0.0000
# 2 25.7622 149.1100 15.5892 0.0000 -7.3336 0.0000
# 3 42.0831 15.5892 103.8048 0.0000 29.1300 0.0000
# 4 0.0000 0.0000 0.0000 33.8188 0.0000 2.4028
# 5 24.6382 -7.3336 29.1300 0.0000 38.6901 0.0000
# 6 0.0000 0.0000 0.0000 2.4028 0.0000 40.7664
#
#
#
# Elastic Compliance Matrix: (Units=1/GPa)
#
#
# Indices 1 2 3 4 5 6 
#
# 1 0.007761 -0.001329 -0.001888 0.000000 -0.003773 0.000000
# 2 -0.001329 0.007256 -0.001489 0.000000 0.003343 0.000000
# 3 -0.001888 -0.001489 0.013141 0.000000 -0.008974 0.000000
# 4 0.000000 0.000000 0.000000 0.029694 0.000000 -0.001750
# 5 -0.003773 0.003343 -0.008974 0.000000 0.035639 0.000000
# 6 0.000000 0.000000 0.000000 -0.001750 0.000000 0.024633
#
#
# Mechanical properties :
#
#
# Convention : Reuss Voigt Hill
#
# Bulk Modulus (GPa) = 53.34517 63.91693 58.63105
# Shear Modulus (GPa) = 37.37334 44.31832 40.84583
#
# Velocity S-wave (km/s) = 3.62238 3.94462 3.78693
# Velocity P-wave (km/s) = 6.01871 6.57174 6.30129
#
# Compressibility (1/GPa) = 0.01874584
#
# Stress axis : x y z
#
# Youngs Moduli (GPa) = 128.84235 137.81368 76.09921
#
# Poissons Ratio (x) = 0.18317 0.14369
# Poissons Ratio (y) = 0.17125 0.11331
# Poissons Ratio (z) = 0.24328 0.20520
#
# Static dielectric constant tensor:
#      x y z
#    x 2.642460 0.000000 -0.069160 
#    y 0.000000 2.227970 0.000000 
#    z -0.069160 0.000000 2.239130 
# 
# From -- ./inp_files/281016.got.cif
#   From: 2010.05.17/outbox.cif.g08.bks.cpg/sg15_141_cif.got.tgz:281016.got - 2010.06.03 18:47:42.
