data_PCOD9279758
_publ_section_title
;
Structure prediction by ZEFSAII (Michael W. Deem and Ramdas Pophale) SiO2 
 PCOD9279758
Probable space group: C 2/C
;
_chemical_formula_sum "Si O2"
_cell_formula_units_Z 40
_cell_length_a 10.239002
_cell_length_b 8.601230
_cell_length_c 26.457709
_cell_angle_alpha 90.000000
_cell_angle_beta 63.392724
_cell_angle_gamma 90.000000
_cell_volume 2083.316440
_symmetry_space_group_name_H-M "C 2/C"
_symmetry_group_IT_number 15
_symmetry_cell_setting 'monoclinic'
loop_
_space_group_symop_operation_xyz
x,y,z
-x,y,1/2-z
-x,-y,-z
x,-y,1/2+z
1/2+x,1/2+y,z
1/2-x,1/2+y,1/2-z
1/2-x,1/2-y,-z
1/2+x,1/2-y,1/2+z
loop_
_atom_site_type_symbol
_atom_site_label
_atom_site_fract_x
_atom_site_fract_y
_atom_site_fract_z
Si Si1 0.593301 0.864623 0.391693
Si Si2 0.318255 0.076261 0.881907
Si Si3 0.098860 0.275358 0.684443
Si Si4 0.378789 0.634155 0.019802
Si Si5 0.965800 0.270656 0.598161
O O1 0.455926 0.828154 0.378957
O O2 0.749245 0.818873 0.340933
O O3 0.586391 0.764991 0.444263
O O4 0.575838 0.048917 0.402988
O O5 0.180672 0.177206 0.890034
O O6 0.363148 0.958381 0.829536
O O7 0.262801 0.960337 0.936482
O O8 0.000000 0.247686 0.750000
O O9 0.012188 0.238725 0.647699
O O10 0.500000 0.500000 0.000000
O O11 0.403707 0.709665 0.960788
#
# Coordination Sequence:
#
# PCOD9279758 Si02
#       5
#     8   8   8   8   8
#     4  10  21  36  58  86 113 146 188 231 278 332
#     4   9  21  39  59  83 112 149 187 228 279 337
#     4  10  23  41  56  77 112 149 189 237 282 326
#     4   9  19  35  57  86 121 150 177 223 282 340
#     4  10  21  36  58  86 113 148 186 226 280 336
#
# _framework density 19.200154000000001
#
# number of rings (size 3 to 8) (size 9 to 14) (size 15 to 20)
#    0.000    2.400    0.000    0.600    0.000   20.000 
#    0.000    1.000    0.000    0.000    0.000    0.000 
#    0.000    0.000    0.000    0.000    0.000    0.000 
#
# Total GULP energy -111528.828267 kJ/mol
# GULP energy per Si atom -5576.441413 kJ/mol
# Density = 1.915645 g / cm^3
# Si number density = 19.200154 Si / 1000 Ang^3
#
#
#
# Elastic Constant Matrix: (Units=GPa)
#
#
# Indices 1 2 3 4 5 6 
#
# 1 143.8971 62.7831 66.5789 0.0000 -5.9405 0.0000
# 2 62.7831 60.0332 53.1948 0.0000 -1.1343 0.0000
# 3 66.5789 53.1948 168.4923 0.0000 -14.0937 0.0000
# 4 0.0000 0.0000 0.0000 13.1040 0.0000 -5.2094
# 5 -5.9405 -1.1343 -14.0937 0.0000 16.6751 0.0000
# 6 0.0000 0.0000 0.0000 -5.2094 0.0000 40.4218
#
#
#
# Elastic Compliance Matrix: (Units=1/GPa)
#
#
# Indices 1 2 3 4 5 6 
#
# 1 0.013087 -0.012875 -0.000850 0.000000 0.003068 0.000000
# 2 -0.012875 0.036180 -0.007008 0.000000 -0.008049 0.000000
# 3 -0.000850 -0.007008 0.009058 0.000000 0.006877 0.000000
# 4 0.000000 0.000000 0.000000 0.080433 0.000000 0.010366
# 5 0.003068 -0.008049 0.006877 0.000000 0.066328 0.000000
# 6 0.000000 0.000000 0.000000 0.010366 0.000000 0.026075
#
#
# Mechanical properties :
#
#
# Convention : Reuss Voigt Hill
#
# Bulk Modulus (GPa) = 59.31455 81.94847 70.63151
# Shear Modulus (GPa) = 17.96959 26.69789 22.33374
#
# Velocity S-wave (km/s) = 3.06258 3.73299 3.41428
# Velocity P-wave (km/s) = 6.59285 7.83289 7.23947
#
# Compressibility (1/GPa) = 0.01685927
#
# Stress axis : x y z
#
# Youngs Moduli (GPa) = 76.41269 27.63921 110.39376
#
# Poissons Ratio (x) = 0.35587 0.09379
# Poissons Ratio (y) = 0.98385 0.77366
# Poissons Ratio (z) = 0.06492 0.19370
#
# Static dielectric constant tensor:
#      x y z
#    x 1.712790 0.000000 -0.022100 
#    y 0.000000 1.677750 0.000000 
#    z -0.022100 0.000000 1.666610 
# 
# From -- ./inp_files/235825.got.cif
#   From: 2010.05.17/outbox.cif.g08.bks.cpg/sg15_118_cif.got.tgz:235825.got - 2010.06.03 18:47:42.
