data_PCOD9279734
_publ_section_title
;
Structure prediction by ZEFSAII (Michael W. Deem and Ramdas Pophale) SiO2 
 PCOD9279734
Probable space group: C 2/C
;
_chemical_formula_sum "Si O2"
_cell_formula_units_Z 52
_cell_length_a 4.956406
_cell_length_b 18.716692
_cell_length_c 25.208059
_cell_angle_alpha 90.000000
_cell_angle_beta 77.842287
_cell_angle_gamma 90.000000
_cell_volume 2286.040650
_symmetry_space_group_name_H-M "C 2/C"
_symmetry_group_IT_number 15
_symmetry_cell_setting 'monoclinic'
loop_
_space_group_symop_operation_xyz
x,y,z
-x,y,1/2-z
-x,-y,-z
x,-y,1/2+z
1/2+x,1/2+y,z
1/2-x,1/2+y,1/2-z
1/2-x,1/2-y,-z
1/2+x,1/2-y,1/2+z
loop_
_atom_site_type_symbol
_atom_site_label
_atom_site_fract_x
_atom_site_fract_y
_atom_site_fract_z
Si Si1 0.165702 0.914487 0.418574
Si Si2 0.126714 0.496435 0.935596
Si Si3 0.659150 0.291925 0.697027
Si Si4 0.561958 0.786290 0.589649
Si Si5 0.645849 0.179415 0.855969
Si Si6 0.139688 0.147001 0.038815
Si Si7 0.500000 0.676506 0.750000
O O1 0.361680 0.860535 0.378451
O O2 0.159133 0.880821 0.477968
O O3 0.362233 0.985265 0.411489
O O4 0.861439 0.943175 0.417277
O O5 0.268025 0.419769 0.928379
O O6 0.000000 0.500000 0.000000
O O7 0.500000 0.335247 0.750000
O O8 0.440925 0.255432 0.666577
O O9 0.898437 0.317372 0.647676
O O10 0.800309 0.227451 0.724105
O O11 0.673709 0.707316 0.601640
O O12 0.829355 0.830165 0.562388
O O13 0.149626 0.709138 0.451001
O O14 0.821896 0.139154 0.803223
#
# Coordination Sequence:
#
# PCOD9279734 Si02
#       7
#     8   8   8   8   8   8   4
#     4  11  23  36  61  84 116 153 196 245 279 347
#     4  10  21  40  58  79 108 156 209 237 267 327
#     4   9  18  37  56  84 114 149 189 230 276 353
#     4  11  21  35  56  86 119 151 182 232 290 352
#     4  10  21  36  57  91 118 145 194 226 311 340
#     4  11  21  37  55  82 118 156 193 234 281 333
#     4   8  18  34  60  78 118 144 186 238 270 358
#
# _framework density 22.746751
#
# number of rings (size 3 to 8) (size 9 to 14) (size 15 to 20)
#    0.000    1.846    1.538    4.615    4.308    1.231 
#    0.000    0.000    0.000    0.000   12.000    0.000 
#    0.000    0.000    0.000    0.000    0.000    0.000 
#
# Total GULP energy -145046.899638 kJ/mol
# GULP energy per Si atom -5578.726909 kJ/mol
# Density = 2.269498 g / cm^3
# Si number density = 22.746751 Si / 1000 Ang^3
#
#
#
# Elastic Constant Matrix: (Units=GPa)
#
#
# Indices 1 2 3 4 5 6 
#
# 1 119.1166 6.3299 28.1073 0.0000 -27.3286 0.0000
# 2 6.3299 54.1706 25.3045 0.0000 -12.1554 0.0000
# 3 28.1073 25.3045 117.2656 0.0000 -39.4154 0.0000
# 4 0.0000 0.0000 0.0000 5.9100 0.0000 -8.4385
# 5 -27.3286 -12.1554 -39.4154 0.0000 49.7329 0.0000
# 6 0.0000 0.0000 0.0000 -8.4385 0.0000 31.3420
#
#
#
# Elastic Compliance Matrix: (Units=1/GPa)
#
#
# Indices 1 2 3 4 5 6 
#
# 1 0.009655 0.000304 -0.000779 0.000000 0.004763 0.000000
# 2 0.000304 0.020694 -0.003793 0.000000 0.002220 0.000000
# 3 -0.000779 -0.003793 0.012373 0.000000 0.008451 0.000000
# 4 0.000000 0.000000 0.000000 0.274871 0.000000 0.074006
# 5 0.004763 0.002220 0.008451 0.000000 0.029965 0.000000
# 6 0.000000 0.000000 0.000000 0.074006 0.000000 0.051831
#
#
# Mechanical properties :
#
#
# Convention : Reuss Voigt Hill
#
# Bulk Modulus (GPa) = 29.24948 45.55957 37.40452
# Shear Modulus (GPa) = 11.92401 32.78440 22.35421
#
# Velocity S-wave (km/s) = 2.29204 3.80054 3.13827
# Velocity P-wave (km/s) = 4.45996 6.27147 5.44162
#
# Compressibility (1/GPa) = 0.03418864
#
# Stress axis : x y z
#
# Youngs Moduli (GPa) = 103.56793 48.32259 80.81812
#
# Poissons Ratio (x) = -0.01471 0.06297
# Poissons Ratio (y) = -0.03153 0.30650
# Poissons Ratio (z) = 0.08070 0.18326
#
# Static dielectric constant tensor:
#      x y z
#    x 1.955440 0.000000 0.000570 
#    y 0.000000 1.958020 0.000000 
#    z 0.000570 0.000000 1.950750 
# 
# From -- ./inp_files/305898.got.cif
#   From: 2010.05.17/outbox.cif.g08.bks.cpg/sg15_153_cif.got.tgz:305898.got - 2010.06.03 18:47:42.
