data_PCOD9279791
_publ_section_title
;
Structure prediction by ZEFSAII (Michael W. Deem and Ramdas Pophale) SiO2 
 PCOD9279791
Probable space group: C 2/C
;
_chemical_formula_sum "Si O2"
_cell_formula_units_Z 40
_cell_length_a 9.703318
_cell_length_b 19.111054
_cell_length_c 13.394554
_cell_angle_alpha 90.000000
_cell_angle_beta 49.341026
_cell_angle_gamma 90.000000
_cell_volume 1884.285092
_symmetry_space_group_name_H-M "C 2/C"
_symmetry_group_IT_number 15
_symmetry_cell_setting 'monoclinic'
loop_
_space_group_symop_operation_xyz
x,y,z
-x,y,1/2-z
-x,-y,-z
x,-y,1/2+z
1/2+x,1/2+y,z
1/2-x,1/2+y,1/2-z
1/2-x,1/2-y,-z
1/2+x,1/2-y,1/2+z
loop_
_atom_site_type_symbol
_atom_site_label
_atom_site_fract_x
_atom_site_fract_y
_atom_site_fract_z
Si Si1 0.286842 0.417148 0.379080
Si Si2 0.293137 0.434400 0.811558
Si Si3 0.698698 0.726954 0.706413
Si Si4 0.218302 0.377562 0.636431
Si Si5 0.716580 0.281849 0.624397
O O1 0.500000 0.418962 0.250000
O O2 0.208287 0.491418 0.381392
O O3 0.210622 0.346558 0.364249
O O4 0.268671 0.406971 0.505633
O O5 0.500000 0.436746 0.750000
O O6 0.289275 0.423093 0.694801
O O7 0.218163 0.362450 0.894551
O O8 0.500000 0.724779 0.750000
O O9 0.786269 0.797681 0.620048
O O10 0.693209 0.738847 0.827423
O O11 0.000000 0.376002 0.750000
O O12 0.500000 0.280932 0.750000
O O13 0.750000 0.250000 0.500000
#
# Coordination Sequence:
#
# PCOD9279791 Si02
#       5
#     8   8   8   8   8
#     4  10  21  36  59  84 108 146 193 228 267 331
#     4   9  21  38  57  81 113 148 183 226 278 330
#     4   9  20  37  60  84 110 147 192 231 273 330
#     4  10  21  37  56  82 115 144 179 234 284 321
#     4  10  22  39  59  84 115 148 184 230 281 331
#
# _framework density 21.228211999999999
#
# number of rings (size 3 to 8) (size 9 to 14) (size 15 to 20)
#    0.000    2.400    0.000    0.600    0.000   20.000 
#    0.000    2.000    0.000    0.000    0.000    0.000 
#    0.000    0.000    0.000    0.000    0.000    0.000 
#
# Total GULP energy -111674.187865 kJ/mol
# GULP energy per Si atom -5583.709393 kJ/mol
# Density = 2.117990 g / cm^3
# Si number density = 21.228212 Si / 1000 Ang^3
#
#
#
# Elastic Constant Matrix: (Units=GPa)
#
#
# Indices 1 2 3 4 5 6 
#
# 1 86.1327 43.4126 46.3748 0.0000 15.7587 0.0000
# 2 43.4126 207.3992 120.9188 0.0000 54.2179 0.0000
# 3 46.3748 120.9188 171.2489 0.0000 30.6869 0.0000
# 4 0.0000 0.0000 0.0000 13.0783 0.0000 16.5040
# 5 15.7587 54.2179 30.6869 0.0000 53.9227 0.0000
# 6 0.0000 0.0000 0.0000 16.5040 0.0000 12.4526
#
#
#
# Elastic Compliance Matrix: (Units=1/GPa)
#
#
# Indices 1 2 3 4 5 6 
#
# 1 0.013868 -0.000784 -0.002914 0.000000 -0.001606 0.000000
# 2 -0.000784 0.010030 -0.005684 0.000000 -0.006622 0.000000
# 3 -0.002914 -0.005684 0.010540 0.000000 0.000568 0.000000
# 4 0.000000 0.000000 0.000000 -0.113700 0.000000 0.150691
# 5 -0.001606 -0.006622 0.000568 0.000000 0.025349 0.000000
# 6 0.000000 0.000000 0.000000 0.150691 0.000000 -0.119412
#
#
# Mechanical properties :
#
#
# Convention : Reuss Voigt Hill
#
# Bulk Modulus (GPa) = 63.79559 98.46592 81.13075
# Shear Modulus (GPa) = -33.48154 32.82903 -0.32625
#
# Velocity S-wave (km/s) = -3.97573 3.93680 -0.39246
# Velocity P-wave (km/s) = 3.00704 8.19449 6.17219
#
# Compressibility (1/GPa) = 0.01567507
#
# Stress axis : x y z
#
# Youngs Moduli (GPa) = 72.10855 99.69644 94.87658
#
# Poissons Ratio (x) = 0.07815 0.27648
# Poissons Ratio (y) = 0.05653 0.53924
# Poissons Ratio (z) = 0.21013 0.56664
#
# Static dielectric constant tensor:
#      x y z
#    x 1.646070 0.000000 0.237250 
#    y 0.000000 1.840800 0.000000 
#    z 0.237250 0.000000 1.124190 
# 
# From -- ./inp_files/77634.got.cif
#   From: 2010.05.17/outbox.cif.g08.bks.cpg/sg15_39_cif.got.tgz:77634.got - 2010.06.03 18:47:42.
