data_PCOD9279975
_publ_section_title
;
Structure prediction by ZEFSAII (Michael W. Deem and Ramdas Pophale) SiO2 
 PCOD9279975
Probable space group: C 2/C
;
_chemical_formula_sum "Si O2"
_cell_formula_units_Z 64
_cell_length_a 21.485363
_cell_length_b 9.430871
_cell_length_c 19.421134
_cell_angle_alpha 90.000000
_cell_angle_beta 63.506544
_cell_angle_gamma 90.000000
_cell_volume 3521.964674
_symmetry_space_group_name_H-M "C 2/C"
_symmetry_group_IT_number 15
_symmetry_cell_setting 'monoclinic'
loop_
_space_group_symop_operation_xyz
x,y,z
-x,y,1/2-z
-x,-y,-z
x,-y,1/2+z
1/2+x,1/2+y,z
1/2-x,1/2+y,1/2-z
1/2-x,1/2-y,-z
1/2+x,1/2-y,1/2+z
loop_
_atom_site_type_symbol
_atom_site_label
_atom_site_fract_x
_atom_site_fract_y
_atom_site_fract_z
Si Si1 0.930009 0.612010 0.106597
Si Si2 0.412981 0.025165 0.466502
Si Si3 0.316686 0.932375 0.242665
Si Si4 0.311955 0.371756 0.668648
Si Si5 0.929457 0.073329 0.562060
Si Si6 0.315772 0.293797 0.511673
Si Si7 0.324966 0.858294 0.397551
Si Si8 0.834998 0.906184 0.976743
O O1 0.874028 0.538811 0.183574
O O2 0.936282 0.782553 0.102418
O O3 0.005954 0.550992 0.086118
O O4 0.909146 0.560836 0.039857
O O5 0.372279 0.172699 0.494857
O O6 0.374417 0.947514 0.423300
O O7 0.315218 0.779731 0.205035
O O8 0.331548 0.898211 0.315114
O O9 0.243897 0.017969 0.273145
O O10 0.385003 0.454771 0.624710
O O11 0.291439 0.340743 0.599502
O O12 0.884932 0.121955 0.516923
O O13 0.000000 0.000000 0.500000
O O14 0.250000 0.250000 0.500000
O O15 0.347239 0.428929 0.457118
O O16 0.244839 0.885430 0.459208
O O17 0.343195 0.696257 0.408030
#
# Coordination Sequence:
#
# PCOD9279975 Si02
#       8
#     8   8   8   8   8   8   8   8
#     4  11  24  39  66  94 129 169 213 277 329 391
#     4  11  22  41  64  95 120 168 226 263 319 385
#     4  12  24  40  63  95 140 171 210 268 344 401
#     4  11  24  39  59  96 129 170 210 265 328 396
#     4  11  22  42  67  92 126 165 226 275 318 385
#     4  11  19  37  61  91 122 159 216 270 306 366
#     4  11  22  39  62  92 130 169 211 264 321 392
#     4  10  21  36  62  91 121 164 217 261 313 373
#
# _framework density 18.171676000000001
#
# number of rings (size 3 to 8) (size 9 to 14) (size 15 to 20)
#    0.000    1.000    6.250    2.250    1.750    1.500 
#    0.000    1.250    0.000    1.500    0.000    0.000 
#    0.000    0.000    0.000    0.000    0.000    0.000 
#
# Total GULP energy -178548.119019 kJ/mol
# GULP energy per Si atom -5579.628719 kJ/mol
# Density = 1.813032 g / cm^3
# Si number density = 18.171676 Si / 1000 Ang^3
#
#
#
# Elastic Constant Matrix: (Units=GPa)
#
#
# Indices 1 2 3 4 5 6 
#
# 1 98.8417 45.6612 46.9144 0.0000 -5.8802 0.0000
# 2 45.6612 149.1275 64.5811 0.0000 -12.1088 0.0002
# 3 46.9144 64.5811 100.9208 0.0000 -16.8416 0.0000
# 4 0.0000 0.0000 0.0000 34.4696 0.0000 8.6517
# 5 -5.8802 -12.1088 -16.8416 0.0000 29.3912 0.0000
# 6 0.0000 0.0002 0.0000 8.6517 0.0000 22.3689
#
#
#
# Elastic Compliance Matrix: (Units=1/GPa)
#
#
# Indices 1 2 3 4 5 6 
#
# 1 0.013406 -0.001958 -0.005159 0.000000 -0.001081 0.000000
# 2 -0.001958 0.009568 -0.005109 0.000000 0.000623 0.000000
# 3 -0.005159 -0.005109 0.016644 0.000000 0.006401 0.000000
# 4 0.000000 0.000000 0.000000 0.032130 0.000000 -0.012427
# 5 -0.001081 0.000623 0.006401 0.000000 0.037732 0.000000
# 6 0.000000 0.000000 0.000000 -0.012427 0.000000 0.049512
#
#
# Mechanical properties :
#
#
# Convention : Reuss Voigt Hill
#
# Bulk Modulus (GPa) = 65.93518 73.68927 69.81222
# Shear Modulus (GPa) = 26.52513 30.02815 28.27664
#
# Velocity S-wave (km/s) = 3.82474 4.06947 3.94900
# Velocity P-wave (km/s) = 7.47451 7.91963 7.70028
#
# Compressibility (1/GPa) = 0.01516641
#
# Stress axis : x y z
#
# Youngs Moduli (GPa) = 74.59119 104.51308 60.08043
#
# Poissons Ratio (x) = 0.20467 0.30998
# Poissons Ratio (y) = 0.14608 0.30692
# Poissons Ratio (z) = 0.38484 0.53391
#
# Static dielectric constant tensor:
#      x y z
#    x 1.624840 0.000000 -0.005570 
#    y 0.000000 1.699120 0.000000 
#    z -0.005570 0.000000 1.603330 
# 
# From -- ./inp_files/251879.got.cif
#   From: 2010.05.17/outbox.cif.g08.bks.cpg/sg15_126_cif.got.tgz:251879.got - 2010.06.03 18:47:42.
