data_PCOD9279957
_publ_section_title
;
Structure prediction by ZEFSAII (Michael W. Deem and Ramdas Pophale) SiO2 
 PCOD9279957
Probable space group: C 2/C
;
_chemical_formula_sum "Si O2"
_cell_formula_units_Z 48
_cell_length_a 10.327776
_cell_length_b 17.650073
_cell_length_c 12.554471
_cell_angle_alpha 90.000000
_cell_angle_beta 71.636492
_cell_angle_gamma 90.000000
_cell_volume 2171.966475
_symmetry_space_group_name_H-M "C 2/C"
_symmetry_group_IT_number 15
_symmetry_cell_setting 'monoclinic'
loop_
_space_group_symop_operation_xyz
x,y,z
-x,y,1/2-z
-x,-y,-z
x,-y,1/2+z
1/2+x,1/2+y,z
1/2-x,1/2+y,1/2-z
1/2-x,1/2-y,-z
1/2+x,1/2-y,1/2+z
loop_
_atom_site_type_symbol
_atom_site_label
_atom_site_fract_x
_atom_site_fract_y
_atom_site_fract_z
Si Si1 0.666434 0.721641 0.804967
Si Si2 0.265311 0.109821 0.197424
Si Si3 0.867113 0.198198 0.919896
Si Si4 0.162004 0.939055 0.929813
Si Si5 0.749355 0.096644 0.553034
Si Si6 0.541051 0.022133 0.108512
O O1 0.735674 0.802320 0.770572
O O2 0.509695 0.742078 0.871934
O O3 0.671981 0.677027 0.691433
O O4 0.722923 0.670504 0.885396
O O5 0.155042 0.072514 0.304817
O O6 0.406515 0.063968 0.185743
O O7 0.251201 0.109009 0.073648
O O8 0.750000 0.250000 0.000000
O O9 0.903405 0.125963 0.982727
O O10 0.323400 0.926493 0.922583
O O11 0.143426 0.027453 0.959228
O O12 0.608019 0.057343 0.630450
O O13 0.500000 0.000000 0.000000
#
# Coordination Sequence:
#
# PCOD9279957 Si02
#       6
#     8   8   8   8   8   8
#     4  11  24  40  66  90 129 168 211 264 328 378
#     4  11  19  39  64  91 129 170 206 264 321 378
#     4  11  23  41  62  93 121 170 214 262 315 392
#     4  10  21  36  62  86 125 160 215 255 314 377
#     4   9  23  37  62  93 128 162 210 264 322 378
#     4   8  18  34  59  92 121 161 203 258 308 370
#
# _framework density 22.099789000000001
#
# number of rings (size 3 to 8) (size 9 to 14) (size 15 to 20)
#    1.000    1.000    1.667    2.000    4.667    0.667 
#    0.000    0.833    0.000    0.000    0.000    0.000 
#    0.000    0.000    0.000    0.000    0.000    0.000 
#
# Total GULP energy -133684.934673 kJ/mol
# GULP energy per Si atom -5570.205611 kJ/mol
# Density = 2.204949 g / cm^3
# Si number density = 22.099789 Si / 1000 Ang^3
#
#
#
# Elastic Constant Matrix: (Units=GPa)
#
#
# Indices 1 2 3 4 5 6 
#
# 1 40.4356 10.7693 14.6891 0.0000 11.4913 0.0000
# 2 10.7693 75.1782 20.0416 0.0000 7.7956 0.0000
# 3 14.6891 20.0416 93.0361 0.0000 17.3152 0.0000
# 4 0.0000 0.0000 0.0000 27.8564 0.0000 4.1655
# 5 11.4913 7.7956 17.3152 0.0000 24.5462 0.0000
# 6 0.0000 0.0000 0.0000 4.1655 0.0000 31.1648
#
#
#
# Elastic Compliance Matrix: (Units=1/GPa)
#
#
# Indices 1 2 3 4 5 6 
#
# 1 0.029397 -0.002490 -0.001946 0.000000 -0.011598 0.000000
# 2 -0.002490 0.014479 -0.002402 0.000000 -0.001738 0.000000
# 3 -0.001946 -0.002402 0.012964 0.000000 -0.007471 0.000000
# 4 0.000000 0.000000 0.000000 0.036630 0.000000 -0.004896
# 5 -0.011598 -0.001738 -0.007471 0.000000 0.051991 0.000000
# 6 0.000000 0.000000 0.000000 -0.004896 0.000000 0.032742
#
#
# Mechanical properties :
#
#
# Convention : Reuss Voigt Hill
#
# Bulk Modulus (GPa) = 23.16810 33.29443 28.23127
# Shear Modulus (GPa) = 24.24033 27.59015 25.91524
#
# Velocity S-wave (km/s) = 3.31548 3.53715 3.42811
# Velocity P-wave (km/s) = 5.01624 5.63739 5.33586
#
# Compressibility (1/GPa) = 0.04316279
#
# Stress axis : x y z
#
# Youngs Moduli (GPa) = 34.01714 69.06519 77.13821
#
# Poissons Ratio (x) = 0.17194 0.15015
# Poissons Ratio (y) = 0.08469 0.18532
# Poissons Ratio (z) = 0.06621 0.16593
#
# Static dielectric constant tensor:
#      x y z
#    x 1.702620 0.000000 -0.017870 
#    y 0.000000 1.773690 0.000000 
#    z -0.017870 0.000000 1.850300 
# 
# From -- ./inp_files/87808.got.cif
#   From: 2010.05.17/outbox.cif.g08.bks.cpg/sg15_44_cif.got.tgz:87808.got - 2010.06.03 18:47:42.
