data_PCOD9279988
_publ_section_title
;
Structure prediction by ZEFSAII (Michael W. Deem and Ramdas Pophale) SiO2 
 PCOD9279988
Probable space group: C 2/C
;
_chemical_formula_sum "Si O2"
_cell_formula_units_Z 56
_cell_length_a 9.241635
_cell_length_b 28.316701
_cell_length_c 20.399091
_cell_angle_alpha 90.000000
_cell_angle_beta 32.251974
_cell_angle_gamma 90.000000
_cell_volume 2848.745361
_symmetry_space_group_name_H-M "C 2/C"
_symmetry_group_IT_number 15
_symmetry_cell_setting 'monoclinic'
loop_
_space_group_symop_operation_xyz
x,y,z
-x,y,1/2-z
-x,-y,-z
x,-y,1/2+z
1/2+x,1/2+y,z
1/2-x,1/2+y,1/2-z
1/2-x,1/2-y,-z
1/2+x,1/2-y,1/2+z
loop_
_atom_site_type_symbol
_atom_site_label
_atom_site_fract_x
_atom_site_fract_y
_atom_site_fract_z
Si Si1 0.688809 0.007133 0.860791
Si Si2 0.145099 0.859851 0.042584
Si Si3 0.812243 0.355582 0.495335
Si Si4 0.289180 0.098710 0.133176
Si Si5 0.688464 0.322907 0.887522
Si Si6 0.755824 0.713340 0.605668
Si Si7 0.115084 0.416516 0.278837
O O1 0.730406 0.952302 0.826370
O O2 0.000000 0.025636 0.750000
O O3 0.585757 0.038732 0.839327
O O4 0.500000 0.000000 0.000000
O O5 0.157635 0.809372 0.074932
O O6 0.923152 0.896287 0.155747
O O7 0.447988 0.878308 0.937278
O O8 0.098870 0.853275 0.983972
O O9 0.823025 0.399564 0.541637
O O10 0.516999 0.335476 0.591941
O O11 0.993007 0.316204 0.461923
O O12 0.952320 0.373777 0.375614
O O13 0.000000 0.124380 0.250000
O O14 0.675936 0.268363 0.915086
O O15 0.000000 0.332613 0.750000
O O16 0.500000 0.704704 0.750000
O O17 0.000000 0.426024 0.250000
#
# Coordination Sequence:
#
# PCOD9279988 Si02
#       7
#     8   8   8   8   8   8   8
#     4  11  23  42  69  98 126 167 222 271 323 396
#     4  11  22  40  65  92 126 171 213 260 319 390
#     4  11  21  39  64  88 127 166 215 258 319 384
#     4  10  22  40  64  92 121 161 211 263 318 384
#     4  11  23  39  59  93 132 169 210 264 327 380
#     4  10  21  36  62  93 126 166 217 267 311 376
#     4  12  24  41  65  96 129 167 214 272 330 379
#
# _framework density 19.657776999999999
#
# number of rings (size 3 to 8) (size 9 to 14) (size 15 to 20)
#    0.000    1.143    4.286    2.571    2.000    0.000 
#    0.000    6.429    3.143    0.000    0.000    0.000 
#    0.000    0.000    0.000    0.000    0.000    0.000 
#
# Total GULP energy -155956.108533 kJ/mol
# GULP energy per Si atom -5569.861019 kJ/mol
# Density = 1.961304 g / cm^3
# Si number density = 19.657777 Si / 1000 Ang^3
#
#
#
# Elastic Constant Matrix: (Units=GPa)
#
#
# Indices 1 2 3 4 5 6 
#
# 1 99.1363 5.2504 33.0799 -0.0010 -1.8311 0.0001
# 2 5.2504 33.2183 16.5313 -0.0007 2.4746 0.0002
# 3 33.0799 16.5313 91.4631 -0.0042 -11.5347 0.0009
# 4 -0.0010 -0.0007 -0.0042 13.0599 0.0015 6.0687
# 5 -1.8311 2.4746 -11.5347 0.0015 37.2994 -0.0002
# 6 0.0001 0.0002 0.0009 6.0687 -0.0002 24.0158
#
#
#
# Elastic Compliance Matrix: (Units=1/GPa)
#
#
# Indices 1 2 3 4 5 6 
#
# 1 0.011496 0.000398 -0.004331 -0.000001 -0.000801 0.000000
# 2 0.000398 0.033740 -0.006787 0.000000 -0.004318 0.000000
# 3 -0.004331 -0.006787 0.014315 0.000004 0.004664 -0.000001
# 4 -0.000001 0.000000 0.000004 0.086758 -0.000002 -0.021924
# 5 -0.000801 -0.004318 0.004664 -0.000002 0.028500 0.000001
# 6 0.000000 0.000000 -0.000001 -0.021924 0.000001 0.047179
#
#
# Mechanical properties :
#
#
# Convention : Reuss Voigt Hill
#
# Bulk Modulus (GPa) = 26.23869 37.06012 31.64940
# Shear Modulus (GPa) = 19.52124 26.13877 22.83001
#
# Velocity S-wave (km/s) = 3.15470 3.65045 3.41159
# Velocity P-wave (km/s) = 5.16199 6.05486 5.62617
#
# Compressibility (1/GPa) = 0.03811166
#
# Stress axis : x y z
#
# Youngs Moduli (GPa) = 86.98380 29.63833 69.85845
#
# Poissons Ratio (x) = -0.01179 0.30255
# Poissons Ratio (y) = -0.03461 0.47411
# Poissons Ratio (z) = 0.37672 0.20115
#
# Static dielectric constant tensor:
#      x y z
#    x 1.789440 0.000000 -0.151780 
#    y 0.000000 1.710980 0.000000 
#    z -0.151780 0.000000 2.033750 
# 
# From -- ./inp_files/234914.got.cif
#   From: 2010.05.17/outbox.cif.g08.bks.cpg/sg15_118_cif.got.tgz:234914.got - 2010.06.03 18:47:42.
