data_PCOD9279071
_publ_section_title
;
Structure prediction by ZEFSAII (Michael W. Deem and Ramdas Pophale) SiO2 
 PCOD9279071
Probable space group: C 2/C
;
_chemical_formula_sum "Si O2"
_cell_formula_units_Z 60
_cell_length_a 8.573108
_cell_length_b 25.671432
_cell_length_c 23.627876
_cell_angle_alpha 90.000000
_cell_angle_beta 139.147349
_cell_angle_gamma 90.000000
_cell_volume 3401.479172
_symmetry_space_group_name_H-M "C 2/C"
_symmetry_group_IT_number 15
_symmetry_cell_setting 'monoclinic'
loop_
_space_group_symop_operation_xyz
x,y,z
-x,y,1/2-z
-x,-y,-z
x,-y,1/2+z
1/2+x,1/2+y,z
1/2-x,1/2+y,1/2-z
1/2-x,1/2-y,-z
1/2+x,1/2-y,1/2+z
loop_
_atom_site_type_symbol
_atom_site_label
_atom_site_fract_x
_atom_site_fract_y
_atom_site_fract_z
Si Si1 0.089514 0.217532 0.068901
Si Si2 0.500000 0.256862 0.250000
Si Si3 0.772056 0.318947 0.225250
Si Si4 0.137408 0.672498 0.000435
Si Si5 0.048822 0.600202 0.867744
Si Si6 0.543569 0.077819 0.481291
Si Si7 0.240413 0.481260 0.145979
Si Si8 0.532354 0.364645 0.454564
O O1 0.341621 0.221417 0.166756
O O2 0.897979 0.196228 0.061709
O O3 0.079190 0.178488 0.014488
O O4 0.021444 0.276533 0.032984
O O5 0.670914 0.289005 0.252995
O O6 0.555359 0.332396 0.124271
O O7 0.000000 0.296971 0.250000
O O8 0.870491 0.373939 0.274571
O O9 0.105000 0.627417 0.037057
O O10 0.064244 0.642937 0.922498
O O11 0.310602 0.599684 0.913220
O O12 0.944044 0.546844 0.862038
O O13 0.698637 0.053103 0.576573
O O14 0.739923 0.100360 0.493312
O O15 0.365297 0.036592 0.403484
O O16 0.500000 0.481786 0.250000
#
# Coordination Sequence:
#
# PCOD9279071 Si02
#       8
#     8   4   8   8   8   8   8   8
#     4  10  21  36  57  82 115 159 196 227 291 351
#     4  12  22  36  56  86 118 164 198 240 294 354
#     4  10  21  34  55  90 119 144 199 256 291 337
#     4   9  18  36  58  77 112 154 187 229 282 345
#     4   9  18  35  58  83 109 144 186 251 291 332
#     4  10  21  37  58  87 112 149 193 245 292 344
#     4  10  21  37  60  83 111 150 196 234 298 364
#     4  10  21  36  56  87 120 142 195 245 288 348
#
# _framework density 17.639385000000001
#
# number of rings (size 3 to 8) (size 9 to 14) (size 15 to 20)
#    0.000    2.133    1.333    1.600    4.667    2.667 
#    2.400    0.000    0.000    0.000    0.000    0.000 
#    0.000    0.000    0.000    0.000    0.000    0.000 
#
# Total GULP energy -167030.241420 kJ/mol
# GULP energy per Si atom -5567.674714 kJ/mol
# Density = 1.759924 g / cm^3
# Si number density = 17.639385 Si / 1000 Ang^3
#
#
#
# Elastic Constant Matrix: (Units=GPa)
#
#
# Indices 1 2 3 4 5 6 
#
# 1 77.2935 38.2957 17.6421 0.0000 -3.0647 0.0000
# 2 38.2957 86.0031 33.2281 0.0000 11.3867 0.0000
# 3 17.6421 33.2281 56.5324 0.0001 3.5718 -0.0002
# 4 0.0000 0.0000 0.0001 18.9714 0.0000 4.0843
# 5 -3.0647 11.3867 3.5718 0.0000 14.9288 -0.0001
# 6 0.0000 0.0000 -0.0002 4.0843 -0.0001 19.4071
#
#
#
# Elastic Compliance Matrix: (Units=1/GPa)
#
#
# Indices 1 2 3 4 5 6 
#
# 1 0.018121 -0.009139 -0.000973 0.000000 0.010924 0.000000
# 2 -0.009139 0.021109 -0.008549 0.000000 -0.015931 0.000000
# 3 -0.000973 -0.008549 0.022965 0.000000 0.000826 0.000000
# 4 0.000000 0.000000 0.000000 0.055212 0.000000 -0.011620
# 5 0.010924 -0.015931 0.000826 0.000000 0.081181 0.000000
# 6 0.000000 0.000000 0.000000 -0.011620 0.000000 0.053973
#
#
# Mechanical properties :
#
#
# Convention : Reuss Voigt Hill
#
# Bulk Modulus (GPa) = 40.20458 44.24009 42.22233
# Shear Modulus (GPa) = 16.76864 19.37233 18.07048
#
# Velocity S-wave (km/s) = 3.08658 3.31757 3.20416
# Velocity P-wave (km/s) = 5.96193 6.30950 6.13818
#
# Compressibility (1/GPa) = 0.02487279
#
# Stress axis : x y z
#
# Youngs Moduli (GPa) = 55.18429 47.37271 43.54394
#
# Poissons Ratio (x) = 0.43295 0.04239
# Poissons Ratio (y) = 0.50434 0.37225
# Poissons Ratio (z) = 0.05372 0.40498
#
# Static dielectric constant tensor:
#      x y z
#    x 1.649090 0.000000 -0.006740 
#    y 0.000000 1.583700 0.000000 
#    z -0.006740 0.000000 1.614820 
# 
# From -- ./inp_files/138237.got.cif
#   From: 2010.05.17/outbox.cif.g08.bks.cpg/sg15_70_cif.got.tgz:138237.got - 2010.06.03 18:47:42.
