data_PCOD9279427
_publ_section_title
;
Structure prediction by ZEFSAII (Michael W. Deem and Ramdas Pophale) SiO2 
 PCOD9279427
Probable space group: C 2/C
;
_chemical_formula_sum "Si O2"
_cell_formula_units_Z 64
_cell_length_a 19.654559
_cell_length_b 9.282115
_cell_length_c 15.210875
_cell_angle_alpha 90.000000
_cell_angle_beta 89.937474
_cell_angle_gamma 90.000000
_cell_volume 2775.007667
_symmetry_space_group_name_H-M "C 2/C"
_symmetry_group_IT_number 15
_symmetry_cell_setting 'monoclinic'
loop_
_space_group_symop_operation_xyz
x,y,z
-x,y,1/2-z
-x,-y,-z
x,-y,1/2+z
1/2+x,1/2+y,z
1/2-x,1/2+y,1/2-z
1/2-x,1/2-y,-z
1/2+x,1/2-y,1/2+z
loop_
_atom_site_type_symbol
_atom_site_label
_atom_site_fract_x
_atom_site_fract_y
_atom_site_fract_z
Si Si1 0.862469 0.162946 0.582804
Si Si2 0.727128 0.501496 0.774738
Si Si3 0.112498 0.500838 0.447796
Si Si4 0.807898 0.289808 0.164441
Si Si5 0.426880 0.226038 0.773780
Si Si6 0.962929 0.467405 0.872018
Si Si7 0.363556 0.437117 0.896203
Si Si8 0.011608 0.132989 0.648625
O O1 0.819201 0.102190 0.663691
O O2 0.862936 0.337057 0.575459
O O3 0.835566 0.090810 0.492938
O O4 0.941072 0.116274 0.596350
O O5 0.789376 0.598984 0.742466
O O6 0.740602 0.350075 0.826023
O O7 0.690249 0.472278 0.680458
O O8 0.170206 0.385281 0.418874
O O9 0.090080 0.486653 0.548408
O O10 0.038479 0.475845 0.400305
O O11 0.878839 0.223019 0.196223
O O12 0.500000 0.282872 0.750000
O O13 0.399936 0.291324 0.864174
O O14 0.434725 0.057334 0.790791
O O15 0.971227 0.301412 0.851664
O O16 0.424020 0.552756 0.892850
O O17 0.000000 0.091275 0.750000
#
# Coordination Sequence:
#
# PCOD9279427 Si02
#       8
#     8   8   8   8   8   8   8   8
#     4  11  23  42  66  94 138 174 221 275 332 391
#     4  11  26  47  67  96 130 181 226 270 331 399
#     4  10  21  40  62  95 136 172 214 276 327 393
#     4  11  25  43  69  91 131 179 219 276 328 394
#     4  11  21  39  67  97 131 169 221 272 334 395
#     4  10  21  35  60 101 134 167 216 268 335 386
#     4  11  24  42  65  99 136 175 217 272 334 404
#     4  11  22  36  63 100 140 178 210 279 334 388
#
# _framework density 23.062999999999999
#
# number of rings (size 3 to 8) (size 9 to 14) (size 15 to 20)
#    0.000    1.250    3.750    1.875    5.250    1.000 
#    2.250    2.500    0.000    0.000    0.000    0.000 
#    0.000    0.000    0.000    0.000    0.000    0.000 
#
# Total GULP energy -178731.468873 kJ/mol
# GULP energy per Si atom -5585.358402 kJ/mol
# Density = 2.301051 g / cm^3
# Si number density = 23.063000 Si / 1000 Ang^3
#
#
#
# Elastic Constant Matrix: (Units=GPa)
#
#
# Indices 1 2 3 4 5 6 
#
# 1 34.6717 9.1085 9.3765 0.0000 -11.6887 0.0000
# 2 9.1085 90.6097 21.6134 0.0000 -16.8573 0.0000
# 3 9.3765 21.6134 94.3549 0.0000 -9.1786 0.0000
# 4 0.0000 0.0000 0.0000 34.8838 0.0000 -11.2264
# 5 -11.6887 -16.8573 -9.1786 0.0000 27.9032 0.0000
# 6 0.0000 0.0000 0.0000 -11.2264 0.0000 19.1672
#
#
#
# Elastic Compliance Matrix: (Units=1/GPa)
#
#
# Indices 1 2 3 4 5 6 
#
# 1 0.033984 -0.000470 -0.001975 0.000000 0.013302 0.000000
# 2 -0.000470 0.012893 -0.002240 0.000000 0.006856 0.000000
# 3 -0.001975 -0.002240 0.011462 0.000000 0.001590 0.000000
# 4 0.000000 0.000000 0.000000 0.035325 0.000000 0.020690
# 5 0.013302 0.006856 0.001590 0.000000 0.046075 0.000000
# 6 0.000000 0.000000 0.000000 0.020690 0.000000 0.064291
#
#
# Mechanical properties :
#
#
# Convention : Reuss Voigt Hill
#
# Bulk Modulus (GPa) = 20.42119 33.31480 26.86800
# Shear Modulus (GPa) = 21.76516 28.36004 25.06260
#
# Velocity S-wave (km/s) = 3.07535 3.51048 3.30009
# Velocity P-wave (km/s) = 4.63509 5.55948 5.11820
#
# Compressibility (1/GPa) = 0.04896875
#
# Stress axis : x y z
#
# Youngs Moduli (GPa) = 29.42545 77.55960 87.24252
#
# Poissons Ratio (x) = 0.03647 0.17234
# Poissons Ratio (y) = 0.01384 0.19540
# Poissons Ratio (z) = 0.05813 0.17372
#
# Static dielectric constant tensor:
#      x y z
#    x 1.897150 0.000000 -0.003740 
#    y 0.000000 1.898180 0.000000 
#    z -0.003740 0.000000 1.830640 
# 
# From -- ./inp_files/218248.got.cif
#   From: 2010.05.17/outbox.cif.g08.bks.cpg/sg15_110_cif.got.tgz:218248.got - 2010.06.03 18:47:42.
