data_PCOD9279747
_publ_section_title
;
Structure prediction by ZEFSAII (Michael W. Deem and Ramdas Pophale) SiO2 
 PCOD9279747
Probable space group: C 2/C
;
_chemical_formula_sum "Si O2"
_cell_formula_units_Z 56
_cell_length_a 23.230765
_cell_length_b 10.504732
_cell_length_c 13.812743
_cell_angle_alpha 90.000000
_cell_angle_beta 58.759943
_cell_angle_gamma 90.000000
_cell_volume 2882.010057
_symmetry_space_group_name_H-M "C 2/C"
_symmetry_group_IT_number 15
_symmetry_cell_setting 'monoclinic'
loop_
_space_group_symop_operation_xyz
x,y,z
-x,y,1/2-z
-x,-y,-z
x,-y,1/2+z
1/2+x,1/2+y,z
1/2-x,1/2+y,1/2-z
1/2-x,1/2-y,-z
1/2+x,1/2-y,1/2+z
loop_
_atom_site_type_symbol
_atom_site_label
_atom_site_fract_x
_atom_site_fract_y
_atom_site_fract_z
Si Si1 0.239482 0.205302 0.116189
Si Si2 0.157924 0.025629 0.695131
Si Si3 0.564742 0.754864 0.818779
Si Si4 0.265865 0.037958 0.765754
Si Si5 0.876736 0.573170 0.067576
Si Si6 0.585023 0.839678 0.586602
Si Si7 0.704351 0.336631 0.968551
O O1 0.240249 0.332651 0.173925
O O2 0.307345 0.127851 0.083667
O O3 0.170275 0.125719 0.189678
O O4 0.250000 0.250000 0.000000
O O5 0.094599 0.111257 0.783669
O O6 0.219017 0.064207 0.713027
O O7 0.172474 0.062228 0.571459
O O8 0.585420 0.819869 0.902587
O O9 0.593137 0.827658 0.696902
O O10 0.484891 0.770483 0.877355
O O11 0.344154 0.018286 0.676200
O O12 0.239397 0.915932 0.851705
O O13 0.913837 0.483112 0.957290
O O14 0.645762 0.758983 0.487077
O O15 0.750000 0.250000 0.000000
#
# Coordination Sequence:
#
# PCOD9279747 Si02
#       7
#     8   8   8   8   8   8   8
#     4  11  22  36  57  93 124 157 198 260 320 353
#     4  10  21  36  58  83 119 158 195 247 308 366
#     4  10  21  43  60  85 120 167 209 251 303 363
#     4  11  22  35  58  90 121 154 196 259 315 363
#     4  11  23  36  62  88 126 156 207 256 311 363
#     4  10  23  38  64  87 116 167 213 248 295 377
#     4  11  21  37  58  88 119 155 205 253 310 368
#
# _framework density 19.430882
#
# number of rings (size 3 to 8) (size 9 to 14) (size 15 to 20)
#    0.000    1.429    2.857    3.857    8.000    0.000 
#    0.000    0.714    0.000    0.000    0.000    0.000 
#    0.000    0.000    0.000    0.000    0.000    0.000 
#
# Total GULP energy -155870.439898 kJ/mol
# GULP energy per Si atom -5566.801425 kJ/mol
# Density = 1.938666 g / cm^3
# Si number density = 19.430882 Si / 1000 Ang^3
#
#
#
# Elastic Constant Matrix: (Units=GPa)
#
#
# Indices 1 2 3 4 5 6 
#
# 1 74.5646 30.1165 16.4043 0.0000 -3.4017 0.0000
# 2 30.1165 81.6596 23.6646 0.0000 0.0168 0.0000
# 3 16.4043 23.6646 47.9947 0.0000 2.3850 0.0000
# 4 0.0000 0.0000 0.0000 44.1281 0.0000 -0.6185
# 5 -3.4017 0.0168 2.3850 0.0000 29.9933 0.0000
# 6 0.0000 0.0000 0.0000 -0.6185 0.0000 8.6105
#
#
#
# Elastic Compliance Matrix: (Units=1/GPa)
#
#
# Indices 1 2 3 4 5 6 
#
# 1 0.016253 -0.005080 -0.003154 0.000000 0.002097 0.000000
# 2 -0.005080 0.015885 -0.006091 0.000000 -0.000101 0.000000
# 3 -0.003154 -0.006091 0.025033 0.000000 -0.002345 0.000000
# 4 0.000000 0.000000 0.000000 0.022684 0.000000 0.001629
# 5 0.002097 -0.000101 -0.002345 0.000000 0.033765 0.000000
# 6 0.000000 0.000000 0.000000 0.001629 0.000000 0.116254
#
#
# Mechanical properties :
#
#
# Convention : Reuss Voigt Hill
#
# Bulk Modulus (GPa) = 35.06322 38.28775 36.67549
# Shear Modulus (GPa) = 18.65447 25.48195 22.06821
#
# Velocity S-wave (km/s) = 3.10182 3.62528 3.37371
# Velocity P-wave (km/s) = 5.55991 6.10499 5.83881
#
# Compressibility (1/GPa) = 0.02851991
#
# Stress axis : x y z
#
# Youngs Moduli (GPa) = 61.52792 62.95351 39.94659
#
# Poissons Ratio (x) = 0.31983 0.12600
# Poissons Ratio (y) = 0.31259 0.24331
# Poissons Ratio (z) = 0.19408 0.38343
#
# Static dielectric constant tensor:
#      x y z
#    x 1.671970 0.000000 0.030560 
#    y 0.000000 1.740960 0.000000 
#    z 0.030560 0.000000 1.602570 
# 
# From -- ./inp_files/172293.got.cif
#   From: 2010.05.17/outbox.cif.g08.bks.cpg/sg15_87_cif.got.tgz:172293.got - 2010.06.03 18:47:42.
