data_PCOD9279156
_publ_section_title
;
Structure prediction by ZEFSAII (Michael W. Deem and Ramdas Pophale) SiO2 
 PCOD9279156
Probable space group: C 2/C
;
_chemical_formula_sum "Si O2"
_cell_formula_units_Z 56
_cell_length_a 19.598273
_cell_length_b 15.683490
_cell_length_c 23.567231
_cell_angle_alpha 90.000000
_cell_angle_beta 23.050060
_cell_angle_gamma 90.000000
_cell_volume 2836.220060
_symmetry_space_group_name_H-M "C 2/C"
_symmetry_group_IT_number 15
_symmetry_cell_setting 'monoclinic'
loop_
_space_group_symop_operation_xyz
x,y,z
-x,y,1/2-z
-x,-y,-z
x,-y,1/2+z
1/2+x,1/2+y,z
1/2-x,1/2+y,1/2-z
1/2-x,1/2-y,-z
1/2+x,1/2-y,1/2+z
loop_
_atom_site_type_symbol
_atom_site_label
_atom_site_fract_x
_atom_site_fract_y
_atom_site_fract_z
Si Si1 0.497124 0.062757 0.557079
Si Si2 0.603377 0.248008 0.437824
Si Si3 0.421218 0.646718 0.161123
Si Si4 0.449995 0.322210 0.222092
Si Si5 0.879188 0.986113 0.787354
Si Si6 0.697699 0.466997 0.846507
Si Si7 0.160221 0.817765 0.951325
O O1 0.502459 0.160019 0.531148
O O2 0.681519 0.045369 0.447239
O O3 0.500000 0.000000 0.500000
O O4 0.337355 0.037024 0.720204
O O5 0.582507 0.313410 0.505353
O O6 0.801047 0.221073 0.277618
O O7 0.510473 0.291291 0.454783
O O8 0.458007 0.575588 0.179254
O O9 0.301219 0.602444 0.204953
O O10 0.500000 0.318302 0.250000
O O11 0.373896 0.416645 0.269880
O O12 0.308319 0.249221 0.321498
O O13 0.607981 0.312148 0.057040
O O14 0.000000 0.983025 0.750000
O O15 0.500000 0.500000 0.000000
O O16 0.722910 0.411681 0.884066
#
# Coordination Sequence:
#
# PCOD9279156 Si02
#       7
#     8   8   8   8   8   8   8
#     4  11  21  38  63  91 123 162 206 255 316 370
#     4  10  21  34  60  90 122 150 200 258 316 362
#     4  10  21  38  56  93 117 159 196 259 309 371
#     4  11  24  40  60  84 123 167 208 251 310 381
#     4  10  22  41  65  85 122 165 210 249 317 380
#     4  11  23  36  61  94 126 157 204 261 310 363
#     4  11  23  36  60  91 121 160 204 257 312 370
#
# _framework density 19.744589000000001
#
# number of rings (size 3 to 8) (size 9 to 14) (size 15 to 20)
#    0.000    1.429    2.857    3.857    8.000    0.000 
#    0.000    2.857    0.000    0.000    0.000    0.000 
#    0.000    0.000    0.000    0.000    0.000    0.000 
#
# Total GULP energy -156361.872090 kJ/mol
# GULP energy per Si atom -5584.352575 kJ/mol
# Density = 1.969965 g / cm^3
# Si number density = 19.744589 Si / 1000 Ang^3
#
#
#
# Elastic Constant Matrix: (Units=GPa)
#
#
# Indices 1 2 3 4 5 6 
#
# 1 53.7634 9.0747 25.5034 -0.0029 9.4193 0.0010
# 2 9.0747 47.8737 14.9070 0.0123 9.9577 -0.0071
# 3 25.5034 14.9070 96.5397 0.0040 21.2939 -0.0040
# 4 -0.0029 0.0123 0.0040 38.5896 -0.0012 10.1400
# 5 9.4193 9.9577 21.2939 -0.0012 28.9894 -0.0003
# 6 0.0010 -0.0071 -0.0040 10.1400 -0.0003 26.6141
#
#
#
# Elastic Compliance Matrix: (Units=1/GPa)
#
#
# Indices 1 2 3 4 5 6 
#
# 1 0.021715 -0.002033 -0.004798 0.000004 -0.002833 -0.000004
# 2 -0.002033 0.023052 -0.001697 -0.000010 -0.006012 0.000010
# 3 -0.004798 -0.001697 0.013623 -0.000002 -0.007865 0.000002
# 4 0.000004 -0.000010 -0.000002 0.028797 0.000005 -0.010972
# 5 -0.002833 -0.006012 -0.007865 0.000005 0.043258 -0.000004
# 6 -0.000004 0.000010 0.000002 -0.010972 -0.000004 0.041754
#
#
# Mechanical properties :
#
#
# Convention : Reuss Voigt Hill
#
# Bulk Modulus (GPa) = 24.19212 33.01634 28.60423
# Shear Modulus (GPa) = 24.62659 28.75138 26.68899
#
# Velocity S-wave (km/s) = 3.53548 3.82011 3.68055
# Velocity P-wave (km/s) = 5.38009 6.01795 5.70793
#
# Compressibility (1/GPa) = 0.04133578
#
# Stress axis : x y z
#
# Youngs Moduli (GPa) = 46.05006 43.37954 73.40740
#
# Poissons Ratio (x) = 0.08819 0.35220
# Poissons Ratio (y) = 0.09362 0.12454
# Poissons Ratio (z) = 0.22094 0.07359
#
# Static dielectric constant tensor:
#      x y z
#    x 1.693100 -0.000010 0.025530 
#    y -0.000010 1.733960 0.000000 
#    z 0.025530 0.000000 1.725740 
# 
# From -- ./inp_files/249236.got.cif
#   From: 2010.05.17/outbox.cif.g08.bks.cpg/sg15_125_cif.got.tgz:249236.got - 2010.06.03 18:47:42.
