data_PCOD9279399
_publ_section_title
;
Structure prediction by ZEFSAII (Michael W. Deem and Ramdas Pophale) SiO2 
 PCOD9279399
Probable space group: C 2/C
;
_chemical_formula_sum "Si O2"
_cell_formula_units_Z 64
_cell_length_a 7.486674
_cell_length_b 31.920468
_cell_length_c 13.724122
_cell_angle_alpha 90.000000
_cell_angle_beta 57.907101
_cell_angle_gamma 90.000000
_cell_volume 2778.576911
_symmetry_space_group_name_H-M "C 2/C"
_symmetry_group_IT_number 15
_symmetry_cell_setting 'monoclinic'
loop_
_space_group_symop_operation_xyz
x,y,z
-x,y,1/2-z
-x,-y,-z
x,-y,1/2+z
1/2+x,1/2+y,z
1/2-x,1/2+y,1/2-z
1/2-x,1/2-y,-z
1/2+x,1/2-y,1/2+z
loop_
_atom_site_type_symbol
_atom_site_label
_atom_site_fract_x
_atom_site_fract_y
_atom_site_fract_z
Si Si1 0.645592 0.815455 0.288738
Si Si2 0.516092 0.244314 0.517397
Si Si3 0.332689 0.830948 0.639443
Si Si4 0.440023 0.667752 0.102201
Si Si5 0.424718 0.112896 0.561995
Si Si6 0.081082 0.977097 0.376443
Si Si7 0.652480 0.021166 0.876700
Si Si8 0.467963 0.380880 0.105544
O O1 0.500000 0.794693 0.250000
O O2 0.658406 0.779946 0.366141
O O3 0.508878 0.851901 0.380156
O O4 0.830258 0.842386 0.187561
O O5 0.750000 0.250000 0.500000
O O6 0.551017 0.212949 0.417644
O O7 0.440636 0.291603 0.532513
O O8 0.260553 0.833264 0.770545
O O9 0.460213 0.872167 0.569144
O O10 0.132542 0.830264 0.623454
O O11 0.466158 0.629091 0.023573
O O12 0.449351 0.067388 0.598639
O O13 0.176909 0.117632 0.611246
O O14 0.274748 0.994601 0.252479
O O15 0.872482 0.977588 0.370683
O O16 0.131221 0.927259 0.369650
O O17 0.000000 0.000000 0.500000
O O18 0.500000 0.000000 0.000000
#
# Coordination Sequence:
#
# PCOD9279399 Si02
#       8
#     8   8   8   8   8   8   8   8
#     4  11  21  34  63  91 113 153 208 255 297 360
#     4   9  19  34  56  85 116 153 201 259 311 352
#     4   9  20  37  55  83 119 156 205 260 304 357
#     4  10  21  35  59  86 119 157 208 260 307 366
#     4  10  21  41  60  84 125 161 200 252 307 378
#     4  10  23  43  64  94 132 164 211 261 319 381
#     4  10  22  42  66  92 126 169 205 261 319 381
#     4  11  22  39  63  87 124 165 203 248 320 372
#
# _framework density 23.033373000000001
#
# number of rings (size 3 to 8) (size 9 to 14) (size 15 to 20)
#    0.000    2.000    1.250    2.625    5.250    4.000 
#    0.000    7.500    5.500    0.000    0.000    0.000 
#    0.000    0.000    0.000    0.000    0.000    0.000 
#
# Total GULP energy -178363.755034 kJ/mol
# GULP energy per Si atom -5573.867345 kJ/mol
# Density = 2.298095 g / cm^3
# Si number density = 23.033373 Si / 1000 Ang^3
#
#
#
# Elastic Constant Matrix: (Units=GPa)
#
#
# Indices 1 2 3 4 5 6 
#
# 1 47.5800 -2.2316 8.7063 0.0000 -6.9850 0.0000
# 2 -2.2316 70.0671 58.0005 0.0000 -5.5535 0.0000
# 3 8.7063 58.0005 205.4716 0.0000 -6.3833 0.0000
# 4 0.0000 0.0000 0.0000 45.1866 0.0000 14.0048
# 5 -6.9850 -5.5535 -6.3833 0.0000 27.7035 0.0000
# 6 0.0000 0.0000 0.0000 14.0048 0.0000 43.9465
#
#
#
# Elastic Compliance Matrix: (Units=1/GPa)
#
#
# Indices 1 2 3 4 5 6 
#
# 1 0.022231 0.002343 -0.001425 0.000000 0.005747 0.000000
# 2 0.002343 0.019050 -0.005378 0.000000 0.003170 0.000000
# 3 -0.001425 -0.005378 0.006447 0.000000 0.000048 0.000000
# 4 0.000000 0.000000 0.000000 0.024556 0.000000 -0.007825
# 5 0.005747 0.003170 0.000048 0.000000 0.038192 0.000000
# 6 0.000000 0.000000 0.000000 -0.007825 0.000000 0.025249
#
#
# Mechanical properties :
#
#
# Convention : Reuss Voigt Hill
#
# Bulk Modulus (GPa) = 25.76775 50.22990 37.99883
# Shear Modulus (GPa) = 31.72968 40.61020 36.16994
#
# Velocity S-wave (km/s) = 3.71557 4.20349 3.96703
# Velocity P-wave (km/s) = 5.44230 6.73898 6.12505
#
# Compressibility (1/GPa) = 0.03880820
#
# Stress axis : x y z
#
# Youngs Moduli (GPa) = 44.98127 52.49360 155.11388
#
# Poissons Ratio (x) = -0.12299 0.22101
# Poissons Ratio (y) = -0.10539 0.83423
# Poissons Ratio (z) = 0.06409 0.28232
#
# Static dielectric constant tensor:
#      x y z
#    x 1.927830 0.000000 -0.011930 
#    y 0.000000 1.879030 0.000000 
#    z -0.011930 0.000000 2.003540 
# 
# From -- ./inp_files/139792.got.cif
#   From: 2010.05.17/outbox.cif.g08.bks.cpg/sg15_70_cif.got.tgz:139792.got - 2010.06.03 18:47:42.
