data_PCOD9279373
_publ_section_title
;
Structure prediction by ZEFSAII (Michael W. Deem and Ramdas Pophale) SiO2 
 PCOD9279373
Probable space group: C 2/C
;
_chemical_formula_sum "Si O2"
_cell_formula_units_Z 48
_cell_length_a 18.898823
_cell_length_b 9.060593
_cell_length_c 24.608563
_cell_angle_alpha 90.000000
_cell_angle_beta 149.019009
_cell_angle_gamma 90.000000
_cell_volume 2169.087548
_symmetry_space_group_name_H-M "C 2/C"
_symmetry_group_IT_number 15
_symmetry_cell_setting 'monoclinic'
loop_
_space_group_symop_operation_xyz
x,y,z
-x,y,1/2-z
-x,-y,-z
x,-y,1/2+z
1/2+x,1/2+y,z
1/2-x,1/2+y,1/2-z
1/2-x,1/2-y,-z
1/2+x,1/2-y,1/2+z
loop_
_atom_site_type_symbol
_atom_site_label
_atom_site_fract_x
_atom_site_fract_y
_atom_site_fract_z
Si Si1 0.788198 0.656902 0.972423
Si Si2 0.698315 0.358410 0.123289
Si Si3 0.145947 0.461447 0.620832
Si Si4 0.464515 0.430832 0.058128
Si Si5 0.556823 0.045329 0.182899
Si Si6 0.888099 0.135857 0.740674
O O1 0.657041 0.605843 0.851152
O O2 0.750000 0.750000 0.000000
O O3 0.876078 0.779136 0.996070
O O4 0.896110 0.531439 0.061982
O O5 0.700281 0.182629 0.125865
O O6 0.598260 0.409937 0.107580
O O7 0.852853 0.418018 0.231393
O O8 0.625333 0.435149 0.023878
O O9 0.130186 0.425300 0.673515
O O10 0.244859 0.599067 0.676765
O O11 0.000000 0.500000 0.500000
O O12 0.507900 0.446962 0.149795
O O13 0.572139 0.192966 0.228473
#
# Coordination Sequence:
#
# PCOD9279373 Si02
#       6
#     8   8   8   8   8   8
#     4  11  23  41  63  92 123 166 222 268 305 388
#     4  11  21  36  59  92 136 157 201 267 330 390
#     4  12  21  34  60  96 132 158 203 264 331 393
#     4  10  21  35  58  89 123 165 201 258 329 372
#     4  11  21  38  61  93 122 167 207 264 328 373
#     4  11  21  38  58  91 123 161 216 260 321 373
#
# _framework density 22.129121999999999
#
# number of rings (size 3 to 8) (size 9 to 14) (size 15 to 20)
#    0.000    1.000    8.333    0.000    2.333    4.000 
#    0.000    0.000    0.000    1.000    8.667    0.000 
#    0.000    0.000    0.000    0.000    0.000    0.000 
#
# Total GULP energy -133953.750743 kJ/mol
# GULP energy per Si atom -5581.406281 kJ/mol
# Density = 2.207876 g / cm^3
# Si number density = 22.129122 Si / 1000 Ang^3
#
#
#
# Elastic Constant Matrix: (Units=GPa)
#
#
# Indices 1 2 3 4 5 6 
#
# 1 58.7836 1.9624 28.7900 0.0000 -21.2605 0.0000
# 2 1.9624 41.7318 48.0681 0.0000 -0.4047 0.0000
# 3 28.7900 48.0681 190.1534 0.0001 -28.6109 0.0000
# 4 0.0000 0.0000 0.0001 29.1015 0.0000 5.2539
# 5 -21.2605 -0.4047 -28.6109 0.0000 32.1456 0.0000
# 6 0.0000 0.0000 0.0000 5.2539 0.0000 23.1453
#
#
#
# Elastic Compliance Matrix: (Units=1/GPa)
#
#
# Indices 1 2 3 4 5 6 
#
# 1 0.022685 0.000946 -0.001633 0.000000 0.013562 0.000000
# 2 0.000946 0.035873 -0.010449 0.000000 -0.008223 0.000000
# 3 -0.001633 -0.010449 0.009197 0.000000 0.006974 0.000000
# 4 0.000000 0.000000 0.000000 0.035831 0.000000 -0.008133
# 5 0.013562 -0.008223 0.006974 0.000000 0.046181 0.000000
# 6 0.000000 0.000000 0.000000 -0.008133 0.000000 0.045052
#
#
# Mechanical properties :
#
#
# Convention : Reuss Voigt Hill
#
# Bulk Modulus (GPa) = 21.98626 49.81220 35.89923
# Shear Modulus (GPa) = 21.52839 31.00170 26.26505
#
# Velocity S-wave (km/s) = 3.12244 3.74698 3.44888
# Velocity P-wave (km/s) = 4.79130 6.42483 5.66723
#
# Compressibility (1/GPa) = 0.04548295
#
# Stress axis : x y z
#
# Youngs Moduli (GPa) = 44.08259 27.87578 108.73402
#
# Poissons Ratio (x) = -0.02637 0.17758
# Poissons Ratio (y) = -0.04170 1.13613
# Poissons Ratio (z) = 0.07199 0.29127
#
# Static dielectric constant tensor:
#      x y z
#    x 1.871630 0.000000 -0.000390 
#    y 0.000000 1.783400 0.000000 
#    z -0.000390 0.000000 1.875870 
# 
# From -- ./inp_files/300547.got.cif
#   From: 2010.05.17/outbox.cif.g08.bks.cpg/sg15_151_cif.got.tgz:300547.got - 2010.06.03 18:47:42.
