data_PCOD9279496
_publ_section_title
;
Structure prediction by ZEFSAII (Michael W. Deem and Ramdas Pophale) SiO2 
 PCOD9279496
Probable space group: C 2/C
;
_chemical_formula_sum "Si O2"
_cell_formula_units_Z 44
_cell_length_a 10.965076
_cell_length_b 10.372524
_cell_length_c 19.917902
_cell_angle_alpha 90.000000
_cell_angle_beta 61.360009
_cell_angle_gamma 90.000000
_cell_volume 1988.201391
_symmetry_space_group_name_H-M "C 2/C"
_symmetry_group_IT_number 15
_symmetry_cell_setting 'monoclinic'
loop_
_space_group_symop_operation_xyz
x,y,z
-x,y,1/2-z
-x,-y,-z
x,-y,1/2+z
1/2+x,1/2+y,z
1/2-x,1/2+y,1/2-z
1/2-x,1/2-y,-z
1/2+x,1/2-y,1/2+z
loop_
_atom_site_type_symbol
_atom_site_label
_atom_site_fract_x
_atom_site_fract_y
_atom_site_fract_z
Si Si1 0.583395 0.648272 0.846902
Si Si2 0.067597 0.303726 0.502962
Si Si3 0.997285 0.909997 0.933311
Si Si4 0.876540 0.581056 0.828596
Si Si5 0.819642 0.567786 0.996639
Si Si6 0.500000 0.823335 0.750000
O O1 0.468394 0.718079 0.923437
O O2 0.545991 0.496457 0.858357
O O3 0.733656 0.644071 0.842223
O O4 0.577728 0.729320 0.780912
O O5 0.087668 0.211527 0.433295
O O6 0.920706 0.373449 0.525350
O O7 0.177978 0.414059 0.489499
O O8 0.835931 0.878795 0.963794
O O9 0.000000 0.000000 0.000000
O O10 0.886428 0.591679 0.905862
O O11 0.000000 0.636879 0.750000
O O12 0.891385 0.426596 0.810609
#
# Coordination Sequence:
#
# PCOD9279496 Si02
#       6
#     8   8   8   8   8   4
#     4  11  22  44  61  91 122 164 214 259 320 365
#     4  10  21  36  65  92 125 157 199 267 313 374
#     4  10  21  35  62  92 121 151 204 269 302 368
#     4  10  22  42  62  85 128 173 205 253 314 382
#     4  11  20  39  63  96 124 163 203 255 332 362
#     4  10  24  46  62  82 134 174 206 266 302 394
#
# _framework density 22.130555000000001
#
# number of rings (size 3 to 8) (size 9 to 14) (size 15 to 20)
#    0.545    1.091    5.455    0.545    0.000    4.364 
#   13.091    0.000    0.000    0.000    0.000    0.000 
#    0.000    0.000    0.000    0.000    0.000    0.000 
#
# Total GULP energy -122687.166440 kJ/mol
# GULP energy per Si atom -5576.689384 kJ/mol
# Density = 2.208018 g / cm^3
# Si number density = 22.130555 Si / 1000 Ang^3
#
#
#
# Elastic Constant Matrix: (Units=GPa)
#
#
# Indices 1 2 3 4 5 6 
#
# 1 80.7656 13.0176 12.7924 0.0000 5.0098 0.0000
# 2 13.0176 89.5455 19.0356 0.0000 7.5230 0.0000
# 3 12.7924 19.0356 38.3775 0.0000 1.2686 0.0000
# 4 0.0000 0.0000 0.0000 26.8848 0.0000 6.9388
# 5 5.0098 7.5230 1.2686 0.0000 25.8116 0.0000
# 6 0.0000 0.0000 0.0000 6.9388 0.0000 38.8009
#
#
#
# Elastic Compliance Matrix: (Units=1/GPa)
#
#
# Indices 1 2 3 4 5 6 
#
# 1 0.013279 -0.000924 -0.003898 0.000000 -0.002116 0.000000
# 2 -0.000924 0.012842 -0.005954 0.000000 -0.003271 0.000000
# 3 -0.003898 -0.005954 0.030276 0.000000 0.001004 0.000000
# 4 0.000000 0.000000 0.000000 0.038996 0.000000 -0.006974
# 5 -0.002116 -0.003271 0.001004 0.000000 0.040057 0.000000
# 6 0.000000 0.000000 0.000000 -0.006974 0.000000 0.027020
#
#
# Mechanical properties :
#
#
# Convention : Reuss Voigt Hill
#
# Bulk Modulus (GPa) = 28.69771 33.15332 30.92551
# Shear Modulus (GPa) = 25.55755 29.22234 27.38994
#
# Velocity S-wave (km/s) = 3.40200 3.63774 3.52185
# Velocity P-wave (km/s) = 5.33171 5.71468 5.52651
#
# Compressibility (1/GPa) = 0.03484599
#
# Stress axis : x y z
#
# Youngs Moduli (GPa) = 75.30620 77.86773 33.02924
#
# Poissons Ratio (x) = 0.07195 0.12875
# Poissons Ratio (y) = 0.06958 0.19665
# Poissons Ratio (z) = 0.29355 0.46361
#
# Static dielectric constant tensor:
#      x y z
#    x 1.791840 0.000000 -0.011950 
#    y 0.000000 1.934180 0.000000 
#    z -0.011950 0.000000 1.816430 
# 
# From -- ./inp_files/236470.got.cif
#   From: 2010.05.17/outbox.cif.g08.bks.cpg/sg15_119_cif.got.tgz:236470.got - 2010.06.03 18:47:42.
