data_PCOD9279422
_publ_section_title
;
Structure prediction by ZEFSAII (Michael W. Deem and Ramdas Pophale) SiO2 
 PCOD9279422
Probable space group: C 2/C
;
_chemical_formula_sum "Si O2"
_cell_formula_units_Z 56
_cell_length_a 22.670460
_cell_length_b 5.587627
_cell_length_c 27.007206
_cell_angle_alpha 90.000000
_cell_angle_beta 121.533973
_cell_angle_gamma 90.000000
_cell_volume 2915.917789
_symmetry_space_group_name_H-M "C 2/C"
_symmetry_group_IT_number 15
_symmetry_cell_setting 'monoclinic'
loop_
_space_group_symop_operation_xyz
x,y,z
-x,y,1/2-z
-x,-y,-z
x,-y,1/2+z
1/2+x,1/2+y,z
1/2-x,1/2+y,1/2-z
1/2-x,1/2-y,-z
1/2+x,1/2-y,1/2+z
loop_
_atom_site_type_symbol
_atom_site_label
_atom_site_fract_x
_atom_site_fract_y
_atom_site_fract_z
Si Si1 0.486278 0.269134 0.803194
Si Si2 0.721665 0.062921 0.164231
Si Si3 0.737826 0.696846 0.577460
Si Si4 0.162844 0.353428 0.229687
Si Si5 0.169754 0.317028 0.821628
Si Si6 0.811328 0.935189 0.035785
Si Si7 0.559502 0.235032 0.353074
O O1 0.500000 0.256574 0.750000
O O2 0.405867 0.279857 0.783076
O O3 0.516511 0.520093 0.835502
O O4 0.520636 0.021489 0.839805
O O5 0.694190 0.207757 0.105208
O O6 0.766797 0.223266 0.221919
O O7 0.669219 0.914848 0.174889
O O8 0.778376 0.899332 0.162255
O O9 0.791325 0.512319 0.626886
O O10 0.687266 0.582869 0.514525
O O11 0.785630 0.884544 0.567782
O O12 0.158621 0.587987 0.261750
O O13 0.098058 0.264269 0.816688
O O14 0.878586 0.785925 0.080837
O O15 0.750000 0.750000 0.000000
#
# Coordination Sequence:
#
# PCOD9279422 Si02
#       7
#     8   8   8   8   8   8   8
#     4  12  26  40  60  90 132 176 203 253 317 396
#     4  11  21  38  62  88 126 160 215 270 311 377
#     4  10  21  35  59  95 123 155 204 271 331 367
#     4  11  24  37  61  90 128 171 216 253 321 380
#     4  11  20  38  57  95 122 164 203 261 322 377
#     4  11  21  36  63  92 124 158 208 274 326 364
#     4  12  24  40  62  91 132 163 210 259 317 392
#
# _framework density 19.204931999999999
#
# number of rings (size 3 to 8) (size 9 to 14) (size 15 to 20)
#    0.000    0.857    5.714    2.143    4.000    0.000 
#    0.000    0.000    0.000    1.714    0.000    0.000 
#    0.000    0.000    0.000    0.000    0.000    0.000 
#
# Total GULP energy -156215.330042 kJ/mol
# GULP energy per Si atom -5579.118930 kJ/mol
# Density = 1.916122 g / cm^3
# Si number density = 19.204932 Si / 1000 Ang^3
#
#
#
# Elastic Constant Matrix: (Units=GPa)
#
#
# Indices 1 2 3 4 5 6 
#
# 1 52.5917 -8.5179 7.4535 -0.0003 -16.8956 0.0010
# 2 -8.5179 64.8685 19.2252 -0.0002 -3.6271 0.0031
# 3 7.4535 19.2252 79.5144 0.0000 -15.3615 -0.0004
# 4 -0.0003 -0.0002 0.0000 19.7227 0.0001 14.1625
# 5 -16.8956 -3.6271 -15.3615 0.0001 32.9702 -0.0005
# 6 0.0010 0.0031 -0.0004 14.1625 -0.0005 8.1175
#
#
#
# Elastic Compliance Matrix: (Units=1/GPa)
#
#
# Indices 1 2 3 4 5 6 
#
# 1 0.023709 0.004045 -0.000843 -0.000012 0.012202 0.000017
# 2 0.004045 0.017296 -0.004168 -0.000021 0.002034 0.000029
# 3 -0.000843 -0.004168 0.014826 0.000008 0.006017 -0.000011
# 4 -0.000012 -0.000021 0.000008 -0.200535 0.000002 0.349874
# 5 0.012202 0.002034 0.006017 0.000002 0.039610 -0.000002
# 6 0.000017 0.000029 -0.000011 0.349874 -0.000002 -0.487233
#
#
# Mechanical properties :
#
#
# Convention : Reuss Voigt Hill
#
# Bulk Modulus (GPa) = 18.55333 25.92180 22.23756
# Shear Modulus (GPa) = -8.73471 24.08299 7.67414
#
# Velocity S-wave (km/s) = -2.13495 3.54503 2.00115
# Velocity P-wave (km/s) = 1.89850 5.50301 4.11627
#
# Compressibility (1/GPa) = 0.05389868
#
# Stress axis : x y z
#
# Youngs Moduli (GPa) = 42.17797 57.81666 67.45089
#
# Poissons Ratio (x) = -0.23389 0.05688
# Poissons Ratio (y) = -0.17063 0.28115
# Poissons Ratio (z) = 0.03557 0.24099
#
# Static dielectric constant tensor:
#      x y z
#    x 1.545000 -0.000010 0.022050 
#    y -0.000010 1.779860 0.000000 
#    z 0.022050 0.000000 1.700350 
# 
# From -- ./inp_files/278689.got.cif
#   From: 2010.05.17/outbox.cif.g08.bks.cpg/sg15_140_cif.got.tgz:278689.got - 2010.06.03 18:47:42.
