data_PCOD9279542
_publ_section_title
;
Structure prediction by ZEFSAII (Michael W. Deem and Ramdas Pophale) SiO2 
 PCOD9279542
Probable space group: C 2/C
;
_chemical_formula_sum "Si O2"
_cell_formula_units_Z 36
_cell_length_a 8.990938
_cell_length_b 18.571366
_cell_length_c 14.244152
_cell_angle_alpha 90.000000
_cell_angle_beta 134.695890
_cell_angle_gamma 90.000000
_cell_volume 1690.687631
_symmetry_space_group_name_H-M "C 2/C"
_symmetry_group_IT_number 15
_symmetry_cell_setting 'monoclinic'
loop_
_space_group_symop_operation_xyz
x,y,z
-x,y,1/2-z
-x,-y,-z
x,-y,1/2+z
1/2+x,1/2+y,z
1/2-x,1/2+y,1/2-z
1/2-x,1/2-y,-z
1/2+x,1/2-y,1/2+z
loop_
_atom_site_type_symbol
_atom_site_label
_atom_site_fract_x
_atom_site_fract_y
_atom_site_fract_z
Si Si1 0.730039 0.635510 0.861960
Si Si2 0.065753 0.702432 0.878678
Si Si3 0.358206 0.572695 0.997210
Si Si4 0.500000 0.497216 0.750000
Si Si5 0.217660 0.589140 0.400450
O O1 0.500000 0.669918 0.750000
O O2 0.681772 0.554329 0.799502
O O3 0.886225 0.684647 0.873667
O O4 0.793387 0.618686 0.997690
O O5 0.000000 0.734667 0.750000
O O6 0.250000 0.750000 0.000000
O O7 0.166546 0.625255 0.903835
O O8 0.422171 0.551057 0.131019
O O9 0.559669 0.614285 0.043500
O O10 0.275125 0.496264 0.920932
O O11 0.000000 0.603278 0.250000
#
# Coordination Sequence:
#
# PCOD9279542 Si02
#       5
#     8   8   8   4   8
#     4   9  21  44  65  98 129 170 217 272 339 383
#     4  12  28  45  66  91 133 180 224 269 326 394
#     4  10  22  38  63  99 139 164 219 266 336 389
#     4   8  20  36  72  98 132 168 208 276 336 386
#     4  10  21  35  66 100 130 168 211 274 336 386
#
# _framework density 21.293109999999999
#
# number of rings (size 3 to 8) (size 9 to 14) (size 15 to 20)
#    0.667    1.333    0.000    2.000   10.889    1.778 
#    0.000    5.556    0.000    0.000    0.000    0.000 
#    0.000    0.000    0.000    0.000    0.000    0.000 
#
# Total GULP energy -100303.831449 kJ/mol
# GULP energy per Si atom -5572.435080 kJ/mol
# Density = 2.124465 g / cm^3
# Si number density = 21.293110 Si / 1000 Ang^3
#
#
#
# Elastic Constant Matrix: (Units=GPa)
#
#
# Indices 1 2 3 4 5 6 
#
# 1 128.7579 26.0329 74.7993 0.0000 23.7695 0.0000
# 2 26.0329 23.2205 23.7088 0.0000 1.9559 0.0000
# 3 74.7993 23.7088 178.2098 0.0000 0.3550 0.0000
# 4 0.0000 0.0000 0.0000 28.1410 0.0000 11.4724
# 5 23.7695 1.9559 0.3550 0.0000 33.8704 0.0000
# 6 0.0000 0.0000 0.0000 11.4724 0.0000 -38.0191
#
#
#
# Elastic Compliance Matrix: (Units=1/GPa)
#
#
# Indices 1 2 3 4 5 6 
#
# 1 0.014288 -0.010560 -0.004574 0.000000 -0.009369 0.000000
# 2 -0.010560 0.057907 -0.003280 0.000000 0.004101 0.000000
# 3 -0.004574 -0.003280 0.007961 0.000000 0.003316 0.000000
# 4 0.000000 0.000000 0.000000 0.031643 0.000000 0.009548
# 5 -0.009369 0.004101 0.003316 0.000000 0.035828 0.000000
# 6 0.000000 0.000000 0.000000 0.009548 0.000000 -0.023421
#
#
# Mechanical properties :
#
#
# Convention : Reuss Voigt Hill
#
# Bulk Modulus (GPa) = 23.07875 64.36336 43.72105
# Shear Modulus (GPa) = 28.49405 18.50826 23.50116
#
# Velocity S-wave (km/s) = 3.66209 2.95144 3.32580
# Velocity P-wave (km/s) = 5.36128 6.47361 5.94352
#
# Compressibility (1/GPa) = 0.04332990
#
# Stress axis : x y z
#
# Youngs Moduli (GPa) = 69.98844 17.26895 125.61612
#
# Poissons Ratio (x) = 0.18235 0.57451
# Poissons Ratio (y) = 0.73905 0.41201
# Poissons Ratio (z) = 0.32010 0.05664
#
# Static dielectric constant tensor:
#      x y z
#    x 1.781050 0.000000 0.019780 
#    y 0.000000 1.800310 0.000000 
#    z 0.019780 0.000000 1.765620 
# 
# From -- ./inp_files/136521.got.cif
#   From: 2010.05.17/outbox.cif.g08.bks.cpg/sg15_69_cif.got.tgz:136521.got - 2010.06.03 18:47:42.
