data_PCOD9279346
_publ_section_title
;
Structure prediction by ZEFSAII (Michael W. Deem and Ramdas Pophale) SiO2 
 PCOD9279346
Probable space group: C 2/C
;
_chemical_formula_sum "Si O2"
_cell_formula_units_Z 64
_cell_length_a 19.900010
_cell_length_b 31.423922
_cell_length_c 14.484552
_cell_angle_alpha 90.000000
_cell_angle_beta 159.892158
_cell_angle_gamma 90.000000
_cell_volume 3113.936459
_symmetry_space_group_name_H-M "C 2/C"
_symmetry_group_IT_number 15
_symmetry_cell_setting 'monoclinic'
loop_
_space_group_symop_operation_xyz
x,y,z
-x,y,1/2-z
-x,-y,-z
x,-y,1/2+z
1/2+x,1/2+y,z
1/2-x,1/2+y,1/2-z
1/2-x,1/2-y,-z
1/2+x,1/2-y,1/2+z
loop_
_atom_site_type_symbol
_atom_site_label
_atom_site_fract_x
_atom_site_fract_y
_atom_site_fract_z
Si Si1 0.853619 0.941116 0.136386
Si Si2 0.066061 0.814981 0.627191
Si Si3 0.728139 0.333990 0.021366
Si Si4 0.043889 0.585404 0.703942
Si Si5 0.559806 0.769404 0.437469
Si Si6 0.105034 0.037176 0.291305
Si Si7 0.521197 0.049155 0.058908
Si Si8 0.137879 0.094276 0.652120
O O1 0.829258 0.915674 0.198250
O O2 0.000000 0.921458 0.250000
O O3 0.936117 0.987500 0.273908
O O4 0.661418 0.947974 0.827454
O O5 0.217684 0.832164 0.898168
O O6 0.949785 0.775756 0.523328
O O7 0.923421 0.855539 0.428726
O O8 0.231825 0.792850 0.775711
O O9 0.500000 0.331612 0.750000
O O10 0.819061 0.378681 0.164190
O O11 0.878453 0.297187 0.243395
O O12 0.000000 0.601638 0.750000
O O13 0.903658 0.572420 0.438786
O O14 0.169727 0.544087 0.893663
O O15 0.500000 0.763388 0.250000
O O16 0.000000 0.050917 0.250000
O O17 0.039113 0.067338 0.123181
O O18 0.322661 0.073093 0.836122
O O19 0.500000 0.000000 0.000000
#
# Coordination Sequence:
#
# PCOD9279346 Si02
#       8
#     8   8   8   8   8   8   8   8
#     4  11  26  43  64  92 130 179 231 280 332 393
#     4  11  21  37  60  92 132 169 221 271 350 407
#     4  11  20  35  57  91 134 174 217 262 338 413
#     4  12  24  35  63  95 132 174 219 272 330 399
#     4  10  21  35  57  92 133 174 211 273 346 420
#     4  11  21  42  60  93 131 173 219 269 333 398
#     4  12  25  43  63  93 130 174 227 274 335 399
#     4  12  25  42  69  93 132 183 226 281 334 412
#
# _framework density 20.552764
#
# number of rings (size 3 to 8) (size 9 to 14) (size 15 to 20)
#    0.000    0.750    3.750    6.375    3.500    0.500 
#    0.000    0.000    0.000    0.000    0.000   12.250 
#    0.000    0.000    0.000    0.000    0.000    0.000 
#
# Total GULP energy -178181.018113 kJ/mol
# GULP energy per Si atom -5568.156816 kJ/mol
# Density = 2.050599 g / cm^3
# Si number density = 20.552764 Si / 1000 Ang^3
#
#
#
# Elastic Constant Matrix: (Units=GPa)
#
#
# Indices 1 2 3 4 5 6 
#
# 1 111.0956 71.7510 48.8936 0.0000 -1.4483 -0.0001
# 2 71.7510 139.2546 60.5280 0.0001 0.1757 0.0001
# 3 48.8936 60.5280 78.0364 -0.0001 -9.6960 -0.0006
# 4 0.0000 0.0001 -0.0001 30.3020 -0.0002 -2.9959
# 5 -1.4483 0.1757 -9.6960 -0.0002 36.0032 -0.0003
# 6 -0.0001 0.0001 -0.0006 -2.9959 -0.0003 12.2409
#
#
#
# Elastic Compliance Matrix: (Units=1/GPa)
#
#
# Indices 1 2 3 4 5 6 
#
# 1 0.014713 -0.005327 -0.005183 0.000000 -0.000778 0.000000
# 2 -0.005327 0.012966 -0.006987 0.000000 -0.002159 -0.000001
# 3 -0.005183 -0.006987 0.022203 0.000000 0.005805 0.000001
# 4 0.000000 0.000000 0.000000 0.033819 0.000000 0.008277
# 5 -0.000778 -0.002159 0.005805 0.000000 0.029318 0.000001
# 6 0.000000 -0.000001 0.000001 0.008277 0.000001 0.083719
#
#
# Mechanical properties :
#
#
# Convention : Reuss Voigt Hill
#
# Bulk Modulus (GPa) = 67.17509 76.74799 71.96154
# Shear Modulus (GPa) = 21.12428 25.52348 23.32388
#
# Velocity S-wave (km/s) = 3.20942 3.52781 3.37238
# Velocity P-wave (km/s) = 6.81829 7.34962 7.08893
#
# Compressibility (1/GPa) = 0.01488647
#
# Stress axis : x y z
#
# Youngs Moduli (GPa) = 67.96929 77.12742 45.03891
#
# Poissons Ratio (x) = 0.41084 0.23344
# Poissons Ratio (y) = 0.36206 0.31470
# Poissons Ratio (z) = 0.35230 0.53892
#
# Static dielectric constant tensor:
#      x y z
#    x 1.889640 0.000000 0.093160 
#    y 0.000000 1.784320 0.000000 
#    z 0.093160 0.000000 1.783150 
# 
# From -- ./inp_files/170106.got.cif
#   From: 2010.05.17/outbox.cif.g08.bks.cpg/sg15_86_cif.got.tgz:170106.got - 2010.06.03 18:47:42.
