data_PCOD9279223
_publ_section_title
;
Structure prediction by ZEFSAII (Michael W. Deem and Ramdas Pophale) SiO2 
 PCOD9279223
Probable space group: C 2/C
;
_chemical_formula_sum "Si O2"
_cell_formula_units_Z 56
_cell_length_a 20.420676
_cell_length_b 17.378537
_cell_length_c 10.961501
_cell_angle_alpha 90.000000
_cell_angle_beta 35.831642
_cell_angle_gamma 90.000000
_cell_volume 2277.247086
_symmetry_space_group_name_H-M "C 2/C"
_symmetry_group_IT_number 15
_symmetry_cell_setting 'monoclinic'
loop_
_space_group_symop_operation_xyz
x,y,z
-x,y,1/2-z
-x,-y,-z
x,-y,1/2+z
1/2+x,1/2+y,z
1/2-x,1/2+y,1/2-z
1/2-x,1/2-y,-z
1/2+x,1/2-y,1/2+z
loop_
_atom_site_type_symbol
_atom_site_label
_atom_site_fract_x
_atom_site_fract_y
_atom_site_fract_z
Si Si1 0.429621 0.929159 0.053737
Si Si2 0.687675 0.282886 0.893690
Si Si3 0.150635 0.902487 0.774600
Si Si4 0.387925 0.142390 0.869157
Si Si5 0.337274 0.684564 0.500980
Si Si6 0.144800 0.334380 0.663825
Si Si7 0.705858 0.430510 0.235692
O O1 0.526332 0.876252 0.850534
O O2 0.379045 0.885759 0.245950
O O3 0.321533 0.948338 0.135334
O O4 0.500000 0.000000 0.000000
O O5 0.610189 0.347079 0.945499
O O6 0.724335 0.223515 0.731517
O O7 0.805358 0.308703 0.781232
O O8 0.634235 0.236060 0.085851
O O9 0.283248 0.890837 0.596848
O O10 0.142323 0.866785 0.651400
O O11 0.135823 0.993323 0.810437
O O12 0.500000 0.107157 0.750000
O O13 0.390527 0.234167 0.879116
O O14 0.365642 0.628281 0.571842
O O15 0.242914 0.388917 0.460243
#
# Coordination Sequence:
#
# PCOD9279223 Si02
#       7
#     8   8   8   8   8   8   8
#     4  12  22  34  54  89 136 158 188 234 305 364
#     4   9  19  36  58  76 113 157 204 238 279 345
#     4  11  21  37  61  83 120 154 203 239 298 354
#     4  11  21  36  62  88 118 158 200 243 293 358
#     4  10  22  40  59  85 115 159 207 242 287 361
#     4  10  21  35  52  86 121 154 194 236 291 356
#     4  11  23  36  57  86 123 158 191 247 298 356
#
# _framework density 24.591097000000001
#
# number of rings (size 3 to 8) (size 9 to 14) (size 15 to 20)
#    0.000    1.429    1.429    6.429    4.000    0.000 
#    0.000    0.000    0.000    0.857    0.000    0.000 
#    0.000    0.000    0.000    0.000    0.000    0.000 
#
# Total GULP energy -156179.707350 kJ/mol
# GULP energy per Si atom -5577.846691 kJ/mol
# Density = 2.453513 g / cm^3
# Si number density = 24.591097 Si / 1000 Ang^3
#
#
#
# Elastic Constant Matrix: (Units=GPa)
#
#
# Indices 1 2 3 4 5 6 
#
# 1 62.5675 5.8130 20.3593 0.0000 11.3508 0.0000
# 2 5.8130 127.6054 27.7782 0.0000 24.7289 0.0000
# 3 20.3593 27.7782 65.7976 0.0000 15.6150 0.0000
# 4 0.0000 0.0000 0.0000 14.7979 0.0000 26.3504
# 5 11.3508 24.7289 15.6150 0.0000 35.6773 0.0000
# 6 0.0000 0.0000 0.0000 26.3504 0.0000 15.7890
#
#
#
# Elastic Compliance Matrix: (Units=1/GPa)
#
#
# Indices 1 2 3 4 5 6 
#
# 1 0.018335 0.001125 -0.005110 0.000000 -0.004377 0.000000
# 2 0.001125 0.009540 -0.003037 0.000000 -0.005641 0.000000
# 3 -0.005110 -0.003037 0.019167 0.000000 -0.004658 0.000000
# 4 0.000000 0.000000 0.000000 -0.034272 0.000000 0.057196
# 5 -0.004377 -0.005641 -0.004658 0.000000 0.035370 0.000000
# 6 0.000000 0.000000 0.000000 0.057196 0.000000 -0.032120
#
#
# Mechanical properties :
#
#
# Convention : Reuss Voigt Hill
#
# Bulk Modulus (GPa) = 30.30403 40.43017 35.36710
# Shear Modulus (GPa) = 121.76896 26.72083 74.24490
#
# Velocity S-wave (km/s) = 7.04450 3.29995 5.50067
# Velocity P-wave (km/s) = 8.86096 5.56742 7.39976
#
# Compressibility (1/GPa) = 0.03299891
#
# Stress axis : x y z
#
# Youngs Moduli (GPa) = 54.54086 104.82528 52.17376
#
# Poissons Ratio (x) = -0.11796 0.26659
# Poissons Ratio (y) = -0.06137 0.15845
# Poissons Ratio (z) = 0.27868 0.31834
#
# Static dielectric constant tensor:
#      x y z
#    x 1.561510 0.000000 0.538040 
#    y 0.000000 2.104660 0.000000 
#    z 0.538040 0.000000 1.313660 
# 
# From -- ./inp_files/119206.got.cif
#   From: 2010.05.17/outbox.cif.g08.bks.cpg/sg15_60_cif.got.tgz:119206.got - 2010.06.03 18:47:42.
