data_PCOD9279587
_publ_section_title
;
Structure prediction by ZEFSAII (Michael W. Deem and Ramdas Pophale) SiO2 
 PCOD9279587
Probable space group: C 2/C
;
_chemical_formula_sum "Si O2"
_cell_formula_units_Z 56
_cell_length_a 23.030150
_cell_length_b 12.342114
_cell_length_c 13.251706
_cell_angle_alpha 90.000000
_cell_angle_beta 125.128218
_cell_angle_gamma 90.000000
_cell_volume 3080.636770
_symmetry_space_group_name_H-M "C 2/C"
_symmetry_group_IT_number 15
_symmetry_cell_setting 'monoclinic'
loop_
_space_group_symop_operation_xyz
x,y,z
-x,y,1/2-z
-x,-y,-z
x,-y,1/2+z
1/2+x,1/2+y,z
1/2-x,1/2+y,1/2-z
1/2-x,1/2-y,-z
1/2+x,1/2-y,1/2+z
loop_
_atom_site_type_symbol
_atom_site_label
_atom_site_fract_x
_atom_site_fract_y
_atom_site_fract_z
Si Si1 0.668872 0.000000 0.918872
Si Si2 0.784209 0.120583 0.402857
Si Si3 0.215791 0.879417 0.834438
Si Si4 0.500000 0.315641 0.250000
Si Si5 0.606058 0.500000 0.856058
Si Si6 0.390147 0.814819 0.270917
Si Si7 0.390147 0.185181 0.009377
Si Si8 0.000000 0.184359 0.250000
O O1 0.717594 0.916234 0.903316
O O2 0.623581 0.072016 0.797248
O O3 0.623582 0.927984 0.949914
O O4 0.717594 0.083767 0.031872
O O5 0.769524 0.108137 0.269524
O O6 0.819889 0.238619 0.454813
O O7 0.845899 0.040859 0.504177
O O8 0.154102 0.959142 0.812380
O O9 0.180111 0.761382 0.815034
O O10 0.440961 0.400100 0.230530
O O11 0.542075 0.243992 0.372850
O O12 0.559039 0.400100 0.848607
O O13 0.399753 0.825669 0.399753
O O14 0.457926 0.756008 0.288701
#
# Coordination Sequence:
#
# PCOD9279587 Si02
#       8
#     8   8   8   4   8   8   8   4
#     4  11  20  34  52  76 106 137 166 204 252 305
#     4   9  18  33  54  79 103 130 168 211 254 297
#     4   9  18  33  54  79 103 130 168 211 254 297
#     4   9  18  35  52  76 106 135 170 209 246 294
#     4   8  16  31  56  79 102 132 168 212 254 286
#     4  10  21  36  54  75 101 134 170 210 253 300
#     4  10  21  36  54  75 101 134 170 210 253 300
#     4   9  18  35  52  76 106 135 170 209 246 294
#
# _framework density 18.178059999999999
#
# number of rings (size 3 to 8) (size 9 to 14) (size 15 to 20)
#    0.000    2.571    0.000    1.714    0.000    1.714 
#    0.000   10.000    0.000    1.714    0.000    0.000 
#    0.000    0.000    0.000    0.000    0.000    0.000 
#
# Total GULP energy -155977.630010 kJ/mol
# GULP energy per Si atom -5570.629643 kJ/mol
# Density = 1.813669 g / cm^3
# Si number density = 18.178060 Si / 1000 Ang^3
#
#
#
# Elastic Constant Matrix: (Units=GPa)
#
#
# Indices 1 2 3 4 5 6 
#
# 1 68.0200 46.7098 43.8724 0.0000 -11.8488 0.0000
# 2 46.7098 100.8595 66.6717 0.0000 -14.2127 0.0000
# 3 43.8724 66.6717 106.3416 0.0000 -15.4361 0.0000
# 4 0.0000 0.0000 0.0000 17.9896 0.0000 -18.1066
# 5 -11.8488 -14.2127 -15.4361 0.0000 22.9489 0.0000
# 6 0.0000 0.0000 0.0000 -18.1066 0.0000 -7.4431
#
#
#
# Elastic Compliance Matrix: (Units=1/GPa)
#
#
# Indices 1 2 3 4 5 6 
#
# 1 0.023317 -0.007229 -0.004421 0.000000 0.004588 0.000000
# 2 -0.007229 0.019463 -0.008879 0.000000 0.002349 0.000000
# 3 -0.004421 -0.008879 0.017360 0.000000 0.003895 0.000000
# 4 0.000000 0.000000 0.000000 0.016119 0.000000 -0.039213
# 5 0.004588 0.002349 0.003895 0.000000 0.050019 0.000000
# 6 0.000000 0.000000 0.000000 -0.039213 0.000000 -0.038960
#
#
# Mechanical properties :
#
#
# Convention : Reuss Voigt Hill
#
# Bulk Modulus (GPa) = 52.40924 65.52544 58.96734
# Shear Modulus (GPa) = 37.10918 14.56355 25.83636
#
# Velocity S-wave (km/s) = 4.52312 2.83355 3.77409
# Velocity P-wave (km/s) = 7.49478 6.84325 7.17641
#
# Compressibility (1/GPa) = 0.01908061
#
# Stress axis : x y z
#
# Youngs Moduli (GPa) = 42.88755 51.37886 57.60418
#
# Poissons Ratio (x) = 0.37144 0.25467
# Poissons Ratio (y) = 0.31005 0.51147
# Poissons Ratio (z) = 0.18961 0.45620
#
# Static dielectric constant tensor:
#      x y z
#    x 1.625020 0.000000 0.021880 
#    y 0.000000 1.642180 0.000000 
#    z 0.021880 0.000000 1.594280 
# 
# From -- ./inp_files/111698.got.cif
#   From: 2010.05.17/outbox.cif.g08.bks.cpg/sg15_56_cif.got.tgz:111698.got - 2010.06.03 18:47:42.
