data_PCOD9279624
_publ_section_title
;
Structure prediction by ZEFSAII (Michael W. Deem and Ramdas Pophale) SiO2 
 PCOD9279624
Probable space group: C 2/C
;
_chemical_formula_sum "Si O2"
_cell_formula_units_Z 24
_cell_length_a 25.187662
_cell_length_b 9.717656
_cell_length_c 17.916619
_cell_angle_alpha 90.000000
_cell_angle_beta 165.478460
_cell_angle_gamma 90.000000
_cell_volume 1099.602982
_symmetry_space_group_name_H-M "C 2/C"
_symmetry_group_IT_number 15
_symmetry_cell_setting 'monoclinic'
loop_
_space_group_symop_operation_xyz
x,y,z
-x,y,1/2-z
-x,-y,-z
x,-y,1/2+z
1/2+x,1/2+y,z
1/2-x,1/2+y,1/2-z
1/2-x,1/2-y,-z
1/2+x,1/2-y,1/2+z
loop_
_atom_site_type_symbol
_atom_site_label
_atom_site_fract_x
_atom_site_fract_y
_atom_site_fract_z
Si Si1 0.476638 0.408858 0.395055
Si Si2 0.702012 0.605421 0.472210
Si Si3 0.763591 0.867012 0.889048
O O1 0.500000 0.500000 0.500000
O O2 0.337224 0.501594 0.149646
O O3 0.371752 0.264682 0.273854
O O4 0.684959 0.379592 0.628590
O O5 0.500000 0.634173 0.250000
O O6 0.750000 0.750000 0.500000
O O7 0.832377 0.507471 0.706494
O O8 0.000000 0.848354 0.250000
#
# Coordination Sequence:
#
# PCOD9279624 Si02
#       3
#     8   8   8
#     4  10  21  36  55  82 109 139 182 227 270 315
#     4   9  19  34  53  78 106 140 178 214 262 326
#     4   9  19  38  57  76 108 149 180 215 270 331
#
# _framework density 21.826058
#
# number of rings (size 3 to 8) (size 9 to 14) (size 15 to 20)
#    0.000    3.333    0.000    4.000    0.000    9.333 
#    0.000    3.333    0.000    0.000    0.000    0.000 
#    0.000    0.000    0.000    0.000    0.000    0.000 
#
# Total GULP energy -66827.612952 kJ/mol
# GULP energy per Si atom -5568.967746 kJ/mol
# Density = 2.177638 g / cm^3
# Si number density = 21.826058 Si / 1000 Ang^3
#
#
#
# Elastic Constant Matrix: (Units=GPa)
#
#
# Indices 1 2 3 4 5 6 
#
# 1 216.5684 116.6198 37.6063 0.0000 8.5819 0.0000
# 2 116.6198 260.8670 38.3711 0.0000 32.8605 0.0000
# 3 37.6063 38.3711 34.1326 -0.0001 7.6598 0.0000
# 4 0.0000 0.0000 -0.0001 22.4664 0.0000 18.1699
# 5 8.5819 32.8605 7.6598 0.0000 15.7535 0.0000
# 6 0.0000 0.0000 0.0000 18.1699 0.0000 64.2020
#
#
#
# Elastic Compliance Matrix: (Units=1/GPa)
#
#
# Indices 1 2 3 4 5 6 
#
# 1 0.006949 -0.002928 -0.005484 0.000000 0.004989 0.000000
# 2 -0.002928 0.006921 -0.001877 0.000000 -0.011929 0.000000
# 3 -0.005484 -0.001877 0.040298 0.000000 -0.012691 0.000000
# 4 0.000000 0.000000 0.000000 0.057723 0.000000 -0.016336
# 5 0.004989 -0.011929 -0.012691 0.000000 0.091814 0.000000
# 6 0.000000 0.000000 0.000000 -0.016336 0.000000 0.020199
#
#
# Mechanical properties :
#
#
# Convention : Reuss Voigt Hill
#
# Bulk Modulus (GPa) = 29.77150 99.64027 64.70588
# Shear Modulus (GPa) = 19.55570 41.74909 30.65240
#
# Velocity S-wave (km/s) = 2.99654 4.37831 3.75159
# Velocity P-wave (km/s) = 5.06382 8.44456 6.96250
#
# Compressibility (1/GPa) = 0.03358917
#
# Stress axis : x y z
#
# Youngs Moduli (GPa) = 143.90782 144.48156 24.81525
#
# Poissons Ratio (x) = 0.42309 0.13608
# Poissons Ratio (y) = 0.42141 0.04659
# Poissons Ratio (z) = 0.78916 0.27123
#
# Static dielectric constant tensor:
#      x y z
#    x 1.840800 0.000000 -0.072870 
#    y 0.000000 1.796210 0.000000 
#    z -0.072870 0.000000 1.960670 
# 
# From -- ./inp_files/36008.got.cif
#   From: 2010.05.17/outbox.cif.g08.bks.cpg/sg15_19_cif.got.tgz:36008.got - 2010.06.03 18:47:42.
