data_PCOD9279596
_publ_section_title
;
Structure prediction by ZEFSAII (Michael W. Deem and Ramdas Pophale) SiO2 
 PCOD9279596
Probable space group: C 2/C
;
_chemical_formula_sum "Si O2"
_cell_formula_units_Z 56
_cell_length_a 15.370788
_cell_length_b 29.614271
_cell_length_c 5.250832
_cell_angle_alpha 90.000000
_cell_angle_beta 61.431797
_cell_angle_gamma 90.000000
_cell_volume 2099.146345
_symmetry_space_group_name_H-M "C 2/C"
_symmetry_group_IT_number 15
_symmetry_cell_setting 'monoclinic'
loop_
_space_group_symop_operation_xyz
x,y,z
-x,y,1/2-z
-x,-y,-z
x,-y,1/2+z
1/2+x,1/2+y,z
1/2-x,1/2+y,1/2-z
1/2-x,1/2-y,-z
1/2+x,1/2-y,1/2+z
loop_
_atom_site_type_symbol
_atom_site_label
_atom_site_fract_x
_atom_site_fract_y
_atom_site_fract_z
Si Si1 0.385307 0.346806 0.952844
Si Si2 0.634315 0.981187 0.218428
Si Si3 0.682881 0.750000 0.842313
Si Si4 0.885307 0.346806 0.452843
Si Si5 0.617332 0.387072 0.039757
Si Si6 0.382668 0.887072 0.960243
Si Si7 0.634314 0.518813 0.218430
O O1 0.500000 0.359188 0.750000
O O2 0.344068 0.351280 0.723902
O O3 0.379052 0.296104 0.063487
O O4 0.342280 0.379902 0.231171
O O5 0.629243 0.934444 0.378553
O O6 0.592845 0.016551 0.487528
O O7 0.750000 0.990900 0.999999
O O8 0.750000 0.750000 0.500000
O O9 0.750000 0.750000 0.000000
O O10 0.620948 0.796104 0.936513
O O11 0.842280 0.379902 0.731170
O O12 0.000000 0.359188 0.250000
O O13 0.844068 0.351280 0.223900
O O14 0.500000 0.380318 0.250000
O O15 0.629242 0.434444 0.878554
O O16 0.500000 0.880319 0.750000
O O17 0.592845 0.483449 0.487529
#
# Coordination Sequence:
#
# PCOD9279596 Si02
#       7
#     8   8   8   8   8   8   8
#     4  10  22  41  61  84 118 156 191 234 292 347
#     4  10  21  36  54  80 115 153 189 231 288 343
#     4  12  25  40  61  92 120 148 194 240 285 342
#     4  10  22  41  61  84 118 156 191 234 292 347
#     4  10  21  37  60  86 111 149 198 239 281 338
#     4  10  21  37  60  86 111 149 198 239 281 338
#     4  10  21  36  54  80 115 153 189 231 288 343
#
# _framework density 26.677513000000001
#
# number of rings (size 3 to 8) (size 9 to 14) (size 15 to 20)
#    0.000    1.714    0.000    3.857    0.000    4.571 
#    0.000    5.714    0.000    0.000    0.000    0.000 
#    0.000    0.000    0.000    0.000    0.000    0.000 
#
# Total GULP energy -156711.416043 kJ/mol
# GULP energy per Si atom -5596.836287 kJ/mol
# Density = 2.661679 g / cm^3
# Si number density = 26.677513 Si / 1000 Ang^3
#
#
#
# Elastic Constant Matrix: (Units=GPa)
#
#
# Indices 1 2 3 4 5 6 
#
# 1 74.0017 -26.6409 45.9055 0.0000 25.4739 0.0000
# 2 -26.6409 144.6214 84.0824 0.0000 16.8894 0.0000
# 3 45.9055 84.0824 298.3508 0.0000 31.4002 0.0000
# 4 0.0000 0.0000 0.0000 62.0957 0.0000 1.2395
# 5 25.4739 16.8894 31.4002 0.0000 56.5299 0.0000
# 6 0.0000 0.0000 0.0000 1.2395 0.0000 28.5267
#
#
#
# Elastic Compliance Matrix: (Units=1/GPa)
#
#
# Indices 1 2 3 4 5 6 
#
# 1 0.022881 0.008161 -0.004757 0.000000 -0.010107 0.000000
# 2 0.008161 0.011264 -0.003918 0.000000 -0.004867 0.000000
# 3 -0.004757 -0.003918 0.005139 0.000000 0.000459 0.000000
# 4 0.000000 0.000000 0.000000 0.016118 0.000000 -0.000700
# 5 -0.010107 -0.004867 0.000459 0.000000 0.023443 0.000000
# 6 0.000000 0.000000 0.000000 -0.000700 0.000000 0.035085
#
#
# Mechanical properties :
#
#
# Convention : Reuss Voigt Hill
#
# Bulk Modulus (GPa) = 26.13916 80.40754 53.27335
# Shear Modulus (GPa) = 39.15080 57.00558 48.07819
#
# Velocity S-wave (km/s) = 3.83503 4.62761 4.24984
# Velocity P-wave (km/s) = 5.42489 7.66545 6.64035
#
# Compressibility (1/GPa) = 0.03825677
#
# Stress axis : x y z
#
# Youngs Moduli (GPa) = 43.70437 88.77726 194.57169
#
# Poissons Ratio (x) = -0.72449 0.92553
# Poissons Ratio (y) = -0.35666 0.76233
# Poissons Ratio (z) = 0.20789 0.34783
#
# Static dielectric constant tensor:
#      x y z
#    x 2.246530 0.000000 0.069870 
#    y 0.000000 2.086780 0.000000 
#    z 0.069870 0.000000 2.028160 
# 
# From -- ./inp_files/16426.got.cif
#   From: 2010.05.17/outbox.cif.g08.bks.cpg/sg15_9_cif.got.tgz:16426.got - 2010.06.03 18:47:42.
