data_PCOD9279985
_publ_section_title
;
Structure prediction by ZEFSAII (Michael W. Deem and Ramdas Pophale) SiO2 
 PCOD9279985
Probable space group: C 2/C
;
_chemical_formula_sum "Si O2"
_cell_formula_units_Z 48
_cell_length_a 10.795725
_cell_length_b 12.013640
_cell_length_c 17.308752
_cell_angle_alpha 90.000000
_cell_angle_beta 62.928909
_cell_angle_gamma 90.000000
_cell_volume 1998.932284
_symmetry_space_group_name_H-M "C 2/C"
_symmetry_group_IT_number 15
_symmetry_cell_setting 'monoclinic'
loop_
_space_group_symop_operation_xyz
x,y,z
-x,y,1/2-z
-x,-y,-z
x,-y,1/2+z
1/2+x,1/2+y,z
1/2-x,1/2+y,1/2-z
1/2-x,1/2-y,-z
1/2+x,1/2-y,1/2+z
loop_
_atom_site_type_symbol
_atom_site_label
_atom_site_fract_x
_atom_site_fract_y
_atom_site_fract_z
Si Si1 0.619574 0.521776 0.651734
Si Si2 0.733672 0.197228 0.793836
Si Si3 0.849586 0.604287 0.835676
Si Si4 0.950731 0.804443 0.459535
Si Si5 0.842656 0.349066 0.876673
Si Si6 0.929958 0.205520 0.413165
O O1 0.500000 0.517730 0.750000
O O2 0.748459 0.588652 0.654862
O O3 0.562465 0.595400 0.597109
O O4 0.635398 0.397916 0.614214
O O5 0.750366 0.153360 0.702237
O O6 0.847995 0.281759 0.794809
O O7 0.588791 0.266127 0.839165
O O8 0.827963 0.478157 0.865663
O O9 0.000000 0.605174 0.750000
O O10 0.855063 0.682154 0.908581
O O11 0.954726 0.691818 0.407589
O O12 0.802848 0.807875 0.545929
O O13 0.057225 0.815010 0.499349
#
# Coordination Sequence:
#
# PCOD9279985 Si02
#       6
#     8   8   8   8   8   8
#     4  11  22  37  68  92 118 168 217 260 317 380
#     4   9  21  37  60  92 125 158 206 260 306 372
#     4  10  21  36  62  93 122 167 206 253 321 368
#     4   9  20  39  60  87 123 165 209 253 318 379
#     4   9  19  37  62  84 127 170 197 261 319 369
#     4  10  21  40  63  90 125 167 206 257 324 383
#
# _framework density 24.012820000000001
#
# number of rings (size 3 to 8) (size 9 to 14) (size 15 to 20)
#    0.000    2.333    0.000    3.000    7.000    3.333 
#    0.000    0.833    3.667    0.000    0.000    0.000 
#    0.000    0.000    0.000    0.000    0.000    0.000 
#
# Total GULP energy -134098.273056 kJ/mol
# GULP energy per Si atom -5587.428044 kJ/mol
# Density = 2.395817 g / cm^3
# Si number density = 24.012820 Si / 1000 Ang^3
#
#
#
# Elastic Constant Matrix: (Units=GPa)
#
#
# Indices 1 2 3 4 5 6 
#
# 1 35.4138 -5.8284 -10.7269 0.0000 -1.3388 0.0000
# 2 -5.8284 156.6378 29.0723 0.0000 45.8412 0.0000
# 3 -10.7269 29.0723 91.2824 0.0000 25.9746 0.0000
# 4 0.0000 0.0000 0.0000 10.7691 0.0000 19.0569
# 5 -1.3388 45.8412 25.9746 0.0000 44.0946 0.0000
# 6 0.0000 0.0000 0.0000 19.0569 0.0000 22.7970
#
#
#
# Elastic Compliance Matrix: (Units=1/GPa)
#
#
# Indices 1 2 3 4 5 6 
#
# 1 0.029486 0.001128 0.003826 0.000000 -0.002531 0.000000
# 2 0.001128 0.009224 -0.000104 0.000000 -0.009494 0.000000
# 3 0.003826 -0.000104 0.013664 0.000000 -0.007825 0.000000
# 4 0.000000 0.000000 0.000000 -0.193749 0.000000 0.161963
# 5 -0.002531 -0.009494 -0.007825 0.000000 0.037081 0.000000
# 6 0.000000 0.000000 0.000000 0.161963 0.000000 -0.091526
#
#
# Mechanical properties :
#
#
# Convention : Reuss Voigt Hill
#
# Bulk Modulus (GPa) = 16.10955 34.26310 25.18633
# Shear Modulus (GPa) = -27.05224 33.58661 3.26719
#
# Velocity S-wave (km/s) = -3.36009 3.74397 1.16771
# Velocity P-wave (km/s) = 2.88623 5.74364 3.51134
#
# Compressibility (1/GPa) = 0.06207496
#
# Stress axis : x y z
#
# Youngs Moduli (GPa) = 33.91394 108.41499 73.18317
#
# Poissons Ratio (x) = -0.12227 -0.28000
# Poissons Ratio (y) = -0.03825 0.00758
# Poissons Ratio (z) = -0.12976 0.01123
#
# Static dielectric constant tensor:
#      x y z
#    x 2.017140 0.000000 -0.042650 
#    y 0.000000 1.872900 0.000000 
#    z -0.042650 0.000000 1.963760 
# 
# From -- ./inp_files/196011.got.cif
#   From: 2010.05.17/outbox.cif.g08.bks.cpg/sg15_99_cif.got.tgz:196011.got - 2010.06.03 18:47:42.
