data_PCOD9279505
_publ_section_title
;
Structure prediction by ZEFSAII (Michael W. Deem and Ramdas Pophale) SiO2 
 PCOD9279505
Probable space group: C 2/C
;
_chemical_formula_sum "Si O2"
_cell_formula_units_Z 32
_cell_length_a 20.479027
_cell_length_b 15.478715
_cell_length_c 19.676551
_cell_angle_alpha 90.000000
_cell_angle_beta 14.694839
_cell_angle_gamma 90.000000
_cell_volume 1582.208463
_symmetry_space_group_name_H-M "C 2/C"
_symmetry_group_IT_number 15
_symmetry_cell_setting 'monoclinic'
loop_
_space_group_symop_operation_xyz
x,y,z
-x,y,1/2-z
-x,-y,-z
x,-y,1/2+z
1/2+x,1/2+y,z
1/2-x,1/2+y,1/2-z
1/2-x,1/2-y,-z
1/2+x,1/2-y,1/2+z
loop_
_atom_site_type_symbol
_atom_site_label
_atom_site_fract_x
_atom_site_fract_y
_atom_site_fract_z
Si Si1 0.523384 0.848834 0.881737
Si Si2 0.588916 0.204320 0.858804
Si Si3 0.981829 0.107527 0.687968
Si Si4 0.313348 0.514550 0.623156
O O1 0.446306 0.791936 0.023753
O O2 0.290427 0.860070 0.064668
O O3 0.787425 0.833349 0.574805
O O4 0.587652 0.942720 0.851288
O O5 0.704227 0.110389 0.727593
O O6 0.804200 0.273420 0.619453
O O7 0.000000 0.103082 0.750000
O O8 0.033098 0.015876 0.598938
O O9 0.500000 0.500000 0.500000
#
# Coordination Sequence:
#
# PCOD9279505 Si02
#       4
#     8   8   8   8
#     4  10  21  37  59  81 119 145 199 235 283 333
#     4  12  23  34  56  91 122 149 184 238 297 339
#     4  10  21  35  63  86 110 147 201 242 280 329
#     4  10  21  37  63  86 115 148 200 241 282 334
#
# _framework density 20.224895
#
# number of rings (size 3 to 8) (size 9 to 14) (size 15 to 20)
#    1.500    0.000    2.500    4.500    3.500    0.000 
#    0.000    0.000    0.000   16.500    0.000    0.000 
#    0.000    0.000    0.000    0.000    0.000    0.000 
#
# Total GULP energy -89254.454458 kJ/mol
# GULP energy per Si atom -5578.403404 kJ/mol
# Density = 2.017886 g / cm^3
# Si number density = 20.224895 Si / 1000 Ang^3
#
#
#
# Elastic Constant Matrix: (Units=GPa)
#
#
# Indices 1 2 3 4 5 6 
#
# 1 72.0758 17.8969 29.7824 0.1824 -1.8474 -0.0186
# 2 17.8969 82.4540 38.2582 0.1915 12.5799 -0.0277
# 3 29.7824 38.2582 129.7128 0.4303 -27.1010 -0.0897
# 4 0.1824 0.1915 0.4303 24.8193 -0.0216 9.9349
# 5 -1.8474 12.5799 -27.1010 -0.0216 26.7363 -0.0231
# 6 -0.0186 -0.0277 -0.0897 9.9349 -0.0231 18.8024
#
#
#
# Elastic Compliance Matrix: (Units=1/GPa)
#
#
# Indices 1 2 3 4 5 6 
#
# 1 0.015657 -0.001484 -0.003533 -0.000053 -0.001802 0.000022
# 2 -0.001484 0.019716 -0.009431 0.000028 -0.018939 -0.000055
# 3 -0.003533 -0.009431 0.015452 -0.000234 0.019856 0.000204
# 4 -0.000053 0.000028 -0.000234 0.051105 -0.000235 -0.027004
# 5 -0.001802 -0.018939 0.019856 -0.000235 0.066316 0.000271
# 6 0.000022 -0.000055 0.000204 -0.027004 0.000271 0.067455
#
#
# Mechanical properties :
#
#
# Convention : Reuss Voigt Hill
#
# Bulk Modulus (GPa) = 45.60627 50.67972 48.14299
# Shear Modulus (GPa) = 18.38870 27.29194 22.84032
#
# Velocity S-wave (km/s) = 3.01858 3.67743 3.36418
# Velocity P-wave (km/s) = 5.89471 6.56840 6.24065
#
# Compressibility (1/GPa) = 0.02192681
#
# Stress axis : x y z
#
# Youngs Moduli (GPa) = 63.87030 50.72110 64.71720
#
# Poissons Ratio (x) = 0.07526 0.22867
# Poissons Ratio (y) = 0.09478 0.61038
# Poissons Ratio (z) = 0.22568 0.47837
#
# Static dielectric constant tensor:
#      x y z
#    x 1.658120 -0.000030 0.017610 
#    y -0.000030 1.790440 0.000060 
#    z 0.017610 0.000060 1.773870 
# 
# From -- ./inp_files/12478.got.cif
#   From: 2010.05.17/outbox.cif.g08.bks.cpg/sg15_7_cif.got.tgz:12478.got - 2010.06.03 18:47:42.
