data_PCOD9279544
_publ_section_title
;
Structure prediction by ZEFSAII (Michael W. Deem and Ramdas Pophale) SiO2 
 PCOD9279544
Probable space group: C 2/C
;
_chemical_formula_sum "Si O2"
_cell_formula_units_Z 60
_cell_length_a 20.673084
_cell_length_b 17.350053
_cell_length_c 12.828174
_cell_angle_alpha 90.000000
_cell_angle_beta 37.070334
_cell_angle_gamma 90.000000
_cell_volume 2773.578850
_symmetry_space_group_name_H-M "C 2/C"
_symmetry_group_IT_number 15
_symmetry_cell_setting 'monoclinic'
loop_
_space_group_symop_operation_xyz
x,y,z
-x,y,1/2-z
-x,-y,-z
x,-y,1/2+z
1/2+x,1/2+y,z
1/2-x,1/2+y,1/2-z
1/2-x,1/2-y,-z
1/2+x,1/2-y,1/2+z
loop_
_atom_site_type_symbol
_atom_site_label
_atom_site_fract_x
_atom_site_fract_y
_atom_site_fract_z
Si Si1 0.241641 0.588296 0.129076
Si Si2 0.987419 0.643544 0.070700
Si Si3 0.404586 0.429171 0.573589
Si Si4 0.658033 0.344291 0.551236
Si Si5 0.632239 0.936624 0.226728
Si Si6 0.000000 0.456437 0.750000
Si Si7 0.898976 0.009566 0.784399
Si Si8 0.499802 0.703665 0.423980
O O1 0.138687 0.638979 0.242807
O O2 0.308448 0.614865 0.142542
O O3 0.195810 0.502132 0.209636
O O4 0.323064 0.574952 0.929435
O O5 0.036942 0.601291 0.109141
O O6 0.005263 0.728179 0.001060
O O7 0.027942 0.590972 0.922629
O O8 0.362201 0.488193 0.713969
O O9 0.477915 0.466759 0.390499
O O10 0.483811 0.373800 0.532734
O O11 0.784720 0.365288 0.392892
O O12 0.613790 0.429939 0.636062
O O13 0.606124 0.308726 0.512512
O O14 0.602472 0.293706 0.713607
O O15 0.590977 0.985694 0.179759
#
# Coordination Sequence:
#
# PCOD9279544 Si02
#       8
#     8   8   8   8   8   4   8   8
#     4  10  21  37  61  93 123 163 219 275 322 380
#     4  11  25  44  62  92 140 182 219 264 329 412
#     4  10  21  35  66  95 127 163 216 274 339 395
#     4   9  21  41  67  98 129 158 229 283 340 383
#     4  10  23  40  71  96 121 174 228 292 323 364
#     4  10  22  46  66  96 132 174 234 276 318 390
#     4   9  20  34  62  96 122 157 210 289 330 369
#     4  10  23  41  62  97 137 176 203 270 346 424
#
# _framework density 21.632701000000001
#
# number of rings (size 3 to 8) (size 9 to 14) (size 15 to 20)
#    0.000    2.133    0.000    2.000   16.800   11.200 
#    2.400    0.667    0.000    0.000    0.000    0.000 
#    0.000    0.000    0.000    0.000    0.000    0.000 
#
# Total GULP energy -167003.215456 kJ/mol
# GULP energy per Si atom -5566.773849 kJ/mol
# Density = 2.158346 g / cm^3
# Si number density = 21.632701 Si / 1000 Ang^3
#
#
#
# Elastic Constant Matrix: (Units=GPa)
#
#
# Indices 1 2 3 4 5 6 
#
# 1 95.0243 37.8097 43.8981 0.0000 9.7633 0.0000
# 2 37.8097 68.1248 28.6485 0.0000 11.0342 0.0000
# 3 43.8981 28.6485 88.7849 0.0000 4.9249 0.0000
# 4 0.0000 0.0000 0.0000 40.0793 0.0000 10.1766
# 5 9.7633 11.0342 4.9249 0.0000 18.7795 0.0000
# 6 0.0000 0.0000 0.0000 10.1766 0.0000 22.4889
#
#
#
# Elastic Compliance Matrix: (Units=1/GPa)
#
#
# Indices 1 2 3 4 5 6 
#
# 1 0.015851 -0.005836 -0.005771 0.000000 -0.003298 0.000000
# 2 -0.005836 0.020647 -0.003320 0.000000 -0.008226 0.000000
# 3 -0.005771 -0.003320 0.015133 0.000000 0.000982 0.000000
# 4 0.000000 0.000000 0.000000 0.028189 0.000000 -0.012756
# 5 -0.003298 -0.008226 0.000982 0.000000 0.059540 0.000000
# 6 0.000000 0.000000 0.000000 -0.012756 0.000000 0.050239
#
#
# Mechanical properties :
#
#
# Convention : Reuss Voigt Hill
#
# Bulk Modulus (GPa) = 45.92199 52.51628 49.21914
# Shear Modulus (GPa) = 22.05434 25.70806 23.88120
#
# Velocity S-wave (km/s) = 3.19641 3.45104 3.32616
# Velocity P-wave (km/s) = 5.90736 6.34103 6.12803
#
# Compressibility (1/GPa) = 0.02177606
#
# Stress axis : x y z
#
# Youngs Moduli (GPa) = 63.08881 48.43374 66.07911
#
# Poissons Ratio (x) = 0.28267 0.38134
# Poissons Ratio (y) = 0.36820 0.21940
# Poissons Ratio (z) = 0.36408 0.16081
#
# Static dielectric constant tensor:
#      x y z
#    x 1.856120 0.000000 -0.010090 
#    y 0.000000 1.804500 0.000000 
#    z -0.010090 0.000000 1.851350 
# 
# From -- ./inp_files/113786.got.cif
#   From: 2010.05.17/outbox.cif.g08.bks.cpg/sg15_57_cif.got.tgz:113786.got - 2010.06.03 18:47:42.
