data_PCOD9279595
_publ_section_title
;
Structure prediction by ZEFSAII (Michael W. Deem and Ramdas Pophale) SiO2 
 PCOD9279595
Probable space group: C 2/C
;
_chemical_formula_sum "Si O2"
_cell_formula_units_Z 56
_cell_length_a 14.149970
_cell_length_b 25.192312
_cell_length_c 8.398368
_cell_angle_alpha 90.000000
_cell_angle_beta 69.425151
_cell_angle_gamma 90.000000
_cell_volume 2802.809155
_symmetry_space_group_name_H-M "C 2/C"
_symmetry_group_IT_number 15
_symmetry_cell_setting 'monoclinic'
loop_
_space_group_symop_operation_xyz
x,y,z
-x,y,1/2-z
-x,-y,-z
x,-y,1/2+z
1/2+x,1/2+y,z
1/2-x,1/2+y,1/2-z
1/2-x,1/2-y,-z
1/2+x,1/2-y,1/2+z
loop_
_atom_site_type_symbol
_atom_site_label
_atom_site_fract_x
_atom_site_fract_y
_atom_site_fract_z
Si Si1 0.500000 0.146749 0.250000
Si Si2 0.139881 0.968437 0.747667
Si Si3 0.170037 0.298416 0.058165
Si Si4 0.797943 0.615184 0.225276
Si Si5 0.557989 0.564779 0.951686
Si Si6 0.558110 0.785517 0.418767
Si Si7 0.320634 0.297628 0.515727
Si Si8 0.000000 0.845153 0.250000
O O1 0.413477 0.113317 0.213887
O O2 0.446532 0.184735 0.410576
O O3 0.244285 0.941207 0.734603
O O4 0.114485 0.944813 0.587607
O O5 0.120674 0.031455 0.780010
O O6 0.054734 0.952308 0.927351
O O7 0.135385 0.315899 0.255437
O O8 0.059078 0.281229 0.059365
O O9 0.250000 0.250000 0.000000
O O10 0.205101 0.348148 0.931643
O O11 0.736514 0.650899 0.388761
O O12 0.531763 0.619907 0.883518
O O13 0.608485 0.727761 0.390558
O O14 0.250000 0.250000 0.500000
O O15 0.401198 0.310792 0.335043
#
# Coordination Sequence:
#
# PCOD9279595 Si02
#       8
#     4   8   8   8   8   8   8   4
#     4  10  21  40  62  78 124 166 218 261 312 380
#     4  10  21  40  64  95 129 161 207 269 335 389
#     4  10  21  36  54  78 123 165 215 266 321 373
#     4  11  22  39  61  90 120 176 215 269 329 379
#     4  10  21  40  65  94 132 161 206 269 328 398
#     4  10  21  37  54  82 119 173 211 269 304 373
#     4  12  24  36  57  90 128 166 224 260 311 380
#     4  12  25  40  64  96 132 182 214 257 330 386
#
# _framework density 19.979956000000001
#
# number of rings (size 3 to 8) (size 9 to 14) (size 15 to 20)
#    0.000    1.429    4.286    2.143    2.000    2.286 
#    0.000    0.000    0.000    0.857    0.000    0.000 
#    0.000    0.000    0.000    0.000    0.000    0.000 
#
# Total GULP energy -155911.512008 kJ/mol
# GULP energy per Si atom -5568.268286 kJ/mol
# Density = 1.993448 g / cm^3
# Si number density = 19.979956 Si / 1000 Ang^3
#
#
#
# Elastic Constant Matrix: (Units=GPa)
#
#
# Indices 1 2 3 4 5 6 
#
# 1 80.0594 37.8097 30.8741 0.0000 -14.6574 0.0000
# 2 37.8097 50.7527 16.6747 0.0000 -10.6120 0.0000
# 3 30.8741 16.6747 105.2905 0.0000 -5.1911 0.0000
# 4 0.0000 0.0000 0.0000 18.0585 0.0000 -8.4193
# 5 -14.6574 -10.6120 -5.1911 0.0000 28.2742 0.0000
# 6 0.0000 0.0000 0.0000 -8.4193 0.0000 34.4229
#
#
#
# Elastic Compliance Matrix: (Units=1/GPa)
#
#
# Indices 1 2 3 4 5 6 
#
# 1 0.021327 -0.013520 -0.003853 0.000000 0.005274 0.000000
# 2 -0.013520 0.030946 -0.000716 0.000000 0.004475 0.000000
# 3 -0.003853 -0.000716 0.010726 0.000000 -0.000297 0.000000
# 4 0.000000 0.000000 0.000000 0.062503 0.000000 0.015287
# 5 0.005274 0.004475 -0.000297 0.000000 0.039727 0.000000
# 6 0.000000 0.000000 0.000000 0.015287 0.000000 0.032789
#
#
# Mechanical properties :
#
#
# Convention : Reuss Voigt Hill
#
# Bulk Modulus (GPa) = 37.28159 45.20219 41.24189
# Shear Modulus (GPa) = 20.56464 26.20071 23.38268
#
# Velocity S-wave (km/s) = 3.21169 3.62518 3.42469
# Velocity P-wave (km/s) = 5.69678 6.33999 6.02697
#
# Compressibility (1/GPa) = 0.02682289
#
# Stress axis : x y z
#
# Youngs Moduli (GPa) = 46.88899 32.31423 93.23169
#
# Poissons Ratio (x) = 0.43688 0.35918
# Poissons Ratio (y) = 0.63392 0.06675
# Poissons Ratio (z) = 0.18064 0.02314
#
# Static dielectric constant tensor:
#      x y z
#    x 1.762740 0.000000 0.071000 
#    y 0.000000 1.788940 0.000000 
#    z 0.071000 0.000000 1.760580 
# 
# From -- ./inp_files/42571.got.cif
#   From: 2010.05.17/outbox.cif.g08.bks.cpg/sg15_22_cif.got.tgz:42571.got - 2010.06.03 18:47:42.
