data_PCOD9279694
_publ_section_title
;
Structure prediction by ZEFSAII (Michael W. Deem and Ramdas Pophale) SiO2 
 PCOD9279694
Probable space group: C 2/C
;
_chemical_formula_sum "Si O2"
_cell_formula_units_Z 48
_cell_length_a 20.517168
_cell_length_b 13.989371
_cell_length_c 12.458908
_cell_angle_alpha 90.000000
_cell_angle_beta 39.517290
_cell_angle_gamma 90.000000
_cell_volume 2275.438182
_symmetry_space_group_name_H-M "C 2/C"
_symmetry_group_IT_number 15
_symmetry_cell_setting 'monoclinic'
loop_
_space_group_symop_operation_xyz
x,y,z
-x,y,1/2-z
-x,-y,-z
x,-y,1/2+z
1/2+x,1/2+y,z
1/2-x,1/2+y,1/2-z
1/2-x,1/2-y,-z
1/2+x,1/2-y,1/2+z
loop_
_atom_site_type_symbol
_atom_site_label
_atom_site_fract_x
_atom_site_fract_y
_atom_site_fract_z
Si Si1 0.664642 0.568990 0.631998
Si Si2 0.620957 0.250876 0.331638
Si Si3 0.161267 0.143020 0.204761
Si Si4 0.607958 0.793016 0.086375
Si Si5 0.903389 0.375728 0.828280
Si Si6 0.858468 0.193210 0.032098
O O1 0.620806 0.650016 0.767353
O O2 0.633621 0.464500 0.708437
O O3 0.789812 0.578939 0.473861
O O4 0.627865 0.600386 0.560130
O O5 0.589866 0.255794 0.493830
O O6 0.573391 0.166914 0.319287
O O7 0.738752 0.217863 0.185141
O O8 0.129909 0.214685 0.150111
O O9 0.114058 0.176126 0.379031
O O10 0.286293 0.147691 0.055015
O O11 0.500000 0.842755 0.250000
O O12 0.000000 0.434210 0.750000
O O13 0.898731 0.284037 0.914515
#
# Coordination Sequence:
#
# PCOD9279694 Si02
#       6
#     8   8   8   8   8   8
#     4   9  18  34  56  79 104 134 175 223 262 305
#     4   8  17  35  53  73 105 139 172 211 254 312
#     4  10  21  36  57  77 106 145 173 214 269 314
#     4  10  22  38  54  76 108 144 178 211 262 324
#     4   9  17  31  57  82 102 132 174 220 264 309
#     4   8  17  34  52  75 104 140 173 204 260 316
#
# _framework density 21.094839
#
# number of rings (size 3 to 8) (size 9 to 14) (size 15 to 20)
#    0.000    3.000    0.000    2.000    4.667    0.667 
#    0.000    4.167    0.000    6.000    0.000    0.000 
#    0.000    0.000    0.000    0.000    0.000    0.000 
#
# Total GULP energy -133777.861923 kJ/mol
# GULP energy per Si atom -5574.077580 kJ/mol
# Density = 2.104683 g / cm^3
# Si number density = 21.094839 Si / 1000 Ang^3
#
#
#
# Elastic Constant Matrix: (Units=GPa)
#
#
# Indices 1 2 3 4 5 6 
#
# 1 97.2145 6.7275 39.6308 0.0000 27.4714 0.0000
# 2 6.7275 79.7550 6.0392 0.0000 29.7634 0.0000
# 3 39.6308 6.0392 84.1986 0.0000 21.2308 0.0000
# 4 0.0000 0.0000 0.0000 6.7199 0.0000 5.9455
# 5 27.4714 29.7634 21.2308 0.0000 58.4717 0.0000
# 6 0.0000 0.0000 0.0000 5.9455 0.0000 8.3142
#
#
#
# Elastic Compliance Matrix: (Units=1/GPa)
#
#
# Indices 1 2 3 4 5 6 
#
# 1 0.013821 0.001162 -0.005286 0.000000 -0.005166 0.000000
# 2 0.001162 0.015648 0.000525 0.000000 -0.008702 0.000000
# 3 -0.005286 0.000525 0.015156 0.000000 -0.003287 0.000000
# 4 0.000000 0.000000 0.000000 0.405153 0.000000 -0.289726
# 5 -0.005166 -0.008702 -0.003287 0.000000 0.025152 0.000000
# 6 0.000000 0.000000 0.000000 -0.289726 0.000000 0.327459
#
#
# Mechanical properties :
#
#
# Convention : Reuss Voigt Hill
#
# Bulk Modulus (GPa) = 26.71915 40.66259 33.69087
# Shear Modulus (GPa) = 6.08227 28.61919 17.35073
#
# Velocity S-wave (km/s) = 1.69987 3.68733 2.87106
# Velocity P-wave (km/s) = 4.06773 6.11935 5.19581
#
# Compressibility (1/GPa) = 0.03742635
#
# Stress axis : x y z
#
# Youngs Moduli (GPa) = 72.35503 63.90597 65.98128
#
# Poissons Ratio (x) = -0.07427 0.34878
# Poissons Ratio (y) = -0.08409 -0.03463
# Poissons Ratio (z) = 0.38247 -0.03354
#
# Static dielectric constant tensor:
#      x y z
#    x 1.810580 0.000000 -0.043870 
#    y 0.000000 1.704680 0.000000 
#    z -0.043870 0.000000 1.818960 
# 
# From -- ./inp_files/96832.got.cif
#   From: 2010.05.17/outbox.cif.g08.bks.cpg/sg15_49_cif.got.tgz:96832.got - 2010.06.03 18:47:42.
