data_PCOD9279553
_publ_section_title
;
Structure prediction by ZEFSAII (Michael W. Deem and Ramdas Pophale) SiO2 
 PCOD9279553
Probable space group: C 2/C
;
_chemical_formula_sum "Si O2"
_cell_formula_units_Z 52
_cell_length_a 21.625836
_cell_length_b 13.588637
_cell_length_c 7.774084
_cell_angle_alpha 90.000000
_cell_angle_beta 92.000928
_cell_angle_gamma 90.000000
_cell_volume 2283.143164
_symmetry_space_group_name_H-M "C 2/C"
_symmetry_group_IT_number 15
_symmetry_cell_setting 'monoclinic'
loop_
_space_group_symop_operation_xyz
x,y,z
-x,y,1/2-z
-x,-y,-z
x,-y,1/2+z
1/2+x,1/2+y,z
1/2-x,1/2+y,1/2-z
1/2-x,1/2-y,-z
1/2+x,1/2-y,1/2+z
loop_
_atom_site_type_symbol
_atom_site_label
_atom_site_fract_x
_atom_site_fract_y
_atom_site_fract_z
Si Si1 0.233467 0.363222 0.959529
Si Si2 0.909397 0.620861 0.078574
Si Si3 0.688559 0.354731 0.846582
Si Si4 0.224447 0.623206 0.842908
Si Si5 0.950704 0.192640 0.095889
Si Si6 0.000000 0.780036 0.250000
Si Si7 0.411957 0.092742 0.669372
O O1 0.163315 0.368067 0.882244
O O2 0.282129 0.399313 0.823151
O O3 0.250000 0.250000 0.000000
O O4 0.235505 0.410251 0.148935
O O5 0.937090 0.516154 0.141363
O O6 0.946783 0.710220 0.164477
O O7 0.911717 0.620134 0.871033
O O8 0.710119 0.240171 0.839196
O O9 0.615072 0.352046 0.856438
O O10 0.720687 0.394623 0.020836
O O11 0.158887 0.581964 0.900619
O O12 0.942139 0.312759 0.082437
O O13 0.000000 0.173819 0.250000
O O14 0.972799 0.160810 0.909267
#
# Coordination Sequence:
#
# PCOD9279553 Si02
#       7
#     8   8   8   8   8   4   8
#     4   9  19  33  53  72  97 128 176 216 266 299
#     4  11  23  35  52  77 104 149 175 217 253 306
#     4   9  18  31  54  71  93 133 173 213 264 299
#     4   8  17  31  49  74  94 126 168 218 256 302
#     4  11  23  37  50  75 108 142 182 216 249 307
#     4  12  26  34  52  70 104 148 186 204 254 300
#     4  10  21  36  50  73 109 138 182 213 252 302
#
# _framework density 22.775618000000001
#
# number of rings (size 3 to 8) (size 9 to 14) (size 15 to 20)
#    0.000    2.154    1.538    1.846   11.846    1.231 
#    0.000    0.000    0.000    0.000    0.000    0.000 
#    0.000    1.231    2.615    0.154    0.000    0.000 
#
# Total GULP energy -145366.534161 kJ/mol
# GULP energy per Si atom -5591.020545 kJ/mol
# Density = 2.272378 g / cm^3
# Si number density = 22.775618 Si / 1000 Ang^3
#
#
#
# Elastic Constant Matrix: (Units=GPa)
#
#
# Indices 1 2 3 4 5 6 
#
# 1 170.1906 2.6344 97.4053 0.0000 8.2735 0.0000
# 2 2.6344 39.0814 -5.2532 0.0000 4.7010 0.0000
# 3 97.4053 -5.2532 138.1084 0.0000 -1.3693 0.0000
# 4 0.0000 0.0000 0.0000 16.2643 0.0000 1.7804
# 5 8.2735 4.7010 -1.3693 0.0000 46.2483 0.0000
# 6 0.0000 0.0000 0.0000 1.7804 0.0000 -4.5980
#
#
#
# Elastic Compliance Matrix: (Units=1/GPa)
#
#
# Indices 1 2 3 4 5 6 
#
# 1 0.010113 -0.001424 -0.007205 0.000000 -0.001878 0.000000
# 2 -0.001424 0.026233 0.001979 0.000000 -0.002353 0.000000
# 3 -0.007205 0.001979 0.012412 0.000000 0.001455 0.000000
# 4 0.000000 0.000000 0.000000 0.058984 0.000000 0.022839
# 5 -0.001878 -0.002353 0.001455 0.000000 0.022241 0.000000
# 6 0.000000 0.000000 0.000000 0.022839 0.000000 -0.208642
#
#
# Mechanical properties :
#
#
# Convention : Reuss Voigt Hill
#
# Bulk Modulus (GPa) = 28.20349 59.66150 43.93249
# Shear Modulus (GPa) = -93.38863 28.42252 -32.48306
#
# Velocity S-wave (km/s) = -6.41037 3.53645 -3.78063
# Velocity P-wave (km/s) = 6.51002 6.55191 0.52305
#
# Compressibility (1/GPa) = 0.03545661
#
# Stress axis : x y z
#
# Youngs Moduli (GPa) = 98.88406 38.12040 80.56660
#
# Poissons Ratio (x) = 0.05430 0.58050
# Poissons Ratio (y) = 0.14084 -0.15944
# Poissons Ratio (z) = 0.71248 -0.07544
#
# Static dielectric constant tensor:
#      x y z
#    x 1.853990 0.000000 -0.030110 
#    y 0.000000 1.873200 0.000000 
#    z -0.030110 0.000000 1.846910 
# 
# From -- ./inp_files/48612.got.cif
#   From: 2010.05.17/outbox.cif.g08.bks.cpg/sg15_25_cif.got.tgz:48612.got - 2010.06.03 18:47:42.
