data_PCOD9279480
_publ_section_title
;
Structure prediction by ZEFSAII (Michael W. Deem and Ramdas Pophale) SiO2 
 PCOD9279480
Probable space group: C 2/C
;
_chemical_formula_sum "Si O2"
_cell_formula_units_Z 64
_cell_length_a 9.106274
_cell_length_b 14.534812
_cell_length_c 29.347143
_cell_angle_alpha 90.000000
_cell_angle_beta 125.565921
_cell_angle_gamma 90.000000
_cell_volume 3159.694884
_symmetry_space_group_name_H-M "C 2/C"
_symmetry_group_IT_number 15
_symmetry_cell_setting 'monoclinic'
loop_
_space_group_symop_operation_xyz
x,y,z
-x,y,1/2-z
-x,-y,-z
x,-y,1/2+z
1/2+x,1/2+y,z
1/2-x,1/2+y,1/2-z
1/2-x,1/2-y,-z
1/2+x,1/2-y,1/2+z
loop_
_atom_site_type_symbol
_atom_site_label
_atom_site_fract_x
_atom_site_fract_y
_atom_site_fract_z
Si Si1 0.269378 0.191774 0.548816
Si Si2 0.078388 0.812390 0.457902
Si Si3 0.835885 0.340683 0.354703
Si Si4 0.320110 0.449551 0.249382
Si Si5 0.483242 0.697339 0.836544
Si Si6 0.210282 0.863419 0.795197
Si Si7 0.832542 0.467660 0.908846
Si Si8 0.741706 0.998403 0.001574
O O1 0.250000 0.250000 0.500000
O O2 0.471192 0.205547 0.604180
O O3 0.108125 0.219215 0.553110
O O4 0.248596 0.085143 0.530080
O O5 0.250000 0.750000 0.500000
O O6 0.118385 0.916674 0.480562
O O7 0.057413 0.809579 0.400346
O O8 0.817233 0.382352 0.301102
O O9 0.654432 0.285501 0.334207
O O10 0.824786 0.428749 0.386869
O O11 0.500000 0.452207 0.250000
O O12 0.387519 0.399263 0.306393
O O13 0.250602 0.552931 0.233252
O O14 0.338927 0.778441 0.808647
O O15 0.251729 0.903966 0.853848
O O16 0.000000 0.839531 0.750000
O O17 0.744857 0.467227 0.943296
O O18 0.044535 0.452358 0.957428
#
# Coordination Sequence:
#
# PCOD9279480 Si02
#       8
#     8   8   8   8   8   8   8   8
#     4  11  25  39  59  94 130 169 206 259 315 377
#     4  12  25  40  64  95 129 165 213 262 318 381
#     4   9  18  40  63  86 122 165 210 250 314 372
#     4   8  18  38  62  87 118 162 204 253 314 377
#     4  11  21  37  65  95 122 163 217 266 311 373
#     4  10  21  35  61  94 128 160 216 260 311 379
#     4   9  18  36  66  93 116 173 210 252 311 388
#     4  10  21  39  64  89 133 161 212 257 320 373
#
# _framework density 20.255120999999999
#
# number of rings (size 3 to 8) (size 9 to 14) (size 15 to 20)
#    0.000    2.000    1.250    2.625    5.250    1.000 
#    0.000    1.250    0.000   11.250    0.000    0.000 
#    0.000    0.000    0.000    0.000    0.000    0.000 
#
# Total GULP energy -178614.832741 kJ/mol
# GULP energy per Si atom -5581.713523 kJ/mol
# Density = 2.020902 g / cm^3
# Si number density = 20.255121 Si / 1000 Ang^3
#
#
#
# Elastic Constant Matrix: (Units=GPa)
#
#
# Indices 1 2 3 4 5 6 
#
# 1 67.8604 16.6016 15.1265 0.0000 20.3013 0.0000
# 2 16.6016 69.8414 29.6619 0.0000 13.2245 0.0000
# 3 15.1265 29.6619 103.6708 0.0000 16.6473 0.0000
# 4 0.0000 0.0000 0.0000 31.7732 0.0000 6.8571
# 5 20.3013 13.2245 16.6473 0.0000 31.4537 0.0000
# 6 0.0000 0.0000 0.0000 6.8571 0.0000 24.4955
#
#
#
# Elastic Compliance Matrix: (Units=1/GPa)
#
#
# Indices 1 2 3 4 5 6 
#
# 1 0.018616 -0.002220 -0.000330 0.000000 -0.010908 0.000000
# 2 -0.002220 0.017252 -0.004019 0.000000 -0.003694 0.000000
# 3 -0.000330 -0.004019 0.011517 0.000000 -0.004193 0.000000
# 4 0.000000 0.000000 0.000000 0.033497 0.000000 -0.009377
# 5 -0.010908 -0.003694 -0.004193 0.000000 0.042605 0.000000
# 6 0.000000 0.000000 0.000000 -0.009377 0.000000 0.043449
#
#
# Mechanical properties :
#
#
# Convention : Reuss Voigt Hill
#
# Bulk Modulus (GPa) = 29.19850 40.46140 34.82995
# Shear Modulus (GPa) = 26.11122 29.54334 27.82728
#
# Velocity S-wave (km/s) = 3.59432 3.82326 3.71055
# Velocity P-wave (km/s) = 5.62781 6.28562 5.96578
#
# Compressibility (1/GPa) = 0.03424833
#
# Stress axis : x y z
#
# Youngs Moduli (GPa) = 53.71788 57.96388 86.82611
#
# Poissons Ratio (x) = 0.12866 0.02862
# Poissons Ratio (y) = 0.11924 0.34896
# Poissons Ratio (z) = 0.01770 0.23296
#
# Static dielectric constant tensor:
#      x y z
#    x 1.744350 0.000000 0.021680 
#    y 0.000000 1.763730 0.000000 
#    z 0.021680 0.000000 1.734200 
# 
# From -- ./inp_files/288838.got.cif
#   From: 2010.05.17/outbox.cif.g08.bks.cpg/sg15_145_cif.got.tgz:288838.got - 2010.06.03 18:47:42.
