data_PCOD9279027
_publ_section_title
;
Structure prediction by ZEFSAII (Michael W. Deem and Ramdas Pophale) SiO2 
 PCOD9279027
Probable space group: C 2/C
;
_chemical_formula_sum "Si O2"
_cell_formula_units_Z 32
_cell_length_a 18.230733
_cell_length_b 9.176727
_cell_length_c 20.062374
_cell_angle_alpha 90.000000
_cell_angle_beta 23.847334
_cell_angle_gamma 90.000000
_cell_volume 1356.997730
_symmetry_space_group_name_H-M "C 2/C"
_symmetry_group_IT_number 15
_symmetry_cell_setting 'monoclinic'
loop_
_space_group_symop_operation_xyz
x,y,z
-x,y,1/2-z
-x,-y,-z
x,-y,1/2+z
1/2+x,1/2+y,z
1/2-x,1/2+y,1/2-z
1/2-x,1/2-y,-z
1/2+x,1/2-y,1/2+z
loop_
_atom_site_type_symbol
_atom_site_label
_atom_site_fract_x
_atom_site_fract_y
_atom_site_fract_z
Si Si1 0.890508 0.279954 0.442358
Si Si2 0.925183 0.570676 0.241113
Si Si3 0.149197 0.534916 0.932126
Si Si4 0.019508 0.023120 0.562590
O O1 0.750000 0.250000 0.500000
O O2 0.803057 0.382519 0.571513
O O3 0.957330 0.132599 0.420185
O O4 0.044406 0.393749 0.288444
O O5 0.713235 0.599308 0.411764
O O6 0.000000 0.622149 0.250000
O O7 0.046659 0.619023 0.077169
O O8 0.334565 0.592087 0.745765
O O9 0.000000 0.500000 0.000000
O O10 0.000000 0.000000 0.500000
#
# Coordination Sequence:
#
# PCOD9279027 Si02
#       4
#     8   8   8   8
#     4  10  21  35  56  85 115 143 181 230 279 330
#     4  10  21  34  53  81 113 137 189 226 279 323
#     4  10  22  34  51  79 117 144 186 226 277 332
#     4  12  20  33  53  77 116 151 180 226 282 324
#
# _framework density 23.581468999999998
#
# number of rings (size 3 to 8) (size 9 to 14) (size 15 to 20)
#    1.500    0.000    5.000    1.500    0.000    3.000 
#    0.000    0.000    0.000    0.000    0.000    7.000 
#    0.000    0.000    0.000    0.000    0.000    0.000 
#
# Total GULP energy -89313.592268 kJ/mol
# GULP energy per Si atom -5582.099517 kJ/mol
# Density = 2.352780 g / cm^3
# Si number density = 23.581469 Si / 1000 Ang^3
#
#
#
# Elastic Constant Matrix: (Units=GPa)
#
#
# Indices 1 2 3 4 5 6 
#
# 1 224.5200 26.6143 106.7159 -0.0002 -0.5618 -0.0001
# 2 26.6143 91.1728 37.3263 -0.0010 -4.7765 0.0002
# 3 106.7159 37.3263 284.1844 -0.0018 5.5529 0.0000
# 4 -0.0002 -0.0010 -0.0018 35.5886 0.0007 3.5147
# 5 -0.5618 -4.7765 5.5529 0.0007 44.0412 0.0002
# 6 -0.0001 0.0002 0.0000 3.5147 0.0002 -2.2510
#
#
#
# Elastic Compliance Matrix: (Units=1/GPa)
#
#
# Indices 1 2 3 4 5 6 
#
# 1 0.005479 -0.000785 -0.001959 0.000000 0.000232 0.000000
# 2 -0.000785 0.011797 -0.001283 0.000000 0.001431 0.000002
# 3 -0.001959 -0.001283 0.004437 0.000000 -0.000724 0.000000
# 4 0.000000 0.000000 0.000000 0.024345 -0.000001 0.038012
# 5 0.000232 0.001431 -0.000724 -0.000001 0.022955 0.000001
# 6 0.000000 0.000002 0.000000 0.038012 0.000001 -0.384889
#
#
# Mechanical properties :
#
#
# Convention : Reuss Voigt Hill
#
# Bulk Modulus (GPa) = 73.20682 104.57668 88.89175
# Shear Modulus (GPa) = -16.48703 44.09047 13.80172
#
# Velocity S-wave (km/s) = -2.64702 4.32870 2.42188
# Velocity P-wave (km/s) = 4.66576 8.33228 6.75264
#
# Compressibility (1/GPa) = 0.01365993
#
# Stress axis : x y z
#
# Youngs Moduli (GPa) = 182.52897 84.76373 225.37914
#
# Poissons Ratio (x) = 0.06656 0.44145
# Poissons Ratio (y) = 0.14333 0.28908
# Poissons Ratio (z) = 0.35752 0.10872
#
# Static dielectric constant tensor:
#      x y z
#    x 1.823420 0.000000 0.029110 
#    y 0.000000 1.902110 0.000000 
#    z 0.029110 0.000000 1.925460 
# 
# From -- ./inp_files/54789.got.cif
#   From: 2010.05.17/outbox.cif.g08.bks.cpg/sg15_28_cif.got.tgz:54789.got - 2010.06.03 18:47:42.
