data_PCOD9279276
_publ_section_title
;
Structure prediction by ZEFSAII (Michael W. Deem and Ramdas Pophale) SiO2 
 PCOD9279276
Probable space group: C 2/C
;
_chemical_formula_sum "Si O2"
_cell_formula_units_Z 52
_cell_length_a 23.353304
_cell_length_b 12.595499
_cell_length_c 8.196325
_cell_angle_alpha 90.000000
_cell_angle_beta 60.496743
_cell_angle_gamma 90.000000
_cell_volume 2098.290858
_symmetry_space_group_name_H-M "C 2/C"
_symmetry_group_IT_number 15
_symmetry_cell_setting 'monoclinic'
loop_
_space_group_symop_operation_xyz
x,y,z
-x,y,1/2-z
-x,-y,-z
x,-y,1/2+z
1/2+x,1/2+y,z
1/2-x,1/2+y,1/2-z
1/2-x,1/2-y,-z
1/2+x,1/2-y,1/2+z
loop_
_atom_site_type_symbol
_atom_site_label
_atom_site_fract_x
_atom_site_fract_y
_atom_site_fract_z
Si Si1 0.071743 0.885465 0.962614
Si Si2 0.396490 0.162153 0.475782
Si Si3 0.234682 0.844492 0.195652
Si Si4 0.797629 0.051909 0.411584
Si Si5 0.816664 0.616651 0.174160
Si Si6 0.500000 0.563993 0.250000
Si Si7 0.393027 0.969261 0.284372
O O1 0.078836 0.780783 0.059849
O O2 0.136999 0.909362 0.769464
O O3 0.019659 0.874747 0.886786
O O4 0.055449 0.983049 0.104417
O O5 0.422467 0.080999 0.302387
O O6 0.420298 0.107773 0.610519
O O7 0.315092 0.163085 0.590267
O O8 0.210203 0.895152 0.401157
O O9 0.198983 0.730928 0.230543
O O10 0.208569 0.924185 0.092401
O O11 0.741827 0.094509 0.367961
O O12 0.828834 0.521669 0.284495
O O13 0.878275 0.600680 0.964885
#
# Coordination Sequence:
#
# PCOD9279276 Si02
#       7
#     8   8   8   8   8   4   8
#     4  11  24  44  71  86 122 162 221 260 335 337
#     4  11  20  39  60  93 127 179 190 248 302 386
#     4  12  22  34  55  90 139 165 205 232 297 380
#     4  12  21  36  59  94 128 172 199 245 295 391
#     4  11  20  35  50  82 131 174 192 238 281 365
#     4  10  26  50  66  92 112 156 222 304 290 360
#     4  10  21  35  55  86 134 166 199 229 292 369
#
# _framework density 24.782074000000001
#
# number of rings (size 3 to 8) (size 9 to 14) (size 15 to 20)
#    0.000    0.923    6.154    2.308    0.000    3.077 
#    0.000    4.615    0.000    2.769    0.000    0.000 
#    0.000    0.000    0.000    0.000    0.000    0.000 
#
# Total GULP energy -145334.484532 kJ/mol
# GULP energy per Si atom -5589.787867 kJ/mol
# Density = 2.472567 g / cm^3
# Si number density = 24.782074 Si / 1000 Ang^3
#
#
#
# Elastic Constant Matrix: (Units=GPa)
#
#
# Indices 1 2 3 4 5 6 
#
# 1 33.1687 22.7122 13.1300 0.0000 5.8733 0.0000
# 2 22.7122 126.8030 2.0006 0.0000 10.7127 0.0000
# 3 13.1300 2.0006 97.4848 0.0000 15.3987 0.0000
# 4 0.0000 0.0000 0.0000 33.4601 0.0000 18.4176
# 5 5.8733 10.7127 15.3987 0.0000 27.4244 0.0000
# 6 0.0000 0.0000 0.0000 18.4176 0.0000 23.5661
#
#
#
# Elastic Compliance Matrix: (Units=1/GPa)
#
#
# Indices 1 2 3 4 5 6 
#
# 1 0.036673 -0.006249 -0.004341 0.000000 -0.002976 0.000000
# 2 -0.006249 0.009232 0.001109 0.000000 -0.002891 0.000000
# 3 -0.004341 0.001109 0.011787 0.000000 -0.006122 0.000000
# 4 0.000000 0.000000 0.000000 0.052449 0.000000 -0.040990
# 5 -0.002976 -0.002891 -0.006122 0.000000 0.041668 0.000000
# 6 0.000000 0.000000 0.000000 -0.040990 0.000000 0.074469
#
#
# Mechanical properties :
#
#
# Convention : Reuss Voigt Hill
#
# Bulk Modulus (GPa) = 25.81981 37.01579 31.41780
# Shear Modulus (GPa) = 19.36858 31.53103 25.44981
#
# Velocity S-wave (km/s) = 2.79867 3.57085 3.20807
# Velocity P-wave (km/s) = 4.56998 5.65422 5.14077
#
# Compressibility (1/GPa) = 0.03872995
#
# Stress axis : x y z
#
# Youngs Moduli (GPa) = 27.26791 108.31634 84.83960
#
# Poissons Ratio (x) = 0.67685 0.36830
# Poissons Ratio (y) = 0.17039 -0.09407
# Poissons Ratio (z) = 0.11837 -0.12010
#
# Static dielectric constant tensor:
#      x y z
#    x 2.069150 0.000000 -0.043420 
#    y 0.000000 1.962110 0.000000 
#    z -0.043420 0.000000 1.993690 
# 
# From -- ./inp_files/65095.got.cif
#   From: 2010.05.17/outbox.cif.g08.bks.cpg/sg15_33_cif.got.tgz:65095.got - 2010.06.03 18:47:42.
