data_PCOD9279030
_publ_section_title
;
Structure prediction by ZEFSAII (Michael W. Deem and Ramdas Pophale) SiO2 
 PCOD9279030
Probable space group: C 2/C
;
_chemical_formula_sum "Si O2"
_cell_formula_units_Z 52
_cell_length_a 14.192922
_cell_length_b 25.649363
_cell_length_c 17.239702
_cell_angle_alpha 90.000000
_cell_angle_beta 28.487722
_cell_angle_gamma 90.000000
_cell_volume 2993.433445
_symmetry_space_group_name_H-M "C 2/C"
_symmetry_group_IT_number 15
_symmetry_cell_setting 'monoclinic'
loop_
_space_group_symop_operation_xyz
x,y,z
-x,y,1/2-z
-x,-y,-z
x,-y,1/2+z
1/2+x,1/2+y,z
1/2-x,1/2+y,1/2-z
1/2-x,1/2-y,-z
1/2+x,1/2-y,1/2+z
loop_
_atom_site_type_symbol
_atom_site_label
_atom_site_fract_x
_atom_site_fract_y
_atom_site_fract_z
Si Si1 0.081460 0.174513 0.995495
Si Si2 0.470828 0.773008 0.177766
Si Si3 0.629865 0.581468 0.426209
Si Si4 0.000000 0.454607 0.750000
Si Si5 0.872184 0.525143 0.980169
Si Si6 0.194270 0.988926 0.262476
Si Si7 0.713030 0.362039 0.556680
O O1 0.185363 0.137420 0.983995
O O2 0.989113 0.220606 0.114835
O O3 0.934330 0.138957 0.053200
O O4 0.258750 0.200539 0.819499
O O5 0.500000 0.764860 0.250000
O O6 0.642967 0.813535 0.029606
O O7 0.637366 0.543327 0.345664
O O8 0.465355 0.554488 0.599888
O O9 0.840962 0.577849 0.315784
O O10 0.882345 0.492030 0.894319
O O11 0.093677 0.525876 0.854497
O O12 0.729729 0.498623 0.146417
O O13 0.805273 0.583845 0.015595
O O14 0.500000 0.356283 0.750000
#
# Coordination Sequence:
#
# PCOD9279030 Si02
#       7
#     8   8   8   4   8   8   8
#     4  11  21  35  56  77 110 148 182 233 277 337
#     4  10  21  35  52  82 115 141 185 232 277 337
#     4  10  21  37  56  78 109 151 188 233 285 327
#     4  10  24  36  56  80 116 146 190 238 270 342
#     4  10  21  34  53  82 115 152 182 227 275 327
#     4   9  20  36  53  79 112 144 196 229 264 344
#     4  11  21  30  53  83 114 150 179 218 278 340
#
# _framework density 17.371357
#
# number of rings (size 3 to 8) (size 9 to 14) (size 15 to 20)
#    0.000    1.846    0.000    5.077   11.846    0.000 
#    0.000    1.538    0.000    0.923    0.000    0.000 
#    0.000    0.000    0.000    0.000    0.000    0.000 
#
# Total GULP energy -145231.036608 kJ/mol
# GULP energy per Si atom -5585.809100 kJ/mol
# Density = 1.733182 g / cm^3
# Si number density = 17.371357 Si / 1000 Ang^3
#
#
#
# Elastic Constant Matrix: (Units=GPa)
#
#
# Indices 1 2 3 4 5 6 
#
# 1 56.7069 59.2098 29.2643 -0.0006 5.0998 -0.0024
# 2 59.2098 136.6507 67.2272 0.0061 -8.6899 0.0034
# 3 29.2643 67.2272 112.7045 -0.0095 5.9698 -0.0028
# 4 -0.0006 0.0061 -0.0095 14.5424 -0.0015 -11.0383
# 5 5.0998 -8.6899 5.9698 -0.0015 23.7840 0.0074
# 6 -0.0024 0.0034 -0.0028 -11.0383 0.0074 29.1513
#
#
#
# Elastic Compliance Matrix: (Units=1/GPa)
#
#
# Indices 1 2 3 4 5 6 
#
# 1 0.036391 -0.017602 0.001829 0.000021 -0.014693 0.000017
# 2 -0.017602 0.019606 -0.007807 -0.000026 0.012897 -0.000018
# 3 0.001829 -0.007807 0.013405 0.000020 -0.006609 0.000012
# 4 0.000021 -0.000026 0.000020 0.096500 -0.000024 0.036540
# 5 -0.014693 0.012897 -0.006609 -0.000024 0.051567 -0.000026
# 6 0.000017 -0.000018 0.000012 0.036540 -0.000026 0.048140
#
#
# Mechanical properties :
#
#
# Convention : Reuss Voigt Hill
#
# Bulk Modulus (GPa) = 44.96315 68.60720 56.78518
# Shear Modulus (GPa) = 15.61599 23.51958 19.56779
#
# Velocity S-wave (km/s) = 3.00150 3.68357 3.35989
# Velocity P-wave (km/s) = 6.16050 7.59419 6.91460
#
# Compressibility (1/GPa) = 0.02224043
#
# Stress axis : x y z
#
# Youngs Moduli (GPa) = 27.47917 51.00507 74.59838
#
# Poissons Ratio (x) = 0.89779 -0.13641
# Poissons Ratio (y) = 0.48369 0.58242
# Poissons Ratio (z) = -0.05025 0.39822
#
# Static dielectric constant tensor:
#      x y z
#    x 1.590590 0.000000 0.000280 
#    y 0.000000 1.580620 0.000030 
#    z 0.000280 0.000030 1.628380 
# 
# From -- ./inp_files/207153.got.cif
#   From: 2010.05.17/outbox.cif.g08.bks.cpg/sg15_104_cif.got.tgz:207153.got - 2010.06.03 18:47:42.
