data_PCOD9279561
_publ_section_title
;
Structure prediction by ZEFSAII (Michael W. Deem and Ramdas Pophale) SiO2 
 PCOD9279561
Probable space group: C 2/C
;
_chemical_formula_sum "Si O2"
_cell_formula_units_Z 36
_cell_length_a 17.749661
_cell_length_b 16.847592
_cell_length_c 5.624767
_cell_angle_alpha 90.000000
_cell_angle_beta 75.227680
_cell_angle_gamma 90.000000
_cell_volume 1626.428458
_symmetry_space_group_name_H-M "C 2/C"
_symmetry_group_IT_number 15
_symmetry_cell_setting 'monoclinic'
loop_
_space_group_symop_operation_xyz
x,y,z
-x,y,1/2-z
-x,-y,-z
x,-y,1/2+z
1/2+x,1/2+y,z
1/2-x,1/2+y,1/2-z
1/2-x,1/2-y,-z
1/2+x,1/2-y,1/2+z
loop_
_atom_site_type_symbol
_atom_site_label
_atom_site_fract_x
_atom_site_fract_y
_atom_site_fract_z
Si Si1 0.000000 0.050653 0.750000
Si Si2 0.859309 0.830018 0.472783
Si Si3 0.409948 0.972493 0.017534
Si Si4 0.708232 0.198256 0.329575
Si Si5 0.915653 0.313365 0.213802
O O1 0.921499 0.105877 0.829417
O O2 0.000000 0.000000 0.500000
O O3 0.774953 0.854310 0.650112
O O4 0.831690 0.764234 0.304900
O O5 0.900703 0.775721 0.639525
O O6 0.407664 0.876985 0.011448
O O7 0.374348 0.999100 0.298533
O O8 0.500000 0.000000 0.000000
O O9 0.750000 0.250000 0.500000
O O10 0.640647 0.157953 0.531013
O O11 0.000000 0.319078 0.250000
#
# Coordination Sequence:
#
# PCOD9279561 Si02
#       5
#     4   8   8   8   8
#     4  12  30  48  76 108 150 192 244 316 380 444
#     4  10  23  44  70  98 133 179 248 294 362 422
#     4  10  21  36  52  85 136 167 201 255 319 395
#     4   9  21  40  69  96 131 171 234 296 342 418
#     4  11  21  35  68  97 130 177 231 283 346 422
#
# _framework density 22.134388999999999
#
# number of rings (size 3 to 8) (size 9 to 14) (size 15 to 20)
#    0.000    1.778    2.222    1.333   10.889    1.778 
#    0.000    2.222    0.000    0.000    0.000    0.000 
#    0.000    0.000    0.000    0.000    0.000    0.000 
#
# Total GULP energy -100281.477024 kJ/mol
# GULP energy per Si atom -5571.193168 kJ/mol
# Density = 2.208401 g / cm^3
# Si number density = 22.134389 Si / 1000 Ang^3
#
#
#
# Elastic Constant Matrix: (Units=GPa)
#
#
# Indices 1 2 3 4 5 6 
#
# 1 107.1754 44.9318 56.8598 0.0000 -27.4287 0.0000
# 2 44.9318 84.8464 55.5637 0.0000 -21.1946 0.0000
# 3 56.8598 55.5637 130.2970 0.0000 -8.2209 0.0000
# 4 0.0000 0.0000 0.0000 41.7068 0.0000 0.8982
# 5 -27.4287 -21.1946 -8.2209 0.0000 48.9882 0.0000
# 6 0.0000 0.0000 0.0000 0.8982 0.0000 -9.1005
#
#
#
# Elastic Compliance Matrix: (Units=1/GPa)
#
#
# Indices 1 2 3 4 5 6 
#
# 1 0.014704 -0.003222 -0.004661 0.000000 0.006057 0.000000
# 2 -0.003222 0.018989 -0.006354 0.000000 0.005345 0.000000
# 3 -0.004661 -0.006354 0.012210 0.000000 -0.003310 0.000000
# 4 0.000000 0.000000 0.000000 0.023926 0.000000 0.002361
# 5 0.006057 0.005345 -0.003310 0.000000 0.025561 0.000000
# 6 0.000000 0.000000 0.000000 0.002361 0.000000 -0.109651
#
#
# Mechanical properties :
#
#
# Convention : Reuss Voigt Hill
#
# Bulk Modulus (GPa) = 57.37614 70.78107 64.07860
# Shear Modulus (GPa) = 249.73446 27.31646 138.52546
#
# Velocity S-wave (km/s) = 10.63350 3.51681 7.91958
# Velocity P-wave (km/s) = 13.29435 6.96692 10.61315
#
# Compressibility (1/GPa) = 0.01742885
#
# Stress axis : x y z
#
# Youngs Moduli (GPa) = 68.00990 52.66320 81.90329
#
# Poissons Ratio (x) = 0.16966 0.38172
# Poissons Ratio (y) = 0.21910 0.52045
# Poissons Ratio (z) = 0.31697 0.33464
#
# Static dielectric constant tensor:
#      x y z
#    x 1.849020 0.000000 0.066680 
#    y 0.000000 1.828420 0.000000 
#    z 0.066680 0.000000 2.263920 
# 
# From -- ./inp_files/9766.got.cif
#   From: 2010.05.17/outbox.cif.g08.bks.cpg/sg15_5_cif.got.tgz:9766.got - 2010.06.03 18:47:42.
