data_PCOD9279619
_publ_section_title
;
Structure prediction by ZEFSAII (Michael W. Deem and Ramdas Pophale) SiO2 
 PCOD9279619
Probable space group: C 2/C
;
_chemical_formula_sum "Si O2"
_cell_formula_units_Z 64
_cell_length_a 7.640432
_cell_length_b 13.674034
_cell_length_c 25.876392
_cell_angle_alpha 90.000000
_cell_angle_beta 87.201903
_cell_angle_gamma 90.000000
_cell_volume 2700.226527
_symmetry_space_group_name_H-M "C 2/C"
_symmetry_group_IT_number 15
_symmetry_cell_setting 'monoclinic'
loop_
_space_group_symop_operation_xyz
x,y,z
-x,y,1/2-z
-x,-y,-z
x,-y,1/2+z
1/2+x,1/2+y,z
1/2-x,1/2+y,1/2-z
1/2-x,1/2-y,-z
1/2+x,1/2-y,1/2+z
loop_
_atom_site_type_symbol
_atom_site_label
_atom_site_fract_x
_atom_site_fract_y
_atom_site_fract_z
Si Si1 0.522810 0.292571 0.595604
Si Si2 0.080071 0.107423 0.659711
Si Si3 0.411145 0.727368 0.579822
Si Si4 0.888889 0.902767 0.505681
Si Si5 0.475472 0.085580 0.369588
Si Si6 0.643505 0.600376 0.192601
Si Si7 0.872503 0.416553 0.074211
Si Si8 0.818934 0.694951 0.284849
O O1 0.720058 0.271467 0.572095
O O2 0.412186 0.368435 0.563665
O O3 0.544415 0.330470 0.653232
O O4 0.431827 0.190058 0.588928
O O5 0.196506 0.068590 0.610138
O O6 0.178893 0.196536 0.688672
O O7 0.916884 0.157287 0.631223
O O8 0.061393 0.009193 0.693708
O O9 0.506277 0.676149 0.530853
O O10 0.525077 0.819569 0.594737
O O11 0.697435 0.918792 0.483363
O O12 0.000000 0.000000 0.500000
O O13 0.660880 0.086796 0.335476
O O14 0.335739 0.109673 0.327627
O O15 0.484202 0.991782 0.406228
O O16 0.679158 0.657435 0.245302
O O17 0.000000 0.698786 0.250000
#
# Coordination Sequence:
#
# PCOD9279619 Si02
#       8
#     8   8   8   8   8   8   8   8
#     4  11  21  35  54  81 110 136 179 227 264 311
#     4   9  18  36  56  76 106 144 178 216 270 323
#     4   9  18  35  57  77 101 141 184 216 255 324
#     4  11  21  37  58  78 106 147 181 213 269 328
#     4   8  16  34  55  76 104 141 180 215 261 324
#     4   9  18  33  54  77 107 145 179 214 267 325
#     4  10  21  36  55  81 110 138 173 227 278 314
#     4   9  17  32  56  80 103 140 186 222 254 317
#
# _framework density 23.701716999999999
#
# number of rings (size 3 to 8) (size 9 to 14) (size 15 to 20)
#    0.000    2.500    0.000    4.500    0.000    1.000 
#    0.000   13.125    0.000    0.000    0.000    0.000 
#    0.000    0.000    0.000    0.000    0.000    0.000 
#
# Total GULP energy -178689.168336 kJ/mol
# GULP energy per Si atom -5584.036511 kJ/mol
# Density = 2.364777 g / cm^3
# Si number density = 23.701717 Si / 1000 Ang^3
#
#
#
# Elastic Constant Matrix: (Units=GPa)
#
#
# Indices 1 2 3 4 5 6 
#
# 1 49.0717 -11.2902 14.7578 0.0000 13.5347 0.0000
# 2 -11.2902 117.9957 50.0833 0.0000 29.5984 0.0000
# 3 14.7578 50.0833 154.2541 0.0000 32.5230 0.0000
# 4 0.0000 0.0000 0.0000 26.0412 0.0000 2.9945
# 5 13.5347 29.5984 32.5230 0.0000 38.9444 0.0000
# 6 0.0000 0.0000 0.0000 2.9945 0.0000 19.3662
#
#
#
# Elastic Compliance Matrix: (Units=1/GPa)
#
#
# Indices 1 2 3 4 5 6 
#
# 1 0.025779 0.006347 -0.001967 0.000000 -0.012140 0.000000
# 2 0.006347 0.012620 -0.002691 0.000000 -0.009550 0.000000
# 3 -0.001967 -0.002691 0.008459 0.000000 -0.004335 0.000000
# 4 0.000000 0.000000 0.000000 0.039096 0.000000 -0.006045
# 5 -0.012140 -0.009550 -0.004335 0.000000 0.040775 0.000000
# 6 0.000000 0.000000 0.000000 -0.006045 0.000000 0.052571
#
#
# Mechanical properties :
#
#
# Convention : Reuss Voigt Hill
#
# Bulk Modulus (GPa) = 19.90696 47.60258 33.75477
# Shear Modulus (GPa) = 25.95149 34.72173 30.33661
#
# Velocity S-wave (km/s) = 3.31255 3.83161 3.58150
# Velocity P-wave (km/s) = 4.80081 6.30100 5.60136
#
# Compressibility (1/GPa) = 0.05023368
#
# Stress axis : x y z
#
# Youngs Moduli (GPa) = 38.79186 79.23982 118.22016
#
# Poissons Ratio (x) = -0.50292 0.23259
# Poissons Ratio (y) = -0.24621 0.31815
# Poissons Ratio (z) = 0.07632 0.21325
#
# Static dielectric constant tensor:
#      x y z
#    x 2.053930 0.000000 -0.042410 
#    y 0.000000 1.887300 0.000000 
#    z -0.042410 0.000000 1.955230 
# 
# From -- ./inp_files/288841.got.cif
#   From: 2010.05.17/outbox.cif.g08.bks.cpg/sg15_145_cif.got.tgz:288841.got - 2010.06.03 18:47:42.
