data_PCOD9279147
_publ_section_title
;
Structure prediction by ZEFSAII (Michael W. Deem and Ramdas Pophale) SiO2 
 PCOD9279147
Probable space group: C 2/C
;
_chemical_formula_sum "Si O2"
_cell_formula_units_Z 56
_cell_length_a 29.430106
_cell_length_b 5.582938
_cell_length_c 17.941587
_cell_angle_alpha 90.000000
_cell_angle_beta 50.965829
_cell_angle_gamma 90.000000
_cell_volume 2289.856198
_symmetry_space_group_name_H-M "C 2/C"
_symmetry_group_IT_number 15
_symmetry_cell_setting 'monoclinic'
loop_
_space_group_symop_operation_xyz
x,y,z
-x,y,1/2-z
-x,-y,-z
x,-y,1/2+z
1/2+x,1/2+y,z
1/2-x,1/2+y,1/2-z
1/2-x,1/2-y,-z
1/2+x,1/2-y,1/2+z
loop_
_atom_site_type_symbol
_atom_site_label
_atom_site_fract_x
_atom_site_fract_y
_atom_site_fract_z
Si Si1 0.789190 0.902765 0.865272
Si Si2 0.641978 0.785446 0.806868
Si Si3 0.026224 0.244133 0.003534
Si Si4 0.115241 0.506749 0.693542
Si Si5 0.076959 0.710978 0.594823
Si Si6 0.825677 0.891736 0.472632
Si Si7 0.679906 0.026587 0.905896
O O1 0.817916 0.093894 0.777128
O O2 0.780564 0.995384 0.959482
O O3 0.837059 0.699404 0.828487
O O4 0.726946 0.843237 0.893042
O O5 0.595155 0.693313 0.914345
O O6 0.676678 0.982437 0.820971
O O7 0.598935 0.885696 0.787345
O O8 0.023313 0.240750 0.096363
O O9 0.000000 0.500000 0.000000
O O10 0.000000 0.000000 0.000000
O O11 0.067914 0.616063 0.687312
O O12 0.147576 0.312936 0.608736
O O13 0.116195 0.517984 0.507815
O O14 0.121152 0.932560 0.561801
O O15 0.801761 0.775307 0.573479
#
# Coordination Sequence:
#
# PCOD9279147 Si02
#       7
#     8   8   8   8   8   8   8
#     4  10  21  36  57  94 134 177 212 264 329 402
#     4  10  24  40  61  95 129 173 213 284 326 396
#     4  11  27  47  76  99 127 171 230 284 348 400
#     4   9  20  38  65  85 138 166 215 264 340 388
#     4   9  21  40  66  95 125 172 215 278 324 402
#     4   9  19  37  61  90 129 172 222 262 321 389
#     4  10  21  34  59  93 133 175 221 257 326 396
#
# _framework density 24.455686
#
# number of rings (size 3 to 8) (size 9 to 14) (size 15 to 20)
#    0.000    2.286    0.000    0.429   10.000    8.571 
#    0.000    0.714    0.000    0.000    0.000    0.000 
#    0.000    0.000    0.000    0.000    0.000    0.000 
#
# Total GULP energy -156052.054269 kJ/mol
# GULP energy per Si atom -5573.287652 kJ/mol
# Density = 2.440002 g / cm^3
# Si number density = 24.455686 Si / 1000 Ang^3
#
#
#
# Elastic Constant Matrix: (Units=GPa)
#
#
# Indices 1 2 3 4 5 6 
#
# 1 111.4698 18.2060 30.4593 0.0124 47.6903 0.0035
# 2 18.2060 73.4962 21.7284 0.0326 17.0778 0.0186
# 3 30.4593 21.7284 80.3579 0.0147 27.8161 -0.0104
# 4 0.0124 0.0326 0.0147 15.3227 0.0001 6.4578
# 5 47.6903 17.0778 27.8161 0.0001 59.4263 -0.0010
# 6 0.0035 0.0186 -0.0104 6.4578 -0.0010 29.7872
#
#
#
# Elastic Compliance Matrix: (Units=1/GPa)
#
#
# Indices 1 2 3 4 5 6 
#
# 1 0.013871 -0.000599 -0.001554 -0.000008 -0.010232 0.000000
# 2 -0.000599 0.015226 -0.003033 -0.000027 -0.002475 -0.000005
# 3 -0.001554 -0.003033 0.015657 -0.000011 -0.005210 0.000010
# 4 -0.000008 -0.000027 -0.000011 0.071825 0.000019 -0.015572
# 5 -0.010232 -0.002475 -0.005210 0.000019 0.028189 -0.000002
# 6 0.000000 -0.000005 0.000010 -0.015572 -0.000002 0.036947
#
#
# Mechanical properties :
#
#
# Convention : Reuss Voigt Hill
#
# Bulk Modulus (GPa) = 29.08493 45.12349 37.10421
# Shear Modulus (GPa) = 24.56404 33.90259 29.23331
#
# Velocity S-wave (km/s) = 3.17271 3.72733 3.46115
# Velocity P-wave (km/s) = 5.03391 6.08401 5.58370
#
# Compressibility (1/GPa) = 0.03438207
#
# Stress axis : x y z
#
# Youngs Moduli (GPa) = 72.09186 65.67509 63.86938
#
# Poissons Ratio (x) = 0.03934 0.09925
# Poissons Ratio (y) = 0.04319 0.19374
# Poissons Ratio (z) = 0.11202 0.19921
#
# Static dielectric constant tensor:
#      x y z
#    x 2.118000 0.000060 -0.020190 
#    y 0.000060 2.136130 -0.000090 
#    z -0.020190 -0.000090 2.035090 
# 
# From -- ./inp_files/221208.got.cif
#   From: 2010.05.17/outbox.cif.g08.bks.cpg/sg15_111_cif.got.tgz:221208.got - 2010.06.03 18:47:42.
