data_PCOD9279882
_publ_section_title
;
Structure prediction by ZEFSAII (Michael W. Deem and Ramdas Pophale) SiO2 
 PCOD9279882
Probable space group: C 2/C
;
_chemical_formula_sum "Si O2"
_cell_formula_units_Z 48
_cell_length_a 17.495511
_cell_length_b 14.975970
_cell_length_c 18.001854
_cell_angle_alpha 90.000000
_cell_angle_beta 148.200403
_cell_angle_gamma 90.000000
_cell_volume 2485.467489
_symmetry_space_group_name_H-M "C 2/C"
_symmetry_group_IT_number 15
_symmetry_cell_setting 'monoclinic'
loop_
_space_group_symop_operation_xyz
x,y,z
-x,y,1/2-z
-x,-y,-z
x,-y,1/2+z
1/2+x,1/2+y,z
1/2-x,1/2+y,1/2-z
1/2-x,1/2-y,-z
1/2+x,1/2-y,1/2+z
loop_
_atom_site_type_symbol
_atom_site_label
_atom_site_fract_x
_atom_site_fract_y
_atom_site_fract_z
Si Si1 0.208288 0.140493 0.032602
Si Si2 0.348661 0.696589 0.985055
Si Si3 0.500000 0.253997 0.250000
Si Si4 0.088902 0.088439 0.092835
Si Si5 0.000000 0.174969 0.250000
Si Si6 0.161279 0.456663 0.411301
Si Si7 0.747825 0.888460 0.632398
O O1 0.360866 0.195019 0.160525
O O2 0.153765 0.126845 0.071103
O O3 0.245722 0.045826 0.025567
O O4 0.078650 0.187510 0.879043
O O5 0.239132 0.620850 0.925579
O O6 0.284370 0.782345 0.890945
O O7 0.473600 0.654003 0.037613
O O8 0.418626 0.731259 0.120605
O O9 0.218573 0.072610 0.259521
O O10 0.000000 0.000000 0.000000
O O11 0.897879 0.110080 0.211261
O O12 0.147777 0.434347 0.488316
O O13 0.000000 0.470948 0.250000
#
# Coordination Sequence:
#
# PCOD9279882 Si02
#       7
#     8   8   4   8   4   8   8
#     4  11  24  46  69  92 125 168 229 268 328 371
#     4  10  21  36  60  95 132 169 202 257 322 389
#     4  10  26  47  71  90 116 176 230 280 301 387
#     4  11  24  42  61  92 131 168 211 262 323 383
#     4   8  16  33  55  84 122 160 206 232 305 381
#     4  11  22  38  66  95 131 166 215 264 320 391
#     4  10  23  35  61  94 127 168 204 255 321 386
#
# _framework density 19.312262
#
# number of rings (size 3 to 8) (size 9 to 14) (size 15 to 20)
#    0.000    1.667    2.500    2.000   11.667    0.667 
#    0.000    0.833    0.000    0.000    0.000    0.000 
#    0.000    0.000    0.000    0.000    0.000    0.000 
#
# Total GULP energy -133745.973775 kJ/mol
# GULP energy per Si atom -5572.748907 kJ/mol
# Density = 1.926831 g / cm^3
# Si number density = 19.312262 Si / 1000 Ang^3
#
#
#
# Elastic Constant Matrix: (Units=GPa)
#
#
# Indices 1 2 3 4 5 6 
#
# 1 102.7980 40.5582 49.7350 0.0002 -15.1868 0.0001
# 2 40.5582 98.1119 59.9489 0.0002 -7.8158 0.0001
# 3 49.7350 59.9489 146.6288 0.0004 -15.9171 0.0002
# 4 0.0002 0.0002 0.0004 21.4842 0.0002 -6.3788
# 5 -15.1868 -7.8158 -15.9171 0.0002 33.6144 0.0001
# 6 0.0001 0.0001 0.0002 -6.3788 0.0001 9.3250
#
#
#
# Elastic Compliance Matrix: (Units=1/GPa)
#
#
# Indices 1 2 3 4 5 6 
#
# 1 0.012890 -0.003474 -0.002538 0.000000 0.003814 0.000000
# 2 -0.003474 0.014533 -0.004814 0.000000 -0.000470 0.000000
# 3 -0.002538 -0.004814 0.009913 0.000000 0.002428 0.000000
# 4 0.000000 0.000000 0.000000 0.058409 -0.000001 0.039955
# 5 0.003814 -0.000470 0.002428 -0.000001 0.032513 -0.000001
# 6 0.000000 0.000000 0.000000 0.039955 -0.000001 0.134570
#
#
# Mechanical properties :
#
#
# Convention : Reuss Voigt Hill
#
# Bulk Modulus (GPa) = 63.76349 72.00254 67.88301
# Shear Modulus (GPa) = 17.25884 26.03782 21.64833
#
# Velocity S-wave (km/s) = 2.99268 3.67584 3.35171
# Velocity P-wave (km/s) = 6.71046 7.44177 7.08556
#
# Compressibility (1/GPa) = 0.01568296
#
# Stress axis : x y z
#
# Youngs Moduli (GPa) = 77.58137 68.80977 100.88156
#
# Poissons Ratio (x) = 0.23905 0.25600
# Poissons Ratio (y) = 0.26952 0.48568
# Poissons Ratio (z) = 0.19688 0.33128
#
# Static dielectric constant tensor:
#      x y z
#    x 1.669770 0.000000 0.034580 
#    y 0.000000 1.709210 0.000000 
#    z 0.034580 0.000000 1.789940 
# 
# From -- ./inp_files/162390.got.cif
#   From: 2010.05.17/outbox.cif.g08.bks.cpg/sg15_82_cif.got.tgz:162390.got - 2010.06.03 18:47:42.
