data_PCOD9279501
_publ_section_title
;
Structure prediction by ZEFSAII (Michael W. Deem and Ramdas Pophale) SiO2 
 PCOD9279501
Probable space group: C 2/C
;
_chemical_formula_sum "Si O2"
_cell_formula_units_Z 40
_cell_length_a 30.212273
_cell_length_b 6.652627
_cell_length_c 10.331004
_cell_angle_alpha 90.000000
_cell_angle_beta 120.470699
_cell_angle_gamma 90.000000
_cell_volume 1789.658806
_symmetry_space_group_name_H-M "C 2/C"
_symmetry_group_IT_number 15
_symmetry_cell_setting 'monoclinic'
loop_
_space_group_symop_operation_xyz
x,y,z
-x,y,1/2-z
-x,-y,-z
x,-y,1/2+z
1/2+x,1/2+y,z
1/2-x,1/2+y,1/2-z
1/2-x,1/2-y,-z
1/2+x,1/2-y,1/2+z
loop_
_atom_site_type_symbol
_atom_site_label
_atom_site_fract_x
_atom_site_fract_y
_atom_site_fract_z
Si Si1 0.618535 0.060281 0.217104
Si Si2 0.947202 0.192211 0.438375
Si Si3 0.545788 0.352145 0.218354
Si Si4 0.809450 0.801180 0.604782
Si Si5 0.855805 0.946591 0.408124
O O1 0.590549 0.192012 0.285435
O O2 0.637636 0.224225 0.142607
O O3 0.576390 0.911129 0.094621
O O4 0.661020 0.911067 0.335937
O O5 0.008743 0.197738 0.538656
O O6 0.935963 0.076451 0.286733
O O7 0.911886 0.058359 0.485253
O O8 0.500000 0.330986 0.250000
O O9 0.750000 0.750000 0.500000
O O10 0.830003 0.922694 0.509602
O O11 0.822186 0.926235 0.754567
#
# Coordination Sequence:
#
# PCOD9279501 Si02
#       5
#     8   8   8   8   8
#     4  10  23  41  66  99 131 179 228 281 338 410
#     4   9  21  40  60  92 136 174 224 276 337 401
#     4  10  21  35  62  94 133 178 222 276 333 409
#     4  11  27  47  73 101 138 181 230 291 348 409
#     4  10  25  45  71  99 138 177 231 290 343 410
#
# _framework density 22.350631
#
# number of rings (size 3 to 8) (size 9 to 14) (size 15 to 20)
#    0.000    2.000    0.000    0.600   14.000    3.200 
#    0.000    0.000    0.000    0.000    0.000    0.000 
#    0.000    0.000    0.000    0.000    0.000    0.000 
#
# Total GULP energy -111607.868555 kJ/mol
# GULP energy per Si atom -5580.393428 kJ/mol
# Density = 2.229976 g / cm^3
# Si number density = 22.350631 Si / 1000 Ang^3
#
#
#
# Elastic Constant Matrix: (Units=GPa)
#
#
# Indices 1 2 3 4 5 6 
#
# 1 100.2319 33.3152 30.9778 0.0000 6.8402 0.0000
# 2 33.3152 135.6088 28.2399 0.0000 8.1609 0.0000
# 3 30.9778 28.2399 45.1963 0.0000 -1.1599 0.0000
# 4 0.0000 0.0000 0.0000 33.1924 0.0000 3.5802
# 5 6.8402 8.1609 -1.1599 0.0000 49.2077 0.0000
# 6 0.0000 0.0000 0.0000 3.5802 0.0000 28.8034
#
#
#
# Elastic Compliance Matrix: (Units=1/GPa)
#
#
# Indices 1 2 3 4 5 6 
#
# 1 0.013080 -0.001414 -0.008127 0.000000 -0.001775 0.000000
# 2 -0.001414 0.008747 -0.004531 0.000000 -0.001361 0.000000
# 3 -0.008127 -0.004531 0.030594 0.000000 0.002602 0.000000
# 4 0.000000 0.000000 0.000000 0.030537 0.000000 -0.003796
# 5 -0.001775 -0.001361 0.002602 0.000000 0.020856 0.000000
# 6 0.000000 0.000000 0.000000 -0.003796 0.000000 0.035190
#
#
# Mechanical properties :
#
#
# Convention : Reuss Voigt Hill
#
# Bulk Modulus (GPa) = 41.19218 51.78920 46.49069
# Shear Modulus (GPa) = 28.53238 34.80763 31.67001
#
# Velocity S-wave (km/s) = 3.57680 3.95060 3.76834
# Velocity P-wave (km/s) = 5.96054 6.63560 6.30711
#
# Compressibility (1/GPa) = 0.02427645
#
# Stress axis : x y z
#
# Youngs Moduli (GPa) = 76.45413 114.32453 32.68633
#
# Poissons Ratio (x) = 0.16167 0.26564
# Poissons Ratio (y) = 0.10811 0.14810
# Poissons Ratio (z) = 0.62134 0.51801
#
# Static dielectric constant tensor:
#      x y z
#    x 1.812600 0.000000 -0.041890 
#    y 0.000000 1.815520 0.000000 
#    z -0.041890 0.000000 2.173860 
# 
# From -- ./inp_files/120714.got.cif
#   From: 2010.05.17/outbox.cif.g08.bks.cpg/sg15_61_cif.got.tgz:120714.got - 2010.06.03 18:47:42.
