data_PCOD9279934
_publ_section_title
;
Structure prediction by ZEFSAII (Michael W. Deem and Ramdas Pophale) SiO2 
 PCOD9279934
Probable space group: C 2/C
;
_chemical_formula_sum "Si O2"
_cell_formula_units_Z 64
_cell_length_a 25.316532
_cell_length_b 20.651708
_cell_length_c 8.170629
_cell_angle_alpha 90.000000
_cell_angle_beta 134.112707
_cell_angle_gamma 90.000000
_cell_volume 3067.066217
_symmetry_space_group_name_H-M "C 2/C"
_symmetry_group_IT_number 15
_symmetry_cell_setting 'monoclinic'
loop_
_space_group_symop_operation_xyz
x,y,z
-x,y,1/2-z
-x,-y,-z
x,-y,1/2+z
1/2+x,1/2+y,z
1/2-x,1/2+y,1/2-z
1/2-x,1/2-y,-z
1/2+x,1/2-y,1/2+z
loop_
_atom_site_type_symbol
_atom_site_label
_atom_site_fract_x
_atom_site_fract_y
_atom_site_fract_z
Si Si1 0.916560 0.053546 0.541306
Si Si2 0.899103 0.088180 0.868619
Si Si3 0.660956 0.001870 0.527818
Si Si4 0.193627 0.395100 0.367250
Si Si5 0.342726 0.366921 0.586006
Si Si6 0.443293 0.051938 0.448631
Si Si7 0.971625 0.658989 0.013917
Si Si8 0.012556 0.790191 0.598570
O O1 0.878283 0.068675 0.635615
O O2 0.874919 0.083314 0.293728
O O3 0.000000 0.079195 0.750000
O O4 0.926686 0.978495 0.511342
O O5 0.844099 0.111137 0.896795
O O6 0.959331 0.146448 0.980756
O O7 0.702951 0.939485 0.548980
O O8 0.587541 0.971492 0.447474
O O9 0.697449 0.048908 0.736350
O O10 0.630867 0.047706 0.319762
O O11 0.261790 0.349777 0.473641
O O12 0.114253 0.360273 0.191051
O O13 0.403164 0.311597 0.725753
O O14 0.481185 0.120237 0.516742
O O15 0.500000 0.000000 0.500000
O O16 0.000000 0.633414 0.250000
O O17 0.994012 0.733773 0.046907
O O18 0.000000 0.760340 0.750000
#
# Coordination Sequence:
#
# PCOD9279934 Si02
#       8
#     8   8   8   8   8   8   8   8
#     4  12  21  36  69  97 127 166 212 265 334 383
#     4  11  23  41  67 100 128 170 217 276 327 386
#     4  10  21  36  61  94 130 160 207 262 332 395
#     4  11  25  39  61  96 134 174 204 263 338 393
#     4  11  25  44  61  96 141 170 210 269 325 402
#     4  11  18  35  63  93 122 155 212 282 317 369
#     4  12  24  40  67  94 122 174 224 268 323 383
#     4  10  25  44  66  91 124 168 226 274 316 381
#
# _framework density 20.866847
#
# number of rings (size 3 to 8) (size 9 to 14) (size 15 to 20)
#    0.000    1.000    6.250    1.875    5.250    0.500 
#    2.250    0.000    0.000    1.500    0.000    0.000 
#    0.000    0.000    0.000    0.000    0.000    0.000 
#
# Total GULP energy -178209.495266 kJ/mol
# GULP energy per Si atom -5569.046727 kJ/mol
# Density = 2.081935 g / cm^3
# Si number density = 20.866847 Si / 1000 Ang^3
#
#
#
# Elastic Constant Matrix: (Units=GPa)
#
#
# Indices 1 2 3 4 5 6 
#
# 1 97.2213 28.8601 26.6261 0.0000 0.9558 0.0000
# 2 28.8601 72.4803 15.8346 0.0000 -1.9268 0.0000
# 3 26.6261 15.8346 34.1428 0.0000 -13.0096 0.0000
# 4 0.0000 0.0000 0.0000 17.5305 0.0000 -11.0889
# 5 0.9558 -1.9268 -13.0096 0.0000 44.4302 0.0000
# 6 0.0000 0.0000 0.0000 -11.0889 0.0000 14.2504
#
#
#
# Elastic Compliance Matrix: (Units=1/GPa)
#
#
# Indices 1 2 3 4 5 6 
#
# 1 0.014349 -0.003405 -0.011013 0.000000 -0.003681 0.000000
# 2 -0.003405 0.016262 -0.005166 0.000000 -0.000734 0.000000
# 3 -0.011013 -0.005166 0.045337 0.000000 0.013288 0.000000
# 4 0.000000 0.000000 0.000000 0.112338 0.000000 0.087415
# 5 -0.003681 -0.000734 0.013288 0.000000 0.026445 0.000000
# 6 0.000000 0.000000 0.000000 0.087415 0.000000 0.138195
#
#
# Mechanical properties :
#
#
# Convention : Reuss Voigt Hill
#
# Bulk Modulus (GPa) = 27.19014 38.49844 32.84429
# Shear Modulus (GPa) = 12.36536 24.07712 18.22124
#
# Velocity S-wave (km/s) = 2.43695 3.40052 2.95823
# Velocity P-wave (km/s) = 4.58005 5.82303 5.23854
#
# Compressibility (1/GPa) = 0.03677804
#
# Stress axis : x y z
#
# Youngs Moduli (GPa) = 69.69065 61.49356 22.05724
#
# Poissons Ratio (x) = 0.20940 0.24293
# Poissons Ratio (y) = 0.23732 0.11395
# Poissons Ratio (z) = 0.76754 0.31768
#
# Static dielectric constant tensor:
#      x y z
#    x 1.809850 0.000000 -0.051220 
#    y 0.000000 1.800430 0.000000 
#    z -0.051220 0.000000 1.844590 
# 
# From -- ./inp_files/63415.got.cif
#   From: 2010.05.17/outbox.cif.g08.bks.cpg/sg15_32_cif.got.tgz:63415.got - 2010.06.03 18:47:42.
