data_PCOD9279294
_publ_section_title
;
Structure prediction by ZEFSAII (Michael W. Deem and Ramdas Pophale) SiO2 
 PCOD9279294
Probable space group: C 2/C
;
_chemical_formula_sum "Si O2"
_cell_formula_units_Z 44
_cell_length_a 20.509541
_cell_length_b 17.591611
_cell_length_c 8.799819
_cell_angle_alpha 90.000000
_cell_angle_beta 126.871460
_cell_angle_gamma 90.000000
_cell_volume 2539.898715
_symmetry_space_group_name_H-M "C 2/C"
_symmetry_group_IT_number 15
_symmetry_cell_setting 'monoclinic'
loop_
_space_group_symop_operation_xyz
x,y,z
-x,y,1/2-z
-x,-y,-z
x,-y,1/2+z
1/2+x,1/2+y,z
1/2-x,1/2+y,1/2-z
1/2-x,1/2-y,-z
1/2+x,1/2-y,1/2+z
loop_
_atom_site_type_symbol
_atom_site_label
_atom_site_fract_x
_atom_site_fract_y
_atom_site_fract_z
Si Si1 0.183072 0.972358 0.474973
Si Si2 0.429952 0.560770 0.944288
Si Si3 0.081092 0.336486 0.277304
Si Si4 0.296298 0.941498 0.896557
Si Si5 0.444722 0.054510 0.027979
Si Si6 0.500000 0.689282 0.250000
O O1 0.124995 0.925276 0.281331
O O2 0.245484 0.928590 0.671889
O O3 0.126395 0.021973 0.506351
O O4 0.235774 0.026833 0.440091
O O5 0.500000 0.500000 0.000000
O O6 0.467053 0.635663 0.071001
O O7 0.157576 0.368295 0.475630
O O8 0.067798 0.246548 0.275586
O O9 0.000000 0.367863 0.250000
O O10 0.079966 0.373086 0.108910
O O11 0.364853 0.006413 0.963011
O O12 0.500000 0.075037 0.250000
O O13 0.500000 0.000000 0.000000
#
# Coordination Sequence:
#
# PCOD9279294 Si02
#       6
#     8   8   8   8   8   4
#     4  10  22  32  63  92 110 144 202 253 292 325
#     4  11  20  42  65  85 102 149 212 257 286 347
#     4  10  21  35  56  85 126 161 184 234 288 346
#     4  11  18  33  55  92 125 149 193 232 286 354
#     4  12  17  30  56  87 121 169 201 221 259 349
#     4  10  22  40  64  82 118 146 206 242 298 340
#
# _framework density 17.323526000000001
#
# number of rings (size 3 to 8) (size 9 to 14) (size 15 to 20)
#    0.545    0.727    7.273    0.000    0.000    0.000 
#    0.000    3.636    0.000    0.000    0.000    0.000 
#    0.000    0.000    0.000    0.000    0.000    0.000 
#
# Total GULP energy -122650.935531 kJ/mol
# GULP energy per Si atom -5575.042524 kJ/mol
# Density = 1.728410 g / cm^3
# Si number density = 17.323526 Si / 1000 Ang^3
#
#
#
# Elastic Constant Matrix: (Units=GPa)
#
#
# Indices 1 2 3 4 5 6 
#
# 1 94.4824 25.2997 25.9345 0.0000 0.6307 0.0000
# 2 25.2997 110.8731 78.3512 0.0000 1.6254 0.0000
# 3 25.9345 78.3512 213.4482 0.0000 -3.1337 0.0000
# 4 0.0000 0.0000 0.0000 32.2880 0.0000 -1.1331
# 5 0.6307 1.6254 -3.1337 0.0000 26.6442 0.0000
# 6 0.0000 0.0000 0.0000 -1.1331 0.0000 10.1125
#
#
#
# Elastic Compliance Matrix: (Units=1/GPa)
#
#
# Indices 1 2 3 4 5 6 
#
# 1 0.011326 -0.002170 -0.000583 0.000000 -0.000204 0.000000
# 2 -0.002170 0.012637 -0.004393 0.000000 -0.001236 0.000000
# 3 -0.000583 -0.004393 0.006384 0.000000 0.001033 0.000000
# 4 0.000000 0.000000 0.000000 0.031094 0.000000 0.003484
# 5 -0.000204 -0.001236 0.001033 0.000000 0.037733 0.000000
# 6 0.000000 0.000000 0.000000 0.003484 0.000000 0.099278
#
#
# Mechanical properties :
#
#
# Convention : Reuss Voigt Hill
#
# Bulk Modulus (GPa) = 62.28358 75.33051 68.80704
# Shear Modulus (GPa) = 22.92576 33.09015 28.00796
#
# Velocity S-wave (km/s) = 3.64179 4.37524 4.02526
# Velocity P-wave (km/s) = 7.32903 8.31280 7.83637
#
# Compressibility (1/GPa) = 0.01605560
#
# Stress axis : x y z
#
# Youngs Moduli (GPa) = 88.29025 79.13164 156.65127
#
# Poissons Ratio (x) = 0.17169 0.09129
# Poissons Ratio (y) = 0.19156 0.68822
# Poissons Ratio (z) = 0.05145 0.34765
#
# Static dielectric constant tensor:
#      x y z
#    x 1.593570 0.000000 0.009710 
#    y 0.000000 1.561620 0.000000 
#    z 0.009710 0.000000 1.618210 
# 
# From -- ./inp_files/56281.got.cif
#   From: 2010.05.17/outbox.cif.g08.bks.cpg/sg15_29_cif.got.tgz:56281.got - 2010.06.03 18:47:42.
