data_PCOD9279260
_publ_section_title
;
Structure prediction by ZEFSAII (Michael W. Deem and Ramdas Pophale) SiO2 
 PCOD9279260
Probable space group: C 2/C
;
_chemical_formula_sum "Si O2"
_cell_formula_units_Z 56
_cell_length_a 18.467279
_cell_length_b 21.823517
_cell_length_c 8.438821
_cell_angle_alpha 90.000000
_cell_angle_beta 124.601236
_cell_angle_gamma 90.000000
_cell_volume 2799.463142
_symmetry_space_group_name_H-M "C 2/C"
_symmetry_group_IT_number 15
_symmetry_cell_setting 'monoclinic'
loop_
_space_group_symop_operation_xyz
x,y,z
-x,y,1/2-z
-x,-y,-z
x,-y,1/2+z
1/2+x,1/2+y,z
1/2-x,1/2+y,1/2-z
1/2-x,1/2-y,-z
1/2+x,1/2-y,1/2+z
loop_
_atom_site_type_symbol
_atom_site_label
_atom_site_fract_x
_atom_site_fract_y
_atom_site_fract_z
Si Si1 0.911264 0.462445 0.042220
Si Si2 0.420538 0.651522 0.246589
Si Si3 0.294442 0.820989 0.365434
Si Si4 0.593604 0.908443 0.818182
Si Si5 0.232771 0.623593 0.001516
Si Si6 0.474254 0.248654 0.038348
Si Si7 0.354748 0.760647 0.930411
O O1 0.899659 0.535236 0.049094
O O2 0.830206 0.430360 0.026152
O O3 0.000000 0.446343 0.250000
O O4 0.912836 0.438160 0.863984
O O5 0.500000 0.620761 0.250000
O O6 0.460645 0.684251 0.448272
O O7 0.333804 0.613598 0.173805
O O8 0.385870 0.709221 0.095742
O O9 0.327150 0.860867 0.555453
O O10 0.270628 0.865586 0.190618
O O11 0.381617 0.785747 0.414431
O O12 0.213017 0.773712 0.272950
O O13 0.500000 0.878417 0.750000
O O14 0.195532 0.684824 0.042811
O O15 0.500000 0.255227 0.250000
O O16 0.555412 0.218252 0.043032
#
# Coordination Sequence:
#
# PCOD9279260 Si02
#       7
#     8   8   8   8   8   8   8
#     4  11  24  38  60  84 115 154 189 241 279 343
#     4   9  18  37  53  75 110 150 190 225 276 343
#     4  11  21  37  55  80 116 150 193 239 277 344
#     4  11  23  41  56  84 115 153 197 232 287 335
#     4  11  20  35  58  83 109 153 192 231 288 336
#     4  11  22  31  48  77 115 150 183 233 279 326
#     4  10  21  35  55  79 111 156 193 228 284 343
#
# _framework density 20.003836
#
# number of rings (size 3 to 8) (size 9 to 14) (size 15 to 20)
#    0.000    1.429    2.857    4.714    6.000    1.714 
#    0.000    0.000    0.000    0.000    0.000   17.000 
#    0.000    0.000    0.000    0.000    0.000    0.000 
#
# Total GULP energy -156438.875899 kJ/mol
# GULP energy per Si atom -5587.102711 kJ/mol
# Density = 1.995831 g / cm^3
# Si number density = 20.003836 Si / 1000 Ang^3
#
#
#
# Elastic Constant Matrix: (Units=GPa)
#
#
# Indices 1 2 3 4 5 6 
#
# 1 76.5784 7.3266 9.7865 0.0000 27.2400 0.0000
# 2 7.3266 40.2722 19.4234 0.0000 10.9763 0.0000
# 3 9.7865 19.4234 81.9029 0.0000 1.0231 0.0000
# 4 0.0000 0.0000 0.0000 30.6046 0.0000 3.4361
# 5 27.2400 10.9763 1.0231 0.0000 39.4687 0.0000
# 6 0.0000 0.0000 0.0000 3.4361 0.0000 23.3214
#
#
#
# Elastic Compliance Matrix: (Units=1/GPa)
#
#
# Indices 1 2 3 4 5 6 
#
# 1 0.017668 0.001280 -0.002259 0.000000 -0.012491 0.000000
# 2 0.001280 0.030631 -0.007302 0.000000 -0.009212 0.000000
# 3 -0.002259 -0.007302 0.014171 0.000000 0.003222 0.000000
# 4 0.000000 0.000000 0.000000 0.033224 0.000000 -0.004895
# 5 -0.012491 -0.009212 0.003222 0.000000 0.036436 0.000000
# 6 0.000000 0.000000 0.000000 -0.004895 0.000000 0.043600
#
#
# Mechanical properties :
#
#
# Convention : Reuss Voigt Hill
#
# Bulk Modulus (GPa) = 21.78279 30.20295 25.99287
# Shear Modulus (GPa) = 24.08533 29.49338 26.78936
#
# Velocity S-wave (km/s) = 3.47369 3.84394 3.66349
# Velocity P-wave (km/s) = 5.19631 5.90191 5.56031
#
# Compressibility (1/GPa) = 0.04590781
#
# Stress axis : x y z
#
# Youngs Moduli (GPa) = 56.59943 32.64677 70.56720
#
# Poissons Ratio (x) = -0.04177 0.15938
# Poissons Ratio (y) = -0.07242 0.51528
# Poissons Ratio (z) = 0.12783 0.23839
#
# Static dielectric constant tensor:
#      x y z
#    x 1.748980 0.000000 0.009980 
#    y 0.000000 1.708590 0.000000 
#    z 0.009980 0.000000 1.759580 
# 
# From -- ./inp_files/42109.got.cif
#   From: 2010.05.17/outbox.cif.g08.bks.cpg/sg15_22_cif.got.tgz:42109.got - 2010.06.03 18:47:42.
