data_PCOD9279736
_publ_section_title
;
Structure prediction by ZEFSAII (Michael W. Deem and Ramdas Pophale) SiO2 
 PCOD9279736
Probable space group: C 2/C
;
_chemical_formula_sum "Si O2"
_cell_formula_units_Z 60
_cell_length_a 16.899504
_cell_length_b 13.104487
_cell_length_c 16.771140
_cell_angle_alpha 90.000000
_cell_angle_beta 59.043950
_cell_angle_gamma 90.000000
_cell_volume 3185.093282
_symmetry_space_group_name_H-M "C 2/C"
_symmetry_group_IT_number 15
_symmetry_cell_setting 'monoclinic'
loop_
_space_group_symop_operation_xyz
x,y,z
-x,y,1/2-z
-x,-y,-z
x,-y,1/2+z
1/2+x,1/2+y,z
1/2-x,1/2+y,1/2-z
1/2-x,1/2-y,-z
1/2+x,1/2-y,1/2+z
loop_
_atom_site_type_symbol
_atom_site_label
_atom_site_fract_x
_atom_site_fract_y
_atom_site_fract_z
Si Si1 0.329088 0.321934 0.277988
Si Si2 0.359668 0.754209 0.929925
Si Si3 0.022045 0.450677 0.644476
Si Si4 0.335219 0.439160 0.744124
Si Si5 0.864191 0.340370 0.626968
Si Si6 0.957083 0.316411 0.413559
Si Si7 0.631112 0.715104 0.403892
Si Si8 0.000000 0.171411 0.250000
O O1 0.381154 0.297346 0.334155
O O2 0.329617 0.440073 0.256189
O O3 0.366470 0.255430 0.185590
O O4 0.226004 0.278333 0.346514
O O5 0.396099 0.869865 0.911992
O O6 0.250000 0.750000 0.000000
O O7 0.398813 0.702381 0.989141
O O8 0.045871 0.566792 0.612566
O O9 0.000000 0.442887 0.750000
O O10 0.938544 0.417084 0.628995
O O11 0.237025 0.390654 0.820009
O O12 0.353575 0.393179 0.646599
O O13 0.420727 0.396061 0.750651
O O14 0.889895 0.308299 0.524153
O O15 0.948431 0.242960 0.341768
O O16 0.055913 0.282445 0.397351
#
# Coordination Sequence:
#
# PCOD9279736 Si02
#       8
#     8   8   8   8   8   8   8   4
#     4  10  21  40  60  87 128 157 200 252 299 359
#     4  10  21  36  57  91 126 156 195 250 302 361
#     4  12  22  37  63  98 123 155 200 250 318 351
#     4  10  23  42  62  86 121 167 202 241 314 351
#     4  11  23  38  64  95 117 155 209 256 291 369
#     4  11  22  40  64  88 123 155 203 257 306 350
#     4   9  20  40  61  88 121 158 203 253 303 358
#     4  10  24  46  58  84 128 164 198 252 298 370
#
# _framework density 18.837752999999999
#
# number of rings (size 3 to 8) (size 9 to 14) (size 15 to 20)
#    0.000    1.600    3.333    1.200    3.733    1.600 
#    2.400    1.333    0.000    0.000    0.000    0.000 
#    0.000    0.000    0.000    0.000    0.000    0.000 
#
# Total GULP energy -167377.694012 kJ/mol
# GULP energy per Si atom -5579.256467 kJ/mol
# Density = 1.879488 g / cm^3
# Si number density = 18.837753 Si / 1000 Ang^3
#
#
#
# Elastic Constant Matrix: (Units=GPa)
#
#
# Indices 1 2 3 4 5 6 
#
# 1 51.7898 36.0018 8.0203 0.0000 2.8820 0.0000
# 2 36.0018 142.8966 49.4161 0.0000 15.8658 0.0000
# 3 8.0203 49.4161 97.3199 0.0000 16.5994 0.0000
# 4 0.0000 0.0000 0.0000 13.2118 0.0000 -0.0973
# 5 2.8820 15.8658 16.5994 0.0000 30.1602 0.0000
# 6 0.0000 0.0000 0.0000 -0.0973 0.0000 16.1426
#
#
#
# Elastic Compliance Matrix: (Units=1/GPa)
#
#
# Indices 1 2 3 4 5 6 
#
# 1 0.023549 -0.006410 0.001239 0.000000 0.000440 0.000000
# 2 -0.006410 0.010382 -0.004322 0.000000 -0.002470 0.000000
# 3 0.001239 -0.004322 0.013244 0.000000 -0.005134 0.000000
# 4 0.000000 0.000000 0.000000 0.075693 0.000000 0.000456
# 5 0.000440 -0.002470 -0.005134 0.000000 0.037239 0.000000
# 6 0.000000 0.000000 0.000000 0.000456 0.000000 0.061950
#
#
# Mechanical properties :
#
#
# Convention : Reuss Voigt Hill
#
# Bulk Modulus (GPa) = 35.47629 53.20918 44.34274
# Shear Modulus (GPa) = 19.96492 25.14080 22.55286
#
# Velocity S-wave (km/s) = 3.25904 3.65718 3.46383
# Velocity P-wave (km/s) = 5.74763 6.79269 6.29189
#
# Compressibility (1/GPa) = 0.02818784
#
# Stress axis : x y z
#
# Youngs Moduli (GPa) = 42.46548 96.32060 75.50870
#
# Poissons Ratio (x) = 0.61744 -0.09357
# Poissons Ratio (y) = 0.27222 0.32635
# Poissons Ratio (z) = -0.05262 0.41630
#
# Static dielectric constant tensor:
#      x y z
#    x 1.703400 0.000000 0.010710 
#    y 0.000000 1.606360 0.000000 
#    z 0.010710 0.000000 1.683600 
# 
# From -- ./inp_files/210611.got.cif
#   From: 2010.05.17/outbox.cif.g08.bks.cpg/sg15_106_cif.got.tgz:210611.got - 2010.06.03 18:47:42.
