data_PCOD9279997
_publ_section_title
;
Structure prediction by ZEFSAII (Michael W. Deem and Ramdas Pophale) SiO2 
 PCOD9279997
Probable space group: C 2/C
;
_chemical_formula_sum "Si O2"
_cell_formula_units_Z 36
_cell_length_a 20.817206
_cell_length_b 5.140445
_cell_length_c 18.255987
_cell_angle_alpha 90.000000
_cell_angle_beta 50.610402
_cell_angle_gamma 90.000000
_cell_volume 1509.812473
_symmetry_space_group_name_H-M "C 2/C"
_symmetry_group_IT_number 15
_symmetry_cell_setting 'monoclinic'
loop_
_space_group_symop_operation_xyz
x,y,z
-x,y,1/2-z
-x,-y,-z
x,-y,1/2+z
1/2+x,1/2+y,z
1/2-x,1/2+y,1/2-z
1/2-x,1/2-y,-z
1/2+x,1/2-y,1/2+z
loop_
_atom_site_type_symbol
_atom_site_label
_atom_site_fract_x
_atom_site_fract_y
_atom_site_fract_z
Si Si1 0.059108 0.249365 0.955771
Si Si2 0.372357 0.349888 0.938402
Si Si3 0.500000 0.591046 0.750000
Si Si4 0.672821 0.836829 0.612007
Si Si5 0.789507 0.335508 0.753030
O O1 0.119753 0.259848 0.842575
O O2 0.118113 0.231310 0.984903
O O3 0.000000 0.500000 0.000000
O O4 0.000000 0.000000 0.000000
O O5 0.465192 0.414601 0.841168
O O6 0.335208 0.119634 0.916940
O O7 0.320720 0.610869 0.954965
O O8 0.578778 0.768541 0.709109
O O9 0.722102 0.812373 0.651729
O O10 0.771738 0.629857 0.741132
#
# Coordination Sequence:
#
# PCOD9279997 Si02
#       5
#     8   8   4   8   8
#     4  12  26  43  70 105 137 172 233 290 330 388
#     4  10  21  36  62  97 123 166 222 282 319 385
#     4   8  20  32  68  90 132 156 232 268 336 370
#     4  10  21  38  64  92 124 179 221 266 324 409
#     4  12  27  47  67  98 145 187 216 272 356 415
#
# _framework density 23.844021999999999
#
# number of rings (size 3 to 8) (size 9 to 14) (size 15 to 20)
#    1.333    0.000    0.000    6.000    6.222    0.000 
#    0.000    6.667    0.000    0.000    0.000    0.000 
#    0.000    0.000    0.000    0.000    0.000    0.000 
#
# Total GULP energy -100664.509362 kJ/mol
# GULP energy per Si atom -5592.472742 kJ/mol
# Density = 2.378975 g / cm^3
# Si number density = 23.844022 Si / 1000 Ang^3
#
#
#
# Elastic Constant Matrix: (Units=GPa)
#
#
# Indices 1 2 3 4 5 6 
#
# 1 104.8580 28.8979 25.0198 0.0194 48.1505 -0.0067
# 2 28.8979 146.7667 31.9427 0.0661 11.6992 0.1370
# 3 25.0198 31.9427 121.7226 0.0126 28.2767 0.0022
# 4 0.0194 0.0661 0.0126 30.7373 0.0105 -12.3417
# 5 48.1505 11.6992 28.2767 0.0105 48.8653 0.0303
# 6 -0.0067 0.1370 0.0022 -12.3417 0.0303 44.7962
#
#
#
# Elastic Compliance Matrix: (Units=1/GPa)
#
#
# Indices 1 2 3 4 5 6 
#
# 1 0.018191 -0.002380 0.001060 0.000009 -0.017968 0.000025
# 2 -0.002380 0.007560 -0.001871 -0.000027 0.001618 -0.000032
# 3 0.001060 -0.001871 0.009967 0.000006 -0.006364 0.000011
# 4 0.000009 -0.000027 0.000006 0.036580 -0.000020 0.010078
# 5 -0.017968 0.001618 -0.006364 -0.000020 0.041464 -0.000041
# 6 0.000025 -0.000032 0.000011 0.010078 -0.000041 0.025100
#
#
# Mechanical properties :
#
#
# Convention : Reuss Voigt Hill
#
# Bulk Modulus (GPa) = 34.08830 60.56311 47.32571
# Shear Modulus (GPa) = 32.25322 44.04558 38.14940
#
# Velocity S-wave (km/s) = 3.68186 4.30261 4.00429
# Velocity P-wave (km/s) = 5.69230 7.08083 6.42419
#
# Compressibility (1/GPa) = 0.02933558
#
# Stress axis : x y z
#
# Youngs Moduli (GPa) = 54.97364 132.26871 100.33324
#
# Poissons Ratio (x) = 0.31480 -0.10631
# Poissons Ratio (y) = 0.13084 0.18768
# Poissons Ratio (z) = -0.05825 0.24742
#
# Static dielectric constant tensor:
#      x y z
#    x 1.899570 0.000530 -0.031390 
#    y 0.000530 1.852110 -0.000570 
#    z -0.031390 -0.000570 2.095910 
# 
# From -- ./inp_files/250965.got.cif
#   From: 2010.05.17/outbox.cif.g08.bks.cpg/sg15_126_cif.got.tgz:250965.got - 2010.06.03 18:47:42.
