data_PCOD9279112
_publ_section_title
;
Structure prediction by ZEFSAII (Michael W. Deem and Ramdas Pophale) SiO2 
 PCOD9279112
Probable space group: C 2/C
;
_chemical_formula_sum "Si O2"
_cell_formula_units_Z 56
_cell_length_a 26.225172
_cell_length_b 20.339249
_cell_length_c 8.706651
_cell_angle_alpha 90.000000
_cell_angle_beta 33.543407
_cell_angle_gamma 90.000000
_cell_volume 2566.200452
_symmetry_space_group_name_H-M "C 2/C"
_symmetry_group_IT_number 15
_symmetry_cell_setting 'monoclinic'
loop_
_space_group_symop_operation_xyz
x,y,z
-x,y,1/2-z
-x,-y,-z
x,-y,1/2+z
1/2+x,1/2+y,z
1/2-x,1/2+y,1/2-z
1/2-x,1/2-y,-z
1/2+x,1/2-y,1/2+z
loop_
_atom_site_type_symbol
_atom_site_label
_atom_site_fract_x
_atom_site_fract_y
_atom_site_fract_z
Si Si1 0.287794 0.329699 0.176333
Si Si2 0.954982 0.561370 0.197056
Si Si3 0.565841 0.732430 0.362317
Si Si4 0.862361 0.211462 0.982226
Si Si5 0.253438 0.600449 0.085044
Si Si6 0.606866 0.876321 0.189130
Si Si7 0.280426 0.051185 0.828150
O O1 0.212832 0.270762 0.343115
O O2 0.268314 0.363306 0.387406
O O3 0.280171 0.386878 0.067665
O O4 0.390790 0.302740 0.894387
O O5 0.851472 0.549039 0.504713
O O6 0.000000 0.575214 0.250000
O O7 0.000000 0.500000 0.000000
O O8 0.996024 0.615858 0.982549
O O9 0.455361 0.730282 0.654413
O O10 0.604751 0.704623 0.425144
O O11 0.615313 0.803324 0.229726
O O12 0.819115 0.142524 0.033809
O O13 0.151518 0.611329 0.412720
O O14 0.263670 0.521186 0.046231
O O15 0.662610 0.925157 0.164616
#
# Coordination Sequence:
#
# PCOD9279112 Si02
#       7
#     8   8   8   8   8   8   8
#     4  12  24  43  69 102 132 178 229 282 340 400
#     4  10  21  34  57  91 132 168 214 262 336 406
#     4  11  24  44  71  93 128 183 233 280 328 402
#     4  11  24  45  68  98 134 178 232 278 335 410
#     4  12  25  40  64 101 141 174 219 277 349 402
#     4  11  21  40  63  95 132 176 223 276 335 409
#     4  11  23  41  65  94 137 181 221 274 339 417
#
# _framework density 21.822146
#
# number of rings (size 3 to 8) (size 9 to 14) (size 15 to 20)
#    0.000    0.857    4.286    3.429    6.000    0.571 
#    0.000    2.143    0.000    1.714    0.000    0.000 
#    0.000    0.000    0.000    0.000    0.000    0.000 
#
# Total GULP energy -156137.141782 kJ/mol
# GULP energy per Si atom -5576.326492 kJ/mol
# Density = 2.177248 g / cm^3
# Si number density = 21.822146 Si / 1000 Ang^3
#
#
#
# Elastic Constant Matrix: (Units=GPa)
#
#
# Indices 1 2 3 4 5 6 
#
# 1 52.5832 33.7917 13.7011 0.0000 2.6687 0.0000
# 2 33.7917 140.6648 48.9956 0.0000 -9.8189 0.0000
# 3 13.7011 48.9956 149.7026 0.0000 14.6715 0.0000
# 4 0.0000 0.0000 0.0000 38.1896 0.0000 0.5348
# 5 2.6687 -9.8189 14.6715 0.0000 23.5029 0.0000
# 6 0.0000 0.0000 0.0000 0.5348 0.0000 21.9579
#
#
#
# Elastic Compliance Matrix: (Units=1/GPa)
#
#
# Indices 1 2 3 4 5 6 
#
# 1 0.023083 -0.006062 0.000401 0.000000 -0.005404 0.000000
# 2 -0.006062 0.010292 -0.003518 0.000000 0.007184 0.000000
# 3 0.000401 -0.003518 0.008461 0.000000 -0.006797 0.000000
# 4 0.000000 0.000000 0.000000 0.026194 0.000000 -0.000638
# 5 -0.005404 0.007184 -0.006797 0.000000 0.050406 0.000000
# 6 0.000000 0.000000 0.000000 -0.000638 0.000000 0.045557
#
#
# Mechanical properties :
#
#
# Convention : Reuss Voigt Hill
#
# Bulk Modulus (GPa) = 42.59277 59.54750 51.07014
# Shear Modulus (GPa) = 26.29141 33.16089 29.72615
#
# Velocity S-wave (km/s) = 3.47479 3.90243 3.69480
# Velocity P-wave (km/s) = 5.97155 6.90306 6.45413
#
# Compressibility (1/GPa) = 0.02347816
#
# Stress axis : x y z
#
# Youngs Moduli (GPa) = 43.32200 97.16160 118.19488
#
# Poissons Ratio (x) = 0.58900 -0.04740
# Poissons Ratio (y) = 0.26262 0.41578
# Poissons Ratio (z) = -0.01737 0.34179
#
# Static dielectric constant tensor:
#      x y z
#    x 1.551350 0.000000 0.118000 
#    y 0.000000 1.885000 0.000000 
#    z 0.118000 0.000000 1.798090 
# 
# From -- ./inp_files/70831.got.cif
#   From: 2010.05.17/outbox.cif.g08.bks.cpg/sg15_36_cif.got.tgz:70831.got - 2010.06.03 18:47:42.
