data_PCOD9279135
_publ_section_title
;
Structure prediction by ZEFSAII (Michael W. Deem and Ramdas Pophale) SiO2 
 PCOD9279135
Probable space group: C 2/C
;
_chemical_formula_sum "Si O2"
_cell_formula_units_Z 56
_cell_length_a 26.043931
_cell_length_b 14.938822
_cell_length_c 13.943613
_cell_angle_alpha 90.000000
_cell_angle_beta 151.987996
_cell_angle_gamma 90.000000
_cell_volume 2547.877724
_symmetry_space_group_name_H-M "C 2/C"
_symmetry_group_IT_number 15
_symmetry_cell_setting 'monoclinic'
loop_
_space_group_symop_operation_xyz
x,y,z
-x,y,1/2-z
-x,-y,-z
x,-y,1/2+z
1/2+x,1/2+y,z
1/2-x,1/2+y,1/2-z
1/2-x,1/2-y,-z
1/2+x,1/2-y,1/2+z
loop_
_atom_site_type_symbol
_atom_site_label
_atom_site_fract_x
_atom_site_fract_y
_atom_site_fract_z
Si Si1 0.289514 0.781528 0.793733
Si Si2 0.329772 0.968504 0.783920
Si Si3 0.699905 0.417447 0.220570
Si Si4 0.500000 0.171191 0.750000
Si Si5 0.392491 0.519716 0.261799
Si Si6 0.657775 0.722076 0.272323
Si Si7 0.578268 0.904765 0.201772
Si Si8 0.000000 0.965139 0.750000
O O1 0.279113 0.869689 0.710925
O O2 0.269889 0.685687 0.714759
O O3 0.207862 0.789145 0.749527
O O4 0.415266 0.778698 0.041356
O O5 0.286823 0.028438 0.800110
O O6 0.327419 0.033058 0.687054
O O7 0.459098 0.949080 0.003379
O O8 0.690239 0.465430 0.307002
O O9 0.589822 0.420786 0.970525
O O10 0.414744 0.116632 0.674503
O O11 0.500000 0.500000 0.500000
O O12 0.380941 0.627001 0.251332
O O13 0.419332 0.490446 0.196697
O O14 0.750000 0.750000 0.500000
O O15 0.579734 0.809402 0.148320
#
# Coordination Sequence:
#
# PCOD9279135 Si02
#       8
#     8   8   8   4   8   8   8   4
#     4  11  21  35  61  90 123 155 207 261 321 385
#     4  10  22  38  54  86 126 169 204 247 323 384
#     4  11  21  40  62  94 125 165 209 266 325 389
#     4  10  21  34  58  95 122 152 197 274 332 363
#     4  10  24  38  59  97 131 167 199 260 340 396
#     4  12  21  35  63 101 121 155 207 273 327 376
#     4  10  22  36  56  89 129 163 200 261 322 383
#     4  10  23  38  62  93 126 160 205 260 326 381
#
# _framework density 21.979075999999999
#
# number of rings (size 3 to 8) (size 9 to 14) (size 15 to 20)
#    0.000    1.429    4.286    1.286    8.000    0.000 
#    0.000    0.000    0.000    1.714    3.714    0.000 
#    0.000    0.000    0.000    0.000    0.000    0.000 
#
# Total GULP energy -155984.982742 kJ/mol
# GULP energy per Si atom -5570.892241 kJ/mol
# Density = 2.192905 g / cm^3
# Si number density = 21.979076 Si / 1000 Ang^3
#
#
#
# Elastic Constant Matrix: (Units=GPa)
#
#
# Indices 1 2 3 4 5 6 
#
# 1 215.4684 89.7460 13.4099 0.0000 10.2590 0.0000
# 2 89.7460 186.0619 31.9520 0.0000 5.7291 0.0000
# 3 13.4099 31.9520 32.1835 0.0000 3.5930 0.0000
# 4 0.0000 0.0000 0.0000 31.7746 0.0000 6.8333
# 5 10.2590 5.7291 3.5930 0.0000 32.4118 0.0000
# 6 0.0000 0.0000 0.0000 6.8333 0.0000 30.2142
#
#
#
# Elastic Compliance Matrix: (Units=1/GPa)
#
#
# Indices 1 2 3 4 5 6 
#
# 1 0.005876 -0.002890 0.000579 0.000000 -0.001413 0.000000
# 2 -0.002890 0.007907 -0.006674 0.000000 0.000257 0.000000
# 3 0.000579 -0.006674 0.037814 0.000000 -0.003195 0.000000
# 4 0.000000 0.000000 0.000000 0.033081 0.000000 -0.007482
# 5 -0.001413 0.000257 -0.003195 0.000000 0.031609 0.000000
# 6 0.000000 0.000000 0.000000 -0.007482 0.000000 0.034789
#
#
# Mechanical properties :
#
#
# Convention : Reuss Voigt Hill
#
# Bulk Modulus (GPa) = 29.73973 78.21441 53.97707
# Shear Modulus (GPa) = 27.73839 38.78721 33.26280
#
# Velocity S-wave (km/s) = 3.55637 4.20543 3.89445
# Velocity P-wave (km/s) = 5.51579 7.69701 6.69582
#
# Compressibility (1/GPa) = 0.03362506
#
# Stress axis : x y z
#
# Youngs Moduli (GPa) = 170.17997 126.47179 26.44538
#
# Poissons Ratio (x) = 0.36553 -0.01531
# Poissons Ratio (y) = 0.49185 0.17651
# Poissons Ratio (z) = -0.09850 0.84413
#
# Static dielectric constant tensor:
#      x y z
#    x 1.864980 0.000000 0.026230 
#    y 0.000000 1.875670 0.000000 
#    z 0.026230 0.000000 1.893650 
# 
# From -- ./inp_files/178465.got.cif
#   From: 2010.05.17/outbox.cif.g08.bks.cpg/sg15_90_cif.got.tgz:178465.got - 2010.06.03 18:47:42.
