data_PCOD9279907
_publ_section_title
;
Structure prediction by ZEFSAII (Michael W. Deem and Ramdas Pophale) SiO2 
 PCOD9279907
Probable space group: C 2/C
;
_chemical_formula_sum "Si O2"
_cell_formula_units_Z 60
_cell_length_a 27.158399
_cell_length_b 5.484082
_cell_length_c 20.886536
_cell_angle_alpha 90.000000
_cell_angle_beta 109.950377
_cell_angle_gamma 90.000000
_cell_volume 2924.132566
_symmetry_space_group_name_H-M "C 2/C"
_symmetry_group_IT_number 15
_symmetry_cell_setting 'monoclinic'
loop_
_space_group_symop_operation_xyz
x,y,z
-x,y,1/2-z
-x,-y,-z
x,-y,1/2+z
1/2+x,1/2+y,z
1/2-x,1/2+y,1/2-z
1/2-x,1/2-y,-z
1/2+x,1/2-y,1/2+z
loop_
_atom_site_type_symbol
_atom_site_label
_atom_site_fract_x
_atom_site_fract_y
_atom_site_fract_z
Si Si1 0.360339 0.755804 0.679724
Si Si2 0.500000 0.118175 0.750000
Si Si3 0.546279 0.750720 0.681883
Si Si4 0.438754 0.762947 0.020456
Si Si5 0.877530 0.498153 0.885219
Si Si6 0.394600 0.734002 0.142399
Si Si7 0.453645 0.628154 0.416262
Si Si8 0.781926 0.650193 0.262709
O O1 0.414987 0.724693 0.741730
O O2 0.357698 0.497943 0.641875
O O3 0.316540 0.798981 0.714476
O O4 0.366490 0.004735 0.641949
O O5 0.553897 0.259015 0.787814
O O6 0.505310 0.943200 0.690349
O O7 0.584262 0.847476 0.643709
O O8 0.524748 0.515858 0.636255
O O9 0.414546 0.714517 0.078723
O O10 0.500610 0.828637 0.053518
O O11 0.399491 0.943538 0.965535
O O12 0.444845 0.526454 0.976900
O O13 0.895885 0.770015 0.875333
O O14 0.820087 0.422654 0.838930
O O15 0.747739 0.404835 0.236829
#
# Coordination Sequence:
#
# PCOD9279907 Si02
#       8
#     8   4   8   8   8   8   8   8
#     4  10  24  40  62  94 130 161 209 273 333 385
#     4  10  22  36  54  90 134 180 230 252 312 380
#     4   9  21  34  55  87 126 170 213 264 311 367
#     4  10  23  36  60  92 133 185 222 251 310 383
#     4  10  22  40  62  91 129 163 220 273 325 377
#     4  11  24  38  61  90 135 180 213 260 313 386
#     4  10  21  36  61  88 135 177 229 263 301 380
#     4  11  25  45  77 101 122 158 216 286 355 400
#
# _framework density 20.518906999999999
#
# number of rings (size 3 to 8) (size 9 to 14) (size 15 to 20)
#    0.000    1.867    0.000    2.000   18.667    1.600 
#    0.000    0.000    0.000    4.800    0.000    0.000 
#    0.000    0.000    0.000    0.000    0.000    0.000 
#
# Total GULP energy -167151.978461 kJ/mol
# GULP energy per Si atom -5571.732615 kJ/mol
# Density = 2.047220 g / cm^3
# Si number density = 20.518907 Si / 1000 Ang^3
#
#
#
# Elastic Constant Matrix: (Units=GPa)
#
#
# Indices 1 2 3 4 5 6 
#
# 1 87.0549 61.3994 25.7379 -0.0003 -2.1779 0.0001
# 2 61.3994 134.9327 40.3232 -0.0030 -8.7282 0.0021
# 3 25.7379 40.3232 75.8875 -0.0007 -11.7906 0.0006
# 4 -0.0003 -0.0030 -0.0007 20.7222 0.0002 -2.1762
# 5 -2.1779 -8.7282 -11.7906 0.0002 30.5281 0.0000
# 6 0.0001 0.0021 0.0006 -2.1762 0.0000 31.4945
#
#
#
# Elastic Compliance Matrix: (Units=1/GPa)
#
#
# Indices 1 2 3 4 5 6 
#
# 1 0.017249 -0.007289 -0.002244 -0.000001 -0.001720 0.000000
# 2 -0.007289 0.011907 -0.003624 0.000001 0.001485 -0.000001
# 3 -0.002244 -0.003624 0.016679 0.000000 0.005246 0.000000
# 4 -0.000001 0.000001 0.000000 0.048610 0.000000 0.003359
# 5 -0.001720 0.001485 0.005246 0.000000 0.035084 0.000000
# 6 0.000000 -0.000001 0.000000 0.003359 0.000000 0.031984
#
#
# Mechanical properties :
#
#
# Convention : Reuss Voigt Hill
#
# Bulk Modulus (GPa) = 51.22957 61.42180 56.32568
# Shear Modulus (GPa) = 25.72883 27.90993 26.81938
#
# Velocity S-wave (km/s) = 3.54490 3.69210 3.61925
# Velocity P-wave (km/s) = 6.46346 6.94080 6.70638
#
# Compressibility (1/GPa) = 0.01951998
#
# Stress axis : x y z
#
# Youngs Moduli (GPa) = 57.97566 83.98364 59.95538
#
# Poissons Ratio (x) = 0.61219 0.13454
# Poissons Ratio (y) = 0.42261 0.21727
# Poissons Ratio (z) = 0.13010 0.30435
#
# Static dielectric constant tensor:
#      x y z
#    x 1.708860 0.000000 0.011350 
#    y 0.000000 1.948600 0.000000 
#    z 0.011350 0.000000 1.773810 
# 
# From -- ./inp_files/256589.got.cif
#   From: 2010.05.17/outbox.cif.g08.bks.cpg/sg15_129_cif.got.tgz:256589.got - 2010.06.03 18:47:42.
