data_PCOD9279467
_publ_section_title
;
Structure prediction by ZEFSAII (Michael W. Deem and Ramdas Pophale) SiO2 
 PCOD9279467
Probable space group: C 2/C
;
_chemical_formula_sum "Si O2"
_cell_formula_units_Z 24
_cell_length_a 21.698557
_cell_length_b 7.483854
_cell_length_c 21.048632
_cell_angle_alpha 90.000000
_cell_angle_beta 163.808911
_cell_angle_gamma 90.000000
_cell_volume 953.098613
_symmetry_space_group_name_H-M "C 2/C"
_symmetry_group_IT_number 15
_symmetry_cell_setting 'monoclinic'
loop_
_space_group_symop_operation_xyz
x,y,z
-x,y,1/2-z
-x,-y,-z
x,-y,1/2+z
1/2+x,1/2+y,z
1/2-x,1/2+y,1/2-z
1/2-x,1/2-y,-z
1/2+x,1/2-y,1/2+z
loop_
_atom_site_type_symbol
_atom_site_label
_atom_site_fract_x
_atom_site_fract_y
_atom_site_fract_z
Si Si1 0.302737 0.112526 0.833266
Si Si2 0.404290 0.502569 0.492859
Si Si3 0.251409 0.538594 0.480926
O O1 0.361197 0.297382 0.923510
O O2 0.169812 0.003172 0.756034
O O3 0.161793 0.130214 0.628701
O O4 0.500000 0.000000 0.000000
O O5 0.274280 0.496022 0.428851
O O6 0.250000 0.750000 0.500000
O O7 0.000000 0.474812 0.250000
O O8 0.500000 0.475131 0.750000
#
# Coordination Sequence:
#
# PCOD9279467 Si02
#       3
#     8   8   8
#     4  11  22  36  60  83 132 155 198 256 302 370
#     4  11  23  38  59  97 118 160 202 250 316 364
#     4  10  21  35  61  87 124 153 202 262 304 353
#
# _framework density 25.181027
#
# number of rings (size 3 to 8) (size 9 to 14) (size 15 to 20)
#    0.000    1.333    3.333    4.000    4.667    0.000 
#    0.000    0.000    0.000    0.000    0.000   53.667 
#    0.000    0.000    0.000    0.000    0.000    0.000 
#
# Total GULP energy -66856.352203 kJ/mol
# GULP energy per Si atom -5571.362684 kJ/mol
# Density = 2.512371 g / cm^3
# Si number density = 25.181027 Si / 1000 Ang^3
#
#
#
# Elastic Constant Matrix: (Units=GPa)
#
#
# Indices 1 2 3 4 5 6 
#
# 1 228.9070 0.4328 69.9861 0.0095 69.0862 -0.0007
# 2 0.4328 46.8091 16.7865 0.0393 18.2227 0.0145
# 3 69.9861 16.7865 155.8773 0.0273 50.2497 0.0108
# 4 0.0095 0.0393 0.0273 23.2367 0.0094 3.8722
# 5 69.0862 18.2227 50.2497 0.0094 51.4993 0.0011
# 6 -0.0007 0.0145 0.0108 3.8722 0.0011 22.2781
#
#
#
# Elastic Compliance Matrix: (Units=1/GPa)
#
#
# Indices 1 2 3 4 5 6 
#
# 1 0.008203 0.004877 -0.000152 -0.000006 -0.012581 -0.000001
# 2 0.004877 0.027681 0.000140 -0.000041 -0.016474 -0.000010
# 3 -0.000152 0.000140 0.009364 -0.000007 -0.008982 -0.000003
# 4 -0.000006 -0.000041 -0.000007 0.044319 0.000022 -0.007703
# 5 -0.012581 -0.016474 -0.008982 0.000022 0.050889 0.000009
# 6 -0.000001 -0.000010 -0.000003 -0.007703 0.000009 0.046226
#
#
# Mechanical properties :
#
#
# Convention : Reuss Voigt Hill
#
# Bulk Modulus (GPa) = 18.18934 67.33379 42.76156
# Shear Modulus (GPa) = 25.60431 42.36203 33.98317
#
# Velocity S-wave (km/s) = 3.19220 4.10603 3.67761
# Velocity P-wave (km/s) = 4.56355 7.01978 5.92044
#
# Compressibility (1/GPa) = 0.05497726
#
# Stress axis : x y z
#
# Youngs Moduli (GPa) = 121.90430 36.12546 106.79005
#
# Poissons Ratio (x) = -0.17618 0.01628
# Poissons Ratio (y) = -0.59450 -0.01495
# Poissons Ratio (z) = 0.01858 -0.00506
#
# Static dielectric constant tensor:
#      x y z
#    x 1.964690 -0.000010 0.090120 
#    y -0.000010 1.912180 -0.000010 
#    z 0.090120 -0.000010 2.498260 
# 
# From -- ./inp_files/214700.got.cif
#   From: 2010.05.17/outbox.cif.g08.bks.cpg/sg15_108_cif.got.tgz:214700.got - 2010.06.03 18:47:42.
