data_PCOD9279811
_publ_section_title
;
Structure prediction by ZEFSAII (Michael W. Deem and Ramdas Pophale) SiO2 
 PCOD9279811
Probable space group: C 2/C
;
_chemical_formula_sum "Si O2"
_cell_formula_units_Z 56
_cell_length_a 23.584438
_cell_length_b 8.823924
_cell_length_c 13.272833
_cell_angle_alpha 90.000000
_cell_angle_beta 116.957759
_cell_angle_gamma 90.000000
_cell_volume 2462.038255
_symmetry_space_group_name_H-M "C 2/C"
_symmetry_group_IT_number 15
_symmetry_cell_setting 'monoclinic'
loop_
_space_group_symop_operation_xyz
x,y,z
-x,y,1/2-z
-x,-y,-z
x,-y,1/2+z
1/2+x,1/2+y,z
1/2-x,1/2+y,1/2-z
1/2-x,1/2-y,-z
1/2+x,1/2-y,1/2+z
loop_
_atom_site_type_symbol
_atom_site_label
_atom_site_fract_x
_atom_site_fract_y
_atom_site_fract_z
Si Si1 0.144957 0.446630 0.396171
Si Si2 0.255839 0.371813 0.914387
Si Si3 0.050524 0.434073 0.164046
Si Si4 0.545120 0.755354 0.536751
Si Si5 0.041207 0.873469 0.378191
Si Si6 0.361072 0.626825 0.032176
Si Si7 0.145640 0.330611 0.074739
O O1 0.188018 0.547108 0.355353
O O2 0.073710 0.456568 0.295943
O O3 0.158595 0.268669 0.415738
O O4 0.155553 0.519512 0.515174
O O5 0.250000 0.250000 0.000000
O O6 0.303890 0.509270 0.975853
O O7 0.290840 0.269064 0.859069
O O8 0.042256 0.598536 0.107209
O O9 0.109309 0.362559 0.147853
O O10 0.993824 0.319876 0.090558
O O11 0.508286 0.627993 0.569649
O O12 0.612568 0.695736 0.552151
O O13 0.097409 0.764008 0.463296
O O14 0.000000 0.823130 0.250000
O O15 0.077749 0.029228 0.382122
#
# Coordination Sequence:
#
# PCOD9279811 Si02
#       7
#     8   8   8   8   8   8   8
#     4  11  21  38  65  89 116 161 212 251 301 361
#     4   9  21  42  64  83 121 169 205 255 310 356
#     4  10  21  37  61  94 122 160 197 253 308 367
#     4  10  21  39  59  89 132 159 195 248 311 363
#     4  10  21  36  59  89 120 165 197 240 304 376
#     4  11  22  38  61  92 123 157 204 262 302 351
#     4   9  19  41  59  84 125 158 200 252 309 360
#
# _framework density 22.745380000000001
#
# number of rings (size 3 to 8) (size 9 to 14) (size 15 to 20)
#    0.000    2.000    1.429    1.714    2.000    0.000 
#    2.571    0.000    0.000    0.000    0.000    0.000 
#    0.000    0.000    0.000    0.000    0.000    0.000 
#
# Total GULP energy -156188.954240 kJ/mol
# GULP energy per Si atom -5578.176937 kJ/mol
# Density = 2.269361 g / cm^3
# Si number density = 22.745380 Si / 1000 Ang^3
#
#
#
# Elastic Constant Matrix: (Units=GPa)
#
#
# Indices 1 2 3 4 5 6 
#
# 1 72.7596 29.1010 15.9360 0.0000 -9.7609 0.0000
# 2 29.1010 108.5980 16.2602 0.0000 -0.1533 0.0000
# 3 15.9360 16.2602 48.7184 0.0000 4.9298 0.0000
# 4 0.0000 0.0000 0.0000 13.4244 0.0000 3.6137
# 5 -9.7609 -0.1533 4.9298 0.0000 15.7780 0.0000
# 6 0.0000 0.0000 0.0000 3.6137 0.0000 54.1767
#
#
#
# Elastic Compliance Matrix: (Units=1/GPa)
#
#
# Indices 1 2 3 4 5 6 
#
# 1 0.018454 -0.004023 -0.006036 0.000000 0.013263 0.000000
# 2 -0.004023 0.010589 -0.002042 0.000000 -0.001748 0.000000
# 3 -0.006036 -0.002042 0.024331 0.000000 -0.011356 0.000000
# 4 0.000000 0.000000 0.000000 0.075853 0.000000 -0.005060
# 5 0.013263 -0.001748 -0.011356 0.000000 0.075116 0.000000
# 6 0.000000 0.000000 0.000000 -0.005060 0.000000 0.018796
#
#
# Mechanical properties :
#
#
# Convention : Reuss Voigt Hill
#
# Bulk Modulus (GPa) = 34.27692 39.18559 36.73125
# Shear Modulus (GPa) = 19.45040 27.92774 23.68907
#
# Velocity S-wave (km/s) = 2.92744 3.50786 3.23071
# Velocity P-wave (km/s) = 5.15064 5.80277 5.48640
#
# Compressibility (1/GPa) = 0.02917415
#
# Stress axis : x y z
#
# Youngs Moduli (GPa) = 54.18857 94.43358 41.09980
#
# Poissons Ratio (x) = 0.37987 0.24807
# Poissons Ratio (y) = 0.21798 0.08391
# Poissons Ratio (z) = 0.32708 0.19280
#
# Static dielectric constant tensor:
#      x y z
#    x 1.908650 0.000000 -0.022400 
#    y 0.000000 1.873870 0.000000 
#    z -0.022400 0.000000 1.828140 
# 
# From -- ./inp_files/171989.got.cif
#   From: 2010.05.17/outbox.cif.g08.bks.cpg/sg15_86_cif.got.tgz:171989.got - 2010.06.03 18:47:42.
