data_PCOD9279172
_publ_section_title
;
Structure prediction by ZEFSAII (Michael W. Deem and Ramdas Pophale) SiO2 
 PCOD9279172
Probable space group: C 2/C
;
_chemical_formula_sum "Si O2"
_cell_formula_units_Z 52
_cell_length_a 5.126446
_cell_length_b 28.949373
_cell_length_c 21.113579
_cell_angle_alpha 90.000000
_cell_angle_beta 54.403771
_cell_angle_gamma 90.000000
_cell_volume 2547.899166
_symmetry_space_group_name_H-M "C 2/C"
_symmetry_group_IT_number 15
_symmetry_cell_setting 'monoclinic'
loop_
_space_group_symop_operation_xyz
x,y,z
-x,y,1/2-z
-x,-y,-z
x,-y,1/2+z
1/2+x,1/2+y,z
1/2-x,1/2+y,1/2-z
1/2-x,1/2-y,-z
1/2+x,1/2-y,1/2+z
loop_
_atom_site_type_symbol
_atom_site_label
_atom_site_fract_x
_atom_site_fract_y
_atom_site_fract_z
Si Si1 0.391757 0.200433 0.338550
Si Si2 0.382793 0.641173 0.612387
Si Si3 0.500000 0.346792 0.750000
Si Si4 0.646946 0.577383 0.139568
Si Si5 0.231059 0.304745 0.342946
Si Si6 0.633940 0.386554 0.941063
Si Si7 0.000000 0.431646 0.250000
Si Si8 0.500000 0.505769 0.750000
O O1 0.500000 0.193708 0.250000
O O2 0.258639 0.251757 0.361145
O O3 0.159337 0.163369 0.403044
O O4 0.739179 0.187118 0.318671
O O5 0.670271 0.663646 0.611748
O O6 0.493862 0.620837 0.530059
O O7 0.228875 0.601446 0.677050
O O8 0.108329 0.679613 0.637464
O O9 0.582227 0.384803 0.792651
O O10 0.570271 0.581087 0.076567
O O11 0.585826 0.528178 0.179778
O O12 0.007434 0.593273 0.103943
O O13 0.500000 0.311066 0.250000
O O14 0.791679 0.462764 0.232081
#
# Coordination Sequence:
#
# PCOD9279172 Si02
#       8
#     8   8   4   8   8   8   4   4
#     4  10  21  34  61  92 128 166 213 256 307 355
#     4  12  25  44  63  88 128 170 214 255 304 361
#     4   9  18  33  60  86 130 158 202 249 310 377
#     4  10  21  40  63  97 123 156 195 255 323 380
#     4  11  23  39  63  89 122 171 223 262 287 353
#     4  11  23  40  64  95 132 165 197 253 318 375
#     4  12  24  45  64  91 116 171 212 255 302 376
#     4  11  24  42  74  95 122 155 208 252 316 383
#
# _framework density 20.408971000000001
#
# number of rings (size 3 to 8) (size 9 to 14) (size 15 to 20)
#    0.000    1.231    3.077    2.769    4.308    1.231 
#    0.000    4.615    0.000    0.000    0.000    0.000 
#    0.000    0.000    0.000    0.000    0.000    0.000 
#
# Total GULP energy -145149.889655 kJ/mol
# GULP energy per Si atom -5582.688064 kJ/mol
# Density = 2.036252 g / cm^3
# Si number density = 20.408971 Si / 1000 Ang^3
#
#
#
# Elastic Constant Matrix: (Units=GPa)
#
#
# Indices 1 2 3 4 5 6 
#
# 1 67.6109 19.6463 -13.8028 0.0000 17.3677 0.0000
# 2 19.6463 105.6207 20.8150 0.0000 7.4176 0.0000
# 3 -13.8028 20.8150 83.2466 0.0000 28.4860 0.0000
# 4 0.0000 0.0000 0.0000 -14.9576 0.0000 9.6558
# 5 17.3677 7.4176 28.4860 0.0000 32.6745 0.0000
# 6 0.0000 0.0000 0.0000 9.6558 0.0000 25.7436
#
#
#
# Elastic Compliance Matrix: (Units=1/GPa)
#
#
# Indices 1 2 3 4 5 6 
#
# 1 0.025737 -0.005847 0.014190 0.000000 -0.024724 0.000000
# 2 -0.005847 0.011287 -0.005670 0.000000 0.005489 0.000000
# 3 0.014190 -0.005670 0.025544 0.000000 -0.028524 0.000000
# 4 0.000000 0.000000 0.000000 -0.053824 0.000000 0.020188
# 5 -0.024724 0.005489 -0.028524 0.000000 0.067368 0.000000
# 6 0.000000 0.000000 0.000000 0.020188 0.000000 0.031273
#
#
# Mechanical properties :
#
#
# Convention : Reuss Voigt Hill
#
# Bulk Modulus (GPa) = 14.72481 34.42169 24.57325
# Shear Modulus (GPa) = 40.10295 24.01343 32.05819
#
# Velocity S-wave (km/s) = 4.43760 3.43390 3.96762
# Velocity P-wave (km/s) = 5.78679 5.71181 5.74942
#
# Compressibility (1/GPa) = 0.06791261
#
# Stress axis : x y z
#
# Youngs Moduli (GPa) = 38.85398 88.59388 39.14864
#
# Poissons Ratio (x) = 0.51805 -0.55550
# Poissons Ratio (y) = 0.22720 0.22198
# Poissons Ratio (z) = -0.55132 0.50234
#
# Static dielectric constant tensor:
#      x y z
#    x 1.868150 0.000000 -0.050170 
#    y 0.000000 1.702840 0.000000 
#    z -0.050170 0.000000 1.690080 
# 
# From -- ./inp_files/185821.got.cif
#   From: 2010.05.17/outbox.cif.g08.bks.cpg/sg15_93_cif.got.tgz:185821.got - 2010.06.03 18:47:42.
