data_PCOD9279192
_publ_section_title
;
Structure prediction by ZEFSAII (Michael W. Deem and Ramdas Pophale) SiO2 
 PCOD9279192
Probable space group: C 2/C
;
_chemical_formula_sum "Si O2"
_cell_formula_units_Z 48
_cell_length_a 18.187015
_cell_length_b 24.310373
_cell_length_c 5.223376
_cell_angle_alpha 90.000000
_cell_angle_beta 105.642547
_cell_angle_gamma 90.000000
_cell_volume 2223.892341
_symmetry_space_group_name_H-M "C 2/C"
_symmetry_group_IT_number 15
_symmetry_cell_setting 'monoclinic'
loop_
_space_group_symop_operation_xyz
x,y,z
-x,y,1/2-z
-x,-y,-z
x,-y,1/2+z
1/2+x,1/2+y,z
1/2-x,1/2+y,1/2-z
1/2-x,1/2-y,-z
1/2+x,1/2-y,1/2+z
loop_
_atom_site_type_symbol
_atom_site_label
_atom_site_fract_x
_atom_site_fract_y
_atom_site_fract_z
Si Si1 0.283943 0.703083 0.353672
Si Si2 0.175718 0.691013 0.865508
Si Si3 0.819159 0.533136 0.921123
Si Si4 0.091149 0.964201 0.855796
Si Si5 0.546970 0.114564 0.542744
Si Si6 0.691641 0.617374 0.764121
O O1 0.250000 0.750000 0.500000
O O2 0.324341 0.743133 0.182776
O O3 0.336383 0.656691 0.531226
O O4 0.203376 0.678278 0.178127
O O5 0.098950 0.663654 0.701390
O O6 0.246059 0.658396 0.800134
O O7 0.816987 0.515675 0.622438
O O8 0.896359 0.567919 0.012649
O O9 0.744980 0.568784 0.915746
O O10 0.000000 0.954257 0.750000
O O11 0.108955 0.989483 0.592122
O O12 0.134429 0.910279 0.006993
O O13 0.500000 0.094816 0.750000
O O14 0.500000 0.132802 0.250000
#
# Coordination Sequence:
#
# PCOD9279192 Si02
#       6
#     8   8   8   8   8   8
#     4   9  19  37  64  88 116 149 198 258 312 364
#     4   9  21  38  63  90 118 155 208 254 310 366
#     4  11  24  38  59  91 126 160 213 258 295 353
#     4  10  22  39  60  88 125 165 200 243 305 370
#     4  11  25  40  64  86 124 172 209 250 309 369
#     4  10  21  34  65  89 120 157 204 252 309 363
#
# _framework density 21.583780999999998
#
# number of rings (size 3 to 8) (size 9 to 14) (size 15 to 20)
#    0.000    2.000    0.000    2.000   14.000    2.000 
#    0.000    0.000   11.000    0.000    0.000    0.000 
#    0.000    0.000    0.000    0.000    0.000    0.000 
#
# Total GULP energy -133616.658114 kJ/mol
# GULP energy per Si atom -5567.360755 kJ/mol
# Density = 2.153466 g / cm^3
# Si number density = 21.583781 Si / 1000 Ang^3
#
#
#
# Elastic Constant Matrix: (Units=GPa)
#
#
# Indices 1 2 3 4 5 6 
#
# 1 55.7541 27.1364 18.8532 0.0000 5.3211 0.0000
# 2 27.1364 72.0951 37.4550 0.0000 21.9454 0.0000
# 3 18.8532 37.4550 117.8995 0.0000 11.4441 0.0000
# 4 0.0000 0.0000 0.0000 52.7859 0.0000 -0.5520
# 5 5.3211 21.9454 11.4441 0.0000 26.6036 0.0000
# 6 0.0000 0.0000 0.0000 -0.5520 0.0000 8.0438
#
#
#
# Elastic Compliance Matrix: (Units=1/GPa)
#
#
# Indices 1 2 3 4 5 6 
#
# 1 0.022284 -0.008829 -0.001078 0.000000 0.003290 0.000000
# 2 -0.008829 0.024754 -0.004844 0.000000 -0.016570 0.000000
# 3 -0.001078 -0.004844 0.010211 0.000000 -0.000181 0.000000
# 4 0.000000 0.000000 0.000000 0.018958 0.000000 0.001301
# 5 0.003290 -0.016570 -0.000181 0.000000 0.050678 0.000000
# 6 0.000000 0.000000 0.000000 0.001301 0.000000 0.124408
#
#
# Mechanical properties :
#
#
# Convention : Reuss Voigt Hill
#
# Bulk Modulus (GPa) = 36.03966 45.84866 40.94416
# Shear Modulus (GPa) = 17.23889 28.30694 22.77291
#
# Velocity S-wave (km/s) = 2.82919 3.62538 3.25174
# Velocity P-wave (km/s) = 5.23509 6.22999 5.75409
#
# Compressibility (1/GPa) = 0.02774721
#
# Stress axis : x y z
#
# Youngs Moduli (GPa) = 44.87612 40.39741 97.93810
#
# Poissons Ratio (x) = 0.35666 0.10556
# Poissons Ratio (y) = 0.39620 0.47439
# Poissons Ratio (z) = 0.04837 0.19568
#
# Static dielectric constant tensor:
#      x y z
#    x 1.887750 0.000000 -0.151930 
#    y 0.000000 1.817870 0.000000 
#    z -0.151930 0.000000 1.997250 
# 
# From -- ./inp_files/13774.got.cif
#   From: 2010.05.17/outbox.cif.g08.bks.cpg/sg15_7_cif.got.tgz:13774.got - 2010.06.03 18:47:42.
