data_PCOD9279859
_publ_section_title
;
Structure prediction by ZEFSAII (Michael W. Deem and Ramdas Pophale) SiO2 
 PCOD9279859
Probable space group: C 2/C
;
_chemical_formula_sum "Si O2"
_cell_formula_units_Z 64
_cell_length_a 9.338498
_cell_length_b 21.524783
_cell_length_c 22.225761
_cell_angle_alpha 90.000000
_cell_angle_beta 43.632914
_cell_angle_gamma 90.000000
_cell_volume 3082.789321
_symmetry_space_group_name_H-M "C 2/C"
_symmetry_group_IT_number 15
_symmetry_cell_setting 'monoclinic'
loop_
_space_group_symop_operation_xyz
x,y,z
-x,y,1/2-z
-x,-y,-z
x,-y,1/2+z
1/2+x,1/2+y,z
1/2-x,1/2+y,1/2-z
1/2-x,1/2-y,-z
1/2+x,1/2-y,1/2+z
loop_
_atom_site_type_symbol
_atom_site_label
_atom_site_fract_x
_atom_site_fract_y
_atom_site_fract_z
Si Si1 0.786871 0.837392 0.509790
Si Si2 0.358051 0.230491 0.905940
Si Si3 0.281220 0.929407 0.062345
Si Si4 0.030068 0.481111 0.091770
Si Si5 0.315450 0.697701 0.761201
Si Si6 0.179017 0.902792 0.419778
Si Si7 0.410903 0.767894 0.610900
Si Si8 0.180944 0.942543 0.281579
O O1 0.781145 0.861351 0.442098
O O2 0.547201 0.824172 0.595798
O O3 0.933233 0.887800 0.497802
O O4 0.919204 0.774298 0.476460
O O5 0.599026 0.226522 0.847098
O O6 0.294640 0.162086 0.899845
O O7 0.277899 0.276923 0.877590
O O8 0.250000 0.250000 0.000000
O O9 0.435434 0.934110 0.070790
O O10 0.062105 0.962110 0.145763
O O11 0.397806 0.960838 0.970264
O O12 0.849067 0.486202 0.197403
O O13 0.231486 0.452558 0.061797
O O14 0.500000 0.713733 0.750000
O O15 0.343123 0.725812 0.686612
O O16 0.304628 0.623427 0.757181
O O17 0.226145 0.926534 0.337781
#
# Coordination Sequence:
#
# PCOD9279859 Si02
#       8
#     8   8   8   8   8   8   8   8
#     4   9  20  36  59  81 122 156 200 243 313 361
#     4  11  24  35  59  91 125 160 208 255 316 374
#     4  10  22  39  58  92 118 162 202 265 319 379
#     4  11  22  35  63  90 124 153 211 260 320 374
#     4  12  23  35  60  90 121 162 209 261 310 367
#     4  10  21  36  60  88 122 156 207 258 305 375
#     4  10  21  37  59  85 123 165 200 252 304 377
#     4  11  21  38  61  88 119 159 208 265 312 375
#
# _framework density 20.760418999999999
#
# number of rings (size 3 to 8) (size 9 to 14) (size 15 to 20)
#    0.000    1.500    5.000    1.875    7.000    2.000 
#    0.000    0.000    2.750    3.000    0.000    0.000 
#    0.000    0.000    0.000    0.000    0.000    0.000 
#
# Total GULP energy -178400.539319 kJ/mol
# GULP energy per Si atom -5575.016854 kJ/mol
# Density = 2.071317 g / cm^3
# Si number density = 20.760419 Si / 1000 Ang^3
#
#
#
# Elastic Constant Matrix: (Units=GPa)
#
#
# Indices 1 2 3 4 5 6 
#
# 1 159.3931 19.4381 40.3976 -0.0003 0.3467 0.0002
# 2 19.4381 25.4696 28.5057 -0.0001 -1.8472 0.0000
# 3 40.3976 28.5057 107.2550 -0.0001 -5.3225 -0.0001
# 4 -0.0003 -0.0001 -0.0001 22.4019 0.0002 -2.3097
# 5 0.3467 -1.8472 -5.3225 0.0002 30.7598 -0.0001
# 6 0.0002 0.0000 -0.0001 -2.3097 -0.0001 25.3694
#
#
#
# Elastic Compliance Matrix: (Units=1/GPa)
#
#
# Indices 1 2 3 4 5 6 
#
# 1 0.007157 -0.003495 -0.001797 0.000000 -0.000601 0.000000
# 2 -0.003495 0.057612 -0.013942 0.000000 0.001087 0.000000
# 3 -0.001797 -0.013942 0.013783 0.000000 0.001568 0.000000
# 4 0.000000 0.000000 0.000000 0.045062 0.000000 0.004103
# 5 -0.000601 0.001087 0.001568 0.000000 0.032853 0.000000
# 6 0.000000 0.000000 0.000000 0.004103 0.000000 0.039791
#
#
# Mechanical properties :
#
#
# Convention : Reuss Voigt Hill
#
# Bulk Modulus (GPa) = 24.94626 52.08893 38.51760
# Shear Modulus (GPa) = 20.15429 29.29130 24.72279
#
# Velocity S-wave (km/s) = 3.11915 3.76030 3.45463
# Velocity P-wave (km/s) = 5.00145 6.63311 5.87421
#
# Compressibility (1/GPa) = 0.04008617
#
# Stress axis : x y z
#
# Youngs Moduli (GPa) = 139.73066 17.35753 72.55113
#
# Poissons Ratio (x) = 0.06066 0.13034
# Poissons Ratio (y) = 0.48832 1.01148
# Poissons Ratio (z) = 0.25104 0.24199
#
# Static dielectric constant tensor:
#      x y z
#    x 1.798150 0.000000 -0.031810 
#    y 0.000000 1.787250 0.000000 
#    z -0.031810 0.000000 1.804020 
# 
# From -- ./inp_files/234690.got.cif
#   From: 2010.05.17/outbox.cif.g08.bks.cpg/sg15_118_cif.got.tgz:234690.got - 2010.06.03 18:47:42.
