data_PCOD9279017
_publ_section_title
;
Structure prediction by ZEFSAII (Michael W. Deem and Ramdas Pophale) SiO2 
 PCOD9279017
Probable space group: C 2/C
;
_chemical_formula_sum "Si O2"
_cell_formula_units_Z 60
_cell_length_a 31.346254
_cell_length_b 7.751443
_cell_length_c 10.887676
_cell_angle_alpha 90.000000
_cell_angle_beta 117.995797
_cell_angle_gamma 90.000000
_cell_volume 2335.905447
_symmetry_space_group_name_H-M "C 2/C"
_symmetry_group_IT_number 15
_symmetry_cell_setting 'monoclinic'
loop_
_space_group_symop_operation_xyz
x,y,z
-x,y,1/2-z
-x,-y,-z
x,-y,1/2+z
1/2+x,1/2+y,z
1/2-x,1/2+y,1/2-z
1/2-x,1/2-y,-z
1/2+x,1/2-y,1/2+z
loop_
_atom_site_type_symbol
_atom_site_label
_atom_site_fract_x
_atom_site_fract_y
_atom_site_fract_z
Si Si1 0.692897 0.830199 0.757019
Si Si2 0.857674 0.213654 0.206418
Si Si3 0.542231 0.738585 0.080811
Si Si4 0.899123 0.627995 0.512063
Si Si5 0.051871 0.164123 0.640230
Si Si6 0.704792 0.571479 0.202942
Si Si7 0.000000 0.455342 0.250000
Si Si8 0.641535 0.673313 0.894994
O O1 0.648061 0.924005 0.630848
O O2 0.697456 0.630267 0.720971
O O3 0.743800 0.909530 0.791895
O O4 0.677219 0.809381 0.877664
O O5 0.901115 0.268458 0.356306
O O6 0.872736 0.304971 0.100462
O O7 0.804783 0.206245 0.197247
O O8 0.860608 0.009485 0.179787
O O9 0.541779 0.538907 0.125602
O O10 0.523320 0.852311 0.166818
O O11 0.500686 0.750315 0.922142
O O12 0.922705 0.776886 0.453795
O O13 0.945747 0.513445 0.609473
O O14 0.086714 0.226487 0.795326
O O15 0.662950 0.626027 0.052928
#
# Coordination Sequence:
#
# PCOD9279017 Si02
#       8
#     8   8   8   8   8   8   4   8
#     4  10  21  34  52  70  97 127 166 201 243 283
#     4   9  17  27  45  65  95 127 156 197 245 279
#     4   8  13  22  35  63  91 124 158 187 233 297
#     4   9  15  29  44  68  96 124 156 197 237 291
#     4   8  14  23  40  62  91 128 159 186 234 295
#     4  11  21  35  49  69  96 133 165 204 240 285
#     4   8  14  22  42  62  96 124 152 192 240 288
#     4   9  17  31  47  64  93 130 161 196 239 290
#
# _framework density 25.685972
#
# number of rings (size 3 to 8) (size 9 to 14) (size 15 to 20)
#    0.000    2.933    1.333    1.200    0.000    0.533 
#    0.000    0.000    0.000    0.000    0.000    0.000 
#    4.000    5.067    0.000    0.000    0.000    0.000 
#
# Total GULP energy -167086.102935 kJ/mol
# GULP energy per Si atom -5569.536765 kJ/mol
# Density = 2.562751 g / cm^3
# Si number density = 25.685972 Si / 1000 Ang^3
#
#
#
# Elastic Constant Matrix: (Units=GPa)
#
#
# Indices 1 2 3 4 5 6 
#
# 1 47.8344 66.1110 -20.7942 0.0000 40.2373 0.0000
# 2 66.1110 85.2534 13.8761 0.0000 -3.7383 0.0000
# 3 -20.7942 13.8761 36.4567 0.0000 17.4132 0.0000
# 4 0.0000 0.0000 0.0000 2.8157 0.0000 11.3175
# 5 40.2373 -3.7383 17.4132 0.0000 -4.1279 0.0000
# 6 0.0000 0.0000 0.0000 11.3175 0.0000 48.7358
#
#
#
# Elastic Compliance Matrix: (Units=1/GPa)
#
#
# Indices 1 2 3 4 5 6 
#
# 1 0.004415 -0.001606 -0.006011 0.000000 0.019137 0.000000
# 2 -0.001606 0.011870 0.002381 0.000000 -0.016363 0.000000
# 3 -0.006011 0.002381 0.017284 0.000000 0.012165 0.000000
# 4 0.000000 0.000000 0.000000 5.332580 0.000000 -1.238340
# 5 0.019137 -0.016363 0.012165 0.000000 0.010422 0.000000
# 6 0.000000 0.000000 0.000000 -1.238340 0.000000 0.308088
#
#
# Mechanical properties :
#
#
# Convention : Reuss Voigt Hill
#
# Bulk Modulus (GPa) = 43.29332 31.99227 37.64279
# Shear Modulus (GPa) = 0.87676 16.84149 8.85913
#
# Velocity S-wave (km/s) = 0.58487 2.56338 1.85917
# Velocity P-wave (km/s) = 4.16504 4.60906 4.39266
#
# Compressibility (1/GPa) = 0.02309825
#
# Stress axis : x y z
#
# Youngs Moduli (GPa) = 226.49027 84.24359 57.85585
#
# Poissons Ratio (x) = 0.13533 0.34776
# Poissons Ratio (y) = 0.36383 -0.13777
# Poissons Ratio (z) = 1.36138 -0.20061
#
# Static dielectric constant tensor:
#      x y z
#    x 2.194760 0.000000 -0.355180 
#    y 0.000000 2.048140 0.000000 
#    z -0.355180 0.000000 2.819200 
# 
# From -- ./inp_files/117538.got.cif
#   From: 2010.05.17/outbox.cif.g08.bks.cpg/sg15_59_cif.got.tgz:117538.got - 2010.06.03 18:47:42.
