data_PCOD9279456
_publ_section_title
;
Structure prediction by ZEFSAII (Michael W. Deem and Ramdas Pophale) SiO2 
 PCOD9279456
Probable space group: C 2/C
;
_chemical_formula_sum "Si O2"
_cell_formula_units_Z 44
_cell_length_a 10.815008
_cell_length_b 21.615802
_cell_length_c 9.723042
_cell_angle_alpha 90.000000
_cell_angle_beta 63.885704
_cell_angle_gamma 90.000000
_cell_volume 2040.971454
_symmetry_space_group_name_H-M "C 2/C"
_symmetry_group_IT_number 15
_symmetry_cell_setting 'monoclinic'
loop_
_space_group_symop_operation_xyz
x,y,z
-x,y,1/2-z
-x,-y,-z
x,-y,1/2+z
1/2+x,1/2+y,z
1/2-x,1/2+y,1/2-z
1/2-x,1/2-y,-z
1/2+x,1/2-y,1/2+z
loop_
_atom_site_type_symbol
_atom_site_label
_atom_site_fract_x
_atom_site_fract_y
_atom_site_fract_z
Si Si1 0.224812 0.008958 0.506326
Si Si2 0.105153 0.473290 0.837801
Si Si3 0.000000 0.761977 0.250000
Si Si4 0.612693 0.375509 0.572262
Si Si5 0.118531 0.853379 0.009760
Si Si6 0.162892 0.666669 0.334781
O O1 0.359173 0.012466 0.338380
O O2 0.149254 0.074439 0.525347
O O3 0.256378 0.996842 0.651495
O O4 0.150838 0.944826 0.507101
O O5 0.090536 0.399854 0.858842
O O6 0.000000 0.500000 0.000000
O O7 0.053577 0.718856 0.348700
O O8 0.880959 0.807918 0.361822
O O9 0.500000 0.380084 0.750000
O O10 0.531510 0.346345 0.485689
O O11 0.744563 0.338980 0.571176
O O12 0.228552 0.832379 0.843276
#
# Coordination Sequence:
#
# PCOD9279456 Si02
#       6
#     8   8   4   8   8   8
#     4  10  21  35  60  96 125 151 206 259 316 378
#     4  10  21  37  62  87 126 163 198 259 321 368
#     4  12  24  36  62  86 126 172 210 244 294 382
#     4   9  19  39  62  85 122 157 195 264 322 359
#     4  10  22  36  60  88 120 159 206 252 306 365
#     4   9  22  41  56  84 122 165 202 251 310 364
#
# _framework density 21.55836
#
# number of rings (size 3 to 8) (size 9 to 14) (size 15 to 20)
#    0.000    2.182    0.000    2.727    8.909    0.727 
#    0.000    0.000    0.000    2.182    0.000    0.000 
#    0.000    0.000    0.000    0.000    0.000    0.000 
#
# Total GULP energy -122520.306958 kJ/mol
# GULP energy per Si atom -5569.104862 kJ/mol
# Density = 2.150929 g / cm^3
# Si number density = 21.558360 Si / 1000 Ang^3
#
#
#
# Elastic Constant Matrix: (Units=GPa)
#
#
# Indices 1 2 3 4 5 6 
#
# 1 30.7840 48.3440 18.4509 0.0000 3.7229 0.0000
# 2 48.3440 108.8992 50.8973 0.0000 7.3203 0.0000
# 3 18.4509 50.8973 83.1657 0.0000 14.2200 0.0000
# 4 0.0000 0.0000 0.0000 20.5722 0.0000 7.7070
# 5 3.7229 7.3203 14.2200 0.0000 21.6864 0.0000
# 6 0.0000 0.0000 0.0000 7.7070 0.0000 18.0424
#
#
#
# Elastic Compliance Matrix: (Units=1/GPa)
#
#
# Indices 1 2 3 4 5 6 
#
# 1 0.111670 -0.053344 0.009089 0.000000 -0.007124 0.000000
# 2 -0.053344 0.038360 -0.012381 0.000000 0.004328 0.000000
# 3 0.009089 -0.012381 0.019301 0.000000 -0.010037 0.000000
# 4 0.000000 0.000000 0.000000 0.057870 0.000000 -0.024720
# 5 -0.007124 0.004328 -0.010037 0.000000 0.052455 0.000000
# 6 0.000000 0.000000 0.000000 -0.024720 0.000000 0.065985
#
#
# Mechanical properties :
#
#
# Convention : Reuss Voigt Hill
#
# Bulk Modulus (GPa) = 17.83798 50.91483 34.37640
# Shear Modulus (GPa) = 10.46903 19.07063 14.76983
#
# Velocity S-wave (km/s) = 2.20605 2.97746 2.62030
# Velocity P-wave (km/s) = 3.84462 5.95725 5.01348
#
# Compressibility (1/GPa) = 0.05606016
#
# Stress axis : x y z
#
# Youngs Moduli (GPa) = 8.95494 26.06902 51.81024
#
# Poissons Ratio (x) = 1.39061 -0.47093
# Poissons Ratio (y) = 0.47769 0.64148
# Poissons Ratio (z) = -0.08140 0.32277
#
# Static dielectric constant tensor:
#      x y z
#    x 1.730230 0.000000 -0.265550 
#    y 0.000000 1.857330 0.000000 
#    z -0.265550 0.000000 1.441360 
# 
# From -- ./inp_files/30720.got.cif
#   From: 2010.05.17/outbox.cif.g08.bks.cpg/sg15_16_cif.got.tgz:30720.got - 2010.06.03 18:47:42.
