data_PCOD9279058
_publ_section_title
;
Structure prediction by ZEFSAII (Michael W. Deem and Ramdas Pophale) SiO2 
 PCOD9279058
Probable space group: C 2/C
;
_chemical_formula_sum "Si O2"
_cell_formula_units_Z 60
_cell_length_a 22.379573
_cell_length_b 14.747829
_cell_length_c 8.932362
_cell_angle_alpha 90.000000
_cell_angle_beta 78.820343
_cell_angle_gamma 90.000000
_cell_volume 2892.183619
_symmetry_space_group_name_H-M "C 2/C"
_symmetry_group_IT_number 15
_symmetry_cell_setting 'monoclinic'
loop_
_space_group_symop_operation_xyz
x,y,z
-x,y,1/2-z
-x,-y,-z
x,-y,1/2+z
1/2+x,1/2+y,z
1/2-x,1/2+y,1/2-z
1/2-x,1/2-y,-z
1/2+x,1/2-y,1/2+z
loop_
_atom_site_type_symbol
_atom_site_label
_atom_site_fract_x
_atom_site_fract_y
_atom_site_fract_z
Si Si1 0.710839 0.387246 0.423363
Si Si2 0.472235 0.628508 0.508167
Si Si3 0.625153 0.751829 0.095020
Si Si4 0.158955 0.386798 0.515466
Si Si5 0.610962 0.698202 0.450144
Si Si6 0.647555 0.064875 0.687133
Si Si7 0.802158 0.070965 0.910614
Si Si8 0.000000 0.016599 0.750000
O O1 0.685442 0.290789 0.489636
O O2 0.783002 0.400534 0.371431
O O3 0.693831 0.464499 0.552339
O O4 0.685978 0.409861 0.269659
O O5 0.428237 0.705190 0.471838
O O6 0.540795 0.666996 0.488430
O O7 0.457255 0.581438 0.672926
O O8 0.469212 0.549334 0.384868
O O9 0.625258 0.720611 0.269215
O O10 0.613771 0.859302 0.106190
O O11 0.130240 0.287135 0.537041
O O12 0.140234 0.461442 0.644937
O O13 0.135998 0.424080 0.367242
O O14 0.233120 0.391149 0.475614
O O15 0.652635 0.619938 0.497792
#
# Coordination Sequence:
#
# PCOD9279058 Si02
#       8
#     8   8   8   8   8   8   8   4
#     4  10  21  34  55  84 115 149 187 228 279 335
#     4  11  24  40  59  84 115 146 188 221 279 329
#     4  11  22  37  58  83 114 149 188 231 279 332
#     4   9  20  39  58  81 112 149 187 233 283 327
#     4  11  22  37  58  83 114 149 188 231 279 332
#     4   9  20  39  58  81 112 149 187 233 283 327
#     4  10  21  34  55  84 115 149 187 228 279 335
#     4  10  24  42  60  78 118 152 180 226 270 332
#
# _framework density 20.745571000000002
#
# number of rings (size 3 to 8) (size 9 to 14) (size 15 to 20)
#    0.000    1.867    1.333    1.600    5.600    2.133 
#    0.000    0.667    0.000    0.000    0.000    0.000 
#    0.000    0.000    0.000    0.000    0.000    0.000 
#
# Total GULP energy -167472.154937 kJ/mol
# GULP energy per Si atom -5582.405165 kJ/mol
# Density = 2.069835 g / cm^3
# Si number density = 20.745571 Si / 1000 Ang^3
#
#
#
# Elastic Constant Matrix: (Units=GPa)
#
#
# Indices 1 2 3 4 5 6 
#
# 1 60.5046 13.2867 9.3450 0.0000 22.6428 0.0000
# 2 13.2867 22.7971 -10.2097 0.0000 6.9814 0.0000
# 3 9.3450 -10.2097 45.4136 0.0000 8.2799 0.0000
# 4 0.0000 0.0000 0.0000 27.8869 0.0000 12.4462
# 5 22.6428 6.9814 8.2799 0.0000 21.1369 0.0000
# 6 0.0000 0.0000 0.0000 12.4462 0.0000 28.4987
#
#
#
# Elastic Compliance Matrix: (Units=1/GPa)
#
#
# Indices 1 2 3 4 5 6 
#
# 1 0.029328 -0.010571 -0.003575 0.000000 -0.026525 0.000000
# 2 -0.010571 0.064351 0.019872 0.000000 -0.017715 0.000000
# 3 -0.003575 0.019872 0.029854 0.000000 -0.014428 0.000000
# 4 0.000000 0.000000 0.000000 0.044541 0.000000 -0.019452
# 5 -0.026525 -0.017715 -0.014428 0.000000 0.087229 0.000000
# 6 0.000000 0.000000 0.000000 -0.019452 0.000000 0.043585
#
#
# Mechanical properties :
#
#
# Convention : Reuss Voigt Hill
#
# Bulk Modulus (GPa) = 7.40825 17.06215 12.23520
# Shear Modulus (GPa) = 15.04074 23.25738 19.14906
#
# Velocity S-wave (km/s) = 2.69552 3.35188 3.04146
# Velocity P-wave (km/s) = 3.64233 4.81897 4.27136
#
# Compressibility (1/GPa) = 0.13498456
#
# Stress axis : x y z
#
# Youngs Moduli (GPa) = 34.09721 15.53969 33.49669
#
# Poissons Ratio (x) = 0.16427 0.11976
# Poissons Ratio (y) = 0.36045 -0.66566
# Poissons Ratio (z) = 0.12191 -0.30881
#
# Static dielectric constant tensor:
#      x y z
#    x 1.774490 0.000000 -0.017210 
#    y 0.000000 1.750780 0.000000 
#    z -0.017210 0.000000 1.735790 
# 
# From -- ./inp_files/61550.got.cif
#   From: 2010.05.17/outbox.cif.g08.bks.cpg/sg15_31_cif.got.tgz:61550.got - 2010.06.03 18:47:42.
