data_PCOD9279351
_publ_section_title
;
Structure prediction by ZEFSAII (Michael W. Deem and Ramdas Pophale) SiO2 
 PCOD9279351
Probable space group: C 2/C
;
_chemical_formula_sum "Si O2"
_cell_formula_units_Z 56
_cell_length_a 8.991453
_cell_length_b 11.026901
_cell_length_c 28.087604
_cell_angle_alpha 90.000000
_cell_angle_beta 74.693708
_cell_angle_gamma 90.000000
_cell_volume 2686.043755
_symmetry_space_group_name_H-M "C 2/C"
_symmetry_group_IT_number 15
_symmetry_cell_setting 'monoclinic'
loop_
_space_group_symop_operation_xyz
x,y,z
-x,y,1/2-z
-x,-y,-z
x,-y,1/2+z
1/2+x,1/2+y,z
1/2-x,1/2+y,1/2-z
1/2-x,1/2-y,-z
1/2+x,1/2-y,1/2+z
loop_
_atom_site_type_symbol
_atom_site_label
_atom_site_fract_x
_atom_site_fract_y
_atom_site_fract_z
Si Si1 0.214966 0.629759 0.812457
Si Si2 0.921423 0.645633 0.072850
Si Si3 0.500000 0.202206 0.750000
Si Si4 0.408701 0.314475 0.508217
Si Si5 0.235065 0.930234 0.493842
Si Si6 0.000000 0.716599 0.250000
Si Si7 0.014355 0.364452 0.417761
Si Si8 0.225305 0.354261 0.816878
O O1 0.108115 0.625114 0.775022
O O2 0.365833 0.707670 0.788231
O O3 0.099030 0.678204 0.862970
O O4 0.265373 0.494818 0.821158
O O5 0.044179 0.745233 0.044353
O O6 0.822381 0.606212 0.034764
O O7 0.977516 0.510972 0.082490
O O8 0.838320 0.693330 0.127306
O O9 0.378905 0.284516 0.788792
O O10 0.564114 0.380666 0.511486
O O11 0.287861 0.425032 0.512782
O O12 0.393745 0.207411 0.548541
O O13 0.331674 0.857583 0.445042
O O14 0.902132 0.655108 0.214966
#
# Coordination Sequence:
#
# PCOD9279351 Si02
#       8
#     8   8   4   8   8   4   8   8
#     4  10  22  39  62  88 118 152 202 247 304 360
#     4  10  21  35  58  83 113 157 193 243 287 354
#     4  10  22  38  64  86 112 162 190 254 312 346
#     4  10  21  36  55  83 124 156 193 239 286 353
#     4  10  21  36  55  83 120 158 193 238 289 341
#     4  10  22  42  60  86 120 154 190 258 308 354
#     4  10  21  35  58  83 113 157 193 243 287 354
#     4  10  22  39  62  88 118 152 202 247 304 360
#
# _framework density 20.848506
#
# number of rings (size 3 to 8) (size 9 to 14) (size 15 to 20)
#    0.000    2.000    0.000    4.286    4.000    6.857 
#    0.000    0.000    0.000    0.000    0.000    0.000 
#    0.000    0.000    0.000    0.000    0.000    0.000 
#
# Total GULP energy -155916.231944 kJ/mol
# GULP energy per Si atom -5568.436855 kJ/mol
# Density = 2.080105 g / cm^3
# Si number density = 20.848506 Si / 1000 Ang^3
#
#
#
# Elastic Constant Matrix: (Units=GPa)
#
#
# Indices 1 2 3 4 5 6 
#
# 1 75.0988 9.9751 10.3778 0.0000 -13.7453 0.0000
# 2 9.9751 71.8993 32.1655 0.0000 -8.6516 0.0000
# 3 10.3778 32.1655 131.9154 0.0000 -10.6520 0.0000
# 4 0.0000 0.0000 0.0000 72.0107 0.0000 22.8311
# 5 -13.7453 -8.6516 -10.6520 0.0000 19.2450 0.0000
# 6 0.0000 0.0000 0.0000 22.8311 0.0000 20.7244
#
#
#
# Elastic Compliance Matrix: (Units=1/GPa)
#
#
# Indices 1 2 3 4 5 6 
#
# 1 0.015371 -0.000791 -0.000166 0.000000 0.010531 0.000000
# 2 -0.000791 0.016154 -0.003492 0.000000 0.004764 0.000000
# 3 -0.000166 -0.003492 0.008698 0.000000 0.003126 0.000000
# 4 0.000000 0.000000 0.000000 0.021341 0.000000 -0.023510
# 5 0.010531 0.004764 0.003126 0.000000 0.063355 0.000000
# 6 0.000000 0.000000 0.000000 -0.023510 0.000000 0.074152
#
#
# Mechanical properties :
#
#
# Convention : Reuss Voigt Hill
#
# Bulk Modulus (GPa) = 31.92397 42.66114 37.29255
# Shear Modulus (GPa) = 22.89281 37.48902 30.19091
#
# Velocity S-wave (km/s) = 3.31729 4.24508 3.80953
# Velocity P-wave (km/s) = 5.47888 6.67341 6.10543
#
# Compressibility (1/GPa) = 0.03132443
#
# Stress axis : x y z
#
# Youngs Moduli (GPa) = 65.05624 61.90605 114.97556
#
# Poissons Ratio (x) = 0.04897 0.01909
# Poissons Ratio (y) = 0.05147 0.40148
# Poissons Ratio (z) = 0.01080 0.21617
#
# Static dielectric constant tensor:
#      x y z
#    x 1.755920 0.000000 -0.022860 
#    y 0.000000 1.768600 0.000000 
#    z -0.022860 0.000000 1.776860 
# 
# From -- ./inp_files/307450.got.cif
#   From: 2010.05.17/outbox.cif.g08.bks.cpg/sg15_154_cif.got.tgz:307450.got - 2010.06.03 18:47:42.
