data_PCOD9279226
_publ_section_title
;
Structure prediction by ZEFSAII (Michael W. Deem and Ramdas Pophale) SiO2 
 PCOD9279226
Probable space group: C 2/C
;
_chemical_formula_sum "Si O2"
_cell_formula_units_Z 64
_cell_length_a 12.468631
_cell_length_b 13.235238
_cell_length_c 22.286797
_cell_angle_alpha 90.000000
_cell_angle_beta 64.421871
_cell_angle_gamma 90.000000
_cell_volume 3317.442998
_symmetry_space_group_name_H-M "C 2/C"
_symmetry_group_IT_number 15
_symmetry_cell_setting 'monoclinic'
loop_
_space_group_symop_operation_xyz
x,y,z
-x,y,1/2-z
-x,-y,-z
x,-y,1/2+z
1/2+x,1/2+y,z
1/2-x,1/2+y,1/2-z
1/2-x,1/2-y,-z
1/2+x,1/2-y,1/2+z
loop_
_atom_site_type_symbol
_atom_site_label
_atom_site_fract_x
_atom_site_fract_y
_atom_site_fract_z
Si Si1 0.335765 0.929076 0.440916
Si Si2 0.375635 0.035930 0.312486
Si Si3 0.489446 0.269176 0.922655
Si Si4 0.721082 0.599123 0.086609
Si Si5 0.241573 0.218469 0.296756
Si Si6 0.874708 0.201345 0.568958
Si Si7 0.624075 0.578238 0.232230
Si Si8 0.831518 0.901078 0.199368
O O1 0.378779 0.009858 0.382195
O O2 0.434585 0.842372 0.426311
O O3 0.286973 0.961584 0.517841
O O4 0.223613 0.871764 0.437756
O O5 0.500000 0.017732 0.250000
O O6 0.279059 0.961098 0.304530
O O7 0.334015 0.150354 0.311043
O O8 0.396386 0.345402 0.912269
O O9 0.619184 0.275696 0.863351
O O10 0.481631 0.293955 0.995433
O O11 0.810532 0.689724 0.084029
O O12 0.682813 0.543398 0.156120
O O13 0.211469 0.153787 0.244520
O O14 0.287039 0.324114 0.260744
O O15 0.896401 0.158358 0.629911
O O16 0.500000 0.633970 0.250000
O O17 0.595573 0.487355 0.284261
#
# Coordination Sequence:
#
# PCOD9279226 Si02
#       8
#     8   8   8   8   8   8   8   8
#     4   8  16  30  53  81 104 136 172 218 267 310
#     4  10  21  36  54  79 104 138 182 219 267 313
#     4   9  16  29  55  82 104 134 172 220 271 306
#     4   9  15  30  54  78 110 135 170 219 265 309
#     4  11  21  34  55  78 108 140 176 222 261 314
#     4   8  15  30  51  80 108 136 170 216 267 312
#     4  11  21  33  52  82 108 141 178 214 264 310
#     4  10  21  35  53  78 108 140 178 216 260 318
#
# _framework density 19.291965999999999
#
# number of rings (size 3 to 8) (size 9 to 14) (size 15 to 20)
#    0.000    2.500    2.500    2.250    0.000    1.000 
#    2.250    2.500    2.750    3.750    0.000    0.000 
#    0.000    0.000    0.000    0.000    0.000    0.000 
#
# Total GULP energy -178357.650849 kJ/mol
# GULP energy per Si atom -5573.676589 kJ/mol
# Density = 1.924806 g / cm^3
# Si number density = 19.291966 Si / 1000 Ang^3
#
#
#
# Elastic Constant Matrix: (Units=GPa)
#
#
# Indices 1 2 3 4 5 6 
#
# 1 14.7226 -3.8024 18.7822 0.0000 -0.0454 0.0000
# 2 -3.8024 29.5750 3.5273 0.0000 3.8652 0.0000
# 3 18.7822 3.5273 140.3109 0.0000 -6.1304 0.0000
# 4 0.0000 0.0000 0.0000 16.5898 0.0000 -0.6747
# 5 -0.0454 3.8652 -6.1304 0.0000 14.9355 0.0000
# 6 0.0000 0.0000 0.0000 -0.6747 0.0000 4.6082
#
#
#
# Elastic Compliance Matrix: (Units=1/GPa)
#
#
# Indices 1 2 3 4 5 6 
#
# 1 0.087274 0.013796 -0.012396 0.000000 -0.008393 0.000000
# 2 0.013796 0.037411 -0.003267 0.000000 -0.010981 0.000000
# 3 -0.012396 -0.003267 0.009066 0.000000 0.004529 0.000000
# 4 0.000000 0.000000 0.000000 0.060639 0.000000 0.008878
# 5 -0.008393 -0.010981 0.004529 0.000000 0.071630 0.000000
# 6 0.000000 0.000000 0.000000 0.008878 0.000000 0.218306
#
#
# Mechanical properties :
#
#
# Convention : Reuss Voigt Hill
#
# Bulk Modulus (GPa) = 7.69127 24.62472 16.15800
# Shear Modulus (GPa) = 9.40911 18.30013 13.85462
#
# Velocity S-wave (km/s) = 2.21084 3.08326 2.68275
# Velocity P-wave (km/s) = 3.24230 5.04651 4.24145
#
# Compressibility (1/GPa) = 0.13001755
#
# Stress axis : x y z
#
# Youngs Moduli (GPa) = 11.45813 26.73021 110.29729
#
# Poissons Ratio (x) = -0.36877 1.36726
# Poissons Ratio (y) = -0.15808 0.36034
# Poissons Ratio (z) = 0.14204 0.08733
#
# Static dielectric constant tensor:
#      x y z
#    x 1.653530 0.000000 0.020610 
#    y 0.000000 1.666860 0.000000 
#    z 0.020610 0.000000 1.703390 
# 
# From -- ./inp_files/238737.got.cif
#   From: 2010.05.17/outbox.cif.g08.bks.cpg/sg15_120_cif.got.tgz:238737.got - 2010.06.03 18:47:42.
