data_PCOD9279973
_publ_section_title
;
Structure prediction by ZEFSAII (Michael W. Deem and Ramdas Pophale) SiO2 
 PCOD9279973
Probable space group: C 2/C
;
_chemical_formula_sum "Si O2"
_cell_formula_units_Z 44
_cell_length_a 5.722724
_cell_length_b 13.348285
_cell_length_c 28.365786
_cell_angle_alpha 90.000000
_cell_angle_beta 115.916230
_cell_angle_gamma 90.000000
_cell_volume 1948.912763
_symmetry_space_group_name_H-M "C 2/C"
_symmetry_group_IT_number 15
_symmetry_cell_setting 'monoclinic'
loop_
_space_group_symop_operation_xyz
x,y,z
-x,y,1/2-z
-x,-y,-z
x,-y,1/2+z
1/2+x,1/2+y,z
1/2-x,1/2+y,1/2-z
1/2-x,1/2-y,-z
1/2+x,1/2-y,1/2+z
loop_
_atom_site_type_symbol
_atom_site_label
_atom_site_fract_x
_atom_site_fract_y
_atom_site_fract_z
Si Si1 0.589647 0.418848 0.076168
Si Si2 0.184341 0.905380 0.978160
Si Si3 0.000000 0.034701 0.750000
Si Si4 0.314036 0.339039 0.776705
Si Si5 0.410476 0.839774 0.346146
Si Si6 0.346212 0.788159 0.448722
O O1 0.380997 0.507230 0.064210
O O2 0.821476 0.401916 0.132441
O O3 0.440535 0.313439 0.059448
O O4 0.695343 0.443762 0.033311
O O5 0.956321 0.823210 0.954839
O O6 0.456829 0.848474 0.999804
O O7 0.865326 0.957666 0.775262
O O8 0.799232 0.103156 0.703965
O O9 0.500000 0.298992 0.750000
O O10 0.423809 0.274835 0.829612
O O11 0.000000 0.323783 0.750000
O O12 0.346150 0.831703 0.395613
#
# Coordination Sequence:
#
# PCOD9279973 Si02
#       6
#     8   8   4   8   8   8
#     4  10  21  36  62  90 131 172 222 273 341 408
#     4   9  20  39  56  92 130 172 218 274 341 403
#     4  10  26  46  68  94 140 180 228 292 356 410
#     4  10  25  47  71  96 133 182 228 289 354 413
#     4  11  24  41  64 101 125 178 231 284 346 417
#     4  10  21  36  63  90 128 172 221 279 333 413
#
# _framework density 22.576692000000001
#
# number of rings (size 3 to 8) (size 9 to 14) (size 15 to 20)
#    0.545    1.455    0.909    1.091    2.545    6.545 
#    0.000    3.636    0.000    0.000    0.000    0.000 
#    0.000    0.000    0.000    0.000    0.000    0.000 
#
# Total GULP energy -122554.345550 kJ/mol
# GULP energy per Si atom -5570.652070 kJ/mol
# Density = 2.252531 g / cm^3
# Si number density = 22.576692 Si / 1000 Ang^3
#
#
#
# Elastic Constant Matrix: (Units=GPa)
#
#
# Indices 1 2 3 4 5 6 
#
# 1 67.2942 19.2507 34.6591 0.0000 6.7278 0.0000
# 2 19.2507 113.6342 68.7318 0.0000 19.8090 0.0000
# 3 34.6591 68.7318 115.7660 0.0000 25.8331 0.0000
# 4 0.0000 0.0000 0.0000 24.4518 0.0000 -0.2836
# 5 6.7278 19.8090 25.8331 0.0000 31.9971 0.0000
# 6 0.0000 0.0000 0.0000 -0.2836 0.0000 16.9519
#
#
#
# Elastic Compliance Matrix: (Units=1/GPa)
#
#
# Indices 1 2 3 4 5 6 
#
# 1 0.017587 0.000282 -0.005573 0.000000 0.000627 0.000000
# 2 0.000282 0.013881 -0.007800 0.000000 -0.002355 0.000000
# 3 -0.005573 -0.007800 0.016587 0.000000 -0.007391 0.000000
# 4 0.000000 0.000000 0.000000 0.040905 0.000000 0.000684
# 5 0.000627 -0.002355 -0.007391 0.000000 0.038546 0.000000
# 6 0.000000 0.000000 0.000000 0.000684 0.000000 0.059002
#
#
# Mechanical properties :
#
#
# Convention : Reuss Voigt Hill
#
# Bulk Modulus (GPa) = 45.71823 60.21974 52.96898
# Shear Modulus (GPa) = 22.72937 26.28369 24.50653
#
# Velocity S-wave (km/s) = 3.17639 3.41573 3.29824
# Velocity P-wave (km/s) = 5.80920 6.50289 6.16581
#
# Compressibility (1/GPa) = 0.02187311
#
# Stress axis : x y z
#
# Youngs Moduli (GPa) = 56.86054 72.04156 60.28915
#
# Poissons Ratio (x) = -0.02031 0.33596
# Poissons Ratio (y) = -0.01603 0.47026
# Poissons Ratio (z) = 0.31686 0.56193
#
# Static dielectric constant tensor:
#      x y z
#    x 1.976420 0.000000 -0.034400 
#    y 0.000000 1.881320 0.000000 
#    z -0.034400 0.000000 1.808510 
# 
# From -- ./inp_files/305267.got.cif
#   From: 2010.05.17/outbox.cif.g08.bks.cpg/sg15_153_cif.got.tgz:305267.got - 2010.06.03 18:47:42.
