data_PCOD9279100
_publ_section_title
;
Structure prediction by ZEFSAII (Michael W. Deem and Ramdas Pophale) SiO2 
 PCOD9279100
Probable space group: C 2/C
;
_chemical_formula_sum "Si O2"
_cell_formula_units_Z 56
_cell_length_a 24.137428
_cell_length_b 12.849537
_cell_length_c 20.512513
_cell_angle_alpha 90.000000
_cell_angle_beta 28.733232
_cell_angle_gamma 90.000000
_cell_volume 3058.443936
_symmetry_space_group_name_H-M "C 2/C"
_symmetry_group_IT_number 15
_symmetry_cell_setting 'monoclinic'
loop_
_space_group_symop_operation_xyz
x,y,z
-x,y,1/2-z
-x,-y,-z
x,-y,1/2+z
1/2+x,1/2+y,z
1/2-x,1/2+y,1/2-z
1/2-x,1/2-y,-z
1/2+x,1/2-y,1/2+z
loop_
_atom_site_type_symbol
_atom_site_label
_atom_site_fract_x
_atom_site_fract_y
_atom_site_fract_z
Si Si1 0.849581 0.983954 0.586015
Si Si2 0.356276 0.905899 0.060499
Si Si3 0.680410 0.404513 0.742918
Si Si4 0.293335 0.289342 0.177730
Si Si5 0.116102 0.361775 0.810305
Si Si6 0.966916 0.013186 0.711273
Si Si7 0.290726 0.297328 0.391190
O O1 0.852733 0.108983 0.587261
O O2 0.880930 0.933496 0.624253
O O3 0.718843 0.944840 0.710744
O O4 0.927571 0.951412 0.444402
O O5 0.299976 0.837353 0.176082
O O6 0.318403 0.844279 0.034961
O O7 0.288025 0.014832 0.129793
O O8 0.491790 0.912516 0.930679
O O9 0.727897 0.288138 0.696883
O O10 0.600576 0.430004 0.764013
O O11 0.376424 0.215524 0.135038
O O12 0.148056 0.288906 0.716552
O O13 0.881039 0.109985 0.807934
O O14 0.000000 0.977993 0.750000
O O15 0.250000 0.250000 0.500000
#
# Coordination Sequence:
#
# PCOD9279100 Si02
#       7
#     8   8   8   8   8   8   8
#     4  10  21  38  56  92 114 147 188 238 290 336
#     4   9  20  36  53  86 117 142 188 236 285 336
#     4   9  20  38  58  85 118 149 188 238 283 340
#     4   9  20  34  57  86 111 152 186 228 295 333
#     4  10  21  34  57  83 120 142 183 242 280 348
#     4  11  23  37  59  83 116 150 193 238 282 343
#     4  10  22  36  55  83 112 154 185 228 293 351
#
# _framework density 18.309964000000001
#
# number of rings (size 3 to 8) (size 9 to 14) (size 15 to 20)
#    0.000    2.286    0.000    2.143   10.000    5.143 
#    0.000    0.714    0.000    0.000    0.000    0.000 
#    0.000    0.000    0.000    0.000    0.000    0.000 
#
# Total GULP energy -156285.805618 kJ/mol
# GULP energy per Si atom -5581.635915 kJ/mol
# Density = 1.826829 g / cm^3
# Si number density = 18.309964 Si / 1000 Ang^3
#
#
#
# Elastic Constant Matrix: (Units=GPa)
#
#
# Indices 1 2 3 4 5 6 
#
# 1 123.3486 31.7789 52.5534 0.0000 1.8870 0.0000
# 2 31.7789 76.8639 13.4695 0.0000 -2.7369 0.0000
# 3 52.5534 13.4695 75.7574 0.0000 -9.4576 0.0000
# 4 0.0000 0.0000 0.0000 13.2401 0.0000 1.4673
# 5 1.8870 -2.7369 -9.4576 0.0000 33.7228 0.0000
# 6 0.0000 0.0000 0.0000 1.4673 0.0000 21.2557
#
#
#
# Elastic Compliance Matrix: (Units=1/GPa)
#
#
# Indices 1 2 3 4 5 6 
#
# 1 0.012858 -0.003923 -0.008655 0.000000 -0.003465 0.000000
# 2 -0.003923 0.014631 0.000306 0.000000 0.001493 0.000000
# 3 -0.008655 0.000306 0.019910 0.000000 0.006093 0.000000
# 4 0.000000 0.000000 0.000000 0.076110 0.000000 -0.005254
# 5 -0.003465 0.001493 0.006093 0.000000 0.031677 0.000000
# 6 0.000000 0.000000 0.000000 -0.005254 0.000000 0.047409
#
#
# Mechanical properties :
#
#
# Convention : Reuss Voigt Hill
#
# Bulk Modulus (GPa) = 43.75081 52.39705 48.07393
# Shear Modulus (GPa) = 21.29845 25.52159 23.41002
#
# Velocity S-wave (km/s) = 3.41430 3.73750 3.57955
# Velocity P-wave (km/s) = 6.28408 6.87779 6.58763
#
# Compressibility (1/GPa) = 0.02285672
#
# Stress axis : x y z
#
# Youngs Moduli (GPa) = 77.77075 68.34625 50.22536
#
# Poissons Ratio (x) = 0.26811 0.43470
# Poissons Ratio (y) = 0.30509 -0.01538
# Poissons Ratio (z) = 0.67311 -0.02093
#
# Static dielectric constant tensor:
#      x y z
#    x 1.651190 0.000000 -0.016760 
#    y 0.000000 1.633180 0.000000 
#    z -0.016760 0.000000 1.632450 
# 
# From -- ./inp_files/255439.got.cif
#   From: 2010.05.17/outbox.cif.g08.bks.cpg/sg15_128_cif.got.tgz:255439.got - 2010.06.03 18:47:42.
