data_PCOD9279945
_publ_section_title
;
Structure prediction by ZEFSAII (Michael W. Deem and Ramdas Pophale) SiO2 
 PCOD9279945
Probable space group: C 2/C
;
_chemical_formula_sum "Si O2"
_cell_formula_units_Z 40
_cell_length_a 12.424362
_cell_length_b 13.973820
_cell_length_c 10.233747
_cell_angle_alpha 90.000000
_cell_angle_beta 106.617184
_cell_angle_gamma 90.000000
_cell_volume 1702.537886
_symmetry_space_group_name_H-M "C 2/C"
_symmetry_group_IT_number 15
_symmetry_cell_setting 'monoclinic'
loop_
_space_group_symop_operation_xyz
x,y,z
-x,y,1/2-z
-x,-y,-z
x,-y,1/2+z
1/2+x,1/2+y,z
1/2-x,1/2+y,1/2-z
1/2-x,1/2-y,-z
1/2+x,1/2-y,1/2+z
loop_
_atom_site_type_symbol
_atom_site_label
_atom_site_fract_x
_atom_site_fract_y
_atom_site_fract_z
Si Si1 0.394520 0.889669 0.121467
Si Si2 0.177893 0.810043 0.776849
Si Si3 0.169839 0.030185 0.491935
Si Si4 0.067162 0.662749 0.158439
Si Si5 0.463979 0.645870 0.524588
O O1 0.500000 0.903829 0.250000
O O2 0.345004 0.784399 0.144235
O O3 0.291033 0.962420 0.100632
O O4 0.428737 0.888493 0.981070
O O5 0.172536 0.903465 0.865637
O O6 0.304289 0.809448 0.765132
O O7 0.085172 0.821792 0.632855
O O8 0.075320 0.081075 0.547963
O O9 0.129852 0.923540 0.448108
O O10 0.000000 0.610976 0.250000
O O11 0.996653 0.759167 0.109445
#
# Coordination Sequence:
#
# PCOD9279945 Si02
#       5
#     8   8   8   8   8
#     4  11  19  41  70  92 127 179 223 251 327 402
#     4  11  20  41  65  93 130 175 220 263 324 390
#     4  10  21  36  61  99 128 171 210 270 320 389
#     4  11  23  38  62  99 128 167 223 274 313 381
#     4  11  21  37  63  95 131 163 217 273 319 373
#
# _framework density 23.494337999999999
#
# number of rings (size 3 to 8) (size 9 to 14) (size 15 to 20)
#    0.000    1.200    6.000    1.800    0.000    4.000 
#    0.000    1.000    0.000    4.800    0.000    0.000 
#    0.000    0.000    0.000    0.000    0.000    0.000 
#
# Total GULP energy -111989.774127 kJ/mol
# GULP energy per Si atom -5599.488706 kJ/mol
# Density = 2.344086 g / cm^3
# Si number density = 23.494338 Si / 1000 Ang^3
#
#
#
# Elastic Constant Matrix: (Units=GPa)
#
#
# Indices 1 2 3 4 5 6 
#
# 1 165.6194 33.6456 65.8480 0.0000 16.1542 0.0000
# 2 33.6456 92.0309 -3.8254 0.0000 -0.0668 0.0000
# 3 65.8480 -3.8254 71.5943 0.0000 12.7241 0.0000
# 4 0.0000 0.0000 0.0000 -12.2026 0.0000 9.3694
# 5 16.1542 -0.0668 12.7241 0.0000 45.5534 0.0000
# 6 0.0000 0.0000 0.0000 9.3694 0.0000 41.3861
#
#
#
# Elastic Compliance Matrix: (Units=1/GPa)
#
#
# Indices 1 2 3 4 5 6 
#
# 1 0.011160 -0.004509 -0.010312 0.000000 -0.001084 0.000000
# 2 -0.004509 0.012713 0.004776 0.000000 0.000284 0.000000
# 3 -0.010312 0.004776 0.024261 0.000000 -0.003113 0.000000
# 4 0.000000 0.000000 0.000000 -0.069814 0.000000 0.015805
# 5 -0.001084 0.000284 -0.003113 0.000000 0.023206 0.000000
# 6 0.000000 0.000000 0.000000 0.015805 0.000000 0.020585
#
#
# Mechanical properties :
#
#
# Convention : Reuss Voigt Hill
#
# Bulk Modulus (GPa) = 35.65981 57.84232 46.75107
# Shear Modulus (GPa) = 96.99481 30.51914 63.75698
#
# Velocity S-wave (km/s) = 6.43226 3.60807 5.21499
# Velocity P-wave (km/s) = 8.38906 6.48311 7.49690
#
# Compressibility (1/GPa) = 0.02804277
#
# Stress axis : x y z
#
# Youngs Moduli (GPa) = 89.60730 78.65815 41.21888
#
# Poissons Ratio (x) = 0.35470 0.42507
# Poissons Ratio (y) = 0.40407 -0.19687
# Poissons Ratio (z) = 0.92407 -0.37570
#
# Static dielectric constant tensor:
#      x y z
#    x 1.909240 0.000000 -0.028120 
#    y 0.000000 1.879790 0.000000 
#    z -0.028120 0.000000 1.898990 
# 
# From -- ./inp_files/85693.got.cif
#   From: 2010.05.17/outbox.cif.g08.bks.cpg/sg15_43_cif.got.tgz:85693.got - 2010.06.03 18:47:42.
