data_PCOD9279515
_publ_section_title
;
Structure prediction by ZEFSAII (Michael W. Deem and Ramdas Pophale) SiO2 
 PCOD9279515
Probable space group: C 2/C
;
_chemical_formula_sum "Si O2"
_cell_formula_units_Z 60
_cell_length_a 14.730827
_cell_length_b 10.012271
_cell_length_c 24.050076
_cell_angle_alpha 90.000000
_cell_angle_beta 55.673824
_cell_angle_gamma 90.000000
_cell_volume 2929.358272
_symmetry_space_group_name_H-M "C 2/C"
_symmetry_group_IT_number 15
_symmetry_cell_setting 'monoclinic'
loop_
_space_group_symop_operation_xyz
x,y,z
-x,y,1/2-z
-x,-y,-z
x,-y,1/2+z
1/2+x,1/2+y,z
1/2-x,1/2+y,1/2-z
1/2-x,1/2-y,-z
1/2+x,1/2-y,1/2+z
loop_
_atom_site_type_symbol
_atom_site_label
_atom_site_fract_x
_atom_site_fract_y
_atom_site_fract_z
Si Si1 0.442955 0.176474 0.176054
Si Si2 0.922679 0.818699 0.687580
Si Si3 0.750122 0.220396 0.663809
Si Si4 0.500000 0.508088 0.750000
Si Si5 0.815391 0.460460 0.564389
Si Si6 0.842990 0.827334 0.361514
Si Si7 0.267480 0.917282 0.825932
Si Si8 0.005897 0.576188 0.912254
O O1 0.356025 0.250953 0.166312
O O2 0.541519 0.275125 0.155976
O O3 0.375917 0.114970 0.251342
O O4 0.497392 0.051246 0.126492
O O5 0.853106 0.748376 0.760616
O O6 0.999321 0.919496 0.694769
O O7 0.835176 0.896429 0.679668
O O8 0.977955 0.708128 0.629754
O O9 0.762442 0.330518 0.611451
O O10 0.738925 0.067214 0.649292
O O11 0.613912 0.591548 0.708114
O O12 0.723778 0.567826 0.578864
O O13 0.888661 0.541618 0.585013
O O14 0.899221 0.418296 0.487695
O O15 0.770926 0.699459 0.370280
#
# Coordination Sequence:
#
# PCOD9279515 Si02
#       8
#     8   8   8   4   8   8   8   8
#     4  10  21  35  63  93 126 159 213 259 317 366
#     4  11  22  37  65  93 124 164 211 262 317 369
#     4  10  21  38  63  94 124 161 211 265 306 374
#     4  12  24  36  62  98 130 154 208 272 322 366
#     4  10  22  42  67  91 129 172 213 255 320 386
#     4  12  22  39  62  96 124 165 204 264 318 373
#     4  11  21  35  63  93 125 155 213 261 311 369
#     4  10  21  42  66  92 127 174 214 255 318 387
#
# _framework density 20.482299999999999
#
# number of rings (size 3 to 8) (size 9 to 14) (size 15 to 20)
#    0.000    1.333    5.333    0.800    1.867    1.600 
#    0.000    1.333    2.933    0.000    0.000    0.000 
#    0.000    0.000    0.000    0.000    0.000    0.000 
#
# Total GULP energy -167581.339205 kJ/mol
# GULP energy per Si atom -5586.044640 kJ/mol
# Density = 2.043568 g / cm^3
# Si number density = 20.482300 Si / 1000 Ang^3
#
#
#
# Elastic Constant Matrix: (Units=GPa)
#
#
# Indices 1 2 3 4 5 6 
#
# 1 50.7164 25.7356 4.2157 0.0000 -11.6577 0.0000
# 2 25.7356 138.1229 35.5096 0.0000 -7.8317 0.0000
# 3 4.2157 35.5096 60.6062 0.0000 -8.5719 0.0000
# 4 0.0000 0.0000 0.0000 26.5943 0.0000 -4.0927
# 5 -11.6577 -7.8317 -8.5719 0.0000 15.5099 0.0000
# 6 0.0000 0.0000 0.0000 -4.0927 0.0000 23.8004
#
#
#
# Elastic Compliance Matrix: (Units=1/GPa)
#
#
# Indices 1 2 3 4 5 6 
#
# 1 0.026277 -0.004747 0.003697 0.000000 0.019397 0.000000
# 2 -0.004747 0.009422 -0.005448 0.000000 -0.001821 0.000000
# 3 0.003697 -0.005448 0.021087 0.000000 0.011682 0.000000
# 4 0.000000 0.000000 0.000000 0.038624 0.000000 0.006642
# 5 0.019397 -0.001821 0.011682 0.000000 0.084591 0.000000
# 6 0.000000 0.000000 0.000000 0.006642 0.000000 0.043158
#
#
# Mechanical properties :
#
#
# Convention : Reuss Voigt Hill
#
# Bulk Modulus (GPa) = 22.83579 42.26304 32.54942
# Shear Modulus (GPa) = 19.94007 25.44655 22.69331
#
# Velocity S-wave (km/s) = 3.12352 3.52855 3.33220
# Velocity P-wave (km/s) = 4.91750 6.10570 5.54353
#
# Compressibility (1/GPa) = 0.04379090
#
# Stress axis : x y z
#
# Youngs Moduli (GPa) = 38.05537 106.13915 47.42293
#
# Poissons Ratio (x) = 0.50381 -0.17531
# Poissons Ratio (y) = 0.18064 0.25834
# Poissons Ratio (z) = -0.14068 0.57820
#
# Static dielectric constant tensor:
#      x y z
#    x 1.760890 0.000000 -0.001080 
#    y 0.000000 1.760820 0.000000 
#    z -0.001080 0.000000 1.706370 
# 
# From -- ./inp_files/298378.got.cif
#   From: 2010.05.17/outbox.cif.g08.bks.cpg/sg15_150_cif.got.tgz:298378.got - 2010.06.03 18:47:42.
