data_PCOD9279631
_publ_section_title
;
Structure prediction by ZEFSAII (Michael W. Deem and Ramdas Pophale) SiO2 
 PCOD9279631
Probable space group: C 2/C
;
_chemical_formula_sum "Si O2"
_cell_formula_units_Z 44
_cell_length_a 8.184930
_cell_length_b 25.663549
_cell_length_c 11.015642
_cell_angle_alpha 90.000000
_cell_angle_beta 120.495394
_cell_angle_gamma 90.000000
_cell_volume 1993.803937
_symmetry_space_group_name_H-M "C 2/C"
_symmetry_group_IT_number 15
_symmetry_cell_setting 'monoclinic'
loop_
_space_group_symop_operation_xyz
x,y,z
-x,y,1/2-z
-x,-y,-z
x,-y,1/2+z
1/2+x,1/2+y,z
1/2-x,1/2+y,1/2-z
1/2-x,1/2-y,-z
1/2+x,1/2-y,1/2+z
loop_
_atom_site_type_symbol
_atom_site_label
_atom_site_fract_x
_atom_site_fract_y
_atom_site_fract_z
Si Si1 0.770820 0.581658 0.392557
Si Si2 0.824960 0.971238 0.047867
Si Si3 0.429225 0.613995 0.970734
Si Si4 0.152521 0.611604 0.653596
Si Si5 0.000000 0.560661 0.250000
Si Si6 0.663751 0.301992 0.412867
O O1 0.685601 0.524049 0.379246
O O2 0.620509 0.617613 0.406433
O O3 0.953895 0.585963 0.548918
O O4 0.857784 0.590092 0.290896
O O5 0.641319 0.971097 0.889776
O O6 0.795703 0.926729 0.137834
O O7 0.990935 0.944527 0.029426
O O8 0.239527 0.619451 0.818160
O O9 0.571989 0.658386 0.977136
O O10 0.169178 0.666202 0.590340
O O11 0.500000 0.292676 0.250000
O O12 0.750000 0.250000 0.500000
#
# Coordination Sequence:
#
# PCOD9279631 Si02
#       6
#     8   8   8   8   4   8
#     4  11  22  36  59  86 124 165 204 256 290 362
#     4  10  21  36  55  83 125 163 201 248 294 354
#     4  10  21  38  61  90 117 162 211 241 302 370
#     4   9  19  38  61  86 118 159 206 244 302 370
#     4  10  22  36  50  80 124 162 208 236 306 334
#     4   9  19  40  66  91 121 158 202 257 320 387
#
# _framework density 22.068369000000001
#
# number of rings (size 3 to 8) (size 9 to 14) (size 15 to 20)
#    0.000    2.182    0.000    4.909    5.091    0.727 
#   18.000    0.909    0.000    0.000    0.000    0.000 
#    0.000    0.000    0.000    0.000    0.000    0.000 
#
# Total GULP energy -122662.041274 kJ/mol
# GULP energy per Si atom -5575.547331 kJ/mol
# Density = 2.201814 g / cm^3
# Si number density = 22.068369 Si / 1000 Ang^3
#
#
#
# Elastic Constant Matrix: (Units=GPa)
#
#
# Indices 1 2 3 4 5 6 
#
# 1 122.2921 39.1599 40.2404 0.0000 -36.6156 0.0000
# 2 39.1599 125.4770 37.0377 0.0000 -6.1307 0.0000
# 3 40.2404 37.0377 111.7490 0.0000 -10.8211 0.0000
# 4 0.0000 0.0000 0.0000 18.8137 0.0000 10.7912
# 5 -36.6156 -6.1307 -10.8211 0.0000 53.9713 0.0000
# 6 0.0000 0.0000 0.0000 10.7912 0.0000 16.2916
#
#
#
# Elastic Compliance Matrix: (Units=1/GPa)
#
#
# Indices 1 2 3 4 5 6 
#
# 1 0.012140 -0.002603 -0.002794 0.000000 0.007380 0.000000
# 2 -0.002603 0.009402 -0.002291 0.000000 -0.001158 0.000000
# 3 -0.002794 -0.002291 0.010713 0.000000 -0.000008 0.000000
# 4 0.000000 0.000000 0.000000 0.085720 0.000000 -0.056779
# 5 0.007380 -0.001158 -0.000008 0.000000 0.023402 0.000000
# 6 0.000000 0.000000 0.000000 -0.056779 0.000000 0.098991
#
#
# Mechanical properties :
#
#
# Convention : Reuss Voigt Hill
#
# Bulk Modulus (GPa) = 59.24674 65.82154 62.53414
# Shear Modulus (GPa) = 19.12996 34.02066 26.57531
#
# Velocity S-wave (km/s) = 2.94743 3.93058 3.47396
# Velocity P-wave (km/s) = 6.20389 7.10565 6.67003
#
# Compressibility (1/GPa) = 0.01687857
#
# Stress axis : x y z
#
# Youngs Moduli (GPa) = 82.37342 106.36407 93.34279
#
# Poissons Ratio (x) = 0.27691 0.26080
# Poissons Ratio (y) = 0.21445 0.21382
# Poissons Ratio (z) = 0.23015 0.24365
#
# Static dielectric constant tensor:
#      x y z
#    x 2.154520 0.000000 0.178650 
#    y 0.000000 1.754720 0.000000 
#    z 0.178650 0.000000 2.032460 
# 
# From -- ./inp_files/79997.got.cif
#   From: 2010.05.17/outbox.cif.g08.bks.cpg/sg15_40_cif.got.tgz:79997.got - 2010.06.03 18:47:42.
