data_PCOD9279350
_publ_section_title
;
Structure prediction by ZEFSAII (Michael W. Deem and Ramdas Pophale) SiO2 
 PCOD9279350
Probable space group: C 2/C
;
_chemical_formula_sum "Si O2"
_cell_formula_units_Z 64
_cell_length_a 9.702744
_cell_length_b 26.735267
_cell_length_c 15.099317
_cell_angle_alpha 90.000000
_cell_angle_beta 110.521065
_cell_angle_gamma 90.000000
_cell_volume 3668.295354
_symmetry_space_group_name_H-M "C 2/C"
_symmetry_group_IT_number 15
_symmetry_cell_setting 'monoclinic'
loop_
_space_group_symop_operation_xyz
x,y,z
-x,y,1/2-z
-x,-y,-z
x,-y,1/2+z
1/2+x,1/2+y,z
1/2-x,1/2+y,1/2-z
1/2-x,1/2-y,-z
1/2+x,1/2-y,1/2+z
loop_
_atom_site_type_symbol
_atom_site_label
_atom_site_fract_x
_atom_site_fract_y
_atom_site_fract_z
Si Si1 0.888167 0.273331 0.482799
Si Si2 0.864321 0.360544 0.348211
Si Si3 0.613601 0.067028 0.491167
Si Si4 0.848506 0.119877 0.163095
Si Si5 0.796898 0.375999 0.134801
Si Si6 0.288454 0.958532 0.995348
Si Si7 0.860791 0.203324 0.017084
Si Si8 0.973492 0.351296 0.845696
O O1 0.750000 0.250000 0.500000
O O2 0.840582 0.307287 0.388719
O O3 0.985313 0.228084 0.469574
O O4 0.982761 0.308446 0.572311
O O5 0.822306 0.399966 0.414587
O O6 0.790812 0.373204 0.238647
O O7 0.038937 0.363076 0.364403
O O8 0.451887 0.052460 0.492863
O O9 0.577826 0.102150 0.399128
O O10 0.710966 0.018193 0.495523
O O11 0.696121 0.131120 0.181099
O O12 0.000000 0.114355 0.250000
O O13 0.818210 0.070399 0.096690
O O14 0.863230 0.168314 0.103356
O O15 0.767948 0.429796 0.083786
O O16 0.692315 0.333885 0.071440
O O17 0.750000 0.250000 0.000000
O O18 0.000000 0.336554 0.750000
#
# Coordination Sequence:
#
# PCOD9279350 Si02
#       8
#     8   8   8   8   8   8   8   8
#     4  11  23  36  53  79 112 149 185 227 282 339
#     4   9  17  32  52  80 106 140 182 228 274 324
#     4   8  15  32  54  75 112 144 168 225 279 325
#     4  10  21  35  58  83 111 146 186 235 280 328
#     4   9  17  30  54  80 107 134 186 235 264 324
#     4   8  15  32  52  81 108 135 180 225 274 323
#     4  11  19  36  55  75 108 147 185 229 278 325
#     4  10  21  37  53  83 117 145 185 231 278 337
#
# _framework density 17.446795999999999
#
# number of rings (size 3 to 8) (size 9 to 14) (size 15 to 20)
#    0.000    2.500    2.500    1.500    1.750    2.000 
#    9.000    0.000    0.000    3.750    0.000    0.000 
#    0.000    0.000    0.000    0.000    0.000    0.000 
#
# Total GULP energy -178215.402115 kJ/mol
# GULP energy per Si atom -5569.231316 kJ/mol
# Density = 1.740709 g / cm^3
# Si number density = 17.446796 Si / 1000 Ang^3
#
#
#
# Elastic Constant Matrix: (Units=GPa)
#
#
# Indices 1 2 3 4 5 6 
#
# 1 61.2205 33.7262 32.9164 0.0000 5.0458 0.0000
# 2 33.7262 118.7178 50.4278 0.0000 7.1180 0.0000
# 3 32.9164 50.4278 119.1998 0.0000 4.0730 0.0000
# 4 0.0000 0.0000 0.0000 6.1958 0.0000 -1.2313
# 5 5.0458 7.1180 4.0730 0.0000 21.7266 0.0000
# 6 0.0000 0.0000 0.0000 -1.2313 0.0000 18.1336
#
#
#
# Elastic Compliance Matrix: (Units=1/GPa)
#
#
# Indices 1 2 3 4 5 6 
#
# 1 0.020951 -0.004106 -0.003954 0.000000 -0.002779 0.000000
# 2 -0.004106 0.011217 -0.003541 0.000000 -0.002058 0.000000
# 3 -0.003954 -0.003541 0.010979 0.000000 0.000020 0.000000
# 4 0.000000 0.000000 0.000000 0.163606 0.000000 0.011109
# 5 -0.002779 -0.002058 0.000020 0.000000 0.047342 0.000000
# 6 0.000000 0.000000 0.000000 0.011109 0.000000 0.055901
#
#
# Mechanical properties :
#
#
# Convention : Reuss Voigt Hill
#
# Bulk Modulus (GPa) = 50.13721 59.25322 54.69522
# Shear Modulus (GPa) = 14.71253 21.34905 18.03079
#
# Velocity S-wave (km/s) = 2.90708 3.50189 3.21825
# Velocity P-wave (km/s) = 6.32991 7.09837 6.72513
#
# Compressibility (1/GPa) = 0.01994526
#
# Stress axis : x y z
#
# Youngs Moduli (GPa) = 47.73012 89.14691 91.08676
#
# Poissons Ratio (x) = 0.36603 0.36012
# Poissons Ratio (y) = 0.19598 0.32258
# Poissons Ratio (z) = 0.18870 0.31571
#
# Static dielectric constant tensor:
#      x y z
#    x 1.579490 0.000000 0.007740 
#    y 0.000000 1.581210 0.000000 
#    z 0.007740 0.000000 1.600110 
# 
# From -- ./inp_files/138642.got.cif
#   From: 2010.05.17/outbox.cif.g08.bks.cpg/sg15_70_cif.got.tgz:138642.got - 2010.06.03 18:47:42.
