data_PCOD9279255
_publ_section_title
;
Structure prediction by ZEFSAII (Michael W. Deem and Ramdas Pophale) SiO2 
 PCOD9279255
Probable space group: C 2/C
;
_chemical_formula_sum "Si O2"
_cell_formula_units_Z 40
_cell_length_a 21.153288
_cell_length_b 11.957777
_cell_length_c 9.377070
_cell_angle_alpha 90.000000
_cell_angle_beta 113.994130
_cell_angle_gamma 90.000000
_cell_volume 2166.932884
_symmetry_space_group_name_H-M "C 2/C"
_symmetry_group_IT_number 15
_symmetry_cell_setting 'monoclinic'
loop_
_space_group_symop_operation_xyz
x,y,z
-x,y,1/2-z
-x,-y,-z
x,-y,1/2+z
1/2+x,1/2+y,z
1/2-x,1/2+y,1/2-z
1/2-x,1/2-y,-z
1/2+x,1/2-y,1/2+z
loop_
_atom_site_type_symbol
_atom_site_label
_atom_site_fract_x
_atom_site_fract_y
_atom_site_fract_z
Si Si1 0.226053 0.581067 0.087715
Si Si2 0.330735 0.689981 0.951408
Si Si3 0.152056 0.122280 0.110320
Si Si4 0.080164 0.971313 0.826190
Si Si5 0.775519 0.671470 0.896675
O O1 0.167793 0.676210 0.035191
O O2 0.270269 0.583366 0.275174
O O3 0.205043 0.454150 0.042299
O O4 0.280765 0.632604 0.024627
O O5 0.289774 0.664530 0.769756
O O6 0.402770 0.629825 0.047510
O O7 0.104518 0.071806 0.192995
O O8 0.162140 0.256452 0.117116
O O9 0.124835 0.072267 0.936588
O O10 0.000000 0.000102 0.750000
O O11 0.750000 0.750000 0.000000
#
# Coordination Sequence:
#
# PCOD9279255 Si02
#       5
#     8   8   8   8   8
#     4   9  18  34  54  78 116 137 173 236 280 337
#     4   9  19  33  52  82 108 146 183 217 286 331
#     4  10  21  35  54  86 111 146 193 227 286 330
#     4  11  21  38  58  79 116 155 193 232 266 334
#     4  11  20  32  56  84 116 141 176 238 291 334
#
# _framework density 18.45927
#
# number of rings (size 3 to 8) (size 9 to 14) (size 15 to 20)
#    0.000    2.000    2.000    4.200    2.800    0.000 
#    0.000    0.000    0.000    2.400    0.000    0.000 
#    0.000    0.000    0.000    0.000    0.000    0.000 
#
# Total GULP energy -111381.611420 kJ/mol
# GULP energy per Si atom -5569.080571 kJ/mol
# Density = 1.841726 g / cm^3
# Si number density = 18.459270 Si / 1000 Ang^3
#
#
#
# Elastic Constant Matrix: (Units=GPa)
#
#
# Indices 1 2 3 4 5 6 
#
# 1 30.6227 17.7699 22.8076 0.0000 0.8101 0.0000
# 2 17.7699 182.5114 33.1832 0.0000 2.7226 0.0000
# 3 22.8076 33.1832 86.7234 0.0000 -2.1918 0.0000
# 4 0.0000 0.0000 0.0000 30.7895 0.0000 -1.1952
# 5 0.8101 2.7226 -2.1918 0.0000 25.8426 0.0000
# 6 0.0000 0.0000 0.0000 -1.1952 0.0000 14.2625
#
#
#
# Elastic Compliance Matrix: (Units=1/GPa)
#
#
# Indices 1 2 3 4 5 6 
#
# 1 0.041516 -0.002170 -0.010137 0.000000 -0.001932 0.000000
# 2 -0.002170 0.006019 -0.001750 0.000000 -0.000715 0.000000
# 3 -0.010137 -0.001750 0.014911 0.000000 0.001767 0.000000
# 4 0.000000 0.000000 0.000000 0.032585 0.000000 0.002731
# 5 -0.001932 -0.000715 0.001767 0.000000 0.038981 0.000000
# 6 0.000000 0.000000 0.000000 0.002731 0.000000 0.070343
#
#
# Mechanical properties :
#
#
# Convention : Reuss Voigt Hill
#
# Bulk Modulus (GPa) = 29.12794 49.70878 39.41836
# Shear Modulus (GPa) = 20.49902 29.25205 24.87554
#
# Velocity S-wave (km/s) = 3.33603 3.98512 3.67494
# Velocity P-wave (km/s) = 5.53648 6.93991 6.27754
#
# Compressibility (1/GPa) = 0.03433130
#
# Stress axis : x y z
#
# Youngs Moduli (GPa) = 24.08724 166.13124 67.06345
#
# Poissons Ratio (x) = 0.36055 0.67981
# Poissons Ratio (y) = 0.05228 0.11739
# Poissons Ratio (z) = 0.24417 0.29081
#
# Static dielectric constant tensor:
#      x y z
#    x 1.667530 0.000000 -0.057810 
#    y 0.000000 1.717810 0.000000 
#    z -0.057810 0.000000 1.720590 
# 
# From -- ./inp_files/60748.got.cif
#   From: 2010.05.17/outbox.cif.g08.bks.cpg/sg15_31_cif.got.tgz:60748.got - 2010.06.03 18:47:42.
