data_PCOD9279529
_publ_section_title
;
Structure prediction by ZEFSAII (Michael W. Deem and Ramdas Pophale) SiO2 
 PCOD9279529
Probable space group: C 2/C
;
_chemical_formula_sum "Si O2"
_cell_formula_units_Z 52
_cell_length_a 9.020418
_cell_length_b 25.984532
_cell_length_c 12.480341
_cell_angle_alpha 90.000000
_cell_angle_beta 62.197606
_cell_angle_gamma 90.000000
_cell_volume 2587.593436
_symmetry_space_group_name_H-M "C 2/C"
_symmetry_group_IT_number 15
_symmetry_cell_setting 'monoclinic'
loop_
_space_group_symop_operation_xyz
x,y,z
-x,y,1/2-z
-x,-y,-z
x,-y,1/2+z
1/2+x,1/2+y,z
1/2-x,1/2+y,1/2-z
1/2-x,1/2-y,-z
1/2+x,1/2-y,1/2+z
loop_
_atom_site_type_symbol
_atom_site_label
_atom_site_fract_x
_atom_site_fract_y
_atom_site_fract_z
Si Si1 0.775341 0.808822 0.518854
Si Si2 0.503978 0.439246 0.512061
Si Si3 0.736898 0.361888 0.570048
Si Si4 0.819180 0.387773 0.781887
Si Si5 0.000000 0.773938 0.750000
Si Si6 0.917180 0.677718 0.633018
Si Si7 0.085992 0.857658 0.332904
O O1 0.750000 0.750000 0.500000
O O2 0.701792 0.832010 0.652708
O O3 0.669671 0.831600 0.454202
O O4 0.973579 0.822451 0.449999
O O5 0.500000 0.500000 0.500000
O O6 0.634056 0.406992 0.543707
O O7 0.324753 0.421550 0.616419
O O8 0.540341 0.414673 0.383986
O O9 0.797349 0.383962 0.663255
O O10 0.626203 0.312496 0.645009
O O11 0.895584 0.343044 0.447262
O O12 0.000000 0.408404 0.750000
O O13 0.927997 0.735035 0.682217
O O14 0.782787 0.650623 0.756605
O O15 0.000000 0.844397 0.250000
#
# Coordination Sequence:
#
# PCOD9279529 Si02
#       7
#     8   8   8   8   4   8   8
#     4  10  21  35  64  95 137 183 224 260 324 390
#     4  11  25  47  71  94 127 173 222 287 351 394
#     4  12  24  43  68  98 139 177 226 279 331 405
#     4  11  22  44  68  98 135 174 223 280 327 401
#     4  12  24  38  62  98 144 178 226 264 330 398
#     4  11  23  38  63  99 137 187 218 266 328 402
#     4   9  22  42  62  94 135 171 223 275 327 402
#
# _framework density 20.095893
#
# number of rings (size 3 to 8) (size 9 to 14) (size 15 to 20)
#    0.000    1.231    3.077    2.308    4.308    3.077 
#    2.769    0.769    0.000    0.000    0.000    0.000 
#    0.000    0.000    0.000    0.000    0.000    0.000 
#
# Total GULP energy -144918.309759 kJ/mol
# GULP energy per Si atom -5573.781145 kJ/mol
# Density = 2.005015 g / cm^3
# Si number density = 20.095893 Si / 1000 Ang^3
#
#
#
# Elastic Constant Matrix: (Units=GPa)
#
#
# Indices 1 2 3 4 5 6 
#
# 1 93.0337 30.6093 64.4902 0.0000 -25.4965 0.0000
# 2 30.6093 117.1784 31.8578 0.0000 -36.3754 0.0000
# 3 64.4902 31.8578 102.6915 0.0000 -35.5998 0.0000
# 4 0.0000 0.0000 0.0000 16.6072 0.0000 7.8599
# 5 -25.4965 -36.3754 -35.5998 0.0000 53.9174 0.0000
# 6 0.0000 0.0000 0.0000 7.8599 0.0000 10.0017
#
#
#
# Elastic Compliance Matrix: (Units=1/GPa)
#
#
# Indices 1 2 3 4 5 6 
#
# 1 0.019427 -0.001838 -0.011510 0.000000 0.000347 0.000000
# 2 -0.001838 0.011060 0.000011 0.000000 0.006600 0.000000
# 3 -0.011510 0.000011 0.019554 0.000000 0.007476 0.000000
# 4 0.000000 0.000000 0.000000 0.095872 0.000000 -0.075342
# 5 0.000347 0.006600 0.007476 0.000000 0.028100 0.000000
# 6 0.000000 0.000000 0.000000 -0.075342 0.000000 0.159191
#
#
# Mechanical properties :
#
#
# Convention : Reuss Voigt Hill
#
# Bulk Modulus (GPa) = 42.79327 62.97979 52.88653
# Shear Modulus (GPa) = 13.59931 28.50167 21.05049
#
# Velocity S-wave (km/s) = 2.60421 3.77010 3.24002
# Velocity P-wave (km/s) = 5.51210 7.09642 6.35384
#
# Compressibility (1/GPa) = 0.02336816
#
# Stress axis : x y z
#
# Youngs Moduli (GPa) = 51.47474 90.41749 51.14014
#
# Poissons Ratio (x) = 0.16616 0.58860
# Poissons Ratio (y) = 0.09459 -0.00056
# Poissons Ratio (z) = 0.59245 -0.00099
#
# Static dielectric constant tensor:
#      x y z
#    x 1.803890 0.000000 0.047130 
#    y 0.000000 1.688930 0.000000 
#    z 0.047130 0.000000 1.773290 
# 
# From -- ./inp_files/137223.got.cif
#   From: 2010.05.17/outbox.cif.g08.bks.cpg/sg15_69_cif.got.tgz:137223.got - 2010.06.03 18:47:42.
