data_PCOD9279123
_publ_section_title
;
Structure prediction by ZEFSAII (Michael W. Deem and Ramdas Pophale) SiO2 
 PCOD9279123
Probable space group: C 2/C
;
_chemical_formula_sum "Si O2"
_cell_formula_units_Z 52
_cell_length_a 5.774893
_cell_length_b 28.173752
_cell_length_c 20.938409
_cell_angle_alpha 90.000000
_cell_angle_beta 53.361119
_cell_angle_gamma 90.000000
_cell_volume 2733.569355
_symmetry_space_group_name_H-M "C 2/C"
_symmetry_group_IT_number 15
_symmetry_cell_setting 'monoclinic'
loop_
_space_group_symop_operation_xyz
x,y,z
-x,y,1/2-z
-x,-y,-z
x,-y,1/2+z
1/2+x,1/2+y,z
1/2-x,1/2+y,1/2-z
1/2-x,1/2-y,-z
1/2+x,1/2-y,1/2+z
loop_
_atom_site_type_symbol
_atom_site_label
_atom_site_fract_x
_atom_site_fract_y
_atom_site_fract_z
Si Si1 0.530876 0.241916 0.096245
Si Si2 0.157004 0.458973 0.513191
Si Si3 0.415729 0.119326 0.979259
Si Si4 0.002414 0.837412 0.173931
Si Si5 0.000000 0.586437 0.750000
Si Si6 0.413151 0.710288 0.429702
Si Si7 0.699947 0.963555 0.101862
O O1 0.431962 0.291575 0.143031
O O2 0.248062 0.216654 0.112428
O O3 0.745588 0.218462 0.114009
O O4 0.750000 0.250000 0.000000
O O5 0.017860 0.407659 0.526757
O O6 0.472310 0.457682 0.429948
O O7 0.172054 0.482989 0.580291
O O8 0.000000 0.500000 0.500000
O O9 0.323309 0.076096 0.949408
O O10 0.684332 0.145203 0.901112
O O11 0.175008 0.158491 0.030575
O O12 0.772787 0.878950 0.199874
O O13 0.000000 0.826768 0.250000
O O14 0.017996 0.552696 0.808248
O O15 0.250000 0.750000 0.500000
#
# Coordination Sequence:
#
# PCOD9279123 Si02
#       7
#     8   8   8   8   4   8   8
#     4  10  22  37  55  81 124 165 207 242 291 364
#     4   9  20  37  55  79 118 156 204 245 304 366
#     4  11  20  35  58  84 120 154 201 247 305 364
#     4  12  24  35  54  90 129 160 189 244 321 378
#     4  12  24  32  60  88 130 154 192 250 334 384
#     4  10  21  34  58  84 120 158 208 254 286 351
#     4  10  21  35  55  86 121 155 195 252 313 380
#
# _framework density 19.022746000000001
#
# number of rings (size 3 to 8) (size 9 to 14) (size 15 to 20)
#    0.000    1.538    6.154    0.000    8.615    0.000 
#    0.000    0.000    0.000    0.000    2.000    6.462 
#    0.000    0.000    0.000    0.000    0.000    0.000 
#
# Total GULP energy -144845.033532 kJ/mol
# GULP energy per Si atom -5570.962828 kJ/mol
# Density = 1.897945 g / cm^3
# Si number density = 19.022746 Si / 1000 Ang^3
#
#
#
# Elastic Constant Matrix: (Units=GPa)
#
#
# Indices 1 2 3 4 5 6 
#
# 1 92.4178 14.4250 11.3124 0.0000 -5.3110 0.0000
# 2 14.4250 88.1296 40.4339 0.0000 11.0265 0.0000
# 3 11.3124 40.4339 49.0722 0.0000 7.2281 0.0000
# 4 0.0000 0.0000 0.0000 27.8542 0.0000 -3.5943
# 5 -5.3110 11.0265 7.2281 0.0000 20.2812 0.0000
# 6 0.0000 0.0000 0.0000 -3.5943 0.0000 34.0436
#
#
#
# Elastic Compliance Matrix: (Units=1/GPa)
#
#
# Indices 1 2 3 4 5 6 
#
# 1 0.011577 -0.001504 -0.002108 0.000000 0.004600 0.000000
# 2 -0.001504 0.018895 -0.014408 0.000000 -0.005532 0.000000
# 3 -0.002108 -0.014408 0.033417 0.000000 -0.004628 0.000000
# 4 0.000000 0.000000 0.000000 0.036397 0.000000 0.003843
# 5 0.004600 -0.005532 -0.004628 0.000000 0.055169 0.000000
# 6 0.000000 0.000000 0.000000 0.003843 0.000000 0.029780
#
#
# Mechanical properties :
#
#
# Convention : Reuss Voigt Hill
#
# Bulk Modulus (GPa) = 35.90377 40.21804 38.06090
# Shear Modulus (GPa) = 21.68653 27.33235 24.50944
#
# Velocity S-wave (km/s) = 3.38010 3.79466 3.59336
# Velocity P-wave (km/s) = 5.84367 6.35509 6.10474
#
# Compressibility (1/GPa) = 0.02785223
#
# Stress axis : x y z
#
# Youngs Moduli (GPa) = 86.37466 52.92272 29.92459
#
# Poissons Ratio (x) = 0.07958 0.06307
# Poissons Ratio (y) = 0.12987 0.43115
# Poissons Ratio (z) = 0.18204 0.76250
#
# Static dielectric constant tensor:
#      x y z
#    x 1.792180 0.000000 0.038600 
#    y 0.000000 1.646520 0.000000 
#    z 0.038600 0.000000 1.652660 
# 
# From -- ./inp_files/185903.got.cif
#   From: 2010.05.17/outbox.cif.g08.bks.cpg/sg15_93_cif.got.tgz:185903.got - 2010.06.03 18:47:42.
