data_PCOD9279916
_publ_section_title
;
Structure prediction by ZEFSAII (Michael W. Deem and Ramdas Pophale) SiO2 
 PCOD9279916
Probable space group: C 2/C
;
_chemical_formula_sum "Si O2"
_cell_formula_units_Z 48
_cell_length_a 8.505483
_cell_length_b 29.440926
_cell_length_c 12.693981
_cell_angle_alpha 90.000000
_cell_angle_beta 45.683632
_cell_angle_gamma 90.000000
_cell_volume 2274.331632
_symmetry_space_group_name_H-M "C 2/C"
_symmetry_group_IT_number 15
_symmetry_cell_setting 'monoclinic'
loop_
_space_group_symop_operation_xyz
x,y,z
-x,y,1/2-z
-x,-y,-z
x,-y,1/2+z
1/2+x,1/2+y,z
1/2-x,1/2+y,1/2-z
1/2-x,1/2-y,-z
1/2+x,1/2-y,1/2+z
loop_
_atom_site_type_symbol
_atom_site_label
_atom_site_fract_x
_atom_site_fract_y
_atom_site_fract_z
Si Si1 0.164879 0.435526 0.427384
Si Si2 0.745262 0.273749 0.616369
Si Si3 0.338695 0.834522 0.030931
Si Si4 0.587258 0.682721 0.865988
Si Si5 0.237654 0.088406 0.853352
Si Si6 0.811658 0.030911 0.423112
O O1 0.156735 0.388144 0.492673
O O2 0.284871 0.428309 0.257413
O O3 0.267689 0.476917 0.443806
O O4 0.915979 0.448295 0.513618
O O5 0.500000 0.291330 0.750000
O O6 0.750000 0.250000 0.500000
O O7 0.801642 0.230057 0.659847
O O8 0.928626 0.311193 0.556793
O O9 0.205863 0.830714 0.202144
O O10 0.174830 0.811672 0.023660
O O11 0.637876 0.638895 0.914341
O O12 0.500000 0.092486 0.750000
O O13 0.148181 0.053258 0.981791
O O14 0.000000 0.040426 0.250000
#
# Coordination Sequence:
#
# PCOD9279916 Si02
#       6
#     8   8   8   8   8   8
#     4   9  21  40  59  90 124 166 214 264 317 379
#     4  12  24  41  67  98 128 165 213 262 321 389
#     4  10  22  41  66  91 128 168 218 264 315 385
#     4  10  21  40  65  96 124 171 214 260 320 388
#     4   9  19  37  64  90 125 170 220 260 310 396
#     4  10  21  36  61  90 124 163 217 268 316 369
#
# _framework density 21.105101000000001
#
# number of rings (size 3 to 8) (size 9 to 14) (size 15 to 20)
#    0.000    2.000    1.667    1.000    9.333    1.333 
#    0.000    0.000    0.000    0.000    0.000    0.000 
#    0.000    0.000    0.000    0.000    0.000    0.000 
#
# Total GULP energy -133957.382938 kJ/mol
# GULP energy per Si atom -5581.557622 kJ/mol
# Density = 2.105707 g / cm^3
# Si number density = 21.105101 Si / 1000 Ang^3
#
#
#
# Elastic Constant Matrix: (Units=GPa)
#
#
# Indices 1 2 3 4 5 6 
#
# 1 58.7119 34.7953 30.8123 0.0000 -20.8154 0.0000
# 2 34.7953 105.9314 39.4132 0.0000 -9.0884 0.0000
# 3 30.8123 39.4132 95.7149 0.0000 -26.3272 0.0000
# 4 0.0000 0.0000 0.0000 20.9643 0.0000 14.5520
# 5 -20.8154 -9.0884 -26.3272 0.0000 32.7424 0.0000
# 6 0.0000 0.0000 0.0000 14.5520 0.0000 -23.9360
#
#
#
# Elastic Compliance Matrix: (Units=1/GPa)
#
#
# Indices 1 2 3 4 5 6 
#
# 1 0.027072 -0.006937 -0.002124 0.000000 0.013577 0.000000
# 2 -0.006937 0.012941 -0.004263 0.000000 -0.004246 0.000000
# 3 -0.002124 -0.004263 0.015652 0.000000 0.010052 0.000000
# 4 0.000000 0.000000 0.000000 0.033544 0.000000 0.020393
# 5 0.013577 -0.004246 0.010052 0.000000 0.046076 0.000000
# 6 0.000000 0.000000 0.000000 0.020393 0.000000 -0.029380
#
#
# Mechanical properties :
#
#
# Convention : Reuss Voigt Hill
#
# Bulk Modulus (GPa) = 34.46464 52.26663 43.36564
# Shear Modulus (GPa) = 35.15535 16.30996 25.73265
#
# Velocity S-wave (km/s) = 4.08576 2.78294 3.49558
# Velocity P-wave (km/s) = 6.21477 5.92832 6.07324
#
# Compressibility (1/GPa) = 0.02901525
#
# Stress axis : x y z
#
# Youngs Moduli (GPa) = 36.93885 77.27556 63.89069
#
# Poissons Ratio (x) = 0.53608 0.13569
# Poissons Ratio (y) = 0.25625 0.27240
# Poissons Ratio (z) = 0.07845 0.32946
#
# Static dielectric constant tensor:
#      x y z
#    x 1.808920 0.000000 -0.019950 
#    y 0.000000 1.876080 0.000000 
#    z -0.019950 0.000000 1.741950 
# 
# From -- ./inp_files/139368.got.cif
#   From: 2010.05.17/outbox.cif.g08.bks.cpg/sg15_70_cif.got.tgz:139368.got - 2010.06.03 18:47:42.
