data_PCOD9279401
_publ_section_title
;
Structure prediction by ZEFSAII (Michael W. Deem and Ramdas Pophale) SiO2 
 PCOD9279401
Probable space group: C 2/C
;
_chemical_formula_sum "Si O2"
_cell_formula_units_Z 64
_cell_length_a 24.858056
_cell_length_b 10.930310
_cell_length_c 11.647683
_cell_angle_alpha 90.000000
_cell_angle_beta 93.005054
_cell_angle_gamma 90.000000
_cell_volume 3160.396563
_symmetry_space_group_name_H-M "C 2/C"
_symmetry_group_IT_number 15
_symmetry_cell_setting 'monoclinic'
loop_
_space_group_symop_operation_xyz
x,y,z
-x,y,1/2-z
-x,-y,-z
x,-y,1/2+z
1/2+x,1/2+y,z
1/2-x,1/2+y,1/2-z
1/2-x,1/2-y,-z
1/2+x,1/2-y,1/2+z
loop_
_atom_site_type_symbol
_atom_site_label
_atom_site_fract_x
_atom_site_fract_y
_atom_site_fract_z
Si Si1 0.385879 0.681126 0.737382
Si Si2 0.599787 0.395769 0.685871
Si Si3 0.053706 0.871824 0.905895
Si Si4 0.835948 0.187875 0.968915
Si Si5 0.701076 0.239689 0.656066
Si Si6 0.535967 0.644822 0.944062
Si Si7 0.190820 0.344472 0.918366
Si Si8 0.722074 0.105812 0.886496
O O1 0.391950 0.537257 0.773981
O O2 0.365018 0.734822 0.855845
O O3 0.439117 0.709104 0.665794
O O4 0.341119 0.734296 0.645344
O O5 0.560228 0.333589 0.774892
O O6 0.656374 0.328641 0.700346
O O7 0.577883 0.373849 0.554733
O O8 0.017350 0.805250 0.998313
O O9 0.115391 0.876075 0.957038
O O10 0.026597 0.006129 0.899347
O O11 0.784330 0.100442 0.937441
O O12 0.809903 0.299313 0.036205
O O13 0.746889 0.318157 0.600544
O O14 0.677926 0.157009 0.551549
O O15 0.725863 0.162073 0.760753
O O16 0.186898 0.482967 0.875165
#
# Coordination Sequence:
#
# PCOD9279401 Si02
#       8
#     8   8   8   8   8   8   8   8
#     4  11  22  37  60  86 129 160 199 254 310 367
#     4  11  20  37  61  87 125 159 201 251 309 371
#     4  10  21  35  59  87 124 157 199 252 318 365
#     4  11  22  41  57  92 118 169 201 258 307 371
#     4  11  23  39  61  89 120 166 205 246 305 362
#     4  10  21  36  57  91 122 160 198 255 312 369
#     4  11  25  39  59  92 125 163 208 250 302 369
#     4  11  25  40  64  89 126 165 210 248 309 375
#
# _framework density 20.250623000000001
#
# number of rings (size 3 to 8) (size 9 to 14) (size 15 to 20)
#    0.000    1.250    5.000    1.125    1.750    1.500 
#    0.000    0.000    0.000    0.750    0.000    0.000 
#    0.000    0.000    0.000    0.000    0.000    0.000 
#
# Total GULP energy -178136.682238 kJ/mol
# GULP energy per Si atom -5566.771320 kJ/mol
# Density = 2.020453 g / cm^3
# Si number density = 20.250623 Si / 1000 Ang^3
#
#
#
# Elastic Constant Matrix: (Units=GPa)
#
#
# Indices 1 2 3 4 5 6 
#
# 1 84.0784 21.5440 16.5377 0.0000 -12.5825 0.0000
# 2 21.5440 35.8737 19.0279 0.0000 -0.3598 0.0000
# 3 16.5377 19.0279 122.3823 0.0000 -31.4633 0.0000
# 4 0.0000 0.0000 0.0000 10.2644 0.0000 -4.5281
# 5 -12.5825 -0.3598 -31.4633 0.0000 44.1555 0.0000
# 6 0.0000 0.0000 0.0000 -4.5281 0.0000 17.0265
#
#
#
# Elastic Compliance Matrix: (Units=1/GPa)
#
#
# Indices 1 2 3 4 5 6 
#
# 1 0.014809 -0.009165 0.000599 0.000000 0.004572 0.000000
# 2 -0.009165 0.036589 -0.006177 0.000000 -0.006715 0.000000
# 3 0.000599 -0.006177 0.011118 0.000000 0.008043 0.000000
# 4 0.000000 0.000000 0.000000 0.110374 0.000000 0.029353
# 5 0.004572 -0.006715 0.008043 0.000000 0.029626 0.000000
# 6 0.000000 0.000000 0.000000 0.029353 0.000000 0.066538
#
#
# Mechanical properties :
#
#
# Convention : Reuss Voigt Hill
#
# Bulk Modulus (GPa) = 30.27519 39.61706 34.94612
# Shear Modulus (GPa) = 16.15254 26.63760 21.39507
#
# Velocity S-wave (km/s) = 2.82730 3.63077 3.25393
# Velocity P-wave (km/s) = 5.06368 6.09775 5.60462
#
# Compressibility (1/GPa) = 0.03303034
#
# Stress axis : x y z
#
# Youngs Moduli (GPa) = 67.52875 27.33089 89.94289
#
# Poissons Ratio (x) = 0.25050 -0.05391
# Poissons Ratio (y) = 0.61892 0.55554
# Poissons Ratio (z) = -0.04048 0.16881
#
# Static dielectric constant tensor:
#      x y z
#    x 1.786360 0.000000 0.009340 
#    y 0.000000 1.729180 0.000000 
#    z 0.009340 0.000000 1.805840 
# 
# From -- ./inp_files/122428.got.cif
#   From: 2010.05.17/outbox.cif.g08.bks.cpg/sg15_62_cif.got.tgz:122428.got - 2010.06.03 18:47:42.
