data_PCOD9279886
_publ_section_title
;
Structure prediction by ZEFSAII (Michael W. Deem and Ramdas Pophale) SiO2 
 PCOD9279886
Probable space group: C 2/C
;
_chemical_formula_sum "Si O2"
_cell_formula_units_Z 40
_cell_length_a 6.556373
_cell_length_b 26.814430
_cell_length_c 14.788315
_cell_angle_alpha 90.000000
_cell_angle_beta 41.880592
_cell_angle_gamma 90.000000
_cell_volume 1735.619372
_symmetry_space_group_name_H-M "C 2/C"
_symmetry_group_IT_number 15
_symmetry_cell_setting 'monoclinic'
loop_
_space_group_symop_operation_xyz
x,y,z
-x,y,1/2-z
-x,-y,-z
x,-y,1/2+z
1/2+x,1/2+y,z
1/2-x,1/2+y,1/2-z
1/2-x,1/2-y,-z
1/2+x,1/2-y,1/2+z
loop_
_atom_site_type_symbol
_atom_site_label
_atom_site_fract_x
_atom_site_fract_y
_atom_site_fract_z
Si Si1 0.788274 0.274271 0.084379
Si Si2 0.525561 0.304385 0.638000
Si Si3 0.209557 0.088456 0.104504
Si Si4 0.732731 0.544108 0.904022
Si Si5 0.604987 0.617348 0.616466
O O1 0.574460 0.322920 0.139383
O O2 0.802303 0.228485 0.151290
O O3 0.750000 0.250000 0.000000
O O4 0.118481 0.296869 0.002351
O O5 0.500000 0.287299 0.750000
O O6 0.495949 0.364083 0.647626
O O7 0.000000 0.061844 0.250000
O O8 0.304820 0.060766 0.981860
O O9 0.542664 0.106779 0.027847
O O10 0.596474 0.591268 0.893667
O O11 0.000000 0.525512 0.750000
O O12 0.500000 0.500000 0.000000
O O13 0.500000 0.596929 0.750000
#
# Coordination Sequence:
#
# PCOD9279886 Si02
#       5
#     8   8   8   8   8
#     4  10  21  36  60  96 131 184 225 274 332 410
#     4   9  20  38  58  93 135 176 228 275 331 403
#     4  10  23  46  72 100 142 185 228 290 350 419
#     4  12  28  48  73 105 135 179 237 300 364 432
#     4  11  24  44  68 103 141 183 233 291 356 416
#
# _framework density 23.046526
#
# number of rings (size 3 to 8) (size 9 to 14) (size 15 to 20)
#    0.000    1.600    2.000    1.200    5.600    1.600 
#    0.000    6.000    0.000    0.000    0.000    0.000 
#    0.000    0.000    0.000    0.000    0.000    0.000 
#
# Total GULP energy -111386.685237 kJ/mol
# GULP energy per Si atom -5569.334262 kJ/mol
# Density = 2.299407 g / cm^3
# Si number density = 23.046526 Si / 1000 Ang^3
#
#
#
# Elastic Constant Matrix: (Units=GPa)
#
#
# Indices 1 2 3 4 5 6 
#
# 1 47.9881 13.9354 21.8118 0.0000 14.7639 0.0000
# 2 13.9354 50.7193 16.5413 0.0000 -0.6499 0.0000
# 3 21.8118 16.5413 161.1539 0.0000 11.0451 0.0000
# 4 0.0000 0.0000 0.0000 46.6304 0.0000 -5.4602
# 5 14.7639 -0.6499 11.0451 0.0000 42.9088 0.0000
# 6 0.0000 0.0000 0.0000 -5.4602 0.0000 14.1295
#
#
#
# Elastic Compliance Matrix: (Units=1/GPa)
#
#
# Indices 1 2 3 4 5 6 
#
# 1 0.026463 -0.006627 -0.002311 0.000000 -0.008611 0.000000
# 2 -0.006627 0.022090 -0.001577 0.000000 0.003021 0.000000
# 3 -0.002311 -0.001577 0.006746 0.000000 -0.000965 0.000000
# 4 0.000000 0.000000 0.000000 0.022462 0.000000 0.008680
# 5 -0.008611 0.003021 -0.000965 0.000000 0.026562 0.000000
# 6 0.000000 0.000000 0.000000 0.008680 0.000000 0.074128
#
#
# Mechanical properties :
#
#
# Convention : Reuss Voigt Hill
#
# Bulk Modulus (GPa) = 29.18249 40.49315 34.83782
# Shear Modulus (GPa) = 23.70730 34.57192 29.13961
#
# Velocity S-wave (km/s) = 3.21077 3.87730 3.55967
# Velocity P-wave (km/s) = 5.14153 6.13620 5.66075
#
# Compressibility (1/GPa) = 0.03426712
#
# Stress axis : x y z
#
# Youngs Moduli (GPa) = 37.78915 45.26850 148.23296
#
# Poissons Ratio (x) = 0.30001 0.34261
# Poissons Ratio (y) = 0.25044 0.23384
# Poissons Ratio (z) = 0.08734 0.07141
#
# Static dielectric constant tensor:
#      x y z
#    x 1.862860 0.000000 0.034410 
#    y 0.000000 1.909000 0.000000 
#    z 0.034410 0.000000 1.951150 
# 
# From -- ./inp_files/130255.got.cif
#   From: 2010.05.17/outbox.cif.g08.bks.cpg/sg15_66_cif.got.tgz:130255.got - 2010.06.03 18:47:42.
