data_PCOD9279055
_publ_section_title
;
Structure prediction by ZEFSAII (Michael W. Deem and Ramdas Pophale) SiO2 
 PCOD9279055
Probable space group: C 2/C
;
_chemical_formula_sum "Si O2"
_cell_formula_units_Z 56
_cell_length_a 12.063809
_cell_length_b 17.815391
_cell_length_c 13.735050
_cell_angle_alpha 90.000000
_cell_angle_beta 118.863125
_cell_angle_gamma 90.000000
_cell_volume 2585.251439
_symmetry_space_group_name_H-M "C 2/C"
_symmetry_group_IT_number 15
_symmetry_cell_setting 'monoclinic'
loop_
_space_group_symop_operation_xyz
x,y,z
-x,y,1/2-z
-x,-y,-z
x,-y,1/2+z
1/2+x,1/2+y,z
1/2-x,1/2+y,1/2-z
1/2-x,1/2-y,-z
1/2+x,1/2-y,1/2+z
loop_
_atom_site_type_symbol
_atom_site_label
_atom_site_fract_x
_atom_site_fract_y
_atom_site_fract_z
Si Si1 0.694654 0.146035 0.953695
Si Si2 0.857832 0.530411 0.069749
Si Si3 0.708960 0.333663 0.803493
Si Si4 0.870298 0.195393 0.854240
Si Si5 0.854644 0.529302 0.298948
Si Si6 0.459455 0.750773 0.412961
Si Si7 0.738610 0.880768 0.141737
O O1 0.759253 0.163093 0.878138
O O2 0.568908 0.194132 0.919242
O O3 0.664837 0.058370 0.953737
O O4 0.790968 0.171045 0.079888
O O5 0.848448 0.541219 0.181005
O O6 0.003803 0.549243 0.104819
O O7 0.763314 0.579888 0.964519
O O8 0.825980 0.281050 0.817484
O O9 0.746844 0.418125 0.796666
O O10 0.591958 0.302414 0.694162
O O11 0.862892 0.146693 0.753300
O O12 0.991776 0.202622 0.974304
O O13 0.827633 0.444480 0.319520
O O14 0.348011 0.806775 0.398487
#
# Coordination Sequence:
#
# PCOD9279055 Si02
#       7
#     8   8   8   8   8   8   8
#     4  11  19  34  58  89 115 144 187 246 288 342
#     4  11  21  34  61  86 114 141 194 241 287 328
#     4  10  21  34  55  81 120 148 189 231 289 342
#     4  10  22  35  55  88 119 150 190 233 291 346
#     4  11  21  35  56  87 114 145 190 239 283 343
#     4  10  21  36  56  85 118 156 187 235 291 344
#     4  11  20  36  60  82 116 152 185 238 288 337
#
# _framework density 21.661335000000001
#
# number of rings (size 3 to 8) (size 9 to 14) (size 15 to 20)
#    0.000    1.429    4.286    3.857    0.000    5.143 
#    0.000    3.571    0.000    4.286    0.000    0.000 
#    0.000    0.000    0.000    0.000    0.000    0.000 
#
# Total GULP energy -156391.961593 kJ/mol
# GULP energy per Si atom -5585.427200 kJ/mol
# Density = 2.161203 g / cm^3
# Si number density = 21.661335 Si / 1000 Ang^3
#
#
#
# Elastic Constant Matrix: (Units=GPa)
#
#
# Indices 1 2 3 4 5 6 
#
# 1 21.6584 8.0942 14.4509 0.0000 0.8301 0.0000
# 2 8.0942 79.8272 40.7569 0.0000 8.3094 0.0000
# 3 14.4509 40.7569 156.2293 0.0000 4.1139 0.0000
# 4 0.0000 0.0000 0.0000 53.0668 0.0000 -0.6330
# 5 0.8301 8.3094 4.1139 0.0000 24.1871 0.0000
# 6 0.0000 0.0000 0.0000 -0.6330 0.0000 8.3263
#
#
#
# Elastic Compliance Matrix: (Units=1/GPa)
#
#
# Indices 1 2 3 4 5 6 
#
# 1 0.049872 -0.003117 -0.003800 0.000000 0.000006 0.000000
# 2 -0.003117 0.015116 -0.003537 0.000000 -0.004484 0.000000
# 3 -0.003800 -0.003537 0.007674 0.000000 0.000040 0.000000
# 4 0.000000 0.000000 0.000000 0.018861 0.000000 0.001434
# 5 0.000006 -0.004484 0.000040 0.000000 0.042878 0.000000
# 6 0.000000 0.000000 0.000000 0.001434 0.000000 0.120211
#
#
# Mechanical properties :
#
#
# Convention : Reuss Voigt Hill
#
# Bulk Modulus (GPa) = 19.32251 42.70209 31.01230
# Shear Modulus (GPa) = 17.07818 30.07688 23.57753
#
# Velocity S-wave (km/s) = 2.81092 3.73031 3.30276
# Velocity P-wave (km/s) = 4.41301 6.18950 5.37516
#
# Compressibility (1/GPa) = 0.05175311
#
# Stress axis : x y z
#
# Youngs Moduli (GPa) = 20.05143 66.15612 130.31034
#
# Poissons Ratio (x) = 0.20623 0.49517
# Poissons Ratio (y) = 0.06251 0.46090
# Poissons Ratio (z) = 0.07619 0.23399
#
# Static dielectric constant tensor:
#      x y z
#    x 1.821040 0.000000 -0.016060 
#    y 0.000000 1.764280 0.000000 
#    z -0.016060 0.000000 1.839800 
# 
# From -- ./inp_files/155253.got.cif
#   From: 2010.05.17/outbox.cif.g08.bks.cpg/sg15_78_cif.got.tgz:155253.got - 2010.06.03 18:47:42.
