data_PCOD9279461
_publ_section_title
;
Structure prediction by ZEFSAII (Michael W. Deem and Ramdas Pophale) SiO2 
 PCOD9279461
Probable space group: C 2/C
;
_chemical_formula_sum "Si O2"
_cell_formula_units_Z 56
_cell_length_a 32.491513
_cell_length_b 16.973087
_cell_length_c 20.029745
_cell_angle_alpha 90.000000
_cell_angle_beta 164.656243
_cell_angle_gamma 90.000000
_cell_volume 2922.885507
_symmetry_space_group_name_H-M "C 2/C"
_symmetry_group_IT_number 15
_symmetry_cell_setting 'monoclinic'
loop_
_space_group_symop_operation_xyz
x,y,z
-x,y,1/2-z
-x,-y,-z
x,-y,1/2+z
1/2+x,1/2+y,z
1/2-x,1/2+y,1/2-z
1/2-x,1/2-y,-z
1/2+x,1/2-y,1/2+z
loop_
_atom_site_type_symbol
_atom_site_label
_atom_site_fract_x
_atom_site_fract_y
_atom_site_fract_z
Si Si1 0.628122 0.551329 0.605351
Si Si2 0.491026 0.093757 0.163173
Si Si3 0.052247 0.716138 0.514529
Si Si4 0.096447 0.300484 0.239145
Si Si5 0.909975 0.193922 0.040562
Si Si6 0.967462 0.106111 0.488039
Si Si7 0.630088 0.927049 0.397900
O O1 0.558440 0.607236 0.439391
O O2 0.584733 0.587125 0.610522
O O3 0.549569 0.465291 0.485873
O O4 0.814811 0.556309 0.884520
O O5 0.500000 0.134542 0.250000
O O6 0.607149 0.019599 0.348671
O O7 0.526858 0.153714 0.159305
O O8 0.059633 0.693464 0.603980
O O9 0.002018 0.807705 0.434417
O O10 0.230659 0.709458 0.771613
O O11 0.250000 0.250000 0.500000
O O12 0.107444 0.383256 0.293032
O O13 0.961531 0.253056 0.064211
O O14 0.000000 0.207056 0.250000
O O15 0.795712 0.100979 0.185316
O O16 0.500000 0.905498 0.250000
#
# Coordination Sequence:
#
# PCOD9279461 Si02
#       7
#     8   8   8   8   8   8   8
#     4  10  21  35  61  82 112 153 207 240 286 362
#     4  10  22  42  59  85 122 163 199 244 301 365
#     4  11  23  36  61  89 120 154 196 252 307 349
#     4  12  20  33  57  92 118 147 195 249 302 358
#     4  11  20  34  55  87 121 148 185 253 305 349
#     4  11  19  37  60  86 108 156 208 244 285 365
#     4  11  20  36  62  85 118 160 197 239 302 364
#
# _framework density 19.159148999999999
#
# number of rings (size 3 to 8) (size 9 to 14) (size 15 to 20)
#    0.000    1.143    7.143    1.286    0.000    0.571 
#    0.000    1.429    0.000    0.000    0.000    0.000 
#    0.000    0.000    0.000    0.000    0.000    0.000 
#
# Total GULP energy -156194.463323 kJ/mol
# GULP energy per Si atom -5578.373690 kJ/mol
# Density = 1.911554 g / cm^3
# Si number density = 19.159149 Si / 1000 Ang^3
#
#
#
# Elastic Constant Matrix: (Units=GPa)
#
#
# Indices 1 2 3 4 5 6 
#
# 1 120.6486 55.2939 11.6697 0.0000 -14.9287 0.0000
# 2 55.2939 121.1384 2.3581 0.0000 -15.9990 0.0000
# 3 11.6697 2.3581 22.8027 0.0000 -1.0109 0.0000
# 4 0.0000 0.0000 0.0000 17.3149 0.0000 -13.8362
# 5 -14.9287 -15.9990 -1.0109 0.0000 28.0143 0.0000
# 6 0.0000 0.0000 0.0000 -13.8362 0.0000 46.7356
#
#
#
# Elastic Compliance Matrix: (Units=1/GPa)
#
#
# Indices 1 2 3 4 5 6 
#
# 1 0.011310 -0.004640 -0.005167 0.000000 0.003190 0.000000
# 2 -0.004640 0.010844 0.001421 0.000000 0.003771 0.000000
# 3 -0.005167 0.001421 0.046340 0.000000 -0.000270 0.000000
# 4 0.000000 0.000000 0.000000 0.075650 0.000000 0.022396
# 5 0.003190 0.003771 -0.000270 0.000000 0.039540 0.000000
# 6 0.000000 0.000000 0.000000 0.022396 0.000000 0.028027
#
#
# Mechanical properties :
#
#
# Convention : Reuss Voigt Hill
#
# Bulk Modulus (GPa) = 19.33481 44.80370 32.06926
# Shear Modulus (GPa) = 20.34802 31.43083 25.88942
#
# Velocity S-wave (km/s) = 3.26245 4.05472 3.67997
# Velocity P-wave (km/s) = 4.93001 6.73474 5.90177
#
# Compressibility (1/GPa) = 0.05172018
#
# Stress axis : x y z
#
# Youngs Moduli (GPa) = 88.41903 92.22060 21.57973
#
# Poissons Ratio (x) = 0.42794 0.11150
# Poissons Ratio (y) = 0.41030 -0.03066
# Poissons Ratio (z) = 0.45683 -0.13101
#
# Static dielectric constant tensor:
#      x y z
#    x 1.683180 0.000000 0.012170 
#    y 0.000000 1.725350 0.000000 
#    z 0.012170 0.000000 1.699620 
# 
# From -- ./inp_files/225724.got.cif
#   From: 2010.05.17/outbox.cif.g08.bks.cpg/sg15_113_cif.got.tgz:225724.got - 2010.06.03 18:47:42.
