data_PCOD9279198
_publ_section_title
;
Structure prediction by ZEFSAII (Michael W. Deem and Ramdas Pophale) SiO2 
 PCOD9279198
Probable space group: C 2/C
;
_chemical_formula_sum "Si O2"
_cell_formula_units_Z 56
_cell_length_a 21.385714
_cell_length_b 7.917043
_cell_length_c 19.542662
_cell_angle_alpha 90.000000
_cell_angle_beta 39.391449
_cell_angle_gamma 90.000000
_cell_volume 2099.814527
_symmetry_space_group_name_H-M "C 2/C"
_symmetry_group_IT_number 15
_symmetry_cell_setting 'monoclinic'
loop_
_space_group_symop_operation_xyz
x,y,z
-x,y,1/2-z
-x,-y,-z
x,-y,1/2+z
1/2+x,1/2+y,z
1/2-x,1/2+y,1/2-z
1/2-x,1/2-y,-z
1/2+x,1/2-y,1/2+z
loop_
_atom_site_type_symbol
_atom_site_label
_atom_site_fract_x
_atom_site_fract_y
_atom_site_fract_z
Si Si1 0.910677 0.776527 0.905737
Si Si2 0.460274 0.566916 0.962072
Si Si3 0.684779 0.160280 0.645093
Si Si4 0.753713 0.969925 0.700141
Si Si5 0.432507 0.908189 0.938622
Si Si6 0.714705 0.384616 0.188400
Si Si7 0.146784 0.718223 0.125154
O O1 0.891138 0.763648 0.839681
O O2 0.967914 0.933280 0.892624
O O3 0.795294 0.782364 0.029609
O O4 0.955991 0.600483 0.897764
O O5 0.342921 0.560872 0.072624
O O6 0.488527 0.766121 0.934976
O O7 0.500000 0.500000 0.000000
O O8 0.692131 0.127616 0.721128
O O9 0.659590 0.968314 0.644561
O O10 0.795213 0.990390 0.740785
O O11 0.700354 0.793224 0.738850
O O12 0.323656 0.916571 0.065127
O O13 0.430590 0.803486 0.869099
O O14 0.643196 0.363754 0.184453
O O15 0.250000 0.750000 0.000000
#
# Coordination Sequence:
#
# PCOD9279198 Si02
#       7
#     8   8   8   8   8   8   8
#     4   9  16  29  51  70  95 126 163 200 252 290
#     4  10  21  35  48  69 103 133 169 208 236 294
#     4   8  15  26  43  73 100 116 155 201 246 302
#     4   9  18  30  45  73 104 126 155 201 262 301
#     4   9  18  31  49  73  93 127 169 205 246 292
#     4   9  17  27  45  73 104 121 151 201 259 308
#     4   8  13  26  44  68 100 123 152 198 248 294
#
# _framework density 26.66902
#
# number of rings (size 3 to 8) (size 9 to 14) (size 15 to 20)
#    0.000    3.143    0.000    2.571    4.000    1.714 
#    0.000    0.000    0.000    0.857    0.000    0.000 
#    0.000    0.000    0.000    0.000    0.000    0.000 
#
# Total GULP energy -156014.835835 kJ/mol
# GULP energy per Si atom -5571.958423 kJ/mol
# Density = 2.660832 g / cm^3
# Si number density = 26.669020 Si / 1000 Ang^3
#
#
#
# Elastic Constant Matrix: (Units=GPa)
#
#
# Indices 1 2 3 4 5 6 
#
# 1 45.7850 27.9089 5.5962 0.0007 -14.4331 -0.0009
# 2 27.9089 168.9902 30.2434 0.0005 9.9688 -0.0006
# 3 5.5962 30.2434 81.7921 0.0001 -7.9559 -0.0002
# 4 0.0007 0.0005 0.0001 27.3226 0.0005 17.3127
# 5 -14.4331 9.9688 -7.9559 0.0005 33.5511 -0.0005
# 6 -0.0009 -0.0006 -0.0002 17.3127 -0.0005 35.8845
#
#
#
# Elastic Compliance Matrix: (Units=1/GPa)
#
#
# Indices 1 2 3 4 5 6 
#
# 1 0.030213 -0.006194 0.001706 -0.000002 0.015242 0.000002
# 2 -0.006194 0.007818 -0.003022 0.000000 -0.005704 0.000000
# 3 0.001706 -0.003022 0.013701 0.000000 0.004881 0.000000
# 4 -0.000002 0.000000 0.000000 0.052715 -0.000002 -0.025433
# 5 0.015242 -0.005704 0.004881 -0.000002 0.039214 0.000002
# 6 0.000002 0.000000 0.000000 -0.025433 0.000002 0.040137
#
#
# Mechanical properties :
#
#
# Convention : Reuss Voigt Hill
#
# Bulk Modulus (GPa) = 27.23882 47.11826 37.17854
# Shear Modulus (GPa) = 23.69032 34.87289 29.28160
#
# Velocity S-wave (km/s) = 2.98368 3.62002 3.31715
# Velocity P-wave (km/s) = 4.70167 5.93118 5.35185
#
# Compressibility (1/GPa) = 0.03671232
#
# Stress axis : x y z
#
# Youngs Moduli (GPa) = 33.09795 127.91433 72.98502
#
# Poissons Ratio (x) = 0.79232 -0.12450
# Poissons Ratio (y) = 0.20501 0.22054
# Poissons Ratio (z) = -0.05646 0.38652
#
# Static dielectric constant tensor:
#      x y z
#    x 2.236350 0.000000 -0.053630 
#    y 0.000000 2.044120 0.000000 
#    z -0.053630 0.000000 2.370020 
# 
# From -- ./inp_files/247015.got.cif
#   From: 2010.05.17/outbox.cif.g08.bks.cpg/sg15_124_cif.got.tgz:247015.got - 2010.06.03 18:47:42.
