data_PCOD9279239
_publ_section_title
;
Structure prediction by ZEFSAII (Michael W. Deem and Ramdas Pophale) SiO2 
 PCOD9279239
Probable space group: C 2/C
;
_chemical_formula_sum "Si O2"
_cell_formula_units_Z 56
_cell_length_a 14.611882
_cell_length_b 26.553424
_cell_length_c 13.873618
_cell_angle_alpha 90.000000
_cell_angle_beta 148.995533
_cell_angle_gamma 90.000000
_cell_volume 2772.758858
_symmetry_space_group_name_H-M "C 2/C"
_symmetry_group_IT_number 15
_symmetry_cell_setting 'monoclinic'
loop_
_space_group_symop_operation_xyz
x,y,z
-x,y,1/2-z
-x,-y,-z
x,-y,1/2+z
1/2+x,1/2+y,z
1/2-x,1/2+y,1/2-z
1/2-x,1/2-y,-z
1/2+x,1/2-y,1/2+z
loop_
_atom_site_type_symbol
_atom_site_label
_atom_site_fract_x
_atom_site_fract_y
_atom_site_fract_z
Si Si1 0.515257 0.036560 0.879071
Si Si2 0.734793 0.191014 0.059323
Si Si3 0.588473 0.924172 0.724502
Si Si4 0.683236 0.206086 0.796350
Si Si5 0.011428 0.058092 0.971585
Si Si6 0.117077 0.081992 0.266533
Si Si7 0.678668 0.114052 0.662158
O O1 0.500000 0.041651 0.750000
O O2 0.393687 0.079079 0.816387
O O3 0.460561 0.980317 0.855720
O O4 0.716378 0.045263 0.093582
O O5 0.804081 0.233294 0.196341
O O6 0.802917 0.136206 0.142347
O O7 0.782853 0.198734 0.989378
O O8 0.522824 0.192803 0.874731
O O9 0.500000 0.918388 0.750000
O O10 0.803248 0.926805 0.912641
O O11 0.487732 0.885406 0.562351
O O12 0.735175 0.168382 0.756821
O O13 0.008673 0.086022 0.071636
O O14 0.841267 0.081465 0.764237
O O15 0.000000 0.000000 0.000000
O O16 0.000000 0.064540 0.250000
#
# Coordination Sequence:
#
# PCOD9279239 Si02
#       7
#     8   8   8   8   8   8   8
#     4  11  20  37  57  85 126 166 203 253 305 369
#     4  10  21  35  53  85 128 162 207 243 302 377
#     4  11  25  43  62  87 124 165 218 271 312 357
#     4  10  21  35  56  84 123 168 197 252 305 374
#     4  12  24  39  61  92 124 164 212 260 312 380
#     4  12  24  35  58  91 129 171 211 247 307 393
#     4  12  22  41  61  85 125 167 209 255 316 374
#
# _framework density 20.196491999999999
#
# number of rings (size 3 to 8) (size 9 to 14) (size 15 to 20)
#    0.000    0.857    4.286    3.857    8.000    0.571 
#    0.000    0.000    0.000    0.000    0.000    4.000 
#    0.000    0.000    0.000    0.000    0.000    0.000 
#
# Total GULP energy -156294.163410 kJ/mol
# GULP energy per Si atom -5581.934408 kJ/mol
# Density = 2.015052 g / cm^3
# Si number density = 20.196492 Si / 1000 Ang^3
#
#
#
# Elastic Constant Matrix: (Units=GPa)
#
#
# Indices 1 2 3 4 5 6 
#
# 1 83.0030 13.3732 19.7509 0.0000 14.7171 0.0000
# 2 13.3732 44.4767 9.2336 0.0000 8.0847 0.0000
# 3 19.7509 9.2336 69.9826 0.0001 23.9989 0.0000
# 4 0.0000 0.0000 0.0001 34.5661 0.0000 -3.1709
# 5 14.7171 8.0847 23.9989 0.0000 37.1717 0.0000
# 6 0.0000 0.0000 0.0000 -3.1709 0.0000 22.6899
#
#
#
# Elastic Compliance Matrix: (Units=1/GPa)
#
#
# Indices 1 2 3 4 5 6 
#
# 1 0.013669 -0.003034 -0.002348 0.000000 -0.003236 0.000000
# 2 -0.003034 0.024246 -0.001215 0.000000 -0.003287 0.000000
# 3 -0.002348 -0.001215 0.018884 0.000000 -0.010998 0.000000
# 4 0.000000 0.000000 0.000000 0.029306 0.000000 0.004095
# 5 -0.003236 -0.003287 -0.010998 0.000000 0.035999 0.000000
# 6 0.000000 0.000000 0.000000 0.004095 0.000000 0.044645
#
#
# Mechanical properties :
#
#
# Convention : Reuss Voigt Hill
#
# Bulk Modulus (GPa) = 22.93364 31.35306 27.14335
# Shear Modulus (GPa) = 25.70992 29.22585 27.46789
#
# Velocity S-wave (km/s) = 3.57177 3.80817 3.69186
# Velocity P-wave (km/s) = 5.32822 5.90711 5.62512
#
# Compressibility (1/GPa) = 0.04360407
#
# Stress axis : x y z
#
# Youngs Moduli (GPa) = 73.15778 41.24403 52.95590
#
# Poissons Ratio (x) = 0.12515 0.12432
# Poissons Ratio (y) = 0.22199 0.06436
# Poissons Ratio (z) = 0.17175 0.05012
#
# Static dielectric constant tensor:
#      x y z
#    x 1.945820 0.000000 -0.041370 
#    y 0.000000 1.787120 0.000000 
#    z -0.041370 0.000000 1.834630 
# 
# From -- ./inp_files/157253.got.cif
#   From: 2010.05.17/outbox.cif.g08.bks.cpg/sg15_79_cif.got.tgz:157253.got - 2010.06.03 18:47:42.
