data_PCOD9279328
_publ_section_title
;
Structure prediction by ZEFSAII (Michael W. Deem and Ramdas Pophale) SiO2 
 PCOD9279328
Probable space group: C 2/C
;
_chemical_formula_sum "Si O2"
_cell_formula_units_Z 40
_cell_length_a 11.269706
_cell_length_b 15.904670
_cell_length_c 12.011820
_cell_angle_alpha 90.000000
_cell_angle_beta 84.025582
_cell_angle_gamma 90.000000
_cell_volume 2141.315942
_symmetry_space_group_name_H-M "C 2/C"
_symmetry_group_IT_number 15
_symmetry_cell_setting 'monoclinic'
loop_
_space_group_symop_operation_xyz
x,y,z
-x,y,1/2-z
-x,-y,-z
x,-y,1/2+z
1/2+x,1/2+y,z
1/2-x,1/2+y,1/2-z
1/2-x,1/2-y,-z
1/2+x,1/2-y,1/2+z
loop_
_atom_site_type_symbol
_atom_site_label
_atom_site_fract_x
_atom_site_fract_y
_atom_site_fract_z
Si Si1 0.084026 0.757690 0.585023
Si Si2 0.628130 0.452716 0.986090
Si Si3 0.135288 0.168479 0.697620
Si Si4 0.730166 0.620392 0.920901
Si Si5 0.833841 0.197457 0.177517
O O1 0.147032 0.668227 0.567909
O O2 0.129082 0.818706 0.483882
O O3 0.135597 0.798344 0.694372
O O4 0.942796 0.752454 0.608605
O O5 0.635711 0.391210 0.090377
O O6 0.500000 0.500000 0.000000
O O7 0.720690 0.529266 0.974727
O O8 0.652034 0.394872 0.875641
O O9 0.202032 0.120856 0.792654
O O10 0.210397 0.253868 0.670049
O O11 0.000000 0.184916 0.750000
#
# Coordination Sequence:
#
# PCOD9279328 Si02
#       5
#     8   8   8   8   8
#     4   9  19  38  58  81 113 150 185 218 292 339
#     4  12  22  34  59  88 113 142 193 239 275 324
#     4  11  22  37  57  82 116 147 188 232 284 331
#     4  10  21  35  57  86 111 145 184 239 272 336
#     4  10  21  36  60  82 113 150 185 229 281 344
#
# _framework density 18.680102000000002
#
# number of rings (size 3 to 8) (size 9 to 14) (size 15 to 20)
#    0.000    1.600    4.000    0.600    2.800    0.000 
#    0.000    1.000    8.800    0.000    0.000    0.000 
#    0.000    0.000    0.000    0.000    0.000    0.000 
#
# Total GULP energy -111628.455825 kJ/mol
# GULP energy per Si atom -5581.422791 kJ/mol
# Density = 1.863758 g / cm^3
# Si number density = 18.680102 Si / 1000 Ang^3
#
#
#
# Elastic Constant Matrix: (Units=GPa)
#
#
# Indices 1 2 3 4 5 6 
#
# 1 59.8217 45.2631 3.0551 0.0000 -10.4886 0.0000
# 2 45.2631 117.6139 34.8172 0.0000 -5.4980 0.0000
# 3 3.0551 34.8172 65.1220 0.0000 -1.5117 0.0000
# 4 0.0000 0.0000 0.0000 23.9627 0.0000 -9.4481
# 5 -10.4886 -5.4980 -1.5117 0.0000 20.7934 0.0000
# 6 0.0000 0.0000 0.0000 -9.4481 0.0000 29.5144
#
#
#
# Elastic Compliance Matrix: (Units=1/GPa)
#
#
# Indices 1 2 3 4 5 6 
#
# 1 0.026987 -0.011374 0.005070 0.000000 0.010974 0.000000
# 2 -0.011374 0.015004 -0.007542 0.000000 -0.002318 0.000000
# 3 0.005070 -0.007542 0.019196 0.000000 0.001959 0.000000
# 4 0.000000 0.000000 0.000000 0.047760 0.000000 0.015289
# 5 0.010974 -0.002318 0.001959 0.000000 0.053157 0.000000
# 6 0.000000 0.000000 0.000000 0.015289 0.000000 0.038776
#
#
# Mechanical properties :
#
#
# Convention : Reuss Voigt Hill
#
# Bulk Modulus (GPa) = 29.85552 45.42536 37.64044
# Shear Modulus (GPa) = 20.85625 25.48225 23.16925
#
# Velocity S-wave (km/s) = 3.34503 3.69743 3.52563
# Velocity P-wave (km/s) = 5.56203 6.52674 6.06360
#
# Compressibility (1/GPa) = 0.03349465
#
# Stress axis : x y z
#
# Youngs Moduli (GPa) = 37.05456 66.65001 52.09499
#
# Poissons Ratio (x) = 0.75805 -0.26410
# Poissons Ratio (y) = 0.42144 0.39290
# Poissons Ratio (z) = -0.18785 0.50267
#
# Static dielectric constant tensor:
#      x y z
#    x 1.656070 0.000000 -0.006970 
#    y 0.000000 1.628740 0.000000 
#    z -0.006970 0.000000 1.678370 
# 
# From -- ./inp_files/85491.got.cif
#   From: 2010.05.17/outbox.cif.g08.bks.cpg/sg15_43_cif.got.tgz:85491.got - 2010.06.03 18:47:42.
