data_PCOD9279102
_publ_section_title
;
Structure prediction by ZEFSAII (Michael W. Deem and Ramdas Pophale) SiO2 
 PCOD9279102
Probable space group: C 2/C
;
_chemical_formula_sum "Si O2"
_cell_formula_units_Z 56
_cell_length_a 15.200322
_cell_length_b 18.843663
_cell_length_c 13.206543
_cell_angle_alpha 90.000000
_cell_angle_beta 30.078061
_cell_angle_gamma 90.000000
_cell_volume 1895.834848
_symmetry_space_group_name_H-M "C 2/C"
_symmetry_group_IT_number 15
_symmetry_cell_setting 'monoclinic'
loop_
_space_group_symop_operation_xyz
x,y,z
-x,y,1/2-z
-x,-y,-z
x,-y,1/2+z
1/2+x,1/2+y,z
1/2-x,1/2+y,1/2-z
1/2-x,1/2-y,-z
1/2+x,1/2-y,1/2+z
loop_
_atom_site_type_symbol
_atom_site_label
_atom_site_fract_x
_atom_site_fract_y
_atom_site_fract_z
Si Si1 0.565588 0.297531 0.508804
Si Si2 0.881215 0.592736 0.688893
Si Si3 0.810510 0.951036 0.599911
Si Si4 0.125980 0.600857 0.032413
Si Si5 0.851426 0.966248 0.802274
Si Si6 0.293528 0.172058 0.035283
Si Si7 0.980595 0.809694 0.160656
O O1 0.696307 0.364112 0.370125
O O2 0.634972 0.253296 0.536638
O O3 0.363323 0.310900 0.730656
O O4 0.551695 0.264618 0.409286
O O5 0.843097 0.511452 0.756045
O O6 0.951859 0.600134 0.503178
O O7 0.023322 0.633914 0.614467
O O8 0.963489 0.994229 0.388074
O O9 0.829042 0.949786 0.703631
O O10 0.865633 0.869904 0.511035
O O11 0.000000 0.617497 0.250000
O O12 0.207176 0.523955 0.971870
O O13 0.296221 0.650012 0.857011
O O14 0.807727 0.896085 0.910973
O O15 0.000000 0.773092 0.250000
#
# Coordination Sequence:
#
# PCOD9279102 Si02
#       7
#     8   8   8   8   8   8   8
#     4  11  22  38  52  81 114 145 198 230 263 325
#     4  10  21  34  57  85 109 145 184 235 279 329
#     4   9  16  35  56  80 110 136 186 235 286 332
#     4   9  20  34  52  85 116 136 182 227 285 348
#     4   9  17  32  57  79 106 143 177 239 284 319
#     4  12  21  35  59  77 112 152 190 234 272 321
#     4  10  21  36  56  77 116 156 177 231 281 321
#
# _framework density 29.538436999999998
#
# number of rings (size 3 to 8) (size 9 to 14) (size 15 to 20)
#    0.000    2.000    4.286    1.714    2.000    3.429 
#    0.000    1.429    0.000    0.000    0.000    2.000 
#    0.000    0.000    0.000    0.000    0.000    0.000 
#
# Total GULP energy -156354.724047 kJ/mol
# GULP energy per Si atom -5584.097287 kJ/mol
# Density = 2.947121 g / cm^3
# Si number density = 29.538437 Si / 1000 Ang^3
#
#
#
# Elastic Constant Matrix: (Units=GPa)
#
#
# Indices 1 2 3 4 5 6 
#
# 1 131.6656 -19.9899 22.1568 0.0020 41.7343 0.0062
# 2 -19.9899 135.4766 26.3859 0.0396 20.2205 -0.0093
# 3 22.1568 26.3859 161.2586 0.0098 12.4533 0.0097
# 4 0.0020 0.0396 0.0098 28.1098 -0.0076 -8.3274
# 5 41.7343 20.2205 12.4533 -0.0076 56.5820 -0.0054
# 6 0.0062 -0.0093 0.0097 -8.3274 -0.0054 -12.1071
#
#
#
# Elastic Compliance Matrix: (Units=1/GPa)
#
#
# Indices 1 2 3 4 5 6 
#
# 1 0.011228 0.003291 -0.001374 -0.000005 -0.009155 0.000009
# 2 0.003291 0.008951 -0.001508 -0.000012 -0.005294 0.000005
# 3 -0.001374 -0.001508 0.006630 0.000001 0.000093 0.000005
# 4 -0.000005 -0.000012 0.000001 0.029553 0.000010 -0.020327
# 5 -0.009155 -0.005294 0.000093 0.000010 0.026298 -0.000019
# 6 0.000009 0.000005 0.000005 -0.020327 -0.000019 -0.068615
#
#
# Mechanical properties :
#
#
# Convention : Reuss Voigt Hill
#
# Bulk Modulus (GPa) = 36.19842 53.94517 45.07180
# Shear Modulus (GPa) = 222.87075 41.17348 132.02211
#
# Velocity S-wave (km/s) = 8.69568 3.73754 6.69269
# Velocity P-wave (km/s) = 10.63490 6.07684 8.66109
#
# Compressibility (1/GPa) = 0.02762551
#
# Stress axis : x y z
#
# Youngs Moduli (GPa) = 89.06513 111.72252 150.83998
#
# Poissons Ratio (x) = -0.36765 0.20727
# Poissons Ratio (y) = -0.29309 0.22745
# Poissons Ratio (z) = 0.12239 0.16846
#
# Static dielectric constant tensor:
#      x y z
#    x 2.494580 -0.000030 -0.030850 
#    y -0.000030 2.510400 0.000030 
#    z -0.030850 0.000030 2.236950 
# 
# From -- ./inp_files/216856.got.cif
#   From: 2010.05.17/outbox.cif.g08.bks.cpg/sg15_109_cif.got.tgz:216856.got - 2010.06.03 18:47:42.
