data_PCOD9279072
_publ_section_title
;
Structure prediction by ZEFSAII (Michael W. Deem and Ramdas Pophale) SiO2 
 PCOD9279072
Probable space group: C 2/C
;
_chemical_formula_sum "Si O2"
_cell_formula_units_Z 56
_cell_length_a 25.498345
_cell_length_b 12.166877
_cell_length_c 24.456654
_cell_angle_alpha 90.000000
_cell_angle_beta 159.484453
_cell_angle_gamma 90.000000
_cell_volume 2659.062245
_symmetry_space_group_name_H-M "C 2/C"
_symmetry_group_IT_number 15
_symmetry_cell_setting 'monoclinic'
loop_
_space_group_symop_operation_xyz
x,y,z
-x,y,1/2-z
-x,-y,-z
x,-y,1/2+z
1/2+x,1/2+y,z
1/2-x,1/2+y,1/2-z
1/2-x,1/2-y,-z
1/2+x,1/2-y,1/2+z
loop_
_atom_site_type_symbol
_atom_site_label
_atom_site_fract_x
_atom_site_fract_y
_atom_site_fract_z
Si Si1 0.854531 0.699325 0.507467
Si Si2 0.847432 0.447458 0.370544
Si Si3 0.470726 0.593624 0.581214
Si Si4 0.255811 0.745599 0.664851
Si Si5 0.356019 0.625568 0.352002
Si Si6 0.873837 0.319095 0.294982
Si Si7 0.951825 0.900117 0.761310
O O1 0.750115 0.772406 0.366202
O O2 0.953613 0.786371 0.638836
O O3 0.726785 0.625613 0.411384
O O4 0.982528 0.636107 0.597536
O O5 0.855138 0.352762 0.423222
O O6 0.727571 0.539628 0.267928
O O7 0.795140 0.397883 0.261269
O O8 0.000000 0.500000 0.500000
O O9 0.603277 0.680980 0.719025
O O10 0.320086 0.663149 0.447319
O O11 0.453464 0.581321 0.498004
O O12 0.499605 0.484614 0.643582
O O13 0.275177 0.811280 0.741185
O O14 0.432220 0.716706 0.388823
O O15 0.000000 0.947176 0.750000
#
# Coordination Sequence:
#
# PCOD9279072 Si02
#       7
#     8   8   8   8   8   8   8
#     4  10  23  40  60  95 123 154 206 265 325 390
#     4  11  20  30  55  84 128 175 210 236 295 369
#     4  10  22  41  60  90 124 170 214 252 316 368
#     4   9  22  37  55  85 127 165 207 260 289 370
#     4   9  21  34  56  87 134 173 207 236 304 378
#     4  10  21  34  55  90 131 163 201 243 309 386
#     4  11  24  46  70  89 120 163 216 282 333 365
#
# _framework density 21.060055999999999
#
# number of rings (size 3 to 8) (size 9 to 14) (size 15 to 20)
#    0.857    1.143    0.000    3.000   10.000    0.571 
#    0.000    0.714    0.000    0.000    0.000    0.000 
#    0.000    0.000    0.000    0.000    0.000    0.000 
#
# Total GULP energy -155990.088254 kJ/mol
# GULP energy per Si atom -5571.074580 kJ/mol
# Density = 2.101212 g / cm^3
# Si number density = 21.060056 Si / 1000 Ang^3
#
#
#
# Elastic Constant Matrix: (Units=GPa)
#
#
# Indices 1 2 3 4 5 6 
#
# 1 62.5346 12.8400 13.4708 0.0009 5.3374 0.0001
# 2 12.8400 69.0732 15.3195 0.0043 3.3582 0.0013
# 3 13.4708 15.3195 66.1085 0.0029 13.4113 0.0009
# 4 0.0009 0.0043 0.0029 39.5306 0.0010 2.5982
# 5 5.3374 3.3582 13.4113 0.0010 23.0208 0.0002
# 6 0.0001 0.0013 0.0009 2.5982 0.0002 19.1083
#
#
#
# Elastic Compliance Matrix: (Units=1/GPa)
#
#
# Indices 1 2 3 4 5 6 
#
# 1 0.017234 -0.002548 -0.002479 0.000000 -0.002180 0.000000
# 2 -0.002548 0.015639 -0.003132 -0.000001 0.000134 -0.000001
# 3 -0.002479 -0.003132 0.018313 -0.000001 -0.009637 0.000000
# 4 0.000000 -0.000001 -0.000001 0.025525 -0.000001 -0.003471
# 5 -0.002180 0.000134 -0.009637 -0.000001 0.049539 0.000000
# 6 0.000000 -0.000001 0.000000 -0.003471 0.000000 0.052805
#
#
# Mechanical properties :
#
#
# Convention : Reuss Voigt Hill
#
# Bulk Modulus (GPa) = 28.67971 31.21966 29.94969
# Shear Modulus (GPa) = 24.15504 26.73769 25.44637
#
# Velocity S-wave (km/s) = 3.39035 3.56700 3.47980
# Velocity P-wave (km/s) = 5.38272 5.64101 5.51337
#
# Compressibility (1/GPa) = 0.03486786
#
# Stress axis : x y z
#
# Youngs Moduli (GPa) = 58.02357 63.94207 54.60707
#
# Poissons Ratio (x) = 0.16292 0.13538
# Poissons Ratio (y) = 0.14784 0.17104
# Poissons Ratio (z) = 0.14385 0.20027
#
# Static dielectric constant tensor:
#      x y z
#    x 1.779570 0.000000 0.022660 
#    y 0.000000 1.857410 0.000000 
#    z 0.022660 0.000000 1.804780 
# 
# From -- ./inp_files/303304.got.cif
#   From: 2010.05.17/outbox.cif.g08.bks.cpg/sg15_152_cif.got.tgz:303304.got - 2010.06.03 18:47:42.
