data_PCOD9279764
_publ_section_title
;
Structure prediction by ZEFSAII (Michael W. Deem and Ramdas Pophale) SiO2 
 PCOD9279764
Probable space group: C 2/C
;
_chemical_formula_sum "Si O2"
_cell_formula_units_Z 64
_cell_length_a 23.221323
_cell_length_b 16.390039
_cell_length_c 18.201068
_cell_angle_alpha 90.000000
_cell_angle_beta 27.150720
_cell_angle_gamma 90.000000
_cell_volume 3161.152724
_symmetry_space_group_name_H-M "C 2/C"
_symmetry_group_IT_number 15
_symmetry_cell_setting 'monoclinic'
loop_
_space_group_symop_operation_xyz
x,y,z
-x,y,1/2-z
-x,-y,-z
x,-y,1/2+z
1/2+x,1/2+y,z
1/2-x,1/2+y,1/2-z
1/2-x,1/2-y,-z
1/2+x,1/2-y,1/2+z
loop_
_atom_site_type_symbol
_atom_site_label
_atom_site_fract_x
_atom_site_fract_y
_atom_site_fract_z
Si Si1 0.963125 0.204853 0.998774
Si Si2 0.032122 0.208919 0.331440
Si Si3 0.678193 0.167387 0.287019
Si Si4 0.891762 0.502616 0.683081
Si Si5 0.549084 0.883466 0.089476
Si Si6 0.774702 0.925371 0.928000
Si Si7 0.960688 0.027701 0.626771
Si Si8 0.835805 0.919634 0.023337
O O1 0.023700 0.124634 0.892808
O O2 0.066170 0.277733 0.879040
O O3 0.817193 0.208722 0.135784
O O4 0.954827 0.193685 0.096382
O O5 0.036334 0.303187 0.307204
O O6 0.899724 0.168690 0.456002
O O7 0.140344 0.155614 0.173410
O O8 0.678878 0.083561 0.239635
O O9 0.633994 0.140617 0.420138
O O10 0.786641 0.571460 0.786581
O O11 0.000000 0.500000 0.500000
O O12 0.968395 0.536096 0.665176
O O13 0.638306 0.900404 0.055863
O O14 0.793036 0.948648 0.991633
O O15 0.830033 0.991533 0.806790
O O16 0.060000 0.982504 0.566562
O O17 0.000000 0.000000 0.500000
#
# Coordination Sequence:
#
# PCOD9279764 Si02
#       8
#     8   8   8   8   8   8   8   8
#     4  11  20  35  63  93 123 158 214 272 323 370
#     4  10  21  36  58  88 125 167 208 249 301 376
#     4  10  21  38  60  95 124 158 212 277 320 377
#     4  10  23  39  61  86 120 163 208 261 318 376
#     4  10  22  36  59  84 128 167 207 246 317 376
#     4  11  23  39  57  92 127 162 212 254 307 390
#     4  11  19  37  66  86 117 159 210 263 312 370
#     4  11  23  39  61  88 125 163 208 258 312 372
#
# _framework density 20.245778999999999
#
# number of rings (size 3 to 8) (size 9 to 14) (size 15 to 20)
#    0.000    1.500    5.000    1.500    3.500    5.000 
#    2.250    0.000    0.000    0.750    3.250    0.000 
#    0.000    0.000    0.000    0.000    0.000    0.000 
#
# Total GULP energy -178496.675135 kJ/mol
# GULP energy per Si atom -5578.021098 kJ/mol
# Density = 2.019970 g / cm^3
# Si number density = 20.245779 Si / 1000 Ang^3
#
#
#
# Elastic Constant Matrix: (Units=GPa)
#
#
# Indices 1 2 3 4 5 6 
#
# 1 94.5630 58.2046 31.3202 0.0000 -15.3628 0.0000
# 2 58.2046 72.4054 17.9482 0.0000 -6.7195 0.0000
# 3 31.3202 17.9482 63.6741 -0.0001 -17.8741 0.0001
# 4 0.0000 0.0000 -0.0001 18.5257 0.0001 -4.2002
# 5 -15.3628 -6.7195 -17.8741 0.0001 31.8130 0.0000
# 6 0.0000 0.0000 0.0001 -4.2002 0.0000 23.6957
#
#
#
# Elastic Compliance Matrix: (Units=1/GPa)
#
#
# Indices 1 2 3 4 5 6 
#
# 1 0.023872 -0.017383 -0.005505 0.000000 0.004763 0.000000
# 2 -0.017383 0.027530 0.000079 0.000000 -0.002535 0.000000
# 3 -0.005505 0.000079 0.020954 0.000000 0.009131 0.000000
# 4 0.000000 0.000000 0.000000 0.056239 0.000000 0.009969
# 5 0.004763 -0.002535 0.009131 0.000000 0.038329 0.000000
# 6 0.000000 0.000000 0.000000 0.009969 0.000000 0.043969
#
#
# Mechanical properties :
#
#
# Convention : Reuss Voigt Hill
#
# Bulk Modulus (GPa) = 37.40199 49.50984 43.45592
# Shear Modulus (GPa) = 18.83784 23.01817 20.92801
#
# Velocity S-wave (km/s) = 3.05365 3.37551 3.21860
# Velocity P-wave (km/s) = 5.56301 6.30076 5.94334
#
# Compressibility (1/GPa) = 0.02673654
#
# Stress axis : x y z
#
# Youngs Moduli (GPa) = 41.89078 36.32392 47.72390
#
# Poissons Ratio (x) = 0.63142 0.26272
# Poissons Ratio (y) = 0.72819 -0.00375
# Poissons Ratio (z) = 0.23061 -0.00286
#
# Static dielectric constant tensor:
#      x y z
#    x 1.752340 0.000000 0.010890 
#    y 0.000000 1.723810 0.000000 
#    z 0.010890 0.000000 1.807450 
# 
# From -- ./inp_files/216162.got.cif
#   From: 2010.05.17/outbox.cif.g08.bks.cpg/sg15_109_cif.got.tgz:216162.got - 2010.06.03 18:47:42.
