data_PCOD9279296
_publ_section_title
;
Structure prediction by ZEFSAII (Michael W. Deem and Ramdas Pophale) SiO2 
 PCOD9279296
Probable space group: C 2/C
;
_chemical_formula_sum "Si O2"
_cell_formula_units_Z 56
_cell_length_a 17.825821
_cell_length_b 26.155866
_cell_length_c 9.410941
_cell_angle_alpha 90.000000
_cell_angle_beta 44.632201
_cell_angle_gamma 90.000000
_cell_volume 3082.697118
_symmetry_space_group_name_H-M "C 2/C"
_symmetry_group_IT_number 15
_symmetry_cell_setting 'monoclinic'
loop_
_space_group_symop_operation_xyz
x,y,z
-x,y,1/2-z
-x,-y,-z
x,-y,1/2+z
1/2+x,1/2+y,z
1/2-x,1/2+y,1/2-z
1/2-x,1/2-y,-z
1/2+x,1/2-y,1/2+z
loop_
_atom_site_type_symbol
_atom_site_label
_atom_site_fract_x
_atom_site_fract_y
_atom_site_fract_z
Si Si1 0.788569 0.753747 0.608678
Si Si2 0.551302 0.613288 0.904415
Si Si3 0.211473 0.329817 0.946100
Si Si4 0.815176 0.067955 0.251234
Si Si5 0.000000 0.270891 0.250000
Si Si6 0.123371 0.018720 0.622894
Si Si7 0.651143 0.685664 0.967796
Si Si8 0.500000 0.698847 0.750000
O O1 0.750000 0.750000 0.500000
O O2 0.735273 0.800190 0.767858
O O3 0.751014 0.702942 0.738680
O O4 0.912829 0.766040 0.441338
O O5 0.609188 0.565929 0.751385
O O6 0.604731 0.632416 0.976853
O O7 0.553971 0.660787 0.791195
O O8 0.428524 0.598052 0.092540
O O9 0.224164 0.389869 0.898978
O O10 0.304652 0.314838 0.932283
O O11 0.098998 0.307818 0.156417
O O12 0.822032 0.027621 0.369220
O O13 0.816381 0.038036 0.099209
O O14 0.939863 0.229097 0.430793
O O15 0.000000 0.004624 0.750000
#
# Coordination Sequence:
#
# PCOD9279296 Si02
#       8
#     8   8   8   8   4   8   8   4
#     4  11  22  35  54  80 112 158 195 227 283 337
#     4  11  19  35  57  83 123 153 185 232 295 352
#     4  11  24  39  59  84 119 154 199 242 293 342
#     4  11  22  37  57  85 117 148 192 243 298 356
#     4  10  22  40  56  83 115 154 202 240 274 348
#     4  10  21  35  56  86 118 147 192 235 300 358
#     4  11  24  35  59  86 119 159 196 236 288 349
#     4  12  20  36  54  83 121 156 184 234 280 348
#
# _framework density 18.165911000000001
#
# number of rings (size 3 to 8) (size 9 to 14) (size 15 to 20)
#    0.000    1.143    5.000    4.286    6.000    0.000 
#    0.000    0.000    0.000    0.857    0.000    0.000 
#    0.000    0.000    0.000    0.000    0.000    0.000 
#
# Total GULP energy -156236.262676 kJ/mol
# GULP energy per Si atom -5579.866524 kJ/mol
# Density = 1.812456 g / cm^3
# Si number density = 18.165911 Si / 1000 Ang^3
#
#
#
# Elastic Constant Matrix: (Units=GPa)
#
#
# Indices 1 2 3 4 5 6 
#
# 1 71.7078 38.5140 30.0603 0.0000 15.3181 0.0000
# 2 38.5140 66.8290 33.0197 0.0000 10.3941 0.0000
# 3 30.0603 33.0197 69.4618 0.0000 2.8226 0.0000
# 4 0.0000 0.0000 0.0000 6.5534 0.0000 -6.3501
# 5 15.3181 10.3941 2.8226 0.0000 30.6115 0.0000
# 6 0.0000 0.0000 0.0000 -6.3501 0.0000 32.2242
#
#
#
# Elastic Compliance Matrix: (Units=1/GPa)
#
#
# Indices 1 2 3 4 5 6 
#
# 1 0.022783 -0.009424 -0.005065 0.000000 -0.007733 0.000000
# 2 -0.009424 0.024540 -0.007468 0.000000 -0.002928 0.000000
# 3 -0.005065 -0.007468 0.020007 0.000000 0.003226 0.000000
# 4 0.000000 0.000000 0.000000 0.188607 0.000000 0.037167
# 5 -0.007733 -0.002928 0.003226 0.000000 0.037234 0.000000
# 6 0.000000 0.000000 0.000000 0.037167 0.000000 0.038357
#
#
# Mechanical properties :
#
#
# Convention : Reuss Voigt Hill
#
# Bulk Modulus (GPa) = 42.70762 45.68742 44.19752
# Shear Modulus (GPa) = 13.04638 20.97145 17.00891
#
# Velocity S-wave (km/s) = 2.68279 3.40139 3.06324
# Velocity P-wave (km/s) = 5.75824 6.37422 6.07404
#
# Compressibility (1/GPa) = 0.02341503
#
# Stress axis : x y z
#
# Youngs Moduli (GPa) = 43.89312 40.74947 49.98150
#
# Poissons Ratio (x) = 0.38404 0.25317
# Poissons Ratio (y) = 0.41366 0.37327
# Poissons Ratio (z) = 0.22233 0.30432
#
# Static dielectric constant tensor:
#      x y z
#    x 1.653260 0.000000 0.027980 
#    y 0.000000 1.639570 0.000000 
#    z 0.027980 0.000000 1.659250 
# 
# From -- ./inp_files/43230.got.cif
#   From: 2010.05.17/outbox.cif.g08.bks.cpg/sg15_22_cif.got.tgz:43230.got - 2010.06.03 18:47:42.
