data_PCOD9279759
_publ_section_title
;
Structure prediction by ZEFSAII (Michael W. Deem and Ramdas Pophale) SiO2 
 PCOD9279759
Probable space group: C 2/C
;
_chemical_formula_sum "Si O2"
_cell_formula_units_Z 40
_cell_length_a 7.753823
_cell_length_b 27.458094
_cell_length_c 9.016769
_cell_angle_alpha 90.000000
_cell_angle_beta 86.426964
_cell_angle_gamma 90.000000
_cell_volume 1915.985407
_symmetry_space_group_name_H-M "C 2/C"
_symmetry_group_IT_number 15
_symmetry_cell_setting 'monoclinic'
loop_
_space_group_symop_operation_xyz
x,y,z
-x,y,1/2-z
-x,-y,-z
x,-y,1/2+z
1/2+x,1/2+y,z
1/2-x,1/2+y,1/2-z
1/2-x,1/2-y,-z
1/2+x,1/2-y,1/2+z
loop_
_atom_site_type_symbol
_atom_site_label
_atom_site_fract_x
_atom_site_fract_y
_atom_site_fract_z
Si Si1 0.453814 0.050211 0.581131
Si Si2 0.039534 0.851660 0.921943
Si Si3 0.453209 0.550502 0.923910
Si Si4 0.047509 0.752610 0.069960
Si Si5 0.043970 0.645983 0.076037
O O1 0.500000 0.046899 0.750000
O O2 0.251553 0.054772 0.564696
O O3 0.528510 0.100104 0.509388
O O4 0.500000 0.000000 0.500000
O O5 0.246850 0.851978 0.938256
O O6 0.000000 0.852017 0.750000
O O7 0.971815 0.901465 0.000225
O O8 0.974678 0.801272 0.997776
O O9 0.500000 0.549029 0.750000
O O10 0.500000 0.500000 0.000000
O O11 0.978025 0.699114 0.028793
O O12 0.000000 0.756128 0.250000
O O13 0.250000 0.750000 0.000000
O O14 0.000000 0.639160 0.250000
#
# Coordination Sequence:
#
# PCOD9279759 Si02
#       5
#     8   8   8   8   8
#     4  11  23  38  58  83 111 147 189 234 284 341
#     4  10  21  36  58  86 115 150 192 237 288 346
#     4  11  23  39  58  83 115 151 191 239 292 349
#     4   9  18  37  59  82 116 155 192 239 292 347
#     4   9  20  38  57  80 114 149 186 233 285 339
#
# _framework density 20.876985000000001
#
# number of rings (size 3 to 8) (size 9 to 14) (size 15 to 20)
#    0.000    2.000    0.000    3.000    0.000    7.200 
#    0.000    9.000    0.000    0.000    0.000    0.000 
#    0.000    0.000    0.000    0.000    0.000    0.000 
#
# Total GULP energy -111520.982404 kJ/mol
# GULP energy per Si atom -5576.049120 kJ/mol
# Density = 2.082947 g / cm^3
# Si number density = 20.876985 Si / 1000 Ang^3
#
#
#
# Elastic Constant Matrix: (Units=GPa)
#
#
# Indices 1 2 3 4 5 6 
#
# 1 47.5384 20.1941 6.4570 0.0000 -1.9504 0.0000
# 2 20.1941 286.8069 142.0703 0.0000 7.9770 0.0000
# 3 6.4570 142.0703 155.5158 0.0000 -1.5711 0.0000
# 4 0.0000 0.0000 0.0000 64.1605 0.0000 -10.9158
# 5 -1.9504 7.9770 -1.5711 0.0000 32.8108 0.0000
# 6 0.0000 0.0000 0.0000 -10.9158 0.0000 22.5453
#
#
#
# Elastic Compliance Matrix: (Units=1/GPa)
#
#
# Indices 1 2 3 4 5 6 
#
# 1 0.021865 -0.002102 0.001031 0.000000 0.001860 0.000000
# 2 -0.002102 0.006682 -0.006038 0.000000 -0.002039 0.000000
# 3 0.001031 -0.006038 0.011924 0.000000 0.002100 0.000000
# 4 0.000000 0.000000 0.000000 0.016985 0.000000 0.008224
# 5 0.001860 -0.002039 0.002100 0.000000 0.031185 0.000000
# 6 0.000000 0.000000 0.000000 0.008224 0.000000 0.048337
#
#
# Mechanical properties :
#
#
# Convention : Reuss Voigt Hill
#
# Bulk Modulus (GPa) = 38.08901 91.92265 65.00583
# Shear Modulus (GPa) = 31.26045 45.31261 38.28653
#
# Velocity S-wave (km/s) = 3.87378 4.66387 4.28706
# Velocity P-wave (km/s) = 6.18808 8.55152 7.46394
#
# Compressibility (1/GPa) = 0.02625429
#
# Stress axis : x y z
#
# Youngs Moduli (GPa) = 45.73553 149.65096 83.86165
#
# Poissons Ratio (x) = 0.31459 -0.08649
# Poissons Ratio (y) = 0.09614 0.50634
# Poissons Ratio (z) = -0.04717 0.90356
#
# Static dielectric constant tensor:
#      x y z
#    x 1.848790 0.000000 -0.057250 
#    y 0.000000 1.833020 0.000000 
#    z -0.057250 0.000000 1.720540 
# 
# From -- ./inp_files/23655.got.cif
#   From: 2010.05.17/outbox.cif.g08.bks.cpg/sg15_12_cif.got.tgz:23655.got - 2010.06.03 18:47:42.
