data_PCOD9279585
_publ_section_title
;
Structure prediction by ZEFSAII (Michael W. Deem and Ramdas Pophale) SiO2 
 PCOD9279585
Probable space group: C 2/C
;
_chemical_formula_sum "Si O2"
_cell_formula_units_Z 56
_cell_length_a 9.790168
_cell_length_b 32.465742
_cell_length_c 13.011464
_cell_angle_alpha 90.000000
_cell_angle_beta 48.506045
_cell_angle_gamma 90.000000
_cell_volume 3097.692601
_symmetry_space_group_name_H-M "C 2/C"
_symmetry_group_IT_number 15
_symmetry_cell_setting 'monoclinic'
loop_
_space_group_symop_operation_xyz
x,y,z
-x,y,1/2-z
-x,-y,-z
x,-y,1/2+z
1/2+x,1/2+y,z
1/2-x,1/2+y,1/2-z
1/2-x,1/2-y,-z
1/2+x,1/2-y,1/2+z
loop_
_atom_site_type_symbol
_atom_site_label
_atom_site_fract_x
_atom_site_fract_y
_atom_site_fract_z
Si Si1 0.701556 0.547865 0.370187
Si Si2 0.108404 0.996970 0.602964
Si Si3 0.697699 0.117482 0.876757
Si Si4 0.488609 0.714445 0.926113
Si Si5 0.970903 0.878191 0.435990
Si Si6 0.583391 0.954840 0.937083
Si Si7 0.693652 0.211153 0.886079
O O1 0.725968 0.525711 0.468672
O O2 0.554642 0.520703 0.382912
O O3 0.604750 0.590747 0.442782
O O4 0.866438 0.551447 0.207913
O O5 0.228946 0.960358 0.591448
O O6 0.000000 0.019772 0.750000
O O7 0.828860 0.118306 0.911542
O O8 0.620968 0.164419 0.912595
O O9 0.832307 0.111540 0.712078
O O10 0.548716 0.081607 0.960037
O O11 0.479039 0.668257 0.973914
O O12 0.336381 0.712895 0.910823
O O13 0.682228 0.719782 0.774614
O O14 0.445115 0.752208 0.021870
O O15 0.500000 0.000000 0.000000
#
# Coordination Sequence:
#
# PCOD9279585 Si02
#       7
#     8   8   8   8   8   8   8
#     4  10  21  36  54  71  93 133 169 196 255 302
#     4   9  21  37  53  70  95 129 166 207 251 296
#     4   9  19  31  47  70 104 133 161 207 252 285
#     4   8  14  25  42  66  93 126 163 194 238 295
#     4   9  18  31  49  70  98 136 169 195 245 309
#     4  11  23  35  49  75 101 125 167 217 246 286
#     4   8  14  26  41  64  95 130 157 195 244 291
#
# _framework density 18.077973
#
# number of rings (size 3 to 8) (size 9 to 14) (size 15 to 20)
#    0.000    2.857    0.000    2.571    8.000    3.429 
#    0.000    2.857    0.000    0.000    0.000    1.000 
#    0.000    0.000    0.000    0.000    0.000    0.000 
#
# Total GULP energy -155910.549905 kJ/mol
# GULP energy per Si atom -5568.233925 kJ/mol
# Density = 1.803683 g / cm^3
# Si number density = 18.077973 Si / 1000 Ang^3
#
#
#
# Elastic Constant Matrix: (Units=GPa)
#
#
# Indices 1 2 3 4 5 6 
#
# 1 23.9513 8.1149 18.9263 0.0000 -0.1725 0.0000
# 2 8.1149 149.1178 101.0032 0.0000 1.0736 0.0000
# 3 18.9263 101.0032 134.4978 0.0000 4.1101 0.0000
# 4 0.0000 0.0000 0.0000 37.9074 0.0000 -7.5935
# 5 -0.1725 1.0736 4.1101 0.0000 19.3432 0.0000
# 6 0.0000 0.0000 0.0000 -7.5935 0.0000 12.7567
#
#
#
# Elastic Compliance Matrix: (Units=1/GPa)
#
#
# Indices 1 2 3 4 5 6 
#
# 1 0.048224 0.004077 -0.009919 0.000000 0.002311 0.000000
# 2 0.004077 0.014033 -0.011162 0.000000 0.001629 0.000000
# 3 -0.009919 -0.011162 0.017309 0.000000 -0.003147 0.000000
# 4 0.000000 0.000000 0.000000 0.029951 0.000000 0.017829
# 5 0.002311 0.001629 -0.003147 0.000000 0.052297 0.000000
# 6 0.000000 0.000000 0.000000 0.017829 0.000000 0.089002
#
#
# Mechanical properties :
#
#
# Convention : Reuss Voigt Hill
#
# Bulk Modulus (GPa) = 21.94904 62.62843 42.28873
# Shear Modulus (GPa) = 16.66618 25.96963 21.31791
#
# Velocity S-wave (km/s) = 3.03958 3.79428 3.43770
# Velocity P-wave (km/s) = 4.94838 7.34262 6.26101
#
# Compressibility (1/GPa) = 0.04556009
#
# Stress axis : x y z
#
# Youngs Moduli (GPa) = 20.73644 71.26237 57.77379
#
# Poissons Ratio (x) = -0.29055 0.57303
# Poissons Ratio (y) = -0.08455 0.64485
# Poissons Ratio (z) = 0.20567 0.79540
#
# Static dielectric constant tensor:
#      x y z
#    x 1.646120 0.000000 0.000210 
#    y 0.000000 1.637540 0.000000 
#    z 0.000210 0.000000 1.685560 
# 
# From -- ./inp_files/149018.got.cif
#   From: 2010.05.17/outbox.cif.g08.bks.cpg/sg15_75_cif.got.tgz:149018.got - 2010.06.03 18:47:42.
