data_PCOD9279222
_publ_section_title
;
Structure prediction by ZEFSAII (Michael W. Deem and Ramdas Pophale) SiO2 
 PCOD9279222
Probable space group: C 2/C
;
_chemical_formula_sum "Si O2"
_cell_formula_units_Z 60
_cell_length_a 11.292730
_cell_length_b 28.939310
_cell_length_c 9.585477
_cell_angle_alpha 90.000000
_cell_angle_beta 115.026572
_cell_angle_gamma 90.000000
_cell_volume 2838.458707
_symmetry_space_group_name_H-M "C 2/C"
_symmetry_group_IT_number 15
_symmetry_cell_setting 'monoclinic'
loop_
_space_group_symop_operation_xyz
x,y,z
-x,y,1/2-z
-x,-y,-z
x,-y,1/2+z
1/2+x,1/2+y,z
1/2-x,1/2+y,1/2-z
1/2-x,1/2-y,-z
1/2+x,1/2-y,1/2+z
loop_
_atom_site_type_symbol
_atom_site_label
_atom_site_fract_x
_atom_site_fract_y
_atom_site_fract_z
Si Si1 0.371414 0.973006 0.826346
Si Si2 0.018163 0.880454 0.927040
Si Si3 0.602555 0.929548 0.113237
Si Si4 0.792794 0.071172 0.472181
Si Si5 0.567592 0.722217 0.500169
Si Si6 0.000000 0.650487 0.750000
Si Si7 0.831289 0.262478 0.233360
Si Si8 0.127285 0.972287 0.913021
O O1 0.329636 0.937958 0.687211
O O2 0.371193 0.026314 0.772465
O O3 0.257171 0.970882 0.884531
O O4 0.503969 0.955153 0.958885
O O5 0.059502 0.832340 0.012505
O O6 0.000000 0.874415 0.750000
O O7 0.886046 0.893645 0.941195
O O8 0.113885 0.924554 0.990986
O O9 0.529517 0.885600 0.140392
O O10 0.735135 0.917519 0.095542
O O11 0.866908 0.021612 0.509477
O O12 0.674591 0.740138 0.664816
O O13 0.425833 0.746829 0.408192
O O14 0.631546 0.730070 0.378941
O O15 0.120451 0.686817 0.796831
O O16 0.000000 0.972889 0.750000
#
# Coordination Sequence:
#
# PCOD9279222 Si02
#       8
#     8   8   8   8   8   4   8   8
#     4  10  21  36  55  76 116 162 201 248 288 342
#     4  11  19  33  58  89 109 153 201 240 294 367
#     4  10  24  36  54  83 116 159 200 247 292 353
#     4  11  22  38  54  79 124 157 201 246 292 343
#     4   9  18  35  57  92 116 147 189 249 312 350
#     4  10  22  38  58  88 112 158 204 246 304 364
#     4   9  19  36  60  87 121 142 191 263 298 364
#     4  10  21  35  52  83 114 160 197 245 284 345
#
# _framework density 21.138231999999999
#
# number of rings (size 3 to 8) (size 9 to 14) (size 15 to 20)
#    0.000    2.133    4.000    0.800    7.467    0.000 
#    4.800    0.000    0.000    3.200    0.000    3.733 
#    0.000    0.000    0.000    0.000    0.000    0.000 
#
# Total GULP energy -167138.518365 kJ/mol
# GULP energy per Si atom -5571.283946 kJ/mol
# Density = 2.109012 g / cm^3
# Si number density = 21.138232 Si / 1000 Ang^3
#
#
#
# Elastic Constant Matrix: (Units=GPa)
#
#
# Indices 1 2 3 4 5 6 
#
# 1 102.2911 34.5151 27.4381 0.0000 7.1955 0.0000
# 2 34.5151 110.3164 22.1768 0.0000 8.1092 0.0000
# 3 27.4381 22.1768 48.6192 0.0000 23.3498 0.0000
# 4 0.0000 0.0000 0.0000 13.6414 0.0000 -0.4071
# 5 7.1955 8.1092 23.3498 0.0000 33.8753 0.0000
# 6 0.0000 0.0000 0.0000 -0.4071 0.0000 49.2228
#
#
#
# Elastic Compliance Matrix: (Units=1/GPa)
#
#
# Indices 1 2 3 4 5 6 
#
# 1 0.012396 -0.002646 -0.007217 0.000000 0.002975 0.000000
# 2 -0.002646 0.010573 -0.003564 0.000000 0.000487 0.000000
# 3 -0.007217 -0.003564 0.037552 0.000000 -0.023498 0.000000
# 4 0.000000 0.000000 0.000000 0.073325 0.000000 0.000606
# 5 0.002975 0.000487 -0.023498 0.000000 0.044968 0.000000
# 6 0.000000 0.000000 0.000000 0.000606 0.000000 0.020321
#
#
# Mechanical properties :
#
#
# Convention : Reuss Voigt Hill
#
# Bulk Modulus (GPa) = 29.70314 47.72073 38.71194
# Shear Modulus (GPa) = 21.07838 31.15433 26.11636
#
# Velocity S-wave (km/s) = 3.16122 3.84322 3.51879
# Velocity P-wave (km/s) = 5.23515 6.50526 5.90446
#
# Compressibility (1/GPa) = 0.03366647
#
# Stress axis : x y z
#
# Youngs Moduli (GPa) = 80.67442 94.57814 26.63005
#
# Poissons Ratio (x) = 0.25026 0.19220
# Poissons Ratio (y) = 0.21347 0.09490
# Poissons Ratio (z) = 0.58226 0.33703
#
# Static dielectric constant tensor:
#      x y z
#    x 1.829250 0.000000 0.019940 
#    y 0.000000 1.789010 0.000000 
#    z 0.019940 0.000000 1.846230 
# 
# From -- ./inp_files/92069.got.cif
#   From: 2010.05.17/outbox.cif.g08.bks.cpg/sg15_47_cif.got.tgz:92069.got - 2010.06.03 18:47:42.
