data_PCOD9279146
_publ_section_title
;
Structure prediction by ZEFSAII (Michael W. Deem and Ramdas Pophale) SiO2 
 PCOD9279146
Probable space group: C 2/C
;
_chemical_formula_sum "Si O2"
_cell_formula_units_Z 64
_cell_length_a 20.204572
_cell_length_b 11.316581
_cell_length_c 22.584176
_cell_angle_alpha 90.000000
_cell_angle_beta 40.708582
_cell_angle_gamma 90.000000
_cell_volume 3367.889972
_symmetry_space_group_name_H-M "C 2/C"
_symmetry_group_IT_number 15
_symmetry_cell_setting 'monoclinic'
loop_
_space_group_symop_operation_xyz
x,y,z
-x,y,1/2-z
-x,-y,-z
x,-y,1/2+z
1/2+x,1/2+y,z
1/2-x,1/2+y,1/2-z
1/2-x,1/2-y,-z
1/2+x,1/2-y,1/2+z
loop_
_atom_site_type_symbol
_atom_site_label
_atom_site_fract_x
_atom_site_fract_y
_atom_site_fract_z
Si Si1 0.153841 0.295423 0.847011
Si Si2 0.308641 0.811565 0.149941
Si Si3 0.726282 0.610045 0.016443
Si Si4 0.497999 0.639913 0.350809
Si Si5 0.482542 0.360571 0.523780
Si Si6 0.966270 0.487975 0.092280
Si Si7 0.208033 0.961967 0.663526
Si Si8 0.942936 0.595264 0.847427
O O1 0.225141 0.240563 0.749745
O O2 0.080760 0.385847 0.863078
O O3 0.223981 0.371245 0.843945
O O4 0.081759 0.206109 0.931530
O O5 0.381125 0.711213 0.070998
O O6 0.380907 0.889134 0.143567
O O7 0.251101 0.907383 0.147934
O O8 0.613829 0.581945 0.070535
O O9 0.726901 0.567364 0.083042
O O10 0.750000 0.750000 0.000000
O O11 0.824993 0.566680 0.915218
O O12 0.526621 0.655916 0.399595
O O13 0.589802 0.566321 0.258921
O O14 0.476617 0.765977 0.333098
O O15 0.500000 0.500000 0.500000
O O16 0.035547 0.454591 0.100887
O O17 0.000000 0.500000 0.000000
O O18 0.000000 0.551919 0.750000
#
# Coordination Sequence:
#
# PCOD9279146 Si02
#       8
#     8   8   8   8   8   8   8   8
#     4  11  22  36  63  90 125 168 207 264 332 393
#     4  11  23  39  59  96 122 165 218 267 337 402
#     4  10  21  34  59  92 125 165 211 267 333 389
#     4  11  20  39  57  93 130 164 215 270 331 393
#     4  12  24  40  61  92 131 161 214 276 331 397
#     4  11  20  39  66  90 129 170 212 270 332 394
#     4  11  21  37  65  89 126 166 215 271 334 399
#     4  11  21  36  60  95 133 168 216 275 332 392
#
# _framework density 19.002996
#
# number of rings (size 3 to 8) (size 9 to 14) (size 15 to 20)
#    0.000    1.000    3.750    5.625    1.750    1.000 
#    0.000    0.000    0.000    3.750    0.000    0.000 
#    0.000    0.000    0.000    0.000    0.000    0.000 
#
# Total GULP energy -178261.132112 kJ/mol
# GULP energy per Si atom -5570.660379 kJ/mol
# Density = 1.895974 g / cm^3
# Si number density = 19.002996 Si / 1000 Ang^3
#
#
#
# Elastic Constant Matrix: (Units=GPa)
#
#
# Indices 1 2 3 4 5 6 
#
# 1 61.4640 18.8304 44.0224 0.0000 -12.8925 0.0000
# 2 18.8304 99.5731 53.4528 0.0000 -9.7952 0.0000
# 3 44.0224 53.4528 160.6173 0.0000 -28.0082 0.0000
# 4 0.0000 0.0000 0.0000 21.9050 0.0000 -3.5766
# 5 -12.8925 -9.7952 -28.0082 0.0000 35.8879 0.0000
# 6 0.0000 0.0000 0.0000 -3.5766 0.0000 25.9002
#
#
#
# Elastic Compliance Matrix: (Units=1/GPa)
#
#
# Indices 1 2 3 4 5 6 
#
# 1 0.020697 -0.001038 -0.004723 0.000000 0.003466 0.000000
# 2 -0.001038 0.012280 -0.003800 0.000000 0.000013 0.000000
# 3 -0.004723 -0.003800 0.009617 0.000000 0.004772 0.000000
# 4 0.000000 0.000000 0.000000 0.046705 0.000000 0.006450
# 5 0.003466 0.000013 0.004772 0.000000 0.032837 0.000000
# 6 0.000000 0.000000 0.000000 0.006450 0.000000 0.039500
#
#
# Mechanical properties :
#
#
# Convention : Reuss Voigt Hill
#
# Bulk Modulus (GPa) = 42.60159 61.58504 52.09331
# Shear Modulus (GPa) = 26.51339 30.42853 28.47096
#
# Velocity S-wave (km/s) = 3.73932 4.00590 3.87490
# Velocity P-wave (km/s) = 6.41174 7.33994 6.89148
#
# Compressibility (1/GPa) = 0.02347331
#
# Stress axis : x y z
#
# Youngs Moduli (GPa) = 48.31517 81.43045 103.97992
#
# Poissons Ratio (x) = 0.08450 0.49110
# Poissons Ratio (y) = 0.05014 0.39514
# Poissons Ratio (z) = 0.22819 0.30945
#
# Static dielectric constant tensor:
#      x y z
#    x 1.596700 0.000000 -0.038730 
#    y 0.000000 1.696180 0.000000 
#    z -0.038730 0.000000 1.666720 
# 
# From -- ./inp_files/252564.got.cif
#   From: 2010.05.17/outbox.cif.g08.bks.cpg/sg15_127_cif.got.tgz:252564.got - 2010.06.03 18:47:42.
