data_PCOD9279442
_publ_section_title
;
Structure prediction by ZEFSAII (Michael W. Deem and Ramdas Pophale) SiO2 
 PCOD9279442
Probable space group: C 2/C
;
_chemical_formula_sum "Si O2"
_cell_formula_units_Z 52
_cell_length_a 9.190672
_cell_length_b 17.856539
_cell_length_c 12.790948
_cell_angle_alpha 90.000000
_cell_angle_beta 74.565650
_cell_angle_gamma 90.000000
_cell_volume 2023.464075
_symmetry_space_group_name_H-M "C 2/C"
_symmetry_group_IT_number 15
_symmetry_cell_setting 'monoclinic'
loop_
_space_group_symop_operation_xyz
x,y,z
-x,y,1/2-z
-x,-y,-z
x,-y,1/2+z
1/2+x,1/2+y,z
1/2-x,1/2+y,1/2-z
1/2-x,1/2-y,-z
1/2+x,1/2-y,1/2+z
loop_
_atom_site_type_symbol
_atom_site_label
_atom_site_fract_x
_atom_site_fract_y
_atom_site_fract_z
Si Si1 0.562608 0.271265 0.453540
Si Si2 0.350715 0.140605 0.568067
Si Si3 0.444325 0.568649 0.436819
Si Si4 0.336825 0.810935 0.297118
Si Si5 0.122208 0.544427 0.564078
Si Si6 0.000000 0.719126 0.250000
Si Si7 0.760939 0.397804 0.859586
O O1 0.473733 0.205936 0.526499
O O2 0.560073 0.350896 0.507054
O O3 0.735129 0.257001 0.386376
O O4 0.489360 0.269717 0.353062
O O5 0.280571 0.161787 0.693453
O O6 0.454886 0.065377 0.554101
O O7 0.251670 0.135291 0.481693
O O8 0.500000 0.500000 0.500000
O O9 0.265950 0.549980 0.455636
O O10 0.599426 0.580548 0.340267
O O11 0.500000 0.775670 0.250000
O O12 0.353990 0.886894 0.359079
O O13 0.143610 0.472114 0.633349
O O14 0.856497 0.662960 0.278118
#
# Coordination Sequence:
#
# PCOD9279442 Si02
#       7
#     8   8   8   8   8   4   8
#     4  10  22  38  55  88 120 146 201 242 282 358
#     4  10  21  35  60  89 112 157 195 238 292 336
#     4   9  20  38  61  81 111 155 186 236 300 339
#     4   9  20  35  57  85 111 155 191 232 298 333
#     4   9  19  39  58  85 116 154 194 239 286 349
#     4  10  24  34  56  88 120 152 186 244 294 330
#     4  10  21  37  59  85 117 153 194 236 289 347
#
# _framework density 25.698505999999998
#
# number of rings (size 3 to 8) (size 9 to 14) (size 15 to 20)
#    0.000    2.462    0.000    0.462    7.538    6.769 
#    0.000    0.000    0.000    0.000    6.000    0.000 
#    0.000    0.000    0.000    0.000    0.000    0.000 
#
# Total GULP energy -145037.258262 kJ/mol
# GULP energy per Si atom -5578.356087 kJ/mol
# Density = 2.564001 g / cm^3
# Si number density = 25.698506 Si / 1000 Ang^3
#
#
#
# Elastic Constant Matrix: (Units=GPa)
#
#
# Indices 1 2 3 4 5 6 
#
# 1 122.6725 6.5715 5.4813 0.0000 -21.6443 0.0000
# 2 6.5715 101.3348 -5.4100 0.0000 0.1126 0.0000
# 3 5.4813 -5.4100 51.8420 0.0000 0.5789 0.0000
# 4 0.0000 0.0000 0.0000 19.0708 0.0000 -15.8950
# 5 -21.6443 0.1126 0.5789 0.0000 41.6519 0.0000
# 6 0.0000 0.0000 0.0000 -15.8950 0.0000 29.0475
#
#
#
# Elastic Compliance Matrix: (Units=1/GPa)
#
#
# Indices 1 2 3 4 5 6 
#
# 1 0.009069 -0.000651 -0.001080 0.000000 0.004730 0.000000
# 2 -0.000651 0.009970 0.001114 0.000000 -0.000381 0.000000
# 3 -0.001080 0.001114 0.019529 0.000000 -0.000835 0.000000
# 4 0.000000 0.000000 0.000000 0.096405 0.000000 0.052754
# 5 0.004730 -0.000381 -0.000835 0.000000 0.026479 0.000000
# 6 0.000000 0.000000 0.000000 0.052754 0.000000 0.063293
#
#
# Mechanical properties :
#
#
# Convention : Reuss Voigt Hill
#
# Bulk Modulus (GPa) = 26.78487 32.12610 29.45548
# Shear Modulus (GPa) = 20.97093 35.90116 28.43605
#
# Velocity S-wave (km/s) = 2.85974 3.74172 3.33006
# Velocity P-wave (km/s) = 4.62055 5.58530 5.12567
#
# Compressibility (1/GPa) = 0.03733452
#
# Stress axis : x y z
#
# Youngs Moduli (GPa) = 110.26092 100.29722 51.20575
#
# Poissons Ratio (x) = 0.06530 0.05528
# Poissons Ratio (y) = 0.07178 -0.05702
# Poissons Ratio (z) = 0.11904 -0.11169
#
# Static dielectric constant tensor:
#      x y z
#    x 2.320470 0.000000 -0.020120 
#    y 0.000000 1.989650 0.000000 
#    z -0.020120 0.000000 2.096290 
# 
# From -- ./inp_files/145488.got.cif
#   From: 2010.05.17/outbox.cif.g08.bks.cpg/sg15_73_cif.got.tgz:145488.got - 2010.06.03 18:47:42.
