data_PCOD9279894
_publ_section_title
;
Structure prediction by ZEFSAII (Michael W. Deem and Ramdas Pophale) SiO2 
 PCOD9279894
Probable space group: C 2/C
;
_chemical_formula_sum "Si O2"
_cell_formula_units_Z 60
_cell_length_a 5.382326
_cell_length_b 29.757167
_cell_length_c 17.289227
_cell_angle_alpha 90.000000
_cell_angle_beta 79.999568
_cell_angle_gamma 90.000000
_cell_volume 2727.018217
_symmetry_space_group_name_H-M "C 2/C"
_symmetry_group_IT_number 15
_symmetry_cell_setting 'monoclinic'
loop_
_space_group_symop_operation_xyz
x,y,z
-x,y,1/2-z
-x,-y,-z
x,-y,1/2+z
1/2+x,1/2+y,z
1/2-x,1/2+y,1/2-z
1/2-x,1/2-y,-z
1/2+x,1/2-y,1/2+z
loop_
_atom_site_type_symbol
_atom_site_label
_atom_site_fract_x
_atom_site_fract_y
_atom_site_fract_z
Si Si1 0.340243 0.947897 0.460373
Si Si2 0.971930 0.353141 0.463756
Si Si3 0.509135 0.298849 0.043149
Si Si4 0.753055 0.937283 0.731608
Si Si5 0.270446 0.775864 0.872421
Si Si6 0.284672 0.457850 0.563949
Si Si7 0.000000 0.217392 0.250000
Si Si8 0.641939 0.147866 0.348742
O O1 0.409002 0.899475 0.422972
O O2 0.576994 0.952207 0.507612
O O3 0.068848 0.949916 0.518891
O O4 0.289936 0.990956 0.408563
O O5 0.769372 0.318294 0.442419
O O6 0.886255 0.361762 0.558464
O O7 0.257573 0.333625 0.450146
O O8 0.527905 0.256843 0.099238
O O9 0.574424 0.282443 0.952837
O O10 0.500000 0.965408 0.750000
O O11 0.774157 0.926487 0.639851
O O12 0.708259 0.895078 0.791992
O O13 0.000000 0.960533 0.750000
O O14 0.172855 0.755126 0.798394
O O15 0.388622 0.824096 0.843614
O O16 0.853433 0.184249 0.316073
#
# Coordination Sequence:
#
# PCOD9279894 Si02
#       8
#     8   8   8   8   8   8   4   8
#     4  10  21  36  61  83 118 158 202 246 286 350
#     4  11  21  38  60  87 114 156 204 251 290 353
#     4  10  23  39  59  81 116 160 201 250 297 350
#     4  12  23  35  54  85 123 162 185 230 294 371
#     4  10  23  37  54  81 121 158 201 241 304 364
#     4  10  21  38  55  88 124 159 192 238 299 363
#     4  12  20  34  52  84 112 156 184 248 292 372
#     4  11  23  33  54  86 125 155 191 238 302 365
#
# _framework density 22.002054999999999
#
# number of rings (size 3 to 8) (size 9 to 14) (size 15 to 20)
#    0.000    1.333    2.000    4.400    1.867    3.733 
#    0.000    0.000    0.000    0.000    5.200    0.000 
#    0.000    0.000    0.000    0.000    0.000    0.000 
#
# Total GULP energy -167247.030640 kJ/mol
# GULP energy per Si atom -5574.901021 kJ/mol
# Density = 2.195198 g / cm^3
# Si number density = 22.002055 Si / 1000 Ang^3
#
#
#
# Elastic Constant Matrix: (Units=GPa)
#
#
# Indices 1 2 3 4 5 6 
#
# 1 96.8180 8.8715 27.0451 0.0000 24.6622 0.0000
# 2 8.8715 74.7244 19.7977 0.0000 7.2306 0.0000
# 3 27.0451 19.7977 62.0625 0.0000 11.0045 0.0000
# 4 0.0000 0.0000 0.0000 24.1841 0.0000 1.4037
# 5 24.6622 7.2306 11.0045 0.0000 32.9443 0.0000
# 6 0.0000 0.0000 0.0000 1.4037 0.0000 23.1839
#
#
#
# Elastic Compliance Matrix: (Units=1/GPa)
#
#
# Indices 1 2 3 4 5 6 
#
# 1 0.013845 0.000436 -0.004589 0.000000 -0.008927 0.000000
# 2 0.000436 0.014728 -0.004525 0.000000 -0.002047 0.000000
# 3 -0.004589 -0.004525 0.019953 0.000000 -0.002236 0.000000
# 4 0.000000 0.000000 0.000000 0.041495 0.000000 -0.002512
# 5 -0.008927 -0.002047 -0.002236 0.000000 0.038233 0.000000
# 6 0.000000 0.000000 0.000000 -0.002512 0.000000 0.043286
#
#
# Mechanical properties :
#
#
# Convention : Reuss Voigt Hill
#
# Bulk Modulus (GPa) = 32.08395 38.33705 35.21050
# Shear Modulus (GPa) = 25.08967 27.92184 26.50576
#
# Velocity S-wave (km/s) = 3.38055 3.56625 3.47464
# Velocity P-wave (km/s) = 5.46364 5.86682 5.66882
#
# Compressibility (1/GPa) = 0.03116823
#
# Stress axis : x y z
#
# Youngs Moduli (GPa) = 72.23038 67.89908 50.11856
#
# Poissons Ratio (x) = -0.02961 0.23001
# Poissons Ratio (y) = -0.03150 0.22679
# Poissons Ratio (z) = 0.33149 0.30725
#
# Static dielectric constant tensor:
#      x y z
#    x 1.937630 0.000000 0.009620 
#    y 0.000000 1.917390 0.000000 
#    z 0.009620 0.000000 1.812310 
# 
# From -- ./inp_files/186536.got.cif
#   From: 2010.05.17/outbox.cif.g08.bks.cpg/sg15_94_cif.got.tgz:186536.got - 2010.06.03 18:47:42.
