data_PCOD9279991
_publ_section_title
;
Structure prediction by ZEFSAII (Michael W. Deem and Ramdas Pophale) SiO2 
 PCOD9279991
Probable space group: C 2/C
;
_chemical_formula_sum "Si O2"
_cell_formula_units_Z 36
_cell_length_a 28.374589
_cell_length_b 6.565387
_cell_length_c 9.686207
_cell_angle_alpha 90.000000
_cell_angle_beta 132.917595
_cell_angle_gamma 90.000000
_cell_volume 1321.456124
_symmetry_space_group_name_H-M "C 2/C"
_symmetry_group_IT_number 15
_symmetry_cell_setting 'monoclinic'
loop_
_space_group_symop_operation_xyz
x,y,z
-x,y,1/2-z
-x,-y,-z
x,-y,1/2+z
1/2+x,1/2+y,z
1/2-x,1/2+y,1/2-z
1/2-x,1/2-y,-z
1/2+x,1/2-y,1/2+z
loop_
_atom_site_type_symbol
_atom_site_label
_atom_site_fract_x
_atom_site_fract_y
_atom_site_fract_z
Si Si1 0.436119 0.614030 0.823144
Si Si2 0.867874 0.524172 0.384056
Si Si3 0.353864 0.470413 0.903155
Si Si4 0.782743 0.423923 0.970179
Si Si5 0.500000 0.059894 0.250000
O O1 0.390677 0.606328 0.865441
O O2 0.390193 0.504530 0.619768
O O3 0.463055 0.806586 0.791921
O O4 0.500000 0.500000 0.000000
O O5 0.863429 0.272079 0.387614
O O6 0.832725 0.616462 0.447307
O O7 0.944533 0.555801 0.555992
O O8 0.824783 0.557521 0.160682
O O9 0.278281 0.512637 0.734766
O O10 0.750000 0.250000 0.000000
#
# Coordination Sequence:
#
# PCOD9279991 Si02
#       5
#     8   8   8   8   4
#     4  11  17  35  61  93 130 161 209 256 313 372
#     4  10  21  41  64  87 129 166 215 266 314 377
#     4  10  21  36  62  94 126 165 212 266 312 374
#     4  10  22  42  65  92 124 168 216 262 323 379
#     4  10  22  38  64  94 132 168 212 258 318 374
#
# _framework density 27.242674000000001
#
# number of rings (size 3 to 8) (size 9 to 14) (size 15 to 20)
#    0.000    1.778    4.444    1.333    0.000    0.889 
#    0.000   26.667    0.000    0.000    0.000    0.000 
#    0.000    0.000    0.000    0.000    0.000    0.000 
#
# Total GULP energy -100728.789827 kJ/mol
# GULP energy per Si atom -5596.043879 kJ/mol
# Density = 2.718067 g / cm^3
# Si number density = 27.242674 Si / 1000 Ang^3
#
#
#
# Elastic Constant Matrix: (Units=GPa)
#
#
# Indices 1 2 3 4 5 6 
#
# 1 219.0922 11.7197 93.6047 0.0000 0.3142 0.0000
# 2 11.7197 89.5165 37.3994 0.0000 15.2801 0.0000
# 3 93.6047 37.3994 304.1189 0.0000 32.1362 0.0000
# 4 0.0000 0.0000 0.0000 40.0009 0.0000 8.6174
# 5 0.3142 15.2801 32.1362 0.0000 76.9342 0.0000
# 6 0.0000 0.0000 0.0000 8.6174 0.0000 35.6381
#
#
#
# Elastic Compliance Matrix: (Units=1/GPa)
#
#
# Indices 1 2 3 4 5 6 
#
# 1 0.005291 -0.000107 -0.001690 0.000000 0.000706 0.000000
# 2 -0.000107 0.012025 -0.001249 0.000000 -0.001866 0.000000
# 3 -0.001690 -0.001249 0.004117 0.000000 -0.001465 0.000000
# 4 0.000000 0.000000 0.000000 0.026373 0.000000 -0.006377
# 5 0.000706 -0.001866 -0.001465 0.000000 0.013978 0.000000
# 6 0.000000 0.000000 0.000000 -0.006377 0.000000 0.029602
#
#
# Mechanical properties :
#
#
# Convention : Reuss Voigt Hill
#
# Bulk Modulus (GPa) = 65.18169 99.79725 82.48947
# Shear Modulus (GPa) = 48.73712 61.84821 55.29266
#
# Velocity S-wave (km/s) = 4.23424 4.76990 4.51003
# Velocity P-wave (km/s) = 6.91978 8.18830 7.58062
#
# Compressibility (1/GPa) = 0.01534173
#
# Stress axis : x y z
#
# Youngs Moduli (GPa) = 189.00028 83.15718 242.91617
#
# Poissons Ratio (x) = 0.00891 0.41050
# Poissons Ratio (y) = 0.02025 0.30332
# Poissons Ratio (z) = 0.31939 0.10383
#
# Static dielectric constant tensor:
#      x y z
#    x 2.127290 0.000000 -0.094460 
#    y 0.000000 3.039920 0.000000 
#    z -0.094460 0.000000 2.092310 
# 
# From -- ./inp_files/68459.got.cif
#   From: 2010.05.17/outbox.cif.g08.bks.cpg/sg15_35_cif.got.tgz:68459.got - 2010.06.03 18:47:42.
