data_PCOD9279320
_publ_section_title
;
Structure prediction by ZEFSAII (Michael W. Deem and Ramdas Pophale) SiO2 
 PCOD9279320
Probable space group: C 2/C
;
_chemical_formula_sum "Si O2"
_cell_formula_units_Z 48
_cell_length_a 9.058712
_cell_length_b 14.815717
_cell_length_c 28.961580
_cell_angle_alpha 90.000000
_cell_angle_beta 140.382525
_cell_angle_gamma 90.000000
_cell_volume 2478.562340
_symmetry_space_group_name_H-M "C 2/C"
_symmetry_group_IT_number 15
_symmetry_cell_setting 'monoclinic'
loop_
_space_group_symop_operation_xyz
x,y,z
-x,y,1/2-z
-x,-y,-z
x,-y,1/2+z
1/2+x,1/2+y,z
1/2-x,1/2+y,1/2-z
1/2-x,1/2-y,-z
1/2+x,1/2-y,1/2+z
loop_
_atom_site_type_symbol
_atom_site_label
_atom_site_fract_x
_atom_site_fract_y
_atom_site_fract_z
Si Si1 0.875081 0.243475 0.422243
Si Si2 0.460102 0.378215 0.685397
Si Si3 0.463183 0.887677 0.793415
Si Si4 0.113250 0.083507 0.845780
Si Si5 0.789228 0.272608 0.086088
Si Si6 0.363156 0.081421 0.806612
O O1 0.663501 0.177204 0.359499
O O2 0.764855 0.341618 0.408450
O O3 0.038988 0.248279 0.415858
O O4 0.041651 0.210839 0.503298
O O5 0.500000 0.388480 0.750000
O O6 0.711920 0.341446 0.731136
O O7 0.400448 0.475794 0.648685
O O8 0.281746 0.306810 0.622052
O O9 0.500000 0.917836 0.750000
O O10 0.433138 0.978030 0.815747
O O11 0.235028 0.088727 0.824905
O O12 0.841970 0.109648 0.777789
O O13 0.911489 0.357492 0.139282
#
# Coordination Sequence:
#
# PCOD9279320 Si02
#       6
#     8   8   8   8   8   8
#     4  10  21  35  57  83 114 153 185 223 277 341
#     4  11  20  36  60  84 108 145 189 235 277 324
#     4  11  20  34  60  86 107 143 193 234 270 326
#     4   9  17  34  57  77 105 148 187 221 274 336
#     4  10  21  36  55  83 117 150 184 226 280 336
#     4   9  18  34  55  78 109 143 183 230 279 319
#
# _framework density 19.366064000000001
#
# number of rings (size 3 to 8) (size 9 to 14) (size 15 to 20)
#    0.000    2.000    5.000    1.000    2.333    2.000 
#    0.000    0.833    0.000    0.000    0.000    0.000 
#    0.000    0.000    0.000    0.000    0.000    0.000 
#
# Total GULP energy -133618.265239 kJ/mol
# GULP energy per Si atom -5567.427718 kJ/mol
# Density = 1.932199 g / cm^3
# Si number density = 19.366064 Si / 1000 Ang^3
#
#
#
# Elastic Constant Matrix: (Units=GPa)
#
#
# Indices 1 2 3 4 5 6 
#
# 1 19.6283 -2.7974 9.8301 0.0000 8.4225 0.0000
# 2 -2.7974 74.1635 43.7562 0.0000 3.7620 0.0000
# 3 9.8301 43.7562 88.8490 0.0000 12.4214 0.0000
# 4 0.0000 0.0000 0.0000 6.7828 0.0000 1.2648
# 5 8.4225 3.7620 12.4214 0.0000 20.5005 0.0000
# 6 0.0000 0.0000 0.0000 1.2648 0.0000 21.4159
#
#
#
# Elastic Compliance Matrix: (Units=1/GPa)
#
#
# Indices 1 2 3 4 5 6 
#
# 1 0.066572 0.008594 -0.008252 0.000000 -0.023927 0.000000
# 2 0.008594 0.020223 -0.010814 0.000000 -0.000690 0.000000
# 3 -0.008252 -0.010814 0.018292 0.000000 -0.005708 0.000000
# 4 0.000000 0.000000 0.000000 0.149074 0.000000 -0.008804
# 5 -0.023927 -0.000690 -0.005708 0.000000 0.062195 0.000000
# 6 0.000000 0.000000 0.000000 -0.008804 0.000000 0.047214
#
#
# Mechanical properties :
#
#
# Convention : Reuss Voigt Hill
#
# Bulk Modulus (GPa) = 11.88477 31.57985 21.73231
# Shear Modulus (GPa) = 12.11940 18.52997 15.32469
#
# Velocity S-wave (km/s) = 2.50433 3.09662 2.81609
# Velocity P-wave (km/s) = 3.80952 5.39700 4.67119
#
# Compressibility (1/GPa) = 0.08414129
#
# Stress axis : x y z
#
# Youngs Moduli (GPa) = 15.02138 49.44889 54.66981
#
# Poissons Ratio (x) = -0.42495 0.45116
# Poissons Ratio (y) = -0.12909 0.59118
# Poissons Ratio (z) = 0.12396 0.53473
#
# Static dielectric constant tensor:
#      x y z
#    x 1.728870 0.000000 0.001690 
#    y 0.000000 1.699310 0.000000 
#    z 0.001690 0.000000 1.671050 
# 
# From -- ./inp_files/289023.got.cif
#   From: 2010.05.17/outbox.cif.g08.bks.cpg/sg15_145_cif.got.tgz:289023.got - 2010.06.03 18:47:42.
