data_PCOD9279197
_publ_section_title
;
Structure prediction by ZEFSAII (Michael W. Deem and Ramdas Pophale) SiO2 
 PCOD9279197
Probable space group: C 2/C
;
_chemical_formula_sum "Si O2"
_cell_formula_units_Z 36
_cell_length_a 14.573368
_cell_length_b 24.513964
_cell_length_c 14.259368
_cell_angle_alpha 90.000000
_cell_angle_beta 159.211206
_cell_angle_gamma 90.000000
_cell_volume 1808.045137
_symmetry_space_group_name_H-M "C 2/C"
_symmetry_group_IT_number 15
_symmetry_cell_setting 'monoclinic'
loop_
_space_group_symop_operation_xyz
x,y,z
-x,y,1/2-z
-x,-y,-z
x,-y,1/2+z
1/2+x,1/2+y,z
1/2-x,1/2+y,1/2-z
1/2-x,1/2-y,-z
1/2+x,1/2-y,1/2+z
loop_
_atom_site_type_symbol
_atom_site_label
_atom_site_fract_x
_atom_site_fract_y
_atom_site_fract_z
Si Si1 0.062542 0.722913 0.199892
Si Si2 0.257324 0.457218 0.660370
Si Si3 0.000000 0.521053 0.250000
Si Si4 0.635526 0.614473 0.978945
Si Si5 0.269760 0.430132 0.285455
O O1 0.294769 0.763550 0.393383
O O2 0.178075 0.662473 0.308737
O O3 0.000000 0.732751 0.250000
O O4 0.175356 0.484095 0.484399
O O5 0.258624 0.508623 0.732753
O O6 0.024146 0.417532 0.468778
O O7 0.537694 0.431081 0.941677
O O8 0.189206 0.560795 0.371592
O O9 0.500000 0.628411 0.750000
O O10 0.412168 0.603431 0.840545
#
# Coordination Sequence:
#
# PCOD9279197 Si02
#       5
#     8   8   4   8   8
#     4  10  21  35  48  67  97 127 162 211 250 276
#     4  10  21  35  48  67  97 127 162 211 250 276
#     4  12  22  32  50  74  94 132 178 204 228 300
#     4  12  22  32  50  74  94 132 178 204 228 300
#     4  10  21  35  48  67  97 127 162 211 250 276
#
# _framework density 19.911007999999999
#
# number of rings (size 3 to 8) (size 9 to 14) (size 15 to 20)
#    0.000    1.333    3.333    6.000    0.000    0.000 
#    0.000    0.000    0.000    0.000    0.000    0.000 
#    0.000    0.000    0.000   20.000    0.000    0.000 
#
# Total GULP energy -100583.032121 kJ/mol
# GULP energy per Si atom -5587.946229 kJ/mol
# Density = 1.986569 g / cm^3
# Si number density = 19.911008 Si / 1000 Ang^3
#
#
#
# Elastic Constant Matrix: (Units=GPa)
#
#
# Indices 1 2 3 4 5 6 
#
# 1 53.6732 43.7549 42.1099 0.0011 1.8382 0.0002
# 2 43.7549 55.8271 37.0260 0.0003 5.9211 -0.0001
# 3 42.1099 37.0260 125.6626 0.0102 6.3870 0.0020
# 4 0.0011 0.0003 0.0102 22.8621 0.0009 9.9856
# 5 1.8382 5.9211 6.3870 0.0009 28.7910 0.0001
# 6 0.0002 -0.0001 0.0020 9.9856 0.0001 10.8273
#
#
#
# Elastic Compliance Matrix: (Units=1/GPa)
#
#
# Indices 1 2 3 4 5 6 
#
# 1 0.057675 -0.040827 -0.007623 0.000001 0.006405 -0.000001
# 2 -0.040827 0.051451 -0.001086 0.000003 -0.007734 -0.000001
# 3 -0.007623 -0.001086 0.010919 -0.000006 -0.001712 0.000004
# 4 0.000001 0.000003 -0.000006 0.073245 -0.000001 -0.067551
# 5 0.006405 -0.007734 -0.001712 -0.000001 0.036294 0.000001
# 6 -0.000001 -0.000001 0.000004 -0.067551 0.000001 0.154659
#
#
# Mechanical properties :
#
#
# Convention : Reuss Voigt Hill
#
# Bulk Modulus (GPa) = 47.67741 53.43828 50.55785
# Shear Modulus (GPa) = 10.19770 19.98090 15.08930
#
# Velocity S-wave (km/s) = 2.26556 3.17126 2.75587
# Velocity P-wave (km/s) = 5.55346 6.34870 5.96435
#
# Compressibility (1/GPa) = 0.02097429
#
# Stress axis : x y z
#
# Youngs Moduli (GPa) = 17.33848 19.43597 91.58112
#
# Poissons Ratio (x) = 0.79351 0.69814
# Poissons Ratio (y) = 0.70787 0.09942
# Poissons Ratio (z) = 0.13218 0.02110
#
# Static dielectric constant tensor:
#      x y z
#    x 1.732260 0.000000 0.013650 
#    y 0.000000 1.729430 0.000000 
#    z 0.013650 0.000000 1.795280 
# 
# From -- ./inp_files/156872.got.cif
#   From: 2010.05.17/outbox.cif.g08.bks.cpg/sg15_79_cif.got.tgz:156872.got - 2010.06.03 18:47:42.
