data_PCOD9279675
_publ_section_title
;
Structure prediction by ZEFSAII (Michael W. Deem and Ramdas Pophale) SiO2 
 PCOD9279675
Probable space group: C 2/C
;
_chemical_formula_sum "Si O2"
_cell_formula_units_Z 64
_cell_length_a 13.364081
_cell_length_b 7.187659
_cell_length_c 28.275026
_cell_angle_alpha 90.000000
_cell_angle_beta 104.145132
_cell_angle_gamma 90.000000
_cell_volume 2633.649244
_symmetry_space_group_name_H-M "C 2/C"
_symmetry_group_IT_number 15
_symmetry_cell_setting 'monoclinic'
loop_
_space_group_symop_operation_xyz
x,y,z
-x,y,1/2-z
-x,-y,-z
x,-y,1/2+z
1/2+x,1/2+y,z
1/2-x,1/2+y,1/2-z
1/2-x,1/2-y,-z
1/2+x,1/2-y,1/2+z
loop_
_atom_site_type_symbol
_atom_site_label
_atom_site_fract_x
_atom_site_fract_y
_atom_site_fract_z
Si Si1 0.253639 0.538928 0.818238
Si Si2 0.074823 0.061454 0.802676
Si Si3 0.569685 0.944630 0.109839
Si Si4 0.465182 0.473753 0.875176
Si Si5 0.412069 0.592570 0.522871
Si Si6 0.211201 0.395693 0.045616
Si Si7 0.291428 0.887116 0.290966
Si Si8 0.631645 0.881260 0.881969
O O1 0.368823 0.596073 0.846218
O O2 0.275156 0.323019 0.806606
O O3 0.203020 0.613398 0.764680
O O4 0.186051 0.541584 0.857220
O O5 0.186517 0.013074 0.795597
O O6 0.084764 0.246014 0.835981
O O7 0.000000 0.087862 0.750000
O O8 0.028006 0.920232 0.835224
O O9 0.564478 0.719783 0.103505
O O10 0.649220 0.009466 0.078341
O O11 0.616784 0.970754 0.167762
O O12 0.456094 0.027083 0.096304
O O13 0.531736 0.588530 0.920026
O O14 0.500000 0.500000 0.500000
O O15 0.298438 0.504222 0.523190
O O16 0.373327 0.785169 0.495135
O O17 0.279727 0.238313 0.081285
#
# Coordination Sequence:
#
# PCOD9279675 Si02
#       8
#     8   8   8   8   8   8   8   8
#     4  10  21  37  57  87 130 169 218 262 318 381
#     4  11  21  37  63  90 123 176 217 258 321 387
#     4  11  23  40  63  92 133 167 213 270 321 383
#     4  11  20  40  65  92 125 170 216 269 323 385
#     4  11  21  40  78  91 125 173 214 268 338 381
#     4  11  22  44  69  96 125 173 211 268 333 389
#     4  10  21  36  56  86 129 168 212 267 311 381
#     4  11  23  41  63  92 133 171 216 265 323 387
#
# _framework density 24.300882000000001
#
# number of rings (size 3 to 8) (size 9 to 14) (size 15 to 20)
#    0.000    1.250    7.500    0.000    3.500    1.000 
#    0.000    4.375    0.000    0.000    0.000    0.000 
#    0.000    0.000    0.000    0.000    0.000    0.000 
#
# Total GULP energy -178692.698376 kJ/mol
# GULP energy per Si atom -5584.146824 kJ/mol
# Density = 2.424557 g / cm^3
# Si number density = 24.300882 Si / 1000 Ang^3
#
#
#
# Elastic Constant Matrix: (Units=GPa)
#
#
# Indices 1 2 3 4 5 6 
#
# 1 144.3327 24.3809 59.2239 0.0000 -10.4292 0.0000
# 2 24.3809 48.4327 11.7951 0.0000 -0.5280 0.0000
# 3 59.2239 11.7951 142.1871 0.0000 2.7751 0.0000
# 4 0.0000 0.0000 0.0000 18.0339 0.0000 -0.4772
# 5 -10.4292 -0.5280 2.7751 0.0000 39.9551 0.0000
# 6 0.0000 0.0000 0.0000 -0.4772 0.0000 29.6988
#
#
#
# Elastic Compliance Matrix: (Units=1/GPa)
#
#
# Indices 1 2 3 4 5 6 
#
# 1 0.009217 -0.003740 -0.003580 0.000000 0.002605 0.000000
# 2 -0.003740 0.022597 -0.000304 0.000000 -0.000656 0.000000
# 3 -0.003580 -0.000304 0.008579 0.000000 -0.001534 0.000000
# 4 0.000000 0.000000 0.000000 0.055475 0.000000 0.000891
# 5 0.002605 -0.000656 -0.001534 0.000000 0.025806 0.000000
# 6 0.000000 0.000000 0.000000 0.000891 0.000000 0.033686
#
#
# Mechanical properties :
#
#
# Convention : Reuss Voigt Hill
#
# Bulk Modulus (GPa) = 39.76767 58.41691 49.09229
# Shear Modulus (GPa) = 27.93470 33.50773 30.72121
#
# Velocity S-wave (km/s) = 3.39416 3.71734 3.55942
# Velocity P-wave (km/s) = 5.63566 6.52043 6.09412
#
# Compressibility (1/GPa) = 0.02514605
#
# Stress axis : x y z
#
# Youngs Moduli (GPa) = 108.49156 44.25431 116.56072
#
# Poissons Ratio (x) = 0.16550 0.41727
# Poissons Ratio (y) = 0.40573 0.03543
# Poissons Ratio (z) = 0.38838 0.01345
#
# Static dielectric constant tensor:
#      x y z
#    x 2.047740 0.000000 -0.045890 
#    y 0.000000 2.030520 0.000000 
#    z -0.045890 0.000000 1.973120 
# 
# From -- ./inp_files/292020.got.cif
#   From: 2010.05.17/outbox.cif.g08.bks.cpg/sg15_147_cif.got.tgz:292020.got - 2010.06.03 18:47:42.
