data_PCOD9279272
_publ_section_title
;
Structure prediction by ZEFSAII (Michael W. Deem and Ramdas Pophale) SiO2 
 PCOD9279272
Probable space group: C 2/C
;
_chemical_formula_sum "Si O2"
_cell_formula_units_Z 44
_cell_length_a 13.773513
_cell_length_b 32.390261
_cell_length_c 7.743606
_cell_angle_alpha 90.000000
_cell_angle_beta 34.550870
_cell_angle_gamma 90.000000
_cell_volume 1959.254921
_symmetry_space_group_name_H-M "C 2/C"
_symmetry_group_IT_number 15
_symmetry_cell_setting 'monoclinic'
loop_
_space_group_symop_operation_xyz
x,y,z
-x,y,1/2-z
-x,-y,-z
x,-y,1/2+z
1/2+x,1/2+y,z
1/2-x,1/2+y,1/2-z
1/2-x,1/2-y,-z
1/2+x,1/2-y,1/2+z
loop_
_atom_site_type_symbol
_atom_site_label
_atom_site_fract_x
_atom_site_fract_y
_atom_site_fract_z
Si Si1 0.201387 0.045081 0.405248
Si Si2 0.700347 0.544955 0.000325
Si Si3 0.712159 0.863847 0.132557
Si Si4 0.812556 0.634055 0.237827
Si Si5 0.826015 0.807976 0.263898
Si Si6 0.500000 0.748563 0.750000
O O1 0.216145 0.047248 0.180187
O O2 0.293615 0.086656 0.329685
O O3 0.272383 0.999959 0.347505
O O4 0.000000 0.047182 0.750000
O O5 0.500000 0.543701 0.250000
O O6 0.769814 0.588467 0.831609
O O7 0.511615 0.853323 0.446871
O O8 0.823693 0.834698 0.092763
O O9 0.750686 0.862077 0.869623
O O10 0.711143 0.661517 0.521610
O O11 0.665097 0.777056 0.487480
O O12 0.979501 0.779503 0.108088
#
# Coordination Sequence:
#
# PCOD9279272 Si02
#       6
#     8   8   8   8   8   4
#     4  10  21  35  56  86 124 164 210 260 298 359
#     4  10  21  35  55  85 123 164 212 257 300 362
#     4  10  22  40  62  90 127 163 213 250 313 375
#     4  10  22  39  62  92 123 170 206 255 309 375
#     4  11  22  44  66  93 127 165 198 265 317 372
#     4  10  24  42  68  98 122 154 218 252 320 392
#
# _framework density 22.457516999999999
#
# number of rings (size 3 to 8) (size 9 to 14) (size 15 to 20)
#    0.000    1.818    1.818    2.182    6.364    2.182 
#    0.000    5.455    0.000    0.000    0.000    0.000 
#    0.000    0.000    0.000    0.000    0.000    0.000 
#
# Total GULP energy -122864.265276 kJ/mol
# GULP energy per Si atom -5584.739331 kJ/mol
# Density = 2.240640 g / cm^3
# Si number density = 22.457517 Si / 1000 Ang^3
#
#
#
# Elastic Constant Matrix: (Units=GPa)
#
#
# Indices 1 2 3 4 5 6 
#
# 1 96.3204 69.8209 23.6299 0.0000 12.5108 0.0000
# 2 69.8209 144.3827 21.1548 0.0000 13.6888 0.0000
# 3 23.6299 21.1548 26.9889 0.0000 7.0040 0.0000
# 4 0.0000 0.0000 0.0000 66.8738 0.0000 23.8494
# 5 12.5108 13.6888 7.0040 0.0000 22.2962 0.0000
# 6 0.0000 0.0000 0.0000 23.8494 0.0000 66.4752
#
#
#
# Elastic Compliance Matrix: (Units=1/GPa)
#
#
# Indices 1 2 3 4 5 6 
#
# 1 0.018328 -0.007175 -0.009687 0.000000 -0.002836 0.000000
# 2 -0.007175 0.010840 -0.001668 0.000000 -0.002105 0.000000
# 3 -0.009687 -0.001668 0.049174 0.000000 -0.008987 0.000000
# 4 0.000000 0.000000 0.000000 0.017148 0.000000 -0.006152
# 5 -0.002836 -0.002105 -0.008987 0.000000 0.050558 0.000000
# 6 0.000000 0.000000 0.000000 -0.006152 0.000000 0.017250
#
#
# Mechanical properties :
#
#
# Convention : Reuss Voigt Hill
#
# Bulk Modulus (GPa) = 24.22422 55.21144 39.71783
# Shear Modulus (GPa) = 23.35173 41.33480 32.34326
#
# Velocity S-wave (km/s) = 3.22812 4.29485 3.79911
# Velocity P-wave (km/s) = 4.97036 7.01659 6.08017
#
# Compressibility (1/GPa) = 0.04128100
#
# Stress axis : x y z
#
# Youngs Moduli (GPa) = 54.56234 92.25401 20.33609
#
# Poissons Ratio (x) = 0.66190 0.19699
# Poissons Ratio (y) = 0.39147 0.03393
# Poissons Ratio (z) = 0.52854 0.15392
#
# Static dielectric constant tensor:
#      x y z
#    x 1.829830 0.000000 -0.009270 
#    y 0.000000 1.907000 0.000000 
#    z -0.009270 0.000000 1.814400 
# 
# From -- ./inp_files/43358.got.cif
#   From: 2010.05.17/outbox.cif.g08.bks.cpg/sg15_22_cif.got.tgz:43358.got - 2010.06.03 18:47:42.
