data_PCOD9279627
_publ_section_title
;
Structure prediction by ZEFSAII (Michael W. Deem and Ramdas Pophale) SiO2 
 PCOD9279627
Probable space group: C 2/C
;
_chemical_formula_sum "Si O2"
_cell_formula_units_Z 56
_cell_length_a 8.447117
_cell_length_b 30.612374
_cell_length_c 19.383585
_cell_angle_alpha 90.000000
_cell_angle_beta 148.622702
_cell_angle_gamma 90.000000
_cell_volume 2609.776646
_symmetry_space_group_name_H-M "C 2/C"
_symmetry_group_IT_number 15
_symmetry_cell_setting 'monoclinic'
loop_
_space_group_symop_operation_xyz
x,y,z
-x,y,1/2-z
-x,-y,-z
x,-y,1/2+z
1/2+x,1/2+y,z
1/2-x,1/2+y,1/2-z
1/2-x,1/2-y,-z
1/2+x,1/2-y,1/2+z
loop_
_atom_site_type_symbol
_atom_site_label
_atom_site_fract_x
_atom_site_fract_y
_atom_site_fract_z
Si Si1 0.027963 0.150438 0.461134
Si Si2 0.681619 0.699368 0.982088
Si Si3 0.726020 0.449399 0.271298
Si Si4 0.668016 0.856976 0.239696
Si Si5 0.243435 0.503896 0.026593
Si Si6 0.159045 0.567365 0.379231
Si Si7 0.242269 0.640645 0.209393
O O1 0.389501 0.149448 0.583834
O O2 0.933433 0.185848 0.483732
O O3 0.904098 0.104019 0.445809
O O4 0.862191 0.158030 0.327359
O O5 0.990574 0.672938 0.086667
O O6 0.750000 0.750000 0.000000
O O7 0.431016 0.678905 0.837323
O O8 0.500000 0.438795 0.250000
O O9 0.709554 0.406302 0.218801
O O10 0.074880 0.456084 0.425153
O O11 0.572482 0.493949 0.183584
O O12 0.500000 0.852490 0.250000
O O13 0.261090 0.469327 0.970172
O O14 0.000000 0.500000 0.000000
O O15 0.000000 0.550660 0.250000
O O16 0.913256 0.594990 0.330459
O O17 0.500000 0.634280 0.250000
#
# Coordination Sequence:
#
# PCOD9279627 Si02
#       7
#     8   8   8   8   8   8   8
#     4   9  20  40  64  89 119 158 202 254 305 363
#     4  10  21  40  62  86 121 160 196 244 307 374
#     4  10  22  38  56  83 120 158 202 250 303 357
#     4  10  21  39  62  87 117 155 199 249 303 362
#     4  10  21  36  55  82 117 157 200 251 297 350
#     4   9  19  38  62  87 118 160 207 253 307 360
#     4  10  21  37  61  90 119 154 201 251 302 364
#
# _framework density 21.457777
#
# number of rings (size 3 to 8) (size 9 to 14) (size 15 to 20)
#    0.000    2.286    0.000    3.857    0.000    9.714 
#    0.000    7.857    0.000    0.000    0.000    0.000 
#    0.000    0.000    0.000    0.000    0.000    0.000 
#
# Total GULP energy -156110.804698 kJ/mol
# GULP energy per Si atom -5575.385882 kJ/mol
# Density = 2.140894 g / cm^3
# Si number density = 21.457777 Si / 1000 Ang^3
#
#
#
# Elastic Constant Matrix: (Units=GPa)
#
#
# Indices 1 2 3 4 5 6 
#
# 1 79.6891 29.1879 24.5266 -0.0003 14.6703 -0.0001
# 2 29.1879 69.4670 15.7111 0.0008 12.5464 0.0000
# 3 24.5266 15.7111 76.8449 -0.0043 21.2672 -0.0020
# 4 -0.0003 0.0008 -0.0043 7.9682 0.0001 -3.9889
# 5 14.6703 12.5464 21.2672 0.0001 28.7690 0.0001
# 6 -0.0001 0.0000 -0.0020 -3.9889 0.0001 10.4621
#
#
#
# Elastic Compliance Matrix: (Units=1/GPa)
#
#
# Indices 1 2 3 4 5 6 
#
# 1 0.016143 -0.005443 -0.003040 -0.000001 -0.003611 -0.000001
# 2 -0.005443 0.017629 -0.000638 -0.000003 -0.004441 -0.000001
# 3 -0.003040 -0.000638 0.017108 0.000014 -0.010818 0.000009
# 4 -0.000001 -0.000003 0.000014 0.155103 -0.000009 0.059135
# 5 -0.003611 -0.004441 -0.010818 -0.000009 0.046535 -0.000006
# 6 -0.000001 -0.000001 0.000009 0.059135 -0.000006 0.118129
#
#
# Mechanical properties :
#
#
# Convention : Reuss Voigt Hill
#
# Bulk Modulus (GPa) = 30.63990 40.53912 35.58951
# Shear Modulus (GPa) = 12.50727 19.87822 16.19274
#
# Velocity S-wave (km/s) = 2.41691 3.04696 2.75004
# Velocity P-wave (km/s) = 4.70093 5.59573 5.16773
#
# Compressibility (1/GPa) = 0.03263718
#
# Stress axis : x y z
#
# Youngs Moduli (GPa) = 61.94719 56.72583 58.45196
#
# Poissons Ratio (x) = 0.30876 0.17771
# Poissons Ratio (y) = 0.33718 0.03729
# Poissons Ratio (z) = 0.18833 0.03619
#
# Static dielectric constant tensor:
#      x y z
#    x 1.716500 0.000000 0.036210 
#    y 0.000000 1.772660 0.000000 
#    z 0.036210 0.000000 1.860630 
# 
# From -- ./inp_files/234969.got.cif
#   From: 2010.05.17/outbox.cif.g08.bks.cpg/sg15_118_cif.got.tgz:234969.got - 2010.06.03 18:47:42.
