data_PCOD9279652
_publ_section_title
;
Structure prediction by ZEFSAII (Michael W. Deem and Ramdas Pophale) SiO2 
 PCOD9279652
Probable space group: C 2/C
;
_chemical_formula_sum "Si O2"
_cell_formula_units_Z 56
_cell_length_a 15.072439
_cell_length_b 19.420963
_cell_length_c 15.919538
_cell_angle_alpha 90.000000
_cell_angle_beta 39.367727
_cell_angle_gamma 90.000000
_cell_volume 2955.807520
_symmetry_space_group_name_H-M "C 2/C"
_symmetry_group_IT_number 15
_symmetry_cell_setting 'monoclinic'
loop_
_space_group_symop_operation_xyz
x,y,z
-x,y,1/2-z
-x,-y,-z
x,-y,1/2+z
1/2+x,1/2+y,z
1/2-x,1/2+y,1/2-z
1/2-x,1/2-y,-z
1/2+x,1/2-y,1/2+z
loop_
_atom_site_type_symbol
_atom_site_label
_atom_site_fract_x
_atom_site_fract_y
_atom_site_fract_z
Si Si1 0.000000 0.642694 0.250000
Si Si2 0.709695 0.871876 0.325384
Si Si3 0.000000 0.976644 0.250000
Si Si4 0.210412 0.449668 0.700453
Si Si5 0.969786 0.889059 0.434797
Si Si6 0.791160 0.522108 0.106977
Si Si7 0.133916 0.263815 0.516498
Si Si8 0.532052 0.914485 0.318519
O O1 0.127358 0.596253 0.192117
O O2 0.028267 0.689462 0.147608
O O3 0.863377 0.887855 0.176993
O O4 0.702624 0.808074 0.392530
O O5 0.599055 0.860513 0.332914
O O6 0.669753 0.941827 0.404830
O O7 0.945271 0.925538 0.362681
O O8 0.130664 0.019460 0.191842
O O9 0.373552 0.433682 0.566851
O O10 0.188072 0.441110 0.817511
O O11 0.149323 0.525336 0.726928
O O12 0.924090 0.809552 0.469697
O O13 0.895451 0.553052 0.962221
O O14 0.250000 0.250000 0.500000
O O15 0.500000 0.888276 0.250000
#
# Coordination Sequence:
#
# PCOD9279652 Si02
#       8
#     4   8   4   8   8   8   8   8
#     4  12  21  32  54  82 116 153 190 232 278 346
#     4  10  23  38  54  85 123 147 192 246 283 342
#     4  10  21  36  56  82 126 145 188 242 284 348
#     4  11  22  34  55  85 115 150 194 231 286 349
#     4  11  23  36  54  85 116 157 187 232 294 345
#     4  10  21  38  56  86 118 152 186 240 292 338
#     4  12  21  36  56  82 118 153 188 231 291 345
#     4  11  21  37  62  84 112 153 197 235 289 344
#
# _framework density 18.945753
#
# number of rings (size 3 to 8) (size 9 to 14) (size 15 to 20)
#    0.000    1.143    2.143    7.286    0.000    6.286 
#    0.000    0.000    0.000    0.857    1.857    0.000 
#    0.000    0.000    0.000    0.000    0.000    0.000 
#
# Total GULP energy -156239.824550 kJ/mol
# GULP energy per Si atom -5579.993734 kJ/mol
# Density = 1.890263 g / cm^3
# Si number density = 18.945753 Si / 1000 Ang^3
#
#
#
# Elastic Constant Matrix: (Units=GPa)
#
#
# Indices 1 2 3 4 5 6 
#
# 1 123.9928 15.0428 35.8284 0.0009 5.6048 -0.0004
# 2 15.0428 37.4231 30.4075 0.0010 -0.2909 -0.0005
# 3 35.8284 30.4075 96.4736 0.0014 -0.0932 -0.0008
# 4 0.0009 0.0010 0.0014 22.2489 -0.0011 0.6314
# 5 5.6048 -0.2909 -0.0932 -0.0011 25.4846 0.0005
# 6 -0.0004 -0.0005 -0.0008 0.6314 0.0005 20.5151
#
#
#
# Elastic Compliance Matrix: (Units=1/GPa)
#
#
# Indices 1 2 3 4 5 6 
#
# 1 0.009181 -0.001256 -0.003016 0.000000 -0.002045 0.000000
# 2 -0.001256 0.036096 -0.010910 -0.000001 0.000648 0.000000
# 3 -0.003016 -0.010910 0.014925 0.000000 0.000593 0.000000
# 4 0.000000 -0.000001 0.000000 0.044985 0.000002 -0.001385
# 5 -0.002045 0.000648 0.000593 0.000002 0.039699 -0.000001
# 6 0.000000 0.000000 0.000000 -0.001385 -0.000001 0.048787
#
#
# Mechanical properties :
#
#
# Convention : Reuss Voigt Hill
#
# Bulk Modulus (GPa) = 33.51373 46.71634 40.11503
# Shear Modulus (GPa) = 21.36903 25.42377 23.39640
#
# Velocity S-wave (km/s) = 3.36207 3.66720 3.51795
# Velocity P-wave (km/s) = 5.72705 6.53013 6.14173
#
# Compressibility (1/GPa) = 0.02983852
#
# Stress axis : x y z
#
# Youngs Moduli (GPa) = 108.91803 27.70373 67.00219
#
# Poissons Ratio (x) = 0.03479 0.20207
# Poissons Ratio (y) = 0.13680 0.73100
# Poissons Ratio (z) = 0.32848 0.30225
#
# Static dielectric constant tensor:
#      x y z
#    x 1.364260 -0.000060 0.498900 
#    y -0.000060 -0.338650 0.000110 
#    z 0.498900 0.000110 0.884010 
# 
# From -- ./inp_files/156200.got.cif
#   From: 2010.05.17/outbox.cif.g08.bks.cpg/sg15_79_cif.got.tgz:156200.got - 2010.06.03 18:47:42.
