data_PCOD9279949
_publ_section_title
;
Structure prediction by ZEFSAII (Michael W. Deem and Ramdas Pophale) SiO2 
 PCOD9279949
Probable space group: C 2/C
;
_chemical_formula_sum "Si O2"
_cell_formula_units_Z 44
_cell_length_a 21.962066
_cell_length_b 14.986793
_cell_length_c 5.662764
_cell_angle_alpha 90.000000
_cell_angle_beta 62.908763
_cell_angle_gamma 90.000000
_cell_volume 1659.350704
_symmetry_space_group_name_H-M "C 2/C"
_symmetry_group_IT_number 15
_symmetry_cell_setting 'monoclinic'
loop_
_space_group_symop_operation_xyz
x,y,z
-x,y,1/2-z
-x,-y,-z
x,-y,1/2+z
1/2+x,1/2+y,z
1/2-x,1/2+y,1/2-z
1/2-x,1/2-y,-z
1/2+x,1/2-y,1/2+z
loop_
_atom_site_type_symbol
_atom_site_label
_atom_site_fract_x
_atom_site_fract_y
_atom_site_fract_z
Si Si1 0.572275 0.901670 0.243220
Si Si2 0.354468 0.456108 0.006193
Si Si3 0.783186 0.402376 0.425728
Si Si4 0.799794 0.779161 0.618756
Si Si5 0.000000 0.294335 0.750000
Si Si6 0.915041 0.220242 0.553259
O O1 0.500000 0.935559 0.250000
O O2 0.645408 0.951521 0.141928
O O3 0.552930 0.864114 0.536428
O O4 0.593919 0.818693 0.036882
O O5 0.374795 0.495062 0.226859
O O6 0.271571 0.445664 0.154574
O O7 0.388830 0.358051 0.936379
O O8 0.803038 0.304642 0.286572
O O9 0.732886 0.368855 0.722610
O O10 0.750000 0.750000 0.500000
O O11 0.871450 0.792400 0.368807
O O12 0.988722 0.230298 0.542814
#
# Coordination Sequence:
#
# PCOD9279949 Si02
#       6
#     8   8   8   8   4   8
#     4  10  21  36  62 100 124 158 194 263 344 393
#     4  12  28  43  63  92 127 180 227 260 300 372
#     4  11  21  36  62  92 130 157 207 267 332 376
#     4  11  18  32  64  99 116 156 195 273 349 379
#     4  10  22  36  62  96 130 160 198 264 334 398
#     4  11  21  39  63  91 135 157 211 264 324 381
#
# _framework density 26.516397000000001
#
# number of rings (size 3 to 8) (size 9 to 14) (size 15 to 20)
#    0.000    1.091    5.455    2.182    2.545    0.000 
#    0.000    0.909    0.000    1.091    0.000    0.000 
#    0.000    0.000    0.000    0.000    0.000    0.000 
#
# Total GULP energy -122822.824547 kJ/mol
# GULP energy per Si atom -5582.855661 kJ/mol
# Density = 2.645604 g / cm^3
# Si number density = 26.516397 Si / 1000 Ang^3
#
#
#
# Elastic Constant Matrix: (Units=GPa)
#
#
# Indices 1 2 3 4 5 6 
#
# 1 105.5948 17.9751 1.1014 0.0000 15.5531 0.0000
# 2 17.9751 87.7521 18.2650 0.0000 9.7026 0.0000
# 3 1.1014 18.2650 106.3102 0.0000 -3.6669 0.0000
# 4 0.0000 0.0000 0.0000 25.1941 0.0000 18.2866
# 5 15.5531 9.7026 -3.6669 0.0000 50.4274 0.0000
# 6 0.0000 0.0000 0.0000 18.2866 0.0000 36.4512
#
#
#
# Elastic Compliance Matrix: (Units=1/GPa)
#
#
# Indices 1 2 3 4 5 6 
#
# 1 0.010186 -0.001801 0.000108 0.000000 -0.002787 0.000000
# 2 -0.001801 0.012441 -0.002188 0.000000 -0.001997 0.000000
# 3 0.000108 -0.002188 0.009819 0.000000 0.001102 0.000000
# 4 0.000000 0.000000 0.000000 0.062421 0.000000 -0.031315
# 5 -0.002787 -0.001997 0.001102 0.000000 0.021155 0.000000
# 6 0.000000 0.000000 0.000000 -0.031315 0.000000 0.043144
#
#
# Mechanical properties :
#
#
# Convention : Reuss Voigt Hill
#
# Bulk Modulus (GPa) = 40.51092 41.59332 41.05212
# Shear Modulus (GPa) = 28.54612 39.90225 34.22418
#
# Velocity S-wave (km/s) = 3.28464 3.88340 3.59650
# Velocity P-wave (km/s) = 5.44940 5.98562 5.72379
#
# Compressibility (1/GPa) = 0.02468470
#
# Stress axis : x y z
#
# Youngs Moduli (GPa) = 98.17273 80.38074 101.84152
#
# Poissons Ratio (x) = 0.14474 -0.01097
# Poissons Ratio (y) = 0.17678 0.22280
# Poissons Ratio (z) = -0.01057 0.17585
#
# Static dielectric constant tensor:
#      x y z
#    x 2.141760 0.000000 0.141620 
#    y 0.000000 2.582140 0.000000 
#    z 0.141620 0.000000 1.906930 
# 
# From -- ./inp_files/15400.got.cif
#   From: 2010.05.17/outbox.cif.g08.bks.cpg/sg15_8_cif.got.tgz:15400.got - 2010.06.03 18:47:42.
