data_PCOD9279348
_publ_section_title
;
Structure prediction by ZEFSAII (Michael W. Deem and Ramdas Pophale) SiO2 
 PCOD9279348
Probable space group: C 2/C
;
_chemical_formula_sum "Si O2"
_cell_formula_units_Z 56
_cell_length_a 21.717656
_cell_length_b 20.490139
_cell_length_c 10.479280
_cell_angle_alpha 90.000000
_cell_angle_beta 148.754863
_cell_angle_gamma 90.000000
_cell_volume 2418.834359
_symmetry_space_group_name_H-M "C 2/C"
_symmetry_group_IT_number 15
_symmetry_cell_setting 'monoclinic'
loop_
_space_group_symop_operation_xyz
x,y,z
-x,y,1/2-z
-x,-y,-z
x,-y,1/2+z
1/2+x,1/2+y,z
1/2-x,1/2+y,1/2-z
1/2-x,1/2-y,-z
1/2+x,1/2-y,1/2+z
loop_
_atom_site_type_symbol
_atom_site_label
_atom_site_fract_x
_atom_site_fract_y
_atom_site_fract_z
Si Si1 0.322120 0.597518 0.706728
Si Si2 0.180286 0.230848 0.651890
Si Si3 0.605987 0.973799 0.841147
Si Si4 0.913664 0.252524 0.279472
Si Si5 0.444781 0.632522 0.508416
Si Si6 0.230242 0.624616 0.267913
Si Si7 0.978873 0.396820 0.410607
O O1 0.288056 0.664513 0.719577
O O2 0.237672 0.543619 0.622661
O O3 0.464859 0.598641 0.933217
O O4 0.277434 0.594061 0.481595
O O5 0.176906 0.229245 0.491555
O O6 0.245245 0.296927 0.809726
O O7 0.045084 0.243318 0.454081
O O8 0.500000 0.985888 0.750000
O O9 0.552668 0.911639 0.669906
O O10 0.601851 0.039529 0.750193
O O11 0.920619 0.204903 0.411848
O O12 0.907284 0.329835 0.289956
O O13 0.500000 0.634091 0.750000
O O14 0.314328 0.603157 0.301385
O O15 0.090530 0.610638 0.009201
#
# Coordination Sequence:
#
# PCOD9279348 Si02
#       7
#     8   8   8   8   8   8   8
#     4   9  18  34  51  79 116 148 197 241 283 344
#     4   9  17  29  49  77 112 154 180 235 296 340
#     4  10  21  35  58  79 107 157 198 246 279 333
#     4   9  18  31  51  80 116 151 184 238 294 348
#     4   9  18  32  53  83 119 155 185 227 297 354
#     4   9  17  30  53  80 115 152 184 236 289 356
#     4   9  20  36  53  85 114 149 200 237 286 334
#
# _framework density 23.151648000000002
#
# number of rings (size 3 to 8) (size 9 to 14) (size 15 to 20)
#    0.000    2.857    0.000    0.429    4.000    5.714 
#    0.000    0.000    0.000    0.857    0.000    0.000 
#    0.000    0.000    0.000    0.000    0.000    0.000 
#
# Total GULP energy -155944.048840 kJ/mol
# GULP energy per Si atom -5569.430316 kJ/mol
# Density = 2.309895 g / cm^3
# Si number density = 23.151648 Si / 1000 Ang^3
#
#
#
# Elastic Constant Matrix: (Units=GPa)
#
#
# Indices 1 2 3 4 5 6 
#
# 1 58.7326 25.9318 7.6321 0.0000 4.7984 0.0000
# 2 25.9318 89.7359 26.2345 0.0000 17.6577 0.0000
# 3 7.6321 26.2345 49.0621 0.0000 12.8214 0.0000
# 4 0.0000 0.0000 0.0000 33.1146 0.0000 -4.5628
# 5 4.7984 17.6577 12.8214 0.0000 23.5034 0.0000
# 6 0.0000 0.0000 0.0000 -4.5628 0.0000 5.8115
#
#
#
# Elastic Compliance Matrix: (Units=1/GPa)
#
#
# Indices 1 2 3 4 5 6 
#
# 1 0.019518 -0.005680 -0.000085 0.000000 0.000329 0.000000
# 2 -0.005680 0.015956 -0.005620 0.000000 -0.007762 0.000000
# 3 -0.000085 -0.005620 0.025999 0.000000 -0.009943 0.000000
# 4 0.000000 0.000000 0.000000 0.033861 0.000000 0.026585
# 5 0.000329 -0.007762 -0.009943 0.000000 0.053735 0.000000
# 6 0.000000 0.000000 0.000000 0.026585 0.000000 0.192944
#
#
# Mechanical properties :
#
#
# Convention : Reuss Voigt Hill
#
# Bulk Modulus (GPa) = 25.83766 35.23638 30.53702
# Shear Modulus (GPa) = 13.23853 21.66806 17.45329
#
# Velocity S-wave (km/s) = 2.39387 3.06260 2.74864
# Velocity P-wave (km/s) = 4.33880 5.26867 4.82618
#
# Compressibility (1/GPa) = 0.03870319
#
# Stress axis : x y z
#
# Youngs Moduli (GPa) = 51.23356 62.67395 38.46295
#
# Poissons Ratio (x) = 0.35601 0.00326
# Poissons Ratio (y) = 0.29102 0.21615
# Poissons Ratio (z) = 0.00435 0.35221
#
# Static dielectric constant tensor:
#      x y z
#    x 2.041740 0.000000 0.065840 
#    y 0.000000 1.853830 0.000000 
#    z 0.065840 0.000000 1.934820 
# 
# From -- ./inp_files/119857.got.cif
#   From: 2010.05.17/outbox.cif.g08.bks.cpg/sg15_60_cif.got.tgz:119857.got - 2010.06.03 18:47:42.
