data_PCOD9279786
_publ_section_title
;
Structure prediction by ZEFSAII (Michael W. Deem and Ramdas Pophale) SiO2 
 PCOD9279786
Probable space group: C 2/C
;
_chemical_formula_sum "Si O2"
_cell_formula_units_Z 56
_cell_length_a 23.354095
_cell_length_b 9.419519
_cell_length_c 16.764689
_cell_angle_alpha 90.000000
_cell_angle_beta 44.292822
_cell_angle_gamma 90.000000
_cell_volume 2575.403282
_symmetry_space_group_name_H-M "C 2/C"
_symmetry_group_IT_number 15
_symmetry_cell_setting 'monoclinic'
loop_
_space_group_symop_operation_xyz
x,y,z
-x,y,1/2-z
-x,-y,-z
x,-y,1/2+z
1/2+x,1/2+y,z
1/2-x,1/2+y,1/2-z
1/2-x,1/2-y,-z
1/2+x,1/2-y,1/2+z
loop_
_atom_site_type_symbol
_atom_site_label
_atom_site_fract_x
_atom_site_fract_y
_atom_site_fract_z
Si Si1 0.012357 0.996772 0.334950
Si Si2 0.190331 0.048120 0.220099
Si Si3 0.270903 0.422750 0.561394
Si Si4 0.839420 0.535119 0.956691
Si Si5 0.763927 0.760301 0.248177
Si Si6 0.121332 0.199052 0.002415
Si Si7 0.075560 0.739871 0.112980
O O1 0.104330 0.998264 0.272172
O O2 0.000000 0.007339 0.250000
O O3 0.965666 0.127170 0.420737
O O4 0.966026 0.851654 0.405535
O O5 0.190837 0.196749 0.266763
O O6 0.228864 0.925497 0.237727
O O7 0.252170 0.060407 0.085292
O O8 0.188202 0.469002 0.599095
O O9 0.244330 0.325963 0.662040
O O10 0.317488 0.568885 0.537203
O O11 0.340555 0.326751 0.445982
O O12 0.881654 0.686516 0.923557
O O13 0.892415 0.412491 0.945940
O O14 0.843026 0.730673 0.113302
O O15 0.000000 0.715267 0.250000
#
# Coordination Sequence:
#
# PCOD9279786 Si02
#       7
#     8   8   8   8   8   8   8
#     4  10  23  43  68  97 133 177 221 270 330 389
#     4  11  23  44  68  94 135 174 226 265 329 401
#     4  11  21  39  65  95 129 175 226 265 328 386
#     4  11  22  38  68  95 128 170 224 284 306 388
#     4  11  23  40  64 100 128 177 218 269 324 396
#     4  10  23  42  61  98 133 170 220 264 341 391
#     4  10  21  36  58  98 130 161 215 271 332 368
#
# _framework density 21.744167999999998
#
# number of rings (size 3 to 8) (size 9 to 14) (size 15 to 20)
#    0.000    1.429    2.857    3.429    4.000    2.286 
#    0.000    1.429    0.000    3.429    0.000    0.000 
#    0.000    0.000    0.000    0.000    0.000    0.000 
#
# Total GULP energy -156095.673999 kJ/mol
# GULP energy per Si atom -5574.845500 kJ/mol
# Density = 2.169468 g / cm^3
# Si number density = 21.744168 Si / 1000 Ang^3
#
#
#
# Elastic Constant Matrix: (Units=GPa)
#
#
# Indices 1 2 3 4 5 6 
#
# 1 45.4416 30.3740 15.2626 0.0000 -11.2475 0.0001
# 2 30.3740 117.9261 19.1592 0.0000 -19.0570 0.0000
# 3 15.2626 19.1592 59.8379 0.0000 -3.6100 0.0001
# 4 0.0000 0.0000 0.0000 30.1039 0.0000 -1.5557
# 5 -11.2475 -19.0570 -3.6100 0.0000 25.0105 -0.0001
# 6 0.0001 0.0000 0.0001 -1.5557 -0.0001 10.3181
#
#
#
# Elastic Compliance Matrix: (Units=1/GPa)
#
#
# Indices 1 2 3 4 5 6 
#
# 1 0.029447 -0.005371 -0.005285 0.000000 0.008388 0.000000
# 2 -0.005371 0.011094 -0.001834 0.000000 0.005773 0.000000
# 3 -0.005285 -0.001834 0.018581 0.000000 -0.001092 0.000000
# 4 0.000000 0.000000 0.000000 0.033479 0.000000 0.005048
# 5 0.008388 0.005773 -0.001092 0.000000 0.047997 0.000000
# 6 0.000000 0.000000 0.000000 0.005048 0.000000 0.097679
#
#
# Mechanical properties :
#
#
# Convention : Reuss Voigt Hill
#
# Bulk Modulus (GPa) = 29.28873 39.19968 34.24421
# Shear Modulus (GPa) = 18.20579 23.64715 20.92647
#
# Velocity S-wave (km/s) = 2.89671 3.30133 3.10561
# Velocity P-wave (km/s) = 4.96858 5.70951 5.35188
#
# Compressibility (1/GPa) = 0.03414283
#
# Stress axis : x y z
#
# Youngs Moduli (GPa) = 33.95892 90.13787 53.81765
#
# Poissons Ratio (x) = 0.48409 0.28445
# Poissons Ratio (y) = 0.18238 0.09870
# Poissons Ratio (z) = 0.17949 0.16532
#
# Static dielectric constant tensor:
#      x y z
#    x 1.831970 0.000000 0.049740 
#    y 0.000000 1.835820 0.000000 
#    z 0.049740 0.000000 1.842530 
# 
# From -- ./inp_files/222029.got.cif
#   From: 2010.05.17/outbox.cif.g08.bks.cpg/sg15_112_cif.got.tgz:222029.got - 2010.06.03 18:47:42.
