data_PCOD9279760
_publ_section_title
;
Structure prediction by ZEFSAII (Michael W. Deem and Ramdas Pophale) SiO2 
 PCOD9279760
Probable space group: C 2/C
;
_chemical_formula_sum "Si O2"
_cell_formula_units_Z 56
_cell_length_a 14.276681
_cell_length_b 27.120523
_cell_length_c 8.659821
_cell_angle_alpha 90.000000
_cell_angle_beta 119.948057
_cell_angle_gamma 90.000000
_cell_volume 2905.306395
_symmetry_space_group_name_H-M "C 2/C"
_symmetry_group_IT_number 15
_symmetry_cell_setting 'monoclinic'
loop_
_space_group_symop_operation_xyz
x,y,z
-x,y,1/2-z
-x,-y,-z
x,-y,1/2+z
1/2+x,1/2+y,z
1/2-x,1/2+y,1/2-z
1/2-x,1/2-y,-z
1/2+x,1/2-y,1/2+z
loop_
_atom_site_type_symbol
_atom_site_label
_atom_site_fract_x
_atom_site_fract_y
_atom_site_fract_z
Si Si1 0.214182 0.939713 0.150091
Si Si2 0.499682 0.198601 0.569384
Si Si3 0.740388 0.453357 0.807988
Si Si4 0.892470 0.619501 0.261178
Si Si5 0.952858 0.797625 0.373668
Si Si6 0.781633 0.342110 0.374602
Si Si7 0.980962 0.896126 0.915659
O O1 0.275365 0.893027 0.273040
O O2 0.237173 0.989462 0.261372
O O3 0.244677 0.946449 0.995912
O O4 0.085968 0.927430 0.052643
O O5 0.500000 0.188064 0.750000
O O6 0.426766 0.160037 0.415080
O O7 0.460324 0.253627 0.501132
O O8 0.620346 0.191099 0.604369
O O9 0.838269 0.426307 0.802161
O O10 0.628913 0.426956 0.661417
O O11 0.000000 0.607110 0.250000
O O12 0.807589 0.643129 0.071429
O O13 0.830949 0.814943 0.243886
O O14 0.000000 0.779463 0.250000
O O15 0.017523 0.845685 0.486466
O O16 0.000000 0.884220 0.750000
#
# Coordination Sequence:
#
# PCOD9279760 Si02
#       7
#     8   8   8   8   8   8   8
#     4  10  21  36  58  87 116 152 188 230 288 340
#     4  11  24  41  60  84 114 150 190 234 284 336
#     4  11  20  36  59  84 117 153 191 235 282 333
#     4  10  22  40  60  83 113 149 192 237 280 330
#     4  11  22  36  60  88 114 151 189 229 284 339
#     4  10  22  41  59  83 118 147 188 238 281 335
#     4   9  20  36  56  86 120 150 188 233 281 340
#
# _framework density 19.275075000000001
#
# number of rings (size 3 to 8) (size 9 to 14) (size 15 to 20)
#    0.000    1.714    0.000    4.714    0.000    5.143 
#    0.000    7.857    0.000    0.000    0.000    0.000 
#    0.000    0.000    0.000    0.000    0.000    0.000 
#
# Total GULP energy -156525.278025 kJ/mol
# GULP energy per Si atom -5590.188501 kJ/mol
# Density = 1.923120 g / cm^3
# Si number density = 19.275075 Si / 1000 Ang^3
#
#
#
# Elastic Constant Matrix: (Units=GPa)
#
#
# Indices 1 2 3 4 5 6 
#
# 1 49.2348 41.5240 34.1395 0.0000 -2.9192 0.0000
# 2 41.5240 83.2697 55.0736 0.0000 4.8256 0.0000
# 3 34.1395 55.0736 116.4126 0.0000 -2.9734 0.0000
# 4 0.0000 0.0000 0.0000 24.5640 0.0000 -8.6530
# 5 -2.9192 4.8256 -2.9734 0.0000 28.9687 0.0000
# 6 0.0000 0.0000 0.0000 -8.6530 0.0000 15.2683
#
#
#
# Elastic Compliance Matrix: (Units=1/GPa)
#
#
# Indices 1 2 3 4 5 6 
#
# 1 0.036832 -0.017018 -0.002590 0.000000 0.006281 0.000000
# 2 -0.017018 0.025761 -0.007369 0.000000 -0.006763 0.000000
# 3 -0.002590 -0.007369 0.012895 0.000000 0.002290 0.000000
# 4 0.000000 0.000000 0.000000 0.050864 0.000000 0.028826
# 5 0.006281 -0.006763 0.002290 0.000000 0.036515 0.000000
# 6 0.000000 0.000000 0.000000 0.028826 0.000000 0.081832
#
#
# Mechanical properties :
#
#
# Convention : Reuss Voigt Hill
#
# Bulk Modulus (GPa) = 46.44005 56.71015 51.57510
# Shear Modulus (GPa) = 16.34891 21.63886 18.99389
#
# Velocity S-wave (km/s) = 2.91553 3.35421 3.14253
# Velocity P-wave (km/s) = 5.95646 6.66981 6.32320
#
# Compressibility (1/GPa) = 0.02153314
#
# Stress axis : x y z
#
# Youngs Moduli (GPa) = 27.15046 38.81771 77.55171
#
# Poissons Ratio (x) = 0.66059 0.20086
# Poissons Ratio (y) = 0.46204 0.57152
# Poissons Ratio (z) = 0.07032 0.28607
#
# Static dielectric constant tensor:
#      x y z
#    x 1.655820 0.000000 -0.001150 
#    y 0.000000 1.630250 0.000000 
#    z -0.001150 0.000000 1.662860 
# 
# From -- ./inp_files/42525.got.cif
#   From: 2010.05.17/outbox.cif.g08.bks.cpg/sg15_22_cif.got.tgz:42525.got - 2010.06.03 18:47:42.
