data_PCOD9279277
_publ_section_title
;
Structure prediction by ZEFSAII (Michael W. Deem and Ramdas Pophale) SiO2 
 PCOD9279277
Probable space group: C 2/C
;
_chemical_formula_sum "Si O2"
_cell_formula_units_Z 56
_cell_length_a 18.955545
_cell_length_b 19.481154
_cell_length_c 14.740187
_cell_angle_alpha 90.000000
_cell_angle_beta 30.869480
_cell_angle_gamma 90.000000
_cell_volume 2792.817217
_symmetry_space_group_name_H-M "C 2/C"
_symmetry_group_IT_number 15
_symmetry_cell_setting 'monoclinic'
loop_
_space_group_symop_operation_xyz
x,y,z
-x,y,1/2-z
-x,-y,-z
x,-y,1/2+z
1/2+x,1/2+y,z
1/2-x,1/2+y,1/2-z
1/2-x,1/2-y,-z
1/2+x,1/2-y,1/2+z
loop_
_atom_site_type_symbol
_atom_site_label
_atom_site_fract_x
_atom_site_fract_y
_atom_site_fract_z
Si Si1 0.044533 0.388215 0.601308
Si Si2 0.654384 0.017506 0.712382
Si Si3 0.443161 0.532043 0.969249
Si Si4 0.988632 0.653225 0.551311
Si Si5 0.234305 0.997845 0.101570
Si Si6 0.296641 0.626526 0.243054
Si Si7 0.111478 0.771444 0.704353
O O1 0.055785 0.337387 0.504233
O O2 0.185491 0.429384 0.459969
O O3 0.000000 0.361978 0.750000
O O4 0.934079 0.447096 0.691888
O O5 0.571155 0.079061 0.850657
O O6 0.688427 0.030893 0.569432
O O7 0.804309 0.005021 0.590231
O O8 0.575388 0.521323 0.759655
O O9 0.500000 0.500000 0.000000
O O10 0.397112 0.608836 0.048644
O O11 0.933580 0.707739 0.683814
O O12 0.153389 0.658965 0.372152
O O13 0.245397 0.052923 0.168807
O O14 0.364763 0.667198 0.250715
O O15 0.250000 0.750000 0.500000
O O16 0.000000 0.787894 0.750000
#
# Coordination Sequence:
#
# PCOD9279277 Si02
#       7
#     8   8   8   8   8   8   8
#     4  10  21  37  65  97 118 158 212 260 315 381
#     4  11  20  34  64  91 122 162 201 250 320 376
#     4  10  21  35  55  87 123 160 200 250 313 369
#     4  12  22  40  65  86 126 169 211 260 305 373
#     4  10  21  35  58  95 128 154 199 257 316 377
#     4  11  22  40  60  85 126 167 208 252 313 365
#     4  12  27  42  62  93 125 170 216 253 306 377
#
# _framework density 20.051438000000001
#
# number of rings (size 3 to 8) (size 9 to 14) (size 15 to 20)
#    0.000    1.143    4.286    3.429    0.000    5.714 
#    0.000    0.000    0.000    2.571    0.000    0.000 
#    0.000    0.000    0.000    0.000    0.000    0.000 
#
# Total GULP energy -156260.385785 kJ/mol
# GULP energy per Si atom -5580.728064 kJ/mol
# Density = 2.000580 g / cm^3
# Si number density = 20.051438 Si / 1000 Ang^3
#
#
#
# Elastic Constant Matrix: (Units=GPa)
#
#
# Indices 1 2 3 4 5 6 
#
# 1 100.6675 7.6963 16.7022 0.0019 -7.1740 -0.0010
# 2 7.6963 20.0595 9.3689 0.0012 4.4730 -0.0008
# 3 16.7022 9.3689 84.7825 0.0028 -11.1151 -0.0018
# 4 0.0019 0.0012 0.0028 16.8071 -0.0012 8.0590
# 5 -7.1740 4.4730 -11.1151 -0.0012 46.0081 0.0007
# 6 -0.0010 -0.0008 -0.0018 8.0590 0.0007 32.6655
#
#
#
# Elastic Compliance Matrix: (Units=1/GPa)
#
#
# Indices 1 2 3 4 5 6 
#
# 1 0.010580 -0.003752 -0.001451 -0.000001 0.001664 0.000000
# 2 -0.003752 0.055992 -0.006443 -0.000004 -0.007585 0.000002
# 3 -0.001451 -0.006443 0.013265 -0.000002 0.003605 0.000001
# 4 -0.000001 -0.000004 -0.000002 0.067482 0.000002 -0.016649
# 5 0.001664 -0.007585 0.003605 0.000002 0.023603 -0.000001
# 6 0.000000 0.000002 0.000001 -0.016649 -0.000001 0.034721
#
#
# Mechanical properties :
#
#
# Convention : Reuss Voigt Hill
#
# Bulk Modulus (GPa) = 17.68525 30.33825 24.01175
# Shear Modulus (GPa) = 20.17888 30.54558 25.36223
#
# Velocity S-wave (km/s) = 3.17575 3.90726 3.56034
# Velocity P-wave (km/s) = 4.72084 5.95975 5.37610
#
# Compressibility (1/GPa) = 0.05654431
#
# Stress axis : x y z
#
# Youngs Moduli (GPa) = 94.51823 17.85975 75.38429
#
# Poissons Ratio (x) = 0.06702 0.10942
# Poissons Ratio (y) = 0.35467 0.48567
# Poissons Ratio (z) = 0.13719 0.11506
#
# Static dielectric constant tensor:
#      x y z
#    x 1.735110 0.000000 0.029620 
#    y 0.000000 1.719750 0.000000 
#    z 0.029620 0.000000 1.813550 
# 
# From -- ./inp_files/163758.got.cif
#   From: 2010.05.17/outbox.cif.g08.bks.cpg/sg15_82_cif.got.tgz:163758.got - 2010.06.03 18:47:42.
