data_PCOD9279410
_publ_section_title
;
Structure prediction by ZEFSAII (Michael W. Deem and Ramdas Pophale) SiO2 
 PCOD9279410
Probable space group: C 2/C
;
_chemical_formula_sum "Si O2"
_cell_formula_units_Z 44
_cell_length_a 10.593728
_cell_length_b 23.840297
_cell_length_c 14.010365
_cell_angle_alpha 90.000000
_cell_angle_beta 145.632907
_cell_angle_gamma 90.000000
_cell_volume 1997.415907
_symmetry_space_group_name_H-M "C 2/C"
_symmetry_group_IT_number 15
_symmetry_cell_setting 'monoclinic'
loop_
_space_group_symop_operation_xyz
x,y,z
-x,y,1/2-z
-x,-y,-z
x,-y,1/2+z
1/2+x,1/2+y,z
1/2-x,1/2+y,1/2-z
1/2-x,1/2-y,-z
1/2+x,1/2-y,1/2+z
loop_
_atom_site_type_symbol
_atom_site_label
_atom_site_fract_x
_atom_site_fract_y
_atom_site_fract_z
Si Si1 0.501598 0.998471 0.643844
Si Si2 0.500000 0.351637 0.250000
Si Si3 0.083974 0.691324 0.572519
Si Si4 0.172699 0.040992 0.789258
Si Si5 0.755438 0.707330 0.621557
Si Si6 0.757739 0.885359 0.554014
O O1 0.500000 0.976616 0.750000
O O2 0.747268 0.012187 0.756359
O O3 0.368367 0.058045 0.558033
O O4 0.386403 0.958200 0.493711
O O5 0.727122 0.315645 0.390858
O O6 0.445107 0.398892 0.296830
O O7 0.212106 0.684550 0.752599
O O8 0.947243 0.749157 0.496457
O O9 0.896228 0.643598 0.460706
O O10 0.000000 0.009308 0.750000
O O11 0.728748 0.658802 0.526016
O O12 0.000000 0.735078 0.750000
O O13 0.000000 0.892387 0.750000
#
# Coordination Sequence:
#
# PCOD9279410 Si02
#       6
#     8   4   8   8   8   8
#     4  11  21  37  65  92 121 161 207 253 309 363
#     4  10  22  40  62  74 126 166 202 238 308 366
#     4  11  20  38  58  84 117 163 191 249 306 361
#     4   9  21  41  57  87 123 163 201 251 305 365
#     4  10  21  35  59  89 120 147 204 255 303 353
#     4  11  20  34  59  92 120 149 198 253 304 353
#
# _framework density 22.028462000000001
#
# number of rings (size 3 to 8) (size 9 to 14) (size 15 to 20)
#    0.545    1.091    1.818    6.000    0.000    1.455 
#    0.000    3.636    0.000    0.000    0.000    0.000 
#    0.000    0.000    0.000    0.000    0.000    0.000 
#
# Total GULP energy -122495.182758 kJ/mol
# GULP energy per Si atom -5567.962853 kJ/mol
# Density = 2.197832 g / cm^3
# Si number density = 22.028462 Si / 1000 Ang^3
#
#
#
# Elastic Constant Matrix: (Units=GPa)
#
#
# Indices 1 2 3 4 5 6 
#
# 1 142.3497 36.9550 40.6234 -0.0001 23.5253 -0.0001
# 2 36.9550 88.3287 24.7627 0.0000 25.2461 0.0000
# 3 40.6234 24.7627 59.6302 -0.0002 18.2886 -0.0002
# 4 -0.0001 0.0000 -0.0002 -83.5678 -0.0001 -42.8729
# 5 23.5253 25.2461 18.2886 -0.0001 33.0144 -0.0001
# 6 -0.0001 0.0000 -0.0002 -42.8729 -0.0001 4.6116
#
#
#
# Elastic Compliance Matrix: (Units=1/GPa)
#
#
# Indices 1 2 3 4 5 6 
#
# 1 0.009286 -0.001805 -0.004783 0.000000 -0.002587 0.000000
# 2 -0.001805 0.015349 -0.002336 0.000000 -0.009157 0.000000
# 3 -0.004783 -0.002336 0.023377 0.000000 -0.007755 0.000000
# 4 0.000000 0.000000 0.000000 -0.002074 0.000000 -0.019282
# 5 -0.002587 -0.009157 -0.007755 0.000000 0.043432 0.000000
# 6 0.000000 0.000000 0.000000 -0.019282 0.000000 0.037584
#
#
# Mechanical properties :
#
#
# Convention : Reuss Voigt Hill
#
# Bulk Modulus (GPa) = 33.15182 54.99897 44.07540
# Shear Modulus (GPa) = 32.28798 3.34281 17.81540
#
# Velocity S-wave (km/s) = 3.83265 1.23320 2.84693
# Velocity P-wave (km/s) = 5.88794 5.20088 5.55504
#
# Compressibility (1/GPa) = 0.03016426
#
# Stress axis : x y z
#
# Youngs Moduli (GPa) = 107.68811 65.15286 42.77673
#
# Poissons Ratio (x) = 0.11758 0.20461
# Poissons Ratio (y) = 0.19434 0.09992
# Poissons Ratio (z) = 0.51510 0.15219
#
# Static dielectric constant tensor:
#      x y z
#    x 1.910810 0.000000 0.073350 
#    y 0.000000 1.934420 0.000000 
#    z 0.073350 0.000000 1.859760 
# 
# From -- ./inp_files/148620.got.cif
#   From: 2010.05.17/outbox.cif.g08.bks.cpg/sg15_75_cif.got.tgz:148620.got - 2010.06.03 18:47:42.
