data_PCOD9279799
_publ_section_title
;
Structure prediction by ZEFSAII (Michael W. Deem and Ramdas Pophale) SiO2 
 PCOD9279799
Probable space group: C 2/C
;
_chemical_formula_sum "Si O2"
_cell_formula_units_Z 48
_cell_length_a 5.249879
_cell_length_b 32.727234
_cell_length_c 15.842967
_cell_angle_alpha 90.000000
_cell_angle_beta 70.648237
_cell_angle_gamma 90.000000
_cell_volume 2568.253707
_symmetry_space_group_name_H-M "C 2/C"
_symmetry_group_IT_number 15
_symmetry_cell_setting 'monoclinic'
loop_
_space_group_symop_operation_xyz
x,y,z
-x,y,1/2-z
-x,-y,-z
x,-y,1/2+z
1/2+x,1/2+y,z
1/2-x,1/2+y,1/2-z
1/2-x,1/2-y,-z
1/2+x,1/2-y,1/2+z
loop_
_atom_site_type_symbol
_atom_site_label
_atom_site_fract_x
_atom_site_fract_y
_atom_site_fract_z
Si Si1 0.772568 0.202364 0.977439
Si Si2 0.168323 0.658708 0.581673
Si Si3 0.500000 0.098795 0.750000
Si Si4 0.404592 0.852031 0.845402
Si Si5 0.811054 0.008701 0.438946
Si Si6 0.000000 0.958387 0.250000
Si Si7 0.847721 0.104526 0.402277
O O1 0.573886 0.186974 0.925616
O O2 0.074898 0.186976 0.925614
O O3 0.750000 0.250000 0.000000
O O4 0.677720 0.178866 0.072293
O O5 0.084316 0.628959 0.665680
O O6 0.253188 0.628230 0.496817
O O7 0.250980 0.070066 0.750001
O O8 0.500000 0.830229 0.750000
O O9 0.644147 0.880191 0.853423
O O10 0.149003 0.880191 0.853419
O O11 0.834342 0.056470 0.415657
O O12 0.500000 0.000000 0.500000
O O13 0.906059 0.984067 0.343939
O O14 0.000000 0.000000 0.500000
#
# Coordination Sequence:
#
# PCOD9279799 Si02
#       7
#     8   8   4   8   8   4   8
#     4  10  21  40  62  89 126 151 199 247 309 365
#     4  10  21  39  64  88 116 171 195 250 306 361
#     4  12  24  44  64  90 129 160 231 252 304 390
#     4  10  21  36  59  87 114 159 192 240 296 356
#     4  12  25  42  62  92 127 166 213 267 328 366
#     4  12  26  40  66  94 129 172 213 282 318 368
#     4  10  21  38  60  82 121 154 205 241 298 370
#
# _framework density 18.689744000000001
#
# number of rings (size 3 to 8) (size 9 to 14) (size 15 to 20)
#    0.000    1.333    0.000    6.000    2.333    2.667 
#    3.000    0.000    0.000    0.000    0.000    0.000 
#    0.000    0.000    0.000    0.000    0.000    0.000 
#
# Total GULP energy -134064.538532 kJ/mol
# GULP energy per Si atom -5586.022439 kJ/mol
# Density = 1.864721 g / cm^3
# Si number density = 18.689744 Si / 1000 Ang^3
#
#
#
# Elastic Constant Matrix: (Units=GPa)
#
#
# Indices 1 2 3 4 5 6 
#
# 1 202.9983 85.3090 64.7666 0.0000 -4.6705 0.0000
# 2 85.3090 159.5530 45.3954 0.0000 -1.9921 0.0000
# 3 64.7666 45.3954 120.5023 0.0000 0.5473 0.0000
# 4 0.0000 0.0000 0.0000 11.8896 0.0000 5.3160
# 5 -4.6705 -1.9921 0.5473 0.0000 22.6807 0.0000
# 6 0.0000 0.0000 0.0000 5.3160 0.0000 -95.0812
#
#
#
# Elastic Compliance Matrix: (Units=1/GPa)
#
#
# Indices 1 2 3 4 5 6 
#
# 1 0.007071 -0.003004 -0.002674 0.000000 0.001257 0.000000
# 2 -0.003004 0.008307 -0.001515 0.000000 0.000148 0.000000
# 3 -0.002674 -0.001515 0.010311 0.000000 -0.000933 0.000000
# 4 0.000000 0.000000 0.000000 0.082056 0.000000 0.004588
# 5 0.001257 0.000148 -0.000933 0.000000 0.044385 0.000000
# 6 0.000000 0.000000 0.000000 0.004588 0.000000 -0.010261
#
#
# Mechanical properties :
#
#
# Convention : Reuss Voigt Hill
#
# Bulk Modulus (GPa) = 88.48748 97.11062 92.79905
# Shear Modulus (GPa) = 31.24556 7.07000 19.15778
#
# Velocity S-wave (km/s) = 4.09320 1.94706 3.20510
# Velocity P-wave (km/s) = 8.35388 7.55823 7.96600
#
# Compressibility (1/GPa) = 0.01130103
#
# Stress axis : x y z
#
# Youngs Moduli (GPa) = 141.42833 120.38559 96.98276
#
# Poissons Ratio (x) = 0.36163 0.25937
# Poissons Ratio (y) = 0.42484 0.14697
# Poissons Ratio (z) = 0.37823 0.18243
#
# Static dielectric constant tensor:
#      x y z
#    x 1.637280 0.000000 -0.004380 
#    y 0.000000 1.593310 0.000000 
#    z -0.004380 0.000000 1.552600 
# 
# From -- ./inp_files/130494.got.cif
#   From: 2010.05.17/outbox.cif.g08.bks.cpg/sg15_66_cif.got.tgz:130494.got - 2010.06.03 18:47:42.
