data_PCOD9279594
_publ_section_title
;
Structure prediction by ZEFSAII (Michael W. Deem and Ramdas Pophale) SiO2 
 PCOD9279594
Probable space group: C 2/C
;
_chemical_formula_sum "Si O2"
_cell_formula_units_Z 32
_cell_length_a 5.217202
_cell_length_b 40.013953
_cell_length_c 7.990833
_cell_angle_alpha 90.000000
_cell_angle_beta 99.349644
_cell_angle_gamma 90.000000
_cell_volume 1646.012153
_symmetry_space_group_name_H-M "C 2/C"
_symmetry_group_IT_number 15
_symmetry_cell_setting 'monoclinic'
loop_
_space_group_symop_operation_xyz
x,y,z
-x,y,1/2-z
-x,-y,-z
x,-y,1/2+z
1/2+x,1/2+y,z
1/2-x,1/2+y,1/2-z
1/2-x,1/2-y,-z
1/2+x,1/2-y,1/2+z
loop_
_atom_site_type_symbol
_atom_site_label
_atom_site_fract_x
_atom_site_fract_y
_atom_site_fract_z
Si Si1 0.776178 0.279350 0.868772
Si Si2 0.543529 0.538369 0.954751
Si Si3 0.717250 0.853130 0.631672
Si Si4 0.947101 0.578143 0.545456
O O1 0.500000 0.280400 0.750000
O O2 0.797991 0.316365 0.953128
O O3 0.000000 0.274449 0.750000
O O4 0.750000 0.250000 0.000000
O O5 0.500000 0.539917 0.750000
O O6 0.312963 0.557912 0.019333
O O7 0.812691 0.558284 0.013737
O O8 0.500000 0.500000 0.000000
O O9 0.500000 0.851128 0.750000
O O10 0.621684 0.884121 0.511557
O O11 0.000000 0.858188 0.750000
O O12 0.000000 0.577357 0.750000
#
# Coordination Sequence:
#
# PCOD9279594 Si02
#       4
#     8   8   8   8
#     4  10  21  38  59  86 119 153 194 241 287 342
#     4  10  21  36  54  78 107 138 178 225 272 328
#     4  10  21  37  57  83 113 146 188 234 279 334
#     4  10  21  37  55  79 109 141 180 226 275 330
#
# _framework density 19.440926999999999
#
# number of rings (size 3 to 8) (size 9 to 14) (size 15 to 20)
#    0.000    2.000    0.000    3.000    0.000    4.000 
#    0.000    3.750    0.000    0.000    0.000    0.000 
#    0.000    0.000    0.000    0.000    0.000    0.000 
#
# Total GULP energy -89148.969958 kJ/mol
# GULP energy per Si atom -5571.810622 kJ/mol
# Density = 1.939668 g / cm^3
# Si number density = 19.440927 Si / 1000 Ang^3
#
#
#
# Elastic Constant Matrix: (Units=GPa)
#
#
# Indices 1 2 3 4 5 6 
#
# 1 187.2413 82.7477 29.5370 0.0000 -12.8673 0.0000
# 2 82.7477 224.2565 41.9564 0.0000 -5.3486 0.0000
# 3 29.5370 41.9564 14.8957 0.0000 -4.2587 0.0000
# 4 0.0000 0.0000 0.0000-2060.0808 0.0000 -214.7871
# 5 -12.8673 -5.3486 -4.2587 0.0000 8.6156 0.0000
# 6 0.0000 0.0000 0.0000 -214.7871 0.0000 12.2302
#
#
#
# Elastic Compliance Matrix: (Units=1/GPa)
#
#
# Indices 1 2 3 4 5 6 
#
# 1 0.007943 -0.000280 -0.013533 0.000000 0.004999 0.000000
# 2 -0.000280 0.009999 -0.030226 0.000000 -0.009151 0.000000
# 3 -0.013533 -0.030226 0.195606 0.000000 0.057712 0.000000
# 4 0.000000 0.000000 0.000000 -0.000171 0.000000 -0.003011
# 5 0.004999 -0.009151 0.057712 0.000000 0.146381 0.000000
# 6 0.000000 0.000000 0.000000 -0.003011 0.000000 0.028882
#
#
# Mechanical properties :
#
#
# Convention : Reuss Voigt Hill
#
# Bulk Modulus (GPa) = 7.97000 81.65286 44.81143
# Shear Modulus (GPa) = 9.64247 -389.70351 -190.03052
#
# Velocity S-wave (km/s) = 2.22950 -14.17358 -9.89747
# Velocity P-wave (km/s) = 3.27659 15.02538 10.36885
#
# Compressibility (1/GPa) = 0.12547058
#
# Stress axis : x y z
#
# Youngs Moduli (GPa) = 125.90350 100.00819 5.11232
#
# Poissons Ratio (x) = 0.02797 0.06918
# Poissons Ratio (y) = 0.03521 0.15453
# Poissons Ratio (z) = 1.70380 3.02288
#
# Static dielectric constant tensor:
#      x y z
#    x 1.663160 0.000000 -0.033200 
#    y 0.000000 1.840470 0.000000 
#    z -0.033200 0.000000 1.606540 
# 
# From -- ./inp_files/19939.got.cif
#   From: 2010.05.17/outbox.cif.g08.bks.cpg/sg15_10_cif.got.tgz:19939.got - 2010.06.03 18:47:42.
