data_PCOD9279118
_publ_section_title
;
Structure prediction by ZEFSAII (Michael W. Deem and Ramdas Pophale) SiO2 
 PCOD9279118
Probable space group: C 2/C
;
_chemical_formula_sum "Si O2"
_cell_formula_units_Z 40
_cell_length_a 13.092609
_cell_length_b 24.155176
_cell_length_c 8.797547
_cell_angle_alpha 90.000000
_cell_angle_beta 128.684858
_cell_angle_gamma 90.000000
_cell_volume 2171.821404
_symmetry_space_group_name_H-M "C 2/C"
_symmetry_group_IT_number 15
_symmetry_cell_setting 'monoclinic'
loop_
_space_group_symop_operation_xyz
x,y,z
-x,y,1/2-z
-x,-y,-z
x,-y,1/2+z
1/2+x,1/2+y,z
1/2-x,1/2+y,1/2-z
1/2-x,1/2-y,-z
1/2+x,1/2-y,1/2+z
loop_
_atom_site_type_symbol
_atom_site_label
_atom_site_fract_x
_atom_site_fract_y
_atom_site_fract_z
Si Si1 0.011942 0.939339 0.940865
Si Si2 0.205786 0.139452 0.121747
Si Si3 0.779100 0.862737 0.220677
Si Si4 0.513976 0.838687 0.587077
Si Si5 0.803504 0.257357 0.880157
O O1 0.000000 0.942962 0.750000
O O2 0.145438 0.910129 0.119474
O O3 0.103428 0.100537 0.107663
O O4 0.000000 0.000000 0.000000
O O5 0.357897 0.122263 0.290318
O O6 0.208544 0.201885 0.193126
O O7 0.182192 0.137602 0.920425
O O8 0.815070 0.802865 0.319982
O O9 0.621788 0.865947 0.083692
O O10 0.500000 0.817774 0.750000
O O11 0.559014 0.789910 0.515042
O O12 0.750000 0.250000 0.000000
#
# Coordination Sequence:
#
# PCOD9279118 Si02
#       5
#     8   8   8   8   8
#     4  12  26  45  67  94 124 169 221 272 328 392
#     4   9  21  40  61  91 130 167 218 260 323 385
#     4  11  21  39  65  89 127 174 213 266 318 389
#     4   8  20  36  60  90 125 166 212 254 319 383
#     4  10  21  34  57  94 136 168 212 260 326 379
#
# _framework density 18.417719999999999
#
# number of rings (size 3 to 8) (size 9 to 14) (size 15 to 20)
#    1.200    0.800    0.000    3.600    2.800    0.800 
#    0.000    1.000    0.000    0.000    0.000    0.000 
#    0.000    0.000    0.000    0.000    0.000    0.000 
#
# Total GULP energy -111477.646895 kJ/mol
# GULP energy per Si atom -5573.882345 kJ/mol
# Density = 1.837580 g / cm^3
# Si number density = 18.417720 Si / 1000 Ang^3
#
#
#
# Elastic Constant Matrix: (Units=GPa)
#
#
# Indices 1 2 3 4 5 6 
#
# 1 127.2797 44.9140 72.5205 0.0000 -5.1284 0.0000
# 2 44.9140 116.1088 68.2756 0.0000 0.2887 0.0000
# 3 72.5205 68.2756 136.5497 0.0000 -10.1209 0.0000
# 4 0.0000 0.0000 0.0000 28.8723 0.0000 -7.1296
# 5 -5.1284 0.2887 -10.1209 0.0000 33.2928 0.0000
# 6 0.0000 0.0000 0.0000 -7.1296 0.0000 21.3646
#
#
#
# Elastic Compliance Matrix: (Units=1/GPa)
#
#
# Indices 1 2 3 4 5 6 
#
# 1 0.011383 -0.001209 -0.005433 0.000000 0.000112 0.000000
# 2 -0.001209 0.012460 -0.005739 0.000000 -0.002039 0.000000
# 3 -0.005433 -0.005739 0.013320 0.000000 0.003262 0.000000
# 4 0.000000 0.000000 0.000000 0.037746 0.000000 0.012596
# 5 0.000112 -0.002039 0.003262 0.000000 0.031063 0.000000
# 6 0.000000 0.000000 0.000000 0.012596 0.000000 0.051010
#
#
# Mechanical properties :
#
#
# Convention : Reuss Voigt Hill
#
# Bulk Modulus (GPa) = 80.63452 83.48426 82.05939
# Shear Modulus (GPa) = 26.89934 29.65446 28.27690
#
# Velocity S-wave (km/s) = 3.82581 4.01696 3.92255
# Velocity P-wave (km/s) = 7.96190 8.18177 8.07258
#
# Compressibility (1/GPa) = 0.01240164
#
# Stress axis : x y z
#
# Youngs Moduli (GPa) = 87.84792 80.25562 75.07486
#
# Poissons Ratio (x) = 0.09703 0.40786
# Poissons Ratio (y) = 0.10621 0.43087
# Poissons Ratio (z) = 0.47725 0.46060
#
# Static dielectric constant tensor:
#      x y z
#    x 1.666470 0.000000 0.016220 
#    y 0.000000 1.594980 0.000000 
#    z 0.016220 0.000000 1.681690 
# 
# From -- ./inp_files/41055.got.cif
#   From: 2010.05.17/outbox.cif.g08.bks.cpg/sg15_21_cif.got.tgz:41055.got - 2010.06.03 18:47:42.
