data_PCOD9279776
_publ_section_title
;
Structure prediction by ZEFSAII (Michael W. Deem and Ramdas Pophale) SiO2 
 PCOD9279776
Probable space group: C 2/C
;
_chemical_formula_sum "Si O2"
_cell_formula_units_Z 40
_cell_length_a 23.623221
_cell_length_b 12.105788
_cell_length_c 8.468532
_cell_angle_alpha 90.000000
_cell_angle_beta 121.085511
_cell_angle_gamma 90.000000
_cell_volume 2074.033617
_symmetry_space_group_name_H-M "C 2/C"
_symmetry_group_IT_number 15
_symmetry_cell_setting 'monoclinic'
loop_
_space_group_symop_operation_xyz
x,y,z
-x,y,1/2-z
-x,-y,-z
x,-y,1/2+z
1/2+x,1/2+y,z
1/2-x,1/2+y,1/2-z
1/2-x,1/2-y,-z
1/2+x,1/2-y,1/2+z
loop_
_atom_site_type_symbol
_atom_site_label
_atom_site_fract_x
_atom_site_fract_y
_atom_site_fract_z
Si Si1 0.859198 0.237446 0.182590
Si Si2 0.223269 0.138359 0.882429
Si Si3 0.739322 0.090715 0.926558
Si Si4 0.955479 0.859072 0.039668
Si Si5 0.915005 0.894176 0.469502
O O1 0.830016 0.358797 0.116887
O O2 0.902894 0.227293 0.400789
O O3 0.795752 0.156875 0.104192
O O4 0.898298 0.184094 0.092604
O O5 0.250539 0.121373 0.742878
O O6 0.143596 0.129467 0.741247
O O7 0.250000 0.250000 0.000000
O O8 0.248653 0.036657 0.023786
O O9 0.000000 0.825997 0.250000
O O10 0.011347 0.875316 0.986468
O O11 0.917473 0.975254 0.015025
#
# Coordination Sequence:
#
# PCOD9279776 Si02
#       5
#     8   8   8   8   8
#     4  10  21  39  57  90 131 164 203 259 319 389
#     4  11  25  40  65  94 131 168 216 267 318 382
#     4  10  24  39  64  90 127 168 213 258 324 381
#     4  11  21  33  61  93 129 161 211 266 320 379
#     4  10  21  36  58  90 130 165 209 261 324 375
#
# _framework density 19.286090999999999
#
# number of rings (size 3 to 8) (size 9 to 14) (size 15 to 20)
#    0.000    1.600    2.000    3.000   14.000    0.000 
#    0.000    0.000    0.000    1.200    0.000    0.000 
#    0.000    0.000    0.000    0.000    0.000    0.000 
#
# Total GULP energy -111650.526115 kJ/mol
# GULP energy per Si atom -5582.526306 kJ/mol
# Density = 1.924219 g / cm^3
# Si number density = 19.286091 Si / 1000 Ang^3
#
#
#
# Elastic Constant Matrix: (Units=GPa)
#
#
# Indices 1 2 3 4 5 6 
#
# 1 57.0088 23.9058 25.0848 0.0000 6.4647 0.0000
# 2 23.9058 116.6310 65.8611 0.0000 15.4888 0.0000
# 3 25.0848 65.8611 153.0584 0.0000 18.8161 0.0000
# 4 0.0000 0.0000 0.0000 33.8602 0.0000 3.7453
# 5 6.4647 15.4888 18.8161 0.0000 17.4649 0.0000
# 6 0.0000 0.0000 0.0000 3.7453 0.0000 30.5093
#
#
#
# Elastic Compliance Matrix: (Units=1/GPa)
#
#
# Indices 1 2 3 4 5 6 
#
# 1 0.019766 -0.002675 -0.001706 0.000000 -0.003105 0.000000
# 2 -0.002675 0.012171 -0.004142 0.000000 -0.005341 0.000000
# 3 -0.001706 -0.004142 0.009298 0.000000 -0.005712 0.000000
# 4 0.000000 0.000000 0.000000 0.029940 0.000000 -0.003675
# 5 -0.003105 -0.005341 -0.005712 0.000000 0.069298 0.000000
# 6 0.000000 0.000000 0.000000 -0.003675 0.000000 0.033228
#
#
# Mechanical properties :
#
#
# Convention : Reuss Voigt Hill
#
# Bulk Modulus (GPa) = 41.34524 61.82240 51.58382
# Shear Modulus (GPa) = 25.14967 30.48998 27.81982
#
# Velocity S-wave (km/s) = 3.61506 3.98041 3.80212
# Velocity P-wave (km/s) = 6.23773 7.29725 6.78819
#
# Compressibility (1/GPa) = 0.02418658
#
# Stress axis : x y z
#
# Youngs Moduli (GPa) = 50.59172 82.16465 107.55433
#
# Poissons Ratio (x) = 0.21982 0.18354
# Poissons Ratio (y) = 0.13535 0.44549
# Poissons Ratio (z) = 0.08633 0.34033
#
# Static dielectric constant tensor:
#      x y z
#    x 1.739870 0.000000 -0.045250 
#    y 0.000000 1.649710 0.000000 
#    z -0.045250 0.000000 1.713540 
# 
# From -- ./inp_files/54077.got.cif
#   From: 2010.05.17/outbox.cif.g08.bks.cpg/sg15_28_cif.got.tgz:54077.got - 2010.06.03 18:47:42.
