data_PCOD9279261
_publ_section_title
;
Structure prediction by ZEFSAII (Michael W. Deem and Ramdas Pophale) SiO2 
 PCOD9279261
Probable space group: C 2/C
;
_chemical_formula_sum "Si O2"
_cell_formula_units_Z 64
_cell_length_a 8.741953
_cell_length_b 14.839337
_cell_length_c 25.690301
_cell_angle_alpha 90.000000
_cell_angle_beta 94.554469
_cell_angle_gamma 90.000000
_cell_volume 3322.145230
_symmetry_space_group_name_H-M "C 2/C"
_symmetry_group_IT_number 15
_symmetry_cell_setting 'monoclinic'
loop_
_space_group_symop_operation_xyz
x,y,z
-x,y,1/2-z
-x,-y,-z
x,-y,1/2+z
1/2+x,1/2+y,z
1/2-x,1/2+y,1/2-z
1/2-x,1/2-y,-z
1/2+x,1/2-y,1/2+z
loop_
_atom_site_type_symbol
_atom_site_label
_atom_site_fract_x
_atom_site_fract_y
_atom_site_fract_z
Si Si1 0.481834 0.308399 0.891886
Si Si2 0.165575 0.333289 0.635470
Si Si3 0.757159 0.014413 0.211607
Si Si4 0.541123 0.352213 0.112849
Si Si5 0.686365 0.878343 0.126952
Si Si6 0.106419 0.972734 0.675702
Si Si7 0.611429 0.959073 0.546077
Si Si8 0.072133 0.900413 0.996795
O O1 0.658225 0.321532 0.878731
O O2 0.422944 0.207270 0.882723
O O3 0.384613 0.378607 0.854456
O O4 0.481124 0.342402 0.951407
O O5 0.170053 0.400366 0.684431
O O6 0.106723 0.234044 0.643657
O O7 0.068872 0.380072 0.585954
O O8 0.775253 0.017651 0.273824
O O9 0.932625 0.020474 0.194264
O O10 0.685770 0.924797 0.183938
O O11 0.360397 0.352069 0.118556
O O12 0.614717 0.444122 0.136431
O O13 0.572114 0.351248 0.052104
O O14 0.651780 0.958187 0.085306
O O15 0.758056 0.919428 0.519926
O O16 0.500000 0.000000 0.500000
O O17 0.000000 0.000000 0.000000
#
# Coordination Sequence:
#
# PCOD9279261 Si02
#       8
#     8   8   8   8   8   8   8   8
#     4  10  21  35  55  80 109 142 182 218 265 323
#     4   9  21  37  53  80 109 139 179 223 268 321
#     4   8  17  37  58  75 107 141 181 223 264 324
#     4  11  21  35  56  82 110 142 180 219 271 320
#     4  10  21  36  54  83 108 139 185 224 264 320
#     4   9  17  35  59  78 102 147 180 216 273 322
#     4  10  22  37  54  77 108 149 183 215 267 319
#     4  11  20  37  54  77 114 145 178 220 262 323
#
# _framework density 19.264659999999999
#
# number of rings (size 3 to 8) (size 9 to 14) (size 15 to 20)
#    0.000    2.250    2.500    1.500    3.500    3.500 
#    0.000    0.000    0.000    1.500    0.000    0.000 
#    0.000    0.000    0.000    0.000    0.000    0.000 
#
# Total GULP energy -178496.641160 kJ/mol
# GULP energy per Si atom -5578.020036 kJ/mol
# Density = 1.922081 g / cm^3
# Si number density = 19.264660 Si / 1000 Ang^3
#
#
#
# Elastic Constant Matrix: (Units=GPa)
#
#
# Indices 1 2 3 4 5 6 
#
# 1 8.6913 11.4203 15.6939 0.0000 7.8631 0.0000
# 2 11.4203 99.2957 26.6019 0.0000 5.9073 0.0000
# 3 15.6939 26.6019 120.3841 0.0000 12.2791 0.0000
# 4 0.0000 0.0000 0.0000 18.2389 0.0000 8.6059
# 5 7.8631 5.9073 12.2791 0.0000 16.7954 0.0000
# 6 0.0000 0.0000 0.0000 8.6059 0.0000 24.9603
#
#
#
# Elastic Compliance Matrix: (Units=1/GPa)
#
#
# Indices 1 2 3 4 5 6 
#
# 1 0.274475 -0.019723 -0.020557 0.000000 -0.106534 0.000000
# 2 -0.019723 0.012198 -0.000679 0.000000 0.005440 0.000000
# 3 -0.020557 -0.000679 0.010947 0.000000 0.001860 0.000000
# 4 0.000000 0.000000 0.000000 0.065481 0.000000 -0.022577
# 5 -0.106534 0.005440 0.001860 0.000000 0.106143 0.000000
# 6 0.000000 0.000000 0.000000 -0.022577 0.000000 0.047848
#
#
# Mechanical properties :
#
#
# Convention : Reuss Voigt Hill
#
# Bulk Modulus (GPa) = 4.63604 37.31147 20.97375
# Shear Modulus (GPa) = 7.45257 23.64258 15.54758
#
# Velocity S-wave (km/s) = 1.96899 3.50702 2.84395
# Velocity P-wave (km/s) = 2.75335 5.98404 4.65777
#
# Compressibility (1/GPa) = 0.21570134
#
# Stress axis : x y z
#
# Youngs Moduli (GPa) = 3.64332 81.98331 91.34868
#
# Poissons Ratio (x) = 1.61694 1.87788
# Poissons Ratio (y) = 0.07186 0.06203
# Poissons Ratio (z) = 0.07490 0.05567
#
# Static dielectric constant tensor:
#      x y z
#    x 1.901800 0.000000 -0.037610 
#    y 0.000000 1.647290 0.000000 
#    z -0.037610 0.000000 1.691600 
# 
# From -- ./inp_files/288850.got.cif
#   From: 2010.05.17/outbox.cif.g08.bks.cpg/sg15_145_cif.got.tgz:288850.got - 2010.06.03 18:47:42.
