data_PCOD9279840
_publ_section_title
;
Structure prediction by ZEFSAII (Michael W. Deem and Ramdas Pophale) SiO2 
 PCOD9279840
Probable space group: C 2/C
;
_chemical_formula_sum "Si O2"
_cell_formula_units_Z 56
_cell_length_a 14.575837
_cell_length_b 20.851863
_cell_length_c 23.372084
_cell_angle_alpha 90.000000
_cell_angle_beta 158.878560
_cell_angle_gamma 90.000000
_cell_volume 2559.737205
_symmetry_space_group_name_H-M "C 2/C"
_symmetry_group_IT_number 15
_symmetry_cell_setting 'monoclinic'
loop_
_space_group_symop_operation_xyz
x,y,z
-x,y,1/2-z
-x,-y,-z
x,-y,1/2+z
1/2+x,1/2+y,z
1/2-x,1/2+y,1/2-z
1/2-x,1/2-y,-z
1/2+x,1/2-y,1/2+z
loop_
_atom_site_type_symbol
_atom_site_label
_atom_site_fract_x
_atom_site_fract_y
_atom_site_fract_z
Si Si1 0.638689 0.557781 0.165670
Si Si2 0.572153 0.817314 0.618425
Si Si3 0.614658 0.983846 0.881872
Si Si4 0.725397 0.633654 0.610384
Si Si5 0.714452 0.776073 0.576448
Si Si6 0.584370 0.386868 0.361311
Si Si7 0.276283 0.182188 0.766401
O O1 0.770511 0.616206 0.278156
O O2 0.857163 0.507616 0.271822
O O3 0.365551 0.530856 0.029795
O O4 0.523641 0.591615 0.042818
O O5 0.587465 0.795767 0.561827
O O6 0.277771 0.829720 0.459655
O O7 0.675885 0.755450 0.712937
O O8 0.500000 0.973053 0.750000
O O9 0.750316 0.925749 0.995472
O O10 0.703966 0.699787 0.562680
O O11 0.723608 0.654041 0.674443
O O12 0.000000 0.605690 0.750000
O O13 0.577959 0.812198 0.446733
O O14 0.000000 0.795761 0.750000
O O15 0.500000 0.416093 0.250000
O O16 0.340310 0.361646 0.252609
#
# Coordination Sequence:
#
# PCOD9279840 Si02
#       7
#     8   8   8   8   8   8   8
#     4  11  23  44  67  96 126 173 225 284 331 389
#     4  10  22  40  64 100 133 173 213 267 331 414
#     4  11  25  45  69  94 129 175 237 287 332 387
#     4  10  22  36  64  98 132 171 212 271 331 398
#     4  10  21  36  59  98 138 169 210 259 328 408
#     4  11  23  43  68  97 138 177 219 276 335 403
#     4  11  21  39  66  99 138 173 212 262 341 407
#
# _framework density 21.877244999999998
#
# number of rings (size 3 to 8) (size 9 to 14) (size 15 to 20)
#    0.000    1.429    2.857    2.143    2.000    2.857 
#    0.000    4.286    0.000    0.000    0.000    0.000 
#    0.000    0.000    0.000    0.000    0.000    0.000 
#
# Total GULP energy -155876.384886 kJ/mol
# GULP energy per Si atom -5567.013746 kJ/mol
# Density = 2.182745 g / cm^3
# Si number density = 21.877245 Si / 1000 Ang^3
#
#
#
# Elastic Constant Matrix: (Units=GPa)
#
#
# Indices 1 2 3 4 5 6 
#
# 1 59.6745 24.8935 5.5162 -0.4510 4.3347 -0.4116
# 2 24.8935 43.4245 22.3759 0.3368 2.8842 0.4285
# 3 5.5162 22.3759 99.0598 0.1805 11.6727 0.2923
# 4 -0.4510 0.3368 0.1805 155.3925 -0.2844 129.0237
# 5 4.3347 2.8842 11.6727 -0.2844 37.9314 -0.2746
# 6 -0.4116 0.4285 0.2923 129.0237 -0.2746 169.0734
#
#
#
# Elastic Compliance Matrix: (Units=1/GPa)
#
#
# Indices 1 2 3 4 5 6 
#
# 1 0.022497 -0.013852 0.002132 0.000055 -0.002173 0.000041
# 2 -0.013852 0.034592 -0.007179 -0.000043 0.001161 -0.000074
# 3 0.002132 -0.007179 0.011997 0.000011 -0.003390 -0.000011
# 4 0.000055 -0.000043 0.000011 0.017565 0.000028 -0.013404
# 5 -0.002173 0.001161 -0.003390 0.000028 0.027567 0.000021
# 6 0.000041 -0.000074 -0.000011 -0.013404 0.000021 0.016144
#
#
# Mechanical properties :
#
#
# Convention : Reuss Voigt Hill
#
# Bulk Modulus (GPa) = 31.95990 34.19220 33.07605
# Shear Modulus (GPa) = 27.99699 82.43766 55.21733
#
# Velocity S-wave (km/s) = 3.58121 6.14522 5.02935
# Velocity P-wave (km/s) = 5.63388 8.12494 6.99125
#
# Compressibility (1/GPa) = 0.03128921
#
# Stress axis : x y z
#
# Youngs Moduli (GPa) = 44.44951 28.90807 83.35253
#
# Poissons Ratio (x) = 0.40043 -0.17771
# Poissons Ratio (y) = 0.61571 0.59839
# Poissons Ratio (z) = -0.09477 0.20753
#
# Static dielectric constant tensor:
#      x y z
#    x 1.730500 0.000020 -0.065230 
#    y 0.000020 1.872960 -0.000070 
#    z -0.065230 -0.000070 1.816310 
# 
# From -- ./inp_files/275266.got.cif
#   From: 2010.05.17/outbox.cif.g08.bks.cpg/sg15_138_cif.got.tgz:275266.got - 2010.06.03 18:47:42.
