data_PCOD9279730
_publ_section_title
;
Structure prediction by ZEFSAII (Michael W. Deem and Ramdas Pophale) SiO2 
 PCOD9279730
Probable space group: C 2/C
;
_chemical_formula_sum "Si O2"
_cell_formula_units_Z 32
_cell_length_a 25.079401
_cell_length_b 10.356960
_cell_length_c 8.426115
_cell_angle_alpha 90.000000
_cell_angle_beta 144.158497
_cell_angle_gamma 90.000000
_cell_volume 1281.554670
_symmetry_space_group_name_H-M "C 2/C"
_symmetry_group_IT_number 15
_symmetry_cell_setting 'monoclinic'
loop_
_space_group_symop_operation_xyz
x,y,z
-x,y,1/2-z
-x,-y,-z
x,-y,1/2+z
1/2+x,1/2+y,z
1/2-x,1/2+y,1/2-z
1/2-x,1/2-y,-z
1/2+x,1/2-y,1/2+z
loop_
_atom_site_type_symbol
_atom_site_label
_atom_site_fract_x
_atom_site_fract_y
_atom_site_fract_z
Si Si1 0.369076 0.480824 0.935143
Si Si2 0.431343 0.699318 0.863727
Si Si3 0.786176 0.650336 0.828492
Si Si4 0.129935 0.267196 0.279167
O O1 0.410734 0.612145 0.965848
O O2 0.270987 0.525932 0.762130
O O3 0.362460 0.376315 0.780217
O O4 0.426225 0.406598 0.207699
O O5 0.350846 0.797463 0.623139
O O6 0.527200 0.773462 0.092078
O O7 0.846311 0.640814 0.812279
O O8 0.709835 0.758595 0.600348
#
# Coordination Sequence:
#
# PCOD9279730 Si02
#       4
#     8   8   8   8
#     4  11  20  36  60  94 116 151 197 247 298 349
#     4  11  23  37  63  92 120 154 197 249 297 351
#     4  10  21  36  57  90 124 152 193 245 303 346
#     4  10  22  38  60  90 120 155 193 252 297 346
#
# _framework density 24.969673
#
# number of rings (size 3 to 8) (size 9 to 14) (size 15 to 20)
#    0.000    1.500    2.500    4.500    3.500    0.000 
#    0.000    0.000    0.000   24.000    0.000    0.000 
#    0.000    0.000    0.000    0.000    0.000    0.000 
#
# Total GULP energy -89510.572920 kJ/mol
# GULP energy per Si atom -5594.410808 kJ/mol
# Density = 2.491284 g / cm^3
# Si number density = 24.969673 Si / 1000 Ang^3
#
#
#
# Elastic Constant Matrix: (Units=GPa)
#
#
# Indices 1 2 3 4 5 6 
#
# 1 58.8141 17.8194 15.1943 0.0000 26.3049 0.0000
# 2 17.8194 46.6085 25.9282 0.0000 12.4973 0.0000
# 3 15.1943 25.9282 136.3745 0.0000 28.2561 0.0000
# 4 0.0000 0.0000 0.0000 31.4008 0.0000 12.3206
# 5 26.3049 12.4973 28.2561 0.0000 39.4475 0.0000
# 6 0.0000 0.0000 0.0000 12.3206 0.0000 40.1345
#
#
#
# Elastic Compliance Matrix: (Units=1/GPa)
#
#
# Indices 1 2 3 4 5 6 
#
# 1 0.025867 -0.006452 0.001756 0.000000 -0.016462 0.000000
# 2 -0.006452 0.026505 -0.004077 0.000000 -0.001174 0.000000
# 3 0.001756 -0.004077 0.009262 0.000000 -0.006513 0.000000
# 4 0.000000 0.000000 0.000000 0.036207 0.000000 -0.011115
# 5 -0.016462 -0.001174 -0.006513 0.000000 0.041365 0.000000
# 6 0.000000 0.000000 0.000000 -0.011115 0.000000 0.028328
#
#
# Mechanical properties :
#
#
# Convention : Reuss Voigt Hill
#
# Bulk Modulus (GPa) = 22.68259 39.96456 31.32357
# Shear Modulus (GPa) = 25.02787 34.38691 29.70739
#
# Velocity S-wave (km/s) = 3.16940 3.71502 3.45300
# Velocity P-wave (km/s) = 4.74312 5.86871 5.33568
#
# Compressibility (1/GPa) = 0.04408668
#
# Stress axis : x y z
#
# Youngs Moduli (GPa) = 38.65951 37.72875 107.97017
#
# Poissons Ratio (x) = 0.24343 -0.18956
# Poissons Ratio (y) = 0.24943 0.44021
# Poissons Ratio (z) = -0.06787 0.15383
#
# Static dielectric constant tensor:
#      x y z
#    x 2.072340 0.000000 -0.014520 
#    y 0.000000 1.953010 0.000000 
#    z -0.014520 0.000000 2.061080 
# 
# From -- ./inp_files/62041.got.cif
#   From: 2010.05.17/outbox.cif.g08.bks.cpg/sg15_32_cif.got.tgz:62041.got - 2010.06.03 18:47:42.
