data_PCOD9279286
_publ_section_title
;
Structure prediction by ZEFSAII (Michael W. Deem and Ramdas Pophale) SiO2 
 PCOD9279286
Probable space group: C 2/C
;
_chemical_formula_sum "Si O2"
_cell_formula_units_Z 48
_cell_length_a 11.203983
_cell_length_b 9.606108
_cell_length_c 18.485950
_cell_angle_alpha 90.000000
_cell_angle_beta 78.290409
_cell_angle_gamma 90.000000
_cell_volume 1948.175783
_symmetry_space_group_name_H-M "C 2/C"
_symmetry_group_IT_number 15
_symmetry_cell_setting 'monoclinic'
loop_
_space_group_symop_operation_xyz
x,y,z
-x,y,1/2-z
-x,-y,-z
x,-y,1/2+z
1/2+x,1/2+y,z
1/2-x,1/2+y,1/2-z
1/2-x,1/2-y,-z
1/2+x,1/2-y,1/2+z
loop_
_atom_site_type_symbol
_atom_site_label
_atom_site_fract_x
_atom_site_fract_y
_atom_site_fract_z
Si Si1 0.717975 0.382650 0.654405
Si Si2 0.096560 0.589728 0.032950
Si Si3 0.594802 0.949043 0.292894
Si Si4 0.330201 0.344457 0.403208
Si Si5 0.244207 0.577535 0.631566
Si Si6 0.149585 0.174645 0.326594
O O1 0.849302 0.451964 0.654884
O O2 0.636297 0.500766 0.626611
O O3 0.747586 0.239191 0.610642
O O4 0.662341 0.363089 0.741088
O O5 0.072558 0.743882 0.069998
O O6 0.145959 0.495319 0.092256
O O7 0.215208 0.623245 0.969369
O O8 0.000000 0.500000 0.000000
O O9 0.500000 0.016553 0.250000
O O10 0.699435 0.916250 0.220563
O O11 0.553989 0.802727 0.334104
O O12 0.269237 0.255931 0.344457
O O13 0.354217 0.464623 0.624333
#
# Coordination Sequence:
#
# PCOD9279286 Si02
#       6
#     8   8   8   8   8   8
#     4   9  17  32  55  79 107 140 178 230 292 338
#     4  10  21  35  56  82 108 152 198 230 267 347
#     4   9  17  29  53  78 102 139 180 227 280 334
#     4   9  19  36  57  79 112 152 185 228 290 337
#     4   9  18  32  51  76 106 140 184 225 277 335
#     4   8  16  32  53  76 104 144 175 218 286 347
#
# _framework density 24.638432999999999
#
# number of rings (size 3 to 8) (size 9 to 14) (size 15 to 20)
#    0.000    3.000    0.000    1.000    4.667    0.667 
#    0.000    1.667    7.333    0.000    0.000    0.000 
#    0.000    0.000    0.000    0.000    0.000    0.000 
#
# Total GULP energy -133620.885018 kJ/mol
# GULP energy per Si atom -5567.536876 kJ/mol
# Density = 2.458236 g / cm^3
# Si number density = 24.638433 Si / 1000 Ang^3
#
#
#
# Elastic Constant Matrix: (Units=GPa)
#
#
# Indices 1 2 3 4 5 6 
#
# 1 65.0966 56.3205 15.8977 0.0000 21.1250 0.0000
# 2 56.3205 217.4141 55.6353 0.0000 33.9294 0.0000
# 3 15.8977 55.6353 75.0222 0.0000 12.1505 0.0000
# 4 0.0000 0.0000 0.0000 38.2725 0.0000 12.0521
# 5 21.1250 33.9294 12.1505 0.0000 24.2388 0.0000
# 6 0.0000 0.0000 0.0000 12.0521 0.0000 29.0189
#
#
#
# Elastic Compliance Matrix: (Units=1/GPa)
#
#
# Indices 1 2 3 4 5 6 
#
# 1 0.023549 -0.003776 0.000303 0.000000 -0.015390 0.000000
# 2 -0.003776 0.007350 -0.003828 0.000000 -0.005078 0.000000
# 3 0.000303 -0.003828 0.016629 0.000000 -0.003241 0.000000
# 4 0.000000 0.000000 0.000000 0.030060 0.000000 -0.012484
# 5 -0.015390 -0.005078 -0.003241 0.000000 0.063402 0.000000
# 6 0.000000 0.000000 0.000000 -0.012484 0.000000 0.039645
#
#
# Mechanical properties :
#
#
# Convention : Reuss Voigt Hill
#
# Bulk Modulus (GPa) = 30.37187 68.13776 49.25481
# Shear Modulus (GPa) = 24.24677 33.61800 28.93238
#
# Velocity S-wave (km/s) = 3.14045 3.69786 3.43049
# Velocity P-wave (km/s) = 5.05011 6.77844 5.97708
#
# Compressibility (1/GPa) = 0.03292521
#
# Stress axis : x y z
#
# Youngs Moduli (GPa) = 42.46436 136.05937 60.13635
#
# Poissons Ratio (x) = 0.51377 -0.01819
# Poissons Ratio (y) = 0.16035 0.23019
# Poissons Ratio (z) = -0.01285 0.52081
#
# Static dielectric constant tensor:
#      x y z
#    x 2.069800 0.000000 -0.081630 
#    y 0.000000 2.150140 0.000000 
#    z -0.081630 0.000000 1.975430 
# 
# From -- ./inp_files/272100.got.cif
#   From: 2010.05.17/outbox.cif.g08.bks.cpg/sg15_137_cif.got.tgz:272100.got - 2010.06.03 18:47:42.
