data_PCOD9279576
_publ_section_title
;
Structure prediction by ZEFSAII (Michael W. Deem and Ramdas Pophale) SiO2 
 PCOD9279576
Probable space group: C 2/C
;
_chemical_formula_sum "Si O2"
_cell_formula_units_Z 64
_cell_length_a 15.701500
_cell_length_b 18.695544
_cell_length_c 12.994932
_cell_angle_alpha 90.000000
_cell_angle_beta 81.746733
_cell_angle_gamma 90.000000
_cell_volume 3775.129968
_symmetry_space_group_name_H-M "C 2/C"
_symmetry_group_IT_number 15
_symmetry_cell_setting 'monoclinic'
loop_
_space_group_symop_operation_xyz
x,y,z
-x,y,1/2-z
-x,-y,-z
x,-y,1/2+z
1/2+x,1/2+y,z
1/2-x,1/2+y,1/2-z
1/2-x,1/2-y,-z
1/2+x,1/2-y,1/2+z
loop_
_atom_site_type_symbol
_atom_site_label
_atom_site_fract_x
_atom_site_fract_y
_atom_site_fract_z
Si Si1 0.267553 0.888027 0.193602
Si Si2 0.402633 0.380034 0.805428
Si Si3 0.403640 0.482909 0.980548
Si Si4 0.389599 0.726748 0.998178
Si Si5 0.588862 0.775343 0.278609
Si Si6 0.790288 0.358657 0.953936
Si Si7 0.775677 0.028746 0.182529
Si Si8 0.082121 0.114853 0.666366
O O1 0.333367 0.831279 0.230678
O O2 0.268556 0.964460 0.248436
O O3 0.167998 0.861055 0.211892
O O4 0.291915 0.891443 0.068389
O O5 0.500000 0.396298 0.750000
O O6 0.396249 0.407965 0.923085
O O7 0.389382 0.295904 0.789918
O O8 0.335386 0.423702 0.747075
O O9 0.388166 0.543119 0.896447
O O10 0.500000 0.500000 0.000000
O O11 0.338647 0.494582 0.085239
O O12 0.427358 0.747929 0.101485
O O13 0.300715 0.683929 0.038214
O O14 0.362947 0.797884 0.940892
O O15 0.440831 0.673034 0.916543
O O16 0.500000 0.806142 0.250000
O O17 0.788447 0.418542 0.867318
O O18 0.000000 0.100363 0.750000
#
# Coordination Sequence:
#
# PCOD9279576 Si02
#       8
#     8   8   8   8   8   8   8   8
#     4  10  21  36  53  80 108 144 183 218 272 325
#     4  11  20  31  49  80 105 138 183 223 266 327
#     4  12  21  30  46  77 116 147 171 207 276 346
#     4   9  17  33  55  76 100 136 183 220 264 317
#     4  10  21  37  58  77 104 143 191 233 265 319
#     4   9  17  32  55  78  97 134 186 225 260 317
#     4  12  18  32  52  76 107 138 175 225 270 323
#     4  11  20  33  50  80 116 147 170 215 272 333
#
# _framework density 16.953059
#
# number of rings (size 3 to 8) (size 9 to 14) (size 15 to 20)
#    0.000    1.500    6.250    1.875    1.750    0.000 
#    0.000    0.625    0.000    3.750    0.000    0.000 
#    0.000    0.000    0.000    0.000    0.000    0.000 
#
# Total GULP energy -178501.680000 kJ/mol
# GULP energy per Si atom -5578.177500 kJ/mol
# Density = 1.691447 g / cm^3
# Si number density = 16.953059 Si / 1000 Ang^3
#
#
#
# Elastic Constant Matrix: (Units=GPa)
#
#
# Indices 1 2 3 4 5 6 
#
# 1 56.2857 35.5466 22.7204 0.0000 20.8094 0.0000
# 2 35.5466 91.6247 30.1999 0.0000 13.8495 0.0000
# 3 22.7204 30.1999 45.4123 0.0000 18.7237 0.0000
# 4 0.0000 0.0000 0.0000 36.2484 0.0000 6.6674
# 5 20.8094 13.8495 18.7237 0.0000 23.9174 0.0000
# 6 0.0000 0.0000 0.0000 6.6674 0.0000 20.3560
#
#
#
# Elastic Compliance Matrix: (Units=1/GPa)
#
#
# Indices 1 2 3 4 5 6 
#
# 1 0.031706 -0.008634 -0.001194 0.000000 -0.021652 0.000000
# 2 -0.008634 0.016353 -0.008488 0.000000 0.004688 0.000000
# 3 -0.001194 -0.008488 0.038108 0.000000 -0.023879 0.000000
# 4 0.000000 0.000000 0.000000 0.029356 0.000000 -0.009615
# 5 -0.021652 0.004688 -0.023879 0.000000 0.076627 0.000000
# 6 0.000000 0.000000 0.000000 -0.009615 0.000000 0.052275
#
#
# Mechanical properties :
#
#
# Convention : Reuss Voigt Hill
#
# Bulk Modulus (GPa) = 20.18809 41.13964 30.66386
# Shear Modulus (GPa) = 16.80281 23.09475 19.94878
#
# Velocity S-wave (km/s) = 3.15165 3.69491 3.43404
# Velocity P-wave (km/s) = 5.01776 6.52093 5.81810
#
# Compressibility (1/GPa) = 0.04953416
#
# Stress axis : x y z
#
# Youngs Moduli (GPa) = 31.53948 61.15100 26.24143
#
# Poissons Ratio (x) = 0.52801 0.03133
# Poissons Ratio (y) = 0.27233 0.22273
# Poissons Ratio (z) = 0.03766 0.51904
#
# Static dielectric constant tensor:
#      x y z
#    x 1.578080 0.000000 0.038730 
#    y 0.000000 1.607070 0.000000 
#    z 0.038730 0.000000 1.599030 
# 
# From -- ./inp_files/106398.got.cif
#   From: 2010.05.17/outbox.cif.g08.bks.cpg/sg15_54_cif.got.tgz:106398.got - 2010.06.03 18:47:42.
