data_PCOD9279446
_publ_section_title
;
Structure prediction by ZEFSAII (Michael W. Deem and Ramdas Pophale) SiO2 
 PCOD9279446
Probable space group: C 2/C
;
_chemical_formula_sum "Si O2"
_cell_formula_units_Z 40
_cell_length_a 19.401960
_cell_length_b 6.281881
_cell_length_c 18.539642
_cell_angle_alpha 90.000000
_cell_angle_beta 78.271049
_cell_angle_gamma 90.000000
_cell_volume 2212.445965
_symmetry_space_group_name_H-M "C 2/C"
_symmetry_group_IT_number 15
_symmetry_cell_setting 'monoclinic'
loop_
_space_group_symop_operation_xyz
x,y,z
-x,y,1/2-z
-x,-y,-z
x,-y,1/2+z
1/2+x,1/2+y,z
1/2-x,1/2+y,1/2-z
1/2-x,1/2-y,-z
1/2+x,1/2-y,1/2+z
loop_
_atom_site_type_symbol
_atom_site_label
_atom_site_fract_x
_atom_site_fract_y
_atom_site_fract_z
Si Si1 0.818527 0.848249 0.283631
Si Si2 0.673007 0.289323 0.602540
Si Si3 0.336772 0.309150 0.675351
Si Si4 0.417419 0.961027 0.274236
Si Si5 0.711061 0.561739 0.464181
O O1 0.743682 0.742188 0.284550
O O2 0.874650 0.676684 0.297445
O O3 0.803546 0.028748 0.346279
O O4 0.850535 0.960842 0.206830
O O5 0.604022 0.192647 0.654803
O O6 0.667435 0.411966 0.528011
O O7 0.730195 0.099601 0.581766
O O8 0.385845 0.143356 0.707270
O O9 0.334006 0.331164 0.590039
O O10 0.500000 0.990699 0.250000
O O11 0.750000 0.750000 0.500000
#
# Coordination Sequence:
#
# PCOD9279446 Si02
#       5
#     8   8   8   8   8
#     4  11  19  36  60  88 117 151 205 248 292 350
#     4  10  21  35  60  90 123 153 199 245 306 350
#     4  11  20  34  61  91 113 157 204 252 294 356
#     4  11  24  39  58  87 125 160 201 253 306 356
#     4  11  20  35  61  96 124 152 199 256 299 353
#
# _framework density 18.079536999999998
#
# number of rings (size 3 to 8) (size 9 to 14) (size 15 to 20)
#    0.000    1.200    6.000    1.200    0.000    3.200 
#    0.000    1.000    0.000    6.000    0.000    0.000 
#    0.000    0.000    0.000    0.000    0.000    0.000 
#
# Total GULP energy -111512.874272 kJ/mol
# GULP energy per Si atom -5575.643714 kJ/mol
# Density = 1.803839 g / cm^3
# Si number density = 18.079537 Si / 1000 Ang^3
#
#
#
# Elastic Constant Matrix: (Units=GPa)
#
#
# Indices 1 2 3 4 5 6 
#
# 1 94.2793 36.0457 28.5839 0.0000 -6.2325 0.0000
# 2 36.0457 97.3814 38.9255 0.0000 0.0978 0.0000
# 3 28.5839 38.9255 106.6660 0.0000 14.7216 0.0000
# 4 0.0000 0.0000 0.0000 34.7569 0.0000 -0.1238
# 5 -6.2325 0.0978 14.7216 0.0000 14.2930 0.0000
# 6 0.0000 0.0000 0.0000 -0.1238 0.0000 12.2988
#
#
#
# Elastic Compliance Matrix: (Units=1/GPa)
#
#
# Indices 1 2 3 4 5 6 
#
# 1 0.013775 -0.003616 -0.003735 0.000000 0.009878 0.000000
# 2 -0.003616 0.013309 -0.004264 0.000000 0.002724 0.000000
# 3 -0.003735 -0.004264 0.014167 0.000000 -0.016191 0.000000
# 4 0.000000 0.000000 0.000000 0.028772 0.000000 0.000290
# 5 0.009878 0.002724 -0.016191 0.000000 0.090930 0.000000
# 6 0.000000 0.000000 0.000000 0.000290 0.000000 0.081311
#
#
# Mechanical properties :
#
#
# Convention : Reuss Voigt Hill
#
# Bulk Modulus (GPa) = 55.49142 56.15964 55.82553
# Shear Modulus (GPa) = 18.41624 25.25453 21.83539
#
# Velocity S-wave (km/s) = 3.19505 3.74151 3.47903
# Velocity P-wave (km/s) = 6.66113 7.05657 6.86170
#
# Compressibility (1/GPa) = 0.01802080
#
# Stress axis : x y z
#
# Youngs Moduli (GPa) = 72.59751 75.13812 70.58832
#
# Poissons Ratio (x) = 0.27166 0.26366
# Poissons Ratio (y) = 0.26248 0.30098
# Poissons Ratio (z) = 0.27117 0.32038
#
# Static dielectric constant tensor:
#      x y z
#    x 1.573340 0.000000 0.011050 
#    y 0.000000 1.653470 0.000000 
#    z 0.011050 0.000000 1.676370 
# 
# From -- ./inp_files/208033.got.cif
#   From: 2010.05.17/outbox.cif.g08.bks.cpg/sg15_105_cif.got.tgz:208033.got - 2010.06.03 18:47:42.
