data_PCOD9279159
_publ_section_title
;
Structure prediction by ZEFSAII (Michael W. Deem and Ramdas Pophale) SiO2 
 PCOD9279159
Probable space group: C 2/C
;
_chemical_formula_sum "Si O2"
_cell_formula_units_Z 60
_cell_length_a 22.052790
_cell_length_b 5.784992
_cell_length_c 19.333518
_cell_angle_alpha 90.000000
_cell_angle_beta 114.846969
_cell_angle_gamma 90.000000
_cell_volume 2238.164045
_symmetry_space_group_name_H-M "C 2/C"
_symmetry_group_IT_number 15
_symmetry_cell_setting 'monoclinic'
loop_
_space_group_symop_operation_xyz
x,y,z
-x,y,1/2-z
-x,-y,-z
x,-y,1/2+z
1/2+x,1/2+y,z
1/2-x,1/2+y,1/2-z
1/2-x,1/2-y,-z
1/2+x,1/2-y,1/2+z
loop_
_atom_site_type_symbol
_atom_site_label
_atom_site_fract_x
_atom_site_fract_y
_atom_site_fract_z
Si Si1 0.886169 0.286595 0.160687
Si Si2 0.075688 0.868221 0.967697
Si Si3 0.180678 0.687275 0.407509
Si Si4 0.500000 0.137486 0.250000
Si Si5 0.689233 0.358032 0.138971
Si Si6 0.391863 0.593764 0.762131
Si Si7 0.789843 0.360291 0.381094
Si Si8 0.076501 0.642333 0.484928
O O1 0.903208 0.131199 0.102823
O O2 0.816706 0.413800 0.109934
O O3 0.945567 0.471640 0.191192
O O4 0.890271 0.170758 0.237468
O O5 0.043719 0.611828 0.963716
O O6 0.039745 0.111125 0.967487
O O7 0.143219 0.865126 0.047228
O O8 0.147627 0.794240 0.321515
O O9 0.249961 0.827181 0.434876
O O10 0.129025 0.678185 0.446156
O O11 0.534664 0.300808 0.210421
O O12 0.640498 0.351617 0.181359
O O13 0.723446 0.611864 0.160919
O O14 0.727837 0.111997 0.157104
O O15 0.870322 0.367892 0.426808
#
# Coordination Sequence:
#
# PCOD9279159 Si02
#       8
#     8   8   8   4   8   8   8   8
#     4  10  21  40  66  91 120 159 209 264 304 370
#     4   9  18  37  60  89 122 161 202 249 303 357
#     4  10  21  34  60  91 124 165 212 244 297 351
#     4  10  24  42  66  92 112 150 206 268 324 370
#     4  10  24  39  61  90 132 168 199 246 307 367
#     4  11  23  41  64  87 120 158 208 260 320 368
#     4  10  22  37  58  90 133 170 204 240 294 361
#     4   9  17  34  56  88 123 165 207 248 284 346
#
# _framework density 26.807687999999999
#
# number of rings (size 3 to 8) (size 9 to 14) (size 15 to 20)
#    0.000    2.133    1.333    0.800    5.600    1.067 
#    0.000    6.000    0.000    3.200    0.000    0.000 
#    0.000    0.000    0.000    0.000    0.000    0.000 
#
# Total GULP energy -167369.170422 kJ/mol
# GULP energy per Si atom -5578.972347 kJ/mol
# Density = 2.674667 g / cm^3
# Si number density = 26.807688 Si / 1000 Ang^3
#
#
#
# Elastic Constant Matrix: (Units=GPa)
#
#
# Indices 1 2 3 4 5 6 
#
# 1 78.7633 49.9488 23.6181 0.0000 -33.6534 0.0000
# 2 49.9488 246.2861 7.8545 -0.0002 -23.5152 0.0002
# 3 23.6181 7.8545 73.8118 0.0000 -12.0510 0.0000
# 4 0.0000 -0.0002 0.0000 19.9616 0.0000 1.7739
# 5 -33.6534 -23.5152 -12.0510 0.0000 38.2514 0.0000
# 6 0.0000 0.0002 0.0000 1.7739 0.0000 33.3233
#
#
#
# Elastic Compliance Matrix: (Units=1/GPa)
#
#
# Indices 1 2 3 4 5 6 
#
# 1 0.023222 -0.002923 -0.004298 0.000000 0.017279 0.000000
# 2 -0.002923 0.004681 0.000513 0.000000 0.000468 0.000000
# 3 -0.004298 0.000513 0.015078 0.000000 0.001284 0.000000
# 4 0.000000 0.000000 0.000000 0.050334 0.000000 -0.002680
# 5 0.017279 0.000468 0.001284 0.000000 0.042038 0.000000
# 6 0.000000 0.000000 0.000000 -0.002680 0.000000 0.030152
#
#
# Mechanical properties :
#
#
# Convention : Reuss Voigt Hill
#
# Bulk Modulus (GPa) = 33.82193 62.41157 48.11675
# Shear Modulus (GPa) = 26.48648 39.46991 32.97820
#
# Velocity S-wave (km/s) = 3.14669 3.84127 3.51119
# Velocity P-wave (km/s) = 5.08390 6.55786 5.86735
#
# Compressibility (1/GPa) = 0.02956661
#
# Stress axis : x y z
#
# Youngs Moduli (GPa) = 43.06333 213.61167 66.32016
#
# Poissons Ratio (x) = 0.62431 0.28506
# Poissons Ratio (y) = 0.12586 -0.03405
# Poissons Ratio (z) = 0.18510 -0.10969
#
# Static dielectric constant tensor:
#      x y z
#    x 2.186450 0.000000 0.106700 
#    y 0.000000 2.283410 0.000000 
#    z 0.106700 0.000000 2.217940 
# 
# From -- ./inp_files/256588.got.cif
#   From: 2010.05.17/outbox.cif.g08.bks.cpg/sg15_129_cif.got.tgz:256588.got - 2010.06.03 18:47:42.
