data_PCOD9279634
_publ_section_title
;
Structure prediction by ZEFSAII (Michael W. Deem and Ramdas Pophale) SiO2 
 PCOD9279634
Probable space group: C 2/C
;
_chemical_formula_sum "Si O2"
_cell_formula_units_Z 64
_cell_length_a 31.222078
_cell_length_b 13.875642
_cell_length_c 8.592000
_cell_angle_alpha 90.000000
_cell_angle_beta 131.437426
_cell_angle_gamma 90.000000
_cell_volume 2790.515682
_symmetry_space_group_name_H-M "C 2/C"
_symmetry_group_IT_number 15
_symmetry_cell_setting 'monoclinic'
loop_
_space_group_symop_operation_xyz
x,y,z
-x,y,1/2-z
-x,-y,-z
x,-y,1/2+z
1/2+x,1/2+y,z
1/2-x,1/2+y,1/2-z
1/2-x,1/2-y,-z
1/2+x,1/2-y,1/2+z
loop_
_atom_site_type_symbol
_atom_site_label
_atom_site_fract_x
_atom_site_fract_y
_atom_site_fract_z
Si Si1 0.450210 0.878021 0.359142
Si Si2 0.172470 0.660380 0.897830
Si Si3 0.458291 0.455758 0.771920
Si Si4 0.566155 0.908966 0.551861
Si Si5 0.192442 0.125965 0.791903
Si Si6 0.185451 0.356936 0.770835
Si Si7 0.379845 0.546900 0.342520
Si Si8 0.724500 0.369476 0.029583
O O1 0.394729 0.821753 0.289694
O O2 0.517130 0.848824 0.526038
O O3 0.445686 0.980117 0.436037
O O4 0.440975 0.890044 0.150258
O O5 0.209773 0.611274 0.853066
O O6 0.177446 0.607371 0.074729
O O7 0.208854 0.757359 0.010940
O O8 0.500000 0.402013 0.750000
O O9 0.424149 0.536116 0.589609
O O10 0.410802 0.406951 0.766225
O O11 0.500000 0.500000 0.000000
O O12 0.632307 0.890827 0.746672
O O13 0.180065 0.239956 0.761206
O O14 0.205226 0.088238 0.648053
O O15 0.140209 0.064103 0.733623
O O16 0.251871 0.114599 0.024294
O O17 0.318696 0.597404 0.210338
#
# Coordination Sequence:
#
# PCOD9279634 Si02
#       8
#     8   8   8   8   8   8   8   8
#     4   9  18  34  56  80 108 141 185 228 278 335
#     4   9  20  37  55  80 115 149 183 231 291 336
#     4   9  20  38  58  80 112 144 181 236 284 326
#     4   9  18  34  56  80 106 142 181 231 274 338
#     4  10  21  36  55  84 114 149 184 237 278 335
#     4   9  20  37  55  80 115 145 187 231 290 332
#     4  11  20  36  60  86 110 145 196 231 275 346
#     4  10  21  36  55  84 115 150 184 234 282 337
#
# _framework density 22.934829000000001
#
# number of rings (size 3 to 8) (size 9 to 14) (size 15 to 20)
#    0.000    2.500    1.250    0.000    3.500    1.000 
#    0.000    3.750    2.750    0.000    3.250    0.000 
#    0.000    0.000    0.000    0.000    0.000    0.000 
#
# Total GULP energy -178170.182642 kJ/mol
# GULP energy per Si atom -5567.818208 kJ/mol
# Density = 2.288263 g / cm^3
# Si number density = 22.934829 Si / 1000 Ang^3
#
#
#
# Elastic Constant Matrix: (Units=GPa)
#
#
# Indices 1 2 3 4 5 6 
#
# 1 162.0428 22.2787 31.6111 0.0000 31.9618 0.0000
# 2 22.2787 21.5155 -4.1885 0.0000 -0.1292 0.0000
# 3 31.6111 -4.1885 66.7276 0.0000 14.4868 0.0000
# 4 0.0000 0.0000 0.0000 15.2721 0.0000 -0.8039
# 5 31.9618 -0.1292 14.4868 0.0000 22.2963 0.0000
# 6 0.0000 0.0000 0.0000 -0.8039 0.0000 16.0946
#
#
#
# Elastic Compliance Matrix: (Units=1/GPa)
#
#
# Indices 1 2 3 4 5 6 
#
# 1 0.011271 -0.012344 -0.003017 0.000000 -0.014269 0.000000
# 2 -0.012344 0.060643 0.006678 0.000000 0.013708 0.000000
# 3 -0.003017 0.006678 0.018496 0.000000 -0.007655 0.000000
# 4 0.000000 0.000000 0.000000 0.065652 0.000000 0.003279
# 5 -0.014269 0.013708 -0.007655 0.000000 0.070358 0.000000
# 6 0.000000 0.000000 0.000000 0.003279 0.000000 0.062296
#
#
# Mechanical properties :
#
#
# Convention : Reuss Voigt Hill
#
# Bulk Modulus (GPa) = 13.69004 38.85427 26.27216
# Shear Modulus (GPa) = 15.13182 24.10490 19.61836
#
# Velocity S-wave (km/s) = 2.57139 3.24546 2.92789
# Velocity P-wave (km/s) = 3.84684 5.56973 4.78644
#
# Compressibility (1/GPa) = 0.07304581
#
# Stress axis : x y z
#
# Youngs Moduli (GPa) = 88.72123 16.49007 54.06434
#
# Poissons Ratio (x) = 0.20355 0.16309
# Poissons Ratio (y) = 1.09518 -0.36106
# Poissons Ratio (z) = 0.26763 -0.11013
#
# Static dielectric constant tensor:
#      x y z
#    x 1.983120 0.000000 0.015330 
#    y 0.000000 1.911400 0.000000 
#    z 0.015330 0.000000 1.875320 
# 
# From -- ./inp_files/70146.got.cif
#   From: 2010.05.17/outbox.cif.g08.bks.cpg/sg15_36_cif.got.tgz:70146.got - 2010.06.03 18:47:42.
