data_PCOD9279439
_publ_section_title
;
Structure prediction by ZEFSAII (Michael W. Deem and Ramdas Pophale) SiO2 
 PCOD9279439
Probable space group: C 2/C
;
_chemical_formula_sum "Si O2"
_cell_formula_units_Z 60
_cell_length_a 27.166232
_cell_length_b 23.946528
_cell_length_c 15.545732
_cell_angle_alpha 90.000000
_cell_angle_beta 162.635287
_cell_angle_gamma 90.000000
_cell_volume 3018.277371
_symmetry_space_group_name_H-M "C 2/C"
_symmetry_group_IT_number 15
_symmetry_cell_setting 'monoclinic'
loop_
_space_group_symop_operation_xyz
x,y,z
-x,y,1/2-z
-x,-y,-z
x,-y,1/2+z
1/2+x,1/2+y,z
1/2-x,1/2+y,1/2-z
1/2-x,1/2-y,-z
1/2+x,1/2-y,1/2+z
loop_
_atom_site_type_symbol
_atom_site_label
_atom_site_fract_x
_atom_site_fract_y
_atom_site_fract_z
Si Si1 0.884946 0.481670 0.420328
Si Si2 0.848056 0.923948 0.939362
Si Si3 0.745594 0.843199 0.041857
Si Si4 0.060691 0.334390 0.448397
Si Si5 0.812968 0.779523 0.978594
Si Si6 0.469175 0.433877 0.948768
Si Si7 0.000000 0.408032 0.750000
Si Si8 0.356932 0.924306 0.195219
O O1 0.724416 0.519605 0.141392
O O2 0.894634 0.439673 0.356513
O O3 0.873863 0.448728 0.490674
O O4 0.041389 0.524716 0.682344
O O5 0.699394 0.881473 0.687411
O O6 0.894211 0.928010 0.918130
O O7 0.000000 0.905658 0.250000
O O8 0.720945 0.781328 0.038640
O O9 0.888963 0.885925 0.313611
O O10 0.780001 0.827247 0.998149
O O11 0.584867 0.874123 0.813996
O O12 0.164826 0.284327 0.662033
O O13 0.919426 0.363295 0.270100
O O14 0.000000 0.326060 0.250000
O O15 0.000000 0.782053 0.250000
O O16 0.333220 0.425360 0.648205
O O17 0.500000 0.500000 0.000000
#
# Coordination Sequence:
#
# PCOD9279439 Si02
#       8
#     8   8   8   8   8   8   4   8
#     4  10  21  35  60  87 138 182 221 262 338 404
#     4  11  21  35  58  92 126 173 221 270 320 395
#     4  11  25  43  70  99 130 175 230 274 346 399
#     4  11  21  37  64  93 127 171 225 279 340 384
#     4  11  24  47  72  97 129 175 232 288 330 403
#     4  12  22  37  61  94 132 169 215 275 332 398
#     4  12  22  42  62  96 132 176 218 284 336 404
#     4  10  21  37  55  95 133 179 224 269 328 410
#
# _framework density 19.878889000000001
#
# number of rings (size 3 to 8) (size 9 to 14) (size 15 to 20)
#    0.000    1.067    2.000    6.000    1.867    2.133 
#    0.000    2.000    0.000    0.000    0.000    0.000 
#    0.000    0.000    0.000    0.000    0.000    0.000 
#
# Total GULP energy -167023.782761 kJ/mol
# GULP energy per Si atom -5567.459425 kJ/mol
# Density = 1.983364 g / cm^3
# Si number density = 19.878889 Si / 1000 Ang^3
#
#
#
# Elastic Constant Matrix: (Units=GPa)
#
#
# Indices 1 2 3 4 5 6 
#
# 1 80.1915 35.2010 22.2607 0.0000 -4.8288 0.0000
# 2 35.2010 73.0817 40.6274 0.0000 -2.3721 0.0000
# 3 22.2607 40.6274 111.1566 0.0000 -10.3058 0.0000
# 4 0.0000 0.0000 0.0000 22.0246 0.0000 -8.7675
# 5 -4.8288 -2.3721 -10.3058 0.0000 32.6004 0.0000
# 6 0.0000 0.0000 0.0000 -8.7675 0.0000 -13.7876
#
#
#
# Elastic Compliance Matrix: (Units=1/GPa)
#
#
# Indices 1 2 3 4 5 6 
#
# 1 0.015927 -0.007444 -0.000310 0.000000 0.001720 0.000000
# 2 -0.007444 0.020670 -0.006209 0.000000 -0.001561 0.000000
# 3 -0.000310 -0.006209 0.011622 0.000000 0.003176 0.000000
# 4 0.000000 0.000000 0.000000 0.036232 0.000000 -0.023040
# 5 0.001720 -0.001561 0.003176 0.000000 0.031820 0.000000
# 6 0.000000 0.000000 0.000000 -0.023040 0.000000 -0.057878
#
#
# Mechanical properties :
#
#
# Convention : Reuss Voigt Hill
#
# Bulk Modulus (GPa) = 49.27353 51.17866 50.22610
# Shear Modulus (GPa) = 53.71640 19.25686 36.48663
#
# Velocity S-wave (km/s) = 5.20389 3.11579 4.28886
# Velocity P-wave (km/s) = 7.80692 6.22457 7.06022
#
# Compressibility (1/GPa) = 0.02029487
#
# Stress axis : x y z
#
# Youngs Moduli (GPa) = 62.78607 48.38042 86.04319
#
# Poissons Ratio (x) = 0.36013 0.02664
# Poissons Ratio (y) = 0.46736 0.53422
# Poissons Ratio (z) = 0.01944 0.30038
#
# Static dielectric constant tensor:
#      x y z
#    x 1.756210 0.000000 0.114580 
#    y 0.000000 1.777580 0.000000 
#    z 0.114580 0.000000 1.867140 
# 
# From -- ./inp_files/179292.got.cif
#   From: 2010.05.17/outbox.cif.g08.bks.cpg/sg15_90_cif.got.tgz:179292.got - 2010.06.03 18:47:42.
