data_PCOD9279034
_publ_section_title
;
Structure prediction by ZEFSAII (Michael W. Deem and Ramdas Pophale) SiO2 
 PCOD9279034
Probable space group: C 2/C
;
_chemical_formula_sum "Si O2"
_cell_formula_units_Z 56
_cell_length_a 13.851317
_cell_length_b 10.063548
_cell_length_c 25.604049
_cell_angle_alpha 90.000000
_cell_angle_beta 122.769221
_cell_angle_gamma 90.000000
_cell_volume 3001.050027
_symmetry_space_group_name_H-M "C 2/C"
_symmetry_group_IT_number 15
_symmetry_cell_setting 'monoclinic'
loop_
_space_group_symop_operation_xyz
x,y,z
-x,y,1/2-z
-x,-y,-z
x,-y,1/2+z
1/2+x,1/2+y,z
1/2-x,1/2+y,1/2-z
1/2-x,1/2-y,-z
1/2+x,1/2-y,1/2+z
loop_
_atom_site_type_symbol
_atom_site_label
_atom_site_fract_x
_atom_site_fract_y
_atom_site_fract_z
Si Si1 0.254192 0.856986 0.405413
Si Si2 0.346546 0.813760 0.316405
Si Si3 0.272731 0.155679 0.387854
Si Si4 0.556536 0.143363 0.357591
Si Si5 0.200805 0.594352 0.226738
Si Si6 0.929577 0.637901 0.675059
Si Si7 0.976192 0.630195 0.028828
O O1 0.307219 0.837739 0.363494
O O2 0.138592 0.770734 0.376705
O O3 0.356545 0.810179 0.473652
O O4 0.239624 0.016983 0.407026
O O5 0.297280 0.673560 0.284910
O O6 0.480684 0.827996 0.344819
O O7 0.297128 0.935438 0.266537
O O8 0.280324 0.119604 0.328932
O O9 0.177437 0.267029 0.363390
O O10 0.401004 0.203142 0.440827
O O11 0.425773 0.153064 0.297758
O O12 0.541582 0.106868 0.414586
O O13 0.605809 0.015736 0.341609
O O14 0.000000 0.658308 0.750000
O O15 0.000000 0.500000 0.000000
#
# Coordination Sequence:
#
# PCOD9279034 Si02
#       7
#     8   8   8   8   8   8   8
#     4  10  21  37  58  84 110 149 191 231 273 336
#     4  10  21  34  54  77 114 144 189 219 284 326
#     4   9  19  37  57  80 108 151 185 223 280 336
#     4  10  22  35  58  86 113 143 191 232 286 324
#     4   9  19  35  51  78 108 150 177 228 271 337
#     4  11  21  36  55  82 115 148 182 232 289 339
#     4   9  18  40  63  79 112 152 189 229 281 340
#
# _framework density 18.660136000000001
#
# number of rings (size 3 to 8) (size 9 to 14) (size 15 to 20)
#    0.000    2.286    1.429    3.000    4.000    1.143 
#    0.000    8.571    0.000    0.000    0.000    0.000 
#    0.000    0.000    0.000    0.000    0.000    0.000 
#
# Total GULP energy -155972.604071 kJ/mol
# GULP energy per Si atom -5570.450145 kJ/mol
# Density = 1.861766 g / cm^3
# Si number density = 18.660136 Si / 1000 Ang^3
#
#
#
# Elastic Constant Matrix: (Units=GPa)
#
#
# Indices 1 2 3 4 5 6 
#
# 1 70.1625 41.0212 2.4549 0.0000 3.5490 0.0000
# 2 41.0212 71.2245 12.0784 0.0000 22.3053 0.0000
# 3 2.4549 12.0784 43.3593 0.0000 8.4119 0.0000
# 4 0.0000 0.0000 0.0000 20.8736 0.0000 7.8139
# 5 3.5490 22.3053 8.4119 0.0000 22.5234 0.0000
# 6 0.0000 0.0000 0.0000 7.8139 0.0000 30.7334
#
#
#
# Elastic Compliance Matrix: (Units=1/GPa)
#
#
# Indices 1 2 3 4 5 6 
#
# 1 0.024451 -0.018745 0.001060 0.000000 0.014315 0.000000
# 2 -0.018745 0.034868 -0.002723 0.000000 -0.030560 0.000000
# 3 0.001060 -0.002723 0.025089 0.000000 -0.006840 0.000000
# 4 0.000000 0.000000 0.000000 0.052947 0.000000 -0.013462
# 5 0.014315 -0.030560 -0.006840 0.000000 0.074961 0.000000
# 6 0.000000 0.000000 0.000000 -0.013462 0.000000 0.035960
#
#
# Mechanical properties :
#
#
# Convention : Reuss Voigt Hill
#
# Bulk Modulus (GPa) = 22.93985 32.87281 27.90633
# Shear Modulus (GPa) = 16.46778 23.43886 19.95332
#
# Velocity S-wave (km/s) = 2.97393 3.54799 3.27357
# Velocity P-wave (km/s) = 4.91045 5.86848 5.41071
#
# Compressibility (1/GPa) = 0.04359226
#
# Stress axis : x y z
#
# Youngs Moduli (GPa) = 40.89818 28.67920 39.85861
#
# Poissons Ratio (x) = 0.53760 -0.04226
# Poissons Ratio (y) = 0.76664 0.10854
# Poissons Ratio (z) = -0.04336 0.07810
#
# Static dielectric constant tensor:
#      x y z
#    x 1.661580 0.000000 -0.009360 
#    y 0.000000 1.661990 0.000000 
#    z -0.009360 0.000000 1.676570 
# 
# From -- ./inp_files/295245.got.cif
#   From: 2010.05.17/outbox.cif.g08.bks.cpg/sg15_148_cif.got.tgz:295245.got - 2010.06.03 18:47:42.
