data_PCOD9279090
_publ_section_title
;
Structure prediction by ZEFSAII (Michael W. Deem and Ramdas Pophale) SiO2 
 PCOD9279090
Probable space group: C 2/C
;
_chemical_formula_sum "Si O2"
_cell_formula_units_Z 40
_cell_length_a 13.254041
_cell_length_b 17.692514
_cell_length_c 13.222538
_cell_angle_alpha 90.000000
_cell_angle_beta 37.193071
_cell_angle_gamma 90.000000
_cell_volume 1874.351275
_symmetry_space_group_name_H-M "C 2/C"
_symmetry_group_IT_number 15
_symmetry_cell_setting 'monoclinic'
loop_
_space_group_symop_operation_xyz
x,y,z
-x,y,1/2-z
-x,-y,-z
x,-y,1/2+z
1/2+x,1/2+y,z
1/2-x,1/2+y,1/2-z
1/2-x,1/2-y,-z
1/2+x,1/2-y,1/2+z
loop_
_atom_site_type_symbol
_atom_site_label
_atom_site_fract_x
_atom_site_fract_y
_atom_site_fract_z
Si Si1 0.303780 0.905894 0.388129
Si Si2 0.460093 0.763341 0.041965
Si Si3 0.986154 0.010058 0.130883
Si Si4 0.829622 0.138843 0.726229
Si Si5 0.295943 0.665342 0.335139
O O1 0.500000 0.919017 0.250000
O O2 0.264422 0.886145 0.303289
O O3 0.238492 0.841105 0.517618
O O4 0.175890 0.974633 0.514290
O O5 0.306014 0.806766 0.115465
O O6 0.406702 0.730819 0.195365
O O7 0.518178 0.690959 0.932063
O O8 0.615742 0.819389 0.929988
O O9 0.892410 0.933627 0.236139
O O10 0.881564 0.085965 0.236761
O O11 0.000000 0.000000 0.000000
#
# Coordination Sequence:
#
# PCOD9279090 Si02
#       5
#     8   8   8   8   8
#     4  11  21  36  53  85 113 153 186 224 276 334
#     4  10  21  34  56  87 115 148 183 224 290 330
#     4  10  21  39  53  74 118 155 189 228 265 340
#     4  10  21  38  54  81 120 146 190 228 275 339
#     4  11  21  35  56  82 117 148 188 220 285 332
#
# _framework density 21.340717000000001
#
# number of rings (size 3 to 8) (size 9 to 14) (size 15 to 20)
#    0.000    1.600    6.000    0.600    0.000    5.600 
#    0.000    0.000    0.000    0.000    0.000    9.800 
#    0.000    0.000    0.000    0.000    0.000    0.000 
#
# Total GULP energy -111549.276788 kJ/mol
# GULP energy per Si atom -5577.463839 kJ/mol
# Density = 2.129214 g / cm^3
# Si number density = 21.340717 Si / 1000 Ang^3
#
#
#
# Elastic Constant Matrix: (Units=GPa)
#
#
# Indices 1 2 3 4 5 6 
#
# 1 41.1044 48.1455 38.7166 0.0014 -13.8350 -0.0013
# 2 48.1455 126.6213 66.7075 0.0017 -41.2732 -0.0017
# 3 38.7166 66.7075 120.0156 0.0033 -38.4845 -0.0027
# 4 0.0014 0.0017 0.0033 31.3867 -0.0023 -13.0533
# 5 -13.8350 -41.2732 -38.4845 -0.0023 39.5104 0.0015
# 6 -0.0013 -0.0017 -0.0027 -13.0533 0.0015 29.8632
#
#
#
# Elastic Compliance Matrix: (Units=1/GPa)
#
#
# Indices 1 2 3 4 5 6 
#
# 1 0.050478 -0.017222 -0.009907 -0.000001 -0.009965 0.000000
# 2 -0.017222 0.019210 -0.000902 0.000001 0.013158 0.000000
# 3 -0.009907 -0.000902 0.015437 0.000000 0.010624 0.000000
# 4 -0.000001 0.000001 0.000000 0.038939 0.000002 0.017020
# 5 -0.009965 0.013158 0.010624 0.000002 0.045914 0.000000
# 6 0.000000 0.000000 0.000000 0.017020 0.000000 0.040926
#
#
# Mechanical properties :
#
#
# Convention : Reuss Voigt Hill
#
# Bulk Modulus (GPa) = 34.40965 66.09784 50.25374
# Shear Modulus (GPa) = 18.07310 29.09684 23.58497
#
# Velocity S-wave (km/s) = 2.91328 3.69649 3.32801
# Velocity P-wave (km/s) = 5.24168 7.01845 6.19410
#
# Compressibility (1/GPa) = 0.02906162
#
# Stress axis : x y z
#
# Youngs Moduli (GPa) = 19.81056 52.05497 64.78152
#
# Poissons Ratio (x) = 0.89651 0.64178
# Poissons Ratio (y) = 0.34119 0.05846
# Poissons Ratio (z) = 0.19626 0.04698
#
# Static dielectric constant tensor:
#      x y z
#    x 1.772800 0.000000 0.010220 
#    y 0.000000 1.803580 0.000000 
#    z 0.010220 0.000000 1.842150 
# 
# From -- ./inp_files/30370.got.cif
#   From: 2010.05.17/outbox.cif.g08.bks.cpg/sg15_16_cif.got.tgz:30370.got - 2010.06.03 18:47:42.
