data_PCOD9279771
_publ_section_title
;
Structure prediction by ZEFSAII (Michael W. Deem and Ramdas Pophale) SiO2 
 PCOD9279771
Probable space group: C 2/C
;
_chemical_formula_sum "Si O2"
_cell_formula_units_Z 40
_cell_length_a 15.716280
_cell_length_b 20.772361
_cell_length_c 9.771076
_cell_angle_alpha 90.000000
_cell_angle_beta 32.809497
_cell_angle_gamma 90.000000
_cell_volume 1728.443184
_symmetry_space_group_name_H-M "C 2/C"
_symmetry_group_IT_number 15
_symmetry_cell_setting 'monoclinic'
loop_
_space_group_symop_operation_xyz
x,y,z
-x,y,1/2-z
-x,-y,-z
x,-y,1/2+z
1/2+x,1/2+y,z
1/2-x,1/2+y,1/2-z
1/2-x,1/2-y,-z
1/2+x,1/2-y,1/2+z
loop_
_atom_site_type_symbol
_atom_site_label
_atom_site_fract_x
_atom_site_fract_y
_atom_site_fract_z
Si Si1 0.544982 0.395830 0.449267
Si Si2 0.860595 0.462497 0.613310
Si Si3 0.813969 0.683178 0.544172
Si Si4 0.275651 0.327970 0.646419
Si Si5 0.824186 0.986547 0.894152
O O1 0.714898 0.368408 0.266070
O O2 0.430807 0.348359 0.518457
O O3 0.429669 0.424853 0.719416
O O4 0.588053 0.452962 0.288896
O O5 0.850322 0.384515 0.645125
O O6 0.827246 0.477470 0.500223
O O7 0.000000 0.500000 0.500000
O O8 0.718672 0.492672 0.895716
O O9 0.730683 0.672507 0.509818
O O10 0.768317 0.750873 0.675730
O O11 0.000000 0.679088 0.250000
#
# Coordination Sequence:
#
# PCOD9279771 Si02
#       5
#     8   8   8   8   8
#     4  10  21  38  58  89 128 165 211 254 329 390
#     4  11  23  39  63  99 131 163 218 270 323 384
#     4  11  21  32  61  93 127 161 217 276 324 368
#     4  10  21  36  58  89 129 167 203 274 331 371
#     4  10  23  38  66  89 130 179 206 265 323 393
#
# _framework density 23.142213999999999
#
# number of rings (size 3 to 8) (size 9 to 14) (size 15 to 20)
#    0.000    1.600    2.000    3.600    5.600    2.400 
#    0.000    0.000    0.000    1.200   10.400    0.000 
#    0.000    0.000    0.000    0.000    0.000    0.000 
#
# Total GULP energy -111372.894660 kJ/mol
# GULP energy per Si atom -5568.644733 kJ/mol
# Density = 2.308954 g / cm^3
# Si number density = 23.142214 Si / 1000 Ang^3
#
#
#
# Elastic Constant Matrix: (Units=GPa)
#
#
# Indices 1 2 3 4 5 6 
#
# 1 88.1434 32.5591 15.9487 0.0021 -15.7163 -0.0010
# 2 32.5591 127.9934 44.4138 0.0005 -19.6283 0.0001
# 3 15.9487 44.4138 87.4293 0.0029 -28.7631 -0.0007
# 4 0.0021 0.0005 0.0029 11.8587 -0.0030 -14.6005
# 5 -15.7163 -19.6283 -28.7631 -0.0030 37.9944 0.0013
# 6 -0.0010 0.0001 -0.0007 -14.6005 0.0013 34.9764
#
#
#
# Elastic Compliance Matrix: (Units=1/GPa)
#
#
# Indices 1 2 3 4 5 6 
#
# 1 0.013072 -0.002828 0.000466 -0.000002 0.004299 -0.000001
# 2 -0.002828 0.010177 -0.004407 0.000002 0.000752 0.000001
# 3 0.000466 -0.004407 0.017186 -0.000003 0.010927 -0.000001
# 4 -0.000002 0.000002 -0.000003 0.173493 0.000009 0.072422
# 5 0.004299 0.000752 0.010927 0.000009 0.036759 0.000003
# 6 -0.000001 0.000001 -0.000001 0.072422 0.000003 0.058823
#
#
# Mechanical properties :
#
#
# Convention : Reuss Voigt Hill
#
# Bulk Modulus (GPa) = 37.17642 54.37881 45.77762
# Shear Modulus (GPa) = 15.05977 31.00886 23.03431
#
# Velocity S-wave (km/s) = 2.55375 3.66447 3.15832
# Velocity P-wave (km/s) = 4.97943 6.43841 5.75534
#
# Compressibility (1/GPa) = 0.02689877
#
# Stress axis : x y z
#
# Youngs Moduli (GPa) = 76.49995 98.26490 58.18667
#
# Poissons Ratio (x) = 0.27787 -0.02714
# Poissons Ratio (y) = 0.21632 0.25640
# Poissons Ratio (z) = -0.03568 0.43301
#
# Static dielectric constant tensor:
#      x y z
#    x -0.339150 -0.000030 1.840340 
#    y -0.000030 1.957140 0.000030 
#    z 1.840340 0.000030 0.392720 
# 
# From -- ./inp_files/107435.got.cif
#   From: 2010.05.17/outbox.cif.g08.bks.cpg/sg15_54_cif.got.tgz:107435.got - 2010.06.03 18:47:42.
