data_PCOD9279650
_publ_section_title
;
Structure prediction by ZEFSAII (Michael W. Deem and Ramdas Pophale) SiO2 
 PCOD9279650
Probable space group: C 2/C
;
_chemical_formula_sum "Si O2"
_cell_formula_units_Z 56
_cell_length_a 27.775220
_cell_length_b 12.290602
_cell_length_c 23.781367
_cell_angle_alpha 90.000000
_cell_angle_beta 161.498586
_cell_angle_gamma 90.000000
_cell_volume 2576.178519
_symmetry_space_group_name_H-M "C 2/C"
_symmetry_group_IT_number 15
_symmetry_cell_setting 'monoclinic'
loop_
_space_group_symop_operation_xyz
x,y,z
-x,y,1/2-z
-x,-y,-z
x,-y,1/2+z
1/2+x,1/2+y,z
1/2-x,1/2+y,1/2-z
1/2-x,1/2-y,-z
1/2+x,1/2-y,1/2+z
loop_
_atom_site_type_symbol
_atom_site_label
_atom_site_fract_x
_atom_site_fract_y
_atom_site_fract_z
Si Si1 0.736284 0.296161 0.904961
Si Si2 0.093589 0.942097 0.526301
Si Si3 0.032705 0.400232 0.885208
Si Si4 0.716103 0.300086 0.558381
Si Si5 0.500000 0.434539 0.250000
Si Si6 0.000000 0.567145 0.750000
Si Si7 0.570905 0.386875 0.915569
Si Si8 0.774073 0.967764 0.707311
O O1 0.560828 0.298810 0.726251
O O2 0.739645 0.366072 0.850618
O O3 0.851359 0.360399 0.072971
O O4 0.792238 0.173504 0.961960
O O5 0.145996 0.856050 0.537242
O O6 0.914529 0.954610 0.342507
O O7 0.125409 0.060234 0.533678
O O8 0.183285 0.928827 0.683440
O O9 0.978342 0.488662 0.779685
O O10 0.893016 0.326902 0.751063
O O11 0.158248 0.322736 0.995302
O O12 0.120036 0.463952 0.031183
O O13 0.640419 0.358242 0.420425
O O14 0.507238 0.515438 0.205337
#
# Coordination Sequence:
#
# PCOD9279650 Si02
#       8
#     8   8   8   8   4   4   8   8
#     4  10  21  36  56  82 111 144 183 227 277 332
#     4   9  20  40  61  82 113 151 190 234 282 334
#     4  11  23  38  59  86 115 149 190 236 287 343
#     4  11  23  38  59  86 115 149 190 236 287 343
#     4  10  22  38  58  80 110 150 192 232 278 336
#     4  10  22  38  58  80 110 150 192 232 278 336
#     4  10  21  36  56  82 111 144 183 227 277 332
#     4   9  20  40  61  82 113 151 190 234 282 334
#
# _framework density 21.737625000000001
#
# number of rings (size 3 to 8) (size 9 to 14) (size 15 to 20)
#    0.000    2.000    0.000    2.571    0.000   13.143 
#    0.000    2.857    0.000    0.000    0.000    0.000 
#    0.000    0.000    0.000    0.000    0.000    0.000 
#
# Total GULP energy -156416.679075 kJ/mol
# GULP energy per Si atom -5586.309967 kJ/mol
# Density = 2.168815 g / cm^3
# Si number density = 21.737625 Si / 1000 Ang^3
#
#
#
# Elastic Constant Matrix: (Units=GPa)
#
#
# Indices 1 2 3 4 5 6 
#
# 1 54.4096 5.5315 33.4868 -0.0012 -16.9068 -0.0007
# 2 5.5315 34.8753 26.1875 -0.0024 -8.5835 -0.0017
# 3 33.4868 26.1875 100.4854 -0.0011 -26.1474 -0.0007
# 4 -0.0012 -0.0024 -0.0011 24.8234 -0.0010 1.8674
# 5 -16.9068 -8.5835 -26.1474 -0.0010 33.3465 -0.0007
# 6 -0.0007 -0.0017 -0.0007 1.8674 -0.0007 18.5964
#
#
#
# Elastic Compliance Matrix: (Units=1/GPa)
#
#
# Indices 1 2 3 4 5 6 
#
# 1 0.024863 0.003331 -0.007099 0.000001 0.007897 0.000001
# 2 0.003331 0.036247 -0.009660 0.000003 0.003444 0.000003
# 3 -0.007099 -0.009660 0.016648 0.000000 0.006968 0.000000
# 4 0.000001 0.000003 0.000000 0.040591 0.000002 -0.004076
# 5 0.007897 0.003444 0.006968 0.000002 0.040342 0.000002
# 6 0.000001 0.000003 0.000000 -0.004076 0.000002 0.054183
#
#
# Mechanical properties :
#
#
# Convention : Reuss Voigt Hill
#
# Bulk Modulus (GPa) = 19.64580 35.57577 27.61078
# Shear Modulus (GPa) = 19.47812 23.65757 21.56785
#
# Velocity S-wave (km/s) = 2.99667 3.30255 3.15332
# Velocity P-wave (km/s) = 4.58592 5.56273 5.09778
#
# Compressibility (1/GPa) = 0.05090147
#
# Stress axis : x y z
#
# Youngs Moduli (GPa) = 40.21992 27.58881 60.06690
#
# Poissons Ratio (x) = -0.09188 0.42640
# Poissons Ratio (y) = -0.13395 0.58024
# Poissons Ratio (z) = 0.28551 0.26651
#
# Static dielectric constant tensor:
#      x y z
#    x 1.816270 0.000000 0.009950 
#    y 0.000000 1.794830 0.000000 
#    z 0.009950 0.000000 1.766310 
# 
# From -- ./inp_files/284671.got.cif
#   From: 2010.05.17/outbox.cif.g08.bks.cpg/sg15_143_cif.got.tgz:284671.got - 2010.06.03 18:47:42.
