data_PCOD9279666
_publ_section_title
;
Structure prediction by ZEFSAII (Michael W. Deem and Ramdas Pophale) SiO2 
 PCOD9279666
Probable space group: C 2/C
;
_chemical_formula_sum "Si O2"
_cell_formula_units_Z 56
_cell_length_a 17.847514
_cell_length_b 24.132059
_cell_length_c 8.944764
_cell_angle_alpha 90.000000
_cell_angle_beta 47.708054
_cell_angle_gamma 90.000000
_cell_volume 2849.782395
_symmetry_space_group_name_H-M "C 2/C"
_symmetry_group_IT_number 15
_symmetry_cell_setting 'monoclinic'
loop_
_space_group_symop_operation_xyz
x,y,z
-x,y,1/2-z
-x,-y,-z
x,-y,1/2+z
1/2+x,1/2+y,z
1/2-x,1/2+y,1/2-z
1/2-x,1/2-y,-z
1/2+x,1/2-y,1/2+z
loop_
_atom_site_type_symbol
_atom_site_label
_atom_site_fract_x
_atom_site_fract_y
_atom_site_fract_z
Si Si1 0.450078 0.673392 0.471087
Si Si2 0.398294 0.453616 0.968216
Si Si3 0.621396 0.005536 0.346154
Si Si4 0.587238 0.634777 0.532594
Si Si5 0.272035 0.689542 0.907745
Si Si6 0.120841 0.587686 0.068962
Si Si7 0.706602 0.542719 0.193512
O O1 0.500000 0.693186 0.250000
O O2 0.426875 0.607722 0.482847
O O3 0.529989 0.677439 0.499514
O O4 0.343204 0.697372 0.666602
O O5 0.500000 0.475172 0.750000
O O6 0.312623 0.453974 0.955583
O O7 0.354989 0.489966 0.159870
O O8 0.649627 0.042150 0.160439
O O9 0.679106 0.040775 0.398138
O O10 0.500000 0.000000 0.500000
O O11 0.643733 0.943298 0.381063
O O12 0.500000 0.606362 0.750000
O O13 0.660561 0.661390 0.554134
O O14 0.649194 0.593767 0.346064
O O15 0.250000 0.750000 0.000000
O O16 0.182375 0.645083 0.999445
O O17 0.000000 0.597093 0.250000
#
# Coordination Sequence:
#
# PCOD9279666 Si02
#       7
#     8   8   8   8   8   8   8
#     4  10  21  41  60  90 128 158 207 267 329 383
#     4  11  22  30  51  88 125 164 196 248 313 387
#     4  10  21  36  56  85 120 164 211 268 319 377
#     4  10  21  36  59  86 122 162 205 262 321 387
#     4  11  24  42  65  93 125 174 222 266 333 405
#     4  10  21  39  62  90 125 165 219 270 323 386
#     4  12  20  32  53  84 127 163 206 248 320 381
#
# _framework density 19.650624000000001
#
# number of rings (size 3 to 8) (size 9 to 14) (size 15 to 20)
#    0.000    1.429    4.286    2.571    4.000    1.714 
#    0.000    0.714    0.000    4.286    0.000    0.000 
#    0.000    0.000    0.000    0.000    0.000    0.000 
#
# Total GULP energy -156013.416324 kJ/mol
# GULP energy per Si atom -5571.907726 kJ/mol
# Density = 1.960590 g / cm^3
# Si number density = 19.650624 Si / 1000 Ang^3
#
#
#
# Elastic Constant Matrix: (Units=GPa)
#
#
# Indices 1 2 3 4 5 6 
#
# 1 120.7867 21.1093 34.2742 0.0000 -8.6835 0.0000
# 2 21.1093 90.8638 44.0715 0.0000 -11.6372 0.0000
# 3 34.2742 44.0715 125.3975 0.0000 -1.1830 0.0000
# 4 0.0000 0.0000 0.0000 7.5621 0.0000 12.9649
# 5 -8.6835 -11.6372 -1.1830 0.0000 31.6978 0.0000
# 6 0.0000 0.0000 0.0000 12.9649 0.0000 -2.6753
#
#
#
# Elastic Compliance Matrix: (Units=1/GPa)
#
#
# Indices 1 2 3 4 5 6 
#
# 1 0.009200 -0.000786 -0.002218 0.000000 0.002149 0.000000
# 2 -0.000786 0.014073 -0.004686 0.000000 0.004776 0.000000
# 3 -0.002218 -0.004686 0.010209 0.000000 -0.001947 0.000000
# 4 0.000000 0.000000 0.000000 0.014206 0.000000 0.068845
# 5 0.002149 0.004776 -0.001947 0.000000 0.033817 0.000000
# 6 0.000000 0.000000 0.000000 0.068845 0.000000 -0.040155
#
#
# Mechanical properties :
#
#
# Convention : Reuss Voigt Hill
#
# Bulk Modulus (GPa) = 55.24316 59.55089 57.39703
# Shear Modulus (GPa) = 79.66214 23.15646 51.40930
#
# Velocity S-wave (km/s) = 6.37395 3.43652 5.12040
# Velocity P-wave (km/s) = 9.07432 6.79094 8.01437
#
# Compressibility (1/GPa) = 0.01810179
#
# Stress axis : x y z
#
# Youngs Moduli (GPa) = 108.69136 71.05975 97.94898
#
# Poissons Ratio (x) = 0.05588 0.21725
# Poissons Ratio (y) = 0.08547 0.45898
# Poissons Ratio (z) = 0.24108 0.33298
#
# Static dielectric constant tensor:
#      x y z
#    x 1.738570 0.000000 -0.015920 
#    y 0.000000 1.692820 0.000000 
#    z -0.015920 0.000000 1.762120 
# 
# From -- ./inp_files/51467.got.cif
#   From: 2010.05.17/outbox.cif.g08.bks.cpg/sg15_26_cif.got.tgz:51467.got - 2010.06.03 18:47:42.
