data_PCOD9279165
_publ_section_title
;
Structure prediction by ZEFSAII (Michael W. Deem and Ramdas Pophale) SiO2 
 PCOD9279165
Probable space group: C 2/C
;
_chemical_formula_sum "Si O2"
_cell_formula_units_Z 44
_cell_length_a 9.398548
_cell_length_b 12.703460
_cell_length_c 18.933168
_cell_angle_alpha 90.000000
_cell_angle_beta 110.470533
_cell_angle_gamma 90.000000
_cell_volume 2117.761976
_symmetry_space_group_name_H-M "C 2/C"
_symmetry_group_IT_number 15
_symmetry_cell_setting 'monoclinic'
loop_
_space_group_symop_operation_xyz
x,y,z
-x,y,1/2-z
-x,-y,-z
x,-y,1/2+z
1/2+x,1/2+y,z
1/2-x,1/2+y,1/2-z
1/2-x,1/2-y,-z
1/2+x,1/2-y,1/2+z
loop_
_atom_site_type_symbol
_atom_site_label
_atom_site_fract_x
_atom_site_fract_y
_atom_site_fract_z
Si Si1 0.246632 0.061213 0.935390
Si Si2 0.464014 0.091619 0.559185
Si Si3 0.447192 0.576881 0.370493
Si Si4 0.958971 0.204544 0.519493
Si Si5 0.000000 0.763999 0.750000
Si Si6 0.750792 0.622181 0.653000
O O1 0.362059 0.066177 0.890123
O O2 0.182370 0.171002 0.954276
O O3 0.100534 0.991537 0.897612
O O4 0.358880 0.000652 0.009030
O O5 0.492574 0.184347 0.506904
O O6 0.369720 0.123571 0.609653
O O7 0.438408 0.629439 0.446928
O O8 0.474471 0.661519 0.313932
O O9 0.307001 0.494978 0.336027
O O10 0.101543 0.175328 0.593818
O O11 0.152891 0.692518 0.776652
#
# Coordination Sequence:
#
# PCOD9279165 Si02
#       6
#     8   8   8   8   4   8
#     4  10  21  34  60  98 122 155 196 271 314 358
#     4  11  19  33  62  96 126 148 202 260 321 366
#     4  11  22  42  65  86 125 164 214 255 318 375
#     4  11  19  39  65  94 119 159 205 266 313 369
#     4  12  26  40  64  90 126 182 208 256 322 386
#     4  11  22  40  67  91 121 165 213 259 309 380
#
# _framework density 20.776651000000001
#
# number of rings (size 3 to 8) (size 9 to 14) (size 15 to 20)
#    0.000    1.091    5.455    3.273    0.000    1.455 
#    0.000    0.000    4.000    0.000    0.000    0.000 
#    0.000    0.000    0.000    0.000    0.000    0.000 
#
# Total GULP energy -122487.646727 kJ/mol
# GULP energy per Si atom -5567.620306 kJ/mol
# Density = 2.072936 g / cm^3
# Si number density = 20.776651 Si / 1000 Ang^3
#
#
#
# Elastic Constant Matrix: (Units=GPa)
#
#
# Indices 1 2 3 4 5 6 
#
# 1 138.5134 29.6809 11.1545 0.0000 10.8163 0.0000
# 2 29.6809 114.3232 30.1479 0.0000 16.7132 0.0000
# 3 11.1545 30.1479 54.2098 0.0000 15.3135 0.0000
# 4 0.0000 0.0000 0.0000 46.7121 0.0000 -0.3148
# 5 10.8163 16.7132 15.3135 0.0000 -5.8039 0.0000
# 6 0.0000 0.0000 0.0000 -0.3148 0.0000 27.7220
#
#
#
# Elastic Compliance Matrix: (Units=1/GPa)
#
#
# Indices 1 2 3 4 5 6 
#
# 1 0.007487 -0.002133 -0.001467 0.000000 0.003940 0.000000
# 2 -0.002133 0.010205 -0.007114 0.000000 0.006644 0.000000
# 3 -0.001467 -0.007114 0.016767 0.000000 0.021020 0.000000
# 4 0.000000 0.000000 0.000000 0.021409 0.000000 0.000243
# 5 0.003940 0.006644 0.021020 0.000000 -0.090361 0.000000
# 6 0.000000 0.000000 0.000000 0.000243 0.000000 0.036075
#
#
# Mechanical properties :
#
#
# Convention : Reuss Voigt Hill
#
# Bulk Modulus (GPa) = 76.73468 49.89033 63.31250
# Shear Modulus (GPa) = 182.78761 29.46358 106.12559
#
# Velocity S-wave (km/s) = 9.38980 3.76987 7.15473
# Velocity P-wave (km/s) = 12.43267 6.55851 9.93945
#
# Compressibility (1/GPa) = 0.01303192
#
# Stress axis : x y z
#
# Youngs Moduli (GPa) = 133.56371 97.98677 59.64108
#
# Poissons Ratio (x) = 0.20899 0.08751
# Poissons Ratio (y) = 0.28487 0.42426
# Poissons Ratio (z) = 0.19599 0.69704
#
# Static dielectric constant tensor:
#      x y z
#    x 1.811620 0.000000 -0.014380 
#    y 0.000000 1.879480 0.000000 
#    z -0.014380 0.000000 1.903020 
# 
# From -- ./inp_files/188937.got.cif
#   From: 2010.05.17/outbox.cif.g08.bks.cpg/sg15_95_cif.got.tgz:188937.got - 2010.06.03 18:47:42.
