data_PCOD9279292
_publ_section_title
;
Structure prediction by ZEFSAII (Michael W. Deem and Ramdas Pophale) SiO2 
 PCOD9279292
Probable space group: C 2/C
;
_chemical_formula_sum "Si O2"
_cell_formula_units_Z 56
_cell_length_a 29.359083
_cell_length_b 12.205094
_cell_length_c 9.265131
_cell_angle_alpha 90.000000
_cell_angle_beta 58.964986
_cell_angle_gamma 90.000000
_cell_volume 2844.730931
_symmetry_space_group_name_H-M "C 2/C"
_symmetry_group_IT_number 15
_symmetry_cell_setting 'monoclinic'
loop_
_space_group_symop_operation_xyz
x,y,z
-x,y,1/2-z
-x,-y,-z
x,-y,1/2+z
1/2+x,1/2+y,z
1/2-x,1/2+y,1/2-z
1/2-x,1/2-y,-z
1/2+x,1/2-y,1/2+z
loop_
_atom_site_type_symbol
_atom_site_label
_atom_site_fract_x
_atom_site_fract_y
_atom_site_fract_z
Si Si1 0.869162 0.297984 0.754399
Si Si2 0.318328 0.779948 0.133911
Si Si3 0.015770 0.335654 0.876629
Si Si4 0.702549 0.635931 0.791705
Si Si5 0.160180 0.447270 0.155487
Si Si6 0.216700 0.917749 0.603973
Si Si7 0.047911 0.409987 0.273814
O O1 0.932375 0.286636 0.633686
O O2 0.838181 0.229470 0.686225
O O3 0.849906 0.424921 0.792671
O O4 0.854647 0.253545 0.938294
O O5 0.261619 0.819029 0.165266
O O6 0.340993 0.879082 0.193467
O O7 0.305043 0.680760 0.263057
O O8 0.034956 0.461294 0.817475
O O9 0.000000 0.285405 0.750000
O O10 0.964147 0.346076 0.059421
O O11 0.694684 0.530122 0.704622
O O12 0.702112 0.603101 0.960965
O O13 0.110387 0.406994 0.139102
O O14 0.218601 0.425520 0.995287
O O15 0.000000 0.371595 0.250000
#
# Coordination Sequence:
#
# PCOD9279292 Si02
#       7
#     8   8   8   8   8   8   8
#     4  11  22  36  61  85 116 160 198 244 299 353
#     4  11  23  36  57  82 117 157 203 240 289 357
#     4   9  18  33  51  80 115 145 187 239 290 349
#     4  11  23  38  57  83 116 156 205 242 293 355
#     4  10  21  35  56  85 118 161 191 236 302 349
#     4  11  24  40  56  83 122 161 198 248 285 353
#     4   9  18  32  51  79 114 149 191 234 284 352
#
# _framework density 19.685517000000001
#
# number of rings (size 3 to 8) (size 9 to 14) (size 15 to 20)
#    0.000    1.714    1.429    3.857    4.000    6.857 
#    0.000    0.000    0.000    0.000    0.000   10.000 
#    0.000    0.000    0.000    0.000    0.000    0.000 
#
# Total GULP energy -156357.536166 kJ/mol
# GULP energy per Si atom -5584.197720 kJ/mol
# Density = 1.964071 g / cm^3
# Si number density = 19.685517 Si / 1000 Ang^3
#
#
#
# Elastic Constant Matrix: (Units=GPa)
#
#
# Indices 1 2 3 4 5 6 
#
# 1 130.5797 44.4055 29.5753 0.0000 -2.7191 0.0000
# 2 44.4055 69.2803 35.1550 0.0000 -3.5242 0.0000
# 3 29.5753 35.1550 65.4261 0.0000 -8.7076 0.0000
# 4 0.0000 0.0000 0.0000 22.7208 0.0000 11.3800
# 5 -2.7191 -3.5242 -8.7076 0.0000 17.1247 0.0000
# 6 0.0000 0.0000 0.0000 11.3800 0.0000 23.7016
#
#
#
# Elastic Compliance Matrix: (Units=1/GPa)
#
#
# Indices 1 2 3 4 5 6 
#
# 1 0.009896 -0.005591 -0.001515 0.000000 -0.000350 0.000000
# 2 -0.005591 0.023037 -0.010016 0.000000 -0.001240 0.000000
# 3 -0.001515 -0.010016 0.022572 0.000000 0.009176 0.000000
# 4 0.000000 0.000000 0.000000 0.057948 0.000000 -0.027823
# 5 -0.000350 -0.001240 0.009176 0.000000 0.062750 0.000000
# 6 0.000000 0.000000 0.000000 -0.027823 0.000000 0.055550
#
#
# Mechanical properties :
#
#
# Convention : Reuss Voigt Hill
#
# Bulk Modulus (GPa) = 47.03706 53.72863 50.38284
# Shear Modulus (GPa) = 18.30928 23.11945 20.71436
#
# Velocity S-wave (km/s) = 3.05304 3.43073 3.24738
# Velocity P-wave (km/s) = 6.03110 6.56094 6.30159
#
# Compressibility (1/GPa) = 0.02125983
#
# Stress axis : x y z
#
# Youngs Moduli (GPa) = 101.05563 43.40786 44.30180
#
# Poissons Ratio (x) = 0.24271 0.06713
# Poissons Ratio (y) = 0.56505 0.44372
# Poissons Ratio (z) = 0.15314 0.43477
#
# Static dielectric constant tensor:
#      x y z
#    x 1.719930 0.000000 0.024900 
#    y 0.000000 1.682640 0.000000 
#    z 0.024900 0.000000 1.724840 
# 
# From -- ./inp_files/65435.got.cif
#   From: 2010.05.17/outbox.cif.g08.bks.cpg/sg15_33_cif.got.tgz:65435.got - 2010.06.03 18:47:42.
