data_PCOD9279583
_publ_section_title
;
Structure prediction by ZEFSAII (Michael W. Deem and Ramdas Pophale) SiO2 
 PCOD9279583
Probable space group: C 2/C
;
_chemical_formula_sum "Si O2"
_cell_formula_units_Z 60
_cell_length_a 6.295708
_cell_length_b 22.805064
_cell_length_c 25.777019
_cell_angle_alpha 90.000000
_cell_angle_beta 56.483613
_cell_angle_gamma 90.000000
_cell_volume 3085.552318
_symmetry_space_group_name_H-M "C 2/C"
_symmetry_group_IT_number 15
_symmetry_cell_setting 'monoclinic'
loop_
_space_group_symop_operation_xyz
x,y,z
-x,y,1/2-z
-x,-y,-z
x,-y,1/2+z
1/2+x,1/2+y,z
1/2-x,1/2+y,1/2-z
1/2-x,1/2-y,-z
1/2+x,1/2-y,1/2+z
loop_
_atom_site_type_symbol
_atom_site_label
_atom_site_fract_x
_atom_site_fract_y
_atom_site_fract_z
Si Si1 0.750541 0.881107 0.001537
Si Si2 0.210391 0.924798 0.101768
Si Si3 0.840438 0.507497 0.167679
Si Si4 0.000000 0.435329 0.750000
Si Si5 0.024394 0.878234 0.685975
Si Si6 0.955565 0.830239 0.447746
Si Si7 0.408117 0.195927 0.063554
Si Si8 0.072638 0.017546 0.432255
O O1 0.702391 0.820390 0.978262
O O2 0.954480 0.918185 0.941837
O O3 0.494866 0.919475 0.039845
O O4 0.845557 0.867948 0.046186
O O5 0.095470 0.862090 0.100175
O O6 0.235266 0.947036 0.157564
O O7 0.051582 0.973347 0.091888
O O8 0.668821 0.559585 0.168817
O O9 0.877509 0.521838 0.223275
O O10 0.126579 0.515908 0.109886
O O11 0.760696 0.393041 0.796753
O O12 0.213593 0.834878 0.629587
O O13 0.000000 0.859179 0.750000
O O14 0.696509 0.829628 0.517932
O O15 0.053290 0.764118 0.430073
O O16 0.000000 0.000000 0.500000
#
# Coordination Sequence:
#
# PCOD9279583 Si02
#       8
#     8   8   8   4   8   8   8   8
#     4  11  20  32  52  81 124 158 197 232 299 359
#     4  11  21  33  51  85 122 160 191 236 292 366
#     4  11  21  35  58  84 123 152 197 245 302 368
#     4  10  22  40  56  88 118 154 200 258 312 364
#     4  10  22  39  61  89 115 152 203 257 311 351
#     4  10  21  36  53  87 124 161 199 242 304 365
#     4  10  21  36  58  83 121 158 201 254 297 363
#     4  12  21  32  54  86 123 162 191 237 299 370
#
# _framework density 19.445463
#
# number of rings (size 3 to 8) (size 9 to 14) (size 15 to 20)
#    0.000    1.333    2.667    4.000    1.867    1.067 
#    0.000    0.000    0.000    0.000   32.933    0.000 
#    0.000    0.000    0.000    0.000    0.000    0.000 
#
# Total GULP energy -167256.975733 kJ/mol
# GULP energy per Si atom -5575.232524 kJ/mol
# Density = 1.940120 g / cm^3
# Si number density = 19.445463 Si / 1000 Ang^3
#
#
#
# Elastic Constant Matrix: (Units=GPa)
#
#
# Indices 1 2 3 4 5 6 
#
# 1 108.4047 48.8373 33.2604 0.0000 -13.5404 0.0000
# 2 48.8373 102.3006 31.5929 0.0000 -2.0941 0.0000
# 3 33.2604 31.5929 85.1842 0.0000 -8.4752 0.0000
# 4 0.0000 0.0000 0.0000 23.9779 0.0000 -2.3338
# 5 -13.5404 -2.0941 -8.4752 0.0000 30.8507 0.0000
# 6 0.0000 0.0000 0.0000 -2.3338 0.0000 29.9409
#
#
#
# Elastic Compliance Matrix: (Units=1/GPa)
#
#
# Indices 1 2 3 4 5 6 
#
# 1 0.013000 -0.005292 -0.002654 0.000000 0.004617 0.000000
# 2 -0.005292 0.013198 -0.003054 0.000000 -0.002266 0.000000
# 3 -0.002654 -0.003054 0.014159 0.000000 0.002518 0.000000
# 4 0.000000 0.000000 0.000000 0.042024 0.000000 0.003276
# 5 0.004617 -0.002266 0.002518 0.000000 0.034979 0.000000
# 6 0.000000 0.000000 0.000000 0.003276 0.000000 0.033654
#
#
# Mechanical properties :
#
#
# Convention : Reuss Voigt Hill
#
# Bulk Modulus (GPa) = 54.47497 58.14118 56.30807
# Shear Modulus (GPa) = 27.91242 29.10051 28.50647
#
# Velocity S-wave (km/s) = 3.79281 3.87268 3.83295
# Velocity P-wave (km/s) = 6.87427 7.06834 6.97198
#
# Compressibility (1/GPa) = 0.01835706
#
# Stress axis : x y z
#
# Youngs Moduli (GPa) = 76.92507 75.76787 70.62846
#
# Poissons Ratio (x) = 0.40095 0.18743
# Poissons Ratio (y) = 0.40708 0.21571
# Poissons Ratio (z) = 0.20414 0.23140
#
# Static dielectric constant tensor:
#      x y z
#    x 1.733550 0.000000 0.021700 
#    y 0.000000 1.687950 0.000000 
#    z 0.021700 0.000000 1.725270 
# 
# From -- ./inp_files/286664.got.cif
#   From: 2010.05.17/outbox.cif.g08.bks.cpg/sg15_144_cif.got.tgz:286664.got - 2010.06.03 18:47:42.
