data_PCOD9279289
_publ_section_title
;
Structure prediction by ZEFSAII (Michael W. Deem and Ramdas Pophale) SiO2 
 PCOD9279289
Probable space group: C 2/C
;
_chemical_formula_sum "Si O2"
_cell_formula_units_Z 48
_cell_length_a 9.676989
_cell_length_b 18.019946
_cell_length_c 21.338039
_cell_angle_alpha 90.000000
_cell_angle_beta 43.819818
_cell_angle_gamma 90.000000
_cell_volume 2576.325717
_symmetry_space_group_name_H-M "C 2/C"
_symmetry_group_IT_number 15
_symmetry_cell_setting 'monoclinic'
loop_
_space_group_symop_operation_xyz
x,y,z
-x,y,1/2-z
-x,-y,-z
x,-y,1/2+z
1/2+x,1/2+y,z
1/2-x,1/2+y,1/2-z
1/2-x,1/2-y,-z
1/2+x,1/2-y,1/2+z
loop_
_atom_site_type_symbol
_atom_site_label
_atom_site_fract_x
_atom_site_fract_y
_atom_site_fract_z
Si Si1 0.449952 0.685507 0.361398
Si Si2 0.520956 0.682104 0.817395
Si Si3 0.545636 0.852590 0.308294
Si Si4 0.326629 0.926048 0.483451
Si Si5 0.667039 0.168296 0.333192
Si Si6 0.155616 0.412690 0.485028
O O1 0.500858 0.772123 0.355785
O O2 0.338311 0.636948 0.449523
O O3 0.295378 0.685717 0.353702
O O4 0.657784 0.646898 0.272714
O O5 0.500000 0.695196 0.750000
O O6 0.566554 0.758237 0.838565
O O7 0.329432 0.643955 0.910571
O O8 0.720114 0.632920 0.760269
O O9 0.500000 0.845007 0.250000
O O10 0.412464 0.913247 0.386421
O O11 0.514194 0.916829 0.469831
O O12 0.254279 0.008098 0.524735
O O13 0.494279 0.112685 0.410640
#
# Coordination Sequence:
#
# PCOD9279289 Si02
#       6
#     8   8   8   8   8   8
#     4   9  17  35  57  81 106 146 193 230 271 329
#     4  11  20  36  57  86 111 146 191 230 280 325
#     4  11  20  38  59  83 111 146 190 234 277 327
#     4  10  21  35  56  84 115 150 187 224 279 340
#     4   9  18  35  56  80 110 146 186 234 278 319
#     4  10  21  36  54  84 118 149 183 229 280 336
#
# _framework density 18.631184999999999
#
# number of rings (size 3 to 8) (size 9 to 14) (size 15 to 20)
#    0.000    2.000    5.000    1.000    0.000    1.333 
#    3.000    1.667    0.000    0.000    0.000    0.000 
#    0.000    0.000    0.000    0.000    0.000    0.000 
#
# Total GULP energy -133746.848210 kJ/mol
# GULP energy per Si atom -5572.785342 kJ/mol
# Density = 1.858878 g / cm^3
# Si number density = 18.631185 Si / 1000 Ang^3
#
#
#
# Elastic Constant Matrix: (Units=GPa)
#
#
# Indices 1 2 3 4 5 6 
#
# 1 33.3462 17.4977 31.0974 0.0006 -6.2400 0.0003
# 2 17.4977 46.6491 33.1144 0.0032 -0.2511 -0.0011
# 3 31.0974 33.1144 91.4068 0.0063 -3.2459 -0.0016
# 4 0.0006 0.0032 0.0063 17.2108 -0.0014 2.4350
# 5 -6.2400 -0.2511 -3.2459 -0.0014 24.1565 0.0000
# 6 0.0003 -0.0011 -0.0016 2.4350 0.0000 10.8927
#
#
#
# Elastic Compliance Matrix: (Units=1/GPa)
#
#
# Indices 1 2 3 4 5 6 
#
# 1 0.048839 -0.009071 -0.012947 0.000007 0.010782 -0.000006
# 2 -0.009071 0.030572 -0.008100 -0.000003 -0.003114 0.000003
# 3 -0.012947 -0.008100 0.018244 -0.000005 -0.000977 0.000003
# 4 0.000007 -0.000003 -0.000005 0.060001 0.000004 -0.013413
# 5 0.010782 -0.003114 -0.000977 0.000004 0.044018 -0.000002
# 6 -0.000006 0.000003 0.000003 -0.013413 -0.000002 0.094803
#
#
# Mechanical properties :
#
#
# Convention : Reuss Voigt Hill
#
# Bulk Modulus (GPa) = 26.72308 37.20235 31.96272
# Shear Modulus (GPa) = 13.54329 16.43152 14.98741
#
# Velocity S-wave (km/s) = 2.69906 2.97296 2.83932
# Velocity P-wave (km/s) = 4.90791 5.63878 5.28599
#
# Compressibility (1/GPa) = 0.03742084
#
# Stress axis : x y z
#
# Youngs Moduli (GPa) = 20.47529 32.70933 54.81126
#
# Poissons Ratio (x) = 0.29670 0.70962
# Poissons Ratio (y) = 0.18573 0.44398
# Poissons Ratio (z) = 0.26508 0.26495
#
# Static dielectric constant tensor:
#      x y z
#    x 1.626590 0.000000 -0.003470 
#    y 0.000000 1.640280 0.000000 
#    z -0.003470 0.000000 1.661880 
# 
# From -- ./inp_files/233721.got.cif
#   From: 2010.05.17/outbox.cif.g08.bks.cpg/sg15_117_cif.got.tgz:233721.got - 2010.06.03 18:47:42.
