data_PCOD9279632
_publ_section_title
;
Structure prediction by ZEFSAII (Michael W. Deem and Ramdas Pophale) SiO2 
 PCOD9279632
Probable space group: C 2/C
;
_chemical_formula_sum "Si O2"
_cell_formula_units_Z 56
_cell_length_a 11.610250
_cell_length_b 7.902791
_cell_length_c 26.460422
_cell_angle_alpha 90.000000
_cell_angle_beta 102.090371
_cell_angle_gamma 90.000000
_cell_volume 2373.980034
_symmetry_space_group_name_H-M "C 2/C"
_symmetry_group_IT_number 15
_symmetry_cell_setting 'monoclinic'
loop_
_space_group_symop_operation_xyz
x,y,z
-x,y,1/2-z
-x,-y,-z
x,-y,1/2+z
1/2+x,1/2+y,z
1/2-x,1/2+y,1/2-z
1/2-x,1/2-y,-z
1/2+x,1/2-y,1/2+z
loop_
_atom_site_type_symbol
_atom_site_label
_atom_site_fract_x
_atom_site_fract_y
_atom_site_fract_z
Si Si1 0.888409 0.880900 0.357221
Si Si2 0.126721 0.900661 0.553026
Si Si3 0.243355 0.340063 0.134957
Si Si4 0.955912 0.468390 0.827011
Si Si5 0.096164 0.246766 0.495206
Si Si6 0.226156 0.831988 0.912910
Si Si7 0.685449 0.943637 0.788962
O O1 0.968251 0.722909 0.349631
O O2 0.781093 0.791986 0.377357
O O3 0.935849 0.011536 0.403506
O O4 0.815679 0.975602 0.306794
O O5 0.230468 0.798775 0.589246
O O6 0.042858 0.769383 0.516591
O O7 0.142089 0.058978 0.517212
O O8 0.113780 0.412003 0.139998
O O9 0.311595 0.500495 0.119433
O O10 0.297544 0.245510 0.187849
O O11 0.865204 0.450491 0.771699
O O12 0.080839 0.521878 0.814760
O O13 0.135888 0.261196 0.441269
O O14 0.161868 0.370401 0.539356
#
# Coordination Sequence:
#
# PCOD9279632 Si02
#       7
#     8   8   8   8   8   8   8
#     4   9  19  36  54  78 108 140 177 226 267 322
#     4   9  19  33  53  76 105 141 177 219 271 313
#     4  10  21  36  55  84 106 140 186 222 263 329
#     4  10  21  37  57  81 110 143 177 223 276 321
#     4   9  18  34  51  74 107 142 175 220 268 323
#     4   9  19  33  53  76 105 141 177 219 271 313
#     4  10  21  37  57  81 110 143 177 223 276 321
#
# _framework density 23.589078000000001
#
# number of rings (size 3 to 8) (size 9 to 14) (size 15 to 20)
#    0.000    2.571    0.000    0.857    4.000    1.143 
#    0.000    0.000    0.000    8.571    0.000    0.000 
#    0.000    0.000    0.000    0.000    0.000    0.000 
#
# Total GULP energy -156054.050994 kJ/mol
# GULP energy per Si atom -5573.358964 kJ/mol
# Density = 2.353539 g / cm^3
# Si number density = 23.589078 Si / 1000 Ang^3
#
#
#
# Elastic Constant Matrix: (Units=GPa)
#
#
# Indices 1 2 3 4 5 6 
#
# 1 32.6083 1.8801 -3.6653 0.0000 0.7066 0.0000
# 2 1.8801 40.9332 6.7024 0.0000 0.5491 0.0000
# 3 -3.6653 6.7024 55.9726 0.0000 9.5367 0.0000
# 4 0.0000 0.0000 0.0000 32.6858 0.0000 7.4565
# 5 0.7066 0.5491 9.5367 0.0000 26.2507 0.0000
# 6 0.0000 0.0000 0.0000 7.4565 0.0000 19.2408
#
#
#
# Elastic Compliance Matrix: (Units=1/GPa)
#
#
# Indices 1 2 3 4 5 6 
#
# 1 0.031096 -0.001822 0.002548 0.000000 -0.001725 0.000000
# 2 -0.001822 0.025034 -0.003236 0.000000 0.000701 0.000000
# 3 0.002548 -0.003236 0.019636 0.000000 -0.007134 0.000000
# 4 0.000000 0.000000 0.000000 0.033561 0.000000 -0.013006
# 5 -0.001725 0.000701 -0.007134 0.000000 0.040718 0.000000
# 6 0.000000 0.000000 0.000000 -0.013006 0.000000 0.057013
#
#
# Mechanical properties :
#
#
# Convention : Reuss Voigt Hill
#
# Bulk Modulus (GPa) = 14.13528 15.48316 14.80922
# Shear Modulus (GPa) = 21.21691 23.94193 22.57942
#
# Velocity S-wave (km/s) = 3.00232 3.18930 3.09722
# Velocity P-wave (km/s) = 4.24545 4.48777 4.36829
#
# Compressibility (1/GPa) = 0.07074498
#
# Stress axis : x y z
#
# Youngs Moduli (GPa) = 32.15860 39.94525 50.92714
#
# Poissons Ratio (x) = 0.07279 -0.12978
# Poissons Ratio (y) = 0.05860 0.16483
# Poissons Ratio (z) = -0.08195 0.12928
#
# Static dielectric constant tensor:
#      x y z
#    x 1.953920 0.000000 0.010040 
#    y 0.000000 1.913840 0.000000 
#    z 0.010040 0.000000 1.868640 
# 
# From -- ./inp_files/272860.got.cif
#   From: 2010.05.17/outbox.cif.g08.bks.cpg/sg15_137_cif.got.tgz:272860.got - 2010.06.03 18:47:42.
