data_PCOD9279656
_publ_section_title
;
Structure prediction by ZEFSAII (Michael W. Deem and Ramdas Pophale) SiO2 
 PCOD9279656
Probable space group: C 2/C
;
_chemical_formula_sum "Si O2"
_cell_formula_units_Z 36
_cell_length_a 12.667540
_cell_length_b 23.097589
_cell_length_c 5.730756
_cell_angle_alpha 90.000000
_cell_angle_beta 84.757515
_cell_angle_gamma 90.000000
_cell_volume 1669.745773
_symmetry_space_group_name_H-M "C 2/C"
_symmetry_group_IT_number 15
_symmetry_cell_setting 'monoclinic'
loop_
_space_group_symop_operation_xyz
x,y,z
-x,y,1/2-z
-x,-y,-z
x,-y,1/2+z
1/2+x,1/2+y,z
1/2-x,1/2+y,1/2-z
1/2-x,1/2-y,-z
1/2+x,1/2-y,1/2+z
loop_
_atom_site_type_symbol
_atom_site_label
_atom_site_fract_x
_atom_site_fract_y
_atom_site_fract_z
Si Si1 0.500000 0.136418 0.250000
Si Si2 0.228685 0.588559 0.108178
Si Si3 0.346673 0.486448 0.891931
Si Si4 0.076498 0.735394 0.548172
Si Si5 0.224286 0.200813 0.693332
O O1 0.607783 0.101013 0.197511
O O2 0.511625 0.181330 0.460070
O O3 0.300265 0.575663 0.323786
O O4 0.247628 0.530241 0.955647
O O5 0.273348 0.641046 0.945679
O O6 0.398450 0.509723 0.638523
O O7 0.118033 0.779887 0.346476
O O8 0.180774 0.706529 0.640000
O O9 0.000000 0.765061 0.750000
O O10 0.250000 0.250000 0.500000
#
# Coordination Sequence:
#
# PCOD9279656 Si02
#       5
#     4   8   8   8   8
#     4  12  22  34  58  84 128 160 194 254 290 372
#     4  10  21  36  56  83 121 161 207 241 302 358
#     4   8  20  36  52  80 117 159 206 238 288 354
#     4  11  22  36  56  88 122 155 202 246 313 358
#     4  11  22  37  59  85 115 165 201 250 306 367
#
# _framework density 21.560168999999998
#
# number of rings (size 3 to 8) (size 9 to 14) (size 15 to 20)
#    1.333    0.444    4.444    0.000    3.111    0.889 
#    0.000    0.000    0.000    0.000    0.000    1.556 
#    0.000    0.000    0.000    0.000    0.000    0.000 
#
# Total GULP energy -100290.517882 kJ/mol
# GULP energy per Si atom -5571.695438 kJ/mol
# Density = 2.151110 g / cm^3
# Si number density = 21.560169 Si / 1000 Ang^3
#
#
#
# Elastic Constant Matrix: (Units=GPa)
#
#
# Indices 1 2 3 4 5 6 
#
# 1 69.0081 14.6613 47.1550 0.0000 -6.8890 0.0000
# 2 14.6613 74.5466 25.3336 0.0000 -8.1100 0.0000
# 3 47.1550 25.3336 151.0949 0.0000 -20.1208 0.0000
# 4 0.0000 0.0000 0.0000 40.3979 0.0000 -10.1822
# 5 -6.8890 -8.1100 -20.1208 0.0000 59.3376 0.0000
# 6 0.0000 0.0000 0.0000 -10.1822 0.0000 138.7479
#
#
#
# Elastic Compliance Matrix: (Units=1/GPa)
#
#
# Indices 1 2 3 4 5 6 
#
# 1 0.018642 -0.001788 -0.005511 0.000000 0.000051 0.000000
# 2 -0.001788 0.014477 -0.001711 0.000000 0.001191 0.000000
# 3 -0.005511 -0.001711 0.008911 0.000000 0.002148 0.000000
# 4 0.000000 0.000000 0.000000 0.025220 0.000000 0.001851
# 5 0.000051 0.001191 0.002148 0.000000 0.017750 0.000000
# 6 0.000000 0.000000 0.000000 0.001851 0.000000 0.007343
#
#
# Mechanical properties :
#
#
# Convention : Reuss Voigt Hill
#
# Bulk Modulus (GPa) = 41.64871 52.10548 46.87709
# Shear Modulus (GPa) = 42.24149 61.53001 51.88575
#
# Velocity S-wave (km/s) = 4.43113 5.34796 4.91099
# Velocity P-wave (km/s) = 6.74828 7.89647 7.34484
#
# Compressibility (1/GPa) = 0.02401035
#
# Stress axis : x y z
#
# Youngs Moduli (GPa) = 53.64202 69.07514 112.21717
#
# Poissons Ratio (x) = 0.12350 0.61848
# Poissons Ratio (y) = 0.09590 0.19197
# Poissons Ratio (z) = 0.29564 0.11817
#
# Static dielectric constant tensor:
#      x y z
#    x 1.776780 0.000000 0.051110 
#    y 0.000000 1.819940 0.000000 
#    z 0.051110 0.000000 1.880990 
# 
# From -- ./inp_files/7748.got.cif
#   From: 2010.05.17/outbox.cif.g08.bks.cpg/sg15_4_cif.got.tgz:7748.got - 2010.06.03 18:47:42.
