data_PCOD9279621
_publ_section_title
;
Structure prediction by ZEFSAII (Michael W. Deem and Ramdas Pophale) SiO2 
 PCOD9279621
Probable space group: C 2/C
;
_chemical_formula_sum "Si O2"
_cell_formula_units_Z 64
_cell_length_a 9.965755
_cell_length_b 14.246101
_cell_length_c 27.411342
_cell_angle_alpha 90.000000
_cell_angle_beta 79.762911
_cell_angle_gamma 90.000000
_cell_volume 3829.722170
_symmetry_space_group_name_H-M "C 2/C"
_symmetry_group_IT_number 15
_symmetry_cell_setting 'monoclinic'
loop_
_space_group_symop_operation_xyz
x,y,z
-x,y,1/2-z
-x,-y,-z
x,-y,1/2+z
1/2+x,1/2+y,z
1/2-x,1/2+y,1/2-z
1/2-x,1/2-y,-z
1/2+x,1/2-y,1/2+z
loop_
_atom_site_type_symbol
_atom_site_label
_atom_site_fract_x
_atom_site_fract_y
_atom_site_fract_z
Si Si1 0.604334 0.121289 0.880948
Si Si2 0.633159 0.732521 0.467857
Si Si3 0.092418 0.598289 0.389269
Si Si4 0.224336 0.403086 0.612590
Si Si5 0.363945 0.252263 0.193300
Si Si6 0.287428 0.119590 0.871310
Si Si7 0.179643 0.240662 0.689802
Si Si8 0.849933 0.754916 0.038590
O O1 0.618336 0.181507 0.930054
O O2 0.449590 0.131313 0.870506
O O3 0.714066 0.163434 0.836082
O O4 0.630913 0.010755 0.887106
O O5 0.750000 0.750000 0.500000
O O6 0.672281 0.642254 0.432719
O O7 0.496379 0.721427 0.507315
O O8 0.140381 0.655807 0.337950
O O9 0.144181 0.657397 0.431995
O O10 0.927825 0.602581 0.400061
O O11 0.247086 0.509841 0.625999
O O12 0.221775 0.336033 0.659698
O O13 0.267581 0.327238 0.172810
O O14 0.322509 0.244014 0.252239
O O15 0.524172 0.281795 0.183034
O O16 0.205995 0.168423 0.920445
O O17 0.750000 0.750000 0.000000
#
# Coordination Sequence:
#
# PCOD9279621 Si02
#       8
#     8   8   8   8   8   8   8   8
#     4  10  21  36  56  82 106 140 183 221 260 320
#     4  11  21  36  57  78 107 146 183 216 264 319
#     4   9  19  36  57  78 107 141 180 218 264 317
#     4   9  19  36  56  80 105 140 184 220 255 320
#     4   9  19  37  58  80 107 140 172 221 272 314
#     4  10  21  36  55  81 111 138 178 225 266 309
#     4   9  19  37  58  79 108 140 176 215 267 325
#     4  11  21  36  53  80 113 142 175 222 271 311
#
# _framework density 16.711395
#
# number of rings (size 3 to 8) (size 9 to 14) (size 15 to 20)
#    0.000    2.250    2.500    0.000    1.750    3.500 
#    2.250    2.500    0.000    0.000    0.000    0.000 
#    0.000    0.000    0.000    0.000    0.000    0.000 
#
# Total GULP energy -178414.754511 kJ/mol
# GULP energy per Si atom -5575.461078 kJ/mol
# Density = 1.667336 g / cm^3
# Si number density = 16.711395 Si / 1000 Ang^3
#
#
#
# Elastic Constant Matrix: (Units=GPa)
#
#
# Indices 1 2 3 4 5 6 
#
# 1 91.1408 50.2259 51.7635 0.0000 -1.4010 0.0000
# 2 50.2259 129.1108 40.0644 0.0000 0.9102 0.0000
# 3 51.7635 40.0644 97.0812 0.0000 -0.9950 0.0000
# 4 0.0000 0.0000 0.0000 5.4813 0.0000 0.1695
# 5 -1.4010 0.9102 -0.9950 0.0000 35.2017 0.0000
# 6 0.0000 0.0000 0.0000 0.1695 0.0000 28.0222
#
#
#
# Elastic Compliance Matrix: (Units=1/GPa)
#
#
# Indices 1 2 3 4 5 6 
#
# 1 0.017826 -0.004578 -0.007609 0.000000 0.000613 0.000000
# 2 -0.004578 0.010062 -0.001717 0.000000 -0.000491 0.000000
# 3 -0.007609 -0.001717 0.015068 0.000000 0.000167 0.000000
# 4 0.000000 0.000000 0.000000 0.182471 0.000000 -0.001104
# 5 0.000613 -0.000491 0.000167 0.000000 0.028450 0.000000
# 6 0.000000 0.000000 0.000000 -0.001104 0.000000 0.035693
#
#
# Mechanical properties :
#
#
# Convention : Reuss Voigt Hill
#
# Bulk Modulus (GPa) = 66.01200 66.82671 66.41935
# Shear Modulus (GPa) = 15.50740 25.42631 20.46685
#
# Velocity S-wave (km/s) = 3.04954 3.90487 3.50340
# Velocity P-wave (km/s) = 7.21017 7.77214 7.49642
#
# Compressibility (1/GPa) = 0.01514876
#
# Stress axis : x y z
#
# Youngs Moduli (GPa) = 56.09864 99.38145 66.36509
#
# Poissons Ratio (x) = 0.45492 0.50499
# Poissons Ratio (y) = 0.25679 0.11394
# Poissons Ratio (z) = 0.42687 0.17063
#
# Static dielectric constant tensor:
#      x y z
#    x 1.558160 0.000000 0.017930 
#    y 0.000000 1.547260 0.000000 
#    z 0.017930 0.000000 1.557840 
# 
# From -- ./inp_files/288749.got.cif
#   From: 2010.05.17/outbox.cif.g08.bks.cpg/sg15_145_cif.got.tgz:288749.got - 2010.06.03 18:47:42.
