data_PCOD9279707
_publ_section_title
;
Structure prediction by ZEFSAII (Michael W. Deem and Ramdas Pophale) SiO2 
 PCOD9279707
Probable space group: C 2/C
;
_chemical_formula_sum "Si O2"
_cell_formula_units_Z 48
_cell_length_a 10.463332
_cell_length_b 15.454803
_cell_length_c 13.887033
_cell_angle_alpha 90.000000
_cell_angle_beta 105.106623
_cell_angle_gamma 90.000000
_cell_volume 2168.050356
_symmetry_space_group_name_H-M "C 2/C"
_symmetry_group_IT_number 15
_symmetry_cell_setting 'monoclinic'
loop_
_space_group_symop_operation_xyz
x,y,z
-x,y,1/2-z
-x,-y,-z
x,-y,1/2+z
1/2+x,1/2+y,z
1/2-x,1/2+y,1/2-z
1/2-x,1/2-y,-z
1/2+x,1/2-y,1/2+z
loop_
_atom_site_type_symbol
_atom_site_label
_atom_site_fract_x
_atom_site_fract_y
_atom_site_fract_z
Si Si1 0.719553 0.532734 0.847648
Si Si2 0.458282 0.738201 0.502044
Si Si3 0.304478 0.095583 0.217415
Si Si4 0.497605 0.567780 0.412736
Si Si5 0.311467 0.718362 0.669018
Si Si6 0.429923 0.077302 0.038076
O O1 0.817835 0.471053 0.807377
O O2 0.597639 0.472961 0.855207
O O3 0.690833 0.622764 0.785598
O O4 0.785870 0.571502 0.957373
O O5 0.535781 0.662114 0.463586
O O6 0.416979 0.712774 0.602572
O O7 0.324695 0.754179 0.412388
O O8 0.507789 0.835822 0.523590
O O9 0.151246 0.078737 0.156250
O O10 0.330352 0.197761 0.240416
O O11 0.395858 0.075159 0.143494
O O12 0.500000 0.500000 0.500000
O O13 0.500000 0.000000 0.000000
#
# Coordination Sequence:
#
# PCOD9279707 Si02
#       6
#     8   8   8   8   8   8
#     4  11  20  35  61  84 110 145 186 235 281 331
#     4   8  15  31  56  77 104 143 185 222 270 338
#     4  10  21  36  57  84 114 142 186 235 279 338
#     4  11  17  33  60  89 109 134 179 240 294 322
#     4   8  15  32  54  77 105 147 181 215 279 340
#     4  10  21  39  57  77 109 159 193 218 271 338
#
# _framework density 22.139707000000001
#
# number of rings (size 3 to 8) (size 9 to 14) (size 15 to 20)
#    0.000    2.333    3.333    2.500    0.000    0.667 
#    3.000    2.500    3.667    0.000    0.000    0.000 
#    0.000    0.000    0.000    0.000    0.000    0.000 
#
# Total GULP energy -133819.532855 kJ/mol
# GULP energy per Si atom -5575.813869 kJ/mol
# Density = 2.208932 g / cm^3
# Si number density = 22.139707 Si / 1000 Ang^3
#
#
#
# Elastic Constant Matrix: (Units=GPa)
#
#
# Indices 1 2 3 4 5 6 
#
# 1 66.9479 52.7582 14.5300 0.0000 -9.0599 0.0000
# 2 52.7582 231.6184 60.6048 0.0000 -36.5857 0.0000
# 3 14.5300 60.6048 82.4518 0.0000 -8.9027 0.0000
# 4 0.0000 0.0000 0.0000 31.7048 0.0000 -7.6513
# 5 -9.0599 -36.5857 -8.9027 0.0000 28.9827 0.0000
# 6 0.0000 0.0000 0.0000 -7.6513 0.0000 37.2652
#
#
#
# Elastic Compliance Matrix: (Units=1/GPa)
#
#
# Indices 1 2 3 4 5 6 
#
# 1 0.018215 -0.004005 -0.000204 0.000000 0.000576 0.000000
# 2 -0.004005 0.007338 -0.003954 0.000000 0.006796 0.000000
# 3 -0.000204 -0.003954 0.015023 0.000000 -0.000440 0.000000
# 4 0.000000 0.000000 0.000000 0.033185 0.000000 0.006814
# 5 0.000576 0.006796 -0.000440 0.000000 0.043127 0.000000
# 6 0.000000 0.000000 0.000000 0.006814 0.000000 0.028234
#
#
# Mechanical properties :
#
#
# Convention : Reuss Voigt Hill
#
# Bulk Modulus (GPa) = 41.23658 70.75600 55.99629
# Shear Modulus (GPa) = 29.49316 36.46557 32.97936
#
# Velocity S-wave (km/s) = 3.65381 4.06281 3.86372
# Velocity P-wave (km/s) = 6.03875 7.35097 6.72693
#
# Compressibility (1/GPa) = 0.02425031
#
# Stress axis : x y z
#
# Youngs Moduli (GPa) = 54.89947 136.28237 66.56456
#
# Poissons Ratio (x) = 0.54576 0.01359
# Poissons Ratio (y) = 0.21985 0.26319
# Poissons Ratio (z) = 0.01121 0.53885
#
# Static dielectric constant tensor:
#      x y z
#    x 1.910970 0.000000 0.162530 
#    y 0.000000 1.856370 0.000000 
#    z 0.162530 0.000000 1.919770 
# 
# From -- ./inp_files/143676.got.cif
#   From: 2010.05.17/outbox.cif.g08.bks.cpg/sg15_72_cif.got.tgz:143676.got - 2010.06.03 18:47:42.
