data_PCOD9279133
_publ_section_title
;
Structure prediction by ZEFSAII (Michael W. Deem and Ramdas Pophale) SiO2 
 PCOD9279133
Probable space group: C 2/C
;
_chemical_formula_sum "Si O2"
_cell_formula_units_Z 48
_cell_length_a 23.396375
_cell_length_b 16.196016
_cell_length_c 13.914059
_cell_angle_alpha 90.000000
_cell_angle_beta 32.781044
_cell_angle_gamma 90.000000
_cell_volume 2854.650829
_symmetry_space_group_name_H-M "C 2/C"
_symmetry_group_IT_number 15
_symmetry_cell_setting 'monoclinic'
loop_
_space_group_symop_operation_xyz
x,y,z
-x,y,1/2-z
-x,-y,-z
x,-y,1/2+z
1/2+x,1/2+y,z
1/2-x,1/2+y,1/2-z
1/2-x,1/2-y,-z
1/2+x,1/2-y,1/2+z
loop_
_atom_site_type_symbol
_atom_site_label
_atom_site_fract_x
_atom_site_fract_y
_atom_site_fract_z
Si Si1 0.460066 0.199304 0.906967
Si Si2 0.236652 0.875000 0.750000
Si Si3 0.680412 0.775103 0.193520
Si Si4 0.117033 0.949304 0.093033
Si Si5 0.876068 0.974897 0.193519
Si Si6 0.650694 0.375000 0.448612
O O1 0.500000 0.163061 0.750000
O O2 0.561285 0.207044 0.831478
O O3 0.360335 0.146123 0.081789
O O4 0.417784 0.292093 0.944437
O O5 0.186972 0.797591 0.762901
O O6 0.199873 0.952409 0.737099
O O7 0.192124 0.896123 0.918211
O O8 0.737785 0.852506 0.161626
O O9 0.750000 0.750000 0.000000
O O10 0.142763 0.957043 0.168522
O O11 0.000000 0.913062 0.250000
O O12 0.112222 0.042093 0.055563
O O13 0.850589 0.897494 0.161625
O O14 0.000000 0.000000 0.000000
#
# Coordination Sequence:
#
# PCOD9279133 Si02
#       6
#     8   8   8   8   8   8
#     4  11  21  35  57  85 114 143 182 242 285 331
#     4  10  22  36  55  89 110 146 188 228 300 336
#     4  11  20  35  59  82 115 144 188 242 281 335
#     4  11  21  35  57  85 114 143 182 242 285 331
#     4  11  20  35  59  82 115 144 188 242 281 335
#     4  10  21  34  58  89 102 144 191 230 296 321
#
# _framework density 16.814665999999999
#
# number of rings (size 3 to 8) (size 9 to 14) (size 15 to 20)
#    0.000    1.333    6.667    2.500    0.000    0.000 
#    0.000    6.667    0.000    0.000    0.000    0.000 
#    0.000    0.000    0.000    0.000    0.000    0.000 
#
# Total GULP energy -133782.686599 kJ/mol
# GULP energy per Si atom -5574.278608 kJ/mol
# Density = 1.677640 g / cm^3
# Si number density = 16.814666 Si / 1000 Ang^3
#
#
#
# Elastic Constant Matrix: (Units=GPa)
#
#
# Indices 1 2 3 4 5 6 
#
# 1 138.3022 20.7090 78.5420 0.0000 3.0787 0.0000
# 2 20.7090 45.5072 53.2275 0.0000 2.1241 0.0000
# 3 78.5420 53.2275 148.6513 0.0000 -2.4021 0.0000
# 4 0.0000 0.0000 0.0000 26.4867 0.0000 -0.2998
# 5 3.0787 2.1241 -2.4021 0.0000 53.0866 0.0000
# 6 0.0000 0.0000 0.0000 -0.2998 0.0000 31.0746
#
#
#
# Elastic Compliance Matrix: (Units=1/GPa)
#
#
# Indices 1 2 3 4 5 6 
#
# 1 0.010614 0.003093 -0.006733 0.000000 -0.001044 0.000000
# 2 0.003093 0.038953 -0.015622 0.000000 -0.002445 0.000000
# 3 -0.006733 -0.015622 0.015906 0.000000 0.001735 0.000000
# 4 0.000000 0.000000 0.000000 0.037759 0.000000 0.000364
# 5 -0.001044 -0.002445 0.001735 0.000000 0.019074 0.000000
# 6 0.000000 0.000000 0.000000 0.000364 0.000000 0.032184
#
#
# Mechanical properties :
#
#
# Convention : Reuss Voigt Hill
#
# Bulk Modulus (GPa) = 37.10418 70.82418 53.96418
# Shear Modulus (GPa) = 24.75294 34.12839 29.44067
#
# Velocity S-wave (km/s) = 3.84096 4.51008 4.18891
# Velocity P-wave (km/s) = 6.46414 8.32665 7.45380
#
# Compressibility (1/GPa) = 0.02695114
#
# Stress axis : x y z
#
# Youngs Moduli (GPa) = 94.21491 25.67192 62.86876
#
# Poissons Ratio (x) = -0.07941 0.42327
# Poissons Ratio (y) = -0.29144 0.98213
# Poissons Ratio (z) = 0.63431 0.40104
#
# Static dielectric constant tensor:
#      x y z
#    x 1.593850 0.000000 0.000290 
#    y 0.000000 1.579260 0.000000 
#    z 0.000290 0.000000 1.598330 
# 
# From -- ./inp_files/173621.got.cif
#   From: 2010.05.17/outbox.cif.g08.bks.cpg/sg15_87_cif.got.tgz:173621.got - 2010.06.03 18:47:42.
