data_PCOD9279053
_publ_section_title
;
Structure prediction by ZEFSAII (Michael W. Deem and Ramdas Pophale) SiO2 
 PCOD9279053
Probable space group: C 2/C
;
_chemical_formula_sum "Si O2"
_cell_formula_units_Z 64
_cell_length_a 15.110561
_cell_length_b 26.272172
_cell_length_c 14.586153
_cell_angle_alpha 90.000000
_cell_angle_beta 140.924241
_cell_angle_gamma 90.000000
_cell_volume 3650.037359
_symmetry_space_group_name_H-M "C 2/C"
_symmetry_group_IT_number 15
_symmetry_cell_setting 'monoclinic'
loop_
_space_group_symop_operation_xyz
x,y,z
-x,y,1/2-z
-x,-y,-z
x,-y,1/2+z
1/2+x,1/2+y,z
1/2-x,1/2+y,1/2-z
1/2-x,1/2-y,-z
1/2+x,1/2-y,1/2+z
loop_
_atom_site_type_symbol
_atom_site_label
_atom_site_fract_x
_atom_site_fract_y
_atom_site_fract_z
Si Si1 0.386364 0.894656 0.826634
Si Si2 0.368428 0.404057 0.318988
Si Si3 0.155073 0.697695 0.332523
Si Si4 0.829356 0.956487 0.967243
Si Si5 0.266772 0.927127 0.117006
Si Si6 0.668533 0.952128 0.025564
Si Si7 0.413369 0.930315 0.052135
Si Si8 0.659120 0.687344 0.844937
O O1 0.350781 0.839166 0.759002
O O2 0.273784 0.931919 0.690021
O O3 0.538871 0.913490 0.914806
O O4 0.389498 0.901547 0.937946
O O5 0.518690 0.430887 0.424606
O O6 0.331183 0.394159 0.394923
O O7 0.253795 0.443376 0.186956
O O8 0.340206 0.354400 0.234174
O O9 0.251135 0.675963 0.491728
O O10 0.202347 0.755510 0.349485
O O11 0.000000 0.700005 0.250000
O O12 0.808872 0.017415 0.942528
O O13 0.771986 0.944691 0.023012
O O14 0.301931 0.913174 0.040259
O O15 0.425023 0.926354 0.285707
O O16 0.611041 0.009270 0.978581
O O17 0.500000 0.689467 0.750000
#
# Coordination Sequence:
#
# PCOD9279053 Si02
#       8
#     8   8   8   8   8   8   8   8
#     4  12  19  33  56  79 101 142 185 215 256 315
#     4  12  21  34  54  76 107 145 177 210 267 324
#     4  10  21  34  55  81 108 136 175 219 265 320
#     4  11  22  32  50  80 111 138 174 214 265 324
#     4  10  21  37  51  75 107 142 178 223 261 305
#     4  11  20  33  53  78 109 142 175 217 258 314
#     4  10  21  36  53  75 107 138 182 227 258 294
#     4  10  21  38  52  77 115 141 164 215 275 322
#
# _framework density 17.534067
#
# number of rings (size 3 to 8) (size 9 to 14) (size 15 to 20)
#    0.000    1.250    2.500    6.000    0.000    0.000 
#    0.000    1.875    0.000    0.750    0.000    0.000 
#    0.000    0.000    0.000    0.000    0.000    0.000 
#
# Total GULP energy -178581.801461 kJ/mol
# GULP energy per Si atom -5580.681296 kJ/mol
# Density = 1.749416 g / cm^3
# Si number density = 17.534067 Si / 1000 Ang^3
#
#
#
# Elastic Constant Matrix: (Units=GPa)
#
#
# Indices 1 2 3 4 5 6 
#
# 1 115.5935 46.4878 33.0932 0.0000 -17.0005 0.0000
# 2 46.4878 58.4504 9.3512 0.0000 -14.4620 0.0000
# 3 33.0932 9.3512 74.1546 0.0000 6.1245 0.0000
# 4 0.0000 0.0000 0.0000 26.4634 0.0000 -10.4626
# 5 -17.0005 -14.4620 6.1245 0.0000 31.3945 0.0000
# 6 0.0000 0.0000 0.0000 -10.4626 0.0000 22.3343
#
#
#
# Elastic Compliance Matrix: (Units=1/GPa)
#
#
# Indices 1 2 3 4 5 6 
#
# 1 0.014952 -0.009790 -0.005828 0.000000 0.004723 0.000000
# 2 -0.009790 0.026508 0.000463 0.000000 0.006819 0.000000
# 3 -0.005828 0.000463 0.016537 0.000000 -0.006169 0.000000
# 4 0.000000 0.000000 0.000000 0.046378 0.000000 0.021726
# 5 0.004723 0.006819 -0.006169 0.000000 0.038755 0.000000
# 6 0.000000 0.000000 0.000000 0.021726 0.000000 0.054952
#
#
# Mechanical properties :
#
#
# Convention : Reuss Voigt Hill
#
# Bulk Modulus (GPa) = 36.11839 47.34034 41.72937
# Shear Modulus (GPa) = 21.04192 26.65620 23.84906
#
# Velocity S-wave (km/s) = 3.46795 3.90327 3.69203
# Velocity P-wave (km/s) = 6.05634 6.88271 6.48271
#
# Compressibility (1/GPa) = 0.02768672
#
# Stress axis : x y z
#
# Youngs Moduli (GPa) = 66.88269 37.72393 60.46951
#
# Poissons Ratio (x) = 0.36934 0.35241
# Poissons Ratio (y) = 0.65481 -0.02801
# Poissons Ratio (z) = 0.38979 -0.01747
#
# Static dielectric constant tensor:
#      x y z
#    x 1.630150 0.000000 0.002540 
#    y 0.000000 1.622620 0.000000 
#    z 0.002540 0.000000 1.614670 
# 
# From -- ./inp_files/157093.got.cif
#   From: 2010.05.17/outbox.cif.g08.bks.cpg/sg15_79_cif.got.tgz:157093.got - 2010.06.03 18:47:42.
