data_PCOD9279709
_publ_section_title
;
Structure prediction by ZEFSAII (Michael W. Deem and Ramdas Pophale) SiO2 
 PCOD9279709
Probable space group: C 2/C
;
_chemical_formula_sum "Si O2"
_cell_formula_units_Z 44
_cell_length_a 13.653734
_cell_length_b 31.064563
_cell_length_c 5.123725
_cell_angle_alpha 90.000000
_cell_angle_beta 87.065604
_cell_angle_gamma 90.000000
_cell_volume 2170.364515
_symmetry_space_group_name_H-M "C 2/C"
_symmetry_group_IT_number 15
_symmetry_cell_setting 'monoclinic'
loop_
_space_group_symop_operation_xyz
x,y,z
-x,y,1/2-z
-x,-y,-z
x,-y,1/2+z
1/2+x,1/2+y,z
1/2-x,1/2+y,1/2-z
1/2-x,1/2-y,-z
1/2+x,1/2-y,1/2+z
loop_
_atom_site_type_symbol
_atom_site_label
_atom_site_fract_x
_atom_site_fract_y
_atom_site_fract_z
Si Si1 0.882003 0.476600 0.251561
Si Si2 0.151930 0.734859 0.368730
Si Si3 0.610830 0.330365 0.284761
Si Si4 0.594102 0.894528 0.577070
Si Si5 0.500000 0.181504 0.750000
Si Si6 0.236770 0.155085 0.285658
O O1 0.844588 0.489258 0.541229
O O2 0.000000 0.480606 0.250000
O O3 0.867995 0.429420 0.133818
O O4 0.250000 0.750000 0.500000
O O5 0.111530 0.778229 0.246424
O O6 0.198368 0.698297 0.182236
O O7 0.073046 0.711581 0.569226
O O8 0.500000 0.344758 0.250000
O O9 0.660683 0.339302 0.558486
O O10 0.678381 0.351634 0.058030
O O11 0.500000 0.911421 0.750000
O O12 0.556767 0.851843 0.431234
O O13 0.681002 0.881164 0.759711
#
# Coordination Sequence:
#
# PCOD9279709 Si02
#       6
#     8   8   8   8   4   8
#     4  10  21  36  57  84 119 161 196 223 273 347
#     4  10  23  38  57  79 111 152 204 259 295 345
#     4  11  25  41  63  79 111 153 204 260 310 347
#     4  12  23  37  59  86 127 159 194 236 290 353
#     4  12  24  38  56  88 116 164 208 240 308 342
#     4  11  24  42  57  87 114 150 200 253 302 350
#
# _framework density 20.273091999999998
#
# number of rings (size 3 to 8) (size 9 to 14) (size 15 to 20)
#    0.000    1.091    2.727    4.909    7.636    0.000 
#    0.000    0.000    0.000    0.000    0.000    0.000 
#    0.000   14.545    0.000    0.000    0.000    0.000 
#
# Total GULP energy -122890.232108 kJ/mol
# GULP energy per Si atom -5585.919641 kJ/mol
# Density = 2.022695 g / cm^3
# Si number density = 20.273092 Si / 1000 Ang^3
#
#
#
# Elastic Constant Matrix: (Units=GPa)
#
#
# Indices 1 2 3 4 5 6 
#
# 1 80.6186 32.3746 4.7542 0.0000 6.6714 0.0000
# 2 32.3746 69.8255 9.7322 0.0000 9.4562 0.0000
# 3 4.7542 9.7322 48.9436 0.0000 11.6010 0.0000
# 4 0.0000 0.0000 0.0000 28.8917 0.0000 10.1598
# 5 6.6714 9.4562 11.6010 0.0000 37.9364 0.0000
# 6 0.0000 0.0000 0.0000 10.1598 0.0000 7.9160
#
#
#
# Elastic Compliance Matrix: (Units=1/GPa)
#
#
# Indices 1 2 3 4 5 6 
#
# 1 0.015276 -0.006968 0.000137 0.000000 -0.000991 0.000000
# 2 -0.006968 0.018230 -0.002330 0.000000 -0.002606 0.000000
# 3 0.000137 -0.002330 0.022371 0.000000 -0.006284 0.000000
# 4 0.000000 0.000000 0.000000 0.063083 0.000000 -0.080963
# 5 -0.000991 -0.002606 -0.006284 0.000000 0.029106 0.000000
# 6 0.000000 0.000000 0.000000 -0.080963 0.000000 0.230237
#
#
# Mechanical properties :
#
#
# Convention : Reuss Voigt Hill
#
# Bulk Modulus (GPa) = 26.62798 32.56774 29.59786
# Shear Modulus (GPa) = 12.22066 25.11728 18.66897
#
# Velocity S-wave (km/s) = 2.45787 3.52369 3.03788
# Velocity P-wave (km/s) = 4.60630 5.71442 5.19002
#
# Compressibility (1/GPa) = 0.03755448
#
# Stress axis : x y z
#
# Youngs Moduli (GPa) = 65.46184 54.85569 44.70006
#
# Poissons Ratio (x) = 0.38221 -0.00611
# Poissons Ratio (y) = 0.45611 0.10417
# Poissons Ratio (z) = -0.00894 0.12783
#
# Static dielectric constant tensor:
#      x y z
#    x 1.759570 0.000000 0.012020 
#    y 0.000000 1.782620 0.000000 
#    z 0.012020 0.000000 1.756180 
# 
# From -- ./inp_files/8502.got.cif
#   From: 2010.05.17/outbox.cif.g08.bks.cpg/sg15_5_cif.got.tgz:8502.got - 2010.06.03 18:47:42.
