data_PCOD9279582
_publ_section_title
;
Structure prediction by ZEFSAII (Michael W. Deem and Ramdas Pophale) SiO2 
 PCOD9279582
Probable space group: C 2/C
;
_chemical_formula_sum "Si O2"
_cell_formula_units_Z 40
_cell_length_a 30.747259
_cell_length_b 5.398071
_cell_length_c 9.479970
_cell_angle_alpha 90.000000
_cell_angle_beta 72.479882
_cell_angle_gamma 90.000000
_cell_volume 1500.456307
_symmetry_space_group_name_H-M "C 2/C"
_symmetry_group_IT_number 15
_symmetry_cell_setting 'monoclinic'
loop_
_space_group_symop_operation_xyz
x,y,z
-x,y,1/2-z
-x,-y,-z
x,-y,1/2+z
1/2+x,1/2+y,z
1/2-x,1/2+y,1/2-z
1/2-x,1/2-y,-z
1/2+x,1/2-y,1/2+z
loop_
_atom_site_type_symbol
_atom_site_label
_atom_site_fract_x
_atom_site_fract_y
_atom_site_fract_z
Si Si1 0.649566 0.862591 0.610489
Si Si2 0.871923 0.860188 0.952665
Si Si3 0.960879 0.855627 0.677172
Si Si4 0.564023 0.852748 0.869772
Si Si5 0.264993 0.763362 0.818086
O O1 0.650524 0.629704 0.503339
O O2 0.596706 0.893458 0.703351
O O3 0.680526 0.784380 0.711950
O O4 0.663034 0.139585 0.551158
O O5 0.909804 0.894856 0.792045
O O6 0.903152 0.757280 0.045081
O O7 0.954288 0.624037 0.580584
O O8 0.000000 0.780111 0.750000
O O9 0.971606 0.134054 0.619308
O O10 0.251464 0.513122 0.746856
O O11 0.250000 0.750000 0.000000
#
# Coordination Sequence:
#
# PCOD9279582 Si02
#       5
#     8   8   8   8   8
#     4  10  23  39  62  87 124 161 212 267 318 405
#     4  10  21  38  60  86 116 162 209 256 324 386
#     4  10  21  36  53  86 118 151 203 257 313 387
#     4  10  21  36  59  82 114 162 202 254 321 381
#     4  12  28  47  73 108 144 187 234 291 358 417
#
# _framework density 26.658556999999998
#
# number of rings (size 3 to 8) (size 9 to 14) (size 15 to 20)
#    0.000    1.600    0.000    3.600    5.600    1.600 
#    0.000    0.000    0.000    0.000    0.000    0.000 
#    0.000    0.000    0.000    0.000    0.000    0.000 
#
# Total GULP energy -111769.121216 kJ/mol
# GULP energy per Si atom -5588.456061 kJ/mol
# Density = 2.659788 g / cm^3
# Si number density = 26.658557 Si / 1000 Ang^3
#
#
#
# Elastic Constant Matrix: (Units=GPa)
#
#
# Indices 1 2 3 4 5 6 
#
# 1 84.2185 43.3232 23.6242 0.0000 8.3998 0.0000
# 2 43.3232 204.9791 52.9162 0.0000 -0.6351 0.0000
# 3 23.6242 52.9162 95.6611 0.0000 8.8994 0.0000
# 4 0.0000 0.0000 0.0000 56.2702 0.0000 13.6384
# 5 8.3998 -0.6351 8.8994 0.0000 49.9633 0.0000
# 6 0.0000 0.0000 0.0000 13.6384 0.0000 51.9317
#
#
#
# Elastic Compliance Matrix: (Units=1/GPa)
#
#
# Indices 1 2 3 4 5 6 
#
# 1 0.013864 -0.002451 -0.001879 0.000000 -0.002027 0.000000
# 2 -0.002451 0.006145 -0.002887 0.000000 0.001005 0.000000
# 3 -0.001879 -0.002887 0.012699 0.000000 -0.001983 0.000000
# 4 0.000000 0.000000 0.000000 0.018979 0.000000 -0.004984
# 5 -0.002027 0.001005 -0.001983 0.000000 0.020721 0.000000
# 6 0.000000 0.000000 0.000000 -0.004984 0.000000 0.020565
#
#
# Mechanical properties :
#
#
# Convention : Reuss Voigt Hill
#
# Bulk Modulus (GPa) = 54.72642 69.39842 62.06242
# Shear Modulus (GPa) = 44.05224 49.29939 46.67581
#
# Velocity S-wave (km/s) = 4.06946 4.30500 4.18889
# Velocity P-wave (km/s) = 6.53099 7.12738 6.83569
#
# Compressibility (1/GPa) = 0.01827271
#
# Stress axis : x y z
#
# Youngs Moduli (GPa) = 72.12786 162.72989 78.74454
#
# Poissons Ratio (x) = 0.39892 0.14798
# Poissons Ratio (y) = 0.17682 0.22736
# Poissons Ratio (z) = 0.13555 0.46985
#
# Static dielectric constant tensor:
#      x y z
#    x 2.157710 0.000000 -0.170980 
#    y 0.000000 2.169590 0.000000 
#    z -0.170980 0.000000 2.256130 
# 
# From -- ./inp_files/124821.got.cif
#   From: 2010.05.17/outbox.cif.g08.bks.cpg/sg15_63_cif.got.tgz:124821.got - 2010.06.03 18:47:42.
