data_PCOD9279687
_publ_section_title
;
Structure prediction by ZEFSAII (Michael W. Deem and Ramdas Pophale) SiO2 
 PCOD9279687
Probable space group: C 2/C
;
_chemical_formula_sum "Si O2"
_cell_formula_units_Z 52
_cell_length_a 26.722881
_cell_length_b 11.038780
_cell_length_c 7.650317
_cell_angle_alpha 90.000000
_cell_angle_beta 90.866294
_cell_angle_gamma 90.000000
_cell_volume 2256.493797
_symmetry_space_group_name_H-M "C 2/C"
_symmetry_group_IT_number 15
_symmetry_cell_setting 'monoclinic'
loop_
_space_group_symop_operation_xyz
x,y,z
-x,y,1/2-z
-x,-y,-z
x,-y,1/2+z
1/2+x,1/2+y,z
1/2-x,1/2+y,1/2-z
1/2-x,1/2-y,-z
1/2+x,1/2-y,1/2+z
loop_
_atom_site_type_symbol
_atom_site_label
_atom_site_fract_x
_atom_site_fract_y
_atom_site_fract_z
Si Si1 0.336579 0.426482 0.356600
Si Si2 0.021487 0.627397 0.061377
Si Si3 0.389982 0.649383 0.187468
Si Si4 0.633999 0.109976 0.949094
Si Si5 0.197419 0.578478 0.266478
Si Si6 0.231972 0.913793 0.438158
Si Si7 0.000000 0.809725 0.750000
O O1 0.356411 0.557121 0.292994
O O2 0.379608 0.371376 0.479805
O O3 0.313819 0.363961 0.182209
O O4 0.291660 0.461325 0.484449
O O5 0.000000 0.656654 0.250000
O O6 0.081135 0.610728 0.046327
O O7 0.000000 0.500000 0.000000
O O8 0.003364 0.726255 0.921400
O O9 0.374079 0.789884 0.203310
O O10 0.446998 0.623499 0.242759
O O11 0.651711 0.980777 0.873701
O O12 0.676236 0.144866 0.094432
O O13 0.225404 0.459307 0.191040
O O14 0.238584 0.641615 0.394412
#
# Coordination Sequence:
#
# PCOD9279687 Si02
#       7
#     8   8   8   8   8   8   4
#     4   9  18  39  62  78 115 160 202 259 300 339
#     4  11  21  38  62  89 128 171 196 237 304 364
#     4  10  22  41  60  86 117 156 206 256 300 354
#     4  10  21  36  56  91 123 156 198 240 297 366
#     4   9  17  34  58  87 128 154 183 248 299 362
#     4   8  16  34  57  84 116 156 197 243 304 353
#     4  10  24  42  60  94 126 150 210 256 294 370
#
# _framework density 23.044602000000001
#
# number of rings (size 3 to 8) (size 9 to 14) (size 15 to 20)
#    0.000    2.462    0.769    0.923    2.154    0.615 
#   11.077   29.231    0.000    0.000    0.000    0.000 
#    0.000    0.000    0.000    0.000    0.000    0.000 
#
# Total GULP energy -144914.266590 kJ/mol
# GULP energy per Si atom -5573.625638 kJ/mol
# Density = 2.299215 g / cm^3
# Si number density = 23.044602 Si / 1000 Ang^3
#
#
#
# Elastic Constant Matrix: (Units=GPa)
#
#
# Indices 1 2 3 4 5 6 
#
# 1 127.9042 7.1678 34.5017 0.0000 20.4324 0.0000
# 2 7.1678 13.7372 -8.5480 0.0000 -5.3891 0.0000
# 3 34.5017 -8.5480 95.5668 0.0000 9.9560 0.0000
# 4 0.0000 0.0000 0.0000 66.2831 0.0000 24.9218
# 5 20.4324 -5.3891 9.9560 0.0000 49.3591 0.0000
# 6 0.0000 0.0000 0.0000 24.9218 0.0000 32.9491
#
#
#
# Elastic Compliance Matrix: (Units=1/GPa)
#
#
# Indices 1 2 3 4 5 6 
#
# 1 0.010158 -0.009565 -0.004061 0.000000 -0.004430 0.000000
# 2 -0.009565 0.088664 0.010177 0.000000 0.011587 0.000000
# 3 -0.004061 0.010177 0.012819 0.000000 0.000207 0.000000
# 4 0.000000 0.000000 0.000000 0.021082 0.000000 -0.015946
# 5 -0.004430 0.011587 0.000207 0.000000 0.023317 0.000000
# 6 0.000000 0.000000 0.000000 -0.015946 0.000000 0.042411
#
#
# Mechanical properties :
#
#
# Convention : Reuss Voigt Hill
#
# Bulk Modulus (GPa) = 9.54734 33.71681 21.63208
# Shear Modulus (GPa) = 20.81052 43.32404 32.06728
#
# Velocity S-wave (km/s) = 3.00835 4.34061 3.73437
# Velocity P-wave (km/s) = 4.02726 6.30746 5.29164
#
# Compressibility (1/GPa) = 0.10474120
#
# Stress axis : x y z
#
# Youngs Moduli (GPa) = 98.44926 11.27855 78.01072
#
# Poissons Ratio (x) = 0.10788 0.31681
# Poissons Ratio (y) = 0.94166 -0.79388
# Poissons Ratio (z) = 0.39981 -0.11478
#
# Static dielectric constant tensor:
#      x y z
#    x 1.950090 0.000000 -0.016870 
#    y 0.000000 1.932850 0.000000 
#    z -0.016870 0.000000 1.916420 
# 
# From -- ./inp_files/65158.got.cif
#   From: 2010.05.17/outbox.cif.g08.bks.cpg/sg15_33_cif.got.tgz:65158.got - 2010.06.03 18:47:42.
