data_PCOD9279955
_publ_section_title
;
Structure prediction by ZEFSAII (Michael W. Deem and Ramdas Pophale) SiO2 
 PCOD9279955
Probable space group: C 2/C
;
_chemical_formula_sum "Si O2"
_cell_formula_units_Z 56
_cell_length_a 14.240348
_cell_length_b 23.886471
_cell_length_c 9.066989
_cell_angle_alpha 90.000000
_cell_angle_beta 59.441558
_cell_angle_gamma 90.000000
_cell_volume 2655.796721
_symmetry_space_group_name_H-M "C 2/C"
_symmetry_group_IT_number 15
_symmetry_cell_setting 'monoclinic'
loop_
_space_group_symop_operation_xyz
x,y,z
-x,y,1/2-z
-x,-y,-z
x,-y,1/2+z
1/2+x,1/2+y,z
1/2-x,1/2+y,1/2-z
1/2-x,1/2-y,-z
1/2+x,1/2-y,1/2+z
loop_
_atom_site_type_symbol
_atom_site_label
_atom_site_fract_x
_atom_site_fract_y
_atom_site_fract_z
Si Si1 0.164011 0.575568 0.042786
Si Si2 0.775125 0.136295 0.698156
Si Si3 0.509191 0.667248 0.421712
Si Si4 0.443702 0.889349 0.583681
Si Si5 0.561853 0.787946 0.357128
Si Si6 0.063755 0.954221 0.853885
Si Si7 0.278545 0.951347 0.512028
O O1 0.254804 0.605048 0.869555
O O2 0.188452 0.512357 0.069592
O O3 0.133132 0.609679 0.212694
O O4 0.053381 0.575891 0.032805
O O5 0.889053 0.167499 0.587246
O O6 0.676285 0.179825 0.753646
O O7 0.769901 0.088336 0.576190
O O8 0.500000 0.665321 0.250000
O O9 0.571634 0.724534 0.406228
O O10 0.559398 0.607751 0.427163
O O11 0.485403 0.827334 0.517090
O O12 0.379411 0.917768 0.501413
O O13 0.500000 0.785792 0.250000
O O14 0.188488 0.963856 0.709520
O O15 0.000000 0.953285 0.750000
O O16 0.000000 0.000000 0.000000
#
# Coordination Sequence:
#
# PCOD9279955 Si02
#       7
#     8   8   8   8   8   8   8
#     4  10  23  37  60  86 130 159 195 251 309 363
#     4  11  21  39  62  90 119 163 201 252 307 353
#     4  10  21  40  60  90 120 155 202 254 300 347
#     4  10  22  39  56  92 121 161 201 250 301 364
#     4  10  21  36  62  86 119 152 206 252 296 353
#     4  11  24  41  61  89 124 157 200 255 302 361
#     4  12  21  36  63  88 119 163 207 240 303 364
#
# _framework density 21.08595
#
# number of rings (size 3 to 8) (size 9 to 14) (size 15 to 20)
#    0.000    1.429    4.286    2.143    2.000    6.857 
#    0.000    0.714    6.286    0.000    0.000    0.000 
#    0.000    0.000    0.000    0.000    0.000    0.000 
#
# Total GULP energy -156474.365065 kJ/mol
# GULP energy per Si atom -5588.370181 kJ/mol
# Density = 2.103796 g / cm^3
# Si number density = 21.085950 Si / 1000 Ang^3
#
#
#
# Elastic Constant Matrix: (Units=GPa)
#
#
# Indices 1 2 3 4 5 6 
#
# 1 18.0176 5.9972 4.2627 0.0000 -1.6597 0.0000
# 2 5.9972 162.2963 47.8138 0.0000 -10.2383 0.0000
# 3 4.2627 47.8138 102.2399 0.0000 -23.3982 0.0000
# 4 0.0000 0.0000 0.0000 29.5803 0.0000 -11.4035
# 5 -1.6597 -10.2383 -23.3982 0.0000 19.3768 0.0000
# 6 0.0000 0.0000 0.0000 -11.4035 0.0000 15.0619
#
#
#
# Elastic Compliance Matrix: (Units=1/GPa)
#
#
# Indices 1 2 3 4 5 6 
#
# 1 0.056529 -0.001632 -0.000944 0.000000 0.002840 0.000000
# 2 -0.001632 0.007195 -0.003398 0.000000 -0.000441 0.000000
# 3 -0.000944 -0.003398 0.015173 0.000000 0.016446 0.000000
# 4 0.000000 0.000000 0.000000 0.047740 0.000000 0.036144
# 5 0.002840 -0.000441 0.016446 0.000000 0.071477 0.000000
# 6 0.000000 0.000000 0.000000 0.036144 0.000000 0.093758
#
#
# Mechanical properties :
#
#
# Convention : Reuss Voigt Hill
#
# Bulk Modulus (GPa) = 14.93635 44.30014 29.61825
# Shear Modulus (GPa) = 15.33102 27.76915 21.55008
#
# Velocity S-wave (km/s) = 2.69935 3.63292 3.20036
# Velocity P-wave (km/s) = 4.10052 6.21710 5.26624
#
# Compressibility (1/GPa) = 0.06695074
#
# Stress axis : x y z
#
# Youngs Moduli (GPa) = 17.68998 138.98446 65.90652
#
# Poissons Ratio (x) = 0.22677 0.06221
# Poissons Ratio (y) = 0.02886 0.22393
# Poissons Ratio (z) = 0.01670 0.47223
#
# Static dielectric constant tensor:
#      x y z
#    x 1.787800 0.000000 -0.004250 
#    y 0.000000 1.761570 0.000000 
#    z -0.004250 0.000000 1.774590 
# 
# From -- ./inp_files/42534.got.cif
#   From: 2010.05.17/outbox.cif.g08.bks.cpg/sg15_22_cif.got.tgz:42534.got - 2010.06.03 18:47:42.
