data_PCOD9279426
_publ_section_title
;
Structure prediction by ZEFSAII (Michael W. Deem and Ramdas Pophale) SiO2 
 PCOD9279426
Probable space group: C 2/C
;
_chemical_formula_sum "Si O2"
_cell_formula_units_Z 48
_cell_length_a 23.948672
_cell_length_b 9.438405
_cell_length_c 11.425012
_cell_angle_alpha 90.000000
_cell_angle_beta 124.543438
_cell_angle_gamma 90.000000
_cell_volume 2127.178578
_symmetry_space_group_name_H-M "C 2/C"
_symmetry_group_IT_number 15
_symmetry_cell_setting 'monoclinic'
loop_
_space_group_symop_operation_xyz
x,y,z
-x,y,1/2-z
-x,-y,-z
x,-y,1/2+z
1/2+x,1/2+y,z
1/2-x,1/2+y,1/2-z
1/2-x,1/2-y,-z
1/2+x,1/2-y,1/2+z
loop_
_atom_site_type_symbol
_atom_site_label
_atom_site_fract_x
_atom_site_fract_y
_atom_site_fract_z
Si Si1 0.110433 0.813609 0.846981
Si Si2 0.118273 0.290821 0.613824
Si Si3 0.530661 0.578231 0.658728
Si Si4 0.225969 0.265638 0.139405
Si Si5 0.132493 0.404142 0.203161
Si Si6 0.238119 0.002899 0.994611
O O1 0.087894 0.683899 0.739275
O O2 0.070618 0.948673 0.760314
O O3 0.187979 0.870812 0.923564
O O4 0.099665 0.771318 0.966797
O O5 0.079172 0.200652 0.665023
O O6 0.200239 0.272285 0.721334
O O7 0.102753 0.456964 0.608753
O O8 0.500000 0.635522 0.750000
O O9 0.500000 0.500000 0.500000
O O10 0.164093 0.290603 0.151969
O O11 0.238195 0.419879 0.095232
O O12 0.207544 0.137318 0.030089
O O13 0.195946 0.456139 0.356608
#
# Coordination Sequence:
#
# PCOD9279426 Si02
#       6
#     8   8   8   8   8   8
#     4  12  24  43  71  99 140 183 235 283 355 417
#     4  11  24  44  66 102 138 183 230 283 350 421
#     4  12  27  50  77  99 128 180 248 310 353 410
#     4  10  21  35  60 100 145 179 217 262 337 420
#     4  11  24  37  65 102 145 180 214 272 343 429
#     4  10  21  35  59  99 142 181 218 263 329 429
#
# _framework density 22.565102
#
# number of rings (size 3 to 8) (size 9 to 14) (size 15 to 20)
#    0.000    1.000    5.000    1.500    7.000    0.000 
#    3.000    1.667    0.000    0.000    0.000    0.000 
#    0.000    0.000    0.000    0.000    0.000    0.000 
#
# Total GULP energy -133869.349904 kJ/mol
# GULP energy per Si atom -5577.889579 kJ/mol
# Density = 2.251374 g / cm^3
# Si number density = 22.565102 Si / 1000 Ang^3
#
#
#
# Elastic Constant Matrix: (Units=GPa)
#
#
# Indices 1 2 3 4 5 6 
#
# 1 80.9700 39.9349 15.2949 0.0000 -39.0164 0.0000
# 2 39.9349 104.5235 13.3559 0.0000 -18.7855 0.0000
# 3 15.2949 13.3559 77.1101 0.0000 -24.3608 0.0000
# 4 0.0000 0.0000 0.0000 22.7458 0.0000 -20.0225
# 5 -39.0164 -18.7855 -24.3608 0.0000 34.5942 0.0000
# 6 0.0000 0.0000 0.0000 -20.0225 0.0000 2.2481
#
#
#
# Elastic Compliance Matrix: (Units=1/GPa)
#
#
# Indices 1 2 3 4 5 6 
#
# 1 0.032515 -0.006472 0.006619 0.000000 0.037818 0.000000
# 2 -0.006472 0.011890 -0.001340 0.000000 -0.001786 0.000000
# 3 0.006619 -0.001340 0.018027 0.000000 0.019432 0.000000
# 4 0.000000 0.000000 0.000000 -0.006428 0.000000 -0.057246
# 5 0.037818 -0.001786 0.019432 0.000000 0.084273 0.000000
# 6 0.000000 0.000000 0.000000 -0.057246 0.000000 -0.065032
#
#
# Mechanical properties :
#
#
# Convention : Reuss Voigt Hill
#
# Bulk Modulus (GPa) = 16.65375 44.41946 30.53660
# Shear Modulus (GPa) = 51.20524 24.85215 38.02870
#
# Velocity S-wave (km/s) = 4.76880 3.32226 4.10968
# Velocity P-wave (km/s) = 6.14152 5.86893 6.00677
#
# Compressibility (1/GPa) = 0.06004655
#
# Stress axis : x y z
#
# Youngs Moduli (GPa) = 30.75492 84.10351 55.47358
#
# Poissons Ratio (x) = 0.54430 -0.36719
# Poissons Ratio (y) = 0.19904 0.07434
# Poissons Ratio (z) = -0.20357 0.11270
#
# Static dielectric constant tensor:
#      x y z
#    x 1.412300 0.000000 0.140170 
#    y 0.000000 1.807910 0.000000 
#    z 0.140170 0.000000 1.829190 
# 
# From -- ./inp_files/121622.got.cif
#   From: 2010.05.17/outbox.cif.g08.bks.cpg/sg15_61_cif.got.tgz:121622.got - 2010.06.03 18:47:42.
