data_PCOD9279044
_publ_section_title
;
Structure prediction by ZEFSAII (Michael W. Deem and Ramdas Pophale) SiO2 
 PCOD9279044
Probable space group: C 2/C
;
_chemical_formula_sum "Si O2"
_cell_formula_units_Z 40
_cell_length_a 13.559011
_cell_length_b 5.601466
_cell_length_c 21.729272
_cell_angle_alpha 90.000000
_cell_angle_beta 106.324491
_cell_angle_gamma 90.000000
_cell_volume 1583.812281
_symmetry_space_group_name_H-M "C 2/C"
_symmetry_group_IT_number 15
_symmetry_cell_setting 'monoclinic'
loop_
_space_group_symop_operation_xyz
x,y,z
-x,y,1/2-z
-x,-y,-z
x,-y,1/2+z
1/2+x,1/2+y,z
1/2-x,1/2+y,1/2-z
1/2-x,1/2-y,-z
1/2+x,1/2-y,1/2+z
loop_
_atom_site_type_symbol
_atom_site_label
_atom_site_fract_x
_atom_site_fract_y
_atom_site_fract_z
Si Si1 0.841064 0.750757 0.705104
Si Si2 0.765994 0.818001 0.432948
Si Si3 0.528009 0.096468 0.092174
Si Si4 0.385748 0.750106 0.772512
Si Si5 0.915493 0.196892 0.467414
O O1 0.826095 0.739887 0.629044
O O2 0.725776 0.749068 0.713697
O O3 0.887680 0.498733 0.735334
O O4 0.889501 0.999325 0.737067
O O5 0.750000 0.750000 0.500000
O O6 0.866857 0.684069 0.423582
O O7 0.803327 0.092309 0.438179
O O8 0.531276 0.218919 0.158280
O O9 0.430922 0.142456 0.031120
O O10 0.547928 0.814724 0.089985
O O11 0.000000 0.000000 0.500000
#
# Coordination Sequence:
#
# PCOD9279044 Si02
#       5
#     8   8   8   8   8
#     4   9  19  31  50  82 111 146 186 237 297 342
#     4  10  21  34  54  84 120 153 186 239 303 362
#     4   9  19  34  57  85 109 151 197 246 295 340
#     4   9  18  31  54  78 112 144 188 247 287 340
#     4   9  19  34  55  84 111 146 197 240 290 348
#
# _framework density 25.255519
#
# number of rings (size 3 to 8) (size 9 to 14) (size 15 to 20)
#    0.000    2.800    0.000    0.000   16.800    0.800 
#    0.000    0.000    0.000    1.200    0.000    0.000 
#    0.000    0.000    0.000    0.000    0.000    0.000 
#
# Total GULP energy -111661.948189 kJ/mol
# GULP energy per Si atom -5583.097409 kJ/mol
# Density = 2.519804 g / cm^3
# Si number density = 25.255519 Si / 1000 Ang^3
#
#
#
# Elastic Constant Matrix: (Units=GPa)
#
#
# Indices 1 2 3 4 5 6 
#
# 1 81.5304 14.8189 27.2407 0.0000 -8.1208 0.0000
# 2 14.8189 151.9385 97.2105 0.0000 5.1189 0.0000
# 3 27.2407 97.2105 209.7717 0.0000 9.1762 0.0000
# 4 0.0000 0.0000 0.0000 36.3287 0.0000 13.0243
# 5 -8.1208 5.1189 9.1762 0.0000 29.9646 0.0000
# 6 0.0000 0.0000 0.0000 13.0243 0.0000 -5.2640
#
#
#
# Elastic Compliance Matrix: (Units=1/GPa)
#
#
# Indices 1 2 3 4 5 6 
#
# 1 0.013333 -0.000308 -0.001773 0.000000 0.004209 0.000000
# 2 -0.000308 0.009365 -0.004283 0.000000 -0.000371 0.000000
# 3 -0.001773 -0.004283 0.007066 0.000000 -0.001913 0.000000
# 4 0.000000 0.000000 0.000000 0.014587 0.000000 0.036092
# 5 0.004209 -0.000371 -0.001913 0.000000 0.035162 0.000000
# 6 0.000000 0.000000 0.000000 0.036092 0.000000 -0.100670
#
#
# Mechanical properties :
#
#
# Convention : Reuss Voigt Hill
#
# Bulk Modulus (GPa) = 58.70218 80.19788 69.45003
# Shear Modulus (GPa) = -1817.89781 32.47056 -892.71363
#
# Velocity S-wave (km/s) = -26.85824 3.58953 -18.82127
# Velocity P-wave (km/s) = 30.63537 7.00023 21.08937
#
# Compressibility (1/GPa) = 0.01703514
#
# Stress axis : x y z
#
# Youngs Moduli (GPa) = 75.00254 106.78348 141.52324
#
# Poissons Ratio (x) = 0.03288 0.25089
# Poissons Ratio (y) = 0.02310 0.60621
# Poissons Ratio (z) = 0.13296 0.45741
#
# Static dielectric constant tensor:
#      x y z
#    x 2.047090 0.000000 -0.057210 
#    y 0.000000 2.344620 0.000000 
#    z -0.057210 0.000000 2.007110 
# 
# From -- ./inp_files/246305.got.cif
#   From: 2010.05.17/outbox.cif.g08.bks.cpg/sg15_124_cif.got.tgz:246305.got - 2010.06.03 18:47:42.
