data_PCOD9279101
_publ_section_title
;
Structure prediction by ZEFSAII (Michael W. Deem and Ramdas Pophale) SiO2 
 PCOD9279101
Probable space group: C 2/C
;
_chemical_formula_sum "Si O2"
_cell_formula_units_Z 56
_cell_length_a 21.770286
_cell_length_b 15.566037
_cell_length_c 8.085177
_cell_angle_alpha 90.000000
_cell_angle_beta 106.355684
_cell_angle_gamma 90.000000
_cell_volume 2629.003826
_symmetry_space_group_name_H-M "C 2/C"
_symmetry_group_IT_number 15
_symmetry_cell_setting 'monoclinic'
loop_
_space_group_symop_operation_xyz
x,y,z
-x,y,1/2-z
-x,-y,-z
x,-y,1/2+z
1/2+x,1/2+y,z
1/2-x,1/2+y,1/2-z
1/2-x,1/2-y,-z
1/2+x,1/2-y,1/2+z
loop_
_atom_site_type_symbol
_atom_site_label
_atom_site_fract_x
_atom_site_fract_y
_atom_site_fract_z
Si Si1 0.500000 0.522817 0.750000
Si Si2 0.866568 0.369264 0.171226
Si Si3 0.172112 0.307196 0.810154
Si Si4 0.372298 0.031184 0.019764
Si Si5 0.500000 0.918321 0.750000
Si Si6 0.312198 0.718411 0.321811
Si Si7 0.453816 0.216453 0.489861
Si Si8 0.944392 0.874039 0.933447
O O1 0.462771 0.456253 0.837975
O O2 0.451229 0.586584 0.621402
O O3 0.843255 0.436812 0.015244
O O4 0.874771 0.426400 0.342599
O O5 0.819291 0.295544 0.196619
O O6 0.929299 0.322425 0.145195
O O7 0.157138 0.400506 0.875498
O O8 0.239421 0.311739 0.767979
O O9 0.114398 0.268681 0.656512
O O10 0.176950 0.250921 0.981276
O O11 0.444022 0.022586 0.141290
O O12 0.515469 0.855149 0.607992
O O13 0.373483 0.658000 0.337409
O O14 0.502090 0.297450 0.539789
#
# Coordination Sequence:
#
# PCOD9279101 Si02
#       8
#     4   8   8   8   4   8   8   8
#     4  10  23  38  59  90 118 150 198 254 307 356
#     4  11  23  37  59  87 118 156 199 243 299 364
#     4   9  20  39  60  86 121 161 204 249 303 360
#     4  10  21  37  54  85 124 154 192 247 299 354
#     4  10  21  34  57  84 116 156 194 238 299 364
#     4  10  21  39  63  87 118 162 206 249 300 367
#     4  11  21  37  62  87 115 157 202 247 302 369
#     4  11  21  39  61  87 119 152 199 252 303 357
#
# _framework density 21.300844999999999
#
# number of rings (size 3 to 8) (size 9 to 14) (size 15 to 20)
#    0.000    1.714    0.000    6.429    0.000    5.714 
#    0.000    8.571    0.000    0.000    0.000    0.000 
#    0.000    0.000    0.000    0.000    0.000    0.000 
#
# Total GULP energy -156283.231322 kJ/mol
# GULP energy per Si atom -5581.543976 kJ/mol
# Density = 2.125236 g / cm^3
# Si number density = 21.300845 Si / 1000 Ang^3
#
#
#
# Elastic Constant Matrix: (Units=GPa)
#
#
# Indices 1 2 3 4 5 6 
#
# 1 121.4969 44.2442 34.4005 0.0000 -8.5688 0.0000
# 2 44.2442 95.3762 40.3642 0.0000 -5.2047 0.0000
# 3 34.4005 40.3642 88.1954 0.0000 -18.3071 0.0000
# 4 0.0000 0.0000 0.0000 45.0768 0.0000 -4.8256
# 5 -8.5688 -5.2047 -18.3071 0.0000 29.9311 0.0000
# 6 0.0000 0.0000 0.0000 -4.8256 0.0000 12.5053
#
#
#
# Elastic Compliance Matrix: (Units=1/GPa)
#
#
# Indices 1 2 3 4 5 6 
#
# 1 0.010282 -0.003853 -0.002033 0.000000 0.001030 0.000000
# 2 -0.003853 0.014513 -0.005549 0.000000 -0.001973 0.000000
# 3 -0.002033 -0.005549 0.016437 0.000000 0.008506 0.000000
# 4 0.000000 0.000000 0.000000 0.023140 0.000000 0.008929
# 5 0.001030 -0.001973 0.008506 0.000000 0.038565 0.000000
# 6 0.000000 0.000000 0.000000 0.008929 0.000000 0.083412
#
#
# Mechanical properties :
#
#
# Convention : Reuss Voigt Hill
#
# Bulk Modulus (GPa) = 54.46212 60.34294 57.40253
# Shear Modulus (GPa) = 23.21921 29.90663 26.56292
#
# Velocity S-wave (km/s) = 3.30519 3.75108 3.53517
# Velocity P-wave (km/s) = 6.33950 6.86667 6.60834
#
# Compressibility (1/GPa) = 0.01836138
#
# Stress axis : x y z
#
# Youngs Moduli (GPa) = 97.25599 68.90452 60.83927
#
# Poissons Ratio (x) = 0.26549 0.12370
# Poissons Ratio (y) = 0.37474 0.33758
# Poissons Ratio (z) = 0.19775 0.38234
#
# Static dielectric constant tensor:
#      x y z
#    x 1.762990 0.000000 -0.001730 
#    y 0.000000 1.757160 0.000000 
#    z -0.001730 0.000000 1.869800 
# 
# From -- ./inp_files/55663.got.cif
#   From: 2010.05.17/outbox.cif.g08.bks.cpg/sg15_28_cif.got.tgz:55663.got - 2010.06.03 18:47:42.
