data_PCOD9279431
_publ_section_title
;
Structure prediction by ZEFSAII (Michael W. Deem and Ramdas Pophale) SiO2 
 PCOD9279431
Probable space group: C 2/C
;
_chemical_formula_sum "Si O2"
_cell_formula_units_Z 52
_cell_length_a 23.362690
_cell_length_b 15.579211
_cell_length_c 8.995750
_cell_angle_alpha 90.000000
_cell_angle_beta 52.651072
_cell_angle_gamma 90.000000
_cell_volume 2602.846838
_symmetry_space_group_name_H-M "C 2/C"
_symmetry_group_IT_number 15
_symmetry_cell_setting 'monoclinic'
loop_
_space_group_symop_operation_xyz
x,y,z
-x,y,1/2-z
-x,-y,-z
x,-y,1/2+z
1/2+x,1/2+y,z
1/2-x,1/2+y,1/2-z
1/2-x,1/2-y,-z
1/2+x,1/2-y,1/2+z
loop_
_atom_site_type_symbol
_atom_site_label
_atom_site_fract_x
_atom_site_fract_y
_atom_site_fract_z
Si Si1 0.779200 0.889802 0.438998
Si Si2 0.500000 0.829843 0.750000
Si Si3 0.137889 0.398993 0.107839
Si Si4 0.148301 0.278729 0.587834
Si Si5 0.672242 0.734513 0.201375
Si Si6 0.927571 0.517044 0.526132
Si Si7 0.703429 0.439067 0.752243
O O1 0.820460 0.799248 0.362977
O O2 0.694686 0.862763 0.560195
O O3 0.801141 0.926794 0.564844
O O4 0.801273 0.962374 0.287647
O O5 0.561372 0.779061 0.742688
O O6 0.554357 0.894670 0.583815
O O7 0.123456 0.302187 0.186323
O O8 0.133699 0.459826 0.259738
O O9 0.087351 0.440558 0.063100
O O10 0.216349 0.409012 0.916614
O O11 0.169536 0.261502 0.380435
O O12 0.656343 0.632562 0.237622
O O13 0.750000 0.750000 0.000000
O O14 0.000000 0.500000 0.500000
#
# Coordination Sequence:
#
# PCOD9279431 Si02
#       7
#     8   4   8   8   8   8   8
#     4  10  22  39  62  87 118 153 202 245 301 353
#     4  12  22  36  60  80 122 156 196 232 298 358
#     4  11  21  36  54  80 122 154 193 238 287 352
#     4  10  22  40  59  88 119 159 196 241 301 362
#     4   9  20  36  56  84 117 151 194 247 290 338
#     4  12  23  35  52  81 116 164 193 226 286 363
#     4  10  21  35  60  86 111 154 196 251 295 342
#
# _framework density 19.978124000000001
#
# number of rings (size 3 to 8) (size 9 to 14) (size 15 to 20)
#    0.000    1.538    3.077    1.846    6.462    0.000 
#    0.000    0.000    0.000    3.692    4.000    0.000 
#    0.000    0.000    0.000    0.000    0.000    0.000 
#
# Total GULP energy -144829.982929 kJ/mol
# GULP energy per Si atom -5570.383959 kJ/mol
# Density = 1.993265 g / cm^3
# Si number density = 19.978124 Si / 1000 Ang^3
#
#
#
# Elastic Constant Matrix: (Units=GPa)
#
#
# Indices 1 2 3 4 5 6 
#
# 1 84.8609 47.3541 1.1659 0.0000 -0.0415 0.0000
# 2 47.3541 126.9231 6.8274 0.0000 8.1547 0.0000
# 3 1.1659 6.8274 24.9078 0.0000 10.8468 0.0000
# 4 0.0000 0.0000 0.0000 9.0174 0.0000 -20.4141
# 5 -0.0415 8.1547 10.8468 0.0000 19.2607 0.0000
# 6 0.0000 0.0000 0.0000 -20.4141 0.0000 -5.7871
#
#
#
# Elastic Compliance Matrix: (Units=1/GPa)
#
#
# Indices 1 2 3 4 5 6 
#
# 1 0.014997 -0.005749 -0.000265 0.000000 0.002616 0.000000
# 2 -0.005749 0.010320 -0.000863 0.000000 -0.003896 0.000000
# 3 -0.000265 -0.000863 0.053313 0.000000 -0.029659 0.000000
# 4 0.000000 0.000000 0.000000 0.012341 0.000000 -0.043534
# 5 0.002616 -0.003896 -0.029659 0.000000 0.070277 0.000000
# 6 0.000000 0.000000 0.000000 -0.043534 0.000000 -0.019230
#
#
# Mechanical properties :
#
#
# Convention : Reuss Voigt Hill
#
# Bulk Modulus (GPa) = 15.41424 38.59853 27.00638
# Shear Modulus (GPa) = 28.18516 16.58782 22.38649
#
# Velocity S-wave (km/s) = 3.76014 2.88462 3.35109
# Velocity P-wave (km/s) = 5.15595 5.51879 5.34045
#
# Compressibility (1/GPa) = 0.06487507
#
# Stress axis : x y z
#
# Youngs Moduli (GPa) = 66.67994 96.89490 18.75722
#
# Poissons Ratio (x) = 0.55706 0.00497
# Poissons Ratio (y) = 0.38335 0.01619
# Poissons Ratio (z) = 0.01769 0.08365
#
# Static dielectric constant tensor:
#      x y z
#    x 1.743670 0.000000 -0.047430 
#    y 0.000000 0.426410 0.000000 
#    z -0.047430 0.000000 1.723000 
# 
# From -- ./inp_files/61423.got.cif
#   From: 2010.05.17/outbox.cif.g08.bks.cpg/sg15_31_cif.got.tgz:61423.got - 2010.06.03 18:47:42.
