data_PCOD9279115
_publ_section_title
;
Structure prediction by ZEFSAII (Michael W. Deem and Ramdas Pophale) SiO2 
 PCOD9279115
Probable space group: C 2/C
;
_chemical_formula_sum "Si O2"
_cell_formula_units_Z 64
_cell_length_a 8.760079
_cell_length_b 23.702450
_cell_length_c 23.333186
_cell_angle_alpha 90.000000
_cell_angle_beta 137.182423
_cell_angle_gamma 90.000000
_cell_volume 3292.843438
_symmetry_space_group_name_H-M "C 2/C"
_symmetry_group_IT_number 15
_symmetry_cell_setting 'monoclinic'
loop_
_space_group_symop_operation_xyz
x,y,z
-x,y,1/2-z
-x,-y,-z
x,-y,1/2+z
1/2+x,1/2+y,z
1/2-x,1/2+y,1/2-z
1/2-x,1/2-y,-z
1/2+x,1/2-y,1/2+z
loop_
_atom_site_type_symbol
_atom_site_label
_atom_site_fract_x
_atom_site_fract_y
_atom_site_fract_z
Si Si1 0.405181 0.780650 0.128187
Si Si2 0.854256 0.478699 0.386826
Si Si3 0.784584 0.821169 0.301226
Si Si4 0.461617 0.542827 0.937301
Si Si5 0.964565 0.561239 0.798742
Si Si6 0.336267 0.454118 0.576130
Si Si7 0.797727 0.333921 0.976279
Si Si8 0.233500 0.877499 0.434377
O O1 0.662527 0.781686 0.221201
O O2 0.278326 0.801446 0.151507
O O3 0.317793 0.719924 0.084096
O O4 0.370865 0.819162 0.061883
O O5 0.851047 0.470756 0.318926
O O6 0.737515 0.534095 0.379167
O O7 0.740099 0.425223 0.386619
O O8 0.113536 0.475681 0.479661
O O9 0.674565 0.882653 0.255554
O O10 0.048525 0.830472 0.369693
O O11 0.225630 0.572692 0.885896
O O12 0.470424 0.497382 0.887819
O O13 0.642250 0.589975 0.966342
O O14 0.500000 0.500000 0.000000
O O15 0.000000 0.527675 0.750000
O O16 0.360285 0.389067 0.567984
O O17 0.018690 0.351592 0.000614
#
# Coordination Sequence:
#
# PCOD9279115 Si02
#       8
#     8   8   8   8   8   8   8   8
#     4  10  21  38  59  83 112 155 203 255 293 353
#     4   9  19  33  53  86 121 144 186 227 286 360
#     4  11  21  38  61  84 116 152 196 252 313 336
#     4  11  20  32  57  88 116 156 189 227 288 366
#     4  12  21  34  55  87 119 150 186 242 293 350
#     4   9  18  34  54  81 116 152 185 230 282 345
#     4  10  22  37  59  88 117 151 203 246 300 347
#     4  10  21  34  57  93 115 149 190 248 305 349
#
# _framework density 19.436088999999999
#
# number of rings (size 3 to 8) (size 9 to 14) (size 15 to 20)
#    0.000    1.750    3.750    2.250    1.750    2.500 
#    0.000    0.000    5.500    0.000    0.000    0.000 
#    0.000    0.000    0.000    0.000    0.000    0.000 
#
# Total GULP energy -178196.277227 kJ/mol
# GULP energy per Si atom -5568.633663 kJ/mol
# Density = 1.939185 g / cm^3
# Si number density = 19.436089 Si / 1000 Ang^3
#
#
#
# Elastic Constant Matrix: (Units=GPa)
#
#
# Indices 1 2 3 4 5 6 
#
# 1 71.3999 21.4774 26.1684 0.0000 -14.5899 0.0000
# 2 21.4774 87.6492 28.6103 0.0000 -5.1423 0.0000
# 3 26.1684 28.6103 66.4882 0.0000 -21.7602 0.0000
# 4 0.0000 0.0000 0.0000 34.3208 0.0000 -2.6938
# 5 -14.5899 -5.1423 -21.7602 0.0000 41.2954 0.0000
# 6 0.0000 0.0000 0.0000 -2.6938 0.0000 25.9139
#
#
#
# Elastic Compliance Matrix: (Units=1/GPa)
#
#
# Indices 1 2 3 4 5 6 
#
# 1 0.017114 -0.002507 -0.004568 0.000000 0.003327 0.000000
# 2 -0.002507 0.013733 -0.005623 0.000000 -0.002138 0.000000
# 3 -0.004568 -0.005623 0.022356 0.000000 0.009466 0.000000
# 4 0.000000 0.000000 0.000000 0.029377 0.000000 0.003054
# 5 0.003327 -0.002138 0.009466 0.000000 0.030113 0.000000
# 6 0.000000 0.000000 0.000000 0.003054 0.000000 0.038907
#
#
# Mechanical properties :
#
#
# Convention : Reuss Voigt Hill
#
# Bulk Modulus (GPa) = 35.96184 42.00551 38.98368
# Shear Modulus (GPa) = 26.84367 30.25809 28.55088
#
# Velocity S-wave (km/s) = 3.72038 3.94991 3.83686
# Velocity P-wave (km/s) = 6.08258 6.51624 6.30314
#
# Compressibility (1/GPa) = 0.02780726
#
# Stress axis : x y z
#
# Youngs Moduli (GPa) = 58.43220 72.81541 44.73161
#
# Poissons Ratio (x) = 0.18257 0.20433
# Poissons Ratio (y) = 0.14651 0.25151
# Poissons Ratio (z) = 0.26691 0.40941
#
# Static dielectric constant tensor:
#      x y z
#    x 1.745560 0.000000 0.003890 
#    y 0.000000 1.694980 0.000000 
#    z 0.003890 0.000000 1.760470 
# 
# From -- ./inp_files/234711.got.cif
#   From: 2010.05.17/outbox.cif.g08.bks.cpg/sg15_118_cif.got.tgz:234711.got - 2010.06.03 18:47:42.
