data_PCOD9279522
_publ_section_title
;
Structure prediction by ZEFSAII (Michael W. Deem and Ramdas Pophale) SiO2 
 PCOD9279522
Probable space group: C 2/C
;
_chemical_formula_sum "Si O2"
_cell_formula_units_Z 48
_cell_length_a 10.770546
_cell_length_b 17.687306
_cell_length_c 12.364624
_cell_angle_alpha 90.000000
_cell_angle_beta 72.439166
_cell_angle_gamma 90.000000
_cell_volume 2245.712557
_symmetry_space_group_name_H-M "C 2/C"
_symmetry_group_IT_number 15
_symmetry_cell_setting 'monoclinic'
loop_
_space_group_symop_operation_xyz
x,y,z
-x,y,1/2-z
-x,-y,-z
x,-y,1/2+z
1/2+x,1/2+y,z
1/2-x,1/2+y,1/2-z
1/2-x,1/2-y,-z
1/2+x,1/2-y,1/2+z
loop_
_atom_site_type_symbol
_atom_site_label
_atom_site_fract_x
_atom_site_fract_y
_atom_site_fract_z
Si Si1 0.298060 0.689069 0.798447
Si Si2 0.530071 0.436762 0.623592
Si Si3 0.489979 0.387222 0.099076
Si Si4 0.818248 0.560064 0.108474
Si Si5 0.652996 0.135221 0.183684
Si Si6 0.914012 0.604485 0.538624
O O1 0.393868 0.649777 0.862165
O O2 0.360657 0.657384 0.671120
O O3 0.308855 0.778203 0.809136
O O4 0.152711 0.663357 0.863765
O O5 0.500000 0.406011 0.750000
O O6 0.482534 0.387218 0.535642
O O7 0.478530 0.523337 0.629840
O O8 0.686988 0.441741 0.574446
O O9 0.783435 0.584950 0.239539
O O10 0.882032 0.477452 0.095266
O O11 0.932582 0.611500 0.026699
O O12 0.500000 0.129531 0.250000
O O13 0.659493 0.110289 0.057946
#
# Coordination Sequence:
#
# PCOD9279522 Si02
#       6
#     8   8   8   8   8   8
#     4  11  19  41  63  95 119 164 217 257 305 361
#     4  11  21  38  60  92 125 160 207 262 315 365
#     4  10  21  35  64  89 119 160 208 266 304 362
#     4  10  22  38  56  93 127 158 209 252 314 371
#     4  10  21  37  64  91 121 164 213 261 299 370
#     4  10  21  37  60  90 126 164 202 251 310 377
#
# _framework density 21.374061999999999
#
# number of rings (size 3 to 8) (size 9 to 14) (size 15 to 20)
#    0.000    1.667    5.000    0.500    2.333    1.333 
#    0.000    3.333    0.000    0.000    0.000    0.000 
#    0.000    0.000    0.000    0.000    0.000    0.000 
#
# Total GULP energy -134045.688258 kJ/mol
# GULP energy per Si atom -5585.237011 kJ/mol
# Density = 2.132541 g / cm^3
# Si number density = 21.374062 Si / 1000 Ang^3
#
#
#
# Elastic Constant Matrix: (Units=GPa)
#
#
# Indices 1 2 3 4 5 6 
#
# 1 43.3726 -0.9544 -6.0994 0.0000 -12.9380 0.0000
# 2 -0.9544 73.8936 40.5718 0.0000 16.6928 0.0000
# 3 -6.0994 40.5718 121.7413 0.0000 -3.2935 0.0000
# 4 0.0000 0.0000 0.0000 -10.4008 0.0000 9.1599
# 5 -12.9380 16.6928 -3.2935 0.0000 20.8594 0.0000
# 6 0.0000 0.0000 0.0000 9.1599 0.0000 14.7755
#
#
#
# Elastic Compliance Matrix: (Units=1/GPa)
#
#
# Indices 1 2 3 4 5 6 
#
# 1 0.031798 -0.008667 0.005225 0.000000 0.027483 0.000000
# 2 -0.008667 0.024518 -0.009321 0.000000 -0.026468 0.000000
# 3 0.005225 -0.009321 0.011923 0.000000 0.012583 0.000000
# 4 0.000000 0.000000 0.000000 -0.062192 0.000000 0.038555
# 5 0.027483 -0.026468 0.012583 0.000000 0.088154 0.000000
# 6 0.000000 0.000000 0.000000 0.038555 0.000000 0.043778
#
#
# Mechanical properties :
#
#
# Convention : Reuss Voigt Hill
#
# Bulk Modulus (GPa) = 23.41188 34.00482 28.70835
# Shear Modulus (GPa) = 28.13043 18.74612 23.43827
#
# Velocity S-wave (km/s) = 3.63175 2.96472 3.31505
# Velocity P-wave (km/s) = 5.34446 5.25959 5.30220
#
# Compressibility (1/GPa) = 0.04271336
#
# Stress axis : x y z
#
# Youngs Moduli (GPa) = 31.44812 40.78625 83.87347
#
# Poissons Ratio (x) = 0.35348 -0.43823
# Poissons Ratio (y) = 0.27255 0.78180
# Poissons Ratio (z) = -0.16431 0.38018
#
# Static dielectric constant tensor:
#      x y z
#    x 1.815210 0.000000 -0.011790 
#    y 0.000000 1.758810 0.000000 
#    z -0.011790 0.000000 1.817620 
# 
# From -- ./inp_files/87769.got.cif
#   From: 2010.05.17/outbox.cif.g08.bks.cpg/sg15_44_cif.got.tgz:87769.got - 2010.06.03 18:47:42.
