data_PCOD9279981
_publ_section_title
;
Structure prediction by ZEFSAII (Michael W. Deem and Ramdas Pophale) SiO2 
 PCOD9279981
Probable space group: C 2/C
;
_chemical_formula_sum "Si O2"
_cell_formula_units_Z 56
_cell_length_a 22.153758
_cell_length_b 10.739986
_cell_length_c 18.975004
_cell_angle_alpha 90.000000
_cell_angle_beta 29.629010
_cell_angle_gamma 90.000000
_cell_volume 2232.007703
_symmetry_space_group_name_H-M "C 2/C"
_symmetry_group_IT_number 15
_symmetry_cell_setting 'monoclinic'
loop_
_space_group_symop_operation_xyz
x,y,z
-x,y,1/2-z
-x,-y,-z
x,-y,1/2+z
1/2+x,1/2+y,z
1/2-x,1/2+y,1/2-z
1/2-x,1/2-y,-z
1/2+x,1/2-y,1/2+z
loop_
_atom_site_type_symbol
_atom_site_label
_atom_site_fract_x
_atom_site_fract_y
_atom_site_fract_z
Si Si1 0.676731 0.820922 0.168269
Si Si2 0.207418 0.143100 0.649045
Si Si3 0.425622 0.870080 0.568958
Si Si4 0.781385 0.600332 0.418372
Si Si5 0.969027 0.987366 0.363150
Si Si6 0.580556 0.245102 0.571863
Si Si7 0.671989 0.758337 0.340113
O O1 0.552450 0.770126 0.262664
O O2 0.682037 0.799987 0.247984
O O3 0.677385 0.966441 0.149484
O O4 0.788637 0.738269 0.026842
O O5 0.155220 0.279163 0.678143
O O6 0.280525 0.103828 0.504085
O O7 0.283212 0.150101 0.643395
O O8 0.091968 0.054950 0.774132
O O9 0.418563 0.848829 0.493029
O O10 0.522184 0.762690 0.499563
O O11 0.281692 0.848241 0.737260
O O12 0.500000 0.000000 0.500000
O O13 0.640698 0.610731 0.533117
O O14 0.000000 0.017337 0.250000
O O15 0.919492 0.109618 0.451378
#
# Coordination Sequence:
#
# PCOD9279981 Si02
#       7
#     8   8   8   8   8   8   8
#     4   9  19  40  63  94 133 169 214 270 337 397
#     4  10  21  36  62  92 123 175 230 264 331 395
#     4  10  23  43  63  96 142 175 219 282 336 401
#     4   9  20  40  61  87 129 175 216 279 327 394
#     4   9  19  39  61  85 125 167 214 276 323 393
#     4   9  19  38  62  92 126 171 212 265 335 394
#     4  10  23  38  64 102 132 179 220 278 336 402
#
# _framework density 25.08952
#
# number of rings (size 3 to 8) (size 9 to 14) (size 15 to 20)
#    0.000    2.571    0.000    0.000    6.000    3.429 
#    0.000   12.143    0.000    4.286    0.000    0.000 
#    0.000    0.000    0.000    0.000    0.000    0.000 
#
# Total GULP energy -156054.718591 kJ/mol
# GULP energy per Si atom -5573.382807 kJ/mol
# Density = 2.503242 g / cm^3
# Si number density = 25.089520 Si / 1000 Ang^3
#
#
#
# Elastic Constant Matrix: (Units=GPa)
#
#
# Indices 1 2 3 4 5 6 
#
# 1 176.4253 15.8491 32.1648 0.0000 -6.1524 0.0000
# 2 15.8491 71.9220 9.5475 0.0000 -4.7243 0.0000
# 3 32.1648 9.5475 98.0679 0.0000 -13.9428 0.0000
# 4 0.0000 0.0000 0.0000 18.5028 0.0000 16.7597
# 5 -6.1524 -4.7243 -13.9428 0.0000 29.8611 0.0000
# 6 0.0000 0.0000 0.0000 16.7597 0.0000 5.5589
#
#
#
# Elastic Compliance Matrix: (Units=1/GPa)
#
#
# Indices 1 2 3 4 5 6 
#
# 1 0.006114 -0.001085 -0.001869 0.000000 0.000215 0.000000
# 2 -0.001085 0.014360 -0.000804 0.000000 0.001673 0.000000
# 3 -0.001869 -0.000804 0.011585 0.000000 0.004897 0.000000
# 4 0.000000 0.000000 0.000000 -0.031224 0.000000 0.094139
# 5 0.000215 0.001673 0.004897 0.000000 0.036084 0.000000
# 6 0.000000 0.000000 0.000000 0.094139 0.000000 -0.103930
#
#
# Mechanical properties :
#
#
# Convention : Reuss Voigt Hill
#
# Bulk Modulus (GPa) = 40.74748 51.28199 46.01474
# Shear Modulus (GPa) = -97.43726 30.04148 -33.69789
#
# Velocity S-wave (km/s) = -6.23860 3.46406 -3.66882
# Velocity P-wave (km/s) = 5.96803 6.04017 0.65809
#
# Compressibility (1/GPa) = 0.02454139
#
# Stress axis : x y z
#
# Youngs Moduli (GPa) = 163.56312 69.63934 86.32204
#
# Poissons Ratio (x) = 0.07556 0.16134
# Poissons Ratio (y) = 0.17747 0.06943
# Poissons Ratio (z) = 0.30570 0.05601
#
# Static dielectric constant tensor:
#      x y z
#    x 1.966810 0.000000 -0.035350 
#    y 0.000000 2.001280 0.000000 
#    z -0.035350 0.000000 2.161840 
# 
# From -- ./inp_files/255423.got.cif
#   From: 2010.05.17/outbox.cif.g08.bks.cpg/sg15_128_cif.got.tgz:255423.got - 2010.06.03 18:47:42.
