data_PCOD9279370
_publ_section_title
;
Structure prediction by ZEFSAII (Michael W. Deem and Ramdas Pophale) SiO2 
 PCOD9279370
Probable space group: C 2/C
;
_chemical_formula_sum "Si O2"
_cell_formula_units_Z 28
_cell_length_a 7.329446
_cell_length_b 34.235842
_cell_length_c 5.165591
_cell_angle_alpha 90.000000
_cell_angle_beta 73.861211
_cell_angle_gamma 90.000000
_cell_volume 1245.118771
_symmetry_space_group_name_H-M "C 2/C"
_symmetry_group_IT_number 15
_symmetry_cell_setting 'monoclinic'
loop_
_space_group_symop_operation_xyz
x,y,z
-x,y,1/2-z
-x,-y,-z
x,-y,1/2+z
1/2+x,1/2+y,z
1/2-x,1/2+y,1/2-z
1/2-x,1/2-y,-z
1/2+x,1/2-y,1/2+z
loop_
_atom_site_type_symbol
_atom_site_label
_atom_site_fract_x
_atom_site_fract_y
_atom_site_fract_z
Si Si1 0.500000 0.472635 0.750000
Si Si2 0.230969 0.166267 0.145284
Si Si3 0.626584 0.920001 0.956551
Si Si4 0.774929 0.208233 0.854500
O O1 0.500000 0.500000 0.500000
O O2 0.313187 0.445874 0.840845
O O3 0.305625 0.124551 0.026750
O O4 0.297683 0.177044 0.407557
O O5 0.000000 0.165018 0.250000
O O6 0.291125 0.199264 0.911346
O O7 0.500000 0.921533 0.750000
O O8 0.500000 0.933003 0.250000
O O9 0.000000 0.202763 0.750000
O O10 0.750000 0.250000 0.000000
#
# Coordination Sequence:
#
# PCOD9279370 Si02
#       4
#     4   8   8   8
#     4  12  28  50  76 106 150 186 220 296 358 412
#     4  10  21  41  62  88 131 179 226 283 343 406
#     4  12  26  45  74 108 138 184 242 282 346 427
#     4  10  21  35  58  88 127 177 226 281 346 405
#
# _framework density 22.487814
#
# number of rings (size 3 to 8) (size 9 to 14) (size 15 to 20)
#    0.000    1.143    1.429    4.286    0.000    6.857 
#    0.000    0.000    0.000    0.000    0.000    0.000 
#    0.000    0.000    0.000    0.000    0.000    0.000 
#
# Total GULP energy -78367.103719 kJ/mol
# GULP energy per Si atom -5597.650266 kJ/mol
# Density = 2.243663 g / cm^3
# Si number density = 22.487814 Si / 1000 Ang^3
#
#
#
# Elastic Constant Matrix: (Units=GPa)
#
#
# Indices 1 2 3 4 5 6 
#
# 1 82.4642 29.6800 67.8120 0.0000 -22.6165 0.0000
# 2 29.6800 120.9383 60.0490 0.0000 -9.0036 0.0000
# 3 67.8120 60.0490 190.3970 0.0000 -0.4678 0.0000
# 4 0.0000 0.0000 0.0000 23.1453 0.0000 -7.6719
# 5 -22.6165 -9.0036 -0.4678 0.0000 55.4188 0.0000
# 6 0.0000 0.0000 0.0000 -7.6719 0.0000 3.9555
#
#
#
# Elastic Compliance Matrix: (Units=1/GPa)
#
#
# Indices 1 2 3 4 5 6 
#
# 1 0.020409 -0.000955 -0.006948 0.000000 0.008115 0.000000
# 2 -0.000955 0.009987 -0.002807 0.000000 0.001209 0.000000
# 3 -0.006948 -0.002807 0.008604 0.000000 -0.003219 0.000000
# 4 0.000000 0.000000 0.000000 0.120986 0.000000 0.234658
# 5 0.008115 0.001209 -0.003219 0.000000 0.021526 0.000000
# 6 0.000000 0.000000 0.000000 0.234658 0.000000 0.707938
#
#
# Mechanical properties :
#
#
# Convention : Reuss Voigt Hill
#
# Bulk Modulus (GPa) = 56.87884 78.76461 67.82172
# Shear Modulus (GPa) = 5.45418 32.25450 18.85434
#
# Velocity S-wave (km/s) = 1.55906 3.79134 2.89870
# Velocity P-wave (km/s) = 5.34687 7.36662 6.43646
#
# Compressibility (1/GPa) = 0.01758123
#
# Stress axis : x y z
#
# Youngs Moduli (GPa) = 48.99756 100.13446 116.22457
#
# Poissons Ratio (x) = 0.09560 0.80752
# Poissons Ratio (y) = 0.04678 0.32620
# Poissons Ratio (z) = 0.34043 0.28104
#
# Static dielectric constant tensor:
#      x y z
#    x 1.856750 0.000000 0.025710 
#    y 0.000000 1.847670 0.000000 
#    z 0.025710 0.000000 1.844020 
# 
# From -- ./inp_files/2519.got.cif
#   From: 2010.05.17/outbox.cif.g08.bks.cpg/sg15_2_cif.got.tgz:2519.got - 2010.06.03 18:47:42.
