data_PCOD9279131
_publ_section_title
;
Structure prediction by ZEFSAII (Michael W. Deem and Ramdas Pophale) SiO2 
 PCOD9279131
Probable space group: C 2/C
;
_chemical_formula_sum "Si O2"
_cell_formula_units_Z 64
_cell_length_a 8.975569
_cell_length_b 30.367534
_cell_length_c 16.105458
_cell_angle_alpha 90.000000
_cell_angle_beta 126.965790
_cell_angle_gamma 90.000000
_cell_volume 3507.425807
_symmetry_space_group_name_H-M "C 2/C"
_symmetry_group_IT_number 15
_symmetry_cell_setting 'monoclinic'
loop_
_space_group_symop_operation_xyz
x,y,z
-x,y,1/2-z
-x,-y,-z
x,-y,1/2+z
1/2+x,1/2+y,z
1/2-x,1/2+y,1/2-z
1/2-x,1/2-y,-z
1/2+x,1/2-y,1/2+z
loop_
_atom_site_type_symbol
_atom_site_label
_atom_site_fract_x
_atom_site_fract_y
_atom_site_fract_z
Si Si1 0.873884 0.815907 0.787202
Si Si2 0.231625 0.968668 0.968196
Si Si3 0.191736 0.399628 0.794119
Si Si4 0.524204 0.403614 0.015344
Si Si5 0.510345 0.767619 0.848733
Si Si6 0.415470 0.463445 0.307851
Si Si7 0.074990 0.480220 0.641580
Si Si8 0.577067 0.302672 0.513521
O O1 0.833001 0.867047 0.794634
O O2 0.674125 0.795588 0.701473
O O3 0.954269 0.793735 0.898504
O O4 0.000000 0.811104 0.750000
O O5 0.164702 0.924788 0.993617
O O6 0.353035 0.963709 0.924810
O O7 0.045822 0.995473 0.880122
O O8 0.367754 0.999883 0.068197
O O9 0.314593 0.414704 0.913365
O O10 0.117122 0.439865 0.715680
O O11 0.000000 0.374173 0.750000
O O12 0.510520 0.351252 0.025891
O O13 0.574424 0.428300 0.116378
O O14 0.500000 0.749894 0.750000
O O15 0.697324 0.797423 0.918617
O O16 0.510123 0.730563 0.920125
O O17 0.500000 0.446177 0.250000
O O18 0.211205 0.481048 0.218127
#
# Coordination Sequence:
#
# PCOD9279131 Si02
#       8
#     8   8   8   8   8   8   8   8
#     4  10  21  34  58  88 118 151 189 244 296 352
#     4  10  21  36  53  81 112 151 197 243 288 351
#     4  11  22  34  57  85 113 147 197 245 292 349
#     4  11  21  34  58  82 115 148 200 246 291 346
#     4   9  18  39  62  87 119 150 195 235 298 371
#     4  10  21  36  52  76 111 155 195 241 288 345
#     4  10  22  35  55  78 114 156 196 238 299 343
#     4   9  20  36  61  88 115 155 190 245 294 359
#
# _framework density 18.247
#
# number of rings (size 3 to 8) (size 9 to 14) (size 15 to 20)
#    0.000    2.000    1.250    3.000    5.250    1.000 
#    0.000    0.000    2.750    0.000    0.000    0.000 
#    0.000    0.000    0.000    0.000    0.000    0.000 
#
# Total GULP energy -178307.106320 kJ/mol
# GULP energy per Si atom -5572.097073 kJ/mol
# Density = 1.820547 g / cm^3
# Si number density = 18.247000 Si / 1000 Ang^3
#
#
#
# Elastic Constant Matrix: (Units=GPa)
#
#
# Indices 1 2 3 4 5 6 
#
# 1 84.3746 37.9160 41.2330 0.0000 -17.0422 0.0000
# 2 37.9160 82.1639 42.2473 0.0000 -17.3984 0.0000
# 3 41.2330 42.2473 102.9030 0.0000 -10.1479 0.0000
# 4 0.0000 0.0000 0.0000 30.8389 0.0000 0.9751
# 5 -17.0422 -17.3984 -10.1479 0.0000 26.5225 0.0000
# 6 0.0000 0.0000 0.0000 0.9751 0.0000 23.0520
#
#
#
# Elastic Compliance Matrix: (Units=1/GPa)
#
#
# Indices 1 2 3 4 5 6 
#
# 1 0.017317 -0.004261 -0.004539 0.000000 0.006595 0.000000
# 2 -0.004261 0.018302 -0.005085 0.000000 0.007323 0.000000
# 3 -0.004539 -0.005085 0.013518 0.000000 -0.001080 0.000000
# 4 0.000000 0.000000 0.000000 0.032470 0.000000 -0.001373
# 5 0.006595 0.007323 -0.001080 0.000000 0.046332 0.000000
# 6 0.000000 0.000000 0.000000 -0.001373 0.000000 0.043438
#
#
# Mechanical properties :
#
#
# Convention : Reuss Voigt Hill
#
# Bulk Modulus (GPa) = 46.79951 56.91492 51.85722
# Shear Modulus (GPa) = 24.24026 25.95236 25.09631
#
# Velocity S-wave (km/s) = 3.64875 3.77541 3.71262
# Velocity P-wave (km/s) = 6.59201 7.08971 6.84539
#
# Compressibility (1/GPa) = 0.02136774
#
# Stress axis : x y z
#
# Youngs Moduli (GPa) = 57.74682 54.63904 73.97688
#
# Poissons Ratio (x) = 0.23280 0.33580
# Poissons Ratio (y) = 0.24604 0.37614
# Poissons Ratio (z) = 0.26213 0.27782
#
# Static dielectric constant tensor:
#      x y z
#    x 1.657640 0.000000 -0.022890 
#    y 0.000000 1.629450 0.000000 
#    z -0.022890 0.000000 1.647080 
# 
# From -- ./inp_files/139541.got.cif
#   From: 2010.05.17/outbox.cif.g08.bks.cpg/sg15_70_cif.got.tgz:139541.got - 2010.06.03 18:47:42.
