data_PCOD9279201
_publ_section_title
;
Structure prediction by ZEFSAII (Michael W. Deem and Ramdas Pophale) SiO2 
 PCOD9279201
Probable space group: C 2/C
;
_chemical_formula_sum "Si O2"
_cell_formula_units_Z 40
_cell_length_a 9.433204
_cell_length_b 23.449389
_cell_length_c 7.948584
_cell_angle_alpha 90.000000
_cell_angle_beta 106.018376
_cell_angle_gamma 90.000000
_cell_volume 1689.982465
_symmetry_space_group_name_H-M "C 2/C"
_symmetry_group_IT_number 15
_symmetry_cell_setting 'monoclinic'
loop_
_space_group_symop_operation_xyz
x,y,z
-x,y,1/2-z
-x,-y,-z
x,-y,1/2+z
1/2+x,1/2+y,z
1/2-x,1/2+y,1/2-z
1/2-x,1/2-y,-z
1/2+x,1/2-y,1/2+z
loop_
_atom_site_type_symbol
_atom_site_label
_atom_site_fract_x
_atom_site_fract_y
_atom_site_fract_z
Si Si1 0.315690 0.580266 0.838959
Si Si2 0.890980 0.079364 0.379006
Si Si3 0.397079 0.709270 0.386318
Si Si4 0.183329 0.216573 0.641128
Si Si5 0.172694 0.510466 0.091944
O O1 0.297000 0.648264 0.846593
O O2 0.224382 0.551974 0.960584
O O3 0.248792 0.551296 0.649802
O O4 0.487023 0.565336 0.936382
O O5 0.844621 0.144696 0.390052
O O6 0.000000 0.076239 0.250000
O O7 0.746401 0.043541 0.278305
O O8 0.500000 0.707893 0.250000
O O9 0.270846 0.754460 0.318568
O O10 0.510120 0.725134 0.568277
O O11 0.250000 0.250000 0.500000
O O12 0.000000 0.500000 0.000000
#
# Coordination Sequence:
#
# PCOD9279201 Si02
#       5
#     8   8   8   8   8
#     4  10  21  35  50  72 104 138 167 198 247 304
#     4   8  16  32  49  68  98 135 165 196 245 301
#     4   8  14  24  42  67  94 122 154 196 246 289
#     4   9  16  27  46  71  97 123 157 203 249 287
#     4  11  21  32  48  72 100 132 170 211 246 285
#
# _framework density 23.668883000000001
#
# number of rings (size 3 to 8) (size 9 to 14) (size 15 to 20)
#    0.000    2.800    0.000    4.800    0.000    6.400 
#    0.000    0.000    0.000    0.000    0.000    5.600 
#    0.000   38.400    0.000    8.000    0.000    9.600 
#
# Total GULP energy -111596.150026 kJ/mol
# GULP energy per Si atom -5579.807501 kJ/mol
# Density = 2.361501 g / cm^3
# Si number density = 23.668883 Si / 1000 Ang^3
#
#
#
# Elastic Constant Matrix: (Units=GPa)
#
#
# Indices 1 2 3 4 5 6 
#
# 1 80.2954 57.5923 72.6142 0.0000 25.3394 0.0000
# 2 57.5923 174.0475 118.9474 0.0000 50.6204 0.0000
# 3 72.6142 118.9474 222.9295 0.0000 46.8543 0.0000
# 4 0.0000 0.0000 0.0000 51.2010 0.0000 10.6260
# 5 25.3394 50.6204 46.8543 0.0000 52.6960 0.0000
# 6 0.0000 0.0000 0.0000 10.6260 0.0000 22.0810
#
#
#
# Elastic Compliance Matrix: (Units=1/GPa)
#
#
# Indices 1 2 3 4 5 6 
#
# 1 0.019031 -0.002561 -0.004213 0.000000 -0.002944 0.000000
# 2 -0.002561 0.010842 -0.003715 0.000000 -0.005880 0.000000
# 3 -0.004213 -0.003715 0.008196 0.000000 -0.001693 0.000000
# 4 0.000000 0.000000 0.000000 0.021698 0.000000 -0.010442
# 5 -0.002944 -0.005880 -0.001693 0.000000 0.027547 0.000000
# 6 0.000000 0.000000 0.000000 -0.010442 0.000000 0.050313
#
#
# Mechanical properties :
#
#
# Convention : Reuss Voigt Hill
#
# Bulk Modulus (GPa) = 58.51441 108.39780 83.45611
# Shear Modulus (GPa) = 30.43185 40.40350 35.41768
#
# Velocity S-wave (km/s) = 3.58960 4.13610 3.87251
# Velocity P-wave (km/s) = 6.47735 8.28896 7.43851
#
# Compressibility (1/GPa) = 0.01708981
#
# Stress axis : x y z
#
# Youngs Moduli (GPa) = 52.54689 92.23266 122.01117
#
# Poissons Ratio (x) = 0.23625 0.51407
# Poissons Ratio (y) = 0.13460 0.45324
# Poissons Ratio (z) = 0.22139 0.34262
#
# Static dielectric constant tensor:
#      x y z
#    x 2.004140 0.000000 -0.121070 
#    y 0.000000 1.872820 0.000000 
#    z -0.121070 0.000000 1.995900 
# 
# From -- ./inp_files/51805.got.cif
#   From: 2010.05.17/outbox.cif.g08.bks.cpg/sg15_26_cif.got.tgz:51805.got - 2010.06.03 18:47:42.
