data_PCOD9279500
_publ_section_title
;
Structure prediction by ZEFSAII (Michael W. Deem and Ramdas Pophale) SiO2 
 PCOD9279500
Probable space group: C 2/C
;
_chemical_formula_sum "Si O2"
_cell_formula_units_Z 52
_cell_length_a 9.175834
_cell_length_b 17.699704
_cell_length_c 18.734606
_cell_angle_alpha 90.000000
_cell_angle_beta 114.019808
_cell_angle_gamma 90.000000
_cell_volume 2779.197431
_symmetry_space_group_name_H-M "C 2/C"
_symmetry_group_IT_number 15
_symmetry_cell_setting 'monoclinic'
loop_
_space_group_symop_operation_xyz
x,y,z
-x,y,1/2-z
-x,-y,-z
x,-y,1/2+z
1/2+x,1/2+y,z
1/2-x,1/2+y,1/2-z
1/2-x,1/2-y,-z
1/2+x,1/2-y,1/2+z
loop_
_atom_site_type_symbol
_atom_site_label
_atom_site_fract_x
_atom_site_fract_y
_atom_site_fract_z
Si Si1 0.058426 0.257708 0.957105
Si Si2 0.878615 0.894355 0.442131
Si Si3 0.075833 0.617079 0.972697
Si Si4 0.500000 0.535406 0.250000
Si Si5 0.950832 0.383590 0.661654
Si Si6 0.831208 0.493792 0.880225
Si Si7 0.101056 0.056107 0.116641
O O1 0.024845 0.314003 0.885645
O O2 0.971293 0.178063 0.931393
O O3 0.250000 0.250000 0.000000
O O4 0.980137 0.302325 0.008449
O O5 0.698628 0.877697 0.431802
O O6 0.971336 0.917428 0.533339
O O7 0.886306 0.965374 0.390250
O O8 0.917717 0.569861 0.921655
O O9 0.159922 0.565081 0.051237
O O10 0.344283 0.494246 0.186597
O O11 0.562422 0.577563 0.190842
O O12 0.768054 0.409289 0.625148
O O13 0.000000 0.361953 0.750000
O O14 0.059003 0.453139 0.656834
#
# Coordination Sequence:
#
# PCOD9279500 Si02
#       7
#     8   8   8   4   8   8   8
#     4  11  24  38  61  92 127 165 212 262 314 372
#     4  11  22  41  62  93 123 168 210 257 312 376
#     4  10  21  38  61  88 125 162 207 258 307 380
#     4  12  22  36  60 100 122 152 202 276 316 366
#     4  11  21  41  62  88 125 170 205 259 321 382
#     4  10  21  35  62  94 118 157 213 256 313 369
#     4  11  23  37  66  92 125 158 214 262 309 377
#
# _framework density 18.710436000000001
#
# number of rings (size 3 to 8) (size 9 to 14) (size 15 to 20)
#    0.000    1.231    6.154    0.462    2.154    0.000 
#    1.385    0.000    0.000    0.000    4.000    0.000 
#    0.000    0.000    0.000    0.000    0.000    0.000 
#
# Total GULP energy -145078.886324 kJ/mol
# GULP energy per Si atom -5579.957166 kJ/mol
# Density = 1.866785 g / cm^3
# Si number density = 18.710436 Si / 1000 Ang^3
#
#
#
# Elastic Constant Matrix: (Units=GPa)
#
#
# Indices 1 2 3 4 5 6 
#
# 1 97.1428 11.7352 5.3850 0.0000 1.5831 0.0000
# 2 11.7352 82.3940 -4.6929 0.0000 -8.8078 0.0000
# 3 5.3850 -4.6929 54.3151 0.0000 2.3190 0.0000
# 4 0.0000 0.0000 0.0000 9.5746 0.0000 6.9354
# 5 1.5831 -8.8078 2.3190 0.0000 39.2391 0.0000
# 6 0.0000 0.0000 0.0000 6.9354 0.0000 22.2944
#
#
#
# Elastic Compliance Matrix: (Units=1/GPa)
#
#
# Indices 1 2 3 4 5 6 
#
# 1 0.010569 -0.001649 -0.001159 0.000000 -0.000728 0.000000
# 2 -0.001649 0.012742 0.001142 0.000000 0.002859 0.000000
# 3 -0.001159 0.001142 0.018659 0.000000 -0.000800 0.000000
# 4 0.000000 0.000000 0.000000 0.134824 0.000000 -0.041942
# 5 -0.000728 0.002859 -0.000800 0.000000 0.026203 0.000000
# 6 0.000000 0.000000 0.000000 -0.041942 0.000000 0.057902
#
#
# Mechanical properties :
#
#
# Convention : Reuss Voigt Hill
#
# Bulk Modulus (GPa) = 25.88095 28.74516 27.31305
# Shear Modulus (GPa) = 18.04325 28.98325 23.51325
#
# Velocity S-wave (km/s) = 3.10875 3.94006 3.54883
# Velocity P-wave (km/s) = 5.17187 6.00793 5.60551
#
# Compressibility (1/GPa) = 0.03863846
#
# Stress axis : x y z
#
# Youngs Moduli (GPa) = 94.61200 78.47805 53.59382
#
# Poissons Ratio (x) = 0.12943 0.06213
# Poissons Ratio (y) = 0.15604 -0.06123
# Poissons Ratio (z) = 0.10968 -0.08965
#
# Static dielectric constant tensor:
#      x y z
#    x 1.685820 0.000000 -0.026520 
#    y 0.000000 1.624350 0.000000 
#    z -0.026520 0.000000 1.666150 
# 
# From -- ./inp_files/190544.got.cif
#   From: 2010.05.17/outbox.cif.g08.bks.cpg/sg15_96_cif.got.tgz:190544.got - 2010.06.03 18:47:42.
