data_PCOD9279720
_publ_section_title
;
Structure prediction by ZEFSAII (Michael W. Deem and Ramdas Pophale) SiO2 
 PCOD9279720
Probable space group: C 2/C
;
_chemical_formula_sum "Si O2"
_cell_formula_units_Z 48
_cell_length_a 8.416982
_cell_length_b 11.159088
_cell_length_c 22.028619
_cell_angle_alpha 90.000000
_cell_angle_beta 75.344737
_cell_angle_gamma 90.000000
_cell_volume 2001.741079
_symmetry_space_group_name_H-M "C 2/C"
_symmetry_group_IT_number 15
_symmetry_cell_setting 'monoclinic'
loop_
_space_group_symop_operation_xyz
x,y,z
-x,y,1/2-z
-x,-y,-z
x,-y,1/2+z
1/2+x,1/2+y,z
1/2-x,1/2+y,1/2-z
1/2-x,1/2-y,-z
1/2+x,1/2-y,1/2+z
loop_
_atom_site_type_symbol
_atom_site_label
_atom_site_fract_x
_atom_site_fract_y
_atom_site_fract_z
Si Si1 0.185104 0.754185 0.937016
Si Si2 0.694350 0.227438 0.742996
Si Si3 0.455537 0.247732 0.111073
Si Si4 0.187792 0.530916 0.217973
Si Si5 0.627618 0.137879 0.501865
Si Si6 0.678261 0.511906 0.923442
O O1 0.356823 0.752016 0.884258
O O2 0.041786 0.658225 0.944840
O O3 0.099232 0.881899 0.933337
O O4 0.250000 0.750000 0.000000
O O5 0.500000 0.218298 0.750000
O O6 0.816158 0.258332 0.675280
O O7 0.713140 0.346435 0.781903
O O8 0.740946 0.087234 0.752233
O O9 0.436604 0.375641 0.078785
O O10 0.419043 0.145824 0.064300
O O11 0.203933 0.489455 0.146639
O O12 0.000000 0.558564 0.250000
O O13 0.750000 0.250000 0.500000
O O14 0.723407 0.030199 0.523722
#
# Coordination Sequence:
#
# PCOD9279720 Si02
#       6
#     8   8   8   8   8   8
#     4  10  21  36  57  87 119 155 198 242 295 363
#     4  10  22  42  63  89 119 159 208 257 308 364
#     4   9  20  39  60  86 119 157 205 250 302 366
#     4  10  22  40  63  89 123 160 208 259 307 365
#     4   9  20  37  59  87 119 157 195 240 301 365
#     4  10  21  39  59  85 122 160 195 249 307 361
#
# _framework density 23.979125
#
# number of rings (size 3 to 8) (size 9 to 14) (size 15 to 20)
#    0.000    2.333    0.000    1.000    0.000   14.667 
#    0.000   13.333    0.000    0.000    0.000    0.000 
#    0.000    0.000    0.000    0.000    0.000    0.000 
#
# Total GULP energy -133895.725293 kJ/mol
# GULP energy per Si atom -5578.988554 kJ/mol
# Density = 2.392455 g / cm^3
# Si number density = 23.979125 Si / 1000 Ang^3
#
#
#
# Elastic Constant Matrix: (Units=GPa)
#
#
# Indices 1 2 3 4 5 6 
#
# 1 88.3940 26.9106 26.7099 0.0000 -23.3088 0.0000
# 2 26.9106 130.4711 5.1519 0.0000 21.1082 0.0000
# 3 26.7099 5.1519 71.6017 0.0000 -25.0395 0.0000
# 4 0.0000 0.0000 0.0000 31.4764 0.0000 6.5732
# 5 -23.3088 21.1082 -25.0395 0.0000 31.9796 0.0000
# 6 0.0000 0.0000 0.0000 6.5732 0.0000 38.4494
#
#
#
# Elastic Compliance Matrix: (Units=1/GPa)
#
#
# Indices 1 2 3 4 5 6 
#
# 1 0.017842 -0.006435 -0.000220 0.000000 0.017079 0.000000
# 2 -0.006435 0.011623 -0.003799 0.000000 -0.015336 0.000000
# 3 -0.000220 -0.003799 0.020852 0.000000 0.018674 0.000000
# 4 0.000000 0.000000 0.000000 0.032946 0.000000 -0.005632
# 5 0.017079 -0.015336 0.018674 0.000000 0.068463 0.000000
# 6 0.000000 0.000000 0.000000 -0.005632 0.000000 0.026971
#
#
# Mechanical properties :
#
#
# Convention : Reuss Voigt Hill
#
# Bulk Modulus (GPa) = 34.00257 45.33463 39.66860
# Shear Modulus (GPa) = 23.87686 35.82736 29.85211
#
# Velocity S-wave (km/s) = 3.15895 3.86956 3.53217
# Velocity P-wave (km/s) = 5.24558 6.23791 5.76315
#
# Compressibility (1/GPa) = 0.02940954
#
# Stress axis : x y z
#
# Youngs Moduli (GPa) = 56.04718 86.03693 47.95702
#
# Poissons Ratio (x) = 0.55361 0.01055
# Poissons Ratio (y) = 0.36064 0.18220
# Poissons Ratio (z) = 0.01233 0.32687
#
# Static dielectric constant tensor:
#      x y z
#    x 1.880850 0.000000 0.018890 
#    y 0.000000 1.959050 0.000000 
#    z 0.018890 0.000000 1.992740 
# 
# From -- ./inp_files/263060.got.cif
#   From: 2010.05.17/outbox.cif.g08.bks.cpg/sg15_132_cif.got.tgz:263060.got - 2010.06.03 18:47:42.
