data_PCOD9279691
_publ_section_title
;
Structure prediction by ZEFSAII (Michael W. Deem and Ramdas Pophale) SiO2 
 PCOD9279691
Probable space group: C 2/C
;
_chemical_formula_sum "Si O2"
_cell_formula_units_Z 60
_cell_length_a 7.909075
_cell_length_b 16.218999
_cell_length_c 22.264445
_cell_angle_alpha 90.000000
_cell_angle_beta 83.234585
_cell_angle_gamma 90.000000
_cell_volume 2836.135375
_symmetry_space_group_name_H-M "C 2/C"
_symmetry_group_IT_number 15
_symmetry_cell_setting 'monoclinic'
loop_
_space_group_symop_operation_xyz
x,y,z
-x,y,1/2-z
-x,-y,-z
x,-y,1/2+z
1/2+x,1/2+y,z
1/2-x,1/2+y,1/2-z
1/2-x,1/2-y,-z
1/2+x,1/2-y,1/2+z
loop_
_atom_site_type_symbol
_atom_site_label
_atom_site_fract_x
_atom_site_fract_y
_atom_site_fract_z
Si Si1 0.655360 0.459792 0.032969
Si Si2 0.985739 0.191687 0.123682
Si Si3 0.679930 0.079905 0.549029
Si Si4 0.357379 0.257218 0.078008
Si Si5 0.000000 0.718280 0.750000
Si Si6 0.132013 0.154005 0.794487
Si Si7 0.594502 0.499132 0.862483
Si Si8 0.613978 0.815511 0.470157
O O1 0.299314 0.338716 0.043290
O O2 0.580247 0.465753 0.101696
O O3 0.718583 0.367074 0.018856
O O4 0.801549 0.524214 0.010279
O O5 0.184585 0.203722 0.095341
O O6 0.877363 0.241387 0.078017
O O7 0.971715 0.230740 0.190152
O O8 0.926967 0.097993 0.133513
O O9 0.494458 0.116764 0.562344
O O10 0.747642 0.025868 0.601373
O O11 0.000000 0.000000 0.500000
O O12 0.402837 0.296007 0.141432
O O13 0.500480 0.210679 0.032847
O O14 0.173496 0.669624 0.731259
O O15 0.000000 0.182749 0.750000
O O16 0.116607 0.055457 0.803862
#
# Coordination Sequence:
#
# PCOD9279691 Si02
#       8
#     8   8   8   8   4   8   8   8
#     4  10  21  36  56  94 134 172 213 262 320 396
#     4  10  21  39  68 100 130 172 216 277 336 388
#     4   9  18  36  57  90 132 164 208 265 320 399
#     4   9  19  39  65  97 130 170 219 278 328 394
#     4  10  24  46  72  94 130 172 224 276 328 394
#     4  10  23  44  71  93 130 174 221 273 335 401
#     4  10  21  39  61  91 132 168 213 269 329 394
#     4  11  20  36  68  95 129 179 216 265 338 391
#
# _framework density 21.155548
#
# number of rings (size 3 to 8) (size 9 to 14) (size 15 to 20)
#    0.000    2.133    0.000    4.400    2.800    1.067 
#    4.800    8.667    1.467    0.000    0.000    0.000 
#    0.000    0.000    0.000    0.000    0.000    0.000 
#
# Total GULP energy -167326.337695 kJ/mol
# GULP energy per Si atom -5577.544590 kJ/mol
# Density = 2.110740 g / cm^3
# Si number density = 21.155548 Si / 1000 Ang^3
#
#
#
# Elastic Constant Matrix: (Units=GPa)
#
#
# Indices 1 2 3 4 5 6 
#
# 1 87.9820 65.2415 43.1290 0.0000 9.1909 0.0000
# 2 65.2415 154.1120 65.8828 0.0000 0.7074 0.0000
# 3 43.1290 65.8828 120.2702 0.0000 -2.0503 0.0000
# 4 0.0000 0.0000 0.0000 25.5598 0.0000 -9.4781
# 5 9.1909 0.7074 -2.0503 0.0000 24.3678 0.0000
# 6 0.0000 0.0000 0.0000 -9.4781 0.0000 29.7420
#
#
#
# Elastic Compliance Matrix: (Units=1/GPa)
#
#
# Indices 1 2 3 4 5 6 
#
# 1 0.018417 -0.006385 -0.003227 0.000000 -0.007033 0.000000
# 2 -0.006385 0.010696 -0.003539 0.000000 0.001800 0.000000
# 3 -0.003227 -0.003539 0.011449 0.000000 0.002283 0.000000
# 4 0.000000 0.000000 0.000000 0.044367 0.000000 0.014139
# 5 -0.007033 0.001800 0.002283 0.000000 0.043830 0.000000
# 6 0.000000 0.000000 0.000000 0.014139 0.000000 0.038128
#
#
# Mechanical properties :
#
#
# Convention : Reuss Voigt Hill
#
# Bulk Modulus (GPa) = 70.11933 78.98565 74.55249
# Shear Modulus (GPa) = 25.25982 28.47465 26.86724
#
# Velocity S-wave (km/s) = 3.45919 3.67272 3.56755
# Velocity P-wave (km/s) = 7.01222 7.44325 7.23094
#
# Compressibility (1/GPa) = 0.01426140
#
# Stress axis : x y z
#
# Youngs Moduli (GPa) = 54.29778 93.48874 87.34173
#
# Poissons Ratio (x) = 0.59692 0.28182
# Poissons Ratio (y) = 0.34669 0.30911
# Poissons Ratio (z) = 0.17520 0.33086
#
# Static dielectric constant tensor:
#      x y z
#    x 1.874860 0.000000 0.008220 
#    y 0.000000 1.797600 0.000000 
#    z 0.008220 0.000000 1.792140 
# 
# From -- ./inp_files/264680.got.cif
#   From: 2010.05.17/outbox.cif.g08.bks.cpg/sg15_133_cif.got.tgz:264680.got - 2010.06.03 18:47:42.
