data_PCOD9279024
_publ_section_title
;
Structure prediction by ZEFSAII (Michael W. Deem and Ramdas Pophale) SiO2 
 PCOD9279024
Probable space group: C 2/C
;
_chemical_formula_sum "Si O2"
_cell_formula_units_Z 48
_cell_length_a 12.470988
_cell_length_b 28.850653
_cell_length_c 5.900004
_cell_angle_alpha 90.000000
_cell_angle_beta 117.731509
_cell_angle_gamma 90.000000
_cell_volume 1878.969503
_symmetry_space_group_name_H-M "C 2/C"
_symmetry_group_IT_number 15
_symmetry_cell_setting 'monoclinic'
loop_
_space_group_symop_operation_xyz
x,y,z
-x,y,1/2-z
-x,-y,-z
x,-y,1/2+z
1/2+x,1/2+y,z
1/2-x,1/2+y,1/2-z
1/2-x,1/2-y,-z
1/2+x,1/2-y,1/2+z
loop_
_atom_site_type_symbol
_atom_site_label
_atom_site_fract_x
_atom_site_fract_y
_atom_site_fract_z
Si Si1 0.876297 0.866357 0.076045
Si Si2 0.610217 0.278631 0.696720
Si Si3 0.664774 0.514831 0.545909
Si Si4 0.861115 0.586827 0.741050
Si Si5 0.345164 0.065041 0.228271
Si Si6 0.208218 0.686555 0.759884
O O1 0.809137 0.835786 0.199383
O O2 0.000000 0.893922 0.250000
O O3 0.924391 0.825860 0.960079
O O4 0.771304 0.899816 0.882004
O O5 0.500000 0.264769 0.750000
O O6 0.643767 0.231953 0.593082
O O7 0.727782 0.295213 0.951359
O O8 0.612049 0.501580 0.241840
O O9 0.717462 0.567468 0.602425
O O10 0.790551 0.486072 0.670096
O O11 0.903366 0.572199 0.531486
O O12 0.872289 0.642430 0.760323
O O13 0.899623 0.571922 0.032049
#
# Coordination Sequence:
#
# PCOD9279024 Si02
#       6
#     8   8   8   8   8   8
#     4  11  20  33  51  73 105 141 176 216 267 317
#     4  11  21  36  52  74 101 135 182 220 268 312
#     4   8  14  25  44  67  98 128 166 211 250 302
#     4   9  16  30  48  72  97 133 172 214 259 305
#     4   9  17  28  47  72 100 133 172 210 251 313
#     4  10  21  34  53  73 100 139 176 221 264 318
#
# _framework density 25.545915000000001
#
# number of rings (size 3 to 8) (size 9 to 14) (size 15 to 20)
#    0.000    2.333    3.333    0.500    0.000    0.000 
#    0.000    0.000    0.000   17.000    0.000    0.000 
#    0.000   21.333    0.000    0.000    0.000   19.833 
#
# Total GULP energy -133763.694383 kJ/mol
# GULP energy per Si atom -5573.487266 kJ/mol
# Density = 2.548777 g / cm^3
# Si number density = 25.545915 Si / 1000 Ang^3
#
#
#
# Elastic Constant Matrix: (Units=GPa)
#
#
# Indices 1 2 3 4 5 6 
#
# 1 93.7722 10.5978 60.4423 0.0000 -37.8532 0.0000
# 2 10.5978 109.0658 16.4392 0.0000 -0.9413 0.0000
# 3 60.4423 16.4392 186.4540 0.0000 -5.4535 0.0000
# 4 0.0000 0.0000 0.0000 -14.4623 0.0000 -74.6983
# 5 -37.8532 -0.9413 -5.4535 0.0000 40.7745 0.0000
# 6 0.0000 0.0000 0.0000 -74.6983 0.0000 -147.4128
#
#
#
# Elastic Compliance Matrix: (Units=1/GPa)
#
#
# Indices 1 2 3 4 5 6 
#
# 1 0.023867 -0.001078 -0.007022 0.000000 0.021193 0.000000
# 2 -0.001078 0.009341 -0.000499 0.000000 -0.000852 0.000000
# 3 -0.007022 -0.000499 0.007522 0.000000 -0.005524 0.000000
# 4 0.000000 0.000000 0.000000 0.042754 0.000000 -0.021665
# 5 0.021193 -0.000852 -0.005524 0.000000 0.043441 0.000000
# 6 0.000000 0.000000 0.000000 -0.021665 0.000000 0.004195
#
#
# Mechanical properties :
#
#
# Convention : Reuss Voigt Hill
#
# Bulk Modulus (GPa) = 42.49429 62.69453 52.59441
# Shear Modulus (GPa) = 32.01777 -4.09929 13.95924
#
# Velocity S-wave (km/s) = 3.54410 -1.26813 2.34014
# Velocity P-wave (km/s) = 5.78084 4.73825 5.28531
#
# Compressibility (1/GPa) = 0.02353258
#
# Stress axis : x y z
#
# Youngs Moduli (GPa) = 41.89840 107.05045 132.94326
#
# Poissons Ratio (x) = 0.11538 0.93354
# Poissons Ratio (y) = 0.04516 0.06635
# Poissons Ratio (z) = 0.29421 0.05343
#
# Static dielectric constant tensor:
#      x y z
#    x 2.023150 0.000000 0.033460 
#    y 0.000000 2.016980 0.000000 
#    z 0.033460 0.000000 2.116710 
# 
# From -- ./inp_files/8661.got.cif
#   From: 2010.05.17/outbox.cif.g08.bks.cpg/sg15_5_cif.got.tgz:8661.got - 2010.06.03 18:47:42.
