data_PCOD9279013
_publ_section_title
;
Structure prediction by ZEFSAII (Michael W. Deem and Ramdas Pophale) SiO2 
 PCOD9279013
Probable space group: C 2/C
;
_chemical_formula_sum "Si O2"
_cell_formula_units_Z 48
_cell_length_a 7.392596
_cell_length_b 23.625504
_cell_length_c 12.648869
_cell_angle_alpha 90.000000
_cell_angle_beta 75.110748
_cell_angle_gamma 90.000000
_cell_volume 2134.998577
_symmetry_space_group_name_H-M "C 2/C"
_symmetry_group_IT_number 15
_symmetry_cell_setting 'monoclinic'
loop_
_space_group_symop_operation_xyz
x,y,z
-x,y,1/2-z
-x,-y,-z
x,-y,1/2+z
1/2+x,1/2+y,z
1/2-x,1/2+y,1/2-z
1/2-x,1/2-y,-z
1/2+x,1/2-y,1/2+z
loop_
_atom_site_type_symbol
_atom_site_label
_atom_site_fract_x
_atom_site_fract_y
_atom_site_fract_z
Si Si1 0.758843 0.463985 0.960283
Si Si2 0.225467 0.381992 0.722344
Si Si3 0.404836 0.713483 0.042712
Si Si4 0.824171 0.581895 0.041692
Si Si5 0.995339 0.324354 0.375956
Si Si6 0.404034 0.629433 0.875018
O O1 0.726328 0.439894 0.847900
O O2 0.974059 0.443792 0.950732
O O3 0.735569 0.529204 0.992853
O O4 0.630121 0.427996 0.057684
O O5 0.315543 0.329933 0.642460
O O6 0.271919 0.392575 0.838535
O O7 0.000000 0.372401 0.750000
O O8 0.528916 0.760012 0.082317
O O9 0.250000 0.750000 0.000000
O O10 0.498495 0.674978 0.938579
O O11 0.861619 0.632207 0.955269
O O12 0.199782 0.345230 0.382295
O O13 0.000000 0.328129 0.250000
O O14 0.500000 0.621211 0.750000
#
# Coordination Sequence:
#
# PCOD9279013 Si02
#       6
#     8   8   8   8   8   8
#     4   8  16  29  50  78 102 130 175 226 259 310
#     4   9  16  29  51  77 101 135 182 224 264 309
#     4   9  18  32  50  75 107 142 183 222 257 314
#     4   9  17  30  50  76 105 136 173 218 274 316
#     4  10  21  34  51  79 110 138 176 226 269 313
#     4   9  18  34  56  79 104 140 181 218 266 320
#
# _framework density 22.482451000000001
#
# number of rings (size 3 to 8) (size 9 to 14) (size 15 to 20)
#    0.000    3.000    0.000    3.000    0.000   10.000 
#    0.000    3.333    0.000   10.000    0.000    0.000 
#    0.000    0.000    0.000    0.000    0.000    0.000 
#
# Total GULP energy -134038.200401 kJ/mol
# GULP energy per Si atom -5584.925017 kJ/mol
# Density = 2.243128 g / cm^3
# Si number density = 22.482451 Si / 1000 Ang^3
#
#
#
# Elastic Constant Matrix: (Units=GPa)
#
#
# Indices 1 2 3 4 5 6 
#
# 1 48.4888 30.3520 17.5590 0.0000 11.9179 0.0000
# 2 30.3520 161.4663 112.6723 0.0000 12.8498 0.0000
# 3 17.5590 112.6723 222.7857 0.0000 7.5973 0.0000
# 4 0.0000 0.0000 0.0000 23.6623 0.0000 10.6380
# 5 11.9179 12.8498 7.5973 0.0000 25.1178 0.0000
# 6 0.0000 0.0000 0.0000 10.6380 0.0000 9.8636
#
#
#
# Elastic Compliance Matrix: (Units=1/GPa)
#
#
# Indices 1 2 3 4 5 6 
#
# 1 0.025661 -0.004404 0.000549 0.000000 -0.010089 0.000000
# 2 -0.004404 0.010635 -0.004969 0.000000 -0.001849 0.000000
# 3 0.000549 -0.004969 0.006952 0.000000 0.000179 0.000000
# 4 0.000000 0.000000 0.000000 0.082040 0.000000 -0.088481
# 5 -0.010089 -0.001849 0.000179 0.000000 0.045491 0.000000
# 6 0.000000 0.000000 0.000000 -0.088481 0.000000 0.196809
#
#
# Mechanical properties :
#
#
# Convention : Reuss Voigt Hill
#
# Bulk Modulus (GPa) = 39.06093 83.76751 61.41422
# Shear Modulus (GPa) = 12.69779 29.87257 21.28518
#
# Velocity S-wave (km/s) = 2.37910 3.64910 3.08026
# Velocity P-wave (km/s) = 4.99585 7.42257 6.32665
#
# Compressibility (1/GPa) = 0.02560103
#
# Stress axis : x y z
#
# Youngs Moduli (GPa) = 38.96995 94.02686 143.84117
#
# Poissons Ratio (x) = 0.41406 -0.07892
# Poissons Ratio (y) = 0.17161 0.71469
# Poissons Ratio (z) = -0.02138 0.46718
#
# Static dielectric constant tensor:
#      x y z
#    x 1.909330 0.000000 -0.064200 
#    y 0.000000 1.821470 0.000000 
#    z -0.064200 0.000000 1.505280 
# 
# From -- ./inp_files/79773.got.cif
#   From: 2010.05.17/outbox.cif.g08.bks.cpg/sg15_40_cif.got.tgz:79773.got - 2010.06.03 18:47:42.
