data_PCOD9279726
_publ_section_title
;
Structure prediction by ZEFSAII (Michael W. Deem and Ramdas Pophale) SiO2 
 PCOD9279726
Probable space group: C 2/C
;
_chemical_formula_sum "Si O2"
_cell_formula_units_Z 52
_cell_length_a 19.164264
_cell_length_b 16.424118
_cell_length_c 8.731612
_cell_angle_alpha 90.000000
_cell_angle_beta 65.478940
_cell_angle_gamma 90.000000
_cell_volume 2500.453342
_symmetry_space_group_name_H-M "C 2/C"
_symmetry_group_IT_number 15
_symmetry_cell_setting 'monoclinic'
loop_
_space_group_symop_operation_xyz
x,y,z
-x,y,1/2-z
-x,-y,-z
x,-y,1/2+z
1/2+x,1/2+y,z
1/2-x,1/2+y,1/2-z
1/2-x,1/2-y,-z
1/2+x,1/2-y,1/2+z
loop_
_atom_site_type_symbol
_atom_site_label
_atom_site_fract_x
_atom_site_fract_y
_atom_site_fract_z
Si Si1 0.242691 0.599920 0.287417
Si Si2 0.295223 0.273153 0.118650
Si Si3 0.500000 0.503879 0.750000
Si Si4 0.202280 0.571923 0.680246
Si Si5 0.526645 0.746514 0.049140
Si Si6 0.525419 0.083010 0.901137
Si Si7 0.578402 0.604300 0.438782
O O1 0.213451 0.690807 0.273803
O O2 0.212901 0.580858 0.487015
O O3 0.219576 0.521064 0.210282
O O4 0.334171 0.609278 0.191145
O O5 0.258108 0.358937 0.200720
O O6 0.250000 0.250000 0.000000
O O7 0.386307 0.284309 0.022440
O O8 0.564944 0.558726 0.611217
O O9 0.463585 0.448162 0.653525
O O10 0.116850 0.593376 0.813365
O O11 0.500000 0.749089 0.250000
O O12 0.517441 0.837819 0.994443
O O13 0.467963 0.688276 0.015333
O O14 0.500000 0.076264 0.750000
O O15 0.500000 0.000000 0.000000
#
# Coordination Sequence:
#
# PCOD9279726 Si02
#       7
#     8   8   4   8   8   8   8
#     4  11  22  39  62  87 122 154 198 249 300 354
#     4  10  21  36  57  89 118 153 201 245 293 355
#     4  10  24  36  60  88 122 150 204 236 296 364
#     4  11  22  38  62  90 117 157 199 246 300 353
#     4  11  20  36  62  87 118 159 201 246 293 359
#     4  11  22  40  63  87 118 158 206 248 297 353
#     4  11  22  39  61  89 121 159 197 243 303 362
#
# _framework density 20.796230000000001
#
# number of rings (size 3 to 8) (size 9 to 14) (size 15 to 20)
#    0.000    1.231    0.769    9.231    4.308    0.000 
#    1.385    0.769    0.000    0.000    0.000    0.000 
#    0.000    0.000    0.000    0.000    0.000    0.000 
#
# Total GULP energy -145197.972974 kJ/mol
# GULP energy per Si atom -5584.537422 kJ/mol
# Density = 2.074890 g / cm^3
# Si number density = 20.796230 Si / 1000 Ang^3
#
#
#
# Elastic Constant Matrix: (Units=GPa)
#
#
# Indices 1 2 3 4 5 6 
#
# 1 64.1979 9.1099 9.3379 0.0000 -38.3922 0.0000
# 2 9.1099 116.0518 16.6909 0.0000 3.7402 0.0000
# 3 9.3379 16.6909 59.0829 0.0000 -25.4344 0.0000
# 4 0.0000 0.0000 0.0000 61.3952 0.0000 -12.3169
# 5 -38.3922 3.7402 -25.4344 0.0000 39.7867 0.0000
# 6 0.0000 0.0000 0.0000 -12.3169 0.0000 29.7132
#
#
#
# Elastic Compliance Matrix: (Units=1/GPa)
#
#
# Indices 1 2 3 4 5 6 
#
# 1 0.054922 -0.009988 0.023951 0.000000 0.069247 0.000000
# 2 -0.009988 0.011145 -0.008512 0.000000 -0.016127 0.000000
# 3 0.023951 -0.008512 0.035649 0.000000 0.046701 0.000000
# 4 0.000000 0.000000 0.000000 0.017765 0.000000 0.007364
# 5 0.069247 -0.016127 0.046701 0.000000 0.123325 0.000000
# 6 0.000000 0.000000 0.000000 0.007364 0.000000 0.036708
#
#
# Mechanical properties :
#
#
# Convention : Reuss Voigt Hill
#
# Bulk Modulus (GPa) = 8.87955 34.40111 21.64033
# Shear Modulus (GPa) = 16.33180 39.79195 28.06187
#
# Velocity S-wave (km/s) = 2.80540 4.37901 3.67737
# Velocity P-wave (km/s) = 3.84354 6.49196 5.33471
#
# Compressibility (1/GPa) = 0.11261837
#
# Stress axis : x y z
#
# Youngs Moduli (GPa) = 18.20757 89.72728 28.05133
#
# Poissons Ratio (x) = 0.89618 -0.67187
# Poissons Ratio (y) = 0.18185 0.23878
# Poissons Ratio (z) = -0.43609 0.76379
#
# Static dielectric constant tensor:
#      x y z
#    x 1.711420 0.000000 0.019750 
#    y 0.000000 1.927980 0.000000 
#    z 0.019750 0.000000 1.725250 
# 
# From -- ./inp_files/56964.got.cif
#   From: 2010.05.17/outbox.cif.g08.bks.cpg/sg15_29_cif.got.tgz:56964.got - 2010.06.03 18:47:42.
