data_PCOD9279468
_publ_section_title
;
Structure prediction by ZEFSAII (Michael W. Deem and Ramdas Pophale) SiO2 
 PCOD9279468
Probable space group: C 2/C
;
_chemical_formula_sum "Si O2"
_cell_formula_units_Z 56
_cell_length_a 10.552822
_cell_length_b 11.153612
_cell_length_c 28.782658
_cell_angle_alpha 90.000000
_cell_angle_beta 52.709767
_cell_angle_gamma 90.000000
_cell_volume 2695.238095
_symmetry_space_group_name_H-M "C 2/C"
_symmetry_group_IT_number 15
_symmetry_cell_setting 'monoclinic'
loop_
_space_group_symop_operation_xyz
x,y,z
-x,y,1/2-z
-x,-y,-z
x,-y,1/2+z
1/2+x,1/2+y,z
1/2-x,1/2+y,1/2-z
1/2-x,1/2-y,-z
1/2+x,1/2-y,1/2+z
loop_
_atom_site_type_symbol
_atom_site_label
_atom_site_fract_x
_atom_site_fract_y
_atom_site_fract_z
Si Si1 0.622498 0.918686 0.575118
Si Si2 0.426538 0.716954 0.039108
Si Si3 0.639333 0.206611 0.418317
Si Si4 0.226730 0.471440 0.454392
Si Si5 0.073942 0.935909 0.871502
Si Si6 0.012368 0.220033 0.195894
Si Si7 0.569428 0.984456 0.188070
O O1 0.797884 0.872020 0.546426
O O2 0.507330 0.811451 0.583814
O O3 0.653094 0.996690 0.521916
O O4 0.554411 0.967533 0.638618
O O5 0.346249 0.847071 0.048322
O O6 0.448876 0.672415 0.086255
O O7 0.585523 0.711566 0.973064
O O8 0.803320 0.238513 0.358532
O O9 0.672323 0.076474 0.432786
O O10 0.418776 0.479575 0.411557
O O11 0.068673 0.867342 0.823208
O O12 0.238753 0.005160 0.845093
O O13 0.966566 0.360311 0.209178
O O14 0.000000 0.167172 0.250000
O O15 0.500000 0.049046 0.250000
#
# Coordination Sequence:
#
# PCOD9279468 Si02
#       7
#     8   8   8   8   8   8   8
#     4  10  21  35  61  88 117 157 193 246 297 355
#     4  10  21  36  58  93 118 153 191 243 306 349
#     4  10  21  35  61  88 117 157 193 246 297 355
#     4  10  21  36  58  93 118 153 191 243 306 349
#     4  10  24  40  62  88 121 150 202 250 284 368
#     4  10  24  41  60  87 116 163 198 243 295 344
#     4  10  24  41  60  87 116 163 198 243 295 344
#
# _framework density 20.777384000000001
#
# number of rings (size 3 to 8) (size 9 to 14) (size 15 to 20)
#    0.000    2.000    0.000    3.429   12.000    2.286 
#    0.000    0.000    0.000    7.714    0.000    0.000 
#    0.000    0.000    0.000    0.000    0.000    0.000 
#
# Total GULP energy -156018.955204 kJ/mol
# GULP energy per Si atom -5572.105543 kJ/mol
# Density = 2.073009 g / cm^3
# Si number density = 20.777384 Si / 1000 Ang^3
#
#
#
# Elastic Constant Matrix: (Units=GPa)
#
#
# Indices 1 2 3 4 5 6 
#
# 1 53.9462 9.7910 16.5753 0.0000 11.9713 0.0000
# 2 9.7910 43.9812 21.6418 0.0000 21.1147 0.0000
# 3 16.5753 21.6418 84.2780 0.0000 26.9708 0.0000
# 4 0.0000 0.0000 0.0000 21.4418 0.0000 -4.5897
# 5 11.9713 21.1147 26.9708 0.0000 41.8088 0.0000
# 6 0.0000 0.0000 0.0000 -4.5897 0.0000 24.8846
#
#
#
# Elastic Compliance Matrix: (Units=1/GPa)
#
#
# Indices 1 2 3 4 5 6 
#
# 1 0.020357 -0.001688 -0.002492 0.000000 -0.003369 0.000000
# 2 -0.001688 0.031046 -0.003500 0.000000 -0.012938 0.000000
# 3 -0.002492 -0.003500 0.015702 0.000000 -0.007648 0.000000
# 4 0.000000 0.000000 0.000000 0.048555 0.000000 0.008955
# 5 -0.003369 -0.012938 -0.007648 0.000000 0.036351 0.000000
# 6 0.000000 0.000000 0.000000 0.008955 0.000000 0.041837
#
#
# Mechanical properties :
#
#
# Convention : Reuss Voigt Hill
#
# Bulk Modulus (GPa) = 19.32571 30.91351 25.11961
# Shear Modulus (GPa) = 22.07925 26.57352 24.32639
#
# Velocity S-wave (km/s) = 3.26338 3.58014 3.42542
# Velocity P-wave (km/s) = 4.84985 5.65691 5.26885
#
# Compressibility (1/GPa) = 0.05174454
#
# Stress axis : x y z
#
# Youngs Moduli (GPa) = 49.12411 32.20975 63.68632
#
# Poissons Ratio (x) = 0.05438 0.15871
# Poissons Ratio (y) = 0.08293 0.22290
# Poissons Ratio (z) = 0.12242 0.11273
#
# Static dielectric constant tensor:
#      x y z
#    x 1.784100 0.000000 -0.000160 
#    y 0.000000 1.776590 0.000000 
#    z -0.000160 0.000000 1.802170 
# 
# From -- ./inp_files/237037.got.cif
#   From: 2010.05.17/outbox.cif.g08.bks.cpg/sg15_119_cif.got.tgz:237037.got - 2010.06.03 18:47:42.
