data_PCOD9279833
_publ_section_title
;
Structure prediction by ZEFSAII (Michael W. Deem and Ramdas Pophale) SiO2 
 PCOD9279833
Probable space group: C 2/C
;
_chemical_formula_sum "Si O2"
_cell_formula_units_Z 52
_cell_length_a 17.254676
_cell_length_b 20.309073
_cell_length_c 7.897207
_cell_angle_alpha 90.000000
_cell_angle_beta 94.412046
_cell_angle_gamma 90.000000
_cell_volume 2759.189524
_symmetry_space_group_name_H-M "C 2/C"
_symmetry_group_IT_number 15
_symmetry_cell_setting 'monoclinic'
loop_
_space_group_symop_operation_xyz
x,y,z
-x,y,1/2-z
-x,-y,-z
x,-y,1/2+z
1/2+x,1/2+y,z
1/2-x,1/2+y,1/2-z
1/2-x,1/2-y,-z
1/2+x,1/2-y,1/2+z
loop_
_atom_site_type_symbol
_atom_site_label
_atom_site_fract_x
_atom_site_fract_y
_atom_site_fract_z
Si Si1 0.962955 0.338678 0.434910
Si Si2 0.500000 0.378339 0.750000
Si Si3 0.556662 0.696478 0.923196
Si Si4 0.430295 0.053136 0.446303
Si Si5 0.156691 0.439843 0.228666
Si Si6 0.414619 0.470249 0.517022
Si Si7 0.334924 0.413349 0.177232
O O1 0.935956 0.271868 0.517523
O O2 0.892787 0.389282 0.392793
O O3 0.000000 0.327971 0.250000
O O4 0.024076 0.378343 0.563203
O O5 0.520704 0.338512 0.584230
O O6 0.427426 0.423677 0.681513
O O7 0.500000 0.692080 0.750000
O O8 0.634968 0.656599 0.887700
O O9 0.370981 0.070257 0.585909
O O10 0.500000 0.000000 0.500000
O O11 0.375941 0.013885 0.307985
O O12 0.245735 0.424417 0.209717
O O13 0.500000 0.500000 0.500000
O O14 0.385756 0.429537 0.352370
O O15 0.357787 0.529885 0.548403
#
# Coordination Sequence:
#
# PCOD9279833 Si02
#       7
#     8   4   8   8   8   8   8
#     4   9  20  38  61  84 119 164 211 259 298 366
#     4  12  22  38  60  84 122 148 210 264 282 342
#     4  12  23  38  62  90 117 167 215 247 302 370
#     4   9  18  37  62  87 117 157 209 258 302 366
#     4  10  21  36  59  93 126 157 195 262 328 359
#     4  12  20  36  58  85 116 161 208 250 297 358
#     4  12  22  35  58  92 128 158 200 258 319 376
#
# _framework density 18.846114
#
# number of rings (size 3 to 8) (size 9 to 14) (size 15 to 20)
#    0.000    1.231    5.385    2.308    0.000    3.077 
#    0.000    0.000    0.000   10.154    0.000    0.000 
#    0.000    0.000    0.000    0.000    0.000    0.000 
#
# Total GULP energy -144914.625170 kJ/mol
# GULP energy per Si atom -5573.639430 kJ/mol
# Density = 1.880322 g / cm^3
# Si number density = 18.846114 Si / 1000 Ang^3
#
#
#
# Elastic Constant Matrix: (Units=GPa)
#
#
# Indices 1 2 3 4 5 6 
#
# 1 115.4080 28.6371 26.1019 0.0000 -19.7901 0.0000
# 2 28.6371 115.3676 30.7951 0.0000 -5.2363 0.0000
# 3 26.1019 30.7951 86.2752 0.0000 -5.8871 0.0000
# 4 0.0000 0.0000 0.0000 34.2233 0.0000 -2.7680
# 5 -19.7901 -5.2363 -5.8871 0.0000 25.7845 0.0000
# 6 0.0000 0.0000 0.0000 -2.7680 0.0000 17.0977
#
#
#
# Elastic Compliance Matrix: (Units=1/GPa)
#
#
# Indices 1 2 3 4 5 6 
#
# 1 0.010879 -0.001788 -0.002141 0.000000 0.007497 0.000000
# 2 -0.001788 0.009910 -0.002999 0.000000 -0.000045 0.000000
# 3 -0.002141 -0.002999 0.013364 0.000000 0.000799 0.000000
# 4 0.000000 0.000000 0.000000 0.029608 0.000000 0.004793
# 5 0.007497 -0.000045 0.000799 0.000000 0.044711 0.000000
# 6 0.000000 0.000000 0.000000 0.004793 0.000000 0.059263
#
#
# Mechanical properties :
#
#
# Convention : Reuss Voigt Hill
#
# Bulk Modulus (GPa) = 49.27437 54.23547 51.75492
# Shear Modulus (GPa) = 26.54525 30.85555 28.70040
#
# Velocity S-wave (km/s) = 3.75711 4.05067 3.90665
# Velocity P-wave (km/s) = 6.70996 7.12164 6.91886
#
# Compressibility (1/GPa) = 0.02029453
#
# Stress axis : x y z
#
# Youngs Moduli (GPa) = 91.92305 100.90319 74.82927
#
# Poissons Ratio (x) = 0.18046 0.16023
# Poissons Ratio (y) = 0.16440 0.22445
# Poissons Ratio (z) = 0.19683 0.30265
#
# Static dielectric constant tensor:
#      x y z
#    x 1.641210 0.000000 0.029950 
#    y 0.000000 1.702230 0.000000 
#    z 0.029950 0.000000 1.878430 
# 
# From -- ./inp_files/40825.got.cif
#   From: 2010.05.17/outbox.cif.g08.bks.cpg/sg15_21_cif.got.tgz:40825.got - 2010.06.03 18:47:42.
