data_PCOD9279550
_publ_section_title
;
Structure prediction by ZEFSAII (Michael W. Deem and Ramdas Pophale) SiO2 
 PCOD9279550
Probable space group: C 2/C
;
_chemical_formula_sum "Si O2"
_cell_formula_units_Z 60
_cell_length_a 13.460641
_cell_length_b 15.025835
_cell_length_c 14.406129
_cell_angle_alpha 90.000000
_cell_angle_beta 113.895374
_cell_angle_gamma 90.000000
_cell_volume 2663.998899
_symmetry_space_group_name_H-M "C 2/C"
_symmetry_group_IT_number 15
_symmetry_cell_setting 'monoclinic'
loop_
_space_group_symop_operation_xyz
x,y,z
-x,y,1/2-z
-x,-y,-z
x,-y,1/2+z
1/2+x,1/2+y,z
1/2-x,1/2+y,1/2-z
1/2-x,1/2-y,-z
1/2+x,1/2-y,1/2+z
loop_
_atom_site_type_symbol
_atom_site_label
_atom_site_fract_x
_atom_site_fract_y
_atom_site_fract_z
Si Si1 0.860959 0.905083 0.551477
Si Si2 0.087385 0.670558 0.140869
Si Si3 0.132114 0.866041 0.221566
Si Si4 0.000000 0.476079 0.750000
Si Si5 0.104453 0.097215 0.914465
Si Si6 0.322357 0.124487 0.641245
Si Si7 0.844153 0.812463 0.719234
Si Si8 0.543705 0.279182 0.542888
O O1 0.742178 0.871534 0.479277
O O2 0.888337 0.890400 0.669714
O O3 0.945934 0.848659 0.524495
O O4 0.857360 0.007616 0.523504
O O5 0.087549 0.764752 0.196670
O O6 0.041360 0.589178 0.183468
O O7 0.216566 0.663771 0.174516
O O8 0.014891 0.691427 0.021123
O O9 0.162555 0.886017 0.338751
O O10 0.231011 0.881562 0.188648
O O11 0.023518 0.919738 0.155024
O O12 0.904823 0.543294 0.681225
O O13 0.114821 0.180048 0.986686
O O14 0.370919 0.222588 0.672263
O O15 0.887651 0.787050 0.837148
#
# Coordination Sequence:
#
# PCOD9279550 Si02
#       8
#     8   8   8   4   8   8   8   8
#     4  12  24  40  69 100 139 179 233 302 354 420
#     4  10  23  49  67  98 142 194 232 294 354 438
#     4   9  20  44  71  97 144 177 226 292 366 420
#     4  12  28  44  78 100 154 188 244 298 368 428
#     4  10  21  35  71 109 130 163 231 302 354 415
#     4  11  26  48  65 101 143 189 230 299 355 432
#     4  11  26  44  74  96 141 197 243 281 369 434
#     4  11  23  43  73 102 138 183 241 296 362 426
#
# _framework density 22.522532000000002
#
# number of rings (size 3 to 8) (size 9 to 14) (size 15 to 20)
#    0.000    1.333    4.000    2.800    9.333    0.000 
#    4.800    4.667    0.000    0.000    0.000    0.000 
#    0.000    0.000    0.000    0.000    0.000    0.000 
#
# Total GULP energy -167470.120579 kJ/mol
# GULP energy per Si atom -5582.337353 kJ/mol
# Density = 2.247127 g / cm^3
# Si number density = 22.522532 Si / 1000 Ang^3
#
#
#
# Elastic Constant Matrix: (Units=GPa)
#
#
# Indices 1 2 3 4 5 6 
#
# 1 80.8374 27.7694 36.3448 0.0000 -3.4908 0.0000
# 2 27.7694 74.1821 13.5387 0.0000 4.6944 0.0000
# 3 36.3448 13.5387 122.4860 0.0000 8.6751 0.0000
# 4 0.0000 0.0000 0.0000 44.1889 0.0000 4.6226
# 5 -3.4908 4.6944 8.6751 0.0000 25.5773 0.0000
# 6 0.0000 0.0000 0.0000 4.6226 0.0000 31.3560
#
#
#
# Elastic Compliance Matrix: (Units=1/GPa)
#
#
# Indices 1 2 3 4 5 6 
#
# 1 0.016626 -0.005684 -0.004651 0.000000 0.004890 0.000000
# 2 -0.005684 0.015808 0.000205 0.000000 -0.003747 0.000000
# 3 -0.004651 0.000205 0.009805 0.000000 -0.003998 0.000000
# 4 0.000000 0.000000 0.000000 0.022985 0.000000 -0.003388
# 5 0.004890 -0.003747 -0.003998 0.000000 0.041808 0.000000
# 6 0.000000 0.000000 0.000000 -0.003388 0.000000 0.032391
#
#
# Mechanical properties :
#
#
# Convention : Reuss Voigt Hill
#
# Bulk Modulus (GPa) = 45.50248 48.09015 46.79631
# Shear Modulus (GPa) = 29.93843 33.54795 31.74319
#
# Velocity S-wave (km/s) = 3.64986 3.86363 3.75827
# Velocity P-wave (km/s) = 6.16514 6.42665 6.29725
#
# Compressibility (1/GPa) = 0.02197682
#
# Stress axis : x y z
#
# Youngs Moduli (GPa) = 60.14842 63.25955 101.98995
#
# Poissons Ratio (x) = 0.35958 0.47438
# Poissons Ratio (y) = 0.34189 -0.02088
# Poissons Ratio (z) = 0.27977 -0.01295
#
# Static dielectric constant tensor:
#      x y z
#    x 1.870480 0.000000 0.010660 
#    y 0.000000 1.835560 0.000000 
#    z 0.010660 0.000000 1.893730 
# 
# From -- ./inp_files/154035.got.cif
#   From: 2010.05.17/outbox.cif.g08.bks.cpg/sg15_78_cif.got.tgz:154035.got - 2010.06.03 18:47:42.
