data_PCOD9279854
_publ_section_title
;
Structure prediction by ZEFSAII (Michael W. Deem and Ramdas Pophale) SiO2 
 PCOD9279854
Probable space group: C 2/C
;
_chemical_formula_sum "Si O2"
_cell_formula_units_Z 56
_cell_length_a 21.012426
_cell_length_b 21.779854
_cell_length_c 18.511329
_cell_angle_alpha 90.000000
_cell_angle_beta 160.636379
_cell_angle_gamma 90.000000
_cell_volume 2808.883643
_symmetry_space_group_name_H-M "C 2/C"
_symmetry_group_IT_number 15
_symmetry_cell_setting 'monoclinic'
loop_
_space_group_symop_operation_xyz
x,y,z
-x,y,1/2-z
-x,-y,-z
x,-y,1/2+z
1/2+x,1/2+y,z
1/2-x,1/2+y,1/2-z
1/2-x,1/2-y,-z
1/2+x,1/2-y,1/2+z
loop_
_atom_site_type_symbol
_atom_site_label
_atom_site_fract_x
_atom_site_fract_y
_atom_site_fract_z
Si Si1 0.806936 0.465012 0.817005
Si Si2 0.000000 0.014742 0.250000
Si Si3 0.937835 0.372349 0.858432
Si Si4 0.500000 0.297568 0.250000
Si Si5 0.658442 0.345306 0.185424
Si Si6 0.511759 0.448385 0.920392
Si Si7 0.786705 0.592958 0.050938
Si Si8 0.345871 0.271223 0.934838
O O1 0.870629 0.396771 0.863463
O O2 0.706801 0.462210 0.787823
O O3 0.640823 0.496059 0.590437
O O4 0.000000 0.500000 0.000000
O O5 0.040899 0.053355 0.365907
O O6 0.168334 0.967681 0.406245
O O7 0.816503 0.408087 0.669049
O O8 0.859713 0.303681 0.768249
O O9 0.164344 0.382872 0.089035
O O10 0.666656 0.345590 0.404527
O O11 0.424360 0.259464 0.100515
O O12 0.484833 0.323008 0.049704
O O13 0.778058 0.281395 0.305825
O O14 0.582088 0.386769 0.038187
O O15 0.000000 0.595834 0.250000
#
# Coordination Sequence:
#
# PCOD9279854 Si02
#       8
#     8   4   8   4   8   8   8   8
#     4  11  22  38  64  93 122 162 203 254 314 381
#     4  11  24  40  58  94 128 164 203 258 318 372
#     4  11  21  38  60  91 122 159 211 246 304 375
#     4   9  22  38  56  90 134 156 209 252 298 374
#     4  12  23  40  63  86 122 164 212 259 300 372
#     4  11  25  39  64  91 130 162 208 261 314 373
#     4  10  21  36  60  87 129 168 197 244 307 376
#     4  11  23  40  59  89 120 169 210 254 308 362
#
# _framework density 19.936745999999999
#
# number of rings (size 3 to 8) (size 9 to 14) (size 15 to 20)
#    0.000    1.143    5.714    0.857    2.000    0.571 
#    1.286    0.000    0.000    0.857    0.000    0.000 
#    0.000    0.000    0.000    0.000    0.000    0.000 
#
# Total GULP energy -155942.823590 kJ/mol
# GULP energy per Si atom -5569.386557 kJ/mol
# Density = 1.989137 g / cm^3
# Si number density = 19.936746 Si / 1000 Ang^3
#
#
#
# Elastic Constant Matrix: (Units=GPa)
#
#
# Indices 1 2 3 4 5 6 
#
# 1 91.3008 39.2757 32.0426 0.0002 -0.0094 -0.0001
# 2 39.2757 79.1700 25.4160 0.0000 -6.3822 0.0000
# 3 32.0426 25.4160 88.0957 0.0008 19.8679 0.0003
# 4 0.0002 0.0000 0.0008 26.6912 0.0004 0.8929
# 5 -0.0094 -6.3822 19.8679 0.0004 39.8347 0.0001
# 6 -0.0001 0.0000 0.0003 0.8929 0.0001 32.2734
#
#
#
# Elastic Compliance Matrix: (Units=1/GPa)
#
#
# Indices 1 2 3 4 5 6 
#
# 1 0.014937 -0.006080 -0.003898 0.000000 0.000974 0.000000
# 2 -0.006080 0.017249 -0.003817 0.000000 0.004666 0.000000
# 3 -0.003898 -0.003817 0.015784 0.000000 -0.008485 0.000000
# 4 0.000000 0.000000 0.000000 0.037500 0.000000 -0.001037
# 5 0.000974 0.004666 -0.008485 0.000000 0.030083 0.000000
# 6 0.000000 0.000000 0.000000 -0.001037 0.000000 0.031014
#
#
# Mechanical properties :
#
#
# Convention : Reuss Voigt Hill
#
# Bulk Modulus (GPa) = 49.07139 50.22612 49.64876
# Shear Modulus (GPa) = 27.63180 30.54867 29.09024
#
# Velocity S-wave (km/s) = 3.72691 3.91868 3.82400
# Velocity P-wave (km/s) = 6.57166 6.76182 6.66742
#
# Compressibility (1/GPa) = 0.02037847
#
# Stress axis : x y z
#
# Youngs Moduli (GPa) = 66.95008 57.97492 63.35500
#
# Poissons Ratio (x) = 0.35248 0.24698
# Poissons Ratio (y) = 0.40705 0.24184
# Poissons Ratio (z) = 0.26099 0.22130
#
# Static dielectric constant tensor:
#      x y z
#    x 1.748330 0.000000 0.044480 
#    y 0.000000 1.861930 0.000000 
#    z 0.044480 0.000000 1.775910 
# 
# From -- ./inp_files/216934.got.cif
#   From: 2010.05.17/outbox.cif.g08.bks.cpg/sg15_109_cif.got.tgz:216934.got - 2010.06.03 18:47:42.
