data_PCOD9279906
_publ_section_title
;
Structure prediction by ZEFSAII (Michael W. Deem and Ramdas Pophale) SiO2 
 PCOD9279906
Probable space group: C 2/C
;
_chemical_formula_sum "Si O2"
_cell_formula_units_Z 56
_cell_length_a 16.094493
_cell_length_b 12.336357
_cell_length_c 15.537152
_cell_angle_alpha 90.000000
_cell_angle_beta 113.636637
_cell_angle_gamma 90.000000
_cell_volume 2826.061635
_symmetry_space_group_name_H-M "C 2/C"
_symmetry_group_IT_number 15
_symmetry_cell_setting 'monoclinic'
loop_
_space_group_symop_operation_xyz
x,y,z
-x,y,1/2-z
-x,-y,-z
x,-y,1/2+z
1/2+x,1/2+y,z
1/2-x,1/2+y,1/2-z
1/2-x,1/2-y,-z
1/2+x,1/2-y,1/2+z
loop_
_atom_site_type_symbol
_atom_site_label
_atom_site_fract_x
_atom_site_fract_y
_atom_site_fract_z
Si Si1 0.894008 0.633488 0.201177
Si Si2 0.204139 0.144952 0.788350
Si Si3 0.100265 0.072157 0.253400
Si Si4 0.847810 0.763774 0.582916
Si Si5 0.636472 0.894012 0.261379
Si Si6 0.458089 0.735035 0.407294
Si Si7 0.170389 0.323723 0.007142
O O1 0.837734 0.736942 0.211890
O O2 0.874564 0.522522 0.243047
O O3 0.000000 0.659448 0.250000
O O4 0.868166 0.613626 0.090516
O O5 0.263269 0.139791 0.727295
O O6 0.276334 0.116737 0.894243
O O7 0.131612 0.050036 0.757356
O O8 0.156461 0.140560 0.347156
O O9 0.094384 0.134967 0.160262
O O10 0.000000 0.076764 0.250000
O O11 0.750000 0.750000 0.500000
O O12 0.874705 0.658001 0.649694
O O13 0.933686 0.783199 0.554474
O O14 0.568477 0.834784 0.167086
O O15 0.411550 0.759473 0.479532
O O16 0.250000 0.250000 0.000000
#
# Coordination Sequence:
#
# PCOD9279906 Si02
#       7
#     8   8   8   8   8   8   8
#     4  11  23  40  62  89 125 161 205 255 309 374
#     4  10  22  38  62  87 119 162 206 245 308 372
#     4   9  19  37  62  86 118 158 202 251 307 364
#     4  10  21  36  61  88 122 154 209 251 301 364
#     4  10  22  38  61  88 122 163 201 254 310 363
#     4   9  19  41  61  87 121 164 198 255 311 357
#     4   9  21  38  59  87 122 158 198 250 306 359
#
# _framework density 19.815562
#
# number of rings (size 3 to 8) (size 9 to 14) (size 15 to 20)
#    0.000    2.286    0.000    2.571   10.000    1.143 
#    0.000    2.143    0.000    6.000    0.000    0.000 
#    0.000    0.000    0.000    0.000    0.000    0.000 
#
# Total GULP energy -156119.983263 kJ/mol
# GULP energy per Si atom -5575.713688 kJ/mol
# Density = 1.977046 g / cm^3
# Si number density = 19.815562 Si / 1000 Ang^3
#
#
#
# Elastic Constant Matrix: (Units=GPa)
#
#
# Indices 1 2 3 4 5 6 
#
# 1 78.7658 15.3624 21.2061 0.0000 -3.6762 0.0000
# 2 15.3624 99.6333 0.2187 0.0000 -3.6680 0.0000
# 3 21.2061 0.2187 31.3354 0.0000 3.7618 0.0000
# 4 0.0000 0.0000 0.0000 13.1137 0.0000 34.8955
# 5 -3.6762 -3.6680 3.7618 0.0000 27.3808 0.0000
# 6 0.0000 0.0000 0.0000 34.8955 0.0000 188.0668
#
#
#
# Elastic Compliance Matrix: (Units=1/GPa)
#
#
# Indices 1 2 3 4 5 6 
#
# 1 0.016421 -0.002379 -0.011513 0.000000 0.003468 0.000000
# 2 -0.002379 0.010433 0.001431 0.000000 0.000882 0.000000
# 3 -0.011513 0.001431 0.040525 0.000000 -0.006922 0.000000
# 4 0.000000 0.000000 0.000000 0.150628 0.000000 -0.027949
# 5 0.003468 0.000882 -0.006922 0.000000 0.038057 0.000000
# 6 0.000000 0.000000 0.000000 -0.027949 0.000000 0.010503
#
#
# Mechanical properties :
#
#
# Convention : Reuss Voigt Hill
#
# Bulk Modulus (GPa) = 23.55251 31.47879 27.51565
# Shear Modulus (GPa) = 16.35908 57.24207 36.80058
#
# Velocity S-wave (km/s) = 2.87639 5.38053 4.31415
# Velocity P-wave (km/s) = 4.78990 7.38380 6.22349
#
# Compressibility (1/GPa) = 0.04245832
#
# Stress axis : x y z
#
# Youngs Moduli (GPa) = 60.89648 95.85023 24.67611
#
# Poissons Ratio (x) = 0.22803 0.28409
# Poissons Ratio (y) = 0.14488 -0.03532
# Poissons Ratio (z) = 0.70109 -0.13720
#
# Static dielectric constant tensor:
#      x y z
#    x 1.632010 0.000000 0.076540 
#    y 0.000000 1.692790 0.000000 
#    z 0.076540 0.000000 1.634180 
# 
# From -- ./inp_files/161401.got.cif
#   From: 2010.05.17/outbox.cif.g08.bks.cpg/sg15_81_cif.got.tgz:161401.got - 2010.06.03 18:47:42.
