data_PCOD9279638
_publ_section_title
;
Structure prediction by ZEFSAII (Michael W. Deem and Ramdas Pophale) SiO2 
 PCOD9279638
Probable space group: C 2/C
;
_chemical_formula_sum "Si O2"
_cell_formula_units_Z 56
_cell_length_a 5.403726
_cell_length_b 18.429965
_cell_length_c 25.870234
_cell_angle_alpha 90.000000
_cell_angle_beta 91.417145
_cell_angle_gamma 90.000000
_cell_volume 2575.641007
_symmetry_space_group_name_H-M "C 2/C"
_symmetry_group_IT_number 15
_symmetry_cell_setting 'monoclinic'
loop_
_space_group_symop_operation_xyz
x,y,z
-x,y,1/2-z
-x,-y,-z
x,-y,1/2+z
1/2+x,1/2+y,z
1/2-x,1/2+y,1/2-z
1/2-x,1/2-y,-z
1/2+x,1/2-y,1/2+z
loop_
_atom_site_type_symbol
_atom_site_label
_atom_site_fract_x
_atom_site_fract_y
_atom_site_fract_z
Si Si1 0.329044 0.246380 0.413859
Si Si2 0.444568 0.814290 0.492537
Si Si3 0.933425 0.122118 0.133607
Si Si4 0.968579 0.504079 0.868682
Si Si5 0.245544 0.941293 0.717848
Si Si6 0.849623 0.882962 0.091477
Si Si7 0.861424 0.983693 0.945697
O O1 0.436489 0.181767 0.450797
O O2 0.177303 0.201918 0.371493
O O3 0.532262 0.304581 0.396988
O O4 0.150378 0.290755 0.451882
O O5 0.250000 0.750000 0.500000
O O6 0.290745 0.876673 0.464692
O O7 0.142320 0.120656 0.178766
O O8 0.726561 0.060582 0.144176
O O9 0.046109 0.091108 0.080288
O O10 0.168818 0.500400 0.824119
O O11 0.842982 0.582582 0.869938
O O12 0.073873 0.486676 0.927144
O O13 0.500000 0.924336 0.750000
O O14 0.000000 0.960959 0.750000
O O15 0.050368 0.945443 0.086278
O O16 0.000000 0.000000 0.000000
#
# Coordination Sequence:
#
# PCOD9279638 Si02
#       7
#     8   8   8   8   8   8   8
#     4  10  21  36  57  89 129 178 233 259 322 393
#     4   9  20  33  53  78 127 188 224 257 305 377
#     4  10  23  37  63 100 127 171 223 281 335 410
#     4  10  22  40  61  97 132 165 232 268 354 400
#     4  11  22  44  71 100 132 161 212 292 365 418
#     4  10  21  36  55  86 131 183 218 269 317 394
#     4  10  23  33  55  87 135 182 222 274 322 387
#
# _framework density 21.742159999999998
#
# number of rings (size 3 to 8) (size 9 to 14) (size 15 to 20)
#    0.000    2.000    1.429    0.857   10.000    4.571 
#    0.000    0.000    0.000    0.000    0.000   41.000 
#    0.000    0.000    0.000    0.000    0.000    0.000 
#
# Total GULP energy -155958.441438 kJ/mol
# GULP energy per Si atom -5569.944337 kJ/mol
# Density = 2.169267 g / cm^3
# Si number density = 21.742160 Si / 1000 Ang^3
#
#
#
# Elastic Constant Matrix: (Units=GPa)
#
#
# Indices 1 2 3 4 5 6 
#
# 1 104.7910 41.9637 49.5314 0.0000 10.8155 0.0000
# 2 41.9637 100.3862 31.4420 0.0000 5.8943 0.0000
# 3 49.5314 31.4420 118.0794 0.0000 30.0210 0.0000
# 4 0.0000 0.0000 0.0000 12.9809 0.0000 13.7034
# 5 10.8155 5.8943 30.0210 0.0000 45.8889 0.0000
# 6 0.0000 0.0000 0.0000 13.7034 0.0000 41.0196
#
#
#
# Elastic Compliance Matrix: (Units=1/GPa)
#
#
# Indices 1 2 3 4 5 6 
#
# 1 0.013336 -0.004162 -0.004586 0.000000 0.000391 0.000000
# 2 -0.004162 0.012180 -0.001618 0.000000 0.000475 0.000000
# 3 -0.004586 -0.001618 0.012590 0.000000 -0.006948 0.000000
# 4 0.000000 0.000000 0.000000 0.119006 0.000000 -0.039756
# 5 0.000391 0.000475 -0.006948 0.000000 0.026184 0.000000
# 6 0.000000 0.000000 0.000000 -0.039756 0.000000 0.037660
#
#
# Mechanical properties :
#
#
# Convention : Reuss Voigt Hill
#
# Bulk Modulus (GPa) = 57.55374 63.23675 60.39525
# Shear Modulus (GPa) = 20.20373 33.33251 26.76812
#
# Velocity S-wave (km/s) = 3.05165 3.91971 3.51260
# Velocity P-wave (km/s) = 6.24062 7.04510 6.65503
#
# Compressibility (1/GPa) = 0.01737506
#
# Stress axis : x y z
#
# Youngs Moduli (GPa) = 74.98256 82.10051 79.42937
#
# Poissons Ratio (x) = 0.34167 0.36423
# Poissons Ratio (y) = 0.31205 0.12855
# Poissons Ratio (z) = 0.34384 0.13287
#
# Static dielectric constant tensor:
#      x y z
#    x 1.951850 0.000000 0.025550 
#    y 0.000000 1.764650 0.000000 
#    z 0.025550 0.000000 1.887480 
# 
# From -- ./inp_files/286117.got.cif
#   From: 2010.05.17/outbox.cif.g08.bks.cpg/sg15_144_cif.got.tgz:286117.got - 2010.06.03 18:47:42.
