data_PCOD9279611
_publ_section_title
;
Structure prediction by ZEFSAII (Michael W. Deem and Ramdas Pophale) SiO2 
 PCOD9279611
Probable space group: C 2/C
;
_chemical_formula_sum "Si O2"
_cell_formula_units_Z 48
_cell_length_a 23.715343
_cell_length_b 12.569492
_cell_length_c 13.563341
_cell_angle_alpha 90.000000
_cell_angle_beta 149.222190
_cell_angle_gamma 90.000000
_cell_volume 2068.892179
_symmetry_space_group_name_H-M "C 2/C"
_symmetry_group_IT_number 15
_symmetry_cell_setting 'monoclinic'
loop_
_space_group_symop_operation_xyz
x,y,z
-x,y,1/2-z
-x,-y,-z
x,-y,1/2+z
1/2+x,1/2+y,z
1/2-x,1/2+y,1/2-z
1/2-x,1/2-y,-z
1/2+x,1/2-y,1/2+z
loop_
_atom_site_type_symbol
_atom_site_label
_atom_site_fract_x
_atom_site_fract_y
_atom_site_fract_z
Si Si1 0.913549 0.837706 0.713457
Si Si2 0.371919 0.563390 0.732598
Si Si3 0.241844 0.774320 0.302964
Si Si4 0.338550 0.835159 0.247536
Si Si5 0.336080 0.924139 0.731753
Si Si6 0.931688 0.732236 0.237162
O O1 0.789540 0.834193 0.482842
O O2 0.912409 0.735687 0.784779
O O3 0.000000 0.837072 0.750000
O O4 0.920668 0.944851 0.792321
O O5 0.333678 0.623006 0.778091
O O6 0.265215 0.559480 0.498875
O O7 0.455394 0.649755 0.810897
O O8 0.321512 0.790846 0.331393
O O9 0.191349 0.655363 0.218701
O O10 0.312484 0.760678 0.507478
O O11 0.371237 0.957547 0.306450
O O12 0.426282 0.853412 0.812828
O O13 0.000000 0.691944 0.250000
#
# Coordination Sequence:
#
# PCOD9279611 Si02
#       6
#     8   8   8   8   8   8
#     4  10  21  38  55  77 108 144 176 210 272 324
#     4   8  16  33  56  75 101 136 169 215 262 314
#     4   9  18  33  54  78 102 135 179 216 262 310
#     4  10  21  36  55  76 107 144 171 221 265 312
#     4   8  17  33  51  73 101 138 172 203 266 318
#     4   9  16  31  54  77 103 133 168 216 264 311
#
# _framework density 23.200821999999999
#
# number of rings (size 3 to 8) (size 9 to 14) (size 15 to 20)
#    0.000    3.000    0.000    2.500    2.333    0.667 
#    6.000    1.667    0.000    0.000    0.000    0.000 
#    0.000    0.000    0.000    0.000    0.000    0.000 
#
# Total GULP energy -133606.616412 kJ/mol
# GULP energy per Si atom -5566.942350 kJ/mol
# Density = 2.314802 g / cm^3
# Si number density = 23.200822 Si / 1000 Ang^3
#
#
#
# Elastic Constant Matrix: (Units=GPa)
#
#
# Indices 1 2 3 4 5 6 
#
# 1 133.0901 90.4566 -11.3710 0.0000 -3.2688 0.0000
# 2 90.4566 218.7731 15.7889 0.0000 1.4178 0.0000
# 3 -11.3710 15.7889 55.4988 0.0000 -1.1696 0.0000
# 4 0.0000 0.0000 0.0000 19.0306 0.0000 3.2205
# 5 -3.2688 1.4178 -1.1696 0.0000 23.2735 0.0000
# 6 0.0000 0.0000 0.0000 3.2205 0.0000 14.9471
#
#
#
# Elastic Compliance Matrix: (Units=1/GPa)
#
#
# Indices 1 2 3 4 5 6 
#
# 1 0.011235 -0.004929 0.003748 0.000000 0.002067 0.000000
# 2 -0.004929 0.006832 -0.002980 0.000000 -0.001258 0.000000
# 3 0.003748 -0.002980 0.019670 0.000000 0.001696 0.000000
# 4 0.000000 0.000000 0.000000 0.054536 0.000000 -0.011750
# 5 0.002067 -0.001258 0.001696 0.000000 0.043419 0.000000
# 6 0.000000 0.000000 0.000000 -0.011750 0.000000 0.069435
#
#
# Mechanical properties :
#
#
# Convention : Reuss Voigt Hill
#
# Bulk Modulus (GPa) = 33.99766 66.34565 50.17166
# Shear Modulus (GPa) = 22.39600 32.28273 27.33937
#
# Velocity S-wave (km/s) = 3.11032 3.73426 3.43648
# Velocity P-wave (km/s) = 5.25207 6.87395 6.11700
#
# Compressibility (1/GPa) = 0.02941378
#
# Stress axis : x y z
#
# Youngs Moduli (GPa) = 89.00880 146.36468 50.83922
#
# Poissons Ratio (x) = 0.72146 -0.19053
# Poissons Ratio (y) = 0.43874 0.15151
# Poissons Ratio (z) = -0.33358 0.43619
#
# Static dielectric constant tensor:
#      x y z
#    x 1.833030 0.000000 0.051650 
#    y 0.000000 1.892530 0.000000 
#    z 0.051650 0.000000 2.110260 
# 
# From -- ./inp_files/167124.got.cif
#   From: 2010.05.17/outbox.cif.g08.bks.cpg/sg15_84_cif.got.tgz:167124.got - 2010.06.03 18:47:42.
