data_PCOD9279139
_publ_section_title
;
Structure prediction by ZEFSAII (Michael W. Deem and Ramdas Pophale) SiO2 
 PCOD9279139
Probable space group: C 2/C
;
_chemical_formula_sum "Si O2"
_cell_formula_units_Z 64
_cell_length_a 31.358419
_cell_length_b 6.221244
_cell_length_c 31.137962
_cell_angle_alpha 90.000000
_cell_angle_beta 143.861469
_cell_angle_gamma 90.000000
_cell_volume 3582.464228
_symmetry_space_group_name_H-M "C 2/C"
_symmetry_group_IT_number 15
_symmetry_cell_setting 'monoclinic'
loop_
_space_group_symop_operation_xyz
x,y,z
-x,y,1/2-z
-x,-y,-z
x,-y,1/2+z
1/2+x,1/2+y,z
1/2-x,1/2+y,1/2-z
1/2-x,1/2-y,-z
1/2+x,1/2-y,1/2+z
loop_
_atom_site_type_symbol
_atom_site_label
_atom_site_fract_x
_atom_site_fract_y
_atom_site_fract_z
Si Si1 0.777358 0.947997 0.052134
Si Si2 0.433391 0.666624 0.951125
Si Si3 0.835430 0.159416 0.024618
Si Si4 0.082458 0.421041 0.472264
Si Si5 0.662992 0.621105 0.183850
Si Si6 0.285434 0.265830 0.923338
Si Si7 0.570840 0.015960 0.129520
Si Si8 0.711697 0.260442 0.273560
O O1 0.777758 0.846543 0.099590
O O2 0.842377 0.044346 0.076554
O O3 0.750000 0.750000 0.000000
O O4 0.721162 0.145587 0.012978
O O5 0.364411 0.544641 0.874789
O O6 0.445007 0.860528 0.927492
O O7 0.500000 0.500000 0.000000
O O8 0.418972 0.769849 0.986089
O O9 0.902454 0.271901 0.056448
O O10 0.807482 0.981138 0.967371
O O11 0.145475 0.603401 0.524883
O O12 0.003328 0.523076 0.405027
O O13 0.596791 0.778349 0.139070
O O14 0.685013 0.504263 0.245748
O O15 0.732002 0.736635 0.219903
O O16 0.253273 0.298726 0.850308
O O17 0.640088 0.120798 0.208461
#
# Coordination Sequence:
#
# PCOD9279139 Si02
#       8
#     8   8   8   8   8   8   8   8
#     4   8  16  34  55  89 117 138 173 237 295 344
#     4  11  23  35  55  76 110 149 194 241 290 340
#     4   9  18  33  58  87 115 139 180 234 297 344
#     4  11  22  33  55  84 109 147 191 243 290 346
#     4  11  22  37  52  73 109 155 198 237 286 329
#     4  10  21  34  59  87 115 145 191 237 289 354
#     4  11  24  37  50  77 113 151 193 245 284 336
#     4  11  23  36  54  76 111 159 193 234 279 349
#
# _framework density 17.864798
#
# number of rings (size 3 to 8) (size 9 to 14) (size 15 to 20)
#    0.000    1.750    2.500    1.875    5.250    2.000 
#    0.000    0.000    0.000    0.000    0.000   62.125 
#    0.000    0.000    0.000    0.000    0.000    0.000 
#
# Total GULP energy -178159.884378 kJ/mol
# GULP energy per Si atom -5567.496387 kJ/mol
# Density = 1.782414 g / cm^3
# Si number density = 17.864798 Si / 1000 Ang^3
#
#
#
# Elastic Constant Matrix: (Units=GPa)
#
#
# Indices 1 2 3 4 5 6 
#
# 1 111.8449 23.2250 25.5865 0.0030 3.9661 -0.0280
# 2 23.2250 70.9920 10.2712 -0.0060 0.9662 -0.1139
# 3 25.5865 10.2712 53.9712 0.0103 11.1641 -0.0028
# 4 0.0030 -0.0060 0.0103 26.5662 -0.0052 3.5479
# 5 3.9661 0.9662 11.1641 -0.0052 17.2256 0.0103
# 6 -0.0280 -0.1139 -0.0028 3.5479 0.0103 41.1759
#
#
#
# Elastic Compliance Matrix: (Units=1/GPa)
#
#
# Indices 1 2 3 4 5 6 
#
# 1 0.010552 -0.002794 -0.004620 0.000000 0.000722 -0.000001
# 2 -0.002794 0.015243 -0.001770 -0.000001 0.000935 0.000040
# 3 -0.004620 -0.001770 0.024038 -0.000012 -0.014416 -0.000002
# 4 0.000000 -0.000001 -0.000012 0.038080 0.000021 -0.003281
# 5 0.000722 0.000935 -0.014416 0.000021 0.067178 -0.000016
# 6 -0.000001 0.000040 -0.000002 -0.003281 -0.000016 0.024569
#
#
# Mechanical properties :
#
#
# Convention : Reuss Voigt Hill
#
# Bulk Modulus (GPa) = 31.78068 39.44150 35.61109
# Shear Modulus (GPa) = 23.97892 28.84191 26.41041
#
# Velocity S-wave (km/s) = 3.66764 4.02239 3.84910
# Velocity P-wave (km/s) = 5.98027 6.61048 6.30326
#
# Compressibility (1/GPa) = 0.03146566
#
# Stress axis : x y z
#
# Youngs Moduli (GPa) = 94.76487 65.60194 41.60146
#
# Poissons Ratio (x) = 0.18326 0.19221
# Poissons Ratio (y) = 0.26473 0.07364
# Poissons Ratio (z) = 0.43784 0.11612
#
# Static dielectric constant tensor:
#      x y z
#    x 1.637360 -0.000030 0.005720 
#    y -0.000030 1.696220 0.000010 
#    z 0.005720 0.000010 1.611070 
# 
# From -- ./inp_files/319956.got.cif
#   From: 2010.05.17/outbox.cif.g08.bks.cpg/sg15_160_cif.got.tgz:319956.got - 2010.06.03 18:47:42.
