data_PCOD9279885
_publ_section_title
;
Structure prediction by ZEFSAII (Michael W. Deem and Ramdas Pophale) SiO2 
 PCOD9279885
Probable space group: C 2/C
;
_chemical_formula_sum "Si O2"
_cell_formula_units_Z 52
_cell_length_a 11.427800
_cell_length_b 21.912025
_cell_length_c 20.416551
_cell_angle_alpha 90.000000
_cell_angle_beta 150.651879
_cell_angle_gamma 90.000000
_cell_volume 2505.677975
_symmetry_space_group_name_H-M "C 2/C"
_symmetry_group_IT_number 15
_symmetry_cell_setting 'monoclinic'
loop_
_space_group_symop_operation_xyz
x,y,z
-x,y,1/2-z
-x,-y,-z
x,-y,1/2+z
1/2+x,1/2+y,z
1/2-x,1/2+y,1/2-z
1/2-x,1/2-y,-z
1/2+x,1/2-y,1/2+z
loop_
_atom_site_type_symbol
_atom_site_label
_atom_site_fract_x
_atom_site_fract_y
_atom_site_fract_z
Si Si1 0.695231 0.381203 0.003416
Si Si2 0.690394 0.092021 0.674187
Si Si3 0.003871 0.647287 0.448523
Si Si4 0.879083 0.224725 0.282794
Si Si5 0.139548 0.046442 0.247763
Si Si6 0.500000 0.832348 0.250000
Si Si7 0.511514 0.701153 0.833522
O O1 0.564170 0.321440 0.907369
O O2 0.528298 0.435460 0.894994
O O3 0.952136 0.398902 0.099217
O O4 0.764632 0.370133 0.113543
O O5 0.621971 0.118438 0.569802
O O6 0.895003 0.137030 0.798546
O O7 0.780055 0.023343 0.712869
O O8 0.773499 0.690227 0.348186
O O9 0.872732 0.589405 0.352199
O O10 0.209000 0.688702 0.515199
O O11 0.671982 0.247717 0.230544
O O12 0.980822 0.285691 0.301287
O O13 0.000000 0.058555 0.250000
O O14 0.500000 0.708715 0.750000
#
# Coordination Sequence:
#
# PCOD9279885 Si02
#       7
#     8   8   8   8   8   4   8
#     4  11  25  41  64  98 123 172 220 263 328 383
#     4  11  21  38  61  97 128 164 212 270 330 377
#     4  10  21  36  60  96 131 163 207 263 330 387
#     4  11  23  40  65  94 132 171 215 268 316 394
#     4  11  22  38  67  95 131 165 218 281 324 384
#     4  12  24  40  66  90 132 174 214 268 316 394
#     4  10  22  36  59  94 131 172 210 262 327 382
#
# _framework density 20.752866000000001
#
# number of rings (size 3 to 8) (size 9 to 14) (size 15 to 20)
#    0.000    1.231    3.077    3.692    8.615    0.000 
#    0.000    0.769    0.000    0.000    0.000    0.000 
#    0.000    0.000    0.000    0.000    0.000    0.000 
#
# Total GULP energy -144736.803825 kJ/mol
# GULP energy per Si atom -5566.800147 kJ/mol
# Density = 2.070563 g / cm^3
# Si number density = 20.752866 Si / 1000 Ang^3
#
#
#
# Elastic Constant Matrix: (Units=GPa)
#
#
# Indices 1 2 3 4 5 6 
#
# 1 55.3659 20.0311 21.3957 0.0337 11.5823 -0.0162
# 2 20.0311 80.0485 30.8481 0.0893 -2.2886 -0.0498
# 3 21.3957 30.8481 131.2631 0.1802 5.0959 -0.0998
# 4 0.0337 0.0893 0.1802 108.1709 0.0431 -36.6473
# 5 11.5823 -2.2886 5.0959 0.0431 26.2207 -0.0214
# 6 -0.0162 -0.0498 -0.0998 -36.6473 -0.0214 43.9568
#
#
#
# Elastic Compliance Matrix: (Units=1/GPa)
#
#
# Indices 1 2 3 4 5 6 
#
# 1 0.022884 -0.005202 -0.002113 0.000003 -0.010152 -0.000005
# 2 -0.005202 0.015008 -0.002840 -0.000006 0.004160 0.000006
# 3 -0.002113 -0.002840 0.008669 -0.000008 -0.000999 0.000008
# 4 0.000003 -0.000006 -0.000008 0.012884 -0.000013 0.010741
# 5 -0.010152 0.004160 -0.000999 -0.000013 0.043179 0.000009
# 6 -0.000005 0.000006 0.000008 0.010741 0.000009 0.031705
#
#
# Mechanical properties :
#
#
# Convention : Reuss Voigt Hill
#
# Bulk Modulus (GPa) = 38.09698 45.69191 41.89444
# Shear Modulus (GPa) = 30.60145 48.62986 39.61565
#
# Velocity S-wave (km/s) = 3.84417 4.84600 4.37386
# Velocity P-wave (km/s) = 6.17259 7.30593 6.76304
#
# Compressibility (1/GPa) = 0.02624880
#
# Stress axis : x y z
#
# Youngs Moduli (GPa) = 43.69818 66.63206 115.35195
#
# Poissons Ratio (x) = 0.34664 0.24379
# Poissons Ratio (y) = 0.22733 0.32766
# Poissons Ratio (z) = 0.09235 0.18927
#
# Static dielectric constant tensor:
#      x y z
#    x 1.824500 0.000000 -0.030860 
#    y 0.000000 1.782750 -0.000010 
#    z -0.030860 -0.000010 1.816710 
# 
# From -- ./inp_files/240556.got.cif
#   From: 2010.05.17/outbox.cif.g08.bks.cpg/sg15_121_cif.got.tgz:240556.got - 2010.06.03 18:47:42.
