data_PCOD9279788
_publ_section_title
;
Structure prediction by ZEFSAII (Michael W. Deem and Ramdas Pophale) SiO2 
 PCOD9279788
Probable space group: C 2/C
;
_chemical_formula_sum "Si O2"
_cell_formula_units_Z 56
_cell_length_a 17.960007
_cell_length_b 11.733602
_cell_length_c 25.588580
_cell_angle_alpha 90.000000
_cell_angle_beta 148.202942
_cell_angle_gamma 90.000000
_cell_volume 2841.333800
_symmetry_space_group_name_H-M "C 2/C"
_symmetry_group_IT_number 15
_symmetry_cell_setting 'monoclinic'
loop_
_space_group_symop_operation_xyz
x,y,z
-x,y,1/2-z
-x,-y,-z
x,-y,1/2+z
1/2+x,1/2+y,z
1/2-x,1/2+y,1/2-z
1/2-x,1/2-y,-z
1/2+x,1/2-y,1/2+z
loop_
_atom_site_type_symbol
_atom_site_label
_atom_site_fract_x
_atom_site_fract_y
_atom_site_fract_z
Si Si1 0.310840 0.825531 0.759698
Si Si2 0.676320 0.659548 0.635722
Si Si3 0.503598 0.719243 0.431931
Si Si4 0.042923 0.439726 0.164795
Si Si5 0.960229 0.186886 0.668364
Si Si6 0.360339 0.078884 0.130455
Si Si7 0.940283 0.021911 0.559020
O O1 0.312649 0.759427 0.815171
O O2 0.154511 0.811694 0.644090
O O3 0.411016 0.759694 0.779179
O O4 0.371014 0.951203 0.805636
O O5 0.608969 0.707717 0.543073
O O6 0.836363 0.613757 0.725495
O O7 0.567638 0.570107 0.598833
O O8 0.499088 0.841019 0.400823
O O9 0.539707 0.611136 0.416952
O O10 0.907355 0.495034 0.111705
O O11 0.845297 0.287473 0.606821
O O12 0.929739 0.092515 0.606657
O O13 0.000000 0.143239 0.750000
O O14 0.500000 0.074022 0.250000
O O15 0.208314 0.039325 0.059607
#
# Coordination Sequence:
#
# PCOD9279788 Si02
#       7
#     8   8   8   8   8   8   8
#     4   9  20  38  57  85 115 148 189 241 276 333
#     4  10  21  36  61  84 112 149 193 235 282 334
#     4  11  22  35  60  84 115 152 190 231 286 339
#     4  10  21  40  54  84 119 147 188 238 283 342
#     4   9  20  37  58  83 115 147 187 236 288 325
#     4  10  21  36  59  82 114 149 189 235 284 332
#     4  11  21  36  58  87 111 147 192 233 277 345
#
# _framework density 19.709053000000001
#
# number of rings (size 3 to 8) (size 9 to 14) (size 15 to 20)
#    0.000    2.000    1.429    1.714    6.000    1.143 
#    0.000    3.571    0.000    0.000    0.000    0.000 
#    0.000    0.000    0.000    0.000    0.000    0.000 
#
# Total GULP energy -156089.503026 kJ/mol
# GULP energy per Si atom -5574.625108 kJ/mol
# Density = 1.966419 g / cm^3
# Si number density = 19.709053 Si / 1000 Ang^3
#
#
#
# Elastic Constant Matrix: (Units=GPa)
#
#
# Indices 1 2 3 4 5 6 
#
# 1 27.7388 10.6796 11.7014 -0.0002 -8.5913 -0.0001
# 2 10.6796 68.1714 18.9371 -0.0005 -19.0676 -0.0004
# 3 11.7014 18.9371 82.7826 -0.0007 -12.6038 -0.0006
# 4 -0.0002 -0.0005 -0.0007 23.3471 -0.0001 -3.5509
# 5 -8.5913 -19.0676 -12.6038 -0.0001 35.7997 -0.0001
# 6 -0.0001 -0.0004 -0.0006 -3.5509 -0.0001 14.9444
#
#
#
# Elastic Compliance Matrix: (Units=1/GPa)
#
#
# Indices 1 2 3 4 5 6 
#
# 1 0.041129 -0.003482 -0.004012 0.000000 0.006603 0.000000
# 2 -0.003482 0.018117 -0.002441 0.000000 0.007955 0.000000
# 3 -0.004012 -0.002441 0.013589 0.000000 0.002521 0.000001
# 4 0.000000 0.000000 0.000000 0.044438 0.000001 0.010559
# 5 0.006603 0.007955 0.002521 0.000001 0.034642 0.000001
# 6 0.000000 0.000000 0.000001 0.010559 0.000001 0.069424
#
#
# Mechanical properties :
#
#
# Convention : Reuss Voigt Hill
#
# Bulk Modulus (GPa) = 18.88011 29.03654 23.95832
# Shear Modulus (GPa) = 19.31520 23.97656 21.64588
#
# Velocity S-wave (km/s) = 3.13392 3.49166 3.31761
# Velocity P-wave (km/s) = 4.76398 5.56957 5.18245
#
# Compressibility (1/GPa) = 0.05296581
#
# Stress axis : x y z
#
# Youngs Moduli (GPa) = 24.31400 55.19547 73.58777
#
# Poissons Ratio (x) = 0.19218 0.29521
# Poissons Ratio (y) = 0.08466 0.17965
# Poissons Ratio (z) = 0.09754 0.13475
#
# Static dielectric constant tensor:
#      x y z
#    x 1.723800 0.000000 -0.007730 
#    y 0.000000 1.712340 0.000000 
#    z -0.007730 0.000000 1.732310 
# 
# From -- ./inp_files/300742.got.cif
#   From: 2010.05.17/outbox.cif.g08.bks.cpg/sg15_151_cif.got.tgz:300742.got - 2010.06.03 18:47:42.
