data_PCOD9279048
_publ_section_title
;
Structure prediction by ZEFSAII (Michael W. Deem and Ramdas Pophale) SiO2 
 PCOD9279048
Probable space group: C 2/C
;
_chemical_formula_sum "Si O2"
_cell_formula_units_Z 52
_cell_length_a 21.662413
_cell_length_b 15.100895
_cell_length_c 7.417249
_cell_angle_alpha 90.000000
_cell_angle_beta 90.205582
_cell_angle_gamma 90.000000
_cell_volume 2426.328404
_symmetry_space_group_name_H-M "C 2/C"
_symmetry_group_IT_number 15
_symmetry_cell_setting 'monoclinic'
loop_
_space_group_symop_operation_xyz
x,y,z
-x,y,1/2-z
-x,-y,-z
x,-y,1/2+z
1/2+x,1/2+y,z
1/2-x,1/2+y,1/2-z
1/2-x,1/2-y,-z
1/2+x,1/2-y,1/2+z
loop_
_atom_site_type_symbol
_atom_site_label
_atom_site_fract_x
_atom_site_fract_y
_atom_site_fract_z
Si Si1 0.351257 0.825892 0.961666
Si Si2 0.763493 0.065712 0.179962
Si Si3 0.483298 0.898626 0.958632
Si Si4 0.264718 0.873932 0.420261
Si Si5 0.125180 0.828456 0.781975
Si Si6 0.153350 0.246976 0.914773
Si Si7 0.500000 0.756616 0.250000
O O1 0.288583 0.880795 0.930831
O O2 0.410342 0.886874 0.002156
O O3 0.372501 0.776728 0.776358
O O4 0.341257 0.753500 0.116120
O O5 0.757632 0.101065 0.380805
O O6 0.835535 0.088261 0.142255
O O7 0.743987 0.963803 0.185678
O O8 0.500000 0.882332 0.750000
O O9 0.515986 0.825009 0.087119
O O10 0.500000 0.000000 0.000000
O O11 0.218416 0.797998 0.355576
O O12 0.331255 0.833787 0.465010
O O13 0.125332 0.818943 0.563017
O O14 0.054203 0.806866 0.823019
#
# Coordination Sequence:
#
# PCOD9279048 Si02
#       7
#     8   8   8   8   8   8   4
#     4  10  22  35  57  83 110 152 184 225 281 330
#     4  10  21  34  54  87 111 140 188 231 284 325
#     4  11  22  38  56  81 116 151 189 228 269 332
#     4   9  20  33  54  82 113 147 175 230 286 330
#     4  10  21  37  59  79 111 149 184 232 277 336
#     4   9  19  38  53  79 117 145 182 225 281 335
#     4  10  22  40  58  80 108 152 190 228 286 332
#
# _framework density 21.431560000000001
#
# number of rings (size 3 to 8) (size 9 to 14) (size 15 to 20)
#    0.000    2.154    0.769    2.308    4.308    3.692 
#    0.000    0.000    0.000    3.692    2.000    0.000 
#    0.000    0.000    0.000    0.000    0.000    0.000 
#
# Total GULP energy -144792.783419 kJ/mol
# GULP energy per Si atom -5568.953208 kJ/mol
# Density = 2.138278 g / cm^3
# Si number density = 21.431560 Si / 1000 Ang^3
#
#
#
# Elastic Constant Matrix: (Units=GPa)
#
#
# Indices 1 2 3 4 5 6 
#
# 1 57.5257 0.0338 0.6941 0.0000 16.2396 0.0000
# 2 0.0338 23.1777 17.1502 0.0000 5.5520 0.0000
# 3 0.6941 17.1502 73.3024 0.0000 0.6159 0.0000
# 4 0.0000 0.0000 0.0000 17.8186 0.0000 -10.6555
# 5 16.2396 5.5520 0.6159 0.0000 25.7507 0.0000
# 6 0.0000 0.0000 0.0000 -10.6555 0.0000 -18.4735
#
#
#
# Elastic Compliance Matrix: (Units=1/GPa)
#
#
# Indices 1 2 3 4 5 6 
#
# 1 0.021465 0.004213 -0.001068 0.000000 -0.014419 0.000000
# 2 0.004213 0.056292 -0.013089 0.000000 -0.014481 0.000000
# 3 -0.001068 -0.013089 0.016689 0.000000 0.003096 0.000000
# 4 0.000000 0.000000 0.000000 0.041728 0.000000 -0.024069
# 5 -0.014419 -0.014481 0.003096 0.000000 0.050975 0.000000
# 6 0.000000 0.000000 0.000000 -0.024069 0.000000 -0.040249
#
#
# Mechanical properties :
#
#
# Convention : Reuss Voigt Hill
#
# Bulk Modulus (GPa) = 13.41240 21.08468 17.24854
# Shear Modulus (GPa) = 26.09058 14.09433 20.09246
#
# Velocity S-wave (km/s) = 3.49290 2.56724 3.06521
# Velocity P-wave (km/s) = 4.74752 4.31823 4.53795
#
# Compressibility (1/GPa) = 0.07455790
#
# Stress axis : x y z
#
# Youngs Moduli (GPa) = 46.58855 17.76444 59.92147
#
# Poissons Ratio (x) = -0.07484 0.06398
# Poissons Ratio (y) = -0.19626 0.78429
# Poissons Ratio (z) = 0.04974 0.23251
#
# Static dielectric constant tensor:
#      x y z
#    x 1.898930 0.000000 -0.017670 
#    y 0.000000 1.403700 0.000000 
#    z -0.017670 0.000000 1.839520 
# 
# From -- ./inp_files/55390.got.cif
#   From: 2010.05.17/outbox.cif.g08.bks.cpg/sg15_28_cif.got.tgz:55390.got - 2010.06.03 18:47:42.
