data_PCOD9279510
_publ_section_title
;
Structure prediction by ZEFSAII (Michael W. Deem and Ramdas Pophale) SiO2 
 PCOD9279510
Probable space group: C 2/C
;
_chemical_formula_sum "Si O2"
_cell_formula_units_Z 44
_cell_length_a 5.422443
_cell_length_b 18.244648
_cell_length_c 21.093915
_cell_angle_alpha 90.000000
_cell_angle_beta 95.970463
_cell_angle_gamma 90.000000
_cell_volume 2075.513191
_symmetry_space_group_name_H-M "C 2/C"
_symmetry_group_IT_number 15
_symmetry_cell_setting 'monoclinic'
loop_
_space_group_symop_operation_xyz
x,y,z
-x,y,1/2-z
-x,-y,-z
x,-y,1/2+z
1/2+x,1/2+y,z
1/2-x,1/2+y,1/2-z
1/2-x,1/2-y,-z
1/2+x,1/2-y,1/2+z
loop_
_atom_site_type_symbol
_atom_site_label
_atom_site_fract_x
_atom_site_fract_y
_atom_site_fract_z
Si Si1 0.087186 0.893473 0.188084
Si Si2 0.750452 0.848031 0.560059
Si Si3 0.326073 0.996954 0.876452
Si Si4 0.741307 0.233278 0.424947
Si Si5 0.000000 0.495354 0.750000
Si Si6 0.582186 0.141575 0.912452
O O1 0.282774 0.950834 0.222619
O O2 0.230089 0.845678 0.140147
O O3 0.000000 0.852955 0.250000
O O4 0.893732 0.947773 0.148731
O O5 0.524932 0.805581 0.589779
O O6 0.701119 0.838647 0.483260
O O7 0.024332 0.819220 0.583382
O O8 0.736612 0.933426 0.576864
O O9 0.415109 0.958551 0.813019
O O10 0.524360 0.054866 0.909075
O O11 0.750000 0.250000 0.500000
O O12 0.832671 0.309937 0.396443
#
# Coordination Sequence:
#
# PCOD9279510 Si02
#       6
#     8   8   8   8   4   8
#     4   9  19  35  60  88 117 156 203 254 304 353
#     4  11  24  38  61  94 124 160 196 246 306 363
#     4  10  21  35  63  88 118 153 207 254 293 357
#     4  10  23  41  58  85 128 168 192 232 311 371
#     4   8  18  38  54  84 116 160 190 248 312 350
#     4  10  21  36  61  88 122 158 201 248 295 359
#
# _framework density 21.199576
#
# number of rings (size 3 to 8) (size 9 to 14) (size 15 to 20)
#    0.000    2.182    0.000    2.727   12.727    0.727 
#    0.000    0.000    2.000    0.000    0.000    0.000 
#    0.000    0.000    0.000    0.000    0.000    0.000 
#
# Total GULP energy -122602.716963 kJ/mol
# GULP energy per Si atom -5572.850771 kJ/mol
# Density = 2.115133 g / cm^3
# Si number density = 21.199576 Si / 1000 Ang^3
#
#
#
# Elastic Constant Matrix: (Units=GPa)
#
#
# Indices 1 2 3 4 5 6 
#
# 1 113.0113 35.4029 35.4475 0.0000 -23.7428 0.0000
# 2 35.4029 101.2701 30.8628 0.0000 -16.2336 0.0000
# 3 35.4475 30.8628 78.1980 0.0000 -23.6672 0.0000
# 4 0.0000 0.0000 0.0000 5.6845 0.0000 -4.1017
# 5 -23.7428 -16.2336 -23.6672 0.0000 38.5295 0.0000
# 6 0.0000 0.0000 0.0000 -4.1017 0.0000 27.0675
#
#
#
# Elastic Compliance Matrix: (Units=1/GPa)
#
#
# Indices 1 2 3 4 5 6 
#
# 1 0.011414 -0.002418 -0.002947 0.000000 0.004204 0.000000
# 2 -0.002418 0.011931 -0.003123 0.000000 0.001619 0.000000
# 3 -0.002947 -0.003123 0.017699 0.000000 0.007740 0.000000
# 4 0.000000 0.000000 0.000000 0.197516 0.000000 0.029931
# 5 0.004204 0.001619 0.007740 0.000000 0.033981 0.000000
# 6 0.000000 0.000000 0.000000 0.029931 0.000000 0.041480
#
#
# Mechanical properties :
#
#
# Convention : Reuss Voigt Hill
#
# Bulk Modulus (GPa) = 41.54912 55.10064 48.32488
# Shear Modulus (GPa) = 14.74839 26.97405 20.86122
#
# Velocity S-wave (km/s) = 2.64046 3.57092 3.14034
# Velocity P-wave (km/s) = 5.37937 6.56123 5.99948
#
# Compressibility (1/GPa) = 0.02406790
#
# Stress axis : x y z
#
# Youngs Moduli (GPa) = 87.61257 83.81458 56.50004
#
# Poissons Ratio (x) = 0.20267 0.16651
# Poissons Ratio (y) = 0.21185 0.17645
# Poissons Ratio (z) = 0.25820 0.26175
#
# Static dielectric constant tensor:
#      x y z
#    x 1.868570 0.000000 -0.012980 
#    y 0.000000 1.743800 0.000000 
#    z -0.012980 0.000000 1.823170 
# 
# From -- ./inp_files/226960.got.cif
#   From: 2010.05.17/outbox.cif.g08.bks.cpg/sg15_114_cif.got.tgz:226960.got - 2010.06.03 18:47:42.
