data_PCOD9279831
_publ_section_title
;
Structure prediction by ZEFSAII (Michael W. Deem and Ramdas Pophale) SiO2 
 PCOD9279831
Probable space group: C 2/C
;
_chemical_formula_sum "Si O2"
_cell_formula_units_Z 52
_cell_length_a 18.931527
_cell_length_b 25.610155
_cell_length_c 5.156445
_cell_angle_alpha 90.000000
_cell_angle_beta 73.443767
_cell_angle_gamma 90.000000
_cell_volume 2396.396745
_symmetry_space_group_name_H-M "C 2/C"
_symmetry_group_IT_number 15
_symmetry_cell_setting 'monoclinic'
loop_
_space_group_symop_operation_xyz
x,y,z
-x,y,1/2-z
-x,-y,-z
x,-y,1/2+z
1/2+x,1/2+y,z
1/2-x,1/2+y,1/2-z
1/2-x,1/2-y,-z
1/2+x,1/2-y,1/2+z
loop_
_atom_site_type_symbol
_atom_site_label
_atom_site_fract_x
_atom_site_fract_y
_atom_site_fract_z
Si Si1 0.500000 0.036874 0.750000
Si Si2 0.663442 0.038347 0.541126
Si Si3 0.848325 0.198935 0.327108
Si Si4 0.847197 0.031479 0.750556
Si Si5 0.244080 0.882093 0.873707
Si Si6 0.000000 0.151601 0.250000
Si Si7 0.212564 0.707292 0.855577
Si Si8 0.000000 0.918450 0.250000
O O1 0.500000 0.000000 0.500000
O O2 0.580561 0.062579 0.648005
O O3 0.716589 0.085357 0.395385
O O4 0.671331 0.995270 0.298712
O O5 0.822993 0.155580 0.144237
O O6 0.925567 0.184171 0.373131
O O7 0.849919 0.258283 0.217736
O O8 0.777762 0.195075 0.587399
O O9 0.792736 0.077003 0.892824
O O10 0.835762 0.984225 0.965694
O O11 0.930249 0.048328 0.730103
O O12 0.301602 0.844361 0.963037
O O13 0.016769 0.116684 0.482941
O O14 0.250000 0.750000 0.000000
#
# Coordination Sequence:
#
# PCOD9279831 Si02
#       8
#     4   8   8   8   8   4   8   4
#     4   8  16  34  56  81 115 153 202 243 304 370
#     4  10  21  36  59  93 124 167 208 256 307 377
#     4  10  22  41  66  94 123 165 217 269 327 390
#     4  12  25  39  58  89 137 179 224 267 311 368
#     4  11  22  37  62  91 130 166 217 269 320 383
#     4  12  24  41  72  97 124 176 224 266 326 398
#     4   9  21  41  65  92 121 160 208 273 333 386
#     4  12  24  43  60  90 133 185 224 263 318 366
#
# _framework density 21.699247
#
# number of rings (size 3 to 8) (size 9 to 14) (size 15 to 20)
#    0.000    1.538    1.538    3.231    6.462    0.000 
#    0.000    0.000    0.000   10.154    0.000    0.000 
#    0.000    0.000    0.000    0.154    0.000    0.000 
#
# Total GULP energy -145178.388799 kJ/mol
# GULP energy per Si atom -5583.784185 kJ/mol
# Density = 2.164986 g / cm^3
# Si number density = 21.699247 Si / 1000 Ang^3
#
#
#
# Elastic Constant Matrix: (Units=GPa)
#
#
# Indices 1 2 3 4 5 6 
#
# 1 75.9395 45.7839 16.6657 0.0000 -11.4169 0.0000
# 2 45.7839 95.7260 29.8677 0.0000 -8.0825 0.0000
# 3 16.6657 29.8677 82.7319 0.0000 11.0312 0.0000
# 4 0.0000 0.0000 0.0000 32.7221 0.0000 4.1867
# 5 -11.4169 -8.0825 11.0312 0.0000 37.8829 0.0000
# 6 0.0000 0.0000 0.0000 4.1867 0.0000 46.7189
#
#
#
# Elastic Compliance Matrix: (Units=1/GPa)
#
#
# Indices 1 2 3 4 5 6 
#
# 1 0.019185 -0.008354 -0.001438 0.000000 0.004418 0.000000
# 2 -0.008354 0.015992 -0.004380 0.000000 0.002170 0.000000
# 3 -0.001438 -0.004380 0.014712 0.000000 -0.005652 0.000000
# 4 0.000000 0.000000 0.000000 0.030915 0.000000 -0.002770
# 5 0.004418 0.002170 -0.005652 0.000000 0.029837 0.000000
# 6 0.000000 0.000000 0.000000 -0.002770 0.000000 0.021653
#
#
# Mechanical properties :
#
#
# Convention : Reuss Voigt Hill
#
# Bulk Modulus (GPa) = 46.41440 48.78133 47.59787
# Shear Modulus (GPa) = 29.79420 34.27013 32.03216
#
# Velocity S-wave (km/s) = 3.70949 3.97838 3.84629
# Velocity P-wave (km/s) = 6.30741 6.60551 6.45818
#
# Compressibility (1/GPa) = 0.02154504
#
# Stress axis : x y z
#
# Youngs Moduli (GPa) = 52.12464 62.53201 67.97357
#
# Poissons Ratio (x) = 0.52240 0.09773
# Poissons Ratio (y) = 0.43545 0.29771
# Poissons Ratio (z) = 0.07494 0.27387
#
# Static dielectric constant tensor:
#      x y z
#    x 5.033470 0.000000 7.845170 
#    y 0.000000 2.090940 0.000000 
#    z 7.845170 0.000000 21.111390 
# 
# From -- ./inp_files/13422.got.cif
#   From: 2010.05.17/outbox.cif.g08.bks.cpg/sg15_7_cif.got.tgz:13422.got - 2010.06.03 18:47:42.
