data_PCOD9279489
_publ_section_title
;
Structure prediction by ZEFSAII (Michael W. Deem and Ramdas Pophale) SiO2 
 PCOD9279489
Probable space group: C 2/C
;
_chemical_formula_sum "Si O2"
_cell_formula_units_Z 28
_cell_length_a 17.169578
_cell_length_b 6.789213
_cell_length_c 16.920302
_cell_angle_alpha 90.000000
_cell_angle_beta 144.890693
_cell_angle_gamma 90.000000
_cell_volume 1134.382025
_symmetry_space_group_name_H-M "C 2/C"
_symmetry_group_IT_number 15
_symmetry_cell_setting 'monoclinic'
loop_
_space_group_symop_operation_xyz
x,y,z
-x,y,1/2-z
-x,-y,-z
x,-y,1/2+z
1/2+x,1/2+y,z
1/2-x,1/2+y,1/2-z
1/2-x,1/2-y,-z
1/2+x,1/2-y,1/2+z
loop_
_atom_site_type_symbol
_atom_site_label
_atom_site_fract_x
_atom_site_fract_y
_atom_site_fract_z
Si Si1 0.343969 0.831125 0.817861
Si Si2 0.000000 0.715458 0.750000
Si Si3 0.046087 0.229687 0.115713
Si Si4 0.852311 0.327289 0.648146
O O1 0.195433 0.860354 0.730546
O O2 0.316464 0.760517 0.706018
O O3 0.422657 0.035120 0.865399
O O4 0.437320 0.704312 0.954794
O O5 0.010484 0.817530 0.843939
O O6 0.873248 0.563425 0.655236
O O7 0.750000 0.250000 0.500000
O O8 0.000000 0.247156 0.750000
#
# Coordination Sequence:
#
# PCOD9279489 Si02
#       4
#     8   4   8   8
#     4  10  21  35  62  82 116 149 190 236 283 334
#     4   8  20  36  58  78 116 152 182 230 288 336
#     4  10  21  39  57  84 115 153 188 233 283 339
#     4   9  17  32  55  83 106 147 189 230 270 329
#
# _framework density 24.683042
#
# number of rings (size 3 to 8) (size 9 to 14) (size 15 to 20)
#    0.857    1.714    0.000    1.714    4.000    2.286 
#    0.000    0.000    3.143    0.000    0.000    0.000 
#    0.000    0.000    0.000    0.000    0.000    0.000 
#
# Total GULP energy -78180.246164 kJ/mol
# GULP energy per Si atom -5584.303297 kJ/mol
# Density = 2.462686 g / cm^3
# Si number density = 24.683042 Si / 1000 Ang^3
#
#
#
# Elastic Constant Matrix: (Units=GPa)
#
#
# Indices 1 2 3 4 5 6 
#
# 1 175.0517 -1.3148 70.7955 0.0000 -37.8702 0.0000
# 2 -1.3148 38.9221 5.7458 0.0000 -7.2125 0.0000
# 3 70.7955 5.7458 195.4021 0.0000 -22.4862 0.0000
# 4 0.0000 0.0000 0.0000 3.7261 0.0000 4.4955
# 5 -37.8702 -7.2125 -22.4862 0.0000 45.6409 0.0000
# 6 0.0000 0.0000 0.0000 4.4955 0.0000 129.0498
#
#
#
# Elastic Compliance Matrix: (Units=1/GPa)
#
#
# Indices 1 2 3 4 5 6 
#
# 1 0.007860 0.001649 -0.002243 0.000000 0.005678 0.000000
# 2 0.001649 0.026832 -0.000786 0.000000 0.005221 0.000000
# 3 -0.002243 -0.000786 0.006069 0.000000 0.001005 0.000000
# 4 0.000000 0.000000 0.000000 0.280153 0.000000 -0.009759
# 5 0.005678 0.005221 0.001005 0.000000 0.027941 0.000000
# 6 0.000000 0.000000 0.000000 -0.009759 0.000000 0.008089
#
#
# Mechanical properties :
#
#
# Convention : Reuss Voigt Hill
#
# Bulk Modulus (GPa) = 26.31478 62.20321 44.25900
# Shear Modulus (GPa) = 13.42746 57.95996 35.69371
#
# Velocity S-wave (km/s) = 2.33490 4.85105 3.80686
# Velocity P-wave (km/s) = 4.23713 7.52545 6.10678
#
# Compressibility (1/GPa) = 0.03800146
#
# Stress axis : x y z
#
# Youngs Moduli (GPa) = 127.22030 37.26956 164.77083
#
# Poissons Ratio (x) = -0.06145 0.36958
# Poissons Ratio (y) = -0.20975 0.12943
# Poissons Ratio (z) = 0.28535 0.02928
#
# Static dielectric constant tensor:
#      x y z
#    x 1.926510 0.000000 -0.016860 
#    y 0.000000 2.154020 0.000000 
#    z -0.016860 0.000000 1.908540 
# 
# From -- ./inp_files/36334.got.cif
#   From: 2010.05.17/outbox.cif.g08.bks.cpg/sg15_19_cif.got.tgz:36334.got - 2010.06.03 18:47:42.
