data_PCOD9279635
_publ_section_title
;
Structure prediction by ZEFSAII (Michael W. Deem and Ramdas Pophale) SiO2 
 PCOD9279635
Probable space group: C 2/C
;
_chemical_formula_sum "Si O2"
_cell_formula_units_Z 60
_cell_length_a 12.353492
_cell_length_b 19.453626
_cell_length_c 25.714442
_cell_angle_alpha 90.000000
_cell_angle_beta 148.984512
_cell_angle_gamma 90.000000
_cell_volume 3184.212646
_symmetry_space_group_name_H-M "C 2/C"
_symmetry_group_IT_number 15
_symmetry_cell_setting 'monoclinic'
loop_
_space_group_symop_operation_xyz
x,y,z
-x,y,1/2-z
-x,-y,-z
x,-y,1/2+z
1/2+x,1/2+y,z
1/2-x,1/2+y,1/2-z
1/2-x,1/2-y,-z
1/2+x,1/2-y,1/2+z
loop_
_atom_site_type_symbol
_atom_site_label
_atom_site_fract_x
_atom_site_fract_y
_atom_site_fract_z
Si Si1 0.476815 0.610700 0.889703
Si Si2 0.518925 0.717164 0.002206
Si Si3 0.499272 0.883031 0.312066
Si Si4 0.500000 0.917278 0.750000
Si Si5 0.597066 0.277836 0.845797
Si Si6 0.172550 0.179224 0.174233
Si Si7 0.536051 0.288406 0.324046
Si Si8 0.793936 0.997265 0.950630
O O1 0.239113 0.594337 0.773532
O O2 0.569089 0.653832 0.880309
O O3 0.460272 0.661698 0.933619
O O4 0.624197 0.547479 0.967097
O O5 0.529761 0.688797 0.064810
O O6 0.755467 0.741832 0.088743
O O7 0.346202 0.776879 0.936935
O O8 0.500000 0.892915 0.250000
O O9 0.542375 0.802011 0.338598
O O10 0.677000 0.930425 0.411465
O O11 0.661709 0.875762 0.779843
O O12 0.631700 0.958334 0.846507
O O13 0.500000 0.291564 0.750000
O O14 0.485559 0.325920 0.842430
O O15 0.328959 0.243273 0.251100
O O16 0.500000 0.312941 0.250000
O O17 0.000000 0.000000 0.000000
#
# Coordination Sequence:
#
# PCOD9279635 Si02
#       8
#     8   8   8   4   8   8   8   8
#     4  12  20  36  60  81 115 156 191 243 297 357
#     4  11  19  33  54  86 116 147 189 231 295 361
#     4  11  20  35  56  81 114 153 196 237 289 353
#     4  12  22  36  56  92 128 148 190 250 304 354
#     4  11  21  35  55  82 121 161 197 234 290 365
#     4  11  20  35  54  86 124 153 186 248 302 352
#     4  10  21  36  55  84 117 153 193 234 295 364
#     4  12  22  36  56  85 120 151 195 246 299 353
#
# _framework density 18.842963000000001
#
# number of rings (size 3 to 8) (size 9 to 14) (size 15 to 20)
#    0.000    0.800    9.333    0.800    0.000    1.067 
#    0.000    0.000    0.000    0.800    0.000    3.733 
#    0.000    0.000    0.000    0.000    0.000    0.000 
#
# Total GULP energy -167213.202690 kJ/mol
# GULP energy per Si atom -5573.773423 kJ/mol
# Density = 1.880008 g / cm^3
# Si number density = 18.842963 Si / 1000 Ang^3
#
#
#
# Elastic Constant Matrix: (Units=GPa)
#
#
# Indices 1 2 3 4 5 6 
#
# 1 66.4201 6.8439 16.0916 0.0004 6.3000 -0.0001
# 2 6.8439 28.3333 4.0967 0.0006 -5.1470 -0.0001
# 3 16.0916 4.0967 88.2293 0.0015 9.8115 -0.0001
# 4 0.0004 0.0006 0.0015 23.3621 -0.0002 -5.7849
# 5 6.3000 -5.1470 9.8115 -0.0002 16.4413 0.0000
# 6 -0.0001 -0.0001 -0.0001 -5.7849 0.0000 18.4206
#
#
#
# Elastic Compliance Matrix: (Units=1/GPa)
#
#
# Indices 1 2 3 4 5 6 
#
# 1 0.016705 -0.004956 -0.002070 0.000000 -0.006718 0.000000
# 2 -0.004956 0.039787 -0.002720 -0.000001 0.015978 0.000000
# 3 -0.002070 -0.002720 0.012686 -0.000001 -0.007629 0.000000
# 4 0.000000 -0.000001 -0.000001 0.046414 0.000001 0.014576
# 5 -0.006718 0.015978 -0.007629 0.000001 0.072951 0.000000
# 6 0.000000 0.000000 0.000000 0.014576 0.000000 0.058865
#
#
# Mechanical properties :
#
#
# Convention : Reuss Voigt Hill
#
# Bulk Modulus (GPa) = 20.12626 26.33856 23.23241
# Shear Modulus (GPa) = 17.63907 22.04151 19.84029
#
# Velocity S-wave (km/s) = 3.06291 3.42387 3.24841
# Velocity P-wave (km/s) = 4.81797 5.44415 5.14060
#
# Compressibility (1/GPa) = 0.04968633
#
# Stress axis : x y z
#
# Youngs Moduli (GPa) = 59.86264 25.13378 78.82537
#
# Poissons Ratio (x) = 0.12457 0.16313
# Poissons Ratio (y) = 0.29669 0.21443
# Poissons Ratio (z) = 0.12389 0.06837
#
# Static dielectric constant tensor:
#      x y z
#    x 1.674360 0.000000 0.041160 
#    y 0.000000 1.717580 0.000000 
#    z 0.041160 0.000000 1.647990 
# 
# From -- ./inp_files/271055.got.cif
#   From: 2010.05.17/outbox.cif.g08.bks.cpg/sg15_136_cif.got.tgz:271055.got - 2010.06.03 18:47:42.
