data_PCOD9279342
_publ_section_title
;
Structure prediction by ZEFSAII (Michael W. Deem and Ramdas Pophale) SiO2 
 PCOD9279342
Probable space group: C 2/C
;
_chemical_formula_sum "Si O2"
_cell_formula_units_Z 56
_cell_length_a 26.382236
_cell_length_b 10.159365
_cell_length_c 18.818776
_cell_angle_alpha 90.000000
_cell_angle_beta 29.486246
_cell_angle_gamma 90.000000
_cell_volume 2482.698845
_symmetry_space_group_name_H-M "C 2/C"
_symmetry_group_IT_number 15
_symmetry_cell_setting 'monoclinic'
loop_
_space_group_symop_operation_xyz
x,y,z
-x,y,1/2-z
-x,-y,-z
x,-y,1/2+z
1/2+x,1/2+y,z
1/2-x,1/2+y,1/2-z
1/2-x,1/2-y,-z
1/2+x,1/2-y,1/2+z
loop_
_atom_site_type_symbol
_atom_site_label
_atom_site_fract_x
_atom_site_fract_y
_atom_site_fract_z
Si Si1 0.739115 0.176225 0.893207
Si Si2 0.004961 0.901729 0.614462
Si Si3 0.266731 0.424684 0.937624
Si Si4 0.058732 0.294182 0.919372
Si Si5 0.702882 0.328040 0.447175
Si Si6 0.206735 0.496641 0.292125
Si Si7 0.396573 0.675152 0.026405
O O1 0.846824 0.247775 0.746311
O O2 0.644620 0.277274 0.000042
O O3 0.744051 0.077466 0.952291
O O4 0.719707 0.081531 0.848948
O O5 0.037663 0.810229 0.508301
O O6 0.084223 0.866411 0.580168
O O7 0.886013 0.890824 0.777264
O O8 0.026196 0.053329 0.570263
O O9 0.207858 0.327915 0.955116
O O10 0.247312 0.387676 0.042554
O O11 0.101434 0.427298 0.902699
O O12 0.955467 0.287226 0.998520
O O13 0.760357 0.395594 0.310737
O O14 0.294137 0.612646 0.186504
#
# Coordination Sequence:
#
# PCOD9279342 Si02
#       7
#     8   8   8   8   8   8   8
#     4  11  21  36  61  90 120 157 201 250 309 363
#     4  11  20  38  65  88 120 156 209 251 306 374
#     4  11  23  40  67  87 120 169 202 257 316 371
#     4  11  20  35  59  92 117 157 201 253 311 358
#     4  10  23  42  60  92 122 159 210 254 309 381
#     4  10  22  37  58  87 126 154 199 261 308 360
#     4  10  21  35  57  91 118 154 202 247 305 368
#
# _framework density 22.556097999999999
#
# number of rings (size 3 to 8) (size 9 to 14) (size 15 to 20)
#    0.000    1.429    4.286    2.571    4.000    0.571 
#    2.571    6.429    0.000    0.000    0.000    0.000 
#    0.000    0.000    0.000    0.000    0.000    0.000 
#
# Total GULP energy -156491.637060 kJ/mol
# GULP energy per Si atom -5588.987038 kJ/mol
# Density = 2.250476 g / cm^3
# Si number density = 22.556098 Si / 1000 Ang^3
#
#
#
# Elastic Constant Matrix: (Units=GPa)
#
#
# Indices 1 2 3 4 5 6 
#
# 1 52.7196 -2.2488 4.5292 -0.0001 -12.1212 0.0000
# 2 -2.2488 55.3769 0.3167 0.0002 -2.2827 -0.0001
# 3 4.5292 0.3167 36.5871 0.0004 -14.9598 0.0000
# 4 -0.0001 0.0002 0.0004 23.2514 0.0000 -6.2889
# 5 -12.1212 -2.2827 -14.9598 0.0000 36.4863 0.0000
# 6 0.0000 -0.0001 0.0000 -6.2889 0.0000 41.1763
#
#
#
# Elastic Compliance Matrix: (Units=1/GPa)
#
#
# Indices 1 2 3 4 5 6 
#
# 1 0.020609 0.001126 0.000321 0.000000 0.007049 0.000000
# 2 0.001126 0.018170 0.000386 0.000000 0.001669 0.000000
# 3 0.000321 0.000386 0.032850 -0.000001 0.013600 0.000000
# 4 0.000000 0.000000 -0.000001 0.044861 0.000000 0.006852
# 5 0.007049 0.001669 0.013600 0.000000 0.035430 0.000000
# 6 0.000000 0.000000 0.000000 0.006852 0.000000 0.025332
#
#
# Mechanical properties :
#
#
# Convention : Reuss Voigt Hill
#
# Bulk Modulus (GPa) = 13.28123 16.65310 14.96716
# Shear Modulus (GPa) = 25.16537 29.65522 27.41029
#
# Velocity S-wave (km/s) = 3.34380 3.62986 3.48976
# Velocity P-wave (km/s) = 4.56168 4.99668 4.78412
#
# Compressibility (1/GPa) = 0.07529423
#
# Stress axis : x y z
#
# Youngs Moduli (GPa) = 48.52168 55.03465 30.44180
#
# Poissons Ratio (x) = -0.06195 -0.00977
# Poissons Ratio (y) = -0.05462 -0.01174
# Poissons Ratio (z) = -0.01558 -0.02123
#
# Static dielectric constant tensor:
#      x y z
#    x 1.845310 0.000000 -0.006600 
#    y 0.000000 1.921300 0.000000 
#    z -0.006600 0.000000 1.822040 
# 
# From -- ./inp_files/257377.got.cif
#   From: 2010.05.17/outbox.cif.g08.bks.cpg/sg15_129_cif.got.tgz:257377.got - 2010.06.03 18:47:42.
