data_PCOD9279789
_publ_section_title
;
Structure prediction by ZEFSAII (Michael W. Deem and Ramdas Pophale) SiO2 
 PCOD9279789
Probable space group: C 2/C
;
_chemical_formula_sum "Si O2"
_cell_formula_units_Z 60
_cell_length_a 15.402618
_cell_length_b 22.357740
_cell_length_c 11.473697
_cell_angle_alpha 90.000000
_cell_angle_beta 57.289269
_cell_angle_gamma 90.000000
_cell_volume 3324.553129
_symmetry_space_group_name_H-M "C 2/C"
_symmetry_group_IT_number 15
_symmetry_cell_setting 'monoclinic'
loop_
_space_group_symop_operation_xyz
x,y,z
-x,y,1/2-z
-x,-y,-z
x,-y,1/2+z
1/2+x,1/2+y,z
1/2-x,1/2+y,1/2-z
1/2-x,1/2-y,-z
1/2+x,1/2-y,1/2+z
loop_
_atom_site_type_symbol
_atom_site_label
_atom_site_fract_x
_atom_site_fract_y
_atom_site_fract_z
Si Si1 0.214230 0.831982 0.718813
Si Si2 0.894394 0.067767 0.613242
Si Si3 0.564580 0.789385 0.939243
Si Si4 0.361889 0.564672 0.074628
Si Si5 0.000000 0.225168 0.750000
Si Si6 0.691036 0.362589 0.103470
Si Si7 0.841134 0.296902 0.161279
Si Si8 0.824265 0.176918 0.525375
O O1 0.338075 0.833012 0.643327
O O2 0.159734 0.891919 0.801071
O O3 0.172959 0.775030 0.822487
O O4 0.193803 0.819421 0.598032
O O5 0.843889 0.095553 0.764518
O O6 0.877675 0.115098 0.521995
O O7 0.016873 0.064353 0.546374
O O8 0.843908 0.004399 0.618140
O O9 0.532389 0.764464 0.836534
O O10 0.606787 0.732185 0.980414
O O11 0.460980 0.813049 0.073575
O O12 0.297359 0.595438 0.017250
O O13 0.096977 0.183119 0.648714
O O14 0.785691 0.324246 0.087061
O O15 0.779102 0.319189 0.320453
#
# Coordination Sequence:
#
# PCOD9279789 Si02
#       8
#     8   8   8   8   4   8   8   8
#     4  11  23  36  56  90 119 148 193 241 282 347
#     4  10  21  38  55  83 111 154 193 231 286 343
#     4  11  22  35  57  89 116 155 191 235 287 349
#     4  11  23  34  58  85 114 153 191 235 291 336
#     4  12  18  34  58  82 124 144 186 242 278 354
#     4  11  20  38  57  84 120 150 189 237 291 347
#     4  10  21  36  59  82 117 158 181 231 300 341
#     4  10  21  40  55  83 121 150 192 235 285 344
#
# _framework density 18.047537999999999
#
# number of rings (size 3 to 8) (size 9 to 14) (size 15 to 20)
#    0.000    1.333    5.333    3.200    3.733    4.800 
#    0.000    0.000    0.000    3.200    6.933    0.000 
#    0.000    0.000    0.000    0.000    0.000    0.000 
#
# Total GULP energy -167510.611306 kJ/mol
# GULP energy per Si atom -5583.687044 kJ/mol
# Density = 1.800646 g / cm^3
# Si number density = 18.047538 Si / 1000 Ang^3
#
#
#
# Elastic Constant Matrix: (Units=GPa)
#
#
# Indices 1 2 3 4 5 6 
#
# 1 60.7467 11.4805 36.1803 0.0000 20.6233 0.0000
# 2 11.4805 64.9492 6.7834 0.0000 12.8135 0.0000
# 3 36.1803 6.7834 49.5886 0.0000 14.4216 0.0000
# 4 0.0000 0.0000 0.0000 9.9005 0.0000 3.2736
# 5 20.6233 12.8135 14.4216 0.0000 35.3818 0.0000
# 6 0.0000 0.0000 0.0000 3.2736 0.0000 9.0327
#
#
#
# Elastic Compliance Matrix: (Units=1/GPa)
#
#
# Indices 1 2 3 4 5 6 
#
# 1 0.032335 -0.001621 -0.020488 0.000000 -0.009909 0.000000
# 2 -0.001621 0.016678 0.000434 0.000000 -0.005272 0.000000
# 3 -0.020488 0.000434 0.035881 0.000000 -0.002840 0.000000
# 4 0.000000 0.000000 0.000000 0.114758 0.000000 -0.041591
# 5 -0.009909 -0.005272 -0.002840 0.000000 0.037106 0.000000
# 6 0.000000 0.000000 0.000000 -0.041591 0.000000 0.125783
#
#
# Mechanical properties :
#
#
# Convention : Reuss Voigt Hill
#
# Bulk Modulus (GPa) = 24.07058 31.57477 27.82267
# Shear Modulus (GPa) = 11.91218 18.91899 15.41559
#
# Velocity S-wave (km/s) = 2.57192 3.24124 2.92578
# Velocity P-wave (km/s) = 4.71020 5.61612 5.18299
#
# Compressibility (1/GPa) = 0.04154449
#
# Stress axis : x y z
#
# Youngs Moduli (GPa) = 30.92609 59.95954 27.86985
#
# Poissons Ratio (x) = 0.09718 0.57101
# Poissons Ratio (y) = 0.05012 -0.01211
# Poissons Ratio (z) = 0.63363 -0.02604
#
# Static dielectric constant tensor:
#      x y z
#    x 1.626470 0.000000 0.002970 
#    y 0.000000 1.617020 0.000000 
#    z 0.002970 0.000000 1.636290 
# 
# From -- ./inp_files/99748.got.cif
#   From: 2010.05.17/outbox.cif.g08.bks.cpg/sg15_50_cif.got.tgz:99748.got - 2010.06.03 18:47:42.
