data_PCOD9279851
_publ_section_title
;
Structure prediction by ZEFSAII (Michael W. Deem and Ramdas Pophale) SiO2 
 PCOD9279851
Probable space group: C 2/C
;
_chemical_formula_sum "Si O2"
_cell_formula_units_Z 48
_cell_length_a 22.149787
_cell_length_b 22.357659
_cell_length_c 13.848973
_cell_angle_alpha 90.000000
_cell_angle_beta 160.567357
_cell_angle_gamma 90.000000
_cell_volume 2281.729929
_symmetry_space_group_name_H-M "C 2/C"
_symmetry_group_IT_number 15
_symmetry_cell_setting 'monoclinic'
loop_
_space_group_symop_operation_xyz
x,y,z
-x,y,1/2-z
-x,-y,-z
x,-y,1/2+z
1/2+x,1/2+y,z
1/2-x,1/2+y,1/2-z
1/2-x,1/2-y,-z
1/2+x,1/2-y,1/2+z
loop_
_atom_site_type_symbol
_atom_site_label
_atom_site_fract_x
_atom_site_fract_y
_atom_site_fract_z
Si Si1 0.612197 0.263574 0.705261
Si Si2 0.157854 0.814529 0.070150
Si Si3 0.682088 0.083293 0.563437
Si Si4 0.289565 0.113323 0.416178
Si Si5 0.748239 0.517133 0.205354
Si Si6 0.170030 0.002048 0.370693
O O1 0.661049 0.212239 0.703714
O O2 0.420026 0.268794 0.467361
O O3 0.750000 0.250000 0.000000
O O4 0.667769 0.328219 0.746927
O O5 0.202914 0.874643 0.194062
O O6 0.000000 0.822753 0.750000
O O7 0.791316 0.054644 0.639564
O O8 0.622529 0.026280 0.538258
O O9 0.500000 0.113817 0.250000
O O10 0.500000 0.129495 0.750000
O O11 0.273464 0.083064 0.286503
O O12 0.231341 0.061781 0.405900
O O13 0.544224 0.497923 0.929283
O O14 0.763972 0.506523 0.116020
#
# Coordination Sequence:
#
# PCOD9279851 Si02
#       6
#     8   8   8   8   8   8
#     4  10  21  39  63  93 116 155 214 260 301 353
#     4  10  22  41  67  90 120 160 210 257 306 361
#     4  11  23  39  60  92 127 158 201 251 308 373
#     4  11  21  35  57  87 124 151 198 260 302 357
#     4  10  21  36  60  87 120 164 201 245 307 365
#     4  10  21  37  60  89 120 162 205 245 306 366
#
# _framework density 21.036670000000001
#
# number of rings (size 3 to 8) (size 9 to 14) (size 15 to 20)
#    0.000    1.667    0.000    7.500    7.000    2.667 
#    3.000    0.833    3.667    0.000    0.000    0.000 
#    0.000    0.000    0.000    0.000    0.000    0.000 
#
# Total GULP energy -134077.738139 kJ/mol
# GULP energy per Si atom -5586.572422 kJ/mol
# Density = 2.098879 g / cm^3
# Si number density = 21.036670 Si / 1000 Ang^3
#
#
#
# Elastic Constant Matrix: (Units=GPa)
#
#
# Indices 1 2 3 4 5 6 
#
# 1 119.0315 30.2081 22.2327 0.0000 -9.0283 0.0000
# 2 30.2081 61.1427 -2.4408 0.0000 -13.9962 0.0000
# 3 22.2327 -2.4408 46.6711 0.0000 -3.6428 0.0000
# 4 0.0000 0.0000 0.0000 19.2503 0.0000 -11.9296
# 5 -9.0283 -13.9962 -3.6428 0.0000 35.4083 0.0000
# 6 0.0000 0.0000 0.0000 -11.9296 0.0000 25.8585
#
#
#
# Elastic Compliance Matrix: (Units=1/GPa)
#
#
# Indices 1 2 3 4 5 6 
#
# 1 0.010833 -0.005570 -0.005452 0.000000 0.000000 0.000000
# 2 -0.005570 0.020952 0.004319 0.000000 0.007306 0.000000
# 3 -0.005452 0.004319 0.024471 0.000000 0.002835 0.000000
# 4 0.000000 0.000000 0.000000 0.072745 0.000000 0.033560
# 5 0.000000 0.007306 0.002835 0.000000 0.031421 0.000000
# 6 0.000000 0.000000 0.000000 0.033560 0.000000 0.054155
#
#
# Mechanical properties :
#
#
# Convention : Reuss Voigt Hill
#
# Bulk Modulus (GPa) = 23.33678 36.31615 29.82646
# Shear Modulus (GPa) = 20.63858 27.89309 24.26583
#
# Velocity S-wave (km/s) = 3.13561 3.64528 3.40001
# Velocity P-wave (km/s) = 4.92208 5.91761 5.44266
#
# Compressibility (1/GPa) = 0.04285082
#
# Stress axis : x y z
#
# Youngs Moduli (GPa) = 92.31129 47.72853 40.86513
#
# Poissons Ratio (x) = 0.26584 0.22279
# Poissons Ratio (y) = 0.51416 -0.17651
# Poissons Ratio (z) = 0.50326 -0.20615
#
# Static dielectric constant tensor:
#      x y z
#    x 1.778960 0.000000 0.018340 
#    y 0.000000 1.759450 0.000000 
#    z 0.018340 0.000000 1.794530 
# 
# From -- ./inp_files/174552.got.cif
#   From: 2010.05.17/outbox.cif.g08.bks.cpg/sg15_88_cif.got.tgz:174552.got - 2010.06.03 18:47:42.
