data_PCOD9279551
_publ_section_title
;
Structure prediction by ZEFSAII (Michael W. Deem and Ramdas Pophale) SiO2 
 PCOD9279551
Probable space group: C 2/C
;
_chemical_formula_sum "Si O2"
_cell_formula_units_Z 60
_cell_length_a 25.355588
_cell_length_b 22.042708
_cell_length_c 8.610700
_cell_angle_alpha 90.000000
_cell_angle_beta 132.756888
_cell_angle_gamma 90.000000
_cell_volume 3533.585996
_symmetry_space_group_name_H-M "C 2/C"
_symmetry_group_IT_number 15
_symmetry_cell_setting 'monoclinic'
loop_
_space_group_symop_operation_xyz
x,y,z
-x,y,1/2-z
-x,-y,-z
x,-y,1/2+z
1/2+x,1/2+y,z
1/2-x,1/2+y,1/2-z
1/2-x,1/2-y,-z
1/2+x,1/2-y,1/2+z
loop_
_atom_site_type_symbol
_atom_site_label
_atom_site_fract_x
_atom_site_fract_y
_atom_site_fract_z
Si Si1 0.356454 0.252482 0.425731
Si Si2 0.291156 0.629555 0.619594
Si Si3 0.861418 0.321910 0.635069
Si Si4 0.296037 0.704980 0.327094
Si Si5 0.398865 0.466512 0.444862
Si Si6 0.924583 0.789166 0.863370
Si Si7 0.047173 0.073570 0.108012
Si Si8 0.500000 0.196887 0.250000
O O1 0.329780 0.315812 0.294394
O O2 0.380322 0.206100 0.340252
O O3 0.286814 0.221078 0.365037
O O4 0.415287 0.265953 0.671027
O O5 0.205890 0.632878 0.484510
O O6 0.300884 0.649827 0.459586
O O7 0.328211 0.566793 0.741113
O O8 0.828380 0.263573 0.480202
O O9 0.933412 0.339989 0.688999
O O10 0.345045 0.699051 0.275165
O O11 0.408775 0.538567 0.438665
O O12 0.415049 0.444076 0.651978
O O13 0.464655 0.445460 0.466292
O O14 0.958027 0.855340 0.930160
O O15 0.967520 0.741705 0.054066
#
# Coordination Sequence:
#
# PCOD9279551 Si02
#       8
#     8   8   8   8   8   8   8   4
#     4   9  16  30  47  66  90 123 164 186 228 290
#     4   9  16  32  52  61  89 125 163 194 242 275
#     4   8  17  31  46  70  91 124 152 193 234 294
#     4   8  17  28  45  69  91 121 153 194 232 278
#     4  10  21  36  45  65  89 128 163 208 227 274
#     4  11  20  29  45  68  94 132 154 199 229 283
#     4  10  23  32  47  64  91 124 169 197 240 262
#     4  10  22  30  44  72 104 120 158 194 242 288
#
# _framework density 16.979918000000001
#
# number of rings (size 3 to 8) (size 9 to 14) (size 15 to 20)
#    0.000    2.667    1.333    2.000    7.467    1.600 
#    0.000    0.000    0.000    0.000    0.000    0.000 
#    0.000    1.067    0.000    0.000    0.000    0.267 
#
# Total GULP energy -167125.208476 kJ/mol
# GULP energy per Si atom -5570.840283 kJ/mol
# Density = 1.694127 g / cm^3
# Si number density = 16.979918 Si / 1000 Ang^3
#
#
#
# Elastic Constant Matrix: (Units=GPa)
#
#
# Indices 1 2 3 4 5 6 
#
# 1 76.9471 6.8642 15.5972 0.0000 16.0028 0.0000
# 2 6.8642 19.6481 14.7343 0.0000 5.2253 0.0000
# 3 15.5972 14.7343 47.1144 0.0000 1.1239 0.0000
# 4 0.0000 0.0000 0.0000 17.9441 0.0000 1.6678
# 5 16.0028 5.2253 1.1239 0.0000 19.2240 0.0000
# 6 0.0000 0.0000 0.0000 1.6678 0.0000 12.1234
#
#
#
# Elastic Compliance Matrix: (Units=1/GPa)
#
#
# Indices 1 2 3 4 5 6 
#
# 1 0.017015 0.002443 -0.006051 0.000000 -0.014474 0.000000
# 2 0.002443 0.072800 -0.023087 0.000000 -0.020472 0.000000
# 3 -0.006051 -0.023087 0.030221 0.000000 0.009546 0.000000
# 4 0.000000 0.000000 0.000000 0.056450 0.000000 -0.007766
# 5 -0.014474 -0.020472 0.009546 0.000000 0.069073 0.000000
# 6 0.000000 0.000000 0.000000 -0.007766 0.000000 0.083554
#
#
# Mechanical properties :
#
#
# Convention : Reuss Voigt Hill
#
# Bulk Modulus (GPa) = 15.00513 24.23344 19.61928
# Shear Modulus (GPa) = 12.35425 16.95923 14.65674
#
# Velocity S-wave (km/s) = 2.70030 3.16378 2.94118
# Velocity P-wave (km/s) = 4.31026 5.25821 4.80766
#
# Compressibility (1/GPa) = 0.06664387
#
# Stress axis : x y z
#
# Youngs Moduli (GPa) = 58.77230 13.73628 33.08985
#
# Poissons Ratio (x) = -0.03356 0.20024
# Poissons Ratio (y) = -0.14359 0.76396
# Poissons Ratio (z) = 0.35566 0.31713
#
# Static dielectric constant tensor:
#      x y z
#    x 1.624790 0.000000 -0.001590 
#    y 0.000000 1.579610 0.000000 
#    z -0.001590 0.000000 1.591620 
# 
# From -- ./inp_files/67661.got.cif
#   From: 2010.05.17/outbox.cif.g08.bks.cpg/sg15_34_cif.got.tgz:67661.got - 2010.06.03 18:47:42.
