data_PCOD9279385
_publ_section_title
;
Structure prediction by ZEFSAII (Michael W. Deem and Ramdas Pophale) SiO2 
 PCOD9279385
Probable space group: C 2/C
;
_chemical_formula_sum "Si O2"
_cell_formula_units_Z 48
_cell_length_a 5.550716
_cell_length_b 17.314497
_cell_length_c 22.395045
_cell_angle_alpha 90.000000
_cell_angle_beta 51.710372
_cell_angle_gamma 90.000000
_cell_volume 1689.346833
_symmetry_space_group_name_H-M "C 2/C"
_symmetry_group_IT_number 15
_symmetry_cell_setting 'monoclinic'
loop_
_space_group_symop_operation_xyz
x,y,z
-x,y,1/2-z
-x,-y,-z
x,-y,1/2+z
1/2+x,1/2+y,z
1/2-x,1/2+y,1/2-z
1/2-x,1/2-y,-z
1/2+x,1/2-y,1/2+z
loop_
_atom_site_type_symbol
_atom_site_label
_atom_site_fract_x
_atom_site_fract_y
_atom_site_fract_z
Si Si1 0.519178 0.304482 0.436003
Si Si2 0.189539 0.212803 0.775577
Si Si3 0.449191 0.945518 0.063997
Si Si4 0.311645 0.089060 0.424859
Si Si5 0.185940 0.839060 0.575141
Si Si6 0.817422 0.962803 0.224423
O O1 0.522343 0.300110 0.364250
O O2 0.809716 0.252812 0.414053
O O3 0.902362 0.367915 0.485996
O O4 0.250000 0.250000 0.500000
O O5 0.500000 0.252914 0.750000
O O6 0.276410 0.125000 0.739436
O O7 0.000000 0.247449 0.750000
O O8 0.093592 0.949890 0.135750
O O9 0.629980 0.997188 0.085947
O O10 0.082340 0.882085 0.014004
O O11 0.500000 0.000000 0.000000
O O12 0.141144 0.125000 0.393543
O O13 0.639956 0.125000 0.394018
O O14 0.500000 0.997449 0.250000
O O15 0.000000 0.002913 0.250000
#
# Coordination Sequence:
#
# PCOD9279385 Si02
#       6
#     8   8   8   8   8   8
#     4  10  21  39  64  95 130 170 223 282 336 399
#     4  10  22  38  58  88 129 172 214 271 346 415
#     4  10  21  39  64  95 130 170 223 282 336 399
#     4  10  21  35  58  93 130 167 215 278 339 394
#     4  10  21  35  58  93 130 167 215 278 339 394
#     4  10  22  38  58  88 129 172 214 271 346 415
#
# _framework density 28.413347000000002
#
# number of rings (size 3 to 8) (size 9 to 14) (size 15 to 20)
#    0.000    2.000    0.000    4.000    0.000   14.667 
#    0.000    0.000    0.000    9.000    0.000   30.333 
#    0.000    2.667    0.000    0.000    0.000    0.000 
#
# Total GULP energy -133873.320886 kJ/mol
# GULP energy per Si atom -5578.055037 kJ/mol
# Density = 2.834868 g / cm^3
# Si number density = 28.413347 Si / 1000 Ang^3
#
#
#
# Elastic Constant Matrix: (Units=GPa)
#
#
# Indices 1 2 3 4 5 6 
#
# 1 284.4207 37.2748 49.0503 0.0000 -2.0647 0.0000
# 2 37.2748 101.6298 13.7919 0.0000 -0.2682 0.0000
# 3 49.0503 13.7919 137.6489 0.0000 0.3887 0.0000
# 4 0.0000 0.0000 0.0000 31.0575 0.0000 -0.1933
# 5 -2.0647 -0.2682 0.3887 0.0000 27.3083 0.0000
# 6 0.0000 0.0000 0.0000 -0.1933 0.0000 47.9878
#
#
#
# Elastic Compliance Matrix: (Units=1/GPa)
#
#
# Indices 1 2 3 4 5 6 
#
# 1 0.003901 -0.001258 -0.001265 0.000000 0.000301 0.000000
# 2 -0.001258 0.010382 -0.000592 0.000000 0.000015 0.000000
# 3 -0.001265 -0.000592 0.007776 0.000000 -0.000212 0.000000
# 4 0.000000 0.000000 0.000000 0.032199 0.000000 0.000130
# 5 0.000301 0.000015 -0.000212 0.000000 0.036645 0.000000
# 6 0.000000 0.000000 0.000000 0.000130 0.000000 0.020839
#
#
# Mechanical properties :
#
#
# Convention : Reuss Voigt Hill
#
# Bulk Modulus (GPa) = 63.17934 80.43706 71.80820
# Shear Modulus (GPa) = 40.56878 49.50955 45.03916
#
# Velocity S-wave (km/s) = 3.78273 4.17882 3.98570
# Velocity P-wave (km/s) = 6.43139 7.18711 6.81973
#
# Compressibility (1/GPa) = 0.01582796
#
# Stress axis : x y z
#
# Youngs Moduli (GPa) = 256.33394 96.32497 128.60902
#
# Poissons Ratio (x) = 0.12121 0.16268
# Poissons Ratio (y) = 0.32257 0.07611
# Poissons Ratio (z) = 0.32424 0.05701
#
# Static dielectric constant tensor:
#      x y z
#    x 2.494160 0.000000 -0.002380 
#    y 0.000000 2.340220 0.000000 
#    z -0.002380 0.000000 2.285430 
# 
# From -- ./inp_files/261632.got.cif
#   From: 2010.05.17/outbox.cif.g08.bks.cpg/sg15_131_cif.got.tgz:261632.got - 2010.06.03 18:47:42.
