data_PCOD9279225
_publ_section_title
;
Structure prediction by ZEFSAII (Michael W. Deem and Ramdas Pophale) SiO2 
 PCOD9279225
Probable space group: C 2/C
;
_chemical_formula_sum "Si O2"
_cell_formula_units_Z 52
_cell_length_a 24.189761
_cell_length_b 7.425748
_cell_length_c 11.501523
_cell_angle_alpha 90.000000
_cell_angle_beta 69.181974
_cell_angle_gamma 90.000000
_cell_volume 1931.104793
_symmetry_space_group_name_H-M "C 2/C"
_symmetry_group_IT_number 15
_symmetry_cell_setting 'monoclinic'
loop_
_space_group_symop_operation_xyz
x,y,z
-x,y,1/2-z
-x,-y,-z
x,-y,1/2+z
1/2+x,1/2+y,z
1/2-x,1/2+y,1/2-z
1/2-x,1/2-y,-z
1/2+x,1/2-y,1/2+z
loop_
_atom_site_type_symbol
_atom_site_label
_atom_site_fract_x
_atom_site_fract_y
_atom_site_fract_z
Si Si1 0.500000 0.090731 0.750000
Si Si2 0.523125 0.705766 0.992676
Si Si3 0.860266 0.871249 0.010090
Si Si4 0.713694 0.131995 0.940116
Si Si5 0.906838 0.736323 0.500121
Si Si6 0.750507 0.541712 0.280013
Si Si7 0.126891 0.609832 0.718630
O O1 0.485765 0.218699 0.871379
O O2 0.564569 0.009685 0.733822
O O3 0.476469 0.806644 0.942899
O O4 0.500000 0.500000 0.000000
O O5 0.593887 0.714025 0.929146
O O6 0.799228 0.924639 0.116468
O O7 0.890710 0.067015 0.962057
O O8 0.857838 0.750650 0.896489
O O9 0.644914 0.111931 0.012818
O O10 0.725292 0.258691 0.819866
O O11 0.744085 0.960929 0.864506
O O12 0.750000 0.250000 0.000000
O O13 0.892587 0.720598 0.649315
O O14 0.815434 0.509361 0.289290
#
# Coordination Sequence:
#
# PCOD9279225 Si02
#       7
#     4   8   8   8   8   8   8
#     4   8  14  24  42  64  92 132 176 210 250 308
#     4   8  13  24  40  64  95 126 162 207 255 301
#     4   9  16  25  45  72  98 128 167 214 258 303
#     4  10  22  38  56  78 107 139 173 217 262 308
#     4   8  16  28  44  67  98 133 168 207 256 309
#     4  10  21  35  53  77 103 135 173 215 261 313
#     4   9  16  28  45  69  99 136 176 215 258 309
#
# _framework density 26.927589000000001
#
# number of rings (size 3 to 8) (size 9 to 14) (size 15 to 20)
#    0.000    3.077    0.000    0.462    0.000    8.615 
#    0.000    1.538    0.000    1.846    0.000    8.615 
#    0.000    0.000    0.000    0.000    0.000    0.000 
#
# Total GULP energy -145048.760058 kJ/mol
# GULP energy per Si atom -5578.798464 kJ/mol
# Density = 2.686630 g / cm^3
# Si number density = 26.927589 Si / 1000 Ang^3
#
#
#
# Elastic Constant Matrix: (Units=GPa)
#
#
# Indices 1 2 3 4 5 6 
#
# 1 196.0537 12.2990 36.8448 0.0000 -16.4310 0.0000
# 2 12.2990 51.1420 13.8579 0.0000 -4.8487 0.0000
# 3 36.8448 13.8579 55.5789 0.0000 -16.4088 0.0000
# 4 0.0000 0.0000 0.0000 37.1041 0.0000 -7.2362
# 5 -16.4310 -4.8487 -16.4088 0.0000 51.6053 0.0000
# 6 0.0000 0.0000 0.0000 -7.2362 0.0000 45.1813
#
#
#
# Elastic Compliance Matrix: (Units=1/GPa)
#
#
# Indices 1 2 3 4 5 6 
#
# 1 0.005856 -0.000371 -0.003586 0.000000 0.000689 0.000000
# 2 -0.000371 0.020999 -0.004902 0.000000 0.000296 0.000000
# 3 -0.003586 -0.004902 0.023307 0.000000 0.005808 0.000000
# 4 0.000000 0.000000 0.000000 0.027820 0.000000 0.004456
# 5 0.000689 0.000296 0.005808 0.000000 0.021472 0.000000
# 6 0.000000 0.000000 0.000000 0.004456 0.000000 0.022847
#
#
# Mechanical properties :
#
#
# Convention : Reuss Voigt Hill
#
# Bulk Modulus (GPa) = 30.82351 47.64201 39.23276
# Shear Modulus (GPa) = 33.14920 42.76301 37.95611
#
# Velocity S-wave (km/s) = 3.51244 3.98939 3.75849
# Velocity P-wave (km/s) = 5.28406 6.24110 5.78241
#
# Compressibility (1/GPa) = 0.03244277
#
# Stress axis : x y z
#
# Youngs Moduli (GPa) = 170.77719 47.62107 42.90607
#
# Poissons Ratio (x) = 0.01768 0.15385
# Poissons Ratio (y) = 0.06339 0.21034
# Poissons Ratio (z) = 0.61236 0.23346
#
# Static dielectric constant tensor:
#      x y z
#    x 2.135640 0.000000 -0.285810 
#    y 0.000000 2.330660 0.000000 
#    z -0.285810 0.000000 -0.051840 
# 
# From -- ./inp_files/117140.got.cif
#   From: 2010.05.17/outbox.cif.g08.bks.cpg/sg15_59_cif.got.tgz:117140.got - 2010.06.03 18:47:42.
