data_PCOD9279841
_publ_section_title
;
Structure prediction by ZEFSAII (Michael W. Deem and Ramdas Pophale) SiO2 
 PCOD9279841
Probable space group: C 2/C
;
_chemical_formula_sum "Si O2"
_cell_formula_units_Z 56
_cell_length_a 25.508227
_cell_length_b 5.831521
_cell_length_c 24.344684
_cell_angle_alpha 90.000000
_cell_angle_beta 44.412355
_cell_angle_gamma 90.000000
_cell_volume 2534.258950
_symmetry_space_group_name_H-M "C 2/C"
_symmetry_group_IT_number 15
_symmetry_cell_setting 'monoclinic'
loop_
_space_group_symop_operation_xyz
x,y,z
-x,y,1/2-z
-x,-y,-z
x,-y,1/2+z
1/2+x,1/2+y,z
1/2-x,1/2+y,1/2-z
1/2-x,1/2-y,-z
1/2+x,1/2-y,1/2+z
loop_
_atom_site_type_symbol
_atom_site_label
_atom_site_fract_x
_atom_site_fract_y
_atom_site_fract_z
Si Si1 0.255566 0.494191 0.774907
Si Si2 0.418331 0.292973 0.818312
Si Si3 0.681923 0.965543 0.670243
Si Si4 0.424148 0.516705 0.934050
Si Si5 0.714041 0.845727 0.471859
Si Si6 0.591338 0.394219 0.282580
Si Si7 0.681234 0.776779 0.923713
O O1 0.249837 0.758398 0.757166
O O2 0.339462 0.487695 0.738103
O O3 0.188295 0.460337 0.870011
O O4 0.500000 0.179835 0.750000
O O5 0.412487 0.396032 0.883236
O O6 0.416134 0.488127 0.772320
O O7 0.355442 0.109368 0.850562
O O8 0.724755 0.742474 0.617197
O O9 0.615637 0.871511 0.757584
O O10 0.750227 0.109911 0.642823
O O11 0.511237 0.579293 0.871259
O O12 0.366631 0.729408 0.976338
O O13 0.394315 0.356583 0.005893
O O14 0.750000 0.750000 0.500000
O O15 0.704077 0.109450 0.464942
#
# Coordination Sequence:
#
# PCOD9279841 Si02
#       7
#     8   8   8   8   8   8   8
#     4  12  27  49  79 102 130 188 259 311 365 418
#     4  10  21  36  60 100 145 184 224 271 344 435
#     4  11  19  35  63  88 137 178 232 269 336 411
#     4  10  24  39  64 103 150 180 223 280 368 429
#     4  11  21  35  61  97 138 183 220 268 349 431
#     4  11  23  43  66 100 139 185 236 297 347 427
#     4  11  23  43  64 100 135 177 232 297 347 429
#
# _framework density 22.097189
#
# number of rings (size 3 to 8) (size 9 to 14) (size 15 to 20)
#    0.000    1.143    2.857    3.429    2.000    7.429 
#    0.000    1.429    0.000    0.000    0.000    0.000 
#    0.000    0.000    0.000    0.000    0.000    0.000 
#
# Total GULP energy -156175.680025 kJ/mol
# GULP energy per Si atom -5577.702858 kJ/mol
# Density = 2.204689 g / cm^3
# Si number density = 22.097189 Si / 1000 Ang^3
#
#
#
# Elastic Constant Matrix: (Units=GPa)
#
#
# Indices 1 2 3 4 5 6 
#
# 1 46.8249 13.1389 46.6532 0.0735 -4.0316 0.0059
# 2 13.1389 72.5262 55.3447 0.0171 -1.4108 0.0287
# 3 46.6532 55.3447 143.1985 0.0497 -28.2797 0.0257
# 4 0.0735 0.0171 0.0497 35.9252 -0.0541 0.1417
# 5 -4.0316 -1.4108 -28.2797 -0.0541 31.7096 -0.0030
# 6 0.0059 0.0287 0.0257 0.1417 -0.0030 24.9966
#
#
#
# Elastic Compliance Matrix: (Units=1/GPa)
#
#
# Indices 1 2 3 4 5 6 
#
# 1 0.033746 0.004800 -0.014517 -0.000064 -0.008442 0.000001
# 2 0.004800 0.021661 -0.011682 -0.000017 -0.008845 -0.000015
# 3 -0.014517 -0.011682 0.019130 0.000031 0.014695 -0.000001
# 4 -0.000064 -0.000017 0.000031 0.027836 0.000066 -0.000158
# 5 -0.008442 -0.008845 0.014695 0.000066 0.043175 0.000002
# 6 0.000001 -0.000015 -0.000001 -0.000158 0.000002 0.040006
#
#
# Mechanical properties :
#
#
# Convention : Reuss Voigt Hill
#
# Bulk Modulus (GPa) = 31.50683 54.75814 43.13248
# Shear Modulus (GPa) = 20.92639 28.35380 24.64010
#
# Velocity S-wave (km/s) = 3.08070 3.58598 3.34290
# Velocity P-wave (km/s) = 5.19072 6.47920 5.87042
#
# Compressibility (1/GPa) = 0.03173915
#
# Stress axis : x y z
#
# Youngs Moduli (GPa) = 29.63332 46.16518 52.27406
#
# Poissons Ratio (x) = -0.22159 0.75884
# Poissons Ratio (y) = -0.14224 0.61069
# Poissons Ratio (z) = 0.43017 0.53932
#
# Static dielectric constant tensor:
#      x y z
#    x 1.868970 -0.000080 0.070170 
#    y -0.000080 1.886660 0.000000 
#    z 0.070170 0.000000 1.865650 
# 
# From -- ./inp_files/302886.got.cif
#   From: 2010.05.17/outbox.cif.g08.bks.cpg/sg15_152_cif.got.tgz:302886.got - 2010.06.03 18:47:42.
