data_PCOD9279212
_publ_section_title
;
Structure prediction by ZEFSAII (Michael W. Deem and Ramdas Pophale) SiO2 
 PCOD9279212
Probable space group: C 2/C
;
_chemical_formula_sum "Si O2"
_cell_formula_units_Z 60
_cell_length_a 19.132635
_cell_length_b 16.132877
_cell_length_c 9.314232
_cell_angle_alpha 90.000000
_cell_angle_beta 106.722948
_cell_angle_gamma 90.000000
_cell_volume 2753.382003
_symmetry_space_group_name_H-M "C 2/C"
_symmetry_group_IT_number 15
_symmetry_cell_setting 'monoclinic'
loop_
_space_group_symop_operation_xyz
x,y,z
-x,y,1/2-z
-x,-y,-z
x,-y,1/2+z
1/2+x,1/2+y,z
1/2-x,1/2+y,1/2-z
1/2-x,1/2-y,-z
1/2+x,1/2-y,1/2+z
loop_
_atom_site_type_symbol
_atom_site_label
_atom_site_fract_x
_atom_site_fract_y
_atom_site_fract_z
Si Si1 0.699696 0.532517 0.510572
Si Si2 0.651451 0.981040 0.251337
Si Si3 0.315220 0.186161 0.887810
Si Si4 0.886030 0.284372 0.735565
Si Si5 0.655301 0.389125 0.286864
Si Si6 0.500000 0.925236 0.250000
Si Si7 0.744589 0.308657 0.856358
Si Si8 0.448734 0.082131 0.446965
O O1 0.777145 0.496932 0.617967
O O2 0.653262 0.462311 0.402368
O O3 0.663812 0.572607 0.631954
O O4 0.719902 0.603410 0.406208
O O5 0.657756 0.888339 0.197089
O O6 0.572740 0.982145 0.281591
O O7 0.632023 0.041447 0.108646
O O8 0.231779 0.158256 0.868785
O O9 0.312240 0.269311 0.791455
O O10 0.358652 0.191965 0.060690
O O11 0.901719 0.186225 0.745693
O O12 0.820513 0.299969 0.813561
O O13 0.946485 0.348442 0.825049
O O14 0.523190 0.869713 0.396773
O O15 0.750000 0.250000 0.000000
O O16 0.500000 0.000000 0.500000
#
# Coordination Sequence:
#
# PCOD9279212 Si02
#       8
#     8   8   8   8   8   4   8   8
#     4  11  22  33  56  81 121 158 216 247 315 370
#     4  10  21  35  51  80 112 166 204 253 299 369
#     4  10  22  33  54  80 116 159 213 243 311 361
#     4  11  22  38  56  78 120 162 208 261 316 369
#     4  10  22  34  52  84 112 163 206 257 302 380
#     4  10  22  36  52  78 110 154 208 246 304 354
#     4  11  19  36  51  82 114 162 211 252 291 381
#     4  10  23  36  57  79 115 159 203 251 307 376
#
# _framework density 21.791384000000001
#
# number of rings (size 3 to 8) (size 9 to 14) (size 15 to 20)
#    0.000    1.600    4.000    3.200   14.933    0.000 
#    0.000    0.000    0.000    0.000    0.000    0.000 
#    0.000    9.600    0.533    0.533    0.000    0.000 
#
# Total GULP energy -167130.590930 kJ/mol
# GULP energy per Si atom -5571.019698 kJ/mol
# Density = 2.174179 g / cm^3
# Si number density = 21.791384 Si / 1000 Ang^3
#
#
#
# Elastic Constant Matrix: (Units=GPa)
#
#
# Indices 1 2 3 4 5 6 
#
# 1 35.7743 17.0419 18.8048 0.0000 -6.9991 0.0000
# 2 17.0419 128.3228 66.0296 0.0000 11.0802 0.0000
# 3 18.8048 66.0296 179.1129 0.0000 -0.0489 0.0000
# 4 0.0000 0.0000 0.0000 25.8451 0.0000 -2.2102
# 5 -6.9991 11.0802 -0.0489 0.0000 15.4624 0.0000
# 6 0.0000 0.0000 0.0000 -2.2102 0.0000 4.5258
#
#
#
# Elastic Compliance Matrix: (Units=1/GPa)
#
#
# Indices 1 2 3 4 5 6 
#
# 1 0.035395 -0.005577 -0.001655 0.000000 0.020013 0.000000
# 2 -0.005577 0.011294 -0.003581 0.000000 -0.010629 0.000000
# 3 -0.001655 -0.003581 0.007077 0.000000 0.001839 0.000000
# 4 0.000000 0.000000 0.000000 0.040378 0.000000 0.019719
# 5 0.020013 -0.010629 0.001839 0.000000 0.081354 0.000000
# 6 0.000000 0.000000 0.000000 0.019719 0.000000 0.230587
#
#
# Mechanical properties :
#
#
# Convention : Reuss Voigt Hill
#
# Bulk Modulus (GPa) = 31.11297 60.77362 45.94329
# Shear Modulus (GPa) = 11.40447 25.25558 18.33003
#
# Velocity S-wave (km/s) = 2.29016 3.40806 2.90342
# Velocity P-wave (km/s) = 4.61538 6.59059 5.68936
#
# Compressibility (1/GPa) = 0.03214094
#
# Stress axis : x y z
#
# Youngs Moduli (GPa) = 28.25249 88.54383 141.29618
#
# Poissons Ratio (x) = 0.49384 0.23378
# Poissons Ratio (y) = 0.15757 0.50595
# Poissons Ratio (z) = 0.04674 0.31706
#
# Static dielectric constant tensor:
#      x y z
#    x 2.006130 0.000000 -0.242550 
#    y 0.000000 1.891070 0.000000 
#    z -0.242550 0.000000 2.192770 
# 
# From -- ./inp_files/62758.got.cif
#   From: 2010.05.17/outbox.cif.g08.bks.cpg/sg15_32_cif.got.tgz:62758.got - 2010.06.03 18:47:42.
