data_PCOD9279806
_publ_section_title
;
Structure prediction by ZEFSAII (Michael W. Deem and Ramdas Pophale) SiO2 
 PCOD9279806
Probable space group: C 2/C
;
_chemical_formula_sum "Si O2"
_cell_formula_units_Z 60
_cell_length_a 12.925881
_cell_length_b 27.270858
_cell_length_c 19.350669
_cell_angle_alpha 90.000000
_cell_angle_beta 26.552627
_cell_angle_gamma 90.000000
_cell_volume 3049.169304
_symmetry_space_group_name_H-M "C 2/C"
_symmetry_group_IT_number 15
_symmetry_cell_setting 'monoclinic'
loop_
_space_group_symop_operation_xyz
x,y,z
-x,y,1/2-z
-x,-y,-z
x,-y,1/2+z
1/2+x,1/2+y,z
1/2-x,1/2+y,1/2-z
1/2-x,1/2-y,-z
1/2+x,1/2-y,1/2+z
loop_
_atom_site_type_symbol
_atom_site_label
_atom_site_fract_x
_atom_site_fract_y
_atom_site_fract_z
Si Si1 0.833284 0.455120 0.284447
Si Si2 0.679462 0.443031 0.846634
Si Si3 0.006807 0.308807 0.974396
Si Si4 0.213119 0.191415 0.523595
Si Si5 0.000000 0.623229 0.250000
Si Si6 0.038616 0.646514 0.604702
Si Si7 0.550132 0.352627 0.859734
Si Si8 0.110373 0.803626 0.405841
O O1 0.577367 0.448200 0.468654
O O2 0.802913 0.505152 0.259424
O O3 0.000000 0.464033 0.250000
O O4 0.930163 0.406685 0.188670
O O5 0.647504 0.407864 0.800338
O O6 0.826762 0.412958 0.814452
O O7 0.244244 0.319295 0.791130
O O8 0.022046 0.250470 0.977982
O O9 0.016016 0.339795 0.038303
O O10 0.782932 0.320942 0.060652
O O11 0.250000 0.250000 0.500000
O O12 0.388781 0.159399 0.372768
O O13 0.980055 0.184354 0.617981
O O14 0.306211 0.650015 0.466528
O O15 0.883153 0.686091 0.739456
O O16 0.495614 0.337885 0.971537
#
# Coordination Sequence:
#
# PCOD9279806 Si02
#       8
#     8   8   8   8   4   8   8   8
#     4  11  21  40  63  95 118 152 207 264 315 358
#     4  11  22  36  67  92 115 153 212 267 304 359
#     4  11  25  38  60  92 130 166 198 244 312 373
#     4  10  21  36  59  88 122 159 202 251 298 355
#     4  12  18  38  64  88 116 158 212 258 298 358
#     4  12  24  40  60  91 130 161 197 252 310 369
#     4  12  22  41  62  89 124 162 208 252 299 363
#     4  11  22  40  63  90 121 167 214 251 290 354
#
# _framework density 19.677491
#
# number of rings (size 3 to 8) (size 9 to 14) (size 15 to 20)
#    0.000    0.800    6.000    1.600    0.000    6.933 
#    0.000    0.667    0.000    0.000    0.000    0.000 
#    0.000    0.000    0.000    0.000    0.000    0.000 
#
# Total GULP energy -167355.669719 kJ/mol
# GULP energy per Si atom -5578.522324 kJ/mol
# Density = 1.963270 g / cm^3
# Si number density = 19.677491 Si / 1000 Ang^3
#
#
#
# Elastic Constant Matrix: (Units=GPa)
#
#
# Indices 1 2 3 4 5 6 
#
# 1 123.5972 30.8957 23.2678 -0.0596 -21.9608 -0.0007
# 2 30.8957 81.6698 4.0586 -0.0460 -8.8493 -0.0121
# 3 23.2678 4.0586 47.6211 -0.0071 -22.6111 0.1003
# 4 -0.0596 -0.0460 -0.0071 -8.6468 0.0316 -16.6918
# 5 -21.9608 -8.8493 -22.6111 0.0316 33.6636 -0.0386
# 6 -0.0007 -0.0121 0.1003 -16.6918 -0.0386 21.5966
#
#
#
# Elastic Compliance Matrix: (Units=1/GPa)
#
#
# Indices 1 2 3 4 5 6 
#
# 1 0.010126 -0.003274 -0.002850 -0.000029 0.003831 -0.000004
# 2 -0.003274 0.013679 0.001655 -0.000020 0.002572 -0.000011
# 3 -0.002850 0.001655 0.031677 0.000109 0.019852 -0.000027
# 4 -0.000029 -0.000020 0.000109 -0.046408 0.000052 -0.035869
# 5 0.003831 0.002572 0.019852 0.000052 0.046216 0.000032
# 6 -0.000004 -0.000011 -0.000027 -0.035869 0.000032 0.018581
#
#
# Mechanical properties :
#
#
# Convention : Reuss Voigt Hill
#
# Bulk Modulus (GPa) = 21.48452 41.03692 31.26072
# Shear Modulus (GPa) = 50.85252 22.30040 36.57646
#
# Velocity S-wave (km/s) = 5.08912 3.37010 4.31605
# Velocity P-wave (km/s) = 6.74345 6.00362 6.38426
#
# Compressibility (1/GPa) = 0.04654513
#
# Stress axis : x y z
#
# Youngs Moduli (GPa) = 98.75155 73.10255 31.56904
#
# Poissons Ratio (x) = 0.23934 0.08996
# Poissons Ratio (y) = 0.32332 -0.05225
# Poissons Ratio (z) = 0.28140 -0.12098
#
# Static dielectric constant tensor:
#      x y z
#    x 1.984420 0.001760 0.062010 
#    y 0.001760 1.738330 0.000760 
#    z 0.062010 0.000760 1.724640 
# 
# From -- ./inp_files/201257.got.cif
#   From: 2010.05.17/outbox.cif.g08.bks.cpg/sg15_101_cif.got.tgz:201257.got - 2010.06.03 18:47:42.
