data_PCOD9279120
_publ_section_title
;
Structure prediction by ZEFSAII (Michael W. Deem and Ramdas Pophale) SiO2 
 PCOD9279120
Probable space group: C 2/C
;
_chemical_formula_sum "Si O2"
_cell_formula_units_Z 56
_cell_length_a 26.689483
_cell_length_b 15.841730
_cell_length_c 9.351185
_cell_angle_alpha 90.000000
_cell_angle_beta 59.152877
_cell_angle_gamma 90.000000
_cell_volume 3394.448159
_symmetry_space_group_name_H-M "C 2/C"
_symmetry_group_IT_number 15
_symmetry_cell_setting 'monoclinic'
loop_
_space_group_symop_operation_xyz
x,y,z
-x,y,1/2-z
-x,-y,-z
x,-y,1/2+z
1/2+x,1/2+y,z
1/2-x,1/2+y,1/2-z
1/2-x,1/2-y,-z
1/2+x,1/2-y,1/2+z
loop_
_atom_site_type_symbol
_atom_site_label
_atom_site_fract_x
_atom_site_fract_y
_atom_site_fract_z
Si Si1 0.810146 0.276845 0.991680
Si Si2 0.335150 0.264952 0.785956
Si Si3 0.134569 0.152854 0.793635
Si Si4 0.041743 0.023847 0.808466
Si Si5 0.067654 0.835471 0.682305
Si Si6 0.258445 0.941083 0.161722
Si Si7 0.764253 0.392508 0.477324
O O1 0.819526 0.242262 0.140040
O O2 0.804960 0.377160 0.021346
O O3 0.750000 0.250000 0.000000
O O4 0.856904 0.233908 0.819859
O O5 0.401121 0.288709 0.731130
O O6 0.294246 0.338505 0.910041
O O7 0.314932 0.178010 0.891766
O O8 0.090439 0.087707 0.786235
O O9 0.195353 0.101522 0.721402
O O10 0.107655 0.179269 0.984836
O O11 0.000000 0.062588 0.750000
O O12 0.067623 0.936149 0.711632
O O13 0.000000 0.000000 0.000000
O O14 0.000000 0.812936 0.750000
O O15 0.263389 0.937083 0.324829
O O16 0.266545 0.034700 0.091382
#
# Coordination Sequence:
#
# PCOD9279120 Si02
#       7
#     8   8   8   8   8   8   8
#     4   9  22  36  53  79 111 142 190 225 278 339
#     4  10  21  38  54  81 112 151 181 233 280 330
#     4  11  21  34  53  74 111 149 184 226 273 320
#     4  11  22  35  49  77 113 146 191 231 260 323
#     4  11  22  37  53  79 112 150 194 225 268 336
#     4  10  21  35  51  86 105 141 182 223 281 336
#     4  10  21  34  58  78 112 142 186 225 286 329
#
# _framework density 16.497527999999999
#
# number of rings (size 3 to 8) (size 9 to 14) (size 15 to 20)
#    0.000    1.714    4.286    0.857    8.000    0.000 
#    0.000    0.000    0.000    0.000    0.000   10.000 
#    0.000    0.000    0.000    0.000    0.000    0.000 
#
# Total GULP energy -156080.209820 kJ/mol
# GULP energy per Si atom -5574.293208 kJ/mol
# Density = 1.645998 g / cm^3
# Si number density = 16.497528 Si / 1000 Ang^3
#
#
#
# Elastic Constant Matrix: (Units=GPa)
#
#
# Indices 1 2 3 4 5 6 
#
# 1 95.5881 30.8442 17.0098 0.0000 8.4158 0.0000
# 2 30.8442 87.8836 43.2674 0.0000 6.4380 0.0000
# 3 17.0098 43.2674 90.2263 0.0000 4.4995 0.0000
# 4 0.0000 0.0000 0.0000 32.5183 0.0000 -0.1529
# 5 8.4158 6.4380 4.4995 0.0000 22.4127 0.0000
# 6 0.0000 0.0000 0.0000 -0.1529 0.0000 17.8434
#
#
#
# Elastic Compliance Matrix: (Units=1/GPa)
#
#
# Indices 1 2 3 4 5 6 
#
# 1 0.012047 -0.003857 -0.000254 0.000000 -0.003365 0.000000
# 2 -0.003857 0.016315 -0.007006 0.000000 -0.001832 0.000000
# 3 -0.000254 -0.007006 0.014531 0.000000 -0.000809 0.000000
# 4 0.000000 0.000000 0.000000 0.030753 0.000000 0.000264
# 5 -0.003365 -0.001832 -0.000809 0.000000 0.046570 0.000000
# 6 0.000000 0.000000 0.000000 0.000264 0.000000 0.056046
#
#
# Mechanical properties :
#
#
# Convention : Reuss Voigt Hill
#
# Bulk Modulus (GPa) = 48.39930 50.66008 49.52969
# Shear Modulus (GPa) = 24.34489 26.72665 25.53577
#
# Velocity S-wave (km/s) = 3.84561 4.02934 3.93855
# Velocity P-wave (km/s) = 7.00852 7.24029 7.12534
#
# Compressibility (1/GPa) = 0.02066146
#
# Stress axis : x y z
#
# Youngs Moduli (GPa) = 83.00490 61.29150 68.81867
#
# Poissons Ratio (x) = 0.23638 0.01748
# Poissons Ratio (y) = 0.32013 0.48211
# Poissons Ratio (z) = 0.02108 0.42938
#
# Static dielectric constant tensor:
#      x y z
#    x 1.569100 0.000000 0.015230 
#    y 0.000000 1.540570 0.000000 
#    z 0.015230 0.000000 1.574670 
# 
# From -- ./inp_files/66155.got.cif
#   From: 2010.05.17/outbox.cif.g08.bks.cpg/sg15_34_cif.got.tgz:66155.got - 2010.06.03 18:47:42.
