data_PCOD9279606
_publ_section_title
;
Structure prediction by ZEFSAII (Michael W. Deem and Ramdas Pophale) SiO2 
 PCOD9279606
Probable space group: C 2/C
;
_chemical_formula_sum "Si O2"
_cell_formula_units_Z 44
_cell_length_a 14.799938
_cell_length_b 15.921662
_cell_length_c 12.593050
_cell_angle_alpha 90.000000
_cell_angle_beta 53.931753
_cell_angle_gamma 90.000000
_cell_volume 2398.615051
_symmetry_space_group_name_H-M "C 2/C"
_symmetry_group_IT_number 15
_symmetry_cell_setting 'monoclinic'
loop_
_space_group_symop_operation_xyz
x,y,z
-x,y,1/2-z
-x,-y,-z
x,-y,1/2+z
1/2+x,1/2+y,z
1/2-x,1/2+y,1/2-z
1/2-x,1/2-y,-z
1/2+x,1/2-y,1/2+z
loop_
_atom_site_type_symbol
_atom_site_label
_atom_site_fract_x
_atom_site_fract_y
_atom_site_fract_z
Si Si1 0.774986 0.343736 0.529121
Si Si2 0.247026 0.592436 0.676653
Si Si3 0.521682 0.196949 0.858413
Si Si4 0.000000 0.078613 0.750000
Si Si5 0.148077 0.950838 0.773821
Si Si6 0.504827 0.350072 0.468618
O O1 0.750000 0.250000 0.500000
O O2 0.749386 0.408860 0.452925
O O3 0.699631 0.370326 0.679749
O O4 0.905771 0.350237 0.463376
O O5 0.132852 0.640918 0.782414
O O6 0.260566 0.502889 0.722874
O O7 0.360421 0.642772 0.627620
O O8 0.500000 0.227604 0.750000
O O9 0.528403 0.267402 0.943894
O O10 0.034062 0.134808 0.625021
O O11 0.903953 0.016161 0.774096
O O12 0.049652 0.922149 0.920366
#
# Coordination Sequence:
#
# PCOD9279606 Si02
#       6
#     8   8   8   4   8   8
#     4  11  20  36  61  87 115 149 197 241 286 345
#     4  10  21  36  54  88 114 145 193 239 292 338
#     4  10  22  36  60  86 112 148 195 242 281 341
#     4  10  22  36  54  88 114 148 188 238 290 348
#     4  11  21  35  60  83 116 148 187 245 292 341
#     4  11  21  36  59  82 116 146 191 239 289 342
#
# _framework density 18.343917999999999
#
# number of rings (size 3 to 8) (size 9 to 14) (size 15 to 20)
#    0.000    1.455    1.818    6.545    1.273    0.727 
#    0.000    3.636    4.000    0.000    0.000    0.000 
#    0.000    0.000    0.000    0.000    0.000    0.000 
#
# Total GULP energy -122637.243368 kJ/mol
# GULP energy per Si atom -5574.420153 kJ/mol
# Density = 1.830217 g / cm^3
# Si number density = 18.343918 Si / 1000 Ang^3
#
#
#
# Elastic Constant Matrix: (Units=GPa)
#
#
# Indices 1 2 3 4 5 6 
#
# 1 97.6597 40.3737 50.1304 0.0000 0.3092 0.0000
# 2 40.3737 66.3119 31.3303 0.0000 9.7531 0.0000
# 3 50.1304 31.3303 90.6925 0.0000 1.7373 0.0000
# 4 0.0000 0.0000 0.0000 13.2711 0.0000 -6.9143
# 5 0.3092 9.7531 1.7373 0.0000 35.1679 0.0000
# 6 0.0000 0.0000 0.0000 -6.9143 0.0000 11.3713
#
#
#
# Elastic Compliance Matrix: (Units=1/GPa)
#
#
# Indices 1 2 3 4 5 6 
#
# 1 0.016728 -0.007316 -0.006761 0.000000 0.002216 0.000000
# 2 -0.007316 0.022031 -0.003454 0.000000 -0.005875 0.000000
# 3 -0.006761 -0.003454 0.015953 0.000000 0.000229 0.000000
# 4 0.000000 0.000000 0.000000 0.110291 0.000000 0.067062
# 5 0.002216 -0.005875 0.000229 0.000000 0.030033 0.000000
# 6 0.000000 0.000000 0.000000 0.067062 0.000000 0.128718
#
#
# Mechanical properties :
#
#
# Convention : Reuss Voigt Hill
#
# Bulk Modulus (GPa) = 50.89624 55.37031 53.13328
# Shear Modulus (GPa) = 13.68491 20.81740 17.25116
#
# Velocity S-wave (km/s) = 2.73430 3.37239 3.06997
# Velocity P-wave (km/s) = 6.14608 6.73900 6.44936
#
# Compressibility (1/GPa) = 0.01964782
#
# Stress axis : x y z
#
# Youngs Moduli (GPa) = 59.78024 45.39135 62.68605
#
# Poissons Ratio (x) = 0.33209 0.42385
# Poissons Ratio (y) = 0.43736 0.21652
# Poissons Ratio (z) = 0.40420 0.15679
#
# Static dielectric constant tensor:
#      x y z
#    x 1.648740 0.000000 0.007920 
#    y 0.000000 1.660460 0.000000 
#    z 0.007920 0.000000 1.647520 
# 
# From -- ./inp_files/96581.got.cif
#   From: 2010.05.17/outbox.cif.g08.bks.cpg/sg15_49_cif.got.tgz:96581.got - 2010.06.03 18:47:42.
