data_PCOD9279867
_publ_section_title
;
Structure prediction by ZEFSAII (Michael W. Deem and Ramdas Pophale) SiO2 
 PCOD9279867
Probable space group: C 2/C
;
_chemical_formula_sum "Si O2"
_cell_formula_units_Z 40
_cell_length_a 12.841062
_cell_length_b 18.726162
_cell_length_c 18.636765
_cell_angle_alpha 90.000000
_cell_angle_beta 154.617407
_cell_angle_gamma 90.000000
_cell_volume 1921.028855
_symmetry_space_group_name_H-M "C 2/C"
_symmetry_group_IT_number 15
_symmetry_cell_setting 'monoclinic'
loop_
_space_group_symop_operation_xyz
x,y,z
-x,y,1/2-z
-x,-y,-z
x,-y,1/2+z
1/2+x,1/2+y,z
1/2-x,1/2+y,1/2-z
1/2-x,1/2-y,-z
1/2+x,1/2-y,1/2+z
loop_
_atom_site_type_symbol
_atom_site_label
_atom_site_fract_x
_atom_site_fract_y
_atom_site_fract_z
Si Si1 0.269977 0.303109 0.279821
Si Si2 0.636774 0.099017 0.910827
Si Si3 0.094815 0.531674 0.157519
Si Si4 0.809653 0.080105 0.693955
Si Si5 0.596719 0.654441 0.119044
O O1 0.357494 0.346435 0.264628
O O2 0.446057 0.318486 0.456467
O O3 0.236393 0.220866 0.240500
O O4 0.010252 0.339496 0.138119
O O5 0.500000 0.091060 0.750000
O O6 0.591512 0.024249 0.922793
O O7 0.906078 0.123890 0.059098
O O8 0.296447 0.481228 0.246034
O O9 0.224243 0.589154 0.288325
O O10 0.953399 0.575088 0.007859
O O11 0.000000 0.067967 0.750000
#
# Coordination Sequence:
#
# PCOD9279867 Si02
#       5
#     8   8   8   8   8
#     4  10  22  38  59  87 118 157 199 240 293 351
#     4   9  20  36  59  89 118 154 195 242 297 347
#     4  10  21  36  60  90 117 156 199 240 294 350
#     4  10  21  39  58  84 121 157 198 242 290 350
#     4  11  21  39  62  88 123 153 194 248 292 349
#
# _framework density 20.822175000000001
#
# number of rings (size 3 to 8) (size 9 to 14) (size 15 to 20)
#    0.000    2.000    0.000    3.000    0.000    8.800 
#    0.000   14.000    0.000    0.000    0.000    0.000 
#    0.000    0.000    0.000    0.000    0.000    0.000 
#
# Total GULP energy -111680.139707 kJ/mol
# GULP energy per Si atom -5584.006985 kJ/mol
# Density = 2.077478 g / cm^3
# Si number density = 20.822175 Si / 1000 Ang^3
#
#
#
# Elastic Constant Matrix: (Units=GPa)
#
#
# Indices 1 2 3 4 5 6 
#
# 1 75.3093 43.8991 8.3808 0.0045 1.4188 -0.0018
# 2 43.8991 151.8061 52.2189 0.0083 1.4542 -0.0016
# 3 8.3808 52.2189 38.8995 0.0152 1.4295 0.0027
# 4 0.0045 0.0083 0.0152 31.2526 -0.0025 -8.6618
# 5 1.4188 1.4542 1.4295 -0.0025 13.0046 -0.0022
# 6 -0.0018 -0.0016 0.0027 -8.6618 -0.0022 19.0981
#
#
#
# Elastic Compliance Matrix: (Units=1/GPa)
#
#
# Indices 1 2 3 4 5 6 
#
# 1 0.016576 -0.006633 0.005394 -0.000004 -0.001660 -0.000002
# 2 -0.006633 0.014896 -0.018607 0.000008 0.001103 0.000007
# 3 0.005394 -0.018607 0.049670 -0.000026 -0.003967 -0.000020
# 4 -0.000004 0.000008 -0.000026 0.036598 0.000012 0.016599
# 5 -0.001660 0.001103 -0.003967 0.000012 0.077389 0.000015
# 6 -0.000002 0.000007 -0.000020 0.016599 0.000015 0.059890
#
#
# Mechanical properties :
#
#
# Convention : Reuss Voigt Hill
#
# Bulk Modulus (GPa) = 24.12651 52.77918 38.45284
# Shear Modulus (GPa) = 16.20605 23.43881 19.82243
#
# Velocity S-wave (km/s) = 2.79284 3.35873 3.08878
# Velocity P-wave (km/s) = 4.69170 6.35956 5.58821
#
# Compressibility (1/GPa) = 0.04144819
#
# Stress axis : x y z
#
# Youngs Moduli (GPa) = 60.32806 67.13435 20.13308
#
# Poissons Ratio (x) = 0.44530 -0.10859
# Poissons Ratio (y) = 0.40015 0.37462
# Poissons Ratio (z) = -0.32540 1.24919
#
# Static dielectric constant tensor:
#      x y z
#    x 1.755930 0.000000 0.015950 
#    y 0.000000 1.738580 -0.000010 
#    z 0.015950 -0.000010 1.749740 
# 
# From -- ./inp_files/29345.got.cif
#   From: 2010.05.17/outbox.cif.g08.bks.cpg/sg15_15_cif.got.tgz:29345.got - 2010.06.03 18:47:42.
