data_PCOD9279158
_publ_section_title
;
Structure prediction by ZEFSAII (Michael W. Deem and Ramdas Pophale) SiO2 
 PCOD9279158
Probable space group: C 2/C
;
_chemical_formula_sum "Si O2"
_cell_formula_units_Z 52
_cell_length_a 25.911364
_cell_length_b 6.522991
_cell_length_c 16.971905
_cell_angle_alpha 90.000000
_cell_angle_beta 57.894334
_cell_angle_gamma 90.000000
_cell_volume 2429.890053
_symmetry_space_group_name_H-M "C 2/C"
_symmetry_group_IT_number 15
_symmetry_cell_setting 'monoclinic'
loop_
_space_group_symop_operation_xyz
x,y,z
-x,y,1/2-z
-x,-y,-z
x,-y,1/2+z
1/2+x,1/2+y,z
1/2-x,1/2+y,1/2-z
1/2-x,1/2-y,-z
1/2+x,1/2-y,1/2+z
loop_
_atom_site_type_symbol
_atom_site_label
_atom_site_fract_x
_atom_site_fract_y
_atom_site_fract_z
Si Si1 0.884102 0.199557 0.579778
Si Si2 0.000000 0.313597 0.750000
Si Si3 0.185483 0.591639 0.917925
Si Si4 0.172595 0.817647 0.781716
Si Si5 0.601547 0.069192 0.280899
Si Si6 0.692057 0.603669 0.624178
Si Si7 0.403255 0.406953 0.434130
O O1 0.836192 0.362935 0.583440
O O2 0.918499 0.313534 0.622847
O O3 0.852229 0.009645 0.649138
O O4 0.918367 0.095066 0.479275
O O5 0.952463 0.441956 0.737478
O O6 0.960701 0.171726 0.839634
O O7 0.210828 0.690789 0.815543
O O8 0.235620 0.634175 0.943816
O O9 0.125540 0.718381 0.992627
O O10 0.124419 0.649997 0.790937
O O11 0.197067 0.916515 0.682576
O O12 0.655681 0.205952 0.195532
O O13 0.650367 0.538470 0.584712
#
# Coordination Sequence:
#
# PCOD9279158 Si02
#       7
#     8   4   8   8   8   8   8
#     4   9  20  39  58  87 122 156 202 246 306 362
#     4  10  22  42  66  82 120 164 210 264 306 348
#     4  10  21  36  60  87 127 160 196 251 306 367
#     4   9  20  35  58  89 120 156 202 245 298 370
#     4   9  20  40  60  91 121 160 206 252 303 361
#     4  10  21  34  60  91 124 160 201 246 305 366
#     4  10  22  40  57  90 121 161 208 254 303 361
#
# _framework density 21.400144999999998
#
# number of rings (size 3 to 8) (size 9 to 14) (size 15 to 20)
#    0.000    2.462    0.000    0.462    6.462    4.923 
#    0.000   19.231    0.000    0.000    0.000    0.000 
#    0.000    0.000    0.000    0.000    0.000    0.000 
#
# Total GULP energy -144935.919235 kJ/mol
# GULP energy per Si atom -5574.458432 kJ/mol
# Density = 2.135144 g / cm^3
# Si number density = 21.400145 Si / 1000 Ang^3
#
#
#
# Elastic Constant Matrix: (Units=GPa)
#
#
# Indices 1 2 3 4 5 6 
#
# 1 91.9090 32.0423 2.8560 0.0009 11.7869 0.0018
# 2 32.0423 100.7790 21.4107 0.0024 13.1954 0.0004
# 3 2.8560 21.4107 53.3485 -0.0004 3.3644 -0.0004
# 4 0.0009 0.0024 -0.0004 31.9671 0.0008 21.7238
# 5 11.7869 13.1954 3.3644 0.0008 28.6266 0.0005
# 6 0.0018 0.0004 -0.0004 21.7238 0.0005 18.9961
#
#
#
# Elastic Compliance Matrix: (Units=1/GPa)
#
#
# Indices 1 2 3 4 5 6 
#
# 1 0.012621 -0.003769 0.001063 0.000003 -0.003584 -0.000005
# 2 -0.003769 0.012587 -0.004616 -0.000004 -0.003708 0.000004
# 3 0.001063 -0.004616 0.020586 0.000001 -0.000729 -0.000001
# 4 0.000003 -0.000004 0.000001 0.140373 -0.000001 -0.160530
# 5 -0.003584 -0.003708 -0.000729 -0.000001 0.038203 0.000001
# 6 -0.000005 0.000004 -0.000001 -0.160530 0.000001 0.236224
#
#
# Mechanical properties :
#
#
# Convention : Reuss Voigt Hill
#
# Bulk Modulus (GPa) = 32.10274 39.85052 35.97663
# Shear Modulus (GPa) = 10.29605 28.56643 19.43124
#
# Velocity S-wave (km/s) = 2.19583 3.65755 3.01657
# Velocity P-wave (km/s) = 4.63278 6.04144 5.38338
#
# Compressibility (1/GPa) = 0.03114999
#
# Stress axis : x y z
#
# Youngs Moduli (GPa) = 79.23252 79.44496 48.57578
#
# Poissons Ratio (x) = 0.29946 -0.05164
# Poissons Ratio (y) = 0.29866 0.22423
# Poissons Ratio (z) = -0.08424 0.36673
#
# Static dielectric constant tensor:
#      x y z
#    x 1.812100 0.000000 -0.018090 
#    y 0.000000 1.781340 0.000000 
#    z -0.018090 0.000000 1.851430 
# 
# From -- ./inp_files/221154.got.cif
#   From: 2010.05.17/outbox.cif.g08.bks.cpg/sg15_111_cif.got.tgz:221154.got - 2010.06.03 18:47:42.
