data_PCOD9279433
_publ_section_title
;
Structure prediction by ZEFSAII (Michael W. Deem and Ramdas Pophale) SiO2 
 PCOD9279433
Probable space group: C 2/C
;
_chemical_formula_sum "Si O2"
_cell_formula_units_Z 60
_cell_length_a 17.569240
_cell_length_b 23.905578
_cell_length_c 7.986442
_cell_angle_alpha 90.000000
_cell_angle_beta 47.185597
_cell_angle_gamma 90.000000
_cell_volume 2460.597859
_symmetry_space_group_name_H-M "C 2/C"
_symmetry_group_IT_number 15
_symmetry_cell_setting 'monoclinic'
loop_
_space_group_symop_operation_xyz
x,y,z
-x,y,1/2-z
-x,-y,-z
x,-y,1/2+z
1/2+x,1/2+y,z
1/2-x,1/2+y,1/2-z
1/2-x,1/2-y,-z
1/2+x,1/2-y,1/2+z
loop_
_atom_site_type_symbol
_atom_site_label
_atom_site_fract_x
_atom_site_fract_y
_atom_site_fract_z
Si Si1 0.503556 0.151626 0.047320
Si Si2 0.889486 0.759590 0.183190
Si Si3 0.865185 0.430396 0.293421
Si Si4 0.381101 0.442927 0.460802
Si Si5 0.179561 0.141815 0.187304
Si Si6 0.500000 0.332572 0.750000
Si Si7 0.829093 0.743174 0.640418
Si Si8 0.259951 0.969813 0.124875
O O1 0.523361 0.097683 0.903768
O O2 0.602439 0.193556 0.887523
O O3 0.500000 0.137447 0.250000
O O4 0.410202 0.192654 0.133921
O O5 0.886819 0.766591 0.387077
O O6 0.779825 0.776851 0.270566
O O7 0.972184 0.794106 0.951797
O O8 0.788323 0.389050 0.505838
O O9 0.817387 0.434387 0.178288
O O10 0.845622 0.490821 0.404755
O O11 0.500000 0.458837 0.250000
O O12 0.377913 0.386476 0.570895
O O13 0.308729 0.436848 0.406358
O O14 0.322493 0.489782 0.658728
O O15 0.101553 0.132749 0.148426
O O16 0.192413 0.207118 0.199707
#
# Coordination Sequence:
#
# PCOD9279433 Si02
#       8
#     8   8   8   8   8   4   8   8
#     4  10  21  40  66  94 124 169 213 259 313 386
#     4  10  23  38  63  87 128 178 209 258 311 368
#     4  10  22  42  65  92 124 164 214 266 326 389
#     4  10  21  35  60  86 120 164 212 262 316 399
#     4  11  25  35  61  93 129 173 207 257 315 378
#     4  12  24  36  56  94 134 168 214 256 300 378
#     4  10  22  43  60  90 136 172 205 259 316 370
#     4   9  21  42  61  86 122 166 205 273 341 365
#
# _framework density 24.384316999999999
#
# number of rings (size 3 to 8) (size 9 to 14) (size 15 to 20)
#    0.000    1.867    1.333    1.200    5.600    4.267 
#    2.400    0.667    0.000    0.000    0.000    0.000 
#    0.000    0.000    0.000    0.000    0.000    0.000 
#
# Total GULP energy -167865.018593 kJ/mol
# GULP energy per Si atom -5595.500620 kJ/mol
# Density = 2.432882 g / cm^3
# Si number density = 24.384317 Si / 1000 Ang^3
#
#
#
# Elastic Constant Matrix: (Units=GPa)
#
#
# Indices 1 2 3 4 5 6 
#
# 1 42.3859 2.9251 1.3888 0.0000 12.6193 0.0000
# 2 2.9251 50.0378 20.7566 0.0000 3.6168 0.0000
# 3 1.3888 20.7566 66.6835 0.0000 -1.8298 0.0000
# 4 0.0000 0.0000 0.0000 14.6612 0.0000 0.0461
# 5 12.6193 3.6168 -1.8298 0.0000 29.1071 0.0000
# 6 0.0000 0.0000 0.0000 0.0461 0.0000 17.4449
#
#
#
# Elastic Compliance Matrix: (Units=1/GPa)
#
#
# Indices 1 2 3 4 5 6 
#
# 1 0.027150 -0.000423 -0.000757 0.000000 -0.011766 0.000000
# 2 -0.000423 0.023277 -0.007323 0.000000 -0.003169 0.000000
# 3 -0.000757 -0.007323 0.017355 0.000000 0.002329 0.000000
# 4 0.000000 0.000000 0.000000 0.068208 0.000000 -0.000180
# 5 -0.011766 -0.003169 0.002329 0.000000 0.039997 0.000000
# 6 0.000000 0.000000 0.000000 -0.000180 0.000000 0.057324
#
#
# Mechanical properties :
#
#
# Convention : Reuss Voigt Hill
#
# Bulk Modulus (GPa) = 19.69441 23.24979 21.47210
# Shear Modulus (GPa) = 18.70966 21.17842 19.94404
#
# Velocity S-wave (km/s) = 2.77299 2.95027 2.86301
# Velocity P-wave (km/s) = 4.28332 4.60010 4.44453
#
# Compressibility (1/GPa) = 0.05077584
#
# Stress axis : x y z
#
# Youngs Moduli (GPa) = 36.83285 42.96161 57.61874
#
# Poissons Ratio (x) = 0.01816 0.04360
# Poissons Ratio (y) = 0.01557 0.42197
# Poissons Ratio (z) = 0.02787 0.31463
#
# Static dielectric constant tensor:
#      x y z
#    x 1.926100 0.000000 -0.017560 
#    y 0.000000 1.932520 0.000000 
#    z -0.017560 0.000000 1.983080 
# 
# From -- ./inp_files/58743.got.cif
#   From: 2010.05.17/outbox.cif.g08.bks.cpg/sg15_30_cif.got.tgz:58743.got - 2010.06.03 18:47:42.
