data_PCOD9279810
_publ_section_title
;
Structure prediction by ZEFSAII (Michael W. Deem and Ramdas Pophale) SiO2 
 PCOD9279810
Probable space group: C 2/C
;
_chemical_formula_sum "Si O2"
_cell_formula_units_Z 56
_cell_length_a 14.562812
_cell_length_b 13.514141
_cell_length_c 18.874081
_cell_angle_alpha 90.000000
_cell_angle_beta 133.610150
_cell_angle_gamma 90.000000
_cell_volume 2689.477227
_symmetry_space_group_name_H-M "C 2/C"
_symmetry_group_IT_number 15
_symmetry_cell_setting 'monoclinic'
loop_
_space_group_symop_operation_xyz
x,y,z
-x,y,1/2-z
-x,-y,-z
x,-y,1/2+z
1/2+x,1/2+y,z
1/2-x,1/2+y,1/2-z
1/2-x,1/2-y,-z
1/2+x,1/2-y,1/2+z
loop_
_atom_site_type_symbol
_atom_site_label
_atom_site_fract_x
_atom_site_fract_y
_atom_site_fract_z
Si Si1 0.353373 0.286698 0.609381
Si Si2 0.492562 0.295552 0.031304
Si Si3 0.286795 0.228332 0.715299
Si Si4 0.300045 0.976146 0.946421
Si Si5 0.074891 0.892501 0.645608
Si Si6 0.566839 0.895904 0.094322
Si Si7 0.055847 0.912375 0.359257
O O1 0.250000 0.250000 0.500000
O O2 0.363233 0.219070 0.682472
O O3 0.294985 0.385268 0.613016
O O4 0.473936 0.317848 0.629127
O O5 0.643831 0.294015 0.117404
O O6 0.447881 0.323034 0.086510
O O7 0.444135 0.377467 0.948463
O O8 0.455515 0.190220 0.976676
O O9 0.298689 0.335503 0.761501
O O10 0.343723 0.149467 0.799127
O O11 0.355940 0.018936 0.904021
O O12 0.203238 0.053254 0.931175
O O13 0.430463 0.934247 0.050529
O O14 0.031992 0.999119 0.652904
O O15 0.000000 0.894166 0.250000
#
# Coordination Sequence:
#
# PCOD9279810 Si02
#       7
#     8   8   8   8   8   8   8
#     4  11  18  35  62  90 120 154 205 266 315 365
#     4  11  22  39  61  92 126 163 207 266 313 381
#     4  11  20  35  60  91 123 158 209 256 315 384
#     4  10  21  40  62  87 124 164 211 260 314 382
#     4  10  21  36  59  89 119 162 207 262 318 368
#     4  10  22  40  64  90 123 171 211 253 323 378
#     4  11  23  38  63  91 124 168 213 256 322 385
#
# _framework density 20.82189
#
# number of rings (size 3 to 8) (size 9 to 14) (size 15 to 20)
#    0.000    1.429    2.857    4.286    0.000    0.571 
#    0.000    0.000    0.000    3.429    0.000    0.000 
#    0.000    0.000    0.000    0.000    0.000    0.000 
#
# Total GULP energy -156139.806281 kJ/mol
# GULP energy per Si atom -5576.421653 kJ/mol
# Density = 2.077450 g / cm^3
# Si number density = 20.821890 Si / 1000 Ang^3
#
#
#
# Elastic Constant Matrix: (Units=GPa)
#
#
# Indices 1 2 3 4 5 6 
#
# 1 62.6831 10.1535 9.3273 0.0000 -8.9897 0.0000
# 2 10.1535 28.4653 18.7339 0.0000 -11.1340 0.0000
# 3 9.3273 18.7339 113.5960 0.0000 -31.2313 0.0000
# 4 0.0000 0.0000 0.0000 19.7384 0.0000 -2.2612
# 5 -8.9897 -11.1340 -31.2313 0.0000 28.4394 0.0000
# 6 0.0000 0.0000 0.0000 -2.2612 0.0000 26.7843
#
#
#
# Elastic Compliance Matrix: (Units=1/GPa)
#
#
# Indices 1 2 3 4 5 6 
#
# 1 0.017258 -0.004890 0.000520 0.000000 0.004112 0.000000
# 2 -0.004890 0.043808 -0.003628 0.000000 0.011621 0.000000
# 3 0.000520 -0.003628 0.012912 0.000000 0.012923 0.000000
# 4 0.000000 0.000000 0.000000 0.051158 0.000000 0.004319
# 5 0.004112 0.011621 0.012923 0.000000 0.055204 0.000000
# 6 0.000000 0.000000 0.000000 0.004319 0.000000 0.037700
#
#
# Mechanical properties :
#
#
# Convention : Reuss Voigt Hill
#
# Bulk Modulus (GPa) = 17.24700 31.24155 24.24427
# Shear Modulus (GPa) = 19.73466 26.09438 22.91452
#
# Velocity S-wave (km/s) = 3.08195 3.54392 3.32098
# Velocity P-wave (km/s) = 4.57883 5.63761 5.13558
#
# Compressibility (1/GPa) = 0.05798110
#
# Stress axis : x y z
#
# Youngs Moduli (GPa) = 57.94547 22.82700 77.44837
#
# Poissons Ratio (x) = 0.11161 -0.04026
# Poissons Ratio (y) = 0.28333 0.28100
# Poissons Ratio (z) = -0.03012 0.08282
#
# Static dielectric constant tensor:
#      x y z
#    x 1.802090 0.000000 0.023190 
#    y 0.000000 1.840530 0.000000 
#    z 0.023190 0.000000 1.794680 
# 
# From -- ./inp_files/205497.got.cif
#   From: 2010.05.17/outbox.cif.g08.bks.cpg/sg15_103_cif.got.tgz:205497.got - 2010.06.03 18:47:42.
