data_PCOD9279947
_publ_section_title
;
Structure prediction by ZEFSAII (Michael W. Deem and Ramdas Pophale) SiO2 
 PCOD9279947
Probable space group: C 2/C
;
_chemical_formula_sum "Si O2"
_cell_formula_units_Z 48
_cell_length_a 27.574895
_cell_length_b 14.728344
_cell_length_c 13.235093
_cell_angle_alpha 90.000000
_cell_angle_beta 22.715722
_cell_angle_gamma 90.000000
_cell_volume 2075.683531
_symmetry_space_group_name_H-M "C 2/C"
_symmetry_group_IT_number 15
_symmetry_cell_setting 'monoclinic'
loop_
_space_group_symop_operation_xyz
x,y,z
-x,y,1/2-z
-x,-y,-z
x,-y,1/2+z
1/2+x,1/2+y,z
1/2-x,1/2+y,1/2-z
1/2-x,1/2-y,-z
1/2+x,1/2-y,1/2+z
loop_
_atom_site_type_symbol
_atom_site_label
_atom_site_fract_x
_atom_site_fract_y
_atom_site_fract_z
Si Si1 0.828815 0.817888 0.613554
Si Si2 0.122151 0.382258 0.466607
Si Si3 0.127574 0.000521 0.067142
Si Si4 0.567425 0.093707 0.848606
Si Si5 0.857662 0.104441 0.267900
Si Si6 0.927411 0.256486 0.296602
O O1 0.865323 0.716891 0.506675
O O2 0.833371 0.896267 0.522671
O O3 0.899730 0.862503 0.575861
O O4 0.692081 0.798699 0.919524
O O5 0.084466 0.359683 0.424199
O O6 0.252576 0.439250 0.205831
O O7 0.000000 0.431033 0.750000
O O8 0.000000 0.016191 0.250000
O O9 0.099845 0.024966 0.237141
O O10 0.710475 0.079109 0.538226
O O11 0.502570 0.160770 0.893918
O O12 0.500000 0.000000 0.000000
O O13 0.880528 0.189878 0.299040
O O14 0.000000 0.212205 0.250000
#
# Coordination Sequence:
#
# PCOD9279947 Si02
#       6
#     8   8   8   8   8   8
#     4  11  22  43  67  91 134 180 215 277 346 390
#     4  11  24  43  67  99 134 172 226 282 334 388
#     4  11  25  42  66 100 132 178 226 270 333 409
#     4  10  21  36  61  99 132 169 218 281 333 391
#     4  10  21  43  65  94 133 180 223 270 336 408
#     4  11  21  37  68  97 128 180 229 270 326 412
#
# _framework density 23.124912999999999
#
# number of rings (size 3 to 8) (size 9 to 14) (size 15 to 20)
#    0.000    1.333    5.000    2.000    9.333    0.667 
#    0.000    0.000    0.000    3.000    0.000    0.000 
#    0.000    0.000    0.000    0.000    0.000    0.000 
#
# Total GULP energy -133754.670070 kJ/mol
# GULP energy per Si atom -5573.111253 kJ/mol
# Density = 2.307228 g / cm^3
# Si number density = 23.124913 Si / 1000 Ang^3
#
#
#
# Elastic Constant Matrix: (Units=GPa)
#
#
# Indices 1 2 3 4 5 6 
#
# 1 38.6817 2.7975 1.9694 0.0000 -15.4969 0.0000
# 2 2.7975 140.5515 28.3825 0.0000 -2.3985 0.0000
# 3 1.9694 28.3825 99.1865 0.0000 3.2773 0.0000
# 4 0.0000 0.0000 0.0000 26.7728 0.0000 5.8324
# 5 -15.4969 -2.3985 3.2773 0.0000 23.9476 0.0000
# 6 0.0000 0.0000 0.0000 5.8324 0.0000 25.6399
#
#
#
# Elastic Compliance Matrix: (Units=1/GPa)
#
#
# Indices 1 2 3 4 5 6 
#
# 1 0.035107 -0.000015 -0.001450 0.000000 0.022915 0.000000
# 2 -0.000015 0.007578 -0.002203 0.000000 0.001051 0.000000
# 3 -0.001450 -0.002203 0.010828 0.000000 -0.002641 0.000000
# 4 0.000000 0.000000 0.000000 0.039299 0.000000 -0.008939
# 5 0.022915 0.001051 -0.002641 0.000000 0.057053 0.000000
# 6 0.000000 0.000000 0.000000 -0.008939 0.000000 0.041035
#
#
# Mechanical properties :
#
#
# Convention : Reuss Voigt Hill
#
# Bulk Modulus (GPa) = 21.65523 38.30205 29.97864
# Shear Modulus (GPa) = 23.40505 31.62344 27.51425
#
# Velocity S-wave (km/s) = 3.18483 3.70199 3.45310
# Velocity P-wave (km/s) = 4.78633 5.90526 5.37499
#
# Compressibility (1/GPa) = 0.04617823
#
# Stress axis : x y z
#
# Youngs Moduli (GPa) = 28.48404 131.96280 92.34964
#
# Poissons Ratio (x) = 0.00197 0.13390
# Poissons Ratio (y) = 0.00042 0.20343
# Poissons Ratio (z) = 0.04130 0.29070
#
# Static dielectric constant tensor:
#      x y z
#    x 1.926040 0.000000 -0.030610 
#    y 0.000000 2.012890 0.000000 
#    z -0.030610 0.000000 1.942750 
# 
# From -- ./inp_files/182454.got.cif
#   From: 2010.05.17/outbox.cif.g08.bks.cpg/sg15_92_cif.got.tgz:182454.got - 2010.06.03 18:47:42.
