data_PCOD9279769
_publ_section_title
;
Structure prediction by ZEFSAII (Michael W. Deem and Ramdas Pophale) SiO2 
 PCOD9279769
Probable space group: C 2/C
;
_chemical_formula_sum "Si O2"
_cell_formula_units_Z 56
_cell_length_a 7.604353
_cell_length_b 25.411124
_cell_length_c 14.198627
_cell_angle_alpha 90.000000
_cell_angle_beta 59.940304
_cell_angle_gamma 90.000000
_cell_volume 2374.660718
_symmetry_space_group_name_H-M "C 2/C"
_symmetry_group_IT_number 15
_symmetry_cell_setting 'monoclinic'
loop_
_space_group_symop_operation_xyz
x,y,z
-x,y,1/2-z
-x,-y,-z
x,-y,1/2+z
1/2+x,1/2+y,z
1/2-x,1/2+y,1/2-z
1/2-x,1/2-y,-z
1/2+x,1/2-y,1/2+z
loop_
_atom_site_type_symbol
_atom_site_label
_atom_site_fract_x
_atom_site_fract_y
_atom_site_fract_z
Si Si1 0.434708 0.835276 0.159993
Si Si2 0.287436 0.562198 0.843972
Si Si3 0.523275 0.799825 0.949037
Si Si4 0.503885 0.568270 0.522616
Si Si5 0.815418 0.222636 0.226596
Si Si6 0.072982 0.183444 0.504953
Si Si7 0.764039 0.514376 0.308783
O O1 0.500000 0.841241 0.250000
O O2 0.368300 0.892558 0.141478
O O3 0.281771 0.783948 0.203129
O O4 0.589900 0.816481 0.035426
O O5 0.500000 0.585479 0.750000
O O6 0.324342 0.553153 0.944614
O O7 0.263096 0.509288 0.788924
O O8 0.650988 0.813538 0.823541
O O9 0.291153 0.817778 0.998804
O O10 0.535850 0.736744 0.936769
O O11 0.460728 0.629206 0.549718
O O12 0.605915 0.557004 0.393720
O O13 0.306906 0.534315 0.603706
O O14 0.877940 0.192525 0.116720
O O15 0.000000 0.226735 0.250000
O O16 0.000000 0.529356 0.250000
#
# Coordination Sequence:
#
# PCOD9279769 Si02
#       7
#     8   8   8   8   8   8   8
#     4  10  21  36  58  89 125 165 211 259 312 374
#     4  10  21  39  64  92 119 157 213 259 318 380
#     4  10  21  38  60  92 129 169 215 256 315 384
#     4  10  22  44  66  93 130 163 215 273 323 381
#     4  10  23  38  54  90 134 169 208 257 316 383
#     4  10  21  39  64  91 123 171 214 259 317 384
#     4  10  23  42  65  95 124 163 213 270 330 384
#
# _framework density 23.582317
#
# number of rings (size 3 to 8) (size 9 to 14) (size 15 to 20)
#    0.000    2.000    1.429    0.857    4.000    6.857 
#    2.571    3.571    0.000    0.000    0.000    0.000 
#    0.000    0.000    0.000    0.000    0.000    0.000 
#
# Total GULP energy -156170.530035 kJ/mol
# GULP energy per Si atom -5577.518930 kJ/mol
# Density = 2.352864 g / cm^3
# Si number density = 23.582317 Si / 1000 Ang^3
#
#
#
# Elastic Constant Matrix: (Units=GPa)
#
#
# Indices 1 2 3 4 5 6 
#
# 1 40.5649 -0.0894 6.6666 0.0000 13.4892 0.0000
# 2 -0.0894 57.5603 -14.1660 0.0000 5.1894 0.0000
# 3 6.6666 -14.1660 101.9133 0.0000 21.3092 0.0000
# 4 0.0000 0.0000 0.0000 -6.3239 0.0000 7.6315
# 5 13.4892 5.1894 21.3092 0.0000 40.5382 0.0000
# 6 0.0000 0.0000 0.0000 7.6315 0.0000 16.1652
#
#
#
# Elastic Compliance Matrix: (Units=1/GPa)
#
#
# Indices 1 2 3 4 5 6 
#
# 1 0.027772 0.000979 0.000312 0.000000 -0.009531 0.000000
# 2 0.000979 0.018639 0.003476 0.000000 -0.004539 0.000000
# 3 0.000312 0.003476 0.011673 0.000000 -0.006685 0.000000
# 4 0.000000 0.000000 0.000000 -0.100739 0.000000 0.047558
# 5 -0.009531 -0.004539 -0.006685 0.000000 0.031934 0.000000
# 6 0.000000 0.000000 0.000000 0.047558 0.000000 0.039409
#
#
# Mechanical properties :
#
#
# Convention : Reuss Voigt Hill
#
# Bulk Modulus (GPa) = 14.78885 20.54010 17.66447
# Shear Modulus (GPa) = 119.92317 23.91773 71.92045
#
# Velocity S-wave (km/s) = 7.13887 3.18814 5.52846
# Velocity P-wave (km/s) = 8.61603 4.72030 6.94684
#
# Compressibility (1/GPa) = 0.06761853
#
# Stress axis : x y z
#
# Youngs Moduli (GPa) = 36.00759 53.65015 85.66995
#
# Poissons Ratio (x) = -0.05254 -0.02675
# Poissons Ratio (y) = -0.03526 -0.29778
# Poissons Ratio (z) = -0.01124 -0.18648
#
# Static dielectric constant tensor:
#      x y z
#    x 1.985850 0.000000 0.019120 
#    y 0.000000 1.915250 0.000000 
#    z 0.019120 0.000000 1.938580 
# 
# From -- ./inp_files/137696.got.cif
#   From: 2010.05.17/outbox.cif.g08.bks.cpg/sg15_69_cif.got.tgz:137696.got - 2010.06.03 18:47:42.
