data_PCOD9279737
_publ_section_title
;
Structure prediction by ZEFSAII (Michael W. Deem and Ramdas Pophale) SiO2 
 PCOD9279737
Probable space group: C 2/C
;
_chemical_formula_sum "Si O2"
_cell_formula_units_Z 60
_cell_length_a 7.741898
_cell_length_b 18.160043
_cell_length_c 29.843124
_cell_angle_alpha 90.000000
_cell_angle_beta 48.227524
_cell_angle_gamma 90.000000
_cell_volume 3129.166789
_symmetry_space_group_name_H-M "C 2/C"
_symmetry_group_IT_number 15
_symmetry_cell_setting 'monoclinic'
loop_
_space_group_symop_operation_xyz
x,y,z
-x,y,1/2-z
-x,-y,-z
x,-y,1/2+z
1/2+x,1/2+y,z
1/2-x,1/2+y,1/2-z
1/2-x,1/2-y,-z
1/2+x,1/2-y,1/2+z
loop_
_atom_site_type_symbol
_atom_site_label
_atom_site_fract_x
_atom_site_fract_y
_atom_site_fract_z
Si Si1 0.296983 0.943117 0.077932
Si Si2 0.808934 0.870890 0.753691
Si Si3 0.500000 0.916545 0.250000
Si Si4 0.817054 0.368833 0.887688
Si Si5 0.238565 0.970473 0.983074
Si Si6 0.297195 0.290169 0.356169
Si Si7 0.313834 0.211919 0.723840
Si Si8 0.865436 0.964051 0.658986
O O1 0.238799 0.864894 0.110282
O O2 0.557343 0.967795 0.046832
O O3 0.234773 0.941513 0.035326
O O4 0.122239 0.007094 0.124556
O O5 0.572171 0.871711 0.821782
O O6 0.906152 0.790150 0.724766
O O7 0.777353 0.908654 0.711839
O O8 0.000000 0.911898 0.750000
O O9 0.583212 0.861826 0.274092
O O10 0.302621 0.966440 0.306226
O O11 0.816002 0.404023 0.936921
O O12 0.749546 0.283137 0.893419
O O13 0.659265 0.421634 0.883581
O O14 0.000000 0.000000 0.000000
O O15 0.153790 0.289131 0.334943
O O16 0.554555 0.287022 0.289754
#
# Coordination Sequence:
#
# PCOD9279737 Si02
#       8
#     8   8   4   8   8   8   8   8
#     4  11  25  44  67  97 122 165 221 266 314 375
#     4  11  21  36  59  93 131 168 207 251 316 387
#     4  12  22  34  60 100 132 170 206 248 318 380
#     4  11  22  41  63  90 127 173 205 258 323 375
#     4  11  25  46  70  89 124 167 217 275 320 367
#     4  10  22  40  62  89 130 164 209 261 313 382
#     4  10  21  36  57  91 132 170 198 253 319 376
#     4  12  22  38  63  96 129 165 214 256 310 388
#
# _framework density 19.174433000000001
#
# number of rings (size 3 to 8) (size 9 to 14) (size 15 to 20)
#    0.000    1.067    6.000    0.800    1.867    1.600 
#    0.000    0.667    0.000    0.000    0.000    0.000 
#    0.000    0.000    0.000    0.000    0.000    0.000 
#
# Total GULP energy -167175.935646 kJ/mol
# GULP energy per Si atom -5572.531188 kJ/mol
# Density = 1.913079 g / cm^3
# Si number density = 19.174433 Si / 1000 Ang^3
#
#
#
# Elastic Constant Matrix: (Units=GPa)
#
#
# Indices 1 2 3 4 5 6 
#
# 1 96.6992 33.9231 25.3915 -0.0034 10.6056 0.0030
# 2 33.9231 109.5719 36.0583 0.0008 14.9469 -0.0005
# 3 25.3915 36.0583 78.9680 -0.0009 21.4778 0.0007
# 4 -0.0034 0.0008 -0.0009 37.7163 0.0032 1.6311
# 5 10.6056 14.9469 21.4778 0.0032 29.8476 -0.0029
# 6 0.0030 -0.0005 0.0007 1.6311 -0.0029 28.1596
#
#
#
# Elastic Compliance Matrix: (Units=1/GPa)
#
#
# Indices 1 2 3 4 5 6 
#
# 1 0.012059 -0.002823 -0.002248 0.000001 -0.001254 -0.000001
# 2 -0.002823 0.011530 -0.003804 0.000000 -0.002033 0.000000
# 3 -0.002248 -0.003804 0.017889 0.000001 -0.010169 -0.000001
# 4 0.000001 0.000000 0.000001 0.026580 -0.000004 -0.001540
# 5 -0.001254 -0.002033 -0.010169 -0.000004 0.042285 0.000005
# 6 -0.000001 0.000000 -0.000001 -0.001540 0.000005 0.035601
#
#
# Mechanical properties :
#
#
# Convention : Reuss Voigt Hill
#
# Bulk Modulus (GPa) = 42.14240 52.88722 47.51481
# Shear Modulus (GPa) = 29.13721 31.80245 30.46983
#
# Velocity S-wave (km/s) = 3.90242 4.07699 3.99066
# Velocity P-wave (km/s) = 6.50625 7.05723 6.78733
#
# Compressibility (1/GPa) = 0.02372907
#
# Stress axis : x y z
#
# Youngs Moduli (GPa) = 82.92334 86.73361 55.90117
#
# Poissons Ratio (x) = 0.24483 0.12564
# Poissons Ratio (y) = 0.23408 0.21264
# Poissons Ratio (z) = 0.18637 0.32993
#
# Static dielectric constant tensor:
#      x y z
#    x 1.722980 0.000000 -0.021890 
#    y 0.000000 1.657320 0.000000 
#    z -0.021890 0.000000 1.646950 
# 
# From -- ./inp_files/289566.got.cif
#   From: 2010.05.17/outbox.cif.g08.bks.cpg/sg15_145_cif.got.tgz:289566.got - 2010.06.03 18:47:42.
