data_PCOD9279964
_publ_section_title
;
Structure prediction by ZEFSAII (Michael W. Deem and Ramdas Pophale) SiO2 
 PCOD9279964
Probable space group: C 2/C
;
_chemical_formula_sum "Si O2"
_cell_formula_units_Z 48
_cell_length_a 5.763348
_cell_length_b 28.298927
_cell_length_c 13.688752
_cell_angle_alpha 90.000000
_cell_angle_beta 105.592140
_cell_angle_gamma 90.000000
_cell_volume 2150.427937
_symmetry_space_group_name_H-M "C 2/C"
_symmetry_group_IT_number 15
_symmetry_cell_setting 'monoclinic'
loop_
_space_group_symop_operation_xyz
x,y,z
-x,y,1/2-z
-x,-y,-z
x,-y,1/2+z
1/2+x,1/2+y,z
1/2-x,1/2+y,1/2-z
1/2-x,1/2-y,-z
1/2+x,1/2-y,1/2+z
loop_
_atom_site_type_symbol
_atom_site_label
_atom_site_fract_x
_atom_site_fract_y
_atom_site_fract_z
Si Si1 0.214631 0.539628 0.963871
Si Si2 0.702079 0.809051 0.355569
Si Si3 0.287626 0.791161 0.807412
Si Si4 0.976989 0.634571 0.473368
Si Si5 0.280290 0.520936 0.655819
Si Si6 0.054595 0.888198 0.392263
O O1 0.377333 0.572290 0.914599
O O2 0.010802 0.514523 0.873268
O O3 0.103769 0.580618 0.021561
O O4 0.321124 0.502532 0.053326
O O5 0.500000 0.807595 0.250000
O O6 0.796505 0.755711 0.376656
O O7 0.600080 0.834104 0.441027
O O8 0.909526 0.843591 0.341141
O O9 0.500000 0.783415 0.750000
O O10 0.363404 0.838891 0.870051
O O11 0.000000 0.795277 0.750000
O O12 0.265540 0.631596 0.505031
O O13 0.500000 0.504163 0.750000
O O14 0.291026 0.578649 0.661812
#
# Coordination Sequence:
#
# PCOD9279964 Si02
#       6
#     8   8   8   8   8   8
#     4   9  21  41  56  93 127 166 223 276 326 413
#     4  10  24  40  65  98 133 170 222 282 335 408
#     4  11  27  45  69 100 138 179 232 280 337 409
#     4  10  23  43  66  93 130 181 215 283 339 400
#     4  10  21  36  62  88 126 171 214 275 340 400
#     4  10  22  36  67  88 130 164 225 265 347 390
#
# _framework density 22.321138999999999
#
# number of rings (size 3 to 8) (size 9 to 14) (size 15 to 20)
#    0.000    2.000    0.000    1.000   16.333    1.333 
#    0.000    0.000    0.000    0.000    0.000    0.000 
#    0.000    0.000    0.000    0.000    0.000    0.000 
#
# Total GULP energy -133637.142656 kJ/mol
# GULP energy per Si atom -5568.214277 kJ/mol
# Density = 2.227034 g / cm^3
# Si number density = 22.321139 Si / 1000 Ang^3
#
#
#
# Elastic Constant Matrix: (Units=GPa)
#
#
# Indices 1 2 3 4 5 6 
#
# 1 85.8497 14.0041 34.1186 0.0000 13.5026 0.0000
# 2 14.0041 90.2138 29.8486 0.0000 14.2667 0.0000
# 3 34.1186 29.8486 92.9725 0.0000 29.0348 0.0000
# 4 0.0000 0.0000 0.0000 30.8765 0.0000 8.7703
# 5 13.5026 14.2667 29.0348 0.0000 29.8327 0.0000
# 6 0.0000 0.0000 0.0000 8.7703 0.0000 29.9072
#
#
#
# Elastic Compliance Matrix: (Units=1/GPa)
#
#
# Indices 1 2 3 4 5 6 
#
# 1 0.013724 -0.000410 -0.004347 0.000000 -0.001784 0.000000
# 2 -0.000410 0.012598 -0.002975 0.000000 -0.002944 0.000000
# 3 -0.004347 -0.002975 0.017596 0.000000 -0.013735 0.000000
# 4 0.000000 0.000000 0.000000 0.035330 0.000000 -0.010360
# 5 -0.001784 -0.002944 -0.013735 0.000000 0.049103 0.000000
# 6 0.000000 0.000000 0.000000 -0.010360 0.000000 0.036475
#
#
# Mechanical properties :
#
#
# Convention : Reuss Voigt Hill
#
# Bulk Modulus (GPa) = 35.14536 47.21986 41.18261
# Shear Modulus (GPa) = 26.34718 30.86094 28.60406
#
# Velocity S-wave (km/s) = 3.43938 3.72235 3.58366
# Velocity P-wave (km/s) = 5.61711 6.29883 5.96771
#
# Compressibility (1/GPa) = 0.02845326
#
# Stress axis : x y z
#
# Youngs Moduli (GPa) = 72.86765 79.37613 56.83248
#
# Poissons Ratio (x) = 0.03252 0.24707
# Poissons Ratio (y) = 0.02986 0.16907
# Poissons Ratio (z) = 0.31679 0.23613
#
# Static dielectric constant tensor:
#      x y z
#    x 2.003870 0.000000 0.003250 
#    y 0.000000 1.771170 0.000000 
#    z 0.003250 0.000000 1.886880 
# 
# From -- ./inp_files/130579.got.cif
#   From: 2010.05.17/outbox.cif.g08.bks.cpg/sg15_66_cif.got.tgz:130579.got - 2010.06.03 18:47:42.
