data_PCOD9279288
_publ_section_title
;
Structure prediction by ZEFSAII (Michael W. Deem and Ramdas Pophale) SiO2 
 PCOD9279288
Probable space group: C 2/C
;
_chemical_formula_sum "Si O2"
_cell_formula_units_Z 56
_cell_length_a 10.559872
_cell_length_b 13.766896
_cell_length_c 30.088199
_cell_angle_alpha 90.000000
_cell_angle_beta 150.369172
_cell_angle_gamma 90.000000
_cell_volume 2162.607959
_symmetry_space_group_name_H-M "C 2/C"
_symmetry_group_IT_number 15
_symmetry_cell_setting 'monoclinic'
loop_
_space_group_symop_operation_xyz
x,y,z
-x,y,1/2-z
-x,-y,-z
x,-y,1/2+z
1/2+x,1/2+y,z
1/2-x,1/2+y,1/2-z
1/2-x,1/2-y,-z
1/2+x,1/2-y,1/2+z
loop_
_atom_site_type_symbol
_atom_site_label
_atom_site_fract_x
_atom_site_fract_y
_atom_site_fract_z
Si Si1 0.858424 0.449197 0.564287
Si Si2 0.563844 0.919008 0.717611
Si Si3 0.603397 0.497631 0.401485
Si Si4 0.198176 0.369348 0.163595
Si Si5 0.635718 0.760483 0.609755
Si Si6 0.189661 0.733078 0.748660
Si Si7 0.476476 0.833934 0.477223
O O1 0.857684 0.451759 0.617517
O O2 0.076900 0.526527 0.617400
O O3 0.975673 0.348601 0.581903
O O4 0.621273 0.476459 0.460204
O O5 0.500000 0.918455 0.750000
O O6 0.635817 0.811269 0.722866
O O7 0.827659 0.980664 0.796772
O O8 0.749479 0.408212 0.422125
O O9 0.775571 0.595396 0.446928
O O10 0.500000 0.370104 0.250000
O O11 0.120113 0.340785 0.189101
O O12 0.079190 0.299476 0.089540
O O13 0.679970 0.692948 0.666390
O O14 0.501593 0.747929 0.521060
O O15 0.926669 0.782117 0.684272
#
# Coordination Sequence:
#
# PCOD9279288 Si02
#       7
#     8   8   8   8   8   8   8
#     4   9  21  36  60  87 107 152 209 243 286 335
#     4  11  21  35  56  80 118 160 188 231 301 364
#     4   9  17  33  57  89 112 140 204 257 276 337
#     4  11  22  34  55  86 123 147 188 254 299 340
#     4   9  18  37  62  82 106 154 202 242 275 353
#     4  10  21  35  56  83 117 149 193 236 295 350
#     4   9  17  33  60  86 108 144 203 251 282 328
#
# _framework density 25.894660999999999
#
# number of rings (size 3 to 8) (size 9 to 14) (size 15 to 20)
#    0.000    2.286    1.429    2.143    4.000    1.143 
#    2.571    0.714    0.000    1.714    0.000    0.000 
#    0.000    0.000    0.000    0.000    0.000    0.000 
#
# Total GULP energy -156462.715649 kJ/mol
# GULP energy per Si atom -5587.954130 kJ/mol
# Density = 2.583572 g / cm^3
# Si number density = 25.894661 Si / 1000 Ang^3
#
#
#
# Elastic Constant Matrix: (Units=GPa)
#
#
# Indices 1 2 3 4 5 6 
#
# 1 122.6465 6.9338 51.8462 0.0001 -37.4797 0.0000
# 2 6.9338 23.3174 31.4236 0.0002 -7.9269 0.0001
# 3 51.8462 31.4236 138.3868 0.0012 -56.1764 0.0001
# 4 0.0001 0.0002 0.0012 32.9777 0.0002 -2.5249
# 5 -37.4797 -7.9269 -56.1764 0.0002 55.5573 0.0000
# 6 0.0000 0.0001 0.0001 -2.5249 0.0000 10.4565
#
#
#
# Elastic Compliance Matrix: (Units=1/GPa)
#
#
# Indices 1 2 3 4 5 6 
#
# 1 0.010571 0.001651 -0.002281 0.000000 0.005060 0.000000
# 2 0.001651 0.064899 -0.018903 0.000000 -0.008740 0.000000
# 3 -0.002281 -0.018903 0.018071 -0.000001 0.014036 0.000000
# 4 0.000000 0.000000 -0.000001 0.030895 -0.000001 0.007460
# 5 0.005060 -0.008740 0.014036 -0.000001 0.034359 0.000000
# 6 0.000000 0.000000 0.000000 0.007460 0.000000 0.097436
#
#
# Mechanical properties :
#
#
# Convention : Reuss Voigt Hill
#
# Bulk Modulus (GPa) = 18.35731 51.63976 34.99853
# Shear Modulus (GPa) = 15.95127 32.74145 24.34636
#
# Velocity S-wave (km/s) = 2.48464 3.55971 3.06961
# Velocity P-wave (km/s) = 3.91610 6.07297 5.10964
#
# Compressibility (1/GPa) = 0.05447421
#
# Stress axis : x y z
#
# Youngs Moduli (GPa) = 94.59989 15.40856 55.33746
#
# Poissons Ratio (x) = -0.02544 0.12623
# Poissons Ratio (y) = -0.15618 1.04605
# Poissons Ratio (z) = 0.21579 0.29127
#
# Static dielectric constant tensor:
#      x y z
#    x 2.046250 0.000000 -0.072770 
#    y 0.000000 2.061000 0.000000 
#    z -0.072770 0.000000 2.077800 
# 
# From -- ./inp_files/289758.got.cif
#   From: 2010.05.17/outbox.cif.g08.bks.cpg/sg15_145_cif.got.tgz:289758.got - 2010.06.03 18:47:42.
