data_PCOD9279253
_publ_section_title
;
Structure prediction by ZEFSAII (Michael W. Deem and Ramdas Pophale) SiO2 
 PCOD9279253
Probable space group: C 2/C
;
_chemical_formula_sum "Si O2"
_cell_formula_units_Z 56
_cell_length_a 10.898518
_cell_length_b 9.610669
_cell_length_c 30.017197
_cell_angle_alpha 90.000000
_cell_angle_beta 121.207787
_cell_angle_gamma 90.000000
_cell_volume 2689.097503
_symmetry_space_group_name_H-M "C 2/C"
_symmetry_group_IT_number 15
_symmetry_cell_setting 'monoclinic'
loop_
_space_group_symop_operation_xyz
x,y,z
-x,y,1/2-z
-x,-y,-z
x,-y,1/2+z
1/2+x,1/2+y,z
1/2-x,1/2+y,1/2-z
1/2-x,1/2-y,-z
1/2+x,1/2-y,1/2+z
loop_
_atom_site_type_symbol
_atom_site_label
_atom_site_fract_x
_atom_site_fract_y
_atom_site_fract_z
Si Si1 0.835611 0.582929 0.764497
Si Si2 0.623205 0.138358 0.482691
Si Si3 0.000000 0.349840 0.750000
Si Si4 0.567985 0.945840 0.630320
Si Si5 0.000000 0.828340 0.750000
Si Si6 0.343190 0.554175 0.134517
Si Si7 0.314187 0.165930 0.469664
Si Si8 0.956097 0.824778 0.321524
O O1 0.872810 0.452592 0.740068
O O2 0.919053 0.546795 0.825282
O O3 0.894187 0.725358 0.756055
O O4 0.666186 0.601359 0.731052
O O5 0.750000 0.250000 0.500000
O O6 0.572761 0.082005 0.424619
O O7 0.476998 0.194959 0.480777
O O8 0.677977 0.998592 0.517114
O O9 0.044137 0.259695 0.800784
O O10 0.687097 0.000977 0.618826
O O11 0.605140 0.792001 0.656879
O O12 0.914498 0.906458 0.695208
O O13 0.302694 0.675479 0.092476
O O14 0.448073 0.436883 0.135462
O O15 0.250000 0.250000 0.500000
#
# Coordination Sequence:
#
# PCOD9279253 Si02
#       8
#     8   8   4   8   4   8   8   8
#     4  10  21  35  54  85 123 155 200 244 303 378
#     4  10  22  44  69  92 130 171 219 278 333 383
#     4   9  21  34  50  80 115 155 196 238 284 365
#     4  10  21  38  60  88 118 166 206 260 316 376
#     4  11  21  36  56  90 123 159 200 248 312 379
#     4  11  22  38  62  88 121 163 204 254 316 379
#     4  10  24  44  65  98 129 167 226 275 325 392
#     4  11  20  37  57  82 122 158 202 245 307 373
#
# _framework density 20.824832000000001
#
# number of rings (size 3 to 8) (size 9 to 14) (size 15 to 20)
#    0.000    1.714    1.429    3.000    4.000    0.571 
#    0.000    4.286    0.000    0.000    0.000    0.000 
#    0.000    0.000    0.000    0.000    0.000    0.000 
#
# Total GULP energy -155994.838975 kJ/mol
# GULP energy per Si atom -5571.244249 kJ/mol
# Density = 2.077743 g / cm^3
# Si number density = 20.824832 Si / 1000 Ang^3
#
#
#
# Elastic Constant Matrix: (Units=GPa)
#
#
# Indices 1 2 3 4 5 6 
#
# 1 70.9935 31.0860 19.1416 0.0000 -0.4920 0.0000
# 2 31.0860 55.1962 22.9533 0.0000 4.9999 0.0000
# 3 19.1416 22.9533 113.2157 0.0000 5.7179 0.0000
# 4 0.0000 0.0000 0.0000 28.1381 0.0000 -10.4336
# 5 -0.4920 4.9999 5.7179 0.0000 30.5485 0.0000
# 6 0.0000 0.0000 0.0000 -10.4336 0.0000 -30.2602
#
#
#
# Elastic Compliance Matrix: (Units=1/GPa)
#
#
# Indices 1 2 3 4 5 6 
#
# 1 0.018976 -0.010384 -0.001216 0.000000 0.002233 0.000000
# 2 -0.010384 0.025660 -0.003257 0.000000 -0.003757 0.000000
# 3 -0.001216 -0.003257 0.009765 0.000000 -0.001314 0.000000
# 4 0.000000 0.000000 0.000000 0.031510 0.000000 -0.010865
# 5 0.002233 -0.003757 -0.001314 0.000000 0.033632 0.000000
# 6 0.000000 0.000000 0.000000 -0.010865 0.000000 -0.029301
#
#
# Mechanical properties :
#
#
# Convention : Reuss Voigt Hill
#
# Bulk Modulus (GPa) = 40.50585 42.86303 41.68444
# Shear Modulus (GPa) = 39.00633 16.76691 27.88662
#
# Velocity S-wave (km/s) = 4.33259 2.84058 3.66335
# Velocity P-wave (km/s) = 6.67244 5.60231 6.16065
#
# Compressibility (1/GPa) = 0.02468779
#
# Stress axis : x y z
#
# Youngs Moduli (GPa) = 52.69873 38.97127 102.40703
#
# Poissons Ratio (x) = 0.40466 0.12451
# Poissons Ratio (y) = 0.54720 0.33353
# Poissons Ratio (z) = 0.06407 0.12693
#
# Static dielectric constant tensor:
#      x y z
#    x 1.830950 0.000000 0.040070 
#    y 0.000000 1.763890 0.000000 
#    z 0.040070 0.000000 1.889170 
# 
# From -- ./inp_files/291548.got.cif
#   From: 2010.05.17/outbox.cif.g08.bks.cpg/sg15_146_cif.got.tgz:291548.got - 2010.06.03 18:47:42.
