data_PCOD9279059
_publ_section_title
;
Structure prediction by ZEFSAII (Michael W. Deem and Ramdas Pophale) SiO2 
 PCOD9279059
Probable space group: C 2/C
;
_chemical_formula_sum "Si O2"
_cell_formula_units_Z 52
_cell_length_a 6.641025
_cell_length_b 26.315286
_cell_length_c 16.483023
_cell_angle_alpha 90.000000
_cell_angle_beta 68.212203
_cell_angle_gamma 90.000000
_cell_volume 2674.806301
_symmetry_space_group_name_H-M "C 2/C"
_symmetry_group_IT_number 15
_symmetry_cell_setting 'monoclinic'
loop_
_space_group_symop_operation_xyz
x,y,z
-x,y,1/2-z
-x,-y,-z
x,-y,1/2+z
1/2+x,1/2+y,z
1/2-x,1/2+y,1/2-z
1/2-x,1/2-y,-z
1/2+x,1/2-y,1/2+z
loop_
_atom_site_type_symbol
_atom_site_label
_atom_site_fract_x
_atom_site_fract_y
_atom_site_fract_z
Si Si1 0.129219 0.478296 0.558792
Si Si2 0.577979 0.428517 0.492080
Si Si3 0.013538 0.269619 0.520576
Si Si4 0.500000 0.235304 0.750000
Si Si5 0.192880 0.071330 0.167290
Si Si6 0.214476 0.322090 0.073347
Si Si7 0.181234 0.318445 0.788384
O O1 0.321625 0.437260 0.513674
O O2 0.277500 0.525447 0.566459
O O3 0.000000 0.500000 0.500000
O O4 0.929603 0.455147 0.639567
O O5 0.618895 0.428716 0.583802
O O6 0.677369 0.376593 0.443868
O O7 0.250000 0.250000 0.500000
O O8 0.984992 0.313900 0.458583
O O9 0.888803 0.218228 0.513980
O O10 0.915764 0.291351 0.617977
O O11 0.365517 0.199214 0.829122
O O12 0.345616 0.276118 0.727405
O O13 0.221223 0.128861 0.194690
O O14 0.000000 0.047483 0.250000
O O15 0.000000 0.329978 0.750000
#
# Coordination Sequence:
#
# PCOD9279059 Si02
#       7
#     8   8   8   4   8   8   8
#     4   9  22  41  61  89 118 153 206 260 316 380
#     4  10  21  42  64  85 123 164 205 263 310 379
#     4  10  21  34  55  85 115 159 205 246 303 380
#     4  10  22  40  52  86 128 158 210 262 304 370
#     4  11  23  36  61  93 122 158 199 255 321 375
#     4  10  21  37  59  82 117 165 207 248 310 370
#     4  11  22  35  55  87 126 157 197 261 315 363
#
# _framework density 19.440659
#
# number of rings (size 3 to 8) (size 9 to 14) (size 15 to 20)
#    0.000    1.846    2.308    0.923    4.308    0.000 
#    0.000    4.615    0.000    0.000    0.000    0.000 
#    0.000    0.000    0.000    0.000    0.000    0.000 
#
# Total GULP energy -144868.607031 kJ/mol
# GULP energy per Si atom -5571.869501 kJ/mol
# Density = 1.939641 g / cm^3
# Si number density = 19.440659 Si / 1000 Ang^3
#
#
#
# Elastic Constant Matrix: (Units=GPa)
#
#
# Indices 1 2 3 4 5 6 
#
# 1 113.2025 43.0460 31.7205 0.0000 -26.7951 0.0000
# 2 43.0460 118.2600 50.8778 0.0000 -24.8680 0.0000
# 3 31.7205 50.8778 66.9925 0.0000 -25.1174 0.0000
# 4 0.0000 0.0000 0.0000 19.9769 0.0000 -12.7858
# 5 -26.7951 -24.8680 -25.1174 0.0000 39.9348 0.0000
# 6 0.0000 0.0000 0.0000 -12.7858 0.0000 31.0216
#
#
#
# Elastic Compliance Matrix: (Units=1/GPa)
#
#
# Indices 1 2 3 4 5 6 
#
# 1 0.011416 -0.002345 -0.001702 0.000000 0.005130 0.000000
# 2 -0.002345 0.013217 -0.008416 0.000000 0.001364 0.000000
# 3 -0.001702 -0.008416 0.025820 0.000000 0.009857 0.000000
# 4 0.000000 0.000000 0.000000 0.067994 0.000000 0.028025
# 5 0.005130 0.001364 0.009857 0.000000 0.035532 0.000000
# 6 0.000000 0.000000 0.000000 0.028025 0.000000 0.043786
#
#
# Mechanical properties :
#
#
# Convention : Reuss Voigt Hill
#
# Bulk Modulus (GPa) = 39.17181 61.08261 50.12721
# Shear Modulus (GPa) = 21.62626 29.70738 25.66682
#
# Velocity S-wave (km/s) = 3.33892 3.91334 3.63749
# Velocity P-wave (km/s) = 5.92095 7.20467 6.59412
#
# Compressibility (1/GPa) = 0.02552856
#
# Stress axis : x y z
#
# Youngs Moduli (GPa) = 87.59375 75.66019 38.72932
#
# Poissons Ratio (x) = 0.17740 0.06590
# Poissons Ratio (y) = 0.20538 0.32595
# Poissons Ratio (z) = 0.14905 0.63677
#
# Static dielectric constant tensor:
#      x y z
#    x 1.744190 0.000000 -0.057450 
#    y 0.000000 1.683550 0.000000 
#    z -0.057450 0.000000 1.628750 
# 
# From -- ./inp_files/186058.got.cif
#   From: 2010.05.17/outbox.cif.g08.bks.cpg/sg15_94_cif.got.tgz:186058.got - 2010.06.03 18:47:42.
