data_PCOD9279913
_publ_section_title
;
Structure prediction by ZEFSAII (Michael W. Deem and Ramdas Pophale) SiO2 
 PCOD9279913
Probable space group: C 2/C
;
_chemical_formula_sum "Si O2"
_cell_formula_units_Z 44
_cell_length_a 16.850441
_cell_length_b 29.923508
_cell_length_c 9.395998
_cell_angle_alpha 90.000000
_cell_angle_beta 26.244871
_cell_angle_gamma 90.000000
_cell_volume 2095.046578
_symmetry_space_group_name_H-M "C 2/C"
_symmetry_group_IT_number 15
_symmetry_cell_setting 'monoclinic'
loop_
_space_group_symop_operation_xyz
x,y,z
-x,y,1/2-z
-x,-y,-z
x,-y,1/2+z
1/2+x,1/2+y,z
1/2-x,1/2+y,1/2-z
1/2-x,1/2-y,-z
1/2+x,1/2-y,1/2+z
loop_
_atom_site_type_symbol
_atom_site_label
_atom_site_fract_x
_atom_site_fract_y
_atom_site_fract_z
Si Si1 0.500000 0.605530 0.250000
Si Si2 0.392074 0.279368 0.624601
Si Si3 0.784243 0.536498 0.759353
Si Si4 0.000000 0.738280 0.750000
Si Si5 0.343330 0.355311 0.292264
Si Si6 0.708912 0.948628 0.583062
Si Si7 0.000000 0.699427 0.250000
O O1 0.337976 0.572948 0.467216
O O2 0.428032 0.631621 0.502404
O O3 0.451327 0.268409 0.691365
O O4 0.521552 0.318504 0.365497
O O5 0.422576 0.233005 0.492645
O O6 0.182347 0.290010 0.940095
O O7 0.739615 0.487940 0.892760
O O8 0.749188 0.537398 0.647009
O O9 0.991521 0.551218 0.444579
O O10 0.300247 0.400173 0.450066
O O11 0.154892 0.331093 0.565253
#
# Coordination Sequence:
#
# PCOD9279913 Si02
#       7
#     4   8   8   4   8   8   4
#     4  10  21  36  61  90 116 160 201 258 308 387
#     4  11  23  43  64  93 124 173 210 266 315 376
#     4   9  18  36  61  87 120 154 202 243 325 370
#     4  10  23  42  68  88 121 173 216 256 324 373
#     4  11  22  37  61  94 124 162 216 256 313 377
#     4   9  19  38  62  88 117 162 198 257 305 385
#     4  12  24  40  65  88 127 169 211 264 316 374
#
# _framework density 21.001919999999998
#
# number of rings (size 3 to 8) (size 9 to 14) (size 15 to 20)
#    0.000    1.818    1.818    3.273    2.545    2.909 
#    0.000    2.727    0.000    0.000    0.000    0.000 
#    0.000    0.000    0.000    0.000    0.000    0.000 
#
# Total GULP energy -122862.497770 kJ/mol
# GULP energy per Si atom -5584.658990 kJ/mol
# Density = 2.095412 g / cm^3
# Si number density = 21.001920 Si / 1000 Ang^3
#
#
#
# Elastic Constant Matrix: (Units=GPa)
#
#
# Indices 1 2 3 4 5 6 
#
# 1 50.1868 4.4981 17.1473 0.0007 -19.2035 -0.0004
# 2 4.4981 97.0508 31.9866 -0.0002 -22.6656 0.0001
# 3 17.1473 31.9866 101.7214 0.0076 -29.7235 -0.0033
# 4 0.0007 -0.0002 0.0076 208.4651 -0.0029 -64.6041
# 5 -19.2035 -22.6656 -29.7235 -0.0029 26.1858 0.0013
# 6 -0.0004 0.0001 -0.0033 -64.6041 0.0013 39.4607
#
#
#
# Elastic Compliance Matrix: (Units=1/GPa)
#
#
# Indices 1 2 3 4 5 6 
#
# 1 0.029407 0.004475 0.001600 0.000000 0.027255 0.000000
# 2 0.004475 0.013692 -0.000954 0.000000 0.014050 0.000000
# 3 0.001600 -0.000954 0.014907 0.000000 0.017268 0.000000
# 4 0.000000 0.000000 0.000000 0.009737 0.000000 0.015942
# 5 0.027255 0.014050 0.017268 0.000000 0.089938 -0.000001
# 6 0.000000 0.000000 0.000000 0.015942 -0.000001 0.051441
#
#
# Mechanical properties :
#
#
# Convention : Reuss Voigt Hill
#
# Bulk Modulus (GPa) = 14.65274 39.58031 27.11652
# Shear Modulus (GPa) = 22.56000 67.84413 45.20206
#
# Velocity S-wave (km/s) = 3.28104 5.68981 4.64430
# Velocity P-wave (km/s) = 4.62013 7.87732 6.45747
#
# Compressibility (1/GPa) = 0.06824664
#
# Stress axis : x y z
#
# Youngs Moduli (GPa) = 34.00580 73.03356 67.08241
#
# Poissons Ratio (x) = -0.32683 -0.10731
# Poissons Ratio (y) = -0.15218 0.06403
# Poissons Ratio (z) = -0.05440 0.06971
#
# Static dielectric constant tensor:
#      x y z
#    x 1.771900 0.000000 0.016480 
#    y 0.000000 1.744230 0.000000 
#    z 0.016480 0.000000 1.632680 
# 
# From -- ./inp_files/114987.got.cif
#   From: 2010.05.17/outbox.cif.g08.bks.cpg/sg15_58_cif.got.tgz:114987.got - 2010.06.03 18:47:42.
