data_PCOD9279002
_publ_section_title
;
Structure prediction by ZEFSAII (Michael W. Deem and Ramdas Pophale) SiO2 
 PCOD9279002
Probable space group: C 2/C
;
_chemical_formula_sum "Si O2"
_cell_formula_units_Z 48
_cell_length_a 19.092710
_cell_length_b 5.485695
_cell_length_c 17.533734
_cell_angle_alpha 90.000000
_cell_angle_beta 94.090560
_cell_angle_gamma 90.000000
_cell_volume 1831.748700
_symmetry_space_group_name_H-M "C 2/C"
_symmetry_group_IT_number 15
_symmetry_cell_setting 'monoclinic'
loop_
_space_group_symop_operation_xyz
x,y,z
-x,y,1/2-z
-x,-y,-z
x,-y,1/2+z
1/2+x,1/2+y,z
1/2-x,1/2+y,1/2-z
1/2-x,1/2-y,-z
1/2+x,1/2-y,1/2+z
loop_
_atom_site_type_symbol
_atom_site_label
_atom_site_fract_x
_atom_site_fract_y
_atom_site_fract_z
Si Si1 0.269939 0.199907 0.856067
Si Si2 0.757538 0.285502 0.175976
Si Si3 0.088809 0.138295 0.081759
Si Si4 0.591702 0.268084 0.194604
Si Si5 0.567170 0.690110 0.451425
Si Si6 0.558307 0.172540 0.365558
O O1 0.222330 0.963294 0.864271
O O2 0.285262 0.209152 0.765052
O O3 0.341550 0.203114 0.909541
O O4 0.233339 0.459885 0.865140
O O5 0.673058 0.248759 0.178573
O O6 0.075306 0.046714 0.167338
O O7 0.102824 0.892231 0.033010
O O8 0.016644 0.232872 0.041246
O O9 0.585914 0.200546 0.281934
O O10 0.526443 0.130742 0.149984
O O11 0.570385 0.438035 0.403655
O O12 0.589020 0.936965 0.411099
#
# Coordination Sequence:
#
# PCOD9279002 Si02
#       6
#     8   8   8   8   8   8
#     4   9  17  29  47  72  97 121 159 207 247 279
#     4   9  17  29  47  72  97 122 158 207 247 280
#     4   9  19  34  54  75  99 131 168 203 241 291
#     4   9  19  33  53  74  99 130 166 202 242 292
#     4  10  21  34  50  74 104 132 161 200 247 293
#     4  10  21  34  49  74 104 132 160 199 248 294
#
# _framework density 26.204466
#
# number of rings (size 3 to 8) (size 9 to 14) (size 15 to 20)
#    0.000    2.667    0.000    1.000    0.000   16.667 
#    0.000    0.000    0.000    2.000    0.000    0.000 
#    0.000    0.000    0.000    0.000    0.000    0.000 
#
# Total GULP energy -134010.540688 kJ/mol
# GULP energy per Si atom -5583.772529 kJ/mol
# Density = 2.614482 g / cm^3
# Si number density = 26.204466 Si / 1000 Ang^3
#
#
#
# Elastic Constant Matrix: (Units=GPa)
#
#
# Indices 1 2 3 4 5 6 
#
# 1 83.8779 6.4960 13.7054 0.0000 21.8105 0.0000
# 2 6.4960 199.5647 33.6000 0.0000 3.8707 0.0000
# 3 13.7054 33.6000 76.2145 0.0000 16.8799 0.0000
# 4 0.0000 0.0000 0.0000 37.4050 0.0000 23.6156
# 5 21.8105 3.8707 16.8799 0.0000 36.3648 0.0000
# 6 0.0000 0.0000 0.0000 23.6156 0.0000 11.5896
#
#
#
# Elastic Compliance Matrix: (Units=1/GPa)
#
#
# Indices 1 2 3 4 5 6 
#
# 1 0.014169 -0.000193 -0.000652 0.000000 -0.008175 0.000000
# 2 -0.000193 0.005427 -0.002514 0.000000 0.000705 0.000000
# 3 -0.000652 -0.002514 0.015828 0.000000 -0.006688 0.000000
# 4 0.000000 0.000000 0.000000 -0.093321 0.000000 0.190156
# 5 -0.008175 0.000705 -0.006688 0.000000 0.035432 0.000000
# 6 0.000000 0.000000 0.000000 0.190156 0.000000 -0.301190
#
#
# Mechanical properties :
#
#
# Convention : Reuss Voigt Hill
#
# Bulk Modulus (GPa) = 34.83650 51.91776 43.37713
# Shear Modulus (GPa) = -16.26711 37.46226 10.59757
#
# Velocity S-wave (km/s) = -2.49424 3.78513 2.01320
# Velocity P-wave (km/s) = 2.24232 6.24167 4.68969
#
# Compressibility (1/GPa) = 0.02870552
#
# Stress axis : x y z
#
# Youngs Moduli (GPa) = 70.57494 184.27176 63.18025
#
# Poissons Ratio (x) = 0.03553 0.04122
# Poissons Ratio (y) = 0.01361 0.15883
# Poissons Ratio (z) = 0.04605 0.46324
#
# Static dielectric constant tensor:
#      x y z
#    x 2.066770 0.000000 -0.015090 
#    y 0.000000 2.203750 0.000000 
#    z -0.015090 0.000000 2.047100 
# 
# From -- ./inp_files/217569.got.cif
#   From: 2010.05.17/outbox.cif.g08.bks.cpg/sg15_109_cif.got.tgz:217569.got - 2010.06.03 18:47:42.
