data_PCOD9279330
_publ_section_title
;
Structure prediction by ZEFSAII (Michael W. Deem and Ramdas Pophale) SiO2 
 PCOD9279330
Probable space group: C 2/C
;
_chemical_formula_sum "Si O2"
_cell_formula_units_Z 44
_cell_length_a 8.033310
_cell_length_b 24.439765
_cell_length_c 14.347391
_cell_angle_alpha 90.000000
_cell_angle_beta 119.543046
_cell_angle_gamma 90.000000
_cell_volume 2450.622959
_symmetry_space_group_name_H-M "C 2/C"
_symmetry_group_IT_number 15
_symmetry_cell_setting 'monoclinic'
loop_
_space_group_symop_operation_xyz
x,y,z
-x,y,1/2-z
-x,-y,-z
x,-y,1/2+z
1/2+x,1/2+y,z
1/2-x,1/2+y,1/2-z
1/2-x,1/2-y,-z
1/2+x,1/2-y,1/2+z
loop_
_atom_site_type_symbol
_atom_site_label
_atom_site_fract_x
_atom_site_fract_y
_atom_site_fract_z
Si Si1 0.500000 0.087240 0.750000
Si Si2 0.574914 0.582894 0.055163
Si Si3 0.599950 0.471965 0.175726
Si Si4 0.257663 0.839057 0.049620
Si Si5 0.824335 0.687954 0.132252
Si Si6 0.008536 0.744256 0.007084
O O1 0.683567 0.052388 0.765311
O O2 0.585048 0.126803 0.852287
O O3 0.608679 0.532718 0.134034
O O4 0.745799 0.626477 0.102105
O O5 0.523131 0.561410 0.936544
O O6 0.387943 0.617226 0.033881
O O7 0.500000 0.470212 0.250000
O O8 0.128883 0.797086 0.076216
O O9 0.354158 0.799008 0.003170
O O10 0.000000 0.691357 0.250000
O O11 0.898953 0.711090 0.055326
O O12 0.644829 0.727835 0.105366
#
# Coordination Sequence:
#
# PCOD9279330 Si02
#       6
#     4   8   8   8   8   8
#     4  10  22  36  62  90 110 158 208 236 294 362
#     4   9  21  41  55  86 123 142 206 248 285 364
#     4  10  22  41  62  86 118 160 198 257 298 340
#     4   9  19  38  56  81 118 148 189 246 286 354
#     4  10  21  35  57  86 117 155 186 238 295 355
#     4   9  20  37  55  85 117 149 193 234 293 352
#
# _framework density 17.954619000000001
#
# number of rings (size 3 to 8) (size 9 to 14) (size 15 to 20)
#    0.000    2.545    0.000    0.000    6.364    1.455 
#    0.000    2.727    0.000    0.000    0.000    0.000 
#    0.000    0.000    0.000    0.000    0.000    0.000 
#
# Total GULP energy -122491.886025 kJ/mol
# GULP energy per Si atom -5567.813001 kJ/mol
# Density = 1.791375 g / cm^3
# Si number density = 17.954619 Si / 1000 Ang^3
#
#
#
# Elastic Constant Matrix: (Units=GPa)
#
#
# Indices 1 2 3 4 5 6 
#
# 1 79.0513 56.4323 48.5305 0.0000 2.8231 0.0000
# 2 56.4323 140.9049 58.1369 0.0000 12.2242 0.0000
# 3 48.5305 58.1369 85.6368 0.0000 18.8491 0.0000
# 4 0.0000 0.0000 0.0000 17.8410 0.0000 2.8104
# 5 2.8231 12.2242 18.8491 0.0000 27.4983 0.0000
# 6 0.0000 0.0000 0.0000 2.8104 0.0000 33.4515
#
#
#
# Elastic Compliance Matrix: (Units=1/GPa)
#
#
# Indices 1 2 3 4 5 6 
#
# 1 0.022960 -0.005273 -0.011104 0.000000 0.007598 0.000000
# 2 -0.005273 0.011071 -0.004196 0.000000 -0.001504 0.000000
# 3 -0.011104 -0.004196 0.023739 0.000000 -0.013267 0.000000
# 4 0.000000 0.000000 0.000000 0.056803 0.000000 -0.004772
# 5 0.007598 -0.001504 -0.013267 0.000000 0.045348 0.000000
# 6 0.000000 0.000000 0.000000 -0.004772 0.000000 0.030295
#
#
# Mechanical properties :
#
#
# Convention : Reuss Voigt Hill
#
# Bulk Modulus (GPa) = 60.16043 70.19915 65.17979
# Shear Modulus (GPa) = 21.10570 25.25770 23.18170
#
# Velocity S-wave (km/s) = 3.43228 3.75474 3.59712
# Velocity P-wave (km/s) = 7.02048 7.61449 7.32351
#
# Compressibility (1/GPa) = 0.01662222
#
# Stress axis : x y z
#
# Youngs Moduli (GPa) = 43.55429 90.32811 42.12513
#
# Poissons Ratio (x) = 0.47631 0.46776
# Poissons Ratio (y) = 0.22967 0.17678
# Poissons Ratio (z) = 0.48363 0.37906
#
# Static dielectric constant tensor:
#      x y z
#    x 1.654070 0.000000 0.024130 
#    y 0.000000 1.611920 0.000000 
#    z 0.024130 0.000000 1.606100 
# 
# From -- ./inp_files/78707.got.cif
#   From: 2010.05.17/outbox.cif.g08.bks.cpg/sg15_40_cif.got.tgz:78707.got - 2010.06.03 18:47:42.
