data_PCOD9279365
_publ_section_title
;
Structure prediction by ZEFSAII (Michael W. Deem and Ramdas Pophale) SiO2 
 PCOD9279365
Probable space group: C 2/C
;
_chemical_formula_sum "Si O2"
_cell_formula_units_Z 60
_cell_length_a 27.120900
_cell_length_b 6.182640
_cell_length_c 17.900869
_cell_angle_alpha 90.000000
_cell_angle_beta 108.192503
_cell_angle_gamma 90.000000
_cell_volume 2851.554516
_symmetry_space_group_name_H-M "C 2/C"
_symmetry_group_IT_number 15
_symmetry_cell_setting 'monoclinic'
loop_
_space_group_symop_operation_xyz
x,y,z
-x,y,1/2-z
-x,-y,-z
x,-y,1/2+z
1/2+x,1/2+y,z
1/2-x,1/2+y,1/2-z
1/2-x,1/2-y,-z
1/2+x,1/2-y,1/2+z
loop_
_atom_site_type_symbol
_atom_site_label
_atom_site_fract_x
_atom_site_fract_y
_atom_site_fract_z
Si Si1 0.940205 0.053404 0.823044
Si Si2 0.402185 0.064231 0.204110
Si Si3 0.290616 0.443384 0.535938
Si Si4 0.500000 0.746139 0.250000
Si Si5 0.367981 0.104625 0.543405
Si Si6 0.863734 0.678760 0.821022
Si Si7 0.946209 0.609835 0.454055
Si Si8 0.712563 0.820557 0.086494
O O1 0.924748 0.219884 0.750451
O O2 0.954581 0.189355 0.902881
O O3 0.890021 0.908040 0.816754
O O4 0.986137 0.903032 0.814096
O O5 0.449920 0.896707 0.217776
O O6 0.378860 0.074481 0.111174
O O7 0.361852 0.959269 0.243978
O O8 0.250000 0.250000 0.500000
O O9 0.344445 0.318206 0.570441
O O10 0.291621 0.602445 0.464729
O O11 0.269300 0.580627 0.596136
O O12 0.416773 0.165917 0.516311
O O13 0.326139 0.995584 0.469062
O O14 0.907444 0.552250 0.891059
O O15 0.810392 0.702803 0.841521
O O16 0.000000 0.500000 0.500000
#
# Coordination Sequence:
#
# PCOD9279365 Si02
#       8
#     8   8   8   4   8   8   8   8
#     4  10  21  37  55  75 115 160 196 235 289 336
#     4  10  22  37  56  81 118 153 199 234 282 343
#     4   9  18  35  61  87 110 145 181 233 294 348
#     4  10  22  36  56  78 112 164 200 226 278 348
#     4  10  21  35  58  87 117 148 191 246 285 344
#     4   9  20  38  55  84 109 155 193 230 293 348
#     4  10  22  35  54  83 122 150 194 247 282 334
#     4   9  18  36  62  86 114 143 188 234 296 354
#
# _framework density 21.041155
#
# number of rings (size 3 to 8) (size 9 to 14) (size 15 to 20)
#    0.000    2.400    0.000    1.200    7.467    3.733 
#    2.400    0.000    8.800    0.000    0.000    0.000 
#    0.000    0.000    0.000    0.000    0.000    0.000 
#
# Total GULP energy -167467.537964 kJ/mol
# GULP energy per Si atom -5582.251265 kJ/mol
# Density = 2.099326 g / cm^3
# Si number density = 21.041155 Si / 1000 Ang^3
#
#
#
# Elastic Constant Matrix: (Units=GPa)
#
#
# Indices 1 2 3 4 5 6 
#
# 1 104.3463 28.5078 25.1647 0.0000 -42.5911 0.0000
# 2 28.5078 79.8784 4.8599 0.0000 -19.5192 0.0000
# 3 25.1647 4.8599 57.3561 0.0000 -24.4424 0.0000
# 4 0.0000 0.0000 0.0000 18.2361 0.0000 -10.1754
# 5 -42.5911 -19.5192 -24.4424 0.0000 29.9189 0.0000
# 6 0.0000 0.0000 0.0000 -10.1754 0.0000 17.3699
#
#
#
# Elastic Compliance Matrix: (Units=1/GPa)
#
#
# Indices 1 2 3 4 5 6 
#
# 1 0.024293 0.000812 0.006498 0.000000 0.040421 0.000000
# 2 0.000812 0.015687 0.004861 0.000000 0.015361 0.000000
# 3 0.006498 0.004861 0.029862 0.000000 0.036817 0.000000
# 4 0.000000 0.000000 0.000000 0.081465 0.000000 0.047723
# 5 0.040421 0.015361 0.036817 0.000000 0.131065 0.000000
# 6 0.000000 0.000000 0.000000 0.047723 0.000000 0.085527
#
#
# Mechanical properties :
#
#
# Convention : Reuss Voigt Hill
#
# Bulk Modulus (GPa) = 10.61753 39.84954 25.23353
# Shear Modulus (GPa) = 13.33505 25.30820 19.32162
#
# Velocity S-wave (km/s) = 2.52019 3.47190 3.03360
# Velocity P-wave (km/s) = 3.67771 5.92048 4.92837
#
# Compressibility (1/GPa) = 0.09418384
#
# Stress axis : x y z
#
# Youngs Moduli (GPa) = 41.16392 63.74620 33.48761
#
# Poissons Ratio (x) = -0.05176 -0.21761
# Poissons Ratio (y) = -0.03342 -0.16278
# Poissons Ratio (z) = -0.26749 -0.30986
#
# Static dielectric constant tensor:
#      x y z
#    x 1.782950 0.000000 -0.007680 
#    y 0.000000 1.763430 0.000000 
#    z -0.007680 0.000000 1.810660 
# 
# From -- ./inp_files/223668.got.cif
#   From: 2010.05.17/outbox.cif.g08.bks.cpg/sg15_112_cif.got.tgz:223668.got - 2010.06.03 18:47:42.
