data_PCOD9279835
_publ_section_title
;
Structure prediction by ZEFSAII (Michael W. Deem and Ramdas Pophale) SiO2 
 PCOD9279835
Probable space group: C 2/C
;
_chemical_formula_sum "Si O2"
_cell_formula_units_Z 64
_cell_length_a 27.884005
_cell_length_b 8.340185
_cell_length_c 13.786996
_cell_angle_alpha 90.000000
_cell_angle_beta 72.896052
_cell_angle_gamma 90.000000
_cell_volume 3064.468281
_symmetry_space_group_name_H-M "C 2/C"
_symmetry_group_IT_number 15
_symmetry_cell_setting 'monoclinic'
loop_
_space_group_symop_operation_xyz
x,y,z
-x,y,1/2-z
-x,-y,-z
x,-y,1/2+z
1/2+x,1/2+y,z
1/2-x,1/2+y,1/2-z
1/2-x,1/2-y,-z
1/2+x,1/2-y,1/2+z
loop_
_atom_site_type_symbol
_atom_site_label
_atom_site_fract_x
_atom_site_fract_y
_atom_site_fract_z
Si Si1 0.704438 0.587004 0.455828
Si Si2 0.178826 0.064917 0.775182
Si Si3 0.788177 0.615534 0.686909
Si Si4 0.111997 0.968867 0.148898
Si Si5 0.440868 0.876365 0.799801
Si Si6 0.899394 0.310664 0.429177
Si Si7 0.626238 0.124694 0.344293
Si Si8 0.787463 0.360586 0.416688
O O1 0.681188 0.468944 0.387770
O O2 0.709214 0.747316 0.393044
O O3 0.664638 0.575932 0.564874
O O4 0.760691 0.531794 0.446261
O O5 0.234846 0.027070 0.705764
O O6 0.132395 0.988851 0.745088
O O7 0.166432 0.252436 0.773911
O O8 0.838698 0.518030 0.643048
O O9 0.788199 0.669176 0.800342
O O10 0.079795 0.804048 0.161914
O O11 0.088099 0.132193 0.119892
O O12 0.500000 0.864768 0.750000
O O13 0.412860 0.917017 0.715532
O O14 0.428667 0.029250 0.876178
O O15 0.900130 0.304348 0.545252
O O16 0.842436 0.341674 0.426477
O O17 0.750000 0.250000 0.500000
#
# Coordination Sequence:
#
# PCOD9279835 Si02
#       8
#     8   8   8   8   8   8   8   8
#     4  11  22  35  60  97 136 182 224 262 329 408
#     4  10  21  36  59  94 140 177 220 266 323 411
#     4  11  22  36  58  95 140 186 223 271 331 399
#     4  11  24  43  69  99 135 180 225 282 342 409
#     4  11  28  51  72 100 133 173 239 303 348 401
#     4  12  23  45  70 100 138 180 228 277 351 417
#     4  11  23  43  67  96 137 178 228 284 340 416
#     4  11  21  36  62  97 141 189 224 263 330 420
#
# _framework density 20.884536000000001
#
# number of rings (size 3 to 8) (size 9 to 14) (size 15 to 20)
#    0.000    1.000    3.750    3.750    3.500    2.500 
#    0.000    0.625    0.000    0.000    0.000    0.000 
#    0.000    0.000    0.000    0.000    0.000    0.000 
#
# Total GULP energy -178654.992383 kJ/mol
# GULP energy per Si atom -5582.968512 kJ/mol
# Density = 2.083700 g / cm^3
# Si number density = 20.884536 Si / 1000 Ang^3
#
#
#
# Elastic Constant Matrix: (Units=GPa)
#
#
# Indices 1 2 3 4 5 6 
#
# 1 52.9722 28.6630 8.1903 0.0000 -21.8145 0.0000
# 2 28.6630 86.6583 11.2541 0.0000 -17.0891 0.0000
# 3 8.1903 11.2541 54.5117 0.0000 0.3125 0.0000
# 4 0.0000 0.0000 0.0000 39.6299 0.0000 -2.5559
# 5 -21.8145 -17.0891 0.3125 0.0000 23.8657 0.0000
# 6 0.0000 0.0000 0.0000 -2.5559 0.0000 23.0483
#
#
#
# Elastic Compliance Matrix: (Units=1/GPa)
#
#
# Indices 1 2 3 4 5 6 
#
# 1 0.033384 -0.005220 -0.004092 0.000000 0.026831 0.000000
# 2 -0.005220 0.014704 -0.002285 0.000000 0.005788 0.000000
# 3 -0.004092 -0.002285 0.019463 0.000000 -0.005631 0.000000
# 4 0.000000 0.000000 0.000000 0.025415 0.000000 0.002818
# 5 0.026831 0.005788 -0.005631 0.000000 0.070644 0.000000
# 6 0.000000 0.000000 0.000000 0.002818 0.000000 0.043700
#
#
# Mechanical properties :
#
#
# Convention : Reuss Voigt Hill
#
# Bulk Modulus (GPa) = 22.54340 32.26188 27.40264
# Shear Modulus (GPa) = 20.38410 27.04445 23.71427
#
# Velocity S-wave (km/s) = 3.12755 3.60245 3.37337
# Velocity P-wave (km/s) = 4.88465 5.72580 5.32187
#
# Compressibility (1/GPa) = 0.04435888
#
# Stress axis : x y z
#
# Youngs Moduli (GPa) = 29.95445 68.00842 51.37831
#
# Poissons Ratio (x) = 0.35498 0.21025
# Poissons Ratio (y) = 0.15635 0.11738
# Poissons Ratio (z) = 0.12258 0.15537
#
# Static dielectric constant tensor:
#      x y z
#    x 1.732920 0.000000 0.029880 
#    y 0.000000 1.865010 0.000000 
#    z 0.029880 0.000000 1.779730 
# 
# From -- ./inp_files/176557.got.cif
#   From: 2010.05.17/outbox.cif.g08.bks.cpg/sg15_89_cif.got.tgz:176557.got - 2010.06.03 18:47:42.
