data_PCOD9279852
_publ_section_title
;
Structure prediction by ZEFSAII (Michael W. Deem and Ramdas Pophale) SiO2 
 PCOD9279852
Probable space group: C 2/C
;
_chemical_formula_sum "Si O2"
_cell_formula_units_Z 48
_cell_length_a 15.691059
_cell_length_b 13.401924
_cell_length_c 14.786666
_cell_angle_alpha 90.000000
_cell_angle_beta 129.455825
_cell_angle_gamma 90.000000
_cell_volume 2400.885947
_symmetry_space_group_name_H-M "C 2/C"
_symmetry_group_IT_number 15
_symmetry_cell_setting 'monoclinic'
loop_
_space_group_symop_operation_xyz
x,y,z
-x,y,1/2-z
-x,-y,-z
x,-y,1/2+z
1/2+x,1/2+y,z
1/2-x,1/2+y,1/2-z
1/2-x,1/2-y,-z
1/2+x,1/2-y,1/2+z
loop_
_atom_site_type_symbol
_atom_site_label
_atom_site_fract_x
_atom_site_fract_y
_atom_site_fract_z
Si Si1 0.391326 0.562863 0.442503
Si Si2 0.639027 0.111704 0.675828
Si Si3 0.898274 0.307165 0.035037
Si Si4 0.188881 0.389281 0.710739
Si Si5 0.727102 0.612703 0.557396
Si Si6 0.213409 0.753228 0.578315
O O1 0.500000 0.500000 0.500000
O O2 0.317319 0.573715 0.301428
O O3 0.319258 0.498213 0.464714
O O4 0.394589 0.674828 0.482513
O O5 0.526457 0.168279 0.623236
O O6 0.728400 0.137781 0.812469
O O7 0.683975 0.150882 0.609787
O O8 0.621870 0.992661 0.671642
O O9 0.850767 0.335674 0.905140
O O10 0.866557 0.192305 0.032151
O O11 0.829192 0.372734 0.059618
O O12 0.194779 0.313637 0.799828
O O13 0.250000 0.750000 0.500000
#
# Coordination Sequence:
#
# PCOD9279852 Si02
#       6
#     8   8   8   8   8   8
#     4   9  19  39  62  85 124 165 203 257 320 376
#     4  11  21  39  62  84 127 164 207 260 326 380
#     4  11  21  37  61  90 119 163 207 259 322 373
#     4   9  22  37  61  88 124 158 206 265 307 388
#     4  10  21  36  60  87 122 153 209 263 304 382
#     4  10  22  40  63  89 128 166 212 267 318 381
#
# _framework density 19.992619999999999
#
# number of rings (size 3 to 8) (size 9 to 14) (size 15 to 20)
#    1.000    1.000    1.667    2.000    2.333    0.000 
#    0.000    3.333    0.000    0.000    0.000    0.000 
#    0.000    0.000    0.000    0.000    0.000    0.000 
#
# Total GULP energy -133639.505330 kJ/mol
# GULP energy per Si atom -5568.312722 kJ/mol
# Density = 1.994712 g / cm^3
# Si number density = 19.992620 Si / 1000 Ang^3
#
#
#
# Elastic Constant Matrix: (Units=GPa)
#
#
# Indices 1 2 3 4 5 6 
#
# 1 53.1742 5.5080 3.9895 0.0000 -17.2975 0.0000
# 2 5.5080 60.4104 -2.3324 0.0000 -5.8195 0.0000
# 3 3.9895 -2.3324 30.4163 0.0000 -10.8978 0.0000
# 4 0.0000 0.0000 0.0000 19.6323 0.0000 -4.5006
# 5 -17.2975 -5.8195 -10.8978 0.0000 30.6929 0.0000
# 6 0.0000 0.0000 0.0000 -4.5006 0.0000 18.6647
#
#
#
# Elastic Compliance Matrix: (Units=1/GPa)
#
#
# Indices 1 2 3 4 5 6 
#
# 1 0.023153 -0.000740 0.001754 0.000000 0.013531 0.000000
# 2 -0.000740 0.017095 0.002772 0.000000 0.003809 0.000000
# 3 0.001754 0.002772 0.038271 0.000000 0.015103 0.000000
# 4 0.000000 0.000000 0.000000 0.053917 0.000000 0.013001
# 5 0.013531 0.003809 0.015103 0.000000 0.046291 0.000000
# 6 0.000000 0.000000 0.000000 0.013001 0.000000 0.056712
#
#
# Mechanical properties :
#
#
# Convention : Reuss Voigt Hill
#
# Bulk Modulus (GPa) = 11.61544 17.59236 14.60390
# Shear Modulus (GPa) = 19.48856 22.92039 21.20448
#
# Velocity S-wave (km/s) = 3.12555 3.38959 3.26024
# Velocity P-wave (km/s) = 4.34141 4.91300 4.63603
#
# Compressibility (1/GPa) = 0.08609227
#
# Stress axis : x y z
#
# Youngs Moduli (GPa) = 43.19167 58.49723 26.12969
#
# Poissons Ratio (x) = 0.04328 -0.04584
# Poissons Ratio (y) = 0.03195 -0.07244
# Poissons Ratio (z) = -0.07577 -0.16218
#
# Static dielectric constant tensor:
#      x y z
#    x 1.703430 0.000000 0.019210 
#    y 0.000000 1.742630 0.000000 
#    z 0.019210 0.000000 1.707410 
# 
# From -- ./inp_files/154097.got.cif
#   From: 2010.05.17/outbox.cif.g08.bks.cpg/sg15_78_cif.got.tgz:154097.got - 2010.06.03 18:47:42.
