data_PCOD9279041
_publ_section_title
;
Structure prediction by ZEFSAII (Michael W. Deem and Ramdas Pophale) SiO2 
 PCOD9279041
Probable space group: C 2/C
;
_chemical_formula_sum "Si O2"
_cell_formula_units_Z 56
_cell_length_a 8.627828
_cell_length_b 27.553651
_cell_length_c 16.279842
_cell_angle_alpha 90.000000
_cell_angle_beta 50.887315
_cell_angle_gamma 90.000000
_cell_volume 3002.896425
_symmetry_space_group_name_H-M "C 2/C"
_symmetry_group_IT_number 15
_symmetry_cell_setting 'monoclinic'
loop_
_space_group_symop_operation_xyz
x,y,z
-x,y,1/2-z
-x,-y,-z
x,-y,1/2+z
1/2+x,1/2+y,z
1/2-x,1/2+y,1/2-z
1/2-x,1/2-y,-z
1/2+x,1/2-y,1/2+z
loop_
_atom_site_type_symbol
_atom_site_label
_atom_site_fract_x
_atom_site_fract_y
_atom_site_fract_z
Si Si1 0.720661 0.308780 0.714838
Si Si2 0.289333 0.089716 0.273595
Si Si3 0.490709 0.627649 0.849400
Si Si4 0.151520 0.701414 0.775186
Si Si5 0.514106 0.951427 0.942004
Si Si6 0.911933 0.948139 0.507166
Si Si7 0.541167 0.844999 0.482067
O O1 0.500000 0.314206 0.750000
O O2 0.761330 0.354985 0.757317
O O3 0.720282 0.257199 0.760370
O O4 0.892889 0.313921 0.588327
O O5 0.500000 0.085331 0.250000
O O6 0.312853 0.055857 0.184696
O O7 0.117821 0.076922 0.394902
O O8 0.500000 0.611436 0.750000
O O9 0.656519 0.668366 0.805105
O O10 0.270699 0.650715 0.936697
O O11 0.527337 0.584460 0.901794
O O12 0.050013 0.679244 0.890128
O O13 0.000000 0.699421 0.750000
O O14 0.306042 0.951869 0.961673
O O15 0.524975 0.901810 0.992083
O O16 0.500000 0.000000 0.000000
O O17 0.000000 0.000000 0.500000
#
# Coordination Sequence:
#
# PCOD9279041 Si02
#       7
#     8   8   8   8   8   8   8
#     4  10  22  37  56  83 112 144 181 226 280 328
#     4   9  20  37  54  78 108 140 186 229 265 325
#     4   9  20  39  57  78 112 149 184 221 270 332
#     4  10  22  36  56  85 111 141 184 231 274 322
#     4   9  19  37  57  76 106 145 180 223 275 325
#     4  10  21  34  54  83 108 137 181 229 270 318
#     4   9  20  39  56  78 112 147 184 221 269 333
#
# _framework density 18.648662999999999
#
# number of rings (size 3 to 8) (size 9 to 14) (size 15 to 20)
#    0.000    2.571    0.000    0.857    0.000   13.714 
#    0.000    1.429    0.000    0.000    0.000    0.000 
#    0.000    0.000    0.000    0.000    0.000    0.000 
#
# Total GULP energy -156016.089307 kJ/mol
# GULP energy per Si atom -5572.003190 kJ/mol
# Density = 1.860622 g / cm^3
# Si number density = 18.648663 Si / 1000 Ang^3
#
#
#
# Elastic Constant Matrix: (Units=GPa)
#
#
# Indices 1 2 3 4 5 6 
#
# 1 21.4691 31.1682 38.6097 0.0000 13.9249 0.0000
# 2 31.1682 123.6855 77.4263 0.0000 33.5941 0.0000
# 3 38.6097 77.4263 126.7900 0.0000 12.7590 0.0000
# 4 0.0000 0.0000 0.0000 14.2297 0.0000 3.9626
# 5 13.9249 33.5941 12.7590 0.0000 21.7163 0.0000
# 6 0.0000 0.0000 0.0000 3.9626 0.0000 32.8475
#
#
#
# Elastic Compliance Matrix: (Units=1/GPa)
#
#
# Indices 1 2 3 4 5 6 
#
# 1 0.238773 0.027723 -0.074311 0.000000 -0.152333 0.000000
# 2 0.027723 0.026040 -0.019664 0.000000 -0.046506 0.000000
# 3 -0.074311 -0.019664 0.036846 0.000000 0.056420 0.000000
# 4 0.000000 0.000000 0.000000 0.072718 0.000000 -0.008773
# 5 -0.152333 -0.046506 0.056420 0.000000 0.182521 0.000000
# 6 0.000000 0.000000 0.000000 -0.008773 0.000000 0.031502
#
#
# Mechanical properties :
#
#
# Convention : Reuss Voigt Hill
#
# Bulk Modulus (GPa) = 5.91168 62.92811 34.41989
# Shear Modulus (GPa) = 6.43261 22.07474 14.25367
#
# Velocity S-wave (km/s) = 1.85926 3.44425 2.76765
# Velocity P-wave (km/s) = 2.79035 7.04517 5.35819
#
# Compressibility (1/GPa) = 0.16915673
#
# Stress axis : x y z
#
# Youngs Moduli (GPa) = 4.18807 38.40284 27.13971
#
# Poissons Ratio (x) = -1.06465 2.01677
# Poissons Ratio (y) = -0.11611 0.53367
# Poissons Ratio (z) = 0.31122 0.75515
#
# Static dielectric constant tensor:
#      x y z
#    x 1.637820 0.000000 0.007740 
#    y 0.000000 1.628320 0.000000 
#    z 0.007740 0.000000 1.673110 
# 
# From -- ./inp_files/193186.got.cif
#   From: 2010.05.17/outbox.cif.g08.bks.cpg/sg15_97_cif.got.tgz:193186.got - 2010.06.03 18:47:42.
