data_PCOD9279392
_publ_section_title
;
Structure prediction by ZEFSAII (Michael W. Deem and Ramdas Pophale) SiO2 
 PCOD9279392
Probable space group: C 2/C
;
_chemical_formula_sum "Si O2"
_cell_formula_units_Z 40
_cell_length_a 22.032580
_cell_length_b 7.722772
_cell_length_c 19.891657
_cell_angle_alpha 90.000000
_cell_angle_beta 152.347330
_cell_angle_gamma 90.000000
_cell_volume 1570.836270
_symmetry_space_group_name_H-M "C 2/C"
_symmetry_group_IT_number 15
_symmetry_cell_setting 'monoclinic'
loop_
_space_group_symop_operation_xyz
x,y,z
-x,y,1/2-z
-x,-y,-z
x,-y,1/2+z
1/2+x,1/2+y,z
1/2-x,1/2+y,1/2-z
1/2-x,1/2-y,-z
1/2+x,1/2-y,1/2+z
loop_
_atom_site_type_symbol
_atom_site_label
_atom_site_fract_x
_atom_site_fract_y
_atom_site_fract_z
Si Si1 0.516908 0.308876 0.985751
Si Si2 0.023669 0.262417 0.909454
Si Si3 0.332929 0.605870 0.981194
Si Si4 0.730403 0.363242 0.414292
Si Si5 0.090111 0.776405 0.765244
O O1 0.492092 0.197092 0.027275
O O2 0.500000 0.500000 0.000000
O O3 0.654123 0.307141 0.080405
O O4 0.423387 0.286654 0.830422
O O5 0.878480 0.236617 0.737994
O O6 0.102185 0.082453 0.967515
O O7 0.126927 0.393309 0.978286
O O8 0.435363 0.713312 0.128582
O O9 0.189224 0.618252 0.870064
O O10 0.750000 0.250000 0.500000
O O11 0.661819 0.547447 0.356944
#
# Coordination Sequence:
#
# PCOD9279392 Si02
#       5
#     8   8   8   8   8
#     4   8  16  33  56  83 122 142 183 229 306 340
#     4  10  21  35  59  81 116 155 187 240 288 341
#     4   8  18  34  54  85 116 141 184 238 297 345
#     4  11  23  39  55  81 115 158 199 231 281 345
#     4   9  19  34  59  84 118 148 185 242 288 344
#
# _framework density 25.464143
#
# number of rings (size 3 to 8) (size 9 to 14) (size 15 to 20)
#    1.200    1.600    2.000    0.600    2.800    1.600 
#    0.000    2.000    0.000    2.400    0.000    0.000 
#    0.000    0.000    0.000    0.000    0.000    0.000 
#
# Total GULP energy -111483.035314 kJ/mol
# GULP energy per Si atom -5574.151766 kJ/mol
# Density = 2.540619 g / cm^3
# Si number density = 25.464143 Si / 1000 Ang^3
#
#
#
# Elastic Constant Matrix: (Units=GPa)
#
#
# Indices 1 2 3 4 5 6 
#
# 1 91.3151 -4.9512 10.0930 0.0000 -2.4332 0.0000
# 2 -4.9512 63.6160 12.3907 0.0000 -5.6566 0.0000
# 3 10.0930 12.3907 96.7261 0.0000 -6.0812 0.0000
# 4 0.0000 0.0000 0.0000 36.5043 0.0000 10.3143
# 5 -2.4332 -5.6566 -6.0812 0.0000 43.1683 0.0000
# 6 0.0000 0.0000 0.0000 10.3143 0.0000 33.4053
#
#
#
# Elastic Compliance Matrix: (Units=1/GPa)
#
#
# Indices 1 2 3 4 5 6 
#
# 1 0.011172 0.001172 -0.001278 0.000000 0.000603 0.000000
# 2 0.001172 0.016390 -0.002101 0.000000 0.001918 0.000000
# 3 -0.001278 -0.002101 0.010815 0.000000 0.001176 0.000000
# 4 0.000000 0.000000 0.000000 0.030012 0.000000 -0.009267
# 5 0.000603 0.001918 0.001176 0.000000 0.023616 0.000000
# 6 0.000000 0.000000 0.000000 -0.009267 0.000000 0.032797
#
#
# Mechanical properties :
#
#
# Convention : Reuss Voigt Hill
#
# Bulk Modulus (GPa) = 29.44402 31.85803 30.65102
# Shear Modulus (GPa) = 35.57763 38.22389 36.90076
#
# Velocity S-wave (km/s) = 3.74192 3.87859 3.81087
# Velocity P-wave (km/s) = 5.50067 5.70929 5.60595
#
# Compressibility (1/GPa) = 0.03396275
#
# Stress axis : x y z
#
# Youngs Moduli (GPa) = 89.50978 61.01155 92.46456
#
# Poissons Ratio (x) = -0.07151 0.11817
# Poissons Ratio (y) = -0.10491 0.19430
# Poissons Ratio (z) = 0.11439 0.12821
#
# Static dielectric constant tensor:
#      x y z
#    x 2.212240 0.000000 -0.032900 
#    y 0.000000 2.112780 0.000000 
#    z -0.032900 0.000000 2.076250 
# 
# From -- ./inp_files/255112.got.cif
#   From: 2010.05.17/outbox.cif.g08.bks.cpg/sg15_128_cif.got.tgz:255112.got - 2010.06.03 18:47:42.
