data_PCOD9279871
_publ_section_title
;
Structure prediction by ZEFSAII (Michael W. Deem and Ramdas Pophale) SiO2 
 PCOD9279871
Probable space group: C 2/C
;
_chemical_formula_sum "Si O2"
_cell_formula_units_Z 56
_cell_length_a 10.522716
_cell_length_b 23.727919
_cell_length_c 12.281550
_cell_angle_alpha 90.000000
_cell_angle_beta 107.353653
_cell_angle_gamma 90.000000
_cell_volume 2926.903366
_symmetry_space_group_name_H-M "C 2/C"
_symmetry_group_IT_number 15
_symmetry_cell_setting 'monoclinic'
loop_
_space_group_symop_operation_xyz
x,y,z
-x,y,1/2-z
-x,-y,-z
x,-y,1/2+z
1/2+x,1/2+y,z
1/2-x,1/2+y,1/2-z
1/2-x,1/2-y,-z
1/2+x,1/2-y,1/2+z
loop_
_atom_site_type_symbol
_atom_site_label
_atom_site_fract_x
_atom_site_fract_y
_atom_site_fract_z
Si Si1 0.173685 0.034429 0.551771
Si Si2 0.845165 0.395789 0.240266
Si Si3 0.481316 0.162018 0.069056
Si Si4 0.776187 0.669415 0.208707
Si Si5 0.399347 0.219382 0.825142
Si Si6 0.427437 0.434790 0.846994
Si Si7 0.126024 0.459059 0.034839
O O1 0.270340 0.083239 0.615608
O O2 0.045269 0.063651 0.466486
O O3 0.135776 0.995848 0.645518
O O4 0.252545 0.991229 0.493022
O O5 0.805518 0.333964 0.271012
O O6 0.832429 0.440267 0.334220
O O7 0.000000 0.393088 0.250000
O O8 0.375915 0.180661 0.133769
O O9 0.627602 0.162511 0.161137
O O10 0.468911 0.199275 0.955991
O O11 0.430087 0.098667 0.031547
O O12 0.680373 0.723032 0.188203
O O13 0.683966 0.613766 0.170607
O O14 0.500000 0.225698 0.750000
O O15 0.500000 0.429940 0.750000
O O16 0.000000 0.500000 0.000000
#
# Coordination Sequence:
#
# PCOD9279871 Si02
#       7
#     8   8   8   8   8   8   8
#     4  11  23  40  59  90 130 163 200 257 316 377
#     4  10  21  36  60  91 121 157 204 253 310 371
#     4  10  24  41  67  94 122 164 219 262 312 376
#     4  11  23  43  66  91 123 169 214 264 313 374
#     4  10  23  42  61  93 126 160 208 263 319 376
#     4  11  25  39  60  89 126 164 209 252 314 383
#     4  11  21  36  65  94 123 162 202 257 311 373
#
# _framework density 19.132849
#
# number of rings (size 3 to 8) (size 9 to 14) (size 15 to 20)
#    0.000    1.429    2.857    1.714    4.000    1.714 
#    0.000    0.000    0.000    0.000    0.000    0.000 
#    0.000    0.000    0.000    0.000    0.000    0.000 
#
# Total GULP energy -156184.072873 kJ/mol
# GULP energy per Si atom -5578.002603 kJ/mol
# Density = 1.908930 g / cm^3
# Si number density = 19.132849 Si / 1000 Ang^3
#
#
#
# Elastic Constant Matrix: (Units=GPa)
#
#
# Indices 1 2 3 4 5 6 
#
# 1 84.5536 42.7412 49.0798 0.0000 10.6608 0.0000
# 2 42.7412 80.6553 77.5626 0.0000 25.7314 0.0000
# 3 49.0798 77.5626 109.5214 0.0000 13.1530 0.0000
# 4 0.0000 0.0000 0.0000 18.7826 0.0000 -15.4216
# 5 10.6608 25.7314 13.1530 0.0000 37.3423 0.0000
# 6 0.0000 0.0000 0.0000 -15.4216 0.0000 -42.2070
#
#
#
# Elastic Compliance Matrix: (Units=1/GPa)
#
#
# Indices 1 2 3 4 5 6 
#
# 1 0.016645 -0.005303 -0.003730 0.000000 0.000216 0.000000
# 2 -0.005303 0.056665 -0.034715 0.000000 -0.025305 0.000000
# 3 -0.003730 -0.034715 0.033817 0.000000 0.013074 0.000000
# 4 0.000000 0.000000 0.000000 0.040954 0.000000 -0.014964
# 5 0.000216 -0.025305 0.013074 0.000000 0.039549 0.000000
# 6 0.000000 0.000000 0.000000 -0.014964 0.000000 -0.018225
#
#
# Mechanical properties :
#
#
# Convention : Reuss Voigt Hill
#
# Bulk Modulus (GPa) = 50.93593 68.16638 59.55115
# Shear Modulus (GPa) = 18.97941 9.80668 14.39305
#
# Velocity S-wave (km/s) = 3.15299 2.26643 2.74573
# Velocity P-wave (km/s) = 6.31943 6.52336 6.42220
#
# Compressibility (1/GPa) = 0.01963251
#
# Stress axis : x y z
#
# Youngs Moduli (GPa) = 60.07795 17.64756 29.57129
#
# Poissons Ratio (x) = 0.09358 0.11029
# Poissons Ratio (y) = 0.31859 1.02656
# Poissons Ratio (z) = 0.22406 0.61263
#
# Static dielectric constant tensor:
#      x y z
#    x 1.664920 0.000000 -0.031790 
#    y 0.000000 1.668840 0.000000 
#    z -0.031790 0.000000 1.676540 
# 
# From -- ./inp_files/90926.got.cif
#   From: 2010.05.17/outbox.cif.g08.bks.cpg/sg15_46_cif.got.tgz:90926.got - 2010.06.03 18:47:42.
