data_PCOD9279967
_publ_section_title
;
Structure prediction by ZEFSAII (Michael W. Deem and Ramdas Pophale) SiO2 
 PCOD9279967
Probable space group: C 2/C
;
_chemical_formula_sum "Si O2"
_cell_formula_units_Z 48
_cell_length_a 14.939082
_cell_length_b 21.597495
_cell_length_c 11.699833
_cell_angle_alpha 90.000000
_cell_angle_beta 139.292626
_cell_angle_gamma 90.000000
_cell_volume 2461.983100
_symmetry_space_group_name_H-M "C 2/C"
_symmetry_group_IT_number 15
_symmetry_cell_setting 'monoclinic'
loop_
_space_group_symop_operation_xyz
x,y,z
-x,y,1/2-z
-x,-y,-z
x,-y,1/2+z
1/2+x,1/2+y,z
1/2-x,1/2+y,1/2-z
1/2-x,1/2-y,-z
1/2+x,1/2-y,1/2+z
loop_
_atom_site_type_symbol
_atom_site_label
_atom_site_fract_x
_atom_site_fract_y
_atom_site_fract_z
Si Si1 0.163051 0.054205 0.189151
Si Si2 0.462205 0.205262 0.339107
Si Si3 0.264430 0.314725 0.189605
Si Si4 0.632682 0.421891 0.051652
Si Si5 0.227250 0.397026 0.932904
Si Si6 0.343802 0.035476 0.564751
O O1 0.170413 0.086227 0.071821
O O2 0.299993 0.059174 0.397303
O O3 0.148174 0.981135 0.150508
O O4 0.030336 0.078409 0.128606
O O5 0.500000 0.230965 0.250000
O O6 0.349052 0.251501 0.276869
O O7 0.602660 0.199088 0.543582
O O8 0.396945 0.138431 0.250134
O O9 0.319819 0.361061 0.337694
O O10 0.279245 0.350061 0.080978
O O11 0.733970 0.435068 0.045374
O O12 0.180118 0.461291 0.944749
O O13 0.500000 0.049177 0.750000
#
# Coordination Sequence:
#
# PCOD9279967 Si02
#       6
#     8   8   8   8   8   8
#     4  10  22  38  59  88 122 163 195 236 308 351
#     4  10  22  36  57  89 121 160 193 241 299 351
#     4  11  22  39  59  92 124 155 198 243 298 358
#     4  10  23  37  59  88 123 161 194 250 288 362
#     4  10  21  36  62  89 127 154 193 245 295 367
#     4  11  22  38  61  89 121 159 201 244 298 354
#
# _framework density 19.496479000000001
#
# number of rings (size 3 to 8) (size 9 to 14) (size 15 to 20)
#    0.000    1.667    1.667    4.000    7.000    1.333 
#    0.000    0.000    0.000    1.000    0.000    0.000 
#    0.000    0.000    0.000    0.000    0.000    0.000 
#
# Total GULP energy -133941.892263 kJ/mol
# GULP energy per Si atom -5580.912178 kJ/mol
# Density = 1.945210 g / cm^3
# Si number density = 19.496479 Si / 1000 Ang^3
#
#
#
# Elastic Constant Matrix: (Units=GPa)
#
#
# Indices 1 2 3 4 5 6 
#
# 1 48.1296 20.7915 14.1076 0.0000 8.6646 0.0000
# 2 20.7915 58.6896 25.8128 0.0000 1.7301 0.0000
# 3 14.1076 25.8128 99.7099 0.0000 8.2259 0.0000
# 4 0.0000 0.0000 0.0000 14.1521 0.0000 2.2208
# 5 8.6646 1.7301 8.2259 0.0000 21.2428 0.0000
# 6 0.0000 0.0000 0.0000 2.2208 0.0000 21.3141
#
#
#
# Elastic Compliance Matrix: (Units=1/GPa)
#
#
# Indices 1 2 3 4 5 6 
#
# 1 0.026559 -0.008828 -0.000659 0.000000 -0.009859 0.000000
# 2 -0.008828 0.022166 -0.004790 0.000000 0.003651 0.000000
# 3 -0.000659 -0.004790 0.011681 0.000000 -0.003864 0.000000
# 4 0.000000 0.000000 0.000000 0.071835 0.000000 -0.007485
# 5 -0.009859 0.003651 -0.003864 0.000000 0.052295 0.000000
# 6 0.000000 0.000000 0.000000 -0.007485 0.000000 0.047697
#
#
# Mechanical properties :
#
#
# Convention : Reuss Voigt Hill
#
# Bulk Modulus (GPa) = 31.39656 36.43921 33.91788
# Shear Modulus (GPa) = 18.42265 21.06297 19.74281
#
# Velocity S-wave (km/s) = 3.07729 3.29043 3.18564
# Velocity P-wave (km/s) = 5.36330 5.75905 5.56469
#
# Compressibility (1/GPa) = 0.03185062
#
# Stress axis : x y z
#
# Youngs Moduli (GPa) = 37.65211 45.11496 85.60740
#
# Poissons Ratio (x) = 0.39829 0.05641
# Poissons Ratio (y) = 0.33241 0.41008
# Poissons Ratio (z) = 0.02481 0.21611
#
# Static dielectric constant tensor:
#      x y z
#    x 1.720270 0.000000 0.017200 
#    y 0.000000 1.653800 0.000000 
#    z 0.017200 0.000000 1.690100 
# 
# From -- ./inp_files/50426.got.cif
#   From: 2010.05.17/outbox.cif.g08.bks.cpg/sg15_26_cif.got.tgz:50426.got - 2010.06.03 18:47:42.
