data_PCOD9279078
_publ_section_title
;
Structure prediction by ZEFSAII (Michael W. Deem and Ramdas Pophale) SiO2 
 PCOD9279078
Probable space group: C 2/C
;
_chemical_formula_sum "Si O2"
_cell_formula_units_Z 56
_cell_length_a 5.093097
_cell_length_b 19.115442
_cell_length_c 28.077771
_cell_angle_alpha 90.000000
_cell_angle_beta 70.994160
_cell_angle_gamma 90.000000
_cell_volume 2584.542871
_symmetry_space_group_name_H-M "C 2/C"
_symmetry_group_IT_number 15
_symmetry_cell_setting 'monoclinic'
loop_
_space_group_symop_operation_xyz
x,y,z
-x,y,1/2-z
-x,-y,-z
x,-y,1/2+z
1/2+x,1/2+y,z
1/2-x,1/2+y,1/2-z
1/2-x,1/2-y,-z
1/2+x,1/2-y,1/2+z
loop_
_atom_site_type_symbol
_atom_site_label
_atom_site_fract_x
_atom_site_fract_y
_atom_site_fract_z
Si Si1 0.806037 0.908414 0.552266
Si Si2 0.652342 0.185310 0.141071
Si Si3 0.121270 0.498114 0.372092
Si Si4 0.440197 0.383602 0.809247
Si Si5 0.766173 0.034680 0.959284
Si Si6 0.646569 0.675954 0.694226
Si Si7 0.644829 0.918987 0.194689
O O1 0.811505 0.838790 0.583468
O O2 0.515979 0.940893 0.587838
O O3 0.840543 0.905117 0.493168
O O4 0.013551 0.971423 0.553982
O O5 0.328536 0.163858 0.162327
O O6 0.675437 0.266387 0.152265
O O7 0.804401 0.142351 0.174189
O O8 0.361179 0.537070 0.328801
O O9 0.208350 0.444320 0.408451
O O10 0.898880 0.468217 0.348156
O O11 0.500000 0.379198 0.750000
O O12 0.500000 0.000000 0.000000
O O13 0.500000 0.707953 0.750000
O O14 0.442135 0.612743 0.690675
O O15 0.941280 0.645859 0.693329
O O16 0.500000 0.952234 0.250000
#
# Coordination Sequence:
#
# PCOD9279078 Si02
#       7
#     8   8   8   8   8   8   8
#     4   9  19  33  58  87 111 141 187 234 301 347
#     4  11  21  37  58  83 115 149 193 242 287 342
#     4  10  21  34  56  82 119 147 187 231 289 347
#     4  11  22  33  53  86 118 148 181 234 301 347
#     4   9  17  35  55  84 112 145 180 231 295 361
#     4  10  21  38  56  77 109 157 204 234 271 327
#     4  10  23  38  56  80 113 160 201 231 270 335
#
# _framework density 21.667275
#
# number of rings (size 3 to 8) (size 9 to 14) (size 15 to 20)
#    0.000    2.000    1.429    2.143    2.000    5.143 
#    0.000    0.000    0.000    1.714    0.000    0.000 
#    0.000    0.000    0.000    0.000    0.000    0.000 
#
# Total GULP energy -156225.227846 kJ/mol
# GULP energy per Si atom -5579.472423 kJ/mol
# Density = 2.161796 g / cm^3
# Si number density = 21.667275 Si / 1000 Ang^3
#
#
#
# Elastic Constant Matrix: (Units=GPa)
#
#
# Indices 1 2 3 4 5 6 
#
# 1 41.2443 -5.7785 9.4060 0.0000 6.2822 0.0000
# 2 -5.7785 34.5796 0.2059 0.0000 3.1142 0.0000
# 3 9.4060 0.2059 79.1026 0.0000 16.5558 0.0000
# 4 0.0000 0.0000 0.0000 32.3146 0.0000 3.0343
# 5 6.2822 3.1142 16.5558 0.0000 39.0359 0.0000
# 6 0.0000 0.0000 0.0000 3.0343 0.0000 19.6661
#
#
#
# Elastic Compliance Matrix: (Units=1/GPa)
#
#
# Indices 1 2 3 4 5 6 
#
# 1 0.025980 0.004676 -0.002358 0.000000 -0.003554 0.000000
# 2 0.004676 0.029984 0.000026 0.000000 -0.003156 0.000000
# 3 -0.002358 0.000026 0.014094 0.000000 -0.005600 0.000000
# 4 0.000000 0.000000 0.000000 0.031401 0.000000 -0.004845
# 5 -0.003554 -0.003156 -0.005600 0.000000 0.028816 0.000000
# 6 0.000000 0.000000 0.000000 -0.004845 0.000000 0.051596
#
#
# Mechanical properties :
#
#
# Convention : Reuss Voigt Hill
#
# Bulk Modulus (GPa) = 13.37843 18.06592 15.72218
# Shear Modulus (GPa) = 24.74044 28.27620 26.50832
#
# Velocity S-wave (km/s) = 3.38277 3.61642 3.50155
# Velocity P-wave (km/s) = 4.63092 5.07878 4.86001
#
# Compressibility (1/GPa) = 0.07474718
#
# Stress axis : x y z
#
# Youngs Moduli (GPa) = 38.49138 33.35094 70.95125
#
# Poissons Ratio (x) = -0.15593 0.16727
# Poissons Ratio (y) = -0.17997 -0.00188
# Poissons Ratio (z) = 0.09074 -0.00088
#
# Static dielectric constant tensor:
#      x y z
#    x 1.873500 0.000000 0.021340 
#    y 0.000000 1.845110 0.000000 
#    z 0.021340 0.000000 1.857050 
# 
# From -- ./inp_files/261181.got.cif
#   From: 2010.05.17/outbox.cif.g08.bks.cpg/sg15_131_cif.got.tgz:261181.got - 2010.06.03 18:47:42.
