data_PCOD9279940
_publ_section_title
;
Structure prediction by ZEFSAII (Michael W. Deem and Ramdas Pophale) SiO2 
 PCOD9279940
Probable space group: C 2/C
;
_chemical_formula_sum "Si O2"
_cell_formula_units_Z 40
_cell_length_a 9.592022
_cell_length_b 27.711641
_cell_length_c 10.154103
_cell_angle_alpha 90.000000
_cell_angle_beta 46.552645
_cell_angle_gamma 90.000000
_cell_volume 1959.541702
_symmetry_space_group_name_H-M "C 2/C"
_symmetry_group_IT_number 15
_symmetry_cell_setting 'monoclinic'
loop_
_space_group_symop_operation_xyz
x,y,z
-x,y,1/2-z
-x,-y,-z
x,-y,1/2+z
1/2+x,1/2+y,z
1/2-x,1/2+y,1/2-z
1/2-x,1/2-y,-z
1/2+x,1/2-y,1/2+z
loop_
_atom_site_type_symbol
_atom_site_label
_atom_site_fract_x
_atom_site_fract_y
_atom_site_fract_z
Si Si1 0.137933 0.007129 0.535932
Si Si2 0.328504 0.196537 0.464170
Si Si3 0.230506 0.904590 0.416141
Si Si4 0.017693 0.368117 0.029777
Si Si5 0.204093 0.892544 0.891443
O O1 0.241462 0.057742 0.444860
O O2 0.000000 0.010376 0.750000
O O3 0.257862 0.957755 0.461682
O O4 0.000000 0.000000 0.500000
O O5 0.500000 0.195158 0.250000
O O6 0.250000 0.250000 0.500000
O O7 0.413084 0.180836 0.550360
O O8 0.197636 0.152585 0.496003
O O9 0.348746 0.900567 0.203337
O O10 0.324701 0.866777 0.456422
O O11 0.005675 0.895972 0.539548
O O12 0.133324 0.386464 0.826284
#
# Coordination Sequence:
#
# PCOD9279940 Si02
#       5
#     8   8   8   8   8
#     4  10  21  36  61  96 128 174 219 249 317 384
#     4  10  24  42  65  91 119 159 212 268 319 381
#     4  10  21  39  66  87 133 170 201 264 308 387
#     4  10  22  41  59  97 121 164 219 255 323 375
#     4  10  22  40  64  89 129 167 212 261 309 380
#
# _framework density 20.412935999999998
#
# number of rings (size 3 to 8) (size 9 to 14) (size 15 to 20)
#    0.000    2.000    0.000    3.000    8.400    0.800 
#   10.800    1.000    4.400    0.000    0.000    0.000 
#    0.000    0.000    0.000    0.000    0.000    0.000 
#
# Total GULP energy -111524.716472 kJ/mol
# GULP energy per Si atom -5576.235824 kJ/mol
# Density = 2.036648 g / cm^3
# Si number density = 20.412936 Si / 1000 Ang^3
#
#
#
# Elastic Constant Matrix: (Units=GPa)
#
#
# Indices 1 2 3 4 5 6 
#
# 1 88.4255 63.1838 23.8133 0.0000 8.5017 0.0000
# 2 63.1838 157.7033 36.0679 0.0000 1.0093 0.0000
# 3 23.8133 36.0679 127.9559 0.0000 7.9593 0.0000
# 4 0.0000 0.0000 0.0000 17.1834 0.0000 -1.1641
# 5 8.5017 1.0093 7.9593 0.0000 30.2501 0.0000
# 6 0.0000 0.0000 0.0000 -1.1641 0.0000 27.8650
#
#
#
# Elastic Compliance Matrix: (Units=1/GPa)
#
#
# Indices 1 2 3 4 5 6 
#
# 1 0.016531 -0.006362 -0.001024 0.000000 -0.004164 0.000000
# 2 -0.006362 0.009229 -0.001535 0.000000 0.001884 0.000000
# 3 -0.001024 -0.001535 0.008557 0.000000 -0.001913 0.000000
# 4 0.000000 0.000000 0.000000 0.058361 0.000000 0.002438
# 5 -0.004164 0.001884 -0.001913 0.000000 0.034668 0.000000
# 6 0.000000 0.000000 0.000000 0.002438 0.000000 0.035989
#
#
# Mechanical properties :
#
#
# Convention : Reuss Voigt Hill
#
# Bulk Modulus (GPa) = 60.69620 68.91276 64.80448
# Shear Modulus (GPa) = 26.78520 31.79434 29.28977
#
# Velocity S-wave (km/s) = 3.62632 3.95087 3.79207
# Velocity P-wave (km/s) = 6.87985 7.39224 7.14064
#
# Compressibility (1/GPa) = 0.01647550
#
# Stress axis : x y z
#
# Youngs Moduli (GPa) = 60.49123 108.35385 116.85904
#
# Poissons Ratio (x) = 0.68939 0.11968
# Poissons Ratio (y) = 0.38487 0.17933
# Poissons Ratio (z) = 0.06195 0.16628
#
# Static dielectric constant tensor:
#      x y z
#    x 1.782860 0.000000 -0.011310 
#    y 0.000000 1.861030 0.000000 
#    z -0.011310 0.000000 1.719250 
# 
# From -- ./inp_files/91661.got.cif
#   From: 2010.05.17/outbox.cif.g08.bks.cpg/sg15_46_cif.got.tgz:91661.got - 2010.06.03 18:47:42.
