data_PCOD9279703
_publ_section_title
;
Structure prediction by ZEFSAII (Michael W. Deem and Ramdas Pophale) SiO2 
 PCOD9279703
Probable space group: C 2/C
;
_chemical_formula_sum "Si O2"
_cell_formula_units_Z 24
_cell_length_a 10.684189
_cell_length_b 20.496272
_cell_length_c 12.983161
_cell_angle_alpha 90.000000
_cell_angle_beta 158.434892
_cell_angle_gamma 90.000000
_cell_volume 1045.016332
_symmetry_space_group_name_H-M "C 2/C"
_symmetry_group_IT_number 15
_symmetry_cell_setting 'monoclinic'
loop_
_space_group_symop_operation_xyz
x,y,z
-x,y,1/2-z
-x,-y,-z
x,-y,1/2+z
1/2+x,1/2+y,z
1/2-x,1/2+y,1/2-z
1/2-x,1/2-y,-z
1/2+x,1/2-y,1/2+z
loop_
_atom_site_type_symbol
_atom_site_label
_atom_site_fract_x
_atom_site_fract_y
_atom_site_fract_z
Si Si1 0.800065 0.413494 0.763771
Si Si2 0.340762 0.220690 0.944329
Si Si3 0.962140 0.442199 0.339608
O O1 0.424374 0.420224 0.429129
O O2 0.985885 0.479114 0.867897
O O3 0.009386 0.348028 0.904126
O O4 0.792577 0.416521 0.883144
O O5 0.000000 0.235392 0.750000
O O6 0.155902 0.229136 0.693159
O O7 0.000000 0.423400 0.250000
#
# Coordination Sequence:
#
# PCOD9279703 Si02
#       3
#     8   8   8
#     4  10  21  36  57  83 111 145 183 228 279 329
#     4  10  21  36  57  83 111 145 183 228 279 329
#     4  10  21  36  57  83 111 145 183 228 279 329
#
# _framework density 22.966148
#
# number of rings (size 3 to 8) (size 9 to 14) (size 15 to 20)
#    0.000    2.000    0.000    3.000    0.000   12.000 
#    0.000    0.000    0.000   20.000    0.000    0.000 
#    0.000    0.000    0.000    0.000    0.000    0.000 
#
# Total GULP energy -66856.547096 kJ/mol
# GULP energy per Si atom -5571.378925 kJ/mol
# Density = 2.291388 g / cm^3
# Si number density = 22.966148 Si / 1000 Ang^3
#
#
#
# Elastic Constant Matrix: (Units=GPa)
#
#
# Indices 1 2 3 4 5 6 
#
# 1 40.7296 -20.9129 -12.8807 0.0055 -16.3067 0.0023
# 2 -20.9129 124.5624 52.2622 0.0012 4.7362 0.0005
# 3 -12.8807 52.2622 159.2534 0.0253 -23.2009 0.0116
# 4 0.0055 0.0012 0.0253 29.6963 0.0092 -9.3137
# 5 -16.3067 4.7362 -23.2009 0.0092 25.9056 0.0036
# 6 0.0023 0.0005 0.0116 -9.3137 0.0036 9.6928
#
#
#
# Elastic Compliance Matrix: (Units=1/GPa)
#
#
# Indices 1 2 3 4 5 6 
#
# 1 0.040714 0.002717 0.006972 -0.000047 0.031376 -0.000075
# 2 0.002717 0.010118 -0.003589 0.000007 -0.003354 0.000011
# 3 0.006972 -0.003589 0.010070 -0.000029 0.014064 -0.000046
# 4 -0.000047 0.000007 -0.000029 0.048200 -0.000080 0.046315
# 5 0.031376 -0.003354 0.014064 -0.000080 0.071561 -0.000127
# 6 -0.000075 0.000011 -0.000046 0.046315 -0.000127 0.147674
#
#
# Mechanical properties :
#
#
# Convention : Reuss Voigt Hill
#
# Bulk Modulus (GPa) = 13.67940 40.16474 26.92207
# Shear Modulus (GPa) = 14.68416 33.46404 24.07410
#
# Velocity S-wave (km/s) = 2.53135 3.82134 3.24117
# Velocity P-wave (km/s) = 3.80958 6.08250 5.07492
#
# Compressibility (1/GPa) = 0.07310260
#
# Stress axis : x y z
#
# Youngs Moduli (GPa) = 24.56147 98.83656 99.30482
#
# Poissons Ratio (x) = -0.26855 -0.69239
# Poissons Ratio (y) = -0.06674 0.35642
# Poissons Ratio (z) = -0.17125 0.35474
#
# Static dielectric constant tensor:
#      x y z
#    x 2.163970 0.000000 -0.171830 
#    y 0.000000 1.867840 0.000000 
#    z -0.171830 0.000000 1.931170 
# 
# From -- ./inp_files/3223.got.cif
#   From: 2010.05.17/outbox.cif.g08.bks.cpg/sg15_2_cif.got.tgz:3223.got - 2010.06.03 18:47:42.
