data_PCOD9279710
_publ_section_title
;
Structure prediction by ZEFSAII (Michael W. Deem and Ramdas Pophale) SiO2 
 PCOD9279710
Probable space group: C 2/C
;
_chemical_formula_sum "Si O2"
_cell_formula_units_Z 52
_cell_length_a 36.100308
_cell_length_b 11.493023
_cell_length_c 11.333157
_cell_angle_alpha 90.000000
_cell_angle_beta 141.991435
_cell_angle_gamma 90.000000
_cell_volume 2895.483870
_symmetry_space_group_name_H-M "C 2/C"
_symmetry_group_IT_number 15
_symmetry_cell_setting 'monoclinic'
loop_
_space_group_symop_operation_xyz
x,y,z
-x,y,1/2-z
-x,-y,-z
x,-y,1/2+z
1/2+x,1/2+y,z
1/2-x,1/2+y,1/2-z
1/2-x,1/2-y,-z
1/2+x,1/2-y,1/2+z
loop_
_atom_site_type_symbol
_atom_site_label
_atom_site_fract_x
_atom_site_fract_y
_atom_site_fract_z
Si Si1 0.684700 0.127681 0.431669
Si Si2 0.394237 0.540680 0.878346
Si Si3 0.684448 0.728323 0.690119
Si Si4 0.500000 0.617685 0.750000
Si Si5 0.675868 0.335175 0.745715
Si Si6 0.683116 0.147499 0.941303
Si Si7 0.096059 0.803604 0.324107
O O1 0.687191 0.179090 0.304909
O O2 0.749310 0.167100 0.649584
O O3 0.628912 0.189384 0.357332
O O4 0.674859 0.990151 0.412945
O O5 0.364777 0.631759 0.896263
O O6 0.342008 0.446482 0.721434
O O7 0.410176 0.609957 0.801026
O O8 0.450622 0.467379 0.067283
O O9 0.667873 0.793811 0.528093
O O10 0.466527 0.696957 0.762815
O O11 0.654683 0.220337 0.761962
O O12 0.642857 0.350431 0.538855
O O13 0.745741 0.332666 0.896058
#
# Coordination Sequence:
#
# PCOD9279710 Si02
#       7
#     8   8   8   4   8   8   8
#     4  10  21  36  57  84 122 158 196 239 300 364
#     4  10  21  39  62  88 119 151 199 256 299 346
#     4  10  21  36  57  86 120 160 189 245 307 352
#     4  10  22  38  66  92 110 154 206 256 296 344
#     4  10  22  32  54  89 120 156 193 237 295 353
#     4  11  22  33  55  88 125 159 192 236 292 373
#     4  10  21  40  58  85 118 155 196 249 298 347
#
# _framework density 17.959002000000002
#
# number of rings (size 3 to 8) (size 9 to 14) (size 15 to 20)
#    0.000    1.846    3.077    0.462    6.462    0.000 
#    0.000    0.000    0.000    4.615    0.000    0.000 
#    0.000    0.000    0.000    0.000    0.000    0.000 
#
# Total GULP energy -144931.770821 kJ/mol
# GULP energy per Si atom -5574.298878 kJ/mol
# Density = 1.791813 g / cm^3
# Si number density = 17.959002 Si / 1000 Ang^3
#
#
#
# Elastic Constant Matrix: (Units=GPa)
#
#
# Indices 1 2 3 4 5 6 
#
# 1 127.9466 63.3750 24.5959 0.0000 14.0887 0.0000
# 2 63.3750 106.8217 -1.1023 0.0000 1.4629 0.0000
# 3 24.5959 -1.1023 33.3055 0.0000 3.2867 0.0000
# 4 0.0000 0.0000 0.0000 15.5354 0.0000 9.2906
# 5 14.0887 1.4629 3.2867 0.0000 16.7518 0.0000
# 6 0.0000 0.0000 0.0000 9.2906 0.0000 10.5163
#
#
#
# Elastic Compliance Matrix: (Units=1/GPa)
#
#
# Indices 1 2 3 4 5 6 
#
# 1 0.015577 -0.009214 -0.010804 0.000000 -0.010176 0.000000
# 2 -0.009214 0.014828 0.006789 0.000000 0.005122 0.000000
# 3 -0.010804 0.006789 0.038129 0.000000 0.001013 0.000000
# 4 0.000000 0.000000 0.000000 0.136469 0.000000 -0.120563
# 5 -0.010176 0.005122 0.001013 0.000000 0.067607 0.000000
# 6 0.000000 0.000000 0.000000 -0.120563 0.000000 0.201602
#
#
# Mechanical properties :
#
#
# Convention : Reuss Voigt Hill
#
# Bulk Modulus (GPa) = 23.76622 49.09011 36.42816
# Shear Modulus (GPa) = 9.71452 20.64106 15.17779
#
# Velocity S-wave (km/s) = 2.32831 3.39387 2.91028
# Velocity P-wave (km/s) = 4.52663 6.53848 5.62326
#
# Compressibility (1/GPa) = 0.04207653
#
# Stress axis : x y z
#
# Youngs Moduli (GPa) = 64.19749 67.44217 26.22698
#
# Poissons Ratio (x) = 0.62138 0.28336
# Poissons Ratio (y) = 0.59149 -0.17807
# Poissons Ratio (z) = 0.69360 -0.45790
#
# Static dielectric constant tensor:
#      x y z
#    x 1.646270 0.000000 -0.001970 
#    y 0.000000 1.628130 0.000000 
#    z -0.001970 0.000000 1.614600 
# 
# From -- ./inp_files/126483.got.cif
#   From: 2010.05.17/outbox.cif.g08.bks.cpg/sg15_64_cif.got.tgz:126483.got - 2010.06.03 18:47:42.
