data_PCOD9279040
_publ_section_title
;
Structure prediction by ZEFSAII (Michael W. Deem and Ramdas Pophale) SiO2 
 PCOD9279040
Probable space group: C 2/C
;
_chemical_formula_sum "Si O2"
_cell_formula_units_Z 40
_cell_length_a 21.838371
_cell_length_b 5.592760
_cell_length_c 28.817471
_cell_angle_alpha 90.000000
_cell_angle_beta 153.415470
_cell_angle_gamma 90.000000
_cell_volume 1575.115676
_symmetry_space_group_name_H-M "C 2/C"
_symmetry_group_IT_number 15
_symmetry_cell_setting 'monoclinic'
loop_
_space_group_symop_operation_xyz
x,y,z
-x,y,1/2-z
-x,-y,-z
x,-y,1/2+z
1/2+x,1/2+y,z
1/2-x,1/2+y,1/2-z
1/2-x,1/2-y,-z
1/2+x,1/2-y,1/2+z
loop_
_atom_site_type_symbol
_atom_site_label
_atom_site_fract_x
_atom_site_fract_y
_atom_site_fract_z
Si Si1 0.796252 0.015669 0.341014
Si Si2 0.909892 0.484971 0.886859
Si Si3 0.629907 0.557536 0.413066
Si Si4 0.134626 0.336830 0.975968
Si Si5 0.449967 0.954023 0.267094
O O1 0.878740 0.262496 0.390256
O O2 0.687941 0.014372 0.224872
O O3 0.872216 0.761714 0.387465
O O4 0.705204 0.014111 0.325863
O O5 0.063587 0.454547 0.971482
O O6 0.750000 0.750000 0.500000
O O7 0.614089 0.444365 0.453452
O O8 0.489424 0.674765 0.301667
O O9 0.707858 0.394843 0.427808
O O10 0.043242 0.420628 0.869403
O O11 0.500000 0.014042 0.250000
#
# Coordination Sequence:
#
# PCOD9279040 Si02
#       5
#     8   8   8   8   8
#     4   9  19  31  50  81 109 146 184 236 287 332
#     4   9  18  31  54  77 110 143 190 240 279 332
#     4   9  19  34  55  85 108 146 194 233 284 334
#     4   9  19  34  57  82 110 147 190 240 286 332
#     4  10  21  34  54  82 118 150 186 232 289 350
#
# _framework density 25.394959
#
# number of rings (size 3 to 8) (size 9 to 14) (size 15 to 20)
#    0.000    2.800    0.000    0.000   16.800    0.800 
#    0.000    0.000    0.000    2.400    0.000    0.000 
#    0.000    0.000    0.000    0.000    0.000    0.000 
#
# Total GULP energy -111636.356120 kJ/mol
# GULP energy per Si atom -5581.817806 kJ/mol
# Density = 2.533716 g / cm^3
# Si number density = 25.394959 Si / 1000 Ang^3
#
#
#
# Elastic Constant Matrix: (Units=GPa)
#
#
# Indices 1 2 3 4 5 6 
#
# 1 198.5588 105.6864 39.7054 -0.0299 41.3921 0.0412
# 2 105.6864 175.6076 23.4208 -0.0635 38.5743 0.1009
# 3 39.7054 23.4208 68.4352 0.0104 4.0104 -0.0031
# 4 -0.0299 -0.0635 0.0104 4.2409 -0.0012 21.2988
# 5 41.3921 38.5743 4.0104 -0.0012 55.1320 0.0000
# 6 0.0412 0.1009 -0.0031 21.2988 0.0000 26.7616
#
#
#
# Elastic Compliance Matrix: (Units=1/GPa)
#
#
# Indices 1 2 3 4 5 6 
#
# 1 0.008512 -0.003923 -0.003397 -0.000001 -0.003399 0.000002
# 2 -0.003923 0.008832 -0.000559 -0.000081 -0.003193 0.000037
# 3 -0.003397 -0.000559 0.016673 0.000040 0.001729 -0.000022
# 4 -0.000001 -0.000081 0.000040 -0.078676 0.000052 0.062616
# 5 -0.003399 -0.003193 0.001729 0.000052 0.022798 -0.000024
# 6 0.000002 0.000037 -0.000022 0.062616 -0.000024 -0.012468
#
#
# Mechanical properties :
#
#
# Convention : Reuss Voigt Hill
#
# Bulk Modulus (GPa) = 54.76888 86.69189 70.73038
# Shear Modulus (GPa) = -400.54096 35.47951 -182.53072
#
# Velocity S-wave (km/s) = -12.57247 3.74185 -8.48721
# Velocity P-wave (km/s) = 13.75290 7.27187 8.25416
#
# Compressibility (1/GPa) = 0.01825854
#
# Stress axis : x y z
#
# Youngs Moduli (GPa) = 117.47605 113.22938 59.97642
#
# Poissons Ratio (x) = 0.44425 0.20373
# Poissons Ratio (y) = 0.46091 0.03353
# Poissons Ratio (z) = 0.39905 0.06330
#
# Static dielectric constant tensor:
#      x y z
#    x 2.035910 -0.000250 -0.042500 
#    y -0.000250 2.414650 0.000140 
#    z -0.042500 0.000140 1.980930 
# 
# From -- ./inp_files/314948.got.cif
#   From: 2010.05.17/outbox.cif.g08.bks.cpg/sg15_158_cif.got.tgz:314948.got - 2010.06.03 18:47:42.
