data_PCOD9279792
_publ_section_title
;
Structure prediction by ZEFSAII (Michael W. Deem and Ramdas Pophale) SiO2 
 PCOD9279792
Probable space group: C 2/C
;
_chemical_formula_sum "Si O2"
_cell_formula_units_Z 56
_cell_length_a 15.348122
_cell_length_b 15.193399
_cell_length_c 11.609578
_cell_angle_alpha 90.000000
_cell_angle_beta 118.118844
_cell_angle_gamma 90.000000
_cell_volume 2387.708864
_symmetry_space_group_name_H-M "C 2/C"
_symmetry_group_IT_number 15
_symmetry_cell_setting 'monoclinic'
loop_
_space_group_symop_operation_xyz
x,y,z
-x,y,1/2-z
-x,-y,-z
x,-y,1/2+z
1/2+x,1/2+y,z
1/2-x,1/2+y,1/2-z
1/2-x,1/2-y,-z
1/2+x,1/2-y,1/2+z
loop_
_atom_site_type_symbol
_atom_site_label
_atom_site_fract_x
_atom_site_fract_y
_atom_site_fract_z
Si Si1 0.553017 0.397798 0.667773
Si Si2 0.518652 0.603068 0.627747
Si Si3 0.753467 0.134801 0.741788
Si Si4 0.565490 0.929369 0.190106
Si Si5 0.758770 0.340123 0.755570
Si Si6 0.304986 0.156752 0.038470
Si Si7 0.014865 0.629249 0.094728
O O1 0.500000 0.358653 0.750000
O O2 0.510873 0.497193 0.631984
O O3 0.537902 0.363275 0.524305
O O4 0.671288 0.392129 0.763769
O O5 0.500000 0.635712 0.750000
O O6 0.631954 0.623074 0.669406
O O7 0.681550 0.081527 0.779971
O O8 0.726968 0.237946 0.734294
O O9 0.729090 0.105046 0.595414
O O10 0.500000 0.893297 0.250000
O O11 0.533582 0.029394 0.147731
O O12 0.537168 0.874940 0.060622
O O13 0.767136 0.382033 0.633533
O O14 0.875204 0.335080 0.858857
O O15 0.424001 0.167139 0.114602
O O16 0.250000 0.250000 0.000000
#
# Coordination Sequence:
#
# PCOD9279792 Si02
#       7
#     8   8   8   8   8   8   8
#     4  10  23  40  59  85 117 153 197 244 289 343
#     4  10  21  40  63  84 111 153 199 243 290 343
#     4  10  22  35  56  86 113 149 192 237 290 347
#     4  10  21  38  56  80 114 148 187 235 282 345
#     4  11  21  36  58  84 118 153 188 239 293 347
#     4   9  19  35  56  88 117 142 185 240 292 340
#     4  10  21  36  59  85 110 148 191 231 290 350
#
# _framework density 23.453444999999999
#
# number of rings (size 3 to 8) (size 9 to 14) (size 15 to 20)
#    0.000    2.000    0.000    3.000    0.000    7.429 
#    0.000    5.714    0.000    0.000    0.000    0.000 
#    0.000    0.000    0.000    0.000    0.000    0.000 
#
# Total GULP energy -156037.698339 kJ/mol
# GULP energy per Si atom -5572.774941 kJ/mol
# Density = 2.340006 g / cm^3
# Si number density = 23.453445 Si / 1000 Ang^3
#
#
#
# Elastic Constant Matrix: (Units=GPa)
#
#
# Indices 1 2 3 4 5 6 
#
# 1 210.8251 22.5112 47.5470 0.0000 6.1252 0.0000
# 2 22.5112 28.2647 11.8615 0.0000 -0.2229 0.0000
# 3 47.5470 11.8615 57.9268 0.0000 3.4573 0.0000
# 4 0.0000 0.0000 0.0000 2.3613 0.0000 5.2972
# 5 6.1252 -0.2229 3.4573 0.0000 45.7389 0.0000
# 6 0.0000 0.0000 0.0000 5.2972 0.0000 29.5827
#
#
#
# Elastic Compliance Matrix: (Units=1/GPa)
#
#
# Indices 1 2 3 4 5 6 
#
# 1 0.006054 -0.003012 -0.004323 0.000000 -0.000499 0.000000
# 2 -0.003012 0.040232 -0.005828 0.000000 0.001040 0.000000
# 3 -0.004323 -0.005828 0.022072 0.000000 -0.001118 0.000000
# 4 0.000000 0.000000 0.000000 0.707830 0.000000 -0.126747
# 5 -0.000499 0.001040 -0.001118 0.000000 0.022020 0.000000
# 6 0.000000 0.000000 0.000000 -0.126747 0.000000 0.056499
#
#
# Mechanical properties :
#
#
# Convention : Reuss Voigt Hill
#
# Bulk Modulus (GPa) = 23.79108 51.20620 37.49864
# Shear Modulus (GPa) = 5.58632 29.87638 17.73135
#
# Velocity S-wave (km/s) = 1.54501 3.57299 2.75257
# Velocity P-wave (km/s) = 3.65359 6.23716 5.11131
#
# Compressibility (1/GPa) = 0.04203255
#
# Stress axis : x y z
#
# Youngs Moduli (GPa) = 165.17230 24.85553 45.30689
#
# Poissons Ratio (x) = 0.07486 0.19586
# Poissons Ratio (y) = 0.49744 0.26406
# Poissons Ratio (z) = 0.71404 0.14487
#
# Static dielectric constant tensor:
#      x y z
#    x 2.027100 0.000000 -0.025860 
#    y 0.000000 1.909310 0.000000 
#    z -0.025860 0.000000 1.982260 
# 
# From -- ./inp_files/98379.got.cif
#   From: 2010.05.17/outbox.cif.g08.bks.cpg/sg15_50_cif.got.tgz:98379.got - 2010.06.03 18:47:42.
