data_PCOD9279319
_publ_section_title
;
Structure prediction by ZEFSAII (Michael W. Deem and Ramdas Pophale) SiO2 
 PCOD9279319
Probable space group: C 2/C
;
_chemical_formula_sum "Si O2"
_cell_formula_units_Z 52
_cell_length_a 12.207651
_cell_length_b 23.581298
_cell_length_c 10.511702
_cell_angle_alpha 90.000000
_cell_angle_beta 87.232833
_cell_angle_gamma 90.000000
_cell_volume 3022.498921
_symmetry_space_group_name_H-M "C 2/C"
_symmetry_group_IT_number 15
_symmetry_cell_setting 'monoclinic'
loop_
_space_group_symop_operation_xyz
x,y,z
-x,y,1/2-z
-x,-y,-z
x,-y,1/2+z
1/2+x,1/2+y,z
1/2-x,1/2+y,1/2-z
1/2-x,1/2-y,-z
1/2+x,1/2-y,1/2+z
loop_
_atom_site_type_symbol
_atom_site_label
_atom_site_fract_x
_atom_site_fract_y
_atom_site_fract_z
Si Si1 0.500000 0.900576 0.750000
Si Si2 0.506419 0.700298 0.450154
Si Si3 0.824610 0.988857 0.998856
Si Si4 0.015695 0.913216 0.098063
Si Si5 0.075774 0.291516 0.858051
Si Si6 0.181083 0.822278 0.742041
Si Si7 0.768447 0.551503 0.258285
O O1 0.533786 0.856749 0.860729
O O2 0.605585 0.936963 0.717935
O O3 0.529494 0.650799 0.550111
O O4 0.456661 0.756298 0.517319
O O5 0.409666 0.678464 0.363234
O O6 0.617882 0.707898 0.362460
O O7 0.913151 0.940699 0.028366
O O8 0.773347 0.006818 0.136175
O O9 0.750005 0.967790 0.886308
O O10 0.885342 0.045189 0.944561
O O11 0.000000 0.915712 0.250000
O O12 0.203784 0.294497 0.810569
O O13 0.000000 0.265879 0.750000
O O14 0.207515 0.887575 0.776175
#
# Coordination Sequence:
#
# PCOD9279319 Si02
#       7
#     4   8   8   8   8   8   8
#     4   8  22  40  60  74 112 150 204 234 284 328
#     4  11  20  34  59  82 115 149 186 230 291 349
#     4  11  22  33  59  81 120 146 189 225 290 342
#     4  11  21  31  50  89 117 143 175 231 283 351
#     4   9  20  38  55  82 108 148 190 239 273 333
#     4  10  21  35  57  83 112 152 187 231 291 343
#     4  11  20  41  56  85 111 159 187 240 283 341
#
# _framework density 17.204308000000001
#
# number of rings (size 3 to 8) (size 9 to 14) (size 15 to 20)
#    0.462    1.231    4.615    0.923    0.000    1.231 
#    0.000    0.000    0.000    0.000    0.000    0.000 
#    0.000    0.000    0.000    0.000    0.000    0.000 
#
# Total GULP energy -144773.257423 kJ/mol
# GULP energy per Si atom -5568.202209 kJ/mol
# Density = 1.716515 g / cm^3
# Si number density = 17.204308 Si / 1000 Ang^3
#
#
#
# Elastic Constant Matrix: (Units=GPa)
#
#
# Indices 1 2 3 4 5 6 
#
# 1 93.5882 12.4420 20.9011 0.0000 -8.8472 0.0000
# 2 12.4420 47.6206 15.2591 0.0000 -13.5224 0.0000
# 3 20.9011 15.2591 65.0593 0.0000 5.0643 0.0000
# 4 0.0000 0.0000 0.0000 3.9286 0.0000 2.4355
# 5 -8.8472 -13.5224 5.0643 0.0000 11.2538 0.0000
# 6 0.0000 0.0000 0.0000 2.4355 0.0000 1.4782
#
#
#
# Elastic Compliance Matrix: (Units=1/GPa)
#
#
# Indices 1 2 3 4 5 6 
#
# 1 0.013344 0.003679 -0.006540 0.000000 0.017854 0.000000
# 2 0.003679 0.042481 -0.015901 0.000000 0.061092 0.000000
# 3 -0.006540 -0.015901 0.023926 0.000000 -0.035014 0.000000
# 4 0.000000 0.000000 0.000000-11.899537 0.000000 19.605624
# 5 0.017854 0.061092 -0.035014 0.000000 0.192058 0.000000
# 6 0.000000 0.000000 0.000000 19.605624 0.000000-31.625634
#
#
# Mechanical properties :
#
#
# Convention : Reuss Voigt Hill
#
# Bulk Modulus (GPa) = 23.68073 33.71917 28.69995
# Shear Modulus (GPa) = -0.11574 13.84319 6.86373
#
# Velocity S-wave (km/s) = -0.25965 2.83969 1.99955
# Velocity P-wave (km/s) = 3.70195 5.51304 4.69564
#
# Compressibility (1/GPa) = 0.04222843
#
# Stress axis : x y z
#
# Youngs Moduli (GPa) = 74.93849 23.53990 41.79479
#
# Poissons Ratio (x) = -0.08660 0.27332
# Poissons Ratio (y) = -0.27568 0.66457
# Poissons Ratio (z) = 0.49007 0.37430
#
# Static dielectric constant tensor:
#      x y z
#    x 1.577210 0.000000 -0.004120 
#    y 0.000000 1.574850 0.000000 
#    z -0.004120 0.000000 1.597040 
# 
# From -- ./inp_files/88832.got.cif
#   From: 2010.05.17/outbox.cif.g08.bks.cpg/sg15_45_cif.got.tgz:88832.got - 2010.06.03 18:47:42.
