data_PCOD9279696
_publ_section_title
;
Structure prediction by ZEFSAII (Michael W. Deem and Ramdas Pophale) SiO2 
 PCOD9279696
Probable space group: C 2/C
;
_chemical_formula_sum "Si O2"
_cell_formula_units_Z 64
_cell_length_a 13.142311
_cell_length_b 29.703224
_cell_length_c 12.314667
_cell_angle_alpha 90.000000
_cell_angle_beta 42.022140
_cell_angle_gamma 90.000000
_cell_volume 3218.067927
_symmetry_space_group_name_H-M "C 2/C"
_symmetry_group_IT_number 15
_symmetry_cell_setting 'monoclinic'
loop_
_space_group_symop_operation_xyz
x,y,z
-x,y,1/2-z
-x,-y,-z
x,-y,1/2+z
1/2+x,1/2+y,z
1/2-x,1/2+y,1/2-z
1/2-x,1/2-y,-z
1/2+x,1/2-y,1/2+z
loop_
_atom_site_type_symbol
_atom_site_label
_atom_site_fract_x
_atom_site_fract_y
_atom_site_fract_z
Si Si1 0.136009 0.317822 0.576305
Si Si2 0.898359 0.941381 0.095469
Si Si3 0.650672 0.264930 0.707856
Si Si4 0.374677 0.526789 0.254668
Si Si5 0.821798 0.324994 0.415320
Si Si6 0.178353 0.571489 0.581304
Si Si7 0.083901 0.223612 0.511185
Si Si8 0.384718 0.644498 0.745223
O O1 0.070790 0.273605 0.568843
O O2 0.269206 0.299850 0.550055
O O3 0.217793 0.349867 0.426061
O O4 0.000000 0.339786 0.750000
O O5 0.769826 0.950940 0.107718
O O6 0.890092 0.891103 0.145773
O O7 0.870707 0.975362 0.217191
O O8 0.057806 0.948792 0.906078
O O9 0.500000 0.268086 0.750000
O O10 0.771623 0.300928 0.566698
O O11 0.720283 0.214717 0.636717
O O12 0.605550 0.274187 0.865927
O O13 0.500000 0.531372 0.250000
O O14 0.226809 0.548156 0.429297
O O15 0.765335 0.376149 0.462229
O O16 0.000000 0.329753 0.250000
O O17 0.000000 0.569539 0.750000
O O18 0.943364 0.193249 0.660464
O O19 0.500000 0.630144 0.750000
#
# Coordination Sequence:
#
# PCOD9279696 Si02
#       8
#     8   8   8   8   8   8   8   8
#     4  10  21  38  55  77 112 153 197 239 294 338
#     4  10  21  38  65  89 111 154 190 241 297 333
#     4  10  22  35  55  82 114 157 204 243 277 331
#     4   9  20  40  65  90 114 145 191 240 291 357
#     4   9  21  37  49  79 121 154 190 235 283 336
#     4  10  22  39  59  88 126 152 187 233 290 367
#     4  10  21  36  57  80 109 155 200 245 284 335
#     4  10  22  38  58  86 113 147 201 249 283 342
#
# _framework density 19.887709999999998
#
# number of rings (size 3 to 8) (size 9 to 14) (size 15 to 20)
#    0.000    2.250    0.000    2.250    5.250    6.000 
#    2.250    0.625    0.000    0.000    0.000    0.000 
#    0.000    0.000    0.000    0.000    0.000    0.000 
#
# Total GULP energy -178536.671983 kJ/mol
# GULP energy per Si atom -5579.270999 kJ/mol
# Density = 1.984244 g / cm^3
# Si number density = 19.887710 Si / 1000 Ang^3
#
#
#
# Elastic Constant Matrix: (Units=GPa)
#
#
# Indices 1 2 3 4 5 6 
#
# 1 33.2980 2.8088 27.9799 0.0000 10.7115 0.0000
# 2 2.8088 60.9063 37.6918 0.0000 -1.6672 0.0000
# 3 27.9799 37.6918 134.9763 0.0000 -0.9872 0.0000
# 4 0.0000 0.0000 0.0000 29.9205 0.0000 6.4564
# 5 10.7115 -1.6672 -0.9872 0.0000 31.2502 0.0000
# 6 0.0000 0.0000 0.0000 6.4564 0.0000 12.7763
#
#
#
# Elastic Compliance Matrix: (Units=1/GPa)
#
#
# Indices 1 2 3 4 5 6 
#
# 1 0.042959 0.003857 -0.010091 0.000000 -0.014838 0.000000
# 2 0.003857 0.020220 -0.006449 0.000000 -0.000447 0.000000
# 3 -0.010091 -0.006449 0.011327 0.000000 0.003473 0.000000
# 4 0.000000 0.000000 0.000000 0.037513 0.000000 -0.018957
# 5 -0.014838 -0.000447 0.003473 0.000000 0.037171 0.000000
# 6 0.000000 0.000000 0.000000 -0.018957 0.000000 0.087850
#
#
# Mechanical properties :
#
#
# Convention : Reuss Voigt Hill
#
# Bulk Modulus (GPa) = 20.35004 40.68243 30.51624
# Shear Modulus (GPa) = 17.93503 25.50274 21.71889
#
# Velocity S-wave (km/s) = 3.00628 3.58486 3.30824
# Velocity P-wave (km/s) = 4.72282 6.13477 5.47450
#
# Compressibility (1/GPa) = 0.04913995
#
# Stress axis : x y z
#
# Youngs Moduli (GPa) = 23.27813 49.45703 88.28622
#
# Poissons Ratio (x) = -0.19078 0.89088
# Poissons Ratio (y) = -0.08979 0.56937
# Poissons Ratio (z) = 0.23490 0.31896
#
# Static dielectric constant tensor:
#      x y z
#    x 1.737740 0.000000 -0.013170 
#    y 0.000000 1.700190 0.000000 
#    z -0.013170 0.000000 1.714970 
# 
# From -- ./inp_files/101334.got.cif
#   From: 2010.05.17/outbox.cif.g08.bks.cpg/sg15_51_cif.got.tgz:101334.got - 2010.06.03 18:47:42.
