data_PCOD9279054
_publ_section_title
;
Structure prediction by ZEFSAII (Michael W. Deem and Ramdas Pophale) SiO2 
 PCOD9279054
Probable space group: C 2/C
;
_chemical_formula_sum "Si O2"
_cell_formula_units_Z 56
_cell_length_a 12.209202
_cell_length_b 23.464220
_cell_length_c 14.546046
_cell_angle_alpha 90.000000
_cell_angle_beta 40.627595
_cell_angle_gamma 90.000000
_cell_volume 2713.392474
_symmetry_space_group_name_H-M "C 2/C"
_symmetry_group_IT_number 15
_symmetry_cell_setting 'monoclinic'
loop_
_space_group_symop_operation_xyz
x,y,z
-x,y,1/2-z
-x,-y,-z
x,-y,1/2+z
1/2+x,1/2+y,z
1/2-x,1/2+y,1/2-z
1/2-x,1/2-y,-z
1/2+x,1/2-y,1/2+z
loop_
_atom_site_type_symbol
_atom_site_label
_atom_site_fract_x
_atom_site_fract_y
_atom_site_fract_z
Si Si1 0.379886 0.627232 0.457264
Si Si2 0.073181 0.619420 0.904510
Si Si3 0.794971 0.996312 0.559694
Si Si4 0.236987 0.844808 0.677024
Si Si5 0.836717 0.284919 0.289004
Si Si6 0.114035 0.517764 0.514999
Si Si7 0.838967 0.024204 0.732998
O O1 0.326785 0.563957 0.520557
O O2 0.318408 0.642047 0.393335
O O3 0.581503 0.631785 0.334532
O O4 0.294063 0.674671 0.575164
O O5 0.108707 0.679109 0.834556
O O6 0.242551 0.583749 0.816526
O O7 0.923011 0.629301 0.073503
O O8 0.975762 0.575981 0.897520
O O9 0.646853 0.980685 0.583864
O O10 0.768187 0.993975 0.685372
O O11 0.967219 0.966782 0.416409
O O12 0.237222 0.776658 0.685866
O O13 0.000000 0.276765 0.250000
O O14 0.295523 0.516321 0.347154
O O15 0.000000 0.500000 0.500000
#
# Coordination Sequence:
#
# PCOD9279054 Si02
#       7
#     8   8   8   8   8   8   8
#     4  11  20  31  49  74 107 156 193 233 287 347
#     4  11  21  35  50  77 112 152 194 240 286 349
#     4  11  20  37  55  79 113 155 199 244 292 350
#     4  11  21  29  48  75 110 153 197 229 282 361
#     4  12  19  31  48  75 112 152 200 234 283 359
#     4  10  21  34  55  81 112 153 193 243 296 353
#     4  10  23  35  55  80 109 157 204 239 286 353
#
# _framework density 20.638370999999999
#
# number of rings (size 3 to 8) (size 9 to 14) (size 15 to 20)
#    0.000    1.143    5.714    2.571    2.000    1.714 
#    0.000    0.000    0.000    0.000    0.000    0.000 
#    0.000   18.286    0.000    0.571    0.000    0.000 
#
# Total GULP energy -156118.751242 kJ/mol
# GULP energy per Si atom -5575.669687 kJ/mol
# Density = 2.059140 g / cm^3
# Si number density = 20.638371 Si / 1000 Ang^3
#
#
#
# Elastic Constant Matrix: (Units=GPa)
#
#
# Indices 1 2 3 4 5 6 
#
# 1 68.1420 5.7026 14.5754 0.0003 -3.1092 -0.0007
# 2 5.7026 93.4804 21.5287 0.0000 -12.5043 -0.0001
# 3 14.5754 21.5287 106.1192 0.0003 -9.2754 -0.0008
# 4 0.0003 0.0000 0.0003 39.6657 -0.0003 -6.1680
# 5 -3.1092 -12.5043 -9.2754 -0.0003 32.6541 0.0008
# 6 -0.0007 -0.0001 -0.0008 -6.1680 0.0008 18.1595
#
#
#
# Elastic Compliance Matrix: (Units=1/GPa)
#
#
# Indices 1 2 3 4 5 6 
#
# 1 0.015156 -0.000378 -0.001940 0.000000 0.000747 0.000000
# 2 -0.000378 0.011696 -0.001982 0.000000 0.003880 0.000000
# 3 -0.001940 -0.001982 0.010264 0.000000 0.001972 0.000000
# 4 0.000000 0.000000 0.000000 0.026617 0.000000 0.009041
# 5 0.000747 0.003880 0.001972 0.000000 0.032741 -0.000001
# 6 0.000000 0.000000 0.000000 0.009041 -0.000001 0.058138
#
#
# Mechanical properties :
#
#
# Convention : Reuss Voigt Hill
#
# Bulk Modulus (GPa) = 35.06639 39.03945 37.05292
# Shear Modulus (GPa) = 28.94924 33.15818 31.05371
#
# Velocity S-wave (km/s) = 3.74931 4.01262 3.88320
# Velocity P-wave (km/s) = 5.98088 6.35808 6.17236
#
# Compressibility (1/GPa) = 0.02851733
#
# Stress axis : x y z
#
# Youngs Moduli (GPa) = 65.98108 85.50031 97.42623
#
# Poissons Ratio (x) = 0.03231 0.18897
# Poissons Ratio (y) = 0.02493 0.19307
# Poissons Ratio (z) = 0.12798 0.16944
#
# Static dielectric constant tensor:
#      x y z
#    x 1.843180 0.000000 -0.052890 
#    y 0.000000 1.781610 0.000000 
#    z -0.052890 0.000000 1.843320 
# 
# From -- ./inp_files/148531.got.cif
#   From: 2010.05.17/outbox.cif.g08.bks.cpg/sg15_75_cif.got.tgz:148531.got - 2010.06.03 18:47:42.
