data_PCOD9279984
_publ_section_title
;
Structure prediction by ZEFSAII (Michael W. Deem and Ramdas Pophale) SiO2 
 PCOD9279984
Probable space group: C 2/C
;
_chemical_formula_sum "Si O2"
_cell_formula_units_Z 56
_cell_length_a 13.327605
_cell_length_b 24.732441
_cell_length_c 10.174312
_cell_angle_alpha 90.000000
_cell_angle_beta 116.291941
_cell_angle_gamma 90.000000
_cell_volume 3006.755066
_symmetry_space_group_name_H-M "C 2/C"
_symmetry_group_IT_number 15
_symmetry_cell_setting 'monoclinic'
loop_
_space_group_symop_operation_xyz
x,y,z
-x,y,1/2-z
-x,-y,-z
x,-y,1/2+z
1/2+x,1/2+y,z
1/2-x,1/2+y,1/2-z
1/2-x,1/2-y,-z
1/2+x,1/2-y,1/2+z
loop_
_atom_site_type_symbol
_atom_site_label
_atom_site_fract_x
_atom_site_fract_y
_atom_site_fract_z
Si Si1 0.406536 0.379801 0.924120
Si Si2 0.943166 0.776437 0.488538
Si Si3 0.000000 0.307304 0.250000
Si Si4 0.775178 0.685743 0.016686
Si Si5 0.000000 0.281747 0.750000
Si Si6 0.632290 0.460121 0.806917
Si Si7 0.372810 0.445047 0.400219
Si Si8 0.268807 0.162333 0.708957
O O1 0.320555 0.352593 0.976898
O O2 0.340236 0.406750 0.763528
O O3 0.487578 0.330178 0.932223
O O4 0.494857 0.426277 0.025732
O O5 0.974276 0.731068 0.610972
O O6 0.812290 0.791719 0.400086
O O7 0.980671 0.756090 0.365968
O O8 0.112383 0.340645 0.291819
O O9 0.890434 0.682267 0.163449
O O10 0.750000 0.750000 0.000000
O O11 0.791061 0.673076 0.874101
O O12 0.500000 0.454600 0.750000
O O13 0.651935 0.511603 0.726526
O O14 0.667950 0.464570 0.978916
O O15 0.303595 0.391276 0.337295
#
# Coordination Sequence:
#
# PCOD9279984 Si02
#       8
#     8   8   4   8   4   8   8   8
#     4  10  21  36  62  92 131 159 202 252 312 370
#     4  11  22  36  59  88 126 167 201 252 307 365
#     4  12  24  40  58  87 127 168 208 254 296 378
#     4  12  22  39  59  92 124 173 213 250 296 378
#     4  12  22  40  56  87 125 164 220 246 282 370
#     4  10  21  40  61  98 126 156 198 259 321 380
#     4  10  24  39  65  96 127 157 201 260 324 373
#     4  11  24  39  61  86 126 168 209 252 317 361
#
# _framework density 18.624728999999999
#
# number of rings (size 3 to 8) (size 9 to 14) (size 15 to 20)
#    0.000    1.143    4.286    2.143    9.000    2.286 
#    0.000    0.000    0.000    1.714    0.000    0.000 
#    0.000    0.000    0.000    0.000    0.000    0.000 
#
# Total GULP energy -156182.912031 kJ/mol
# GULP energy per Si atom -5577.961144 kJ/mol
# Density = 1.858234 g / cm^3
# Si number density = 18.624729 Si / 1000 Ang^3
#
#
#
# Elastic Constant Matrix: (Units=GPa)
#
#
# Indices 1 2 3 4 5 6 
#
# 1 92.3836 17.8803 14.7237 0.0000 6.9770 0.0000
# 2 17.8803 55.4346 27.4834 0.0000 -9.2963 0.0000
# 3 14.7237 27.4834 74.6467 0.0000 -8.4807 0.0000
# 4 0.0000 0.0000 0.0000 28.3865 0.0000 -13.6754
# 5 6.9770 -9.2963 -8.4807 0.0000 30.3338 0.0000
# 6 0.0000 0.0000 0.0000 -13.6754 0.0000 13.6743
#
#
#
# Elastic Compliance Matrix: (Units=1/GPa)
#
#
# Indices 1 2 3 4 5 6 
#
# 1 0.012151 -0.003941 -0.001446 0.000000 -0.004407 0.000000
# 2 -0.003941 0.023996 -0.007353 0.000000 0.006205 0.000000
# 3 -0.001446 -0.007353 0.016701 0.000000 0.002749 0.000000
# 4 0.000000 0.000000 0.000000 0.067981 0.000000 0.067986
# 5 -0.004407 0.006205 0.002749 0.000000 0.036650 0.000000
# 6 0.000000 0.000000 0.000000 0.067986 0.000000 0.141121
#
#
# Mechanical properties :
#
#
# Convention : Reuss Voigt Hill
#
# Bulk Modulus (GPa) = 36.53917 38.07106 37.30511
# Shear Modulus (GPa) = 15.00587 25.30408 20.15497
#
# Velocity S-wave (km/s) = 2.84156 3.68996 3.29319
# Velocity P-wave (km/s) = 5.51608 6.21610 5.87652
#
# Compressibility (1/GPa) = 0.02736789
#
# Stress axis : x y z
#
# Youngs Moduli (GPa) = 82.30097 41.67300 59.87639
#
# Poissons Ratio (x) = 0.16424 0.08660
# Poissons Ratio (y) = 0.32436 0.44025
# Poissons Ratio (z) = 0.11903 0.30641
#
# Static dielectric constant tensor:
#      x y z
#    x 1.652030 0.000000 -0.003140 
#    y 0.000000 1.660190 0.000000 
#    z -0.003140 0.000000 1.671900 
# 
# From -- ./inp_files/34390.got.cif
#   From: 2010.05.17/outbox.cif.g08.bks.cpg/sg15_18_cif.got.tgz:34390.got - 2010.06.03 18:47:42.
