data_PCOD9279761
_publ_section_title
;
Structure prediction by ZEFSAII (Michael W. Deem and Ramdas Pophale) SiO2 
 PCOD9279761
Probable space group: C 2/C
;
_chemical_formula_sum "Si O2"
_cell_formula_units_Z 32
_cell_length_a 5.027045
_cell_length_b 35.967596
_cell_length_c 7.955653
_cell_angle_alpha 90.000000
_cell_angle_beta 89.985511
_cell_angle_gamma 90.000000
_cell_volume 1438.467330
_symmetry_space_group_name_H-M "C 2/C"
_symmetry_group_IT_number 15
_symmetry_cell_setting 'monoclinic'
loop_
_space_group_symop_operation_xyz
x,y,z
-x,y,1/2-z
-x,-y,-z
x,-y,1/2+z
1/2+x,1/2+y,z
1/2-x,1/2+y,1/2-z
1/2-x,1/2-y,-z
1/2+x,1/2-y,1/2+z
loop_
_atom_site_type_symbol
_atom_site_label
_atom_site_fract_x
_atom_site_fract_y
_atom_site_fract_z
Si Si1 0.603230 0.328933 0.436457
Si Si2 0.009247 0.910830 0.954428
Si Si3 0.982415 0.457168 0.548914
Si Si4 0.876748 0.288070 0.931980
O O1 0.500000 0.320006 0.250000
O O2 0.598421 0.373055 0.463397
O O3 0.375531 0.315102 0.564369
O O4 0.881807 0.307830 0.466829
O O5 0.295179 0.927137 0.007480
O O6 0.000000 0.905856 0.750000
O O7 0.803403 0.942641 0.003458
O O8 0.000000 0.455972 0.750000
O O9 0.000000 0.500000 0.500000
O O10 0.000000 0.281330 0.750000
O O11 0.750000 0.250000 0.000000
#
# Coordination Sequence:
#
# PCOD9279761 Si02
#       4
#     8   8   8   8
#     4  12  26  44  69 102 134 170 221 278 330 391
#     4  10  21  39  61  89 124 169 215 262 322 389
#     4  10  21  36  58  87 123 165 214 265 320 382
#     4  12  26  47  71  98 133 176 218 267 330 400
#
# _framework density 22.245899999999999
#
# number of rings (size 3 to 8) (size 9 to 14) (size 15 to 20)
#    0.000    1.000    0.000    6.750    0.000    6.000 
#    0.000    0.000    0.000    0.000    0.000    0.000 
#    0.000    0.000    0.000    0.000    0.000    0.000 
#
# Total GULP energy -89448.313079 kJ/mol
# GULP energy per Si atom -5590.519567 kJ/mol
# Density = 2.219527 g / cm^3
# Si number density = 22.245900 Si / 1000 Ang^3
#
#
#
# Elastic Constant Matrix: (Units=GPa)
#
#
# Indices 1 2 3 4 5 6 
#
# 1 122.2295 33.6275 28.1844 0.0000 -8.1413 0.0000
# 2 33.6275 141.8239 29.2850 0.0000 -9.3133 0.0000
# 3 28.1844 29.2850 64.9700 0.0000 -7.9348 0.0000
# 4 0.0000 0.0000 0.0000 -49.4726 0.0000 46.4569
# 5 -8.1413 -9.3133 -7.9348 0.0000 27.7039 0.0000
# 6 0.0000 0.0000 0.0000 46.4569 0.0000 14.2548
#
#
#
# Elastic Compliance Matrix: (Units=1/GPa)
#
#
# Indices 1 2 3 4 5 6 
#
# 1 0.009428 -0.001474 -0.003262 0.000000 0.001341 0.000000
# 2 -0.001474 0.008080 -0.002823 0.000000 0.001475 0.000000
# 3 -0.003262 -0.002823 0.018493 0.000000 0.003389 0.000000
# 4 0.000000 0.000000 0.000000 -0.004978 0.000000 0.016224
# 5 0.001341 0.001475 0.003389 0.000000 0.037956 0.000000
# 6 0.000000 0.000000 0.000000 0.016224 0.000000 0.017277
#
#
# Mechanical properties :
#
#
# Convention : Reuss Voigt Hill
#
# Bulk Modulus (GPa) = 47.88231 56.80191 52.34211
# Shear Modulus (GPa) = 46.15300 14.35899 30.25600
#
# Velocity S-wave (km/s) = 4.55980 2.54336 3.69191
# Velocity P-wave (km/s) = 7.02091 5.84927 6.46170
#
# Compressibility (1/GPa) = 0.02088454
#
# Stress axis : x y z
#
# Youngs Moduli (GPa) = 106.06365 123.76002 54.07464
#
# Poissons Ratio (x) = 0.18241 0.17639
# Poissons Ratio (y) = 0.15633 0.15263
# Poissons Ratio (z) = 0.34597 0.34932
#
# Static dielectric constant tensor:
#      x y z
#    x 1.796260 0.000000 -0.010090 
#    y 0.000000 1.855810 0.000000 
#    z -0.010090 0.000000 1.863480 
# 
# From -- ./inp_files/19962.got.cif
#   From: 2010.05.17/outbox.cif.g08.bks.cpg/sg15_10_cif.got.tgz:19962.got - 2010.06.03 18:47:42.
