data_PCOD9279591
_publ_section_title
;
Structure prediction by ZEFSAII (Michael W. Deem and Ramdas Pophale) SiO2 
 PCOD9279591
Probable space group: C 2/C
;
_chemical_formula_sum "Si O2"
_cell_formula_units_Z 60
_cell_length_a 23.351262
_cell_length_b 27.351534
_cell_length_c 5.242703
_cell_angle_alpha 90.000000
_cell_angle_beta 63.283433
_cell_angle_gamma 90.000000
_cell_volume 2990.998253
_symmetry_space_group_name_H-M "C 2/C"
_symmetry_group_IT_number 15
_symmetry_cell_setting 'monoclinic'
loop_
_space_group_symop_operation_xyz
x,y,z
-x,y,1/2-z
-x,-y,-z
x,-y,1/2+z
1/2+x,1/2+y,z
1/2-x,1/2+y,1/2-z
1/2-x,1/2-y,-z
1/2+x,1/2-y,1/2+z
loop_
_atom_site_type_symbol
_atom_site_label
_atom_site_fract_x
_atom_site_fract_y
_atom_site_fract_z
Si Si1 0.360945 0.309303 0.405568
Si Si2 0.941782 0.709964 0.678755
Si Si3 0.189749 0.718308 0.712548
Si Si4 0.636230 0.973973 0.332492
Si Si5 0.709809 0.529424 0.959279
Si Si6 0.000000 0.796712 0.250000
Si Si7 0.039541 0.604338 0.935463
Si Si8 0.296183 0.354650 0.038721
O O1 0.343645 0.251743 0.499263
O O2 0.437389 0.320848 0.251375
O O3 0.331446 0.327684 0.201488
O O4 0.327479 0.337377 0.708882
O O5 0.866530 0.714765 0.885914
O O6 0.943049 0.659888 0.517258
O O7 0.000000 0.700030 0.750000
O O8 0.964717 0.760586 0.515861
O O9 0.250000 0.750000 0.500000
O O10 0.222856 0.666139 0.702114
O O11 0.712797 0.972115 0.183053
O O12 0.605206 0.924936 0.288512
O O13 0.616159 0.986013 0.661420
O O14 0.687486 0.496958 0.763677
O O15 0.695542 0.587010 0.959913
O O16 0.000000 0.600770 0.750000
O O17 0.000000 0.582777 0.250000
#
# Coordination Sequence:
#
# PCOD9279591 Si02
#       8
#     8   8   8   8   8   4   8   8
#     4  10  23  36  61  89 123 159 196 235 301 348
#     4  10  21  37  56  79 115 161 198 240 286 348
#     4   9  20  37  57  88 120 159 199 245 297 352
#     4  10  21  36  54  77 106 143 186 244 295 336
#     4  10  21  38  61  85 113 149 192 239 301 355
#     4  10  22  38  58  84 118 156 194 234 274 362
#     4  11  22  36  51  76 103 146 199 234 285 339
#     4  11  21  40  59  92 121 154 195 252 295 352
#
# _framework density 20.060195
#
# number of rings (size 3 to 8) (size 9 to 14) (size 15 to 20)
#    0.000    1.867    0.667    2.800    5.600    1.600 
#    2.400    4.000    0.000    0.000    0.000    9.333 
#    0.000    0.000    0.000    0.000    0.000    0.000 
#
# Total GULP energy -167010.106522 kJ/mol
# GULP energy per Si atom -5567.003551 kJ/mol
# Density = 2.001454 g / cm^3
# Si number density = 20.060195 Si / 1000 Ang^3
#
#
#
# Elastic Constant Matrix: (Units=GPa)
#
#
# Indices 1 2 3 4 5 6 
#
# 1 122.2233 18.2852 37.0632 0.0000 -10.6798 0.0000
# 2 18.2852 81.1633 6.0099 0.0000 3.0815 0.0000
# 3 37.0632 6.0099 59.2863 0.0000 11.0794 0.0000
# 4 0.0000 0.0000 0.0000 21.2242 0.0000 11.5720
# 5 -10.6798 3.0815 11.0794 0.0000 32.3592 0.0000
# 6 0.0000 0.0000 0.0000 11.5720 0.0000 -38.5941
#
#
#
# Elastic Compliance Matrix: (Units=1/GPa)
#
#
# Indices 1 2 3 4 5 6 
#
# 1 0.011659 -0.002271 -0.008353 0.000000 0.006924 0.000000
# 2 -0.002271 0.012876 0.000517 0.000000 -0.002153 0.000000
# 3 -0.008353 0.000517 0.024103 0.000000 -0.011059 0.000000
# 4 0.000000 0.000000 0.000000 0.040496 0.000000 0.012142
# 5 0.006924 -0.002153 -0.011059 0.000000 0.037180 0.000000
# 6 0.000000 0.000000 0.000000 0.012142 0.000000 -0.022270
#
#
# Mechanical properties :
#
#
# Convention : Reuss Voigt Hill
#
# Bulk Modulus (GPa) = 35.18066 42.82104 39.00085
# Shear Modulus (GPa) = 37.38785 16.41883 26.90334
#
# Velocity S-wave (km/s) = 4.32184 2.86401 3.66612
# Velocity P-wave (km/s) = 6.51767 5.68589 6.11594
#
# Compressibility (1/GPa) = 0.02842471
#
# Stress axis : x y z
#
# Youngs Moduli (GPa) = 85.76715 77.66408 41.48797
#
# Poissons Ratio (x) = 0.17639 0.34654
# Poissons Ratio (y) = 0.19479 -0.02144
# Poissons Ratio (z) = 0.71639 -0.04014
#
# Static dielectric constant tensor:
#      x y z
#    x 1.358390 0.000000 0.050200 
#    y 0.000000 1.745990 0.000000 
#    z 0.050200 0.000000 1.705830 
# 
# From -- ./inp_files/14634.got.cif
#   From: 2010.05.17/outbox.cif.g08.bks.cpg/sg15_8_cif.got.tgz:14634.got - 2010.06.03 18:47:42.
