data_PCOD9279074
_publ_section_title
;
Structure prediction by ZEFSAII (Michael W. Deem and Ramdas Pophale) SiO2 
 PCOD9279074
Probable space group: C 2/C
;
_chemical_formula_sum "Si O2"
_cell_formula_units_Z 56
_cell_length_a 26.704385
_cell_length_b 12.657868
_cell_length_c 8.326528
_cell_angle_alpha 90.000000
_cell_angle_beta 76.988123
_cell_angle_gamma 90.000000
_cell_volume 2742.270102
_symmetry_space_group_name_H-M "C 2/C"
_symmetry_group_IT_number 15
_symmetry_cell_setting 'monoclinic'
loop_
_space_group_symop_operation_xyz
x,y,z
-x,y,1/2-z
-x,-y,-z
x,-y,1/2+z
1/2+x,1/2+y,z
1/2-x,1/2+y,1/2-z
1/2-x,1/2-y,-z
1/2+x,1/2-y,1/2+z
loop_
_atom_site_type_symbol
_atom_site_label
_atom_site_fract_x
_atom_site_fract_y
_atom_site_fract_z
Si Si1 0.718199 0.444750 0.919758
Si Si2 0.949626 0.346262 0.332808
Si Si3 0.553415 0.074264 0.296496
Si Si4 0.346254 0.177823 0.002643
Si Si5 0.797744 0.739871 0.733462
Si Si6 0.809621 0.848150 0.239137
Si Si7 0.663104 0.068383 0.037821
O O1 0.685409 0.406309 0.096272
O O2 0.699052 0.364610 0.795362
O O3 0.702943 0.561770 0.880311
O O4 0.780547 0.437961 0.911796
O O5 0.950659 0.446984 0.213378
O O6 0.948404 0.385893 0.519183
O O7 0.895192 0.292800 0.357656
O O8 0.000000 0.282474 0.250000
O O9 0.500000 0.112484 0.250000
O O10 0.609323 0.091541 0.171232
O O11 0.300628 0.206381 0.915611
O O12 0.343546 0.051200 0.028852
O O13 0.347762 0.258611 0.148859
O O14 0.741956 0.717989 0.702389
O O15 0.831431 0.658303 0.602056
#
# Coordination Sequence:
#
# PCOD9279074 Si02
#       7
#     8   8   8   8   8   8   8
#     4  11  24  39  59  81 124 159 198 242 279 346
#     4  10  22  35  56  82 115 153 192 243 293 350
#     4  10  21  34  56  78 118 151 196 233 287 357
#     4  11  24  36  61  84 120 155 196 241 292 345
#     4  11  24  36  59  81 120 155 202 235 283 353
#     4  11  23  39  56  85 115 158 204 235 288 338
#     4  10  23  35  58  86 118 159 192 238 294 342
#
# _framework density 20.421036999999998
#
# number of rings (size 3 to 8) (size 9 to 14) (size 15 to 20)
#    0.000    1.429    1.429    4.714   18.000    0.000 
#    0.000    0.000    0.000    0.000    0.000    5.000 
#    0.000    0.000    0.000    0.000    0.000    0.000 
#
# Total GULP energy -156001.673463 kJ/mol
# GULP energy per Si atom -5571.488338 kJ/mol
# Density = 2.037456 g / cm^3
# Si number density = 20.421037 Si / 1000 Ang^3
#
#
#
# Elastic Constant Matrix: (Units=GPa)
#
#
# Indices 1 2 3 4 5 6 
#
# 1 60.7237 25.5928 20.0518 0.0000 -14.0906 0.0000
# 2 25.5928 106.9770 28.7105 0.0000 -7.5450 0.0000
# 3 20.0518 28.7105 76.8692 0.0000 -17.2655 0.0000
# 4 0.0000 0.0000 0.0000 33.6905 0.0000 -6.4589
# 5 -14.0906 -7.5450 -17.2655 0.0000 43.3436 0.0000
# 6 0.0000 0.0000 0.0000 -6.4589 0.0000 8.6487
#
#
#
# Elastic Compliance Matrix: (Units=1/GPa)
#
#
# Indices 1 2 3 4 5 6 
#
# 1 0.020057 -0.003718 -0.002772 0.000000 0.004769 0.000000
# 2 -0.003718 0.011082 -0.003303 0.000000 -0.000595 0.000000
# 3 -0.002772 -0.003303 0.016072 0.000000 0.004926 0.000000
# 4 0.000000 0.000000 0.000000 0.034642 0.000000 0.025870
# 5 0.004769 -0.000595 0.004926 0.000000 0.026480 0.000000
# 6 0.000000 0.000000 0.000000 0.025870 0.000000 0.134944
#
#
# Mechanical properties :
#
#
# Convention : Reuss Voigt Hill
#
# Bulk Modulus (GPa) = 36.19917 43.69778 39.94847
# Shear Modulus (GPa) = 18.37751 28.48423 23.43087
#
# Velocity S-wave (km/s) = 3.00314 3.73882 3.39099
# Velocity P-wave (km/s) = 5.45802 6.33113 5.91072
#
# Compressibility (1/GPa) = 0.02762494
#
# Stress axis : x y z
#
# Youngs Moduli (GPa) = 49.85779 90.23877 62.21885
#
# Poissons Ratio (x) = 0.33551 0.17248
# Poissons Ratio (y) = 0.18537 0.20550
# Poissons Ratio (z) = 0.13822 0.29804
#
# Static dielectric constant tensor:
#      x y z
#    x 1.900600 0.000000 -0.002710 
#    y 0.000000 1.755120 0.000000 
#    z -0.002710 0.000000 1.837740 
# 
# From -- ./inp_files/69293.got.cif
#   From: 2010.05.17/outbox.cif.g08.bks.cpg/sg15_35_cif.got.tgz:69293.got - 2010.06.03 18:47:42.
