data_PCOD9279896
_publ_section_title
;
Structure prediction by ZEFSAII (Michael W. Deem and Ramdas Pophale) SiO2 
 PCOD9279896
Probable space group: C 2/C
;
_chemical_formula_sum "Si O2"
_cell_formula_units_Z 36
_cell_length_a 5.109786
_cell_length_b 17.943148
_cell_length_c 18.970223
_cell_angle_alpha 90.000000
_cell_angle_beta 93.918090
_cell_angle_gamma 90.000000
_cell_volume 1735.231995
_symmetry_space_group_name_H-M "C 2/C"
_symmetry_group_IT_number 15
_symmetry_cell_setting 'monoclinic'
loop_
_space_group_symop_operation_xyz
x,y,z
-x,y,1/2-z
-x,-y,-z
x,-y,1/2+z
1/2+x,1/2+y,z
1/2-x,1/2+y,1/2-z
1/2-x,1/2-y,-z
1/2+x,1/2-y,1/2+z
loop_
_atom_site_type_symbol
_atom_site_label
_atom_site_fract_x
_atom_site_fract_y
_atom_site_fract_z
Si Si1 0.735789 0.043104 0.707069
Si Si2 0.282220 0.165753 0.477074
Si Si3 0.232665 0.119512 0.108641
Si Si4 0.000000 0.395808 0.750000
Si Si5 0.087776 0.462402 0.428699
O O1 0.500000 0.075294 0.750000
O O2 0.658317 0.058548 0.625225
O O3 0.000000 0.066326 0.750000
O O4 0.700847 0.953340 0.715389
O O5 0.250000 0.250000 0.500000
O O6 0.562371 0.150509 0.445474
O O7 0.259042 0.110456 0.543772
O O8 0.055262 0.143886 0.418063
O O9 0.339964 0.145202 0.186461
O O10 0.252908 0.028412 0.107716
O O11 0.000000 0.500000 0.500000
#
# Coordination Sequence:
#
# PCOD9279896 Si02
#       5
#     8   8   8   4   8
#     4   9  19  31  52  83 117 139 178 238 290 323
#     4  11  23  38  57  83 119 150 189 230 285 331
#     4  10  21  36  61  84 110 148 190 238 277 335
#     4   8  20  30  60  80 116 132 198 226 294 312
#     4   9  20  35  60  89 109 148 194 237 276 333
#
# _framework density 20.746507000000001
#
# number of rings (size 3 to 8) (size 9 to 14) (size 15 to 20)
#    0.667    1.778    0.000    1.333    9.333    3.556 
#    0.000    0.000    7.333    0.000    0.000    0.000 
#    0.000    0.000    0.000    0.000    0.000    0.000 
#
# Total GULP energy -100385.734234 kJ/mol
# GULP energy per Si atom -5576.985235 kJ/mol
# Density = 2.069929 g / cm^3
# Si number density = 20.746507 Si / 1000 Ang^3
#
#
#
# Elastic Constant Matrix: (Units=GPa)
#
#
# Indices 1 2 3 4 5 6 
#
# 1 79.5560 7.0201 26.0188 0.0000 24.7192 0.0000
# 2 7.0201 97.1657 23.9060 0.0000 9.6762 0.0000
# 3 26.0188 23.9060 159.2460 0.0000 36.3573 0.0000
# 4 0.0000 0.0000 0.0000 4.1132 0.0000 1.9628
# 5 24.7192 9.6762 36.3573 0.0000 36.7193 0.0000
# 6 0.0000 0.0000 0.0000 1.9628 0.0000 13.9202
#
#
#
# Elastic Compliance Matrix: (Units=1/GPa)
#
#
# Indices 1 2 3 4 5 6 
#
# 1 0.015900 -0.000056 -0.000193 0.000000 -0.010498 0.000000
# 2 -0.000056 0.010759 -0.001250 0.000000 -0.001560 0.000000
# 3 -0.000193 -0.001250 0.008261 0.000000 -0.007721 0.000000
# 4 0.000000 0.000000 0.000000 0.260659 0.000000 -0.036754
# 5 -0.010498 -0.001560 -0.007721 0.000000 0.042357 0.000000
# 6 0.000000 0.000000 0.000000 -0.036754 0.000000 0.077020
#
#
# Mechanical properties :
#
#
# Convention : Reuss Voigt Hill
#
# Bulk Modulus (GPa) = 31.32530 49.98416 40.65473
# Shear Modulus (GPa) = 11.66606 29.55206 20.60906
#
# Velocity S-wave (km/s) = 2.37389 3.77826 3.15520
# Velocity P-wave (km/s) = 4.75874 6.57106 5.73692
#
# Compressibility (1/GPa) = 0.03192308
#
# Stress axis : x y z
#
# Youngs Moduli (GPa) = 62.89470 92.94912 121.04399
#
# Poissons Ratio (x) = 0.00520 0.02331
# Poissons Ratio (y) = 0.00352 0.15128
# Poissons Ratio (z) = 0.01211 0.11617
#
# Static dielectric constant tensor:
#      x y z
#    x 1.787880 0.000000 -0.027960 
#    y 0.000000 1.734040 0.000000 
#    z -0.027960 0.000000 1.787250 
# 
# From -- ./inp_files/226678.got.cif
#   From: 2010.05.17/outbox.cif.g08.bks.cpg/sg15_114_cif.got.tgz:226678.got - 2010.06.03 18:47:42.
