data_PCOD9279073
_publ_section_title
;
Structure prediction by ZEFSAII (Michael W. Deem and Ramdas Pophale) SiO2 
 PCOD9279073
Probable space group: C 2/C
;
_chemical_formula_sum "Si O2"
_cell_formula_units_Z 40
_cell_length_a 19.867706
_cell_length_b 21.533411
_cell_length_c 9.554099
_cell_angle_alpha 90.000000
_cell_angle_beta 150.450743
_cell_angle_gamma 90.000000
_cell_volume 2015.804305
_symmetry_space_group_name_H-M "C 2/C"
_symmetry_group_IT_number 15
_symmetry_cell_setting 'monoclinic'
loop_
_space_group_symop_operation_xyz
x,y,z
-x,y,1/2-z
-x,-y,-z
x,-y,1/2+z
1/2+x,1/2+y,z
1/2-x,1/2+y,1/2-z
1/2-x,1/2-y,-z
1/2+x,1/2-y,1/2+z
loop_
_atom_site_type_symbol
_atom_site_label
_atom_site_fract_x
_atom_site_fract_y
_atom_site_fract_z
Si Si1 0.648667 0.828233 0.594582
Si Si2 0.578125 0.701786 0.036586
Si Si3 0.613504 0.309050 0.074832
Si Si4 0.616784 0.155542 0.580129
Si Si5 0.007702 0.435735 0.432254
O O1 0.664306 0.761636 0.697277
O O2 0.638762 0.888838 0.674091
O O3 0.776322 0.830323 0.721588
O O4 0.500000 0.827177 0.250000
O O5 0.500000 0.704078 0.750000
O O6 0.473656 0.669212 0.951832
O O7 0.605034 0.774386 0.122675
O O8 0.740293 0.346368 0.243468
O O9 0.500000 0.304136 0.750000
O O10 0.599578 0.106737 0.674271
O O11 0.500000 0.147392 0.250000
O O12 0.000000 0.449167 0.250000
O O13 0.000000 0.500000 0.500000
#
# Coordination Sequence:
#
# PCOD9279073 Si02
#       5
#     8   8   8   8   8
#     4   9  20  34  58  84 118 153 196 230 285 346
#     4  10  21  34  55  91 127 153 182 237 301 351
#     4  10  21  34  56  90 126 153 183 235 301 355
#     4  10  22  36  59  88 122 155 194 236 289 350
#     4  11  23  40  61  85 113 156 206 245 279 336
#
# _framework density 19.843195999999999
#
# number of rings (size 3 to 8) (size 9 to 14) (size 15 to 20)
#    0.000    2.000    2.000    0.600    8.400    4.800 
#    0.000    0.000    0.000    2.400    0.000    0.000 
#    0.000    0.000    0.000    0.000    0.000    0.000 
#
# Total GULP energy -111403.670041 kJ/mol
# GULP energy per Si atom -5570.183502 kJ/mol
# Density = 1.979803 g / cm^3
# Si number density = 19.843196 Si / 1000 Ang^3
#
#
#
# Elastic Constant Matrix: (Units=GPa)
#
#
# Indices 1 2 3 4 5 6 
#
# 1 213.8851 69.7154 56.0716 0.0000 33.2048 0.0000
# 2 69.7154 105.1753 32.9892 0.0000 4.6754 0.0000
# 3 56.0716 32.9892 82.1898 0.0000 14.3649 0.0000
# 4 0.0000 0.0000 0.0000 4.6037 0.0000 0.8602
# 5 33.2048 4.6754 14.3649 0.0000 39.6025 0.0000
# 6 0.0000 0.0000 0.0000 0.8602 0.0000 41.4625
#
#
#
# Elastic Compliance Matrix: (Units=1/GPa)
#
#
# Indices 1 2 3 4 5 6 
#
# 1 0.007358 -0.003835 -0.002650 0.000000 -0.004756 0.000000
# 2 -0.003835 0.012880 -0.003042 0.000000 0.002799 0.000000
# 3 -0.002650 -0.003042 0.015743 0.000000 -0.003130 0.000000
# 4 0.000000 0.000000 0.000000 0.218063 0.000000 -0.004524
# 5 -0.004756 0.002799 -0.003130 0.000000 0.030043 0.000000
# 6 0.000000 0.000000 0.000000 -0.004524 0.000000 0.024212
#
#
# Mechanical properties :
#
#
# Convention : Reuss Voigt Hill
#
# Bulk Modulus (GPa) = 59.07770 79.86696 69.47233
# Shear Modulus (GPa) = 15.01521 33.29866 24.15693
#
# Velocity S-wave (km/s) = 2.75379 4.10089 3.49290
# Velocity P-wave (km/s) = 6.32045 7.92209 7.16616
#
# Compressibility (1/GPa) = 0.01692686
#
# Stress axis : x y z
#
# Youngs Moduli (GPa) = 135.90040 77.64049 63.52158
#
# Poissons Ratio (x) = 0.29775 0.16830
# Poissons Ratio (y) = 0.52118 0.19326
# Poissons Ratio (z) = 0.36007 0.23622
#
# Static dielectric constant tensor:
#      x y z
#    x 1.777910 0.000000 -0.037290 
#    y 0.000000 1.735110 0.000000 
#    z -0.037290 0.000000 1.748000 
# 
# From -- ./inp_files/51384.got.cif
#   From: 2010.05.17/outbox.cif.g08.bks.cpg/sg15_26_cif.got.tgz:51384.got - 2010.06.03 18:47:42.
