data_PCOD9279783
_publ_section_title
;
Structure prediction by ZEFSAII (Michael W. Deem and Ramdas Pophale) SiO2 
 PCOD9279783
Probable space group: C 2/C
;
_chemical_formula_sum "Si O2"
_cell_formula_units_Z 60
_cell_length_a 24.634498
_cell_length_b 15.102515
_cell_length_c 19.851356
_cell_angle_alpha 90.000000
_cell_angle_beta 158.854529
_cell_angle_gamma 90.000000
_cell_volume 2664.243928
_symmetry_space_group_name_H-M "C 2/C"
_symmetry_group_IT_number 15
_symmetry_cell_setting 'monoclinic'
loop_
_space_group_symop_operation_xyz
x,y,z
-x,y,1/2-z
-x,-y,-z
x,-y,1/2+z
1/2+x,1/2+y,z
1/2-x,1/2+y,1/2-z
1/2-x,1/2-y,-z
1/2+x,1/2-y,1/2+z
loop_
_atom_site_type_symbol
_atom_site_label
_atom_site_fract_x
_atom_site_fract_y
_atom_site_fract_z
Si Si1 0.451018 0.235079 0.317641
Si Si2 0.641756 0.469893 0.842475
Si Si3 0.292030 0.984786 0.869748
Si Si4 0.084490 0.550471 0.276050
Si Si5 0.886835 0.773046 0.707416
Si Si6 0.500000 0.634847 0.750000
Si Si7 0.320782 0.206839 0.408768
Si Si8 0.277408 0.672081 0.737681
O O1 0.360450 0.146993 0.186485
O O2 0.502810 0.290639 0.313221
O O3 0.357452 0.293104 0.262441
O O4 0.602393 0.199200 0.527994
O O5 0.712531 0.476822 0.850251
O O6 0.566444 0.373811 0.756778
O O7 0.547767 0.556128 0.751247
O O8 0.782312 0.481845 0.056408
O O9 0.292053 0.887176 0.839884
O O10 0.214200 0.066668 0.743555
O O11 0.463153 0.012524 0.084084
O O12 0.000000 0.565511 0.250000
O O13 0.750000 0.750000 0.500000
O O14 0.815655 0.772102 0.699593
O O15 0.028688 0.707876 0.871448
O O16 0.342185 0.279773 0.377181
#
# Coordination Sequence:
#
# PCOD9279783 Si02
#       8
#     8   8   8   8   8   4   8   8
#     4  11  22  37  64  95 133 175 212 263 312 383
#     4  10  21  36  58  95 130 161 206 265 325 375
#     4   9  20  41  63  87 121 176 212 258 314 385
#     4   9  17  33  60  88 124 163 212 255 316 375
#     4  11  24  44  70  95 125 162 216 278 329 380
#     4  12  22  34  60 100 134 164 216 262 324 374
#     4  11  24  45  67  93 127 173 216 266 326 386
#     4  11  23  43  62  93 132 174 218 259 319 387
#
# _framework density 22.520461000000001
#
# number of rings (size 3 to 8) (size 9 to 14) (size 15 to 20)
#    0.000    1.600    2.000    2.800    1.867    3.200 
#    2.400    9.333    0.000    0.000    0.000    0.000 
#    0.000    0.000    0.000    0.000    0.000    0.000 
#
# Total GULP energy -167249.410230 kJ/mol
# GULP energy per Si atom -5574.980341 kJ/mol
# Density = 2.246920 g / cm^3
# Si number density = 22.520461 Si / 1000 Ang^3
#
#
#
# Elastic Constant Matrix: (Units=GPa)
#
#
# Indices 1 2 3 4 5 6 
#
# 1 57.4663 34.7210 6.6155 0.0010 -5.3707 0.0007
# 2 34.7210 144.0004 -28.1507 0.0015 -8.9496 0.0006
# 3 6.6155 -28.1507 59.4008 0.0010 12.7378 0.0009
# 4 0.0010 0.0015 0.0010 20.5915 0.0006 -1.7680
# 5 -5.3707 -8.9496 12.7378 0.0006 28.2268 0.0007
# 6 0.0007 0.0006 0.0009 -1.7680 0.0007 8.3479
#
#
#
# Elastic Compliance Matrix: (Units=1/GPa)
#
#
# Indices 1 2 3 4 5 6 
#
# 1 0.022537 -0.006412 -0.006679 -0.000001 0.005269 -0.000001
# 2 -0.006412 0.009497 0.005349 -0.000001 -0.000622 -0.000001
# 3 -0.006679 0.005349 0.022167 -0.000001 -0.009578 -0.000002
# 4 -0.000001 -0.000001 -0.000001 0.049463 -0.000001 0.010476
# 5 0.005269 -0.000622 -0.009578 -0.000001 0.040555 -0.000003
# 6 -0.000001 -0.000001 -0.000002 0.010476 -0.000003 0.122010
#
#
# Mechanical properties :
#
#
# Convention : Reuss Voigt Hill
#
# Bulk Modulus (GPa) = 25.82837 31.91544 28.87190
# Shear Modulus (GPa) = 16.97103 27.94536 22.45819
#
# Velocity S-wave (km/s) = 2.74812 3.52644 3.16133
# Velocity P-wave (km/s) = 4.64363 5.54830 5.11600
#
# Compressibility (1/GPa) = 0.03871712
#
# Stress axis : x y z
#
# Youngs Moduli (GPa) = 44.37142 105.29160 45.11155
#
# Poissons Ratio (x) = 0.67515 0.30128
# Poissons Ratio (y) = 0.28452 -0.24128
# Poissons Ratio (z) = 0.29634 -0.56316
#
# Static dielectric constant tensor:
#      x y z
#    x 1.824610 0.000000 0.029830 
#    y 0.000000 1.839170 0.000000 
#    z 0.029830 0.000000 1.902180 
# 
# From -- ./inp_files/257842.got.cif
#   From: 2010.05.17/outbox.cif.g08.bks.cpg/sg15_129_cif.got.tgz:257842.got - 2010.06.03 18:47:42.
