data_PCOD9279832
_publ_section_title
;
Structure prediction by ZEFSAII (Michael W. Deem and Ramdas Pophale) SiO2 
 PCOD9279832
Probable space group: C 2/C
;
_chemical_formula_sum "Si O2"
_cell_formula_units_Z 52
_cell_length_a 10.828494
_cell_length_b 27.740770
_cell_length_c 8.366102
_cell_angle_alpha 90.000000
_cell_angle_beta 71.720829
_cell_angle_gamma 90.000000
_cell_volume 2386.287637
_symmetry_space_group_name_H-M "C 2/C"
_symmetry_group_IT_number 15
_symmetry_cell_setting 'monoclinic'
loop_
_space_group_symop_operation_xyz
x,y,z
-x,y,1/2-z
-x,-y,-z
x,-y,1/2+z
1/2+x,1/2+y,z
1/2-x,1/2+y,1/2-z
1/2-x,1/2-y,-z
1/2+x,1/2-y,1/2+z
loop_
_atom_site_type_symbol
_atom_site_label
_atom_site_fract_x
_atom_site_fract_y
_atom_site_fract_z
Si Si1 0.093800 0.412694 0.554820
Si Si2 0.640848 0.430479 0.623962
Si Si3 0.148050 0.252673 0.252320
Si Si4 0.061777 0.691790 0.064386
Si Si5 0.213759 0.329880 0.973335
Si Si6 0.741052 0.509667 0.383903
Si Si7 0.500000 0.946633 0.250000
O O1 0.216632 0.448310 0.510340
O O2 0.024490 0.420400 0.410760
O O3 0.000000 0.421538 0.750000
O O4 0.138514 0.357672 0.560183
O O5 0.500000 0.416410 0.750000
O O6 0.723527 0.382783 0.544116
O O7 0.636566 0.470078 0.483595
O O8 0.708972 0.461195 0.737133
O O9 0.213931 0.202245 0.188684
O O10 0.000000 0.249607 0.250000
O O11 0.137560 0.268596 0.437369
O O12 0.220342 0.296383 0.129053
O O13 0.937233 0.672627 0.013492
O O14 0.000000 0.711447 0.250000
O O15 0.872744 0.478891 0.319870
#
# Coordination Sequence:
#
# PCOD9279832 Si02
#       7
#     8   8   8   8   8   8   4
#     4  11  22  37  59  98 134 159 203 268 329 378
#     4  12  26  42  62  87 127 175 215 253 319 388
#     4   9  20  38  62  89 119 152 206 260 309 377
#     4  10  21  36  59  93 126 152 198 262 324 375
#     4  10  21  39  62  87 118 163 208 254 310 375
#     4  12  23  41  60  90 127 163 212 268 312 377
#     4  12  22  36  66  94 126 166 212 262 328 374
#
# _framework density 21.791169
#
# number of rings (size 3 to 8) (size 9 to 14) (size 15 to 20)
#    0.000    1.231    2.308    5.077    5.385    0.615 
#    0.000    0.000    0.000    2.769    0.000    0.000 
#    0.000    0.000    0.000    0.000    0.000    0.000 
#
# Total GULP energy -145136.724803 kJ/mol
# GULP energy per Si atom -5582.181723 kJ/mol
# Density = 2.174157 g / cm^3
# Si number density = 21.791169 Si / 1000 Ang^3
#
#
#
# Elastic Constant Matrix: (Units=GPa)
#
#
# Indices 1 2 3 4 5 6 
#
# 1 37.2157 16.4259 -1.0379 0.0000 -4.1450 0.0000
# 2 16.4259 129.2768 43.3503 0.0000 0.1251 0.0000
# 3 -1.0379 43.3503 69.7257 0.0000 19.1787 0.0000
# 4 0.0000 0.0000 0.0000 -28.8702 0.0000 -21.9498
# 5 -4.1450 0.1251 19.1787 0.0000 34.5784 0.0000
# 6 0.0000 0.0000 0.0000 -21.9498 0.0000 20.0864
#
#
#
# Elastic Compliance Matrix: (Units=1/GPa)
#
#
# Indices 1 2 3 4 5 6 
#
# 1 0.029219 -0.004647 0.002780 0.000000 0.001977 0.000000
# 2 -0.004647 0.010988 -0.007949 0.000000 0.003812 0.000000
# 3 0.002780 -0.007949 0.022687 0.000000 -0.012221 0.000000
# 4 0.000000 0.000000 0.000000 -0.018919 0.000000 -0.020674
# 5 0.001977 0.003812 -0.012221 0.000000 0.035921 0.000000
# 6 0.000000 0.000000 0.000000 -0.020674 0.000000 0.027193
#
#
# Mechanical properties :
#
#
# Convention : Reuss Voigt Hill
#
# Bulk Modulus (GPa) = 23.11488 39.29942 31.20715
# Shear Modulus (GPa) = 35.42566 16.99090 26.20828
#
# Velocity S-wave (km/s) = 4.03636 2.79537 3.47176
# Velocity P-wave (km/s) = 5.68800 5.33783 5.51570
#
# Compressibility (1/GPa) = 0.04326218
#
# Stress axis : x y z
#
# Youngs Moduli (GPa) = 34.22425 91.01175 44.07821
#
# Poissons Ratio (x) = 0.42290 -0.12254
# Poissons Ratio (y) = 0.15903 0.35038
# Poissons Ratio (z) = -0.09514 0.72345
#
# Static dielectric constant tensor:
#      x y z
#    x 1.833470 0.000000 0.026790 
#    y 0.000000 1.802390 0.000000 
#    z 0.026790 0.000000 1.863000 
# 
# From -- ./inp_files/35091.got.cif
#   From: 2010.05.17/outbox.cif.g08.bks.cpg/sg15_18_cif.got.tgz:35091.got - 2010.06.03 18:47:42.
