data_PCOD9279554
_publ_section_title
;
Structure prediction by ZEFSAII (Michael W. Deem and Ramdas Pophale) SiO2 
 PCOD9279554
Probable space group: C 2/C
;
_chemical_formula_sum "Si O2"
_cell_formula_units_Z 64
_cell_length_a 15.513224
_cell_length_b 28.166643
_cell_length_c 9.035961
_cell_angle_alpha 90.000000
_cell_angle_beta 108.348190
_cell_angle_gamma 90.000000
_cell_volume 3747.584285
_symmetry_space_group_name_H-M "C 2/C"
_symmetry_group_IT_number 15
_symmetry_cell_setting 'monoclinic'
loop_
_space_group_symop_operation_xyz
x,y,z
-x,y,1/2-z
-x,-y,-z
x,-y,1/2+z
1/2+x,1/2+y,z
1/2-x,1/2+y,1/2-z
1/2-x,1/2-y,-z
1/2+x,1/2-y,1/2+z
loop_
_atom_site_type_symbol
_atom_site_label
_atom_site_fract_x
_atom_site_fract_y
_atom_site_fract_z
Si Si1 0.828174 0.209375 0.530197
Si Si2 0.392952 0.308810 0.729725
Si Si3 0.951311 0.287910 0.592304
Si Si4 0.094560 0.447615 0.099194
Si Si5 0.609891 0.950096 0.463054
Si Si6 0.798038 0.644277 0.869936
Si Si7 0.922470 0.288806 0.099354
Si Si8 0.271027 0.862159 0.001674
O O1 0.750000 0.250000 0.500000
O O2 0.861345 0.194950 0.383758
O O3 0.908074 0.240972 0.640619
O O4 0.790046 0.163616 0.592956
O O5 0.500000 0.318547 0.750000
O O6 0.378047 0.255501 0.658433
O O7 0.325362 0.345478 0.612712
O O8 0.877499 0.319410 0.464589
O O9 0.000000 0.316075 0.750000
O O10 0.021241 0.270567 0.508052
O O11 0.105041 0.453059 0.282053
O O12 0.161330 0.407341 0.074926
O O13 0.988223 0.432843 0.026963
O O14 0.116661 0.497439 0.034038
O O15 0.691457 0.913004 0.533167
O O16 0.776671 0.642816 0.683440
O O17 0.848767 0.324753 0.998930
O O18 0.000000 0.311083 0.250000
#
# Coordination Sequence:
#
# PCOD9279554 Si02
#       8
#     8   8   8   8   8   8   8   8
#     4  10  21  36  50  74 109 142 186 233 274 320
#     4  11  23  39  55  79 110 150 195 238 279 324
#     4  11  22  33  50  78 114 150 184 224 272 327
#     4   9  18  36  54  81 116 144 174 224 272 340
#     4   9  19  34  56  81 112 145 179 218 278 335
#     4  10  21  36  52  80 113 145 183 227 274 335
#     4  11  19  35  54  76 112 151 185 225 273 330
#     4  11  22  34  59  81 107 152 192 226 276 337
#
# _framework density 17.077667999999999
#
# number of rings (size 3 to 8) (size 9 to 14) (size 15 to 20)
#    0.000    1.750    3.750    1.875    7.000    1.000 
#    4.500    0.000    0.000    0.000    0.000    8.750 
#    0.000    0.000    0.000    0.000    0.000    0.000 
#
# Total GULP energy -178142.942872 kJ/mol
# GULP energy per Si atom -5566.966965 kJ/mol
# Density = 1.703880 g / cm^3
# Si number density = 17.077668 Si / 1000 Ang^3
#
#
#
# Elastic Constant Matrix: (Units=GPa)
#
#
# Indices 1 2 3 4 5 6 
#
# 1 96.6441 53.1438 34.1448 0.0000 -3.3803 0.0000
# 2 53.1438 88.2398 20.4434 0.0000 -0.5224 0.0000
# 3 34.1448 20.4434 51.7077 0.0000 4.3619 0.0000
# 4 0.0000 0.0000 0.0000 22.2008 0.0000 -2.8566
# 5 -3.3803 -0.5224 4.3619 0.0000 27.1067 0.0000
# 6 0.0000 0.0000 0.0000 -2.8566 0.0000 30.5839
#
#
#
# Elastic Compliance Matrix: (Units=1/GPa)
#
#
# Indices 1 2 3 4 5 6 
#
# 1 0.018693 -0.009144 -0.009033 0.000000 0.003608 0.000000
# 2 -0.009144 0.016978 -0.000614 0.000000 -0.000714 0.000000
# 3 -0.009033 -0.000614 0.025996 0.000000 -0.005321 0.000000
# 4 0.000000 0.000000 0.000000 0.045591 0.000000 0.004258
# 5 0.003608 -0.000714 -0.005321 0.000000 0.038184 0.000000
# 6 0.000000 0.000000 0.000000 0.004258 0.000000 0.033095
#
#
# Mechanical properties :
#
#
# Convention : Reuss Voigt Hill
#
# Bulk Modulus (GPa) = 41.51977 50.22839 45.87408
# Shear Modulus (GPa) = 22.30675 24.56892 23.43783
#
# Velocity S-wave (km/s) = 3.61805 3.79708 3.70865
# Velocity P-wave (km/s) = 6.46675 6.97849 6.72749
#
# Compressibility (1/GPa) = 0.02408491
#
# Stress axis : x y z
#
# Youngs Moduli (GPa) = 53.49564 58.89997 38.46741
#
# Poissons Ratio (x) = 0.53859 0.34748
# Poissons Ratio (y) = 0.48917 0.02362
# Poissons Ratio (z) = 0.48323 0.03616
#
# Static dielectric constant tensor:
#      x y z
#    x 1.738600 0.000000 -0.037080 
#    y 0.000000 1.580260 0.000000 
#    z -0.037080 0.000000 1.650990 
# 
# From -- ./inp_files/43548.got.cif
#   From: 2010.05.17/outbox.cif.g08.bks.cpg/sg15_22_cif.got.tgz:43548.got - 2010.06.03 18:47:42.
