data_PCOD9279790
_publ_section_title
;
Structure prediction by ZEFSAII (Michael W. Deem and Ramdas Pophale) SiO2 
 PCOD9279790
Probable space group: C 2/C
;
_chemical_formula_sum "Si O2"
_cell_formula_units_Z 52
_cell_length_a 14.164458
_cell_length_b 31.118641
_cell_length_c 8.970746
_cell_angle_alpha 90.000000
_cell_angle_beta 34.073721
_cell_angle_gamma 90.000000
_cell_volume 2215.328298
_symmetry_space_group_name_H-M "C 2/C"
_symmetry_group_IT_number 15
_symmetry_cell_setting 'monoclinic'
loop_
_space_group_symop_operation_xyz
x,y,z
-x,y,1/2-z
-x,-y,-z
x,-y,1/2+z
1/2+x,1/2+y,z
1/2-x,1/2+y,1/2-z
1/2-x,1/2-y,-z
1/2+x,1/2-y,1/2+z
loop_
_atom_site_type_symbol
_atom_site_label
_atom_site_fract_x
_atom_site_fract_y
_atom_site_fract_z
Si Si1 0.309791 0.617554 0.544752
Si Si2 0.335575 0.950616 0.656651
Si Si3 0.730196 0.861442 0.820712
Si Si4 0.316665 0.730644 0.258762
Si Si5 0.000000 0.156691 0.750000
Si Si6 0.276167 0.971729 0.409838
Si Si7 0.189726 0.195301 0.746977
O O1 0.500000 0.628180 0.250000
O O2 0.211299 0.626088 0.518939
O O3 0.301260 0.566754 0.587840
O O4 0.258885 0.651613 0.735852
O O5 0.358946 0.899709 0.651639
O O6 0.235956 0.961099 0.633704
O O7 0.524192 0.965969 0.376167
O O8 0.247805 0.979368 0.897517
O O9 0.703560 0.810438 0.858634
O O10 0.916793 0.866775 0.499893
O O11 0.250000 0.750000 0.500000
O O12 0.313440 0.767178 0.136814
O O13 0.504524 0.712606 0.039602
O O14 0.151346 0.183969 0.625896
#
# Coordination Sequence:
#
# PCOD9279790 Si02
#       7
#     8   8   8   8   4   8   8
#     4  11  18  38  57  86 114 154 195 244 289 349
#     4   9  19  40  56  89 113 154 193 247 297 357
#     4  10  21  36  59  82 118 149 197 244 297 353
#     4  11  20  37  60  87 113 156 201 252 289 362
#     4  10  22  38  56  82 122 162 180 254 304 360
#     4   9  20  35  62  80 119 151 192 245 299 355
#     4  11  23  37  60  86 122 157 200 243 308 352
#
# _framework density 23.472821
#
# number of rings (size 3 to 8) (size 9 to 14) (size 15 to 20)
#    0.000    1.846    4.615    0.462    0.000    4.923 
#    6.923    1.538    0.000    7.385    0.000    0.000 
#    0.000    0.000    0.000    0.000    0.000    0.000 
#
# Total GULP energy -144838.190191 kJ/mol
# GULP energy per Si atom -5570.699623 kJ/mol
# Density = 2.341940 g / cm^3
# Si number density = 23.472821 Si / 1000 Ang^3
#
#
#
# Elastic Constant Matrix: (Units=GPa)
#
#
# Indices 1 2 3 4 5 6 
#
# 1 53.3925 29.3522 -0.1333 0.0000 10.5176 0.0000
# 2 29.3522 128.5254 2.8293 0.0000 9.2866 0.0000
# 3 -0.1333 2.8293 40.6699 0.0000 14.9906 0.0000
# 4 0.0000 0.0000 0.0000 25.8290 0.0000 3.0923
# 5 10.5176 9.2866 14.9906 0.0000 18.6386 0.0000
# 6 0.0000 0.0000 0.0000 3.0923 0.0000 32.8517
#
#
#
# Elastic Compliance Matrix: (Units=1/GPa)
#
#
# Indices 1 2 3 4 5 6 
#
# 1 0.024578 -0.004534 0.006646 0.000000 -0.016955 0.000000
# 2 -0.004534 0.008957 0.000091 0.000000 -0.001977 0.000000
# 3 0.006646 0.000091 0.036959 0.000000 -0.033521 0.000000
# 4 0.000000 0.000000 0.000000 0.039157 0.000000 -0.003686
# 5 -0.016955 -0.001977 -0.033521 0.000000 0.091165 0.000000
# 6 0.000000 0.000000 0.000000 -0.003686 0.000000 0.030787
#
#
# Mechanical properties :
#
#
# Convention : Reuss Voigt Hill
#
# Bulk Modulus (GPa) = 13.35139 31.85379 22.60259
# Shear Modulus (GPa) = 19.82819 28.16650 23.99734
#
# Velocity S-wave (km/s) = 2.90958 3.46781 3.20088
# Velocity P-wave (km/s) = 4.12164 5.44373 4.82815
#
# Compressibility (1/GPa) = 0.07489858
#
# Stress axis : x y z
#
# Youngs Moduli (GPa) = 40.68610 111.64507 27.05680
#
# Poissons Ratio (x) = 0.50624 -0.17981
# Poissons Ratio (y) = 0.18448 -0.00246
# Poissons Ratio (z) = -0.27038 -0.01013
#
# Static dielectric constant tensor:
#      x y z
#    x 1.990540 0.000000 -0.021700 
#    y 0.000000 1.959860 0.000000 
#    z -0.021700 0.000000 1.881760 
# 
# From -- ./inp_files/44757.got.cif
#   From: 2010.05.17/outbox.cif.g08.bks.cpg/sg15_23_cif.got.tgz:44757.got - 2010.06.03 18:47:42.
