data_PCOD9279779
_publ_section_title
;
Structure prediction by ZEFSAII (Michael W. Deem and Ramdas Pophale) SiO2 
 PCOD9279779
Probable space group: C 2/C
;
_chemical_formula_sum "Si O2"
_cell_formula_units_Z 44
_cell_length_a 12.483182
_cell_length_b 14.950139
_cell_length_c 9.864529
_cell_angle_alpha 90.000000
_cell_angle_beta 112.737492
_cell_angle_gamma 90.000000
_cell_volume 1697.900385
_symmetry_space_group_name_H-M "C 2/C"
_symmetry_group_IT_number 15
_symmetry_cell_setting 'monoclinic'
loop_
_space_group_symop_operation_xyz
x,y,z
-x,y,1/2-z
-x,-y,-z
x,-y,1/2+z
1/2+x,1/2+y,z
1/2-x,1/2+y,1/2-z
1/2-x,1/2-y,-z
1/2+x,1/2-y,1/2+z
loop_
_atom_site_type_symbol
_atom_site_label
_atom_site_fract_x
_atom_site_fract_y
_atom_site_fract_z
Si Si1 0.500000 0.129882 0.750000
Si Si2 0.896183 0.122135 0.503753
Si Si3 0.097539 0.074712 0.414880
Si Si4 0.377035 0.008389 0.015860
Si Si5 0.037417 0.693789 0.466963
Si Si6 0.227348 0.639585 0.175198
O O1 0.540475 0.185457 0.636071
O O2 0.602884 0.062938 0.852878
O O3 0.855213 0.026595 0.540064
O O4 0.809833 0.148385 0.341448
O O5 0.915067 0.217318 0.581225
O O6 0.025971 0.101138 0.512102
O O7 0.000000 0.068405 0.250000
O O8 0.189345 0.150888 0.416241
O O9 0.382745 0.112637 0.049865
O O10 0.500000 0.000000 0.000000
O O11 0.295783 0.966306 0.861309
O O12 0.898911 0.682302 0.376006
#
# Coordination Sequence:
#
# PCOD9279779 Si02
#       6
#     4   8   8   8   8   8
#     4   8  16  32  56  76 112 146 170 234 284 324
#     4  10  21  39  56  86 119 149 185 253 275 339
#     4   9  20  39  59  77 118 157 191 220 301 352
#     4   8  17  35  53  85 113 147 183 232 291 338
#     4  10  21  36  58  92 114 141 201 244 276 332
#     4   9  19  36  60  81 111 155 191 222 294 347
#
# _framework density 25.914361
#
# number of rings (size 3 to 8) (size 9 to 14) (size 15 to 20)
#    0.000    3.273    0.000    0.000    3.818    9.455 
#   14.727    0.909    0.000    0.000    0.000    0.000 
#    0.000    0.000    0.000    0.000    0.000    0.000 
#
# Total GULP energy -122549.507723 kJ/mol
# GULP energy per Si atom -5570.432169 kJ/mol
# Density = 2.585538 g / cm^3
# Si number density = 25.914361 Si / 1000 Ang^3
#
#
#
# Elastic Constant Matrix: (Units=GPa)
#
#
# Indices 1 2 3 4 5 6 
#
# 1 42.1936 -1.9505 11.7757 0.0000 -6.8759 0.0000
# 2 -1.9505 126.0957 23.1917 0.0000 14.8208 0.0000
# 3 11.7757 23.1917 86.9739 0.0000 15.0683 0.0000
# 4 0.0000 0.0000 0.0000 17.2770 0.0000 2.9288
# 5 -6.8759 14.8208 15.0683 0.0000 32.9455 0.0000
# 6 0.0000 0.0000 0.0000 2.9288 0.0000 25.6037
#
#
#
# Elastic Compliance Matrix: (Units=1/GPa)
#
#
# Indices 1 2 3 4 5 6 
#
# 1 0.026353 0.000435 -0.004999 0.000000 0.007591 0.000000
# 2 0.000435 0.008623 -0.001848 0.000000 -0.002943 0.000000
# 3 -0.004999 -0.001848 0.013797 0.000000 -0.006522 0.000000
# 4 0.000000 0.000000 0.000000 0.059025 0.000000 -0.006752
# 5 0.007591 -0.002943 -0.006522 0.000000 0.036245 0.000000
# 6 0.000000 0.000000 0.000000 -0.006752 0.000000 0.039829
#
#
# Mechanical properties :
#
#
# Convention : Reuss Voigt Hill
#
# Bulk Modulus (GPa) = 27.81795 35.69968 31.75882
# Shear Modulus (GPa) = 23.96019 29.98165 26.97092
#
# Velocity S-wave (km/s) = 3.04401 3.40509 3.22960
# Velocity P-wave (km/s) = 4.80755 5.40975 5.11752
#
# Compressibility (1/GPa) = 0.03594801
#
# Stress axis : x y z
#
# Youngs Moduli (GPa) = 37.94700 115.96796 72.47731
#
# Poissons Ratio (x) = -0.05043 0.36232
# Poissons Ratio (y) = -0.01650 0.13396
# Poissons Ratio (z) = 0.18970 0.21435
#
# Static dielectric constant tensor:
#      x y z
#    x 2.218820 0.000000 0.047990 
#    y 0.000000 2.189520 0.000000 
#    z 0.047990 0.000000 2.108940 
# 
# From -- ./inp_files/96613.got.cif
#   From: 2010.05.17/outbox.cif.g08.bks.cpg/sg15_49_cif.got.tgz:96613.got - 2010.06.03 18:47:42.
