data_PCOD9279252
_publ_section_title
;
Structure prediction by ZEFSAII (Michael W. Deem and Ramdas Pophale) SiO2 
 PCOD9279252
Probable space group: C 2/C
;
_chemical_formula_sum "Si O2"
_cell_formula_units_Z 40
_cell_length_a 19.306121
_cell_length_b 5.213962
_cell_length_c 18.486422
_cell_angle_alpha 90.000000
_cell_angle_beta 92.546496
_cell_angle_gamma 90.000000
_cell_volume 1859.031156
_symmetry_space_group_name_H-M "C 2/C"
_symmetry_group_IT_number 15
_symmetry_cell_setting 'monoclinic'
loop_
_space_group_symop_operation_xyz
x,y,z
-x,y,1/2-z
-x,-y,-z
x,-y,1/2+z
1/2+x,1/2+y,z
1/2-x,1/2+y,1/2-z
1/2-x,1/2-y,-z
1/2+x,1/2-y,1/2+z
loop_
_atom_site_type_symbol
_atom_site_label
_atom_site_fract_x
_atom_site_fract_y
_atom_site_fract_z
Si Si1 0.926022 0.157701 0.280350
Si Si2 0.219954 0.278063 0.878675
Si Si3 0.659365 0.825883 0.732128
Si Si4 0.321996 0.729907 0.047739
Si Si5 0.359572 0.531765 0.908912
O O1 0.876397 0.399588 0.266493
O O2 0.921862 0.093706 0.366296
O O3 0.000000 0.210208 0.250000
O O4 0.894405 0.896711 0.245802
O O5 0.221396 0.307684 0.792044
O O6 0.172353 0.506049 0.908902
O O7 0.297272 0.324913 0.913244
O O8 0.188240 0.009831 0.900402
O O9 0.672154 0.740866 0.649795
O O10 0.250000 0.750000 0.000000
O O11 0.375279 0.658568 0.986281
#
# Coordination Sequence:
#
# PCOD9279252 Si02
#       5
#     8   8   8   8   8
#     4  10  22  38  59  81 109 149 202 239 269 326
#     4  11  22  35  57  89 124 137 181 232 296 340
#     4  10  23  35  60  85 114 146 187 241 284 321
#     4  10  21  35  54  84 122 154 174 221 283 361
#     4   9  23  33  62  81 115 147 191 217 288 334
#
# _framework density 21.516584000000002
#
# number of rings (size 3 to 8) (size 9 to 14) (size 15 to 20)
#    1.200    0.800    0.000    4.200   11.200    0.000 
#    0.000    0.000    0.000    7.200    0.000    0.000 
#    0.000    0.000    0.000    0.000    0.000    0.000 
#
# Total GULP energy -111533.242243 kJ/mol
# GULP energy per Si atom -5576.662112 kJ/mol
# Density = 2.146761 g / cm^3
# Si number density = 21.516584 Si / 1000 Ang^3
#
#
#
# Elastic Constant Matrix: (Units=GPa)
#
#
# Indices 1 2 3 4 5 6 
#
# 1 32.4332 13.0317 15.8949 0.0000 -21.4113 0.0000
# 2 13.0317 131.9663 30.1126 0.0000 -7.8221 0.0000
# 3 15.8949 30.1126 102.8212 0.0000 -21.4667 0.0000
# 4 0.0000 0.0000 0.0000 18.7189 0.0000 -7.5140
# 5 -21.4113 -7.8221 -21.4667 0.0000 24.5927 0.0000
# 6 0.0000 0.0000 0.0000 -7.5140 0.0000 14.3415
#
#
#
# Elastic Compliance Matrix: (Units=1/GPa)
#
#
# Indices 1 2 3 4 5 6 
#
# 1 0.075182 -0.004275 0.003683 0.000000 0.067311 0.000000
# 2 -0.004275 0.008371 -0.002460 0.000000 -0.003207 0.000000
# 3 0.003683 -0.002460 0.012697 0.000000 0.013507 0.000000
# 4 0.000000 0.000000 0.000000 0.067650 0.000000 0.035444
# 5 0.067311 -0.003207 0.013507 0.000000 0.110036 0.000000
# 6 0.000000 0.000000 0.000000 0.035444 0.000000 0.088298
#
#
# Mechanical properties :
#
#
# Convention : Reuss Voigt Hill
#
# Bulk Modulus (GPa) = 11.09322 42.81100 26.95211
# Shear Modulus (GPa) = 12.55063 25.40940 18.98001
#
# Velocity S-wave (km/s) = 2.41778 3.44018 2.97326
# Velocity P-wave (km/s) = 3.60015 5.97660 4.93360
#
# Compressibility (1/GPa) = 0.09014517
#
# Stress axis : x y z
#
# Youngs Moduli (GPa) = 13.30106 119.45794 78.76055
#
# Poissons Ratio (x) = 0.51066 -0.29006
# Poissons Ratio (y) = 0.05686 0.19377
# Poissons Ratio (z) = -0.04898 0.29390
#
# Static dielectric constant tensor:
#      x y z
#    x 1.773120 0.000000 -0.019930 
#    y 0.000000 1.825010 0.000000 
#    z -0.019930 0.000000 1.877290 
# 
# From -- ./inp_files/212641.got.cif
#   From: 2010.05.17/outbox.cif.g08.bks.cpg/sg15_107_cif.got.tgz:212641.got - 2010.06.03 18:47:42.
