data_PCOD9279082
_publ_section_title
;
Structure prediction by ZEFSAII (Michael W. Deem and Ramdas Pophale) SiO2 
 PCOD9279082
Probable space group: C 2/C
;
_chemical_formula_sum "Si O2"
_cell_formula_units_Z 48
_cell_length_a 8.382665
_cell_length_b 16.512038
_cell_length_c 12.808931
_cell_angle_alpha 90.000000
_cell_angle_beta 91.772998
_cell_angle_gamma 90.000000
_cell_volume 1772.097892
_symmetry_space_group_name_H-M "C 2/C"
_symmetry_group_IT_number 15
_symmetry_cell_setting 'monoclinic'
loop_
_space_group_symop_operation_xyz
x,y,z
-x,y,1/2-z
-x,-y,-z
x,-y,1/2+z
1/2+x,1/2+y,z
1/2-x,1/2+y,1/2-z
1/2-x,1/2-y,-z
1/2+x,1/2-y,1/2+z
loop_
_atom_site_type_symbol
_atom_site_label
_atom_site_fract_x
_atom_site_fract_y
_atom_site_fract_z
Si Si1 0.016413 0.591106 0.374409
Si Si2 0.638024 0.746474 0.390554
Si Si3 0.337135 0.245334 0.180669
Si Si4 0.841060 0.914330 0.547251
Si Si5 0.146403 0.922399 0.333383
Si Si6 0.848353 0.578851 0.642325
O O1 0.134227 0.667551 0.391764
O O2 0.084058 0.503404 0.403680
O O3 0.000000 0.587858 0.250000
O O4 0.838949 0.603490 0.413283
O O5 0.750000 0.750000 0.500000
O O6 0.713591 0.738630 0.275042
O O7 0.553258 0.659883 0.407411
O O8 0.562788 0.836242 0.379347
O O9 0.500000 0.252375 0.250000
O O10 0.329286 0.331752 0.123916
O O11 0.818118 0.908296 0.423512
O O12 0.872798 0.004131 0.587367
O O13 0.302900 0.934604 0.261644
O O14 0.000000 0.927488 0.250000
#
# Coordination Sequence:
#
# PCOD9279082 Si02
#       6
#     8   8   8   8   8   8
#     4  11  18  34  60  82 105 138 181 222 271 317
#     4   9  17  30  50  77 105 137 175 213 259 318
#     4   9  16  31  54  74  98 144 178 209 252 325
#     4  11  20  36  59  82 107 142 180 225 269 319
#     4  10  21  36  56  79 109 146 183 218 265 321
#     4  10  21  34  56  85 110 136 181 228 268 315
#
# _framework density 27.086539999999999
#
# number of rings (size 3 to 8) (size 9 to 14) (size 15 to 20)
#    0.000    2.000    5.000    0.500    0.000    0.667 
#    0.000    1.667    3.667    0.000    0.000    0.000 
#    0.000    0.000    0.000    0.000    0.000    0.000 
#
# Total GULP energy -133973.292832 kJ/mol
# GULP energy per Si atom -5582.220535 kJ/mol
# Density = 2.702489 g / cm^3
# Si number density = 27.086540 Si / 1000 Ang^3
#
#
#
# Elastic Constant Matrix: (Units=GPa)
#
#
# Indices 1 2 3 4 5 6 
#
# 1 55.7880 21.7653 19.6521 0.0000 -6.9576 0.0000
# 2 21.7653 289.2082 27.8735 0.0000 1.6635 0.0000
# 3 19.6521 27.8735 108.9254 0.0000 -12.8478 0.0000
# 4 0.0000 0.0000 0.0000 26.7062 0.0000 13.7198
# 5 -6.9576 1.6635 -12.8478 0.0000 39.5967 0.0000
# 6 0.0000 0.0000 0.0000 13.7198 0.0000 24.9921
#
#
#
# Elastic Compliance Matrix: (Units=1/GPa)
#
#
# Indices 1 2 3 4 5 6 
#
# 1 0.019759 -0.001217 -0.002951 0.000000 0.002566 0.000000
# 2 -0.001217 0.003628 -0.000782 0.000000 -0.000620 0.000000
# 3 -0.002951 -0.000782 0.010248 0.000000 0.002839 0.000000
# 4 0.000000 0.000000 0.000000 0.052153 0.000000 -0.028630
# 5 0.002566 -0.000620 0.002839 0.000000 0.026653 0.000000
# 6 0.000000 0.000000 0.000000 -0.028630 0.000000 0.055730
#
#
# Mechanical properties :
#
#
# Convention : Reuss Voigt Hill
#
# Bulk Modulus (GPa) = 42.13128 65.83372 53.98250
# Shear Modulus (GPa) = 26.88416 43.90103 35.39260
#
# Velocity S-wave (km/s) = 3.15386 4.03025 3.61868
# Velocity P-wave (km/s) = 5.37127 6.78343 6.11823
#
# Compressibility (1/GPa) = 0.02373533
#
# Stress axis : x y z
#
# Youngs Moduli (GPa) = 50.60877 275.61366 97.58013
#
# Poissons Ratio (x) = 0.33554 0.28794
# Poissons Ratio (y) = 0.06161 0.07630
# Poissons Ratio (z) = 0.14934 0.21552
#
# Static dielectric constant tensor:
#      x y z
#    x 2.216780 0.000000 0.002220 
#    y 0.000000 2.241320 0.000000 
#    z 0.002220 0.000000 2.079320 
# 
# From -- ./inp_files/143546.got.cif
#   From: 2010.05.17/outbox.cif.g08.bks.cpg/sg15_72_cif.got.tgz:143546.got - 2010.06.03 18:47:42.
