data_PCOD9279679
_publ_section_title
;
Structure prediction by ZEFSAII (Michael W. Deem and Ramdas Pophale) SiO2 
 PCOD9279679
Probable space group: C 2/C
;
_chemical_formula_sum "Si O2"
_cell_formula_units_Z 40
_cell_length_a 12.699452
_cell_length_b 31.233181
_cell_length_c 5.080675
_cell_angle_alpha 90.000000
_cell_angle_beta 82.156429
_cell_angle_gamma 90.000000
_cell_volume 1996.366989
_symmetry_space_group_name_H-M "C 2/C"
_symmetry_group_IT_number 15
_symmetry_cell_setting 'monoclinic'
loop_
_space_group_symop_operation_xyz
x,y,z
-x,y,1/2-z
-x,-y,-z
x,-y,1/2+z
1/2+x,1/2+y,z
1/2-x,1/2+y,1/2-z
1/2-x,1/2-y,-z
1/2+x,1/2-y,1/2+z
loop_
_atom_site_type_symbol
_atom_site_label
_atom_site_fract_x
_atom_site_fract_y
_atom_site_fract_z
Si Si1 0.424064 0.228461 0.524765
Si Si2 0.076396 0.176225 0.476789
Si Si3 0.621208 0.471532 0.671342
Si Si4 0.376064 0.138298 0.714497
Si Si5 0.742396 0.109406 0.221803
O O1 0.500000 0.232623 0.750000
O O2 0.375414 0.275676 0.508639
O O3 0.356676 0.186409 0.610244
O O4 0.500000 0.219622 0.250000
O O5 0.164940 0.140524 0.413792
O O6 0.000000 0.175177 0.250000
O O7 0.000000 0.168507 0.750000
O O8 0.500000 0.455112 0.750000
O O9 0.632468 0.489186 0.372497
O O10 0.704718 0.435312 0.716965
O O11 0.500000 0.134868 0.750000
O O12 0.341925 0.107398 0.487742
O O13 0.309574 0.129466 0.999335
#
# Coordination Sequence:
#
# PCOD9279679 Si02
#       5
#     8   8   8   8   8
#     4   9  18  35  55  78 117 162 197 239 291 337
#     4  10  21  36  56  87 124 153 190 246 298 352
#     4  10  22  41  65  92 122 149 177 227 299 374
#     4  11  23  39  58  83 119 161 207 248 279 326
#     4  12  23  37  64  90 114 155 200 243 292 349
#
# _framework density 20.036397999999998
#
# number of rings (size 3 to 8) (size 9 to 14) (size 15 to 20)
#    0.000    1.600    0.000    6.000    0.000    4.000 
#    0.000    0.000    0.000   12.000    0.000    0.000 
#    0.000    0.000    0.000    0.000    0.000    0.000 
#
# Total GULP energy -111756.924026 kJ/mol
# GULP energy per Si atom -5587.846201 kJ/mol
# Density = 1.999079 g / cm^3
# Si number density = 20.036398 Si / 1000 Ang^3
#
#
#
# Elastic Constant Matrix: (Units=GPa)
#
#
# Indices 1 2 3 4 5 6 
#
# 1 81.2555 39.5756 26.2609 0.0000 11.3638 0.0000
# 2 39.5756 49.8891 9.0779 0.0000 -10.1853 0.0000
# 3 26.2609 9.0779 141.1490 0.0000 1.3000 0.0000
# 4 0.0000 0.0000 0.0000 16.3773 0.0000 12.1739
# 5 11.3638 -10.1853 1.3000 0.0000 28.8522 0.0000
# 6 0.0000 0.0000 0.0000 12.1739 0.0000 34.1082
#
#
#
# Elastic Compliance Matrix: (Units=1/GPa)
#
#
# Indices 1 2 3 4 5 6 
#
# 1 0.029657 -0.027186 -0.003575 0.000000 -0.021117 0.000000
# 2 -0.027186 0.046828 0.001796 0.000000 0.027158 0.000000
# 3 -0.003575 0.001796 0.007619 0.000000 0.001699 0.000000
# 4 0.000000 0.000000 0.000000 0.083110 0.000000 -0.029663
# 5 -0.021117 0.027158 0.001699 0.000000 0.052487 0.000000
# 6 0.000000 0.000000 0.000000 -0.029663 0.000000 0.039906
#
#
# Mechanical properties :
#
#
# Convention : Reuss Voigt Hill
#
# Bulk Modulus (GPa) = 38.20621 46.90249 42.55435
# Shear Modulus (GPa) = 15.32517 29.02616 22.17566
#
# Velocity S-wave (km/s) = 2.76862 3.81027 3.33042
# Velocity P-wave (km/s) = 5.41573 6.54347 6.00613
#
# Compressibility (1/GPa) = 0.02617376
#
# Stress axis : x y z
#
# Youngs Moduli (GPa) = 33.71938 21.35461 131.25739
#
# Poissons Ratio (x) = 0.58055 0.46920
# Poissons Ratio (y) = 0.91671 -0.23577
# Poissons Ratio (z) = 0.12054 -0.03836
#
# Static dielectric constant tensor:
#      x y z
#    x 1.708370 0.000000 0.022760 
#    y 0.000000 1.729790 0.000000 
#    z 0.022760 0.000000 1.669320 
# 
# From -- ./inp_files/4881.got.cif
#   From: 2010.05.17/outbox.cif.g08.bks.cpg/sg15_3_cif.got.tgz:4881.got - 2010.06.03 18:47:42.
