data_PCOD9279743
_publ_section_title
;
Structure prediction by ZEFSAII (Michael W. Deem and Ramdas Pophale) SiO2 
 PCOD9279743
Probable space group: C 2/C
;
_chemical_formula_sum "Si O2"
_cell_formula_units_Z 56
_cell_length_a 18.063639
_cell_length_b 21.857482
_cell_length_c 9.323258
_cell_angle_alpha 90.000000
_cell_angle_beta 56.599275
_cell_angle_gamma 90.000000
_cell_volume 3073.100715
_symmetry_space_group_name_H-M "C 2/C"
_symmetry_group_IT_number 15
_symmetry_cell_setting 'monoclinic'
loop_
_space_group_symop_operation_xyz
x,y,z
-x,y,1/2-z
-x,-y,-z
x,-y,1/2+z
1/2+x,1/2+y,z
1/2-x,1/2+y,1/2-z
1/2-x,1/2-y,-z
1/2+x,1/2-y,1/2+z
loop_
_atom_site_type_symbol
_atom_site_label
_atom_site_fract_x
_atom_site_fract_y
_atom_site_fract_z
Si Si1 0.481106 0.245507 0.601154
Si Si2 0.314878 0.400420 0.135965
Si Si3 0.090371 0.874213 0.732581
Si Si4 0.596932 0.474176 0.949171
Si Si5 0.322196 0.188095 0.600649
Si Si6 0.405631 0.633234 0.818452
Si Si7 0.345518 0.245660 0.286891
O O1 0.500000 0.231509 0.750000
O O2 0.438580 0.313882 0.651766
O O3 0.407457 0.203245 0.605138
O O4 0.570784 0.243998 0.409540
O O5 0.333426 0.471980 0.093640
O O6 0.224725 0.375326 0.301216
O O7 0.390906 0.385599 0.171126
O O8 0.338437 0.363492 0.967685
O O9 0.124868 0.928725 0.792896
O O10 0.000000 0.895765 0.750000
O O11 0.500000 0.500000 0.000000
O O12 0.597196 0.427879 0.084137
O O13 0.346688 0.192510 0.404882
O O14 0.243906 0.239314 0.705963
O O15 0.500000 0.660857 0.750000
O O16 0.345673 0.693206 0.889663
#
# Coordination Sequence:
#
# PCOD9279743 Si02
#       7
#     8   8   8   8   8   8   8
#     4  11  22  37  60  86 115 155 196 241 298 338
#     4  11  23  32  47  75 112 158 187 229 274 326
#     4  11  20  33  49  79 114 146 190 229 277 341
#     4  12  21  31  49  77 114 155 189 224 270 348
#     4  10  21  38  53  79 119 149 199 243 276 350
#     4  11  18  31  50  74 107 146 192 220 270 340
#     4  10  21  36  58  81 111 155 195 240 286 338
#
# _framework density 18.222636999999999
#
# number of rings (size 3 to 8) (size 9 to 14) (size 15 to 20)
#    0.000    1.143    2.857    7.286    0.000    2.286 
#    0.000    0.000    0.000    0.000    0.000    0.000 
#    0.000  117.714    0.000    0.000    0.000    0.000 
#
# Total GULP energy -155892.554455 kJ/mol
# GULP energy per Si atom -5567.591231 kJ/mol
# Density = 1.818116 g / cm^3
# Si number density = 18.222637 Si / 1000 Ang^3
#
#
#
# Elastic Constant Matrix: (Units=GPa)
#
#
# Indices 1 2 3 4 5 6 
#
# 1 77.3792 9.9441 31.9726 0.0000 -2.9164 0.0000
# 2 9.9441 42.0514 42.8915 0.0000 -2.6671 0.0000
# 3 31.9726 42.8915 128.3637 0.0000 2.8001 0.0000
# 4 0.0000 0.0000 0.0000 18.8809 0.0000 2.3017
# 5 -2.9164 -2.6671 2.8001 0.0000 20.9886 0.0000
# 6 0.0000 0.0000 0.0000 2.3017 0.0000 23.3924
#
#
#
# Elastic Compliance Matrix: (Units=1/GPa)
#
#
# Indices 1 2 3 4 5 6 
#
# 1 0.014551 0.000731 -0.003926 0.000000 0.002639 0.000000
# 2 0.000731 0.036938 -0.012666 0.000000 0.006485 0.000000
# 3 -0.003926 -0.012666 0.013086 0.000000 -0.003901 0.000000
# 4 0.000000 0.000000 0.000000 0.053607 0.000000 -0.005275
# 5 0.002639 0.006485 -0.003901 0.000000 0.049356 0.000000
# 6 0.000000 0.000000 0.000000 -0.005275 0.000000 0.043268
#
#
# Mechanical properties :
#
#
# Convention : Reuss Voigt Hill
#
# Bulk Modulus (GPa) = 30.43930 46.37899 38.40915
# Shear Modulus (GPa) = 19.72556 23.51814 21.62185
#
# Velocity S-wave (km/s) = 3.29367 3.59639 3.44835
# Velocity P-wave (km/s) = 5.58612 6.53850 6.08098
#
# Compressibility (1/GPa) = 0.03285226
#
# Stress axis : x y z
#
# Youngs Moduli (GPa) = 68.72312 27.07246 76.41988
#
# Poissons Ratio (x) = -0.01979 0.30004
# Poissons Ratio (y) = -0.05023 0.96793
# Poissons Ratio (z) = 0.26982 0.34290
#
# Static dielectric constant tensor:
#      x y z
#    x 1.678770 0.000000 0.035360 
#    y 0.000000 1.685160 0.000000 
#    z 0.035360 0.000000 1.716180 
# 
# From -- ./inp_files/51476.got.cif
#   From: 2010.05.17/outbox.cif.g08.bks.cpg/sg15_26_cif.got.tgz:51476.got - 2010.06.03 18:47:42.
