data_PCOD9279343
_publ_section_title
;
Structure prediction by ZEFSAII (Michael W. Deem and Ramdas Pophale) SiO2 
 PCOD9279343
Probable space group: C 2/C
;
_chemical_formula_sum "Si O2"
_cell_formula_units_Z 60
_cell_length_a 20.504799
_cell_length_b 25.667542
_cell_length_c 8.652941
_cell_angle_alpha 90.000000
_cell_angle_beta 139.729176
_cell_angle_gamma 90.000000
_cell_volume 2943.782931
_symmetry_space_group_name_H-M "C 2/C"
_symmetry_group_IT_number 15
_symmetry_cell_setting 'monoclinic'
loop_
_space_group_symop_operation_xyz
x,y,z
-x,y,1/2-z
-x,-y,-z
x,-y,1/2+z
1/2+x,1/2+y,z
1/2-x,1/2+y,1/2-z
1/2-x,1/2-y,-z
1/2+x,1/2-y,1/2+z
loop_
_atom_site_type_symbol
_atom_site_label
_atom_site_fract_x
_atom_site_fract_y
_atom_site_fract_z
Si Si1 0.883363 0.562253 0.490527
Si Si2 0.882940 0.320714 0.057581
Si Si3 0.945196 0.845668 0.823026
Si Si4 0.000000 0.205025 0.750000
Si Si5 0.209787 0.530214 0.857066
Si Si6 0.064532 0.037374 0.216505
Si Si7 0.218114 0.256079 0.117328
Si Si8 0.782053 0.648952 0.684366
O O1 0.865328 0.624283 0.433275
O O2 0.816210 0.544995 0.514861
O O3 0.858058 0.518256 0.318614
O O4 0.000000 0.558459 0.750000
O O5 0.862799 0.334931 0.200358
O O6 0.000000 0.304680 0.250000
O O7 0.802665 0.277043 0.863523
O O8 0.932088 0.905852 0.849070
O O9 0.827104 0.833663 0.581505
O O10 0.000000 0.839057 0.750000
O O11 0.995822 0.820837 0.067558
O O12 0.893673 0.234458 0.557951
O O13 0.205625 0.586916 0.764777
O O14 0.326021 0.514587 0.053520
O O15 0.000000 0.045969 0.250000
O O16 0.000000 0.000000 0.000000
O O17 0.211729 0.316336 0.153314
O O18 0.250000 0.250000 0.000000
#
# Coordination Sequence:
#
# PCOD9279343 Si02
#       8
#     8   8   8   4   8   8   8   8
#     4  10  21  39  62  95 122 161 215 253 315 381
#     4  10  23  42  67  90 126 176 213 258 326 398
#     4  10  22  41  64  90 130 173 215 263 330 390
#     4  12  26  42  66 100 128 168 218 278 326 386
#     4  10  21  38  64  87 128 166 204 260 317 381
#     4  10  21  35  57  91 123 166 212 255 315 384
#     4  12  27  42  64  99 127 162 224 274 328 390
#     4  10  22  45  63  88 129 174 210 257 334 392
#
# _framework density 20.381937000000001
#
# number of rings (size 3 to 8) (size 9 to 14) (size 15 to 20)
#    0.000    1.600    1.333    2.400    2.800    2.667 
#    1.200    0.000    0.000    0.000    0.000    0.000 
#    0.000    0.000    0.000    0.000    0.000    0.000 
#
# Total GULP energy -167138.757068 kJ/mol
# GULP energy per Si atom -5571.291902 kJ/mol
# Density = 2.033555 g / cm^3
# Si number density = 20.381937 Si / 1000 Ang^3
#
#
#
# Elastic Constant Matrix: (Units=GPa)
#
#
# Indices 1 2 3 4 5 6 
#
# 1 70.3511 -1.9209 11.8584 0.0000 15.7681 0.0000
# 2 -1.9209 68.9378 29.6043 0.0000 -9.6584 0.0000
# 3 11.8584 29.6043 39.3057 0.0000 13.4553 0.0000
# 4 0.0000 0.0000 0.0000 15.6354 0.0000 -14.9059
# 5 15.7681 -9.6584 13.4553 0.0000 42.9285 0.0000
# 6 0.0000 0.0000 0.0000 -14.9059 0.0000 24.2586
#
#
#
# Elastic Compliance Matrix: (Units=1/GPa)
#
#
# Indices 1 2 3 4 5 6 
#
# 1 0.015984 0.002109 -0.005112 0.000000 -0.003794 0.000000
# 2 0.002109 0.027737 -0.026211 0.000000 0.013681 0.000000
# 3 -0.005112 -0.026211 0.053883 0.000000 -0.020908 0.000000
# 4 0.000000 0.000000 0.000000 0.154410 0.000000 0.094878
# 5 -0.003794 0.013681 -0.020908 0.000000 0.034320 0.000000
# 6 0.000000 0.000000 0.000000 0.094878 0.000000 0.099521
#
#
# Mechanical properties :
#
#
# Convention : Reuss Voigt Hill
#
# Bulk Modulus (GPa) = 25.52549 28.63091 27.07820
# Shear Modulus (GPa) = 10.93275 25.83468 18.38372
#
# Velocity S-wave (km/s) = 2.31853 3.56410 3.00652
# Velocity P-wave (km/s) = 4.44052 5.56909 5.03652
#
# Compressibility (1/GPa) = 0.03917653
#
# Stress axis : x y z
#
# Youngs Moduli (GPa) = 62.56202 36.05256 18.55880
#
# Poissons Ratio (x) = -0.07604 0.09487
# Poissons Ratio (y) = -0.13195 0.48644
# Poissons Ratio (z) = 0.31982 0.94497
#
# Static dielectric constant tensor:
#      x y z
#    x 1.668320 0.000000 -0.121060 
#    y 0.000000 1.658590 0.000000 
#    z -0.121060 0.000000 1.534740 
# 
# From -- ./inp_files/58761.got.cif
#   From: 2010.05.17/outbox.cif.g08.bks.cpg/sg15_30_cif.got.tgz:58761.got - 2010.06.03 18:47:42.
