data_PCOD9279116
_publ_section_title
;
Structure prediction by ZEFSAII (Michael W. Deem and Ramdas Pophale) SiO2 
 PCOD9279116
Probable space group: C 2/C
;
_chemical_formula_sum "Si O2"
_cell_formula_units_Z 40
_cell_length_a 16.322029
_cell_length_b 18.315262
_cell_length_c 7.312023
_cell_angle_alpha 90.000000
_cell_angle_beta 123.033963
_cell_angle_gamma 90.000000
_cell_volume 1832.520928
_symmetry_space_group_name_H-M "C 2/C"
_symmetry_group_IT_number 15
_symmetry_cell_setting 'monoclinic'
loop_
_space_group_symop_operation_xyz
x,y,z
-x,y,1/2-z
-x,-y,-z
x,-y,1/2+z
1/2+x,1/2+y,z
1/2-x,1/2+y,1/2-z
1/2-x,1/2-y,-z
1/2+x,1/2-y,1/2+z
loop_
_atom_site_type_symbol
_atom_site_label
_atom_site_fract_x
_atom_site_fract_y
_atom_site_fract_z
Si Si1 0.632245 0.923054 0.523731
Si Si2 0.564059 0.847278 0.102295
Si Si3 0.000000 0.215035 0.250000
Si Si4 0.500000 0.535798 0.750000
Si Si5 0.110203 0.909798 0.052874
Si Si6 0.808844 0.415334 0.518011
O O1 0.639285 0.871698 0.355028
O O2 0.525622 0.904182 0.479114
O O3 0.645315 0.005248 0.470629
O O4 0.703814 0.908435 0.780379
O O5 0.524980 0.768604 0.112520
O O6 0.615653 0.856528 0.972506
O O7 0.088634 0.161931 0.410487
O O8 0.409512 0.481248 0.595406
O O9 0.473725 0.582501 0.894168
O O10 0.210673 0.909456 0.282384
#
# Coordination Sequence:
#
# PCOD9279116 Si02
#       6
#     8   8   4   4   8   8
#     4  10  21  34  57  94 124 151 192 244 305 341
#     4  10  23  39  58  84 131 163 189 236 303 361
#     4   9  22  46  56  80 123 170 190 232 305 360
#     4   9  20  40  62  88 113 156 192 256 301 342
#     4  10  21  39  64  87 117 151 203 244 301 349
#     4  12  20  34  63  94 116 153 201 256 286 347
#
# _framework density 21.827853999999999
#
# number of rings (size 3 to 8) (size 9 to 14) (size 15 to 20)
#    0.000    2.000    2.000    2.400    2.800    0.800 
#   10.800    4.000    0.000    0.000    0.000    0.000 
#    0.000    0.000    0.000    0.000    0.000    0.000 
#
# Total GULP energy -111731.221769 kJ/mol
# GULP energy per Si atom -5586.561088 kJ/mol
# Density = 2.177817 g / cm^3
# Si number density = 21.827854 Si / 1000 Ang^3
#
#
#
# Elastic Constant Matrix: (Units=GPa)
#
#
# Indices 1 2 3 4 5 6 
#
# 1 25.4531 11.6282 -3.2250 0.0000 -7.8773 0.0000
# 2 11.6282 72.7824 7.6477 0.0000 13.5388 0.0000
# 3 -3.2250 7.6477 113.6796 0.0000 8.2225 0.0000
# 4 0.0000 0.0000 0.0000 23.9923 0.0000 -2.7046
# 5 -7.8773 13.5388 8.2225 0.0000 33.8284 0.0000
# 6 0.0000 0.0000 0.0000 -2.7046 0.0000 3.4966
#
#
#
# Elastic Compliance Matrix: (Units=1/GPa)
#
#
# Indices 1 2 3 4 5 6 
#
# 1 0.049190 -0.010858 0.001001 0.000000 0.015557 0.000000
# 2 -0.010858 0.017279 -0.000801 0.000000 -0.009249 0.000000
# 3 0.001001 -0.000801 0.008997 0.000000 -0.001633 0.000000
# 4 0.000000 0.000000 0.000000 0.045661 0.000000 0.035318
# 5 0.015557 -0.009249 -0.001633 0.000000 0.037282 0.000000
# 6 0.000000 0.000000 0.000000 0.035318 0.000000 0.313307
#
#
# Mechanical properties :
#
#
# Convention : Reuss Voigt Hill
#
# Bulk Modulus (GPa) = 18.46772 27.11298 22.79035
# Shear Modulus (GPa) = 9.78315 25.32107 17.55211
#
# Velocity S-wave (km/s) = 2.11936 3.40962 2.83877
# Velocity P-wave (km/s) = 3.80367 5.28668 4.60526
#
# Compressibility (1/GPa) = 0.05414853
#
# Stress axis : x y z
#
# Youngs Moduli (GPa) = 20.32950 57.87372 111.14709
#
# Poissons Ratio (x) = 0.62838 -0.11123
# Poissons Ratio (y) = 0.22073 0.08908
# Poissons Ratio (z) = -0.02034 0.04638
#
# Static dielectric constant tensor:
#      x y z
#    x 1.815800 0.000000 0.005010 
#    y 0.000000 1.758740 0.000000 
#    z 0.005010 0.000000 1.869090 
# 
# From -- ./inp_files/56862.got.cif
#   From: 2010.05.17/outbox.cif.g08.bks.cpg/sg15_29_cif.got.tgz:56862.got - 2010.06.03 18:47:42.
