data_PCOD9279363
_publ_section_title
;
Structure prediction by ZEFSAII (Michael W. Deem and Ramdas Pophale) SiO2 
 PCOD9279363
Probable space group: C 2/C
;
_chemical_formula_sum "Si O2"
_cell_formula_units_Z 64
_cell_length_a 18.664821
_cell_length_b 20.041776
_cell_length_c 14.689659
_cell_angle_alpha 90.000000
_cell_angle_beta 37.564650
_cell_angle_gamma 90.000000
_cell_volume 3350.092208
_symmetry_space_group_name_H-M "C 2/C"
_symmetry_group_IT_number 15
_symmetry_cell_setting 'monoclinic'
loop_
_space_group_symop_operation_xyz
x,y,z
-x,y,1/2-z
-x,-y,-z
x,-y,1/2+z
1/2+x,1/2+y,z
1/2-x,1/2+y,1/2-z
1/2-x,1/2-y,-z
1/2+x,1/2-y,1/2+z
loop_
_atom_site_type_symbol
_atom_site_label
_atom_site_fract_x
_atom_site_fract_y
_atom_site_fract_z
Si Si1 0.259813 0.633843 0.134133
Si Si2 0.359282 0.915888 0.911724
Si Si3 0.583650 0.063510 0.424834
Si Si4 0.114084 0.339764 0.438946
Si Si5 0.323071 0.737615 0.670364
Si Si6 0.633145 0.215854 0.577997
Si Si7 0.133404 0.438038 0.081956
Si Si8 0.984524 0.795113 0.375061
O O1 0.204209 0.636512 0.089832
O O2 0.191086 0.571233 0.246733
O O3 0.222436 0.695364 0.234951
O O4 0.398328 0.643121 0.985185
O O5 0.500000 0.913328 0.750000
O O6 0.312554 0.991204 0.941415
O O7 0.341470 0.894215 0.033449
O O8 0.496705 0.126448 0.498198
O O9 0.636620 0.060532 0.470403
O O10 0.500000 0.000000 0.500000
O O11 0.213006 0.312710 0.271709
O O12 0.074889 0.275941 0.538363
O O13 0.371637 0.760578 0.523534
O O14 0.408083 0.704635 0.661132
O O15 0.500000 0.228661 0.750000
O O16 0.750000 0.250000 0.500000
O O17 0.663337 0.138301 0.570963
O O18 0.000000 0.444094 0.250000
O O19 0.000000 0.795221 0.250000
#
# Coordination Sequence:
#
# PCOD9279363 Si02
#       8
#     8   8   8   8   8   8   8   8
#     4  11  22  35  61  89 128 161 203 249 317 376
#     4  11  18  35  54  93 126 158 194 255 312 382
#     4  12  20  37  59  93 122 158 197 264 313 369
#     4  11  21  32  61  89 129 156 204 246 318 371
#     4  11  23  39  61  93 131 168 206 257 311 387
#     4  11  26  43  68  92 124 167 217 270 322 369
#     4  10  21  35  58  86 123 154 202 256 319 362
#     4  11  22  38  60  91 132 171 203 246 315 389
#
# _framework density 19.103950999999999
#
# number of rings (size 3 to 8) (size 9 to 14) (size 15 to 20)
#    0.000    1.000    5.000    2.625    7.000    2.000 
#    0.000    0.000    0.000    3.000    0.000    0.000 
#    0.000    0.000    0.000    0.000    0.000    0.000 
#
# Total GULP energy -178167.076875 kJ/mol
# GULP energy per Si atom -5567.721152 kJ/mol
# Density = 1.906047 g / cm^3
# Si number density = 19.103951 Si / 1000 Ang^3
#
#
#
# Elastic Constant Matrix: (Units=GPa)
#
#
# Indices 1 2 3 4 5 6 
#
# 1 67.8594 4.5541 30.9170 -0.0001 13.3633 0.0000
# 2 4.5541 81.7714 35.3938 0.0000 -2.6588 0.0000
# 3 30.9170 35.3938 95.2526 0.0000 11.2394 0.0000
# 4 -0.0001 0.0000 0.0000 14.2122 0.0000 -8.2961
# 5 13.3633 -2.6588 11.2394 0.0000 18.8460 0.0000
# 6 0.0000 0.0000 0.0000 -8.2961 0.0000 32.3449
#
#
#
# Elastic Compliance Matrix: (Units=1/GPa)
#
#
# Indices 1 2 3 4 5 6 
#
# 1 0.019125 0.000912 -0.005337 0.000000 -0.010250 0.000000
# 2 0.000912 0.015206 -0.006586 0.000000 0.005427 0.000000
# 3 -0.005337 -0.006586 0.015427 0.000000 -0.006345 0.000000
# 4 0.000000 0.000000 0.000000 0.082752 0.000000 0.021225
# 5 -0.010250 0.005427 -0.006345 0.000000 0.064879 0.000000
# 6 0.000000 0.000000 0.000000 0.021225 0.000000 0.036361
#
#
# Mechanical properties :
#
#
# Convention : Reuss Voigt Hill
#
# Bulk Modulus (GPa) = 36.05649 42.95704 39.50676
# Shear Modulus (GPa) = 18.86667 24.68184 21.77425
#
# Velocity S-wave (km/s) = 3.14599 3.59831 3.37972
# Velocity P-wave (km/s) = 5.66667 6.30861 5.99623
#
# Compressibility (1/GPa) = 0.02773426
#
# Stress axis : x y z
#
# Youngs Moduli (GPa) = 52.28717 65.76474 64.82265
#
# Poissons Ratio (x) = -0.05995 0.34595
# Poissons Ratio (y) = -0.04767 0.42695
# Poissons Ratio (z) = 0.27905 0.43315
#
# Static dielectric constant tensor:
#      x y z
#    x 1.675210 0.000000 -0.012030 
#    y 0.000000 3.413360 0.000000 
#    z -0.012030 0.000000 1.701770 
# 
# From -- ./inp_files/163274.got.cif
#   From: 2010.05.17/outbox.cif.g08.bks.cpg/sg15_82_cif.got.tgz:163274.got - 2010.06.03 18:47:42.
