data_PCOD9279504
_publ_section_title
;
Structure prediction by ZEFSAII (Michael W. Deem and Ramdas Pophale) SiO2 
 PCOD9279504
Probable space group: C 2/C
;
_chemical_formula_sum "Si O2"
_cell_formula_units_Z 60
_cell_length_a 19.932332
_cell_length_b 20.839241
_cell_length_c 13.266714
_cell_angle_alpha 90.000000
_cell_angle_beta 30.046533
_cell_angle_gamma 90.000000
_cell_volume 2759.203466
_symmetry_space_group_name_H-M "C 2/C"
_symmetry_group_IT_number 15
_symmetry_cell_setting 'monoclinic'
loop_
_space_group_symop_operation_xyz
x,y,z
-x,y,1/2-z
-x,-y,-z
x,-y,1/2+z
1/2+x,1/2+y,z
1/2-x,1/2+y,1/2-z
1/2-x,1/2-y,-z
1/2+x,1/2-y,1/2+z
loop_
_atom_site_type_symbol
_atom_site_label
_atom_site_fract_x
_atom_site_fract_y
_atom_site_fract_z
Si Si1 0.000000 0.820078 0.250000
Si Si2 0.377974 0.100157 0.625134
Si Si3 0.224302 0.713056 0.636333
Si Si4 0.682529 0.200315 0.969462
Si Si5 0.657932 0.898293 0.850750
Si Si6 0.780597 0.901590 0.482989
Si Si7 0.576997 0.750766 0.955170
Si Si8 0.652408 0.998942 0.507692
O O1 0.889897 0.768463 0.429292
O O2 0.923984 0.870037 0.276691
O O3 0.307632 0.136615 0.810674
O O4 0.378632 0.158007 0.541504
O O5 0.519080 0.076364 0.483296
O O6 0.324279 0.043200 0.624852
O O7 0.250000 0.750000 0.500000
O O8 0.358187 0.720453 0.528945
O O9 0.082090 0.747240 0.853205
O O10 0.679083 0.153363 0.070539
O O11 0.836179 0.217394 0.744589
O O12 0.764034 0.908848 0.623988
O O13 0.627575 0.823536 0.898737
O O14 0.681695 0.930410 0.927678
O O15 0.745428 0.966377 0.470615
O O16 0.500000 0.994416 0.750000
#
# Coordination Sequence:
#
# PCOD9279504 Si02
#       8
#     4   8   8   8   8   8   8   8
#     4  12  22  34  64  92 126 168 198 252 336 396
#     4   9  20  36  59  91 128 154 205 266 314 383
#     4  10  21  38  60  90 132 165 204 256 322 387
#     4  10  21  35  62  98 129 162 198 267 335 389
#     4  11  21  38  60  94 122 164 215 264 318 376
#     4  11  24  38  61  94 128 161 210 262 324 386
#     4  10  22  37  62  95 131 164 210 263 317 398
#     4  11  23  40  63  90 123 165 216 272 320 367
#
# _framework density 21.745405999999999
#
# number of rings (size 3 to 8) (size 9 to 14) (size 15 to 20)
#    0.000    1.600    2.667    2.000    7.467    2.133 
#    0.000    0.667    0.000    0.000    0.000    0.000 
#    0.000    0.000    0.000    0.000    0.000    0.000 
#
# Total GULP energy -167049.502399 kJ/mol
# GULP energy per Si atom -5568.316747 kJ/mol
# Density = 2.169591 g / cm^3
# Si number density = 21.745406 Si / 1000 Ang^3
#
#
#
# Elastic Constant Matrix: (Units=GPa)
#
#
# Indices 1 2 3 4 5 6 
#
# 1 46.5493 25.4403 23.9078 0.0002 -2.9774 -0.0001
# 2 25.4403 66.0751 12.9424 0.0003 12.4883 -0.0002
# 3 23.9078 12.9424 66.2533 0.0007 7.0644 -0.0004
# 4 0.0002 0.0003 0.0007 19.5548 -0.0003 9.7277
# 5 -2.9774 12.4883 7.0644 -0.0003 27.6826 0.0001
# 6 -0.0001 -0.0002 -0.0004 9.7277 0.0001 34.3063
#
#
#
# Elastic Compliance Matrix: (Units=1/GPa)
#
#
# Indices 1 2 3 4 5 6 
#
# 1 0.036000 -0.014073 -0.011649 0.000001 0.013193 0.000000
# 2 -0.014073 0.022460 0.001986 -0.000001 -0.012153 0.000000
# 3 -0.011649 0.001986 0.019673 -0.000001 -0.007170 0.000001
# 4 0.000001 -0.000001 -0.000001 0.059536 0.000001 -0.016882
# 5 0.013193 -0.012153 -0.007170 0.000001 0.044855 -0.000001
# 6 0.000000 0.000000 0.000001 -0.016882 -0.000001 0.033936
#
#
# Mechanical properties :
#
#
# Convention : Reuss Voigt Hill
#
# Bulk Modulus (GPa) = 32.61102 33.71765 33.16433
# Shear Modulus (GPa) = 18.23802 24.08123 21.15962
#
# Velocity S-wave (km/s) = 2.89919 3.33140 3.12278
# Velocity P-wave (km/s) = 5.12214 5.50790 5.31852
#
# Compressibility (1/GPa) = 0.03066448
#
# Stress axis : x y z
#
# Youngs Moduli (GPa) = 27.77758 44.52274 50.82998
#
# Poissons Ratio (x) = 0.62656 0.59210
# Poissons Ratio (y) = 0.39091 -0.10097
# Poissons Ratio (z) = 0.32357 -0.08844
#
# Static dielectric constant tensor:
#      x y z
#    x 1.885470 0.000000 0.018510 
#    y 0.000000 1.852060 0.000000 
#    z 0.018510 0.000000 1.871360 
# 
# From -- ./inp_files/169466.got.cif
#   From: 2010.05.17/outbox.cif.g08.bks.cpg/sg15_85_cif.got.tgz:169466.got - 2010.06.03 18:47:42.
