data_PCOD9279200
_publ_section_title
;
Structure prediction by ZEFSAII (Michael W. Deem and Ramdas Pophale) SiO2 
 PCOD9279200
Probable space group: C 2/C
;
_chemical_formula_sum "Si O2"
_cell_formula_units_Z 40
_cell_length_a 13.264512
_cell_length_b 22.813476
_cell_length_c 14.251743
_cell_angle_alpha 90.000000
_cell_angle_beta 30.483347
_cell_angle_gamma 90.000000
_cell_volume 2187.787984
_symmetry_space_group_name_H-M "C 2/C"
_symmetry_group_IT_number 15
_symmetry_cell_setting 'monoclinic'
loop_
_space_group_symop_operation_xyz
x,y,z
-x,y,1/2-z
-x,-y,-z
x,-y,1/2+z
1/2+x,1/2+y,z
1/2-x,1/2+y,1/2-z
1/2-x,1/2-y,-z
1/2+x,1/2-y,1/2+z
loop_
_atom_site_type_symbol
_atom_site_label
_atom_site_fract_x
_atom_site_fract_y
_atom_site_fract_z
Si Si1 0.044860 0.702294 0.067691
Si Si2 0.237358 0.002916 0.314627
Si Si3 0.186896 0.050204 0.548569
Si Si4 0.169822 0.823347 0.998482
Si Si5 0.955427 0.414039 0.011019
O O1 0.249373 0.694210 0.962764
O O2 0.863777 0.679401 0.276979
O O3 0.028699 0.772372 0.071650
O O4 0.046523 0.656259 0.982043
O O5 0.278934 0.013231 0.391046
O O6 0.343915 0.946497 0.184584
O O7 0.330035 0.056435 0.179140
O O8 0.000000 0.000000 0.500000
O O9 0.104549 0.109859 0.563929
O O10 0.339404 0.069125 0.507148
O O11 0.000000 0.021160 0.750000
#
# Coordination Sequence:
#
# PCOD9279200 Si02
#       5
#     8   8   8   8   8
#     4   9  17  29  42  67  97 133 168 203 240 298
#     4  11  21  34  50  72  95 140 182 214 255 302
#     4  11  20  33  50  72 104 141 171 211 258 301
#     4   9  18  26  44  67  96 133 171 195 243 305
#     4  10  21  35  50  69 105 139 174 216 254 300
#
# _framework density 18.283307000000001
#
# number of rings (size 3 to 8) (size 9 to 14) (size 15 to 20)
#    0.000    2.000    4.000    0.600    8.400    0.000 
#    0.000    0.000    0.000    0.000    0.000    0.000 
#    0.000    1.600   14.400    3.200    2.400    0.000 
#
# Total GULP energy -111464.472051 kJ/mol
# GULP energy per Si atom -5573.223603 kJ/mol
# Density = 1.824169 g / cm^3
# Si number density = 18.283307 Si / 1000 Ang^3
#
#
#
# Elastic Constant Matrix: (Units=GPa)
#
#
# Indices 1 2 3 4 5 6 
#
# 1 30.6875 20.4711 22.5895 -0.0027 5.1006 0.0042
# 2 20.4711 100.9708 41.7668 -0.0099 19.5485 0.0083
# 3 22.5895 41.7668 118.4840 0.0288 7.9295 0.0079
# 4 -0.0027 -0.0099 0.0288 26.5009 0.0019 5.3289
# 5 5.1006 19.5485 7.9295 0.0019 30.6758 -0.0099
# 6 0.0042 0.0083 0.0079 5.3289 -0.0099 26.9723
#
#
#
# Elastic Compliance Matrix: (Units=1/GPa)
#
#
# Indices 1 2 3 4 5 6 
#
# 1 0.040788 -0.005574 -0.005694 0.000009 -0.001758 -0.000005
# 2 -0.005574 0.013759 -0.003320 0.000010 -0.006983 -0.000007
# 3 -0.005694 -0.003320 0.010676 -0.000014 0.000303 0.000002
# 4 0.000009 0.000010 -0.000014 0.039296 -0.000009 -0.007764
# 5 -0.001758 -0.006983 0.000303 -0.000009 0.037263 0.000018
# 6 -0.000005 -0.000007 0.000002 -0.007764 0.000018 0.038609
#
#
# Mechanical properties :
#
#
# Convention : Reuss Voigt Hill
#
# Bulk Modulus (GPa) = 27.74138 46.64414 37.19276
# Shear Modulus (GPa) = 22.56488 27.85079 25.20784
#
# Velocity S-wave (km/s) = 3.51690 3.90717 3.71716
# Velocity P-wave (km/s) = 5.63005 6.77657 6.22974
#
# Compressibility (1/GPa) = 0.03604724
#
# Stress axis : x y z
#
# Youngs Moduli (GPa) = 24.51677 72.67790 93.67071
#
# Poissons Ratio (x) = 0.40509 0.53336
# Poissons Ratio (y) = 0.13665 0.31101
# Poissons Ratio (z) = 0.13960 0.24131
#
# Static dielectric constant tensor:
#      x y z
#    x 1.651030 -0.000010 -0.030380 
#    y -0.000010 1.714690 0.000010 
#    z -0.030380 0.000010 1.701410 
# 
# From -- ./inp_files/156468.got.cif
#   From: 2010.05.17/outbox.cif.g08.bks.cpg/sg15_79_cif.got.tgz:156468.got - 2010.06.03 18:47:42.
