data_PCOD9279708
_publ_section_title
;
Structure prediction by ZEFSAII (Michael W. Deem and Ramdas Pophale) SiO2 
 PCOD9279708
Probable space group: C 2/C
;
_chemical_formula_sum "Si O2"
_cell_formula_units_Z 60
_cell_length_a 24.818219
_cell_length_b 23.714061
_cell_length_c 8.438178
_cell_angle_alpha 90.000000
_cell_angle_beta 39.732598
_cell_angle_gamma 90.000000
_cell_volume 3174.429617
_symmetry_space_group_name_H-M "C 2/C"
_symmetry_group_IT_number 15
_symmetry_cell_setting 'monoclinic'
loop_
_space_group_symop_operation_xyz
x,y,z
-x,y,1/2-z
-x,-y,-z
x,-y,1/2+z
1/2+x,1/2+y,z
1/2-x,1/2+y,1/2-z
1/2-x,1/2-y,-z
1/2+x,1/2-y,1/2+z
loop_
_atom_site_type_symbol
_atom_site_label
_atom_site_fract_x
_atom_site_fract_y
_atom_site_fract_z
Si Si1 0.240701 0.839639 0.954171
Si Si2 0.138818 0.078979 0.856297
Si Si3 0.592128 0.471393 0.800364
Si Si4 0.500000 0.662442 0.250000
Si Si5 0.864003 0.272924 0.828633
Si Si6 0.299744 0.804213 0.320395
Si Si7 0.842146 0.863242 0.692219
Si Si8 0.556722 0.261746 0.895119
O O1 0.335738 0.817240 0.757316
O O2 0.206075 0.862849 0.866032
O O3 0.219361 0.883572 0.139742
O O4 0.181942 0.785050 0.111898
O O5 0.146020 0.025123 0.728259
O O6 0.119718 0.054636 0.071847
O O7 0.058671 0.121305 0.011407
O O8 0.605651 0.419995 0.892406
O O9 0.500000 0.500000 0.000000
O O10 0.443308 0.702791 0.268831
O O11 0.961274 0.258465 0.632477
O O12 0.823458 0.295505 0.084198
O O13 0.250000 0.750000 0.500000
O O14 0.234734 0.853964 0.508013
O O15 0.386486 0.794325 0.219921
O O16 0.904889 0.809197 0.571044
#
# Coordination Sequence:
#
# PCOD9279708 Si02
#       8
#     8   8   8   4   8   8   8   8
#     4  11  24  36  57  82 121 159 203 249 310 356
#     4  12  23  39  54  84 112 160 199 250 299 352
#     4  12  23  40  58  81 115 156 208 248 293 361
#     4  12  22  34  56  84 118 156 202 252 300 348
#     4  11  22  36  56  84 119 163 203 249 301 371
#     4  10  21  36  57  84 116 159 205 247 304 360
#     4  11  23  41  60  85 121 163 203 254 305 360
#     4  11  22  35  60  84 121 160 205 246 302 359
#
# _framework density 18.901033999999999
#
# number of rings (size 3 to 8) (size 9 to 14) (size 15 to 20)
#    0.000    0.800    6.667    2.000    3.733    0.000 
#    0.000    0.000    0.000    0.000    0.000    0.933 
#    0.000    0.000    0.000    0.000    0.000    0.000 
#
# Total GULP energy -167287.998661 kJ/mol
# GULP energy per Si atom -5576.266622 kJ/mol
# Density = 1.885801 g / cm^3
# Si number density = 18.901034 Si / 1000 Ang^3
#
#
#
# Elastic Constant Matrix: (Units=GPa)
#
#
# Indices 1 2 3 4 5 6 
#
# 1 104.0223 46.8000 39.0177 0.0000 -2.2804 0.0000
# 2 46.8000 95.7997 36.6152 0.0000 -7.9347 0.0000
# 3 39.0177 36.6152 72.8316 0.0000 -8.9146 0.0000
# 4 0.0000 0.0000 0.0000 33.7380 0.0000 -2.1648
# 5 -2.2804 -7.9347 -8.9146 0.0000 35.7664 0.0000
# 6 0.0000 0.0000 0.0000 -2.1648 0.0000 38.8133
#
#
#
# Elastic Compliance Matrix: (Units=1/GPa)
#
#
# Indices 1 2 3 4 5 6 
#
# 1 0.013666 -0.004866 -0.005055 0.000000 -0.001468 0.000000
# 2 -0.004866 0.014711 -0.004567 0.000000 0.001815 0.000000
# 3 -0.005055 -0.004567 0.019155 0.000000 0.003439 0.000000
# 4 0.000000 0.000000 0.000000 0.029747 0.000000 0.001659
# 5 -0.001468 0.001815 0.003439 0.000000 0.029125 0.000000
# 6 0.000000 0.000000 0.000000 0.001659 0.000000 0.025857
#
#
# Mechanical properties :
#
#
# Convention : Reuss Voigt Hill
#
# Bulk Modulus (GPa) = 53.88652 57.50213 55.69433
# Shear Modulus (GPa) = 29.86444 31.67826 30.77135
#
# Velocity S-wave (km/s) = 3.97929 4.09835 4.03926
# Velocity P-wave (km/s) = 7.04874 7.27214 7.16131
#
# Compressibility (1/GPa) = 0.01855752
#
# Stress axis : x y z
#
# Youngs Moduli (GPa) = 73.17256 67.97449 52.20502
#
# Poissons Ratio (x) = 0.33075 0.26389
# Poissons Ratio (y) = 0.35605 0.23842
# Poissons Ratio (z) = 0.36987 0.31044
#
# Static dielectric constant tensor:
#      x y z
#    x 1.772320 0.000000 0.019010 
#    y 0.000000 1.674550 0.000000 
#    z 0.019010 0.000000 1.740340 
# 
# From -- ./inp_files/67659.got.cif
#   From: 2010.05.17/outbox.cif.g08.bks.cpg/sg15_34_cif.got.tgz:67659.got - 2010.06.03 18:47:42.
