data_PCOD9279021
_publ_section_title
;
Structure prediction by ZEFSAII (Michael W. Deem and Ramdas Pophale) SiO2 
 PCOD9279021
Probable space group: C 2/C
;
_chemical_formula_sum "Si O2"
_cell_formula_units_Z 56
_cell_length_a 14.369549
_cell_length_b 26.721591
_cell_length_c 8.984073
_cell_angle_alpha 90.000000
_cell_angle_beta 63.468600
_cell_angle_gamma 90.000000
_cell_volume 3086.392520
_symmetry_space_group_name_H-M "C 2/C"
_symmetry_group_IT_number 15
_symmetry_cell_setting 'monoclinic'
loop_
_space_group_symop_operation_xyz
x,y,z
-x,y,1/2-z
-x,-y,-z
x,-y,1/2+z
1/2+x,1/2+y,z
1/2-x,1/2+y,1/2-z
1/2-x,1/2-y,-z
1/2+x,1/2-y,1/2+z
loop_
_atom_site_type_symbol
_atom_site_label
_atom_site_fract_x
_atom_site_fract_y
_atom_site_fract_z
Si Si1 0.662235 0.496583 0.628707
Si Si2 0.346450 0.328102 0.577285
Si Si3 0.026544 0.725827 0.056241
Si Si4 0.765042 0.670873 0.658485
Si Si5 0.198208 0.732917 0.383273
Si Si6 0.950181 0.065654 0.036767
Si Si7 0.298720 0.568856 0.657182
O O1 0.598621 0.534087 0.565380
O O2 0.589386 0.463877 0.789677
O O3 0.729620 0.531739 0.687792
O O4 0.725857 0.458306 0.480016
O O5 0.424235 0.281170 0.500477
O O6 0.285351 0.337316 0.467130
O O7 0.265306 0.311267 0.761628
O O8 0.406133 0.378586 0.572270
O O9 0.000000 0.719645 0.250000
O O10 0.923327 0.720215 0.030841
O O11 0.115534 0.686742 0.946626
O O12 0.708877 0.719495 0.766316
O O13 0.745386 0.623245 0.776823
O O14 0.250000 0.750000 0.500000
O O15 0.074351 0.069822 0.934121
#
# Coordination Sequence:
#
# PCOD9279021 Si02
#       7
#     8   8   8   8   8   8   8
#     4  10  21  34  52  79 117 158 190 241 296 350
#     4  11  22  35  58  87 113 158 196 226 292 353
#     4  11  20  40  62  81 117 155 196 240 282 353
#     4  11  22  36  59  87 114 157 196 228 293 353
#     4  11  24  40  59  87 120 147 195 247 288 341
#     4  11  20  33  53  81 118 153 193 233 295 350
#     4  11  20  34  53  83 118 151 194 239 291 353
#
# _framework density 18.144158999999998
#
# number of rings (size 3 to 8) (size 9 to 14) (size 15 to 20)
#    0.000    1.143    4.286    5.143    2.000    2.286 
#    2.571    0.000    0.000    0.000    0.000   11.000 
#    0.000    0.000    0.000    0.000    0.000    0.000 
#
# Total GULP energy -156414.613643 kJ/mol
# GULP energy per Si atom -5586.236202 kJ/mol
# Density = 1.810286 g / cm^3
# Si number density = 18.144159 Si / 1000 Ang^3
#
#
#
# Elastic Constant Matrix: (Units=GPa)
#
#
# Indices 1 2 3 4 5 6 
#
# 1 57.0906 16.1368 14.3626 0.0000 -7.6749 0.0000
# 2 16.1368 124.0842 40.8631 0.0000 -14.2016 0.0000
# 3 14.3626 40.8631 68.7784 0.0000 -0.2625 0.0000
# 4 0.0000 0.0000 0.0000 30.7044 0.0000 -8.0361
# 5 -7.6749 -14.2016 -0.2625 0.0000 28.0606 0.0000
# 6 0.0000 0.0000 0.0000 -8.0361 0.0000 20.1703
#
#
#
# Elastic Compliance Matrix: (Units=1/GPa)
#
#
# Indices 1 2 3 4 5 6 
#
# 1 0.019280 -0.000787 -0.003540 0.000000 0.004842 0.000000
# 2 -0.000787 0.010811 -0.006239 0.000000 0.005198 0.000000
# 3 -0.003540 -0.006239 0.018970 0.000000 -0.003948 0.000000
# 4 0.000000 0.000000 0.000000 0.036360 0.000000 0.014486
# 5 0.004842 0.005198 -0.003948 0.000000 0.039555 0.000000
# 6 0.000000 0.000000 0.000000 0.014486 0.000000 0.055349
#
#
# Mechanical properties :
#
#
# Convention : Reuss Voigt Hill
#
# Bulk Modulus (GPa) = 35.80504 43.63091 39.71797
# Shear Modulus (GPa) = 23.72288 27.69313 25.70800
#
# Velocity S-wave (km/s) = 3.61981 3.91101 3.76822
# Velocity P-wave (km/s) = 6.10305 6.67035 6.39300
#
# Compressibility (1/GPa) = 0.02792903
#
# Stress axis : x y z
#
# Youngs Moduli (GPa) = 51.86723 92.49965 52.71435
#
# Poissons Ratio (x) = 0.07284 0.18660
# Poissons Ratio (y) = 0.04084 0.32887
# Poissons Ratio (z) = 0.18360 0.57708
#
# Static dielectric constant tensor:
#      x y z
#    x 1.631910 0.000000 0.024170 
#    y 0.000000 1.611860 0.000000 
#    z 0.024170 0.000000 1.653750 
# 
# From -- ./inp_files/43441.got.cif
#   From: 2010.05.17/outbox.cif.g08.bks.cpg/sg15_22_cif.got.tgz:43441.got - 2010.06.03 18:47:42.
