data_PCOD9279451
_publ_section_title
;
Structure prediction by ZEFSAII (Michael W. Deem and Ramdas Pophale) SiO2 
 PCOD9279451
Probable space group: C 2/C
;
_chemical_formula_sum "Si O2"
_cell_formula_units_Z 48
_cell_length_a 12.746264
_cell_length_b 22.425141
_cell_length_c 8.678955
_cell_angle_alpha 90.000000
_cell_angle_beta 112.700623
_cell_angle_gamma 90.000000
_cell_volume 2288.589279
_symmetry_space_group_name_H-M "C 2/C"
_symmetry_group_IT_number 15
_symmetry_cell_setting 'monoclinic'
loop_
_space_group_symop_operation_xyz
x,y,z
-x,y,1/2-z
-x,-y,-z
x,-y,1/2+z
1/2+x,1/2+y,z
1/2-x,1/2+y,1/2-z
1/2-x,1/2-y,-z
1/2+x,1/2-y,1/2+z
loop_
_atom_site_type_symbol
_atom_site_label
_atom_site_fract_x
_atom_site_fract_y
_atom_site_fract_z
Si Si1 0.746150 0.479084 0.132695
Si Si2 0.293658 0.705854 0.661148
Si Si3 0.317722 0.858172 0.134483
Si Si4 0.500000 0.219226 0.250000
Si Si5 0.865656 0.928769 0.132686
Si Si6 0.000000 0.472241 0.750000
Si Si7 0.497580 0.872599 0.496501
O O1 0.730846 0.412333 0.052079
O O2 0.710546 0.464863 0.286710
O O3 0.877380 0.496022 0.170272
O O4 0.665483 0.533223 0.035175
O O5 0.250000 0.750000 0.500000
O O6 0.229763 0.695535 0.788379
O O7 0.409567 0.737879 0.774160
O O8 0.320988 0.639560 0.610414
O O9 0.408540 0.883191 0.311288
O O10 0.388822 0.847826 0.020272
O O11 0.548545 0.175820 0.408899
O O12 0.000000 0.929408 0.250000
O O13 0.014287 0.431289 0.606285
#
# Coordination Sequence:
#
# PCOD9279451 Si02
#       7
#     8   8   8   4   8   4   8
#     4  11  23  37  65  92 128 170 209 270 323 389
#     4  11  22  41  65  90 121 168 217 264 319 378
#     4  10  21  38  58  90 127 160 205 261 326 375
#     4  11  22  38  64  88 120 168 213 256 318 384
#     4  11  24  43  64  91 128 174 219 260 321 390
#     4  11  20  36  60 100 128 160 215 264 338 386
#     4  10  21  35  60  92 126 162 200 263 323 389
#
# _framework density 20.973617999999998
#
# number of rings (size 3 to 8) (size 9 to 14) (size 15 to 20)
#    0.000    1.333    2.500    4.500    2.333    2.667 
#    0.000    0.000    0.000    2.000    0.000    0.000 
#    0.000    0.000    0.000    0.000    0.000    0.000 
#
# Total GULP energy -133676.048396 kJ/mol
# GULP energy per Si atom -5569.835350 kJ/mol
# Density = 2.092588 g / cm^3
# Si number density = 20.973618 Si / 1000 Ang^3
#
#
#
# Elastic Constant Matrix: (Units=GPa)
#
#
# Indices 1 2 3 4 5 6 
#
# 1 104.2735 34.3737 27.9670 0.0000 -13.7206 0.0000
# 2 34.3737 121.8417 48.1342 0.0000 -4.6139 0.0000
# 3 27.9670 48.1342 47.7261 0.0000 -10.3595 0.0000
# 4 0.0000 0.0000 0.0000 27.9437 0.0000 -0.6865
# 5 -13.7206 -4.6139 -10.3595 0.0000 35.2270 0.0000
# 6 0.0000 0.0000 0.0000 -0.6865 0.0000 36.6030
#
#
#
# Elastic Compliance Matrix: (Units=1/GPa)
#
#
# Indices 1 2 3 4 5 6 
#
# 1 0.011720 -0.001220 -0.005000 0.000000 0.002934 0.000000
# 2 -0.001220 0.013965 -0.013967 0.000000 -0.002753 0.000000
# 3 -0.005000 -0.013967 0.039683 0.000000 0.007893 0.000000
# 4 0.000000 0.000000 0.000000 0.035803 0.000000 0.000671
# 5 0.002934 -0.002753 0.007893 0.000000 0.031491 0.000000
# 6 0.000000 0.000000 0.000000 0.000671 0.000000 0.027333
#
#
# Mechanical properties :
#
#
# Convention : Reuss Voigt Hill
#
# Bulk Modulus (GPa) = 40.01179 54.97681 47.49430
# Shear Modulus (GPa) = 23.95781 30.84584 27.40182
#
# Velocity S-wave (km/s) = 3.38343 3.83913 3.61846
# Velocity P-wave (km/s) = 5.86363 6.77651 6.33653
#
# Compressibility (1/GPa) = 0.02499264
#
# Stress axis : x y z
#
# Youngs Moduli (GPa) = 85.32785 71.60693 25.19955
#
# Poissons Ratio (x) = 0.08734 0.12601
# Poissons Ratio (y) = 0.10408 0.35197
# Poissons Ratio (z) = 0.42668 1.00017
#
# Static dielectric constant tensor:
#      x y z
#    x 1.854680 0.000000 0.005310 
#    y 0.000000 1.810190 0.000000 
#    z 0.005310 0.000000 1.801520 
# 
# From -- ./inp_files/40975.got.cif
#   From: 2010.05.17/outbox.cif.g08.bks.cpg/sg15_21_cif.got.tgz:40975.got - 2010.06.03 18:47:42.
