data_PCOD9279357
_publ_section_title
;
Structure prediction by ZEFSAII (Michael W. Deem and Ramdas Pophale) SiO2 
 PCOD9279357
Probable space group: C 2/C
;
_chemical_formula_sum "Si O2"
_cell_formula_units_Z 48
_cell_length_a 33.081231
_cell_length_b 7.640755
_cell_length_c 18.462444
_cell_angle_alpha 90.000000
_cell_angle_beta 25.588062
_cell_angle_gamma 90.000000
_cell_volume 2015.524841
_symmetry_space_group_name_H-M "C 2/C"
_symmetry_group_IT_number 15
_symmetry_cell_setting 'monoclinic'
loop_
_space_group_symop_operation_xyz
x,y,z
-x,y,1/2-z
-x,-y,-z
x,-y,1/2+z
1/2+x,1/2+y,z
1/2-x,1/2+y,1/2-z
1/2-x,1/2-y,-z
1/2+x,1/2-y,1/2+z
loop_
_atom_site_type_symbol
_atom_site_label
_atom_site_fract_x
_atom_site_fract_y
_atom_site_fract_z
Si Si1 0.173439 0.608575 0.154714
Si Si2 0.597808 0.537281 0.805543
Si Si3 0.842501 0.443901 0.659028
Si Si4 0.968689 0.543985 0.222152
Si Si5 0.323050 0.529251 0.681270
Si Si6 0.484556 0.447288 0.199160
O O1 0.096335 0.752731 0.301635
O O2 0.192298 0.518786 0.202007
O O3 0.124822 0.491936 0.171428
O O4 0.250000 0.750000 0.000000
O O5 0.677458 0.478450 0.732663
O O6 0.587999 0.467534 0.739919
O O7 0.500000 0.500000 0.000000
O O8 0.943426 0.517802 0.473606
O O9 0.767979 0.504588 0.719456
O O10 0.845759 0.234580 0.645508
O O11 0.948923 0.750226 0.270443
O O12 0.000000 0.468852 0.250000
O O13 0.412142 0.434470 0.502039
O O14 0.500000 0.540783 0.250000
#
# Coordination Sequence:
#
# PCOD9279357 Si02
#       6
#     8   8   8   8   8   8
#     4  10  22  37  65  92 120 158 212 257 304 372
#     4   8  17  34  54  83 113 152 189 247 301 357
#     4  11  23  38  60  89 127 163 208 261 311 369
#     4  10  22  38  63  92 123 161 205 255 316 370
#     4  10  21  35  58  85 121 160 206 250 313 366
#     4   9  18  34  61  88 114 156 209 250 306 374
#
# _framework density 23.815135999999999
#
# number of rings (size 3 to 8) (size 9 to 14) (size 15 to 20)
#    0.000    2.333    0.000    1.500   11.667    0.667 
#    0.000    1.667    0.000    2.000    0.000    0.000 
#    0.000    0.000    0.000    0.000    0.000    0.000 
#
# Total GULP energy -133635.033006 kJ/mol
# GULP energy per Si atom -5568.126375 kJ/mol
# Density = 2.376093 g / cm^3
# Si number density = 23.815136 Si / 1000 Ang^3
#
#
#
# Elastic Constant Matrix: (Units=GPa)
#
#
# Indices 1 2 3 4 5 6 
#
# 1 286.5087 0.4946 50.9024 0.0000 -1.5366 0.0000
# 2 0.4946 43.0646 0.8005 -0.0004 -0.0649 0.0001
# 3 50.9024 0.8005 73.1896 -0.0002 -2.9675 0.0001
# 4 0.0000 -0.0004 -0.0002 30.8631 0.0001 -0.7712
# 5 -1.5366 -0.0649 -2.9675 0.0001 34.6948 0.0000
# 6 0.0000 0.0001 0.0001 -0.7712 0.0000 15.1143
#
#
#
# Elastic Compliance Matrix: (Units=1/GPa)
#
#
# Indices 1 2 3 4 5 6 
#
# 1 0.003982 0.000006 -0.002772 0.000000 -0.000061 0.000000
# 2 0.000006 0.023226 -0.000257 0.000000 0.000022 0.000000
# 3 -0.002772 -0.000257 0.015643 0.000000 0.001215 0.000000
# 4 0.000000 0.000000 0.000000 0.032443 0.000000 0.001655
# 5 -0.000061 0.000022 0.001215 0.000000 0.028924 0.000000
# 6 0.000000 0.000000 0.000000 0.001655 0.000000 0.066247
#
#
# Mechanical properties :
#
#
# Convention : Reuss Voigt Hill
#
# Bulk Modulus (GPa) = 27.17092 56.35089 41.76090
# Shear Modulus (GPa) = 26.48578 39.50545 32.99562
#
# Velocity S-wave (km/s) = 3.33849 4.07730 3.72625
# Velocity P-wave (km/s) = 5.12783 6.77341 6.00723
#
# Compressibility (1/GPa) = 0.03680406
#
# Stress axis : x y z
#
# Youngs Moduli (GPa) = 251.09856 43.05575 63.92509
#
# Poissons Ratio (x) = -0.00025 0.17722
# Poissons Ratio (y) = -0.00143 0.01644
# Poissons Ratio (z) = 0.69612 0.01107
#
# Static dielectric constant tensor:
#      x y z
#    x 2.162370 0.000000 0.015290 
#    y 0.000000 1.925960 0.000000 
#    z 0.015290 0.000000 1.969830 
# 
# From -- ./inp_files/224541.got.cif
#   From: 2010.05.17/outbox.cif.g08.bks.cpg/sg15_113_cif.got.tgz:224541.got - 2010.06.03 18:47:42.
