data_PCOD9279062
_publ_section_title
;
Structure prediction by ZEFSAII (Michael W. Deem and Ramdas Pophale) SiO2 
 PCOD9279062
Probable space group: C 2/C
;
_chemical_formula_sum "Si O2"
_cell_formula_units_Z 56
_cell_length_a 14.134798
_cell_length_b 24.239649
_cell_length_c 8.612780
_cell_angle_alpha 90.000000
_cell_angle_beta 59.842825
_cell_angle_gamma 90.000000
_cell_volume 2551.525437
_symmetry_space_group_name_H-M "C 2/C"
_symmetry_group_IT_number 15
_symmetry_cell_setting 'monoclinic'
loop_
_space_group_symop_operation_xyz
x,y,z
-x,y,1/2-z
-x,-y,-z
x,-y,1/2+z
1/2+x,1/2+y,z
1/2-x,1/2+y,1/2-z
1/2-x,1/2-y,-z
1/2+x,1/2-y,1/2+z
loop_
_atom_site_type_symbol
_atom_site_label
_atom_site_fract_x
_atom_site_fract_y
_atom_site_fract_z
Si Si1 0.263229 0.974597 0.016204
Si Si2 0.304436 0.200678 0.359911
Si Si3 0.081757 0.324600 0.052372
Si Si4 0.432688 0.890507 0.949385
Si Si5 0.434893 0.446735 0.116734
Si Si6 0.652131 0.395640 0.890997
Si Si7 0.767548 0.095389 0.504483
O O1 0.142065 0.972131 0.188508
O O2 0.295967 0.037265 0.965351
O O3 0.342145 0.936721 0.054553
O O4 0.240382 0.941777 0.875031
O O5 0.250000 0.250000 0.500000
O O6 0.378423 0.164438 0.417835
O O7 0.204452 0.161136 0.398628
O O8 0.369515 0.208521 0.140004
O O9 0.000000 0.298510 0.250000
O O10 0.182364 0.354155 0.060312
O O11 0.009388 0.371894 0.025999
O O12 0.500000 0.915277 0.750000
O O13 0.500000 0.500000 0.000000
O O14 0.533910 0.404762 0.059935
O O15 0.348003 0.414884 0.080881
O O16 0.651289 0.397996 0.708061
#
# Coordination Sequence:
#
# PCOD9279062 Si02
#       7
#     8   8   8   8   8   8   8
#     4  11  20  33  52  85 122 173 220 252 297 378
#     4   9  20  42  67  90 118 158 217 278 333 400
#     4  10  21  38  61  91 125 164 209 270 332 384
#     4   9  20  38  60  85 122 163 213 267 315 374
#     4  12  21  32  52  82 131 175 206 250 317 372
#     4  10  21  34  55  86 121 167 215 258 315 386
#     4  11  21  33  53  85 127 175 214 249 307 376
#
# _framework density 21.947655000000001
#
# number of rings (size 3 to 8) (size 9 to 14) (size 15 to 20)
#    0.000    1.714    2.857    2.571    0.000    1.143 
#    0.000    9.286    0.000    3.429    0.000    0.000 
#    0.000    0.000    0.000    0.000    0.000    0.000 
#
# Total GULP energy -156089.462232 kJ/mol
# GULP energy per Si atom -5574.623651 kJ/mol
# Density = 2.189770 g / cm^3
# Si number density = 21.947655 Si / 1000 Ang^3
#
#
#
# Elastic Constant Matrix: (Units=GPa)
#
#
# Indices 1 2 3 4 5 6 
#
# 1 87.3785 6.2320 15.2005 0.0000 -1.9260 0.0000
# 2 6.2320 57.8666 32.0393 0.0000 -9.3846 0.0000
# 3 15.2005 32.0393 113.9805 0.0000 -24.2704 0.0000
# 4 0.0000 0.0000 0.0000 25.6773 0.0000 -7.5028
# 5 -1.9260 -9.3846 -24.2704 0.0000 35.1939 0.0000
# 6 0.0000 0.0000 0.0000 -7.5028 0.0000 10.2638
#
#
#
# Elastic Compliance Matrix: (Units=1/GPa)
#
#
# Indices 1 2 3 4 5 6 
#
# 1 0.011736 -0.000500 -0.001543 0.000000 -0.000555 0.000000
# 2 -0.000500 0.020580 -0.005340 0.000000 0.001778 0.000000
# 3 -0.001543 -0.005340 0.011907 0.000000 0.006703 0.000000
# 4 0.000000 0.000000 0.000000 0.049523 0.000000 0.036201
# 5 -0.000555 0.001778 0.006703 0.000000 0.033480 0.000000
# 6 0.000000 0.000000 0.000000 0.036201 0.000000 0.123892
#
#
# Mechanical properties :
#
#
# Convention : Reuss Voigt Hill
#
# Bulk Modulus (GPa) = 33.94535 40.68548 37.31542
# Shear Modulus (GPa) = 18.13544 27.94393 23.03969
#
# Velocity S-wave (km/s) = 2.87767 3.57208 3.24351
# Velocity P-wave (km/s) = 5.15183 5.96580 5.57369
#
# Compressibility (1/GPa) = 0.02945912
#
# Stress axis : x y z
#
# Youngs Moduli (GPa) = 85.20596 48.59160 83.98076
#
# Poissons Ratio (x) = 0.02428 0.12957
# Poissons Ratio (y) = 0.04258 0.44842
# Poissons Ratio (z) = 0.13146 0.25946
#
# Static dielectric constant tensor:
#      x y z
#    x 1.850280 0.000000 0.027400 
#    y 0.000000 1.842770 0.000000 
#    z 0.027400 0.000000 1.922770 
# 
# From -- ./inp_files/42546.got.cif
#   From: 2010.05.17/outbox.cif.g08.bks.cpg/sg15_22_cif.got.tgz:42546.got - 2010.06.03 18:47:42.
