data_PCOD9279227
_publ_section_title
;
Structure prediction by ZEFSAII (Michael W. Deem and Ramdas Pophale) SiO2 
 PCOD9279227
Probable space group: C 2/C
;
_chemical_formula_sum "Si O2"
_cell_formula_units_Z 64
_cell_length_a 27.651017
_cell_length_b 12.625372
_cell_length_c 10.354511
_cell_angle_alpha 90.000000
_cell_angle_beta 71.145364
_cell_angle_gamma 90.000000
_cell_volume 3420.840168
_symmetry_space_group_name_H-M "C 2/C"
_symmetry_group_IT_number 15
_symmetry_cell_setting 'monoclinic'
loop_
_space_group_symop_operation_xyz
x,y,z
-x,y,1/2-z
-x,-y,-z
x,-y,1/2+z
1/2+x,1/2+y,z
1/2-x,1/2+y,1/2-z
1/2-x,1/2-y,-z
1/2+x,1/2-y,1/2+z
loop_
_atom_site_type_symbol
_atom_site_label
_atom_site_fract_x
_atom_site_fract_y
_atom_site_fract_z
Si Si1 0.607914 0.492464 0.915731
Si Si2 0.333700 0.783516 0.540535
Si Si3 0.057740 0.796714 0.553387
Si Si4 0.217410 0.476357 0.777064
Si Si5 0.339369 0.812886 0.233826
Si Si6 0.308294 0.620349 0.775203
Si Si7 0.300114 0.353325 0.561495
Si Si8 0.945157 0.217867 0.136224
O O1 0.638817 0.555175 0.777831
O O2 0.654004 0.439219 0.957829
O O3 0.574098 0.396147 0.895340
O O4 0.573798 0.581826 0.012595
O O5 0.393307 0.772673 0.528379
O O6 0.330445 0.771650 0.388427
O O7 0.306610 0.690821 0.646821
O O8 0.310586 0.893475 0.606864
O O9 0.053347 0.784702 0.710454
O O10 0.003245 0.765524 0.540057
O O11 0.180060 0.567559 0.758551
O O12 0.262651 0.536717 0.812931
O O13 0.247343 0.411986 0.640132
O O14 0.309482 0.738261 0.158440
O O15 0.399221 0.798967 0.145535
O O16 0.303991 0.684711 0.911144
#
# Coordination Sequence:
#
# PCOD9279227 Si02
#       8
#     8   8   8   8   8   8   8   8
#     4   9  17  30  51  78 111 138 167 209 262 316
#     4  10  22  38  55  78 107 137 173 217 261 308
#     4   9  17  31  52  76 102 135 174 214 258 308
#     4  11  22  34  54  76 104 142 180 213 254 306
#     4  10  22  38  55  78 107 137 173 217 261 308
#     4  10  21  35  53  79 109 139 173 214 259 311
#     4  10  21  35  53  79 109 139 173 214 259 311
#     4   9  17  31  52  76 102 135 174 214 258 308
#
# _framework density 18.708853000000001
#
# number of rings (size 3 to 8) (size 9 to 14) (size 15 to 20)
#    0.000    2.250    0.000    2.625    0.000   11.000 
#    0.000    0.625    0.000    6.750    0.000    0.000 
#    0.000    0.000    0.000    0.000    0.000    0.000 
#
# Total GULP energy -178467.787741 kJ/mol
# GULP energy per Si atom -5577.118367 kJ/mol
# Density = 1.866627 g / cm^3
# Si number density = 18.708853 Si / 1000 Ang^3
#
#
#
# Elastic Constant Matrix: (Units=GPa)
#
#
# Indices 1 2 3 4 5 6 
#
# 1 67.6128 30.9500 12.6260 0.0000 -25.3407 0.0000
# 2 30.9500 68.3186 19.8624 0.0000 -9.6791 0.0000
# 3 12.6260 19.8624 62.4001 0.0000 0.9380 0.0000
# 4 0.0000 0.0000 0.0000 217.7735 0.0000 -271.3275
# 5 -25.3407 -9.6791 0.9380 0.0000 28.5101 0.0000
# 6 0.0000 0.0000 0.0000 -271.3275 0.0000 408.3409
#
#
#
# Elastic Compliance Matrix: (Units=1/GPa)
#
#
# Indices 1 2 3 4 5 6 
#
# 1 0.027284 -0.008391 -0.003173 0.000000 0.021507 0.000000
# 2 -0.008391 0.019674 -0.004555 0.000000 -0.000629 0.000000
# 3 -0.003173 -0.004555 0.018192 0.000000 -0.004965 0.000000
# 4 0.000000 0.000000 0.000000 0.026676 0.000000 0.017725
# 5 0.021507 -0.000629 -0.004965 0.000000 0.054141 0.000000
# 6 0.000000 0.000000 0.000000 0.017725 0.000000 0.014227
#
#
# Mechanical properties :
#
#
# Convention : Reuss Voigt Hill
#
# Bulk Modulus (GPa) = 30.38396 36.13425 33.25911
# Shear Modulus (GPa) = 24.58174 139.91776 82.24975
#
# Velocity S-wave (km/s) = 3.62872 8.65733 6.63765
# Velocity P-wave (km/s) = 5.81657 10.92192 8.74988
#
# Compressibility (1/GPa) = 0.03291210
#
# Stress axis : x y z
#
# Youngs Moduli (GPa) = 36.65133 50.82913 54.96866
#
# Poissons Ratio (x) = 0.42650 0.17442
# Poissons Ratio (y) = 0.30754 0.25038
# Poissons Ratio (z) = 0.11630 0.23153
#
# Static dielectric constant tensor:
#      x y z
#    x 1.696020 0.000000 -0.015120 
#    y 0.000000 1.636320 0.000000 
#    z -0.015120 0.000000 1.660450 
# 
# From -- ./inp_files/177211.got.cif
#   From: 2010.05.17/outbox.cif.g08.bks.cpg/sg15_89_cif.got.tgz:177211.got - 2010.06.03 18:47:42.
