data_PCOD9279754
_publ_section_title
;
Structure prediction by ZEFSAII (Michael W. Deem and Ramdas Pophale) SiO2 
 PCOD9279754
Probable space group: C 2/C
;
_chemical_formula_sum "Si O2"
_cell_formula_units_Z 40
_cell_length_a 8.551968
_cell_length_b 10.274527
_cell_length_c 23.583791
_cell_angle_alpha 90.000000
_cell_angle_beta 91.980582
_cell_angle_gamma 90.000000
_cell_volume 2071.009047
_symmetry_space_group_name_H-M "C 2/C"
_symmetry_group_IT_number 15
_symmetry_cell_setting 'monoclinic'
loop_
_space_group_symop_operation_xyz
x,y,z
-x,y,1/2-z
-x,-y,-z
x,-y,1/2+z
1/2+x,1/2+y,z
1/2-x,1/2+y,1/2-z
1/2-x,1/2-y,-z
1/2+x,1/2-y,1/2+z
loop_
_atom_site_type_symbol
_atom_site_label
_atom_site_fract_x
_atom_site_fract_y
_atom_site_fract_z
Si Si1 0.105381 0.212585 0.893151
Si Si2 0.664713 0.571646 0.380332
Si Si3 0.540053 0.933151 0.685102
Si Si4 0.115039 0.346240 0.519591
Si Si5 0.474217 0.833498 0.400297
O O1 0.049093 0.309436 0.843017
O O2 0.292621 0.208456 0.901715
O O3 0.016072 0.266586 0.947214
O O4 0.066264 0.061179 0.880330
O O5 0.789890 0.566174 0.434190
O O6 0.566590 0.701044 0.388031
O O7 0.774918 0.582112 0.326493
O O8 0.500000 0.946067 0.750000
O O9 0.497429 0.062585 0.649068
O O10 0.250000 0.250000 0.500000
O O11 0.039513 0.393931 0.460036
#
# Coordination Sequence:
#
# PCOD9279754 Si02
#       5
#     8   8   8   8   8
#     4  10  21  36  58  85 112 147 187 227 277 332
#     4   9  21  38  57  86 115 145 183 224 277 336
#     4  10  23  41  56  77 112 149 189 237 279 319
#     4   9  19  35  57  86 121 146 173 224 280 336
#     4  10  21  37  60  86 112 147 186 225 276 336
#
# _framework density 19.314257000000001
#
# number of rings (size 3 to 8) (size 9 to 14) (size 15 to 20)
#    0.000    2.400    0.000    0.600    0.000   20.000 
#    0.000    1.000    0.000    0.000    0.000    0.000 
#    0.000    0.000    0.000    0.000    0.000    0.000 
#
# Total GULP energy -111535.164464 kJ/mol
# GULP energy per Si atom -5576.758223 kJ/mol
# Density = 1.927030 g / cm^3
# Si number density = 19.314257 Si / 1000 Ang^3
#
#
#
# Elastic Constant Matrix: (Units=GPa)
#
#
# Indices 1 2 3 4 5 6 
#
# 1 53.8573 54.3761 45.6798 0.0000 -7.9524 0.0000
# 2 54.3761 145.6258 58.5142 0.0000 -1.2250 0.0000
# 3 45.6798 58.5142 163.7765 0.0000 -25.1271 0.0000
# 4 0.0000 0.0000 0.0000 15.6498 0.0000 -3.5290
# 5 -7.9524 -1.2250 -25.1271 0.0000 17.8239 0.0000
# 6 0.0000 0.0000 0.0000 -3.5290 0.0000 38.0473
#
#
#
# Elastic Compliance Matrix: (Units=1/GPa)
#
#
# Indices 1 2 3 4 5 6 
#
# 1 0.034852 -0.011166 -0.004419 0.000000 0.008552 0.000000
# 2 -0.011166 0.011882 -0.002258 0.000000 -0.007349 0.000000
# 3 -0.004419 -0.002258 0.009977 0.000000 0.011938 0.000000
# 4 0.000000 0.000000 0.000000 0.065263 0.000000 0.006053
# 5 0.008552 -0.007349 0.011938 0.000000 0.076244 0.000000
# 6 0.000000 0.000000 0.000000 0.006053 0.000000 0.026845
#
#
# Mechanical properties :
#
#
# Convention : Reuss Voigt Hill
#
# Bulk Modulus (GPa) = 47.56510 75.59999 61.58254
# Shear Modulus (GPa) = 18.67355 27.95017 23.31186
#
# Velocity S-wave (km/s) = 3.11276 3.80824 3.47793
# Velocity P-wave (km/s) = 6.13184 7.65271 6.93410
#
# Compressibility (1/GPa) = 0.02102382
#
# Stress axis : x y z
#
# Youngs Moduli (GPa) = 28.69250 84.16196 100.23197
#
# Poissons Ratio (x) = 0.93976 0.44295
# Poissons Ratio (y) = 0.32038 0.22635
# Poissons Ratio (z) = 0.12680 0.19006
#
# Static dielectric constant tensor:
#      x y z
#    x 1.680630 0.000000 0.011690 
#    y 0.000000 1.714210 0.000000 
#    z 0.011690 0.000000 1.670550 
# 
# From -- ./inp_files/229924.got.cif
#   From: 2010.05.17/outbox.cif.g08.bks.cpg/sg15_115_cif.got.tgz:229924.got - 2010.06.03 18:47:42.
