data_PCOD9279419
_publ_section_title
;
Structure prediction by ZEFSAII (Michael W. Deem and Ramdas Pophale) SiO2 
 PCOD9279419
Probable space group: C 2/C
;
_chemical_formula_sum "Si O2"
_cell_formula_units_Z 52
_cell_length_a 14.950417
_cell_length_b 20.254344
_cell_length_c 14.231547
_cell_angle_alpha 90.000000
_cell_angle_beta 144.651558
_cell_angle_gamma 90.000000
_cell_volume 2493.231328
_symmetry_space_group_name_H-M "C 2/C"
_symmetry_group_IT_number 15
_symmetry_cell_setting 'monoclinic'
loop_
_space_group_symop_operation_xyz
x,y,z
-x,y,1/2-z
-x,-y,-z
x,-y,1/2+z
1/2+x,1/2+y,z
1/2-x,1/2+y,1/2-z
1/2-x,1/2-y,-z
1/2+x,1/2-y,1/2+z
loop_
_atom_site_type_symbol
_atom_site_label
_atom_site_fract_x
_atom_site_fract_y
_atom_site_fract_z
Si Si1 0.632706 0.065024 0.702324
Si Si2 0.175035 0.497176 0.029120
Si Si3 0.364590 0.323602 0.934426
Si Si4 0.500000 0.490224 0.250000
Si Si5 0.734449 0.692719 0.766238
Si Si6 0.626952 0.534711 0.046228
Si Si7 0.837443 0.648540 0.062353
O O1 0.461054 0.050314 0.590768
O O2 0.686082 0.140054 0.735660
O O3 0.661869 0.032143 0.623953
O O4 0.743950 0.019853 0.860748
O O5 0.344470 0.525699 0.150909
O O6 0.155717 0.431275 0.948003
O O7 0.549478 0.314793 0.098917
O O8 0.288318 0.268147 0.804005
O O9 0.320108 0.397461 0.862321
O O10 0.288544 0.323675 0.972895
O O11 0.543827 0.447205 0.377635
O O12 0.797537 0.674848 0.924830
O O13 0.500000 0.500000 0.000000
O O14 0.000000 0.667568 0.250000
#
# Coordination Sequence:
#
# PCOD9279419 Si02
#       7
#     8   8   8   4   8   8   8
#     4  10  22  41  60  90 136 171 222 277 319 383
#     4  10  21  35  59  91 128 170 218 273 316 391
#     4  12  23  38  61  89 131 174 220 259 335 405
#     4  12  22  38  64 100 128 168 216 274 338 408
#     4  11  24  39  58  90 133 179 213 264 326 406
#     4  12  22  41  67  94 131 171 221 282 329 393
#     4  11  21  36  56  88 130 176 218 258 315 405
#
# _framework density 20.856466999999999
#
# number of rings (size 3 to 8) (size 9 to 14) (size 15 to 20)
#    0.000    0.923    4.615    3.692    0.000    2.462 
#    0.000    0.000    0.000    0.000    0.000    4.308 
#    0.000    0.000    0.000    0.000    0.000    0.000 
#
# Total GULP energy -145107.792470 kJ/mol
# GULP energy per Si atom -5581.068941 kJ/mol
# Density = 2.080900 g / cm^3
# Si number density = 20.856467 Si / 1000 Ang^3
#
#
#
# Elastic Constant Matrix: (Units=GPa)
#
#
# Indices 1 2 3 4 5 6 
#
# 1 71.7574 35.3936 35.4989 0.0000 37.8482 0.0000
# 2 35.3936 134.3372 17.6971 0.0000 8.3417 0.0000
# 3 35.4989 17.6971 77.8026 0.0000 29.3656 0.0000
# 4 0.0000 0.0000 0.0000 26.5174 0.0000 0.4150
# 5 37.8482 8.3417 29.3656 0.0000 46.7268 0.0000
# 6 0.0000 0.0000 0.0000 0.4150 0.0000 23.5621
#
#
#
# Elastic Compliance Matrix: (Units=1/GPa)
#
#
# Indices 1 2 3 4 5 6 
#
# 1 0.029827 -0.005996 -0.004629 0.000000 -0.020180 0.000000
# 2 -0.005996 0.008884 -0.000681 0.000000 0.003698 0.000000
# 3 -0.004629 -0.000681 0.017906 0.000000 -0.007383 0.000000
# 4 0.000000 0.000000 0.000000 0.037721 0.000000 -0.000664
# 5 -0.020180 0.003698 -0.007383 0.000000 0.041726 0.000000
# 6 0.000000 0.000000 0.000000 -0.000664 0.000000 0.042453
#
#
# Mechanical properties :
#
#
# Convention : Reuss Voigt Hill
#
# Bulk Modulus (GPa) = 29.40607 51.23070 40.31839
# Shear Modulus (GPa) = 23.53351 32.38178 27.95764
#
# Velocity S-wave (km/s) = 3.36274 3.94458 3.66523
# Velocity P-wave (km/s) = 5.40437 6.73521 6.10616
#
# Compressibility (1/GPa) = 0.03400658
#
# Stress axis : x y z
#
# Youngs Moduli (GPa) = 33.52675 112.56616 55.84637
#
# Poissons Ratio (x) = 0.67490 0.25849
# Poissons Ratio (y) = 0.20101 0.03803
# Poissons Ratio (z) = 0.15518 0.07666
#
# Static dielectric constant tensor:
#      x y z
#    x 1.781210 0.000000 -0.013240 
#    y 0.000000 1.824290 0.000000 
#    z -0.013240 0.000000 1.861980 
# 
# From -- ./inp_files/211688.got.cif
#   From: 2010.05.17/outbox.cif.g08.bks.cpg/sg15_106_cif.got.tgz:211688.got - 2010.06.03 18:47:42.
