data_PCOD9279843
_publ_section_title
;
Structure prediction by ZEFSAII (Michael W. Deem and Ramdas Pophale) SiO2 
 PCOD9279843
Probable space group: C 2/C
;
_chemical_formula_sum "Si O2"
_cell_formula_units_Z 48
_cell_length_a 24.963707
_cell_length_b 6.081739
_cell_length_c 14.191814
_cell_angle_alpha 90.000000
_cell_angle_beta 112.923326
_cell_angle_gamma 90.000000
_cell_volume 1984.481640
_symmetry_space_group_name_H-M "C 2/C"
_symmetry_group_IT_number 15
_symmetry_cell_setting 'monoclinic'
loop_
_space_group_symop_operation_xyz
x,y,z
-x,y,1/2-z
-x,-y,-z
x,-y,1/2+z
1/2+x,1/2+y,z
1/2-x,1/2+y,1/2-z
1/2-x,1/2-y,-z
1/2+x,1/2-y,1/2+z
loop_
_atom_site_type_symbol
_atom_site_label
_atom_site_fract_x
_atom_site_fract_y
_atom_site_fract_z
Si Si1 0.715908 0.372193 0.797839
Si Si2 0.892165 0.449752 0.270426
Si Si3 0.777538 0.994307 0.413132
Si Si4 0.008177 0.080362 0.152536
Si Si5 0.669140 0.249952 0.399164
Si Si6 0.547919 0.805402 0.538957
O O1 0.666049 0.189392 0.766169
O O2 0.727198 0.417809 0.696536
O O3 0.688607 0.578854 0.831863
O O4 0.770212 0.265769 0.891211
O O5 0.944576 0.275637 0.302394
O O6 0.886244 0.616912 0.178003
O O7 0.897995 0.585162 0.371848
O O8 0.722340 0.076866 0.436131
O O9 0.831004 0.108295 0.504883
O O10 0.000000 0.986199 0.250000
O O11 0.029061 0.888598 0.097426
O O12 0.952554 0.193965 0.063919
O O13 0.500000 0.000000 0.500000
#
# Coordination Sequence:
#
# PCOD9279843 Si02
#       6
#     8   8   8   8   8   8
#     4  11  20  38  59  85 119 161 209 257 313 371
#     4  10  22  38  59  90 127 158 202 260 304 374
#     4  10  21  36  60  82 115 163 206 257 313 364
#     4  10  21  40  66  90 121 163 205 249 310 373
#     4  10  21  38  57  87 121 156 208 257 307 368
#     4   9  20  40  62  89 122 159 197 253 310 369
#
# _framework density 24.187678999999999
#
# number of rings (size 3 to 8) (size 9 to 14) (size 15 to 20)
#    0.000    2.000    1.667    1.500    0.000    4.000 
#    0.000   11.667    0.000    0.000    0.000    0.000 
#    0.000    0.000    0.000    0.000    0.000    0.000 
#
# Total GULP energy -133966.255769 kJ/mol
# GULP energy per Si atom -5581.927324 kJ/mol
# Density = 2.413263 g / cm^3
# Si number density = 24.187679 Si / 1000 Ang^3
#
#
#
# Elastic Constant Matrix: (Units=GPa)
#
#
# Indices 1 2 3 4 5 6 
#
# 1 20.9243 24.1848 24.1398 0.0000 0.8597 0.0000
# 2 24.1848 122.2795 72.3403 0.0000 3.6742 0.0000
# 3 24.1398 72.3403 160.7551 0.0000 -13.2846 0.0000
# 4 0.0000 0.0000 0.0000 110.4425 0.0000 -0.4877
# 5 0.8597 3.6742 -13.2846 0.0000 30.5124 0.0000
# 6 0.0000 0.0000 0.0000 -0.4877 0.0000 28.5547
#
#
#
# Elastic Compliance Matrix: (Units=1/GPa)
#
#
# Indices 1 2 3 4 5 6 
#
# 1 0.065573 -0.009382 -0.005896 0.000000 -0.003285 0.000000
# 2 -0.009382 0.012895 -0.004668 0.000000 -0.003321 0.000000
# 3 -0.005896 -0.004668 0.009613 0.000000 0.004914 0.000000
# 4 0.000000 0.000000 0.000000 0.009055 0.000000 0.000155
# 5 -0.003285 -0.003321 0.004914 0.000000 0.035405 0.000000
# 6 0.000000 0.000000 0.000000 0.000155 0.000000 0.035023
#
#
# Mechanical properties :
#
#
# Convention : Reuss Voigt Hill
#
# Bulk Modulus (GPa) = 20.75240 60.58762 40.67001
# Shear Modulus (GPa) = 22.36927 46.12153 34.24540
#
# Velocity S-wave (km/s) = 3.04439 4.37145 3.76682
# Velocity P-wave (km/s) = 4.57778 7.11216 5.98076
#
# Compressibility (1/GPa) = 0.04818720
#
# Stress axis : x y z
#
# Youngs Moduli (GPa) = 15.25021 77.54768 104.02684
#
# Poissons Ratio (x) = 0.72758 0.61335
# Poissons Ratio (y) = 0.14308 0.48565
# Poissons Ratio (z) = 0.08992 0.36203
#
# Static dielectric constant tensor:
#      x y z
#    x 1.973090 0.000000 0.055510 
#    y 0.000000 1.997080 0.000000 
#    z 0.055510 0.000000 2.005820 
# 
# From -- ./inp_files/179659.got.cif
#   From: 2010.05.17/outbox.cif.g08.bks.cpg/sg15_90_cif.got.tgz:179659.got - 2010.06.03 18:47:42.
