data_PCOD9279325
_publ_section_title
;
Structure prediction by ZEFSAII (Michael W. Deem and Ramdas Pophale) SiO2 
 PCOD9279325
Probable space group: C 2/C
;
_chemical_formula_sum "Si O2"
_cell_formula_units_Z 60
_cell_length_a 17.726571
_cell_length_b 19.164460
_cell_length_c 10.710714
_cell_angle_alpha 90.000000
_cell_angle_beta 53.585125
_cell_angle_gamma 90.000000
_cell_volume 2928.162504
_symmetry_space_group_name_H-M "C 2/C"
_symmetry_group_IT_number 15
_symmetry_cell_setting 'monoclinic'
loop_
_space_group_symop_operation_xyz
x,y,z
-x,y,1/2-z
-x,-y,-z
x,-y,1/2+z
1/2+x,1/2+y,z
1/2-x,1/2+y,1/2-z
1/2-x,1/2-y,-z
1/2+x,1/2-y,1/2+z
loop_
_atom_site_type_symbol
_atom_site_label
_atom_site_fract_x
_atom_site_fract_y
_atom_site_fract_z
Si Si1 0.301862 0.649661 0.281926
Si Si2 0.628544 0.427193 0.545289
Si Si3 0.305243 0.942430 0.218157
Si Si4 0.405760 0.156454 0.972324
Si Si5 0.599337 0.998078 0.122062
Si Si6 0.605024 0.797818 0.300362
Si Si7 0.500000 0.552578 0.750000
Si Si8 0.976391 0.082306 0.024455
O O1 0.316001 0.619296 0.408903
O O2 0.192623 0.654180 0.360000
O O3 0.349536 0.724152 0.215707
O O4 0.367340 0.597146 0.141536
O O5 0.696282 0.442581 0.362567
O O6 0.587791 0.498629 0.646599
O O7 0.536626 0.388675 0.579616
O O8 0.351731 0.983632 0.291763
O O9 0.340552 0.863055 0.195463
O O10 0.335799 0.969237 0.051080
O O11 0.427983 0.076530 0.913696
O O12 0.389402 0.193952 0.855489
O O13 0.496008 0.192318 0.943359
O O14 0.500000 0.034992 0.250000
O O15 0.512132 0.602564 0.855052
O O16 0.000000 0.000000 0.000000
#
# Coordination Sequence:
#
# PCOD9279325 Si02
#       8
#     8   8   8   8   8   8   4   8
#     4  12  21  37  61  87 120 158 197 255 308 360
#     4  11  21  33  58  90 119 151 202 247 311 355
#     4  11  24  36  62  92 122 161 206 255 309 374
#     4  10  21  35  57  85 120 150 197 247 310 353
#     4  11  21  40  60  87 123 160 206 254 310 358
#     4  10  22  37  55  88 123 154 200 252 305 364
#     4  10  22  38  52  80 132 150 198 246 298 368
#     4  10  22  36  55  85 118 157 198 244 299 360
#
# _framework density 20.490665
#
# number of rings (size 3 to 8) (size 9 to 14) (size 15 to 20)
#    0.000    1.333    8.000    0.800    9.333    0.000 
#    0.000    0.000    1.467    0.000    0.000    2.800 
#    0.000    0.000    0.000    0.000    0.000    0.000 
#
# Total GULP energy -167249.746712 kJ/mol
# GULP energy per Si atom -5574.991557 kJ/mol
# Density = 2.044403 g / cm^3
# Si number density = 20.490665 Si / 1000 Ang^3
#
#
#
# Elastic Constant Matrix: (Units=GPa)
#
#
# Indices 1 2 3 4 5 6 
#
# 1 45.6799 9.3946 42.4656 0.0000 -14.4976 0.0000
# 2 9.3946 73.3954 31.6565 0.0000 -11.6302 0.0000
# 3 42.4656 31.6565 148.3293 0.0000 -23.1509 0.0000
# 4 0.0000 0.0000 0.0000 18.9327 0.0000 -1.9373
# 5 -14.4976 -11.6302 -23.1509 0.0000 49.7825 0.0000
# 6 0.0000 0.0000 0.0000 -1.9373 0.0000 10.7122
#
#
#
# Elastic Compliance Matrix: (Units=1/GPa)
#
#
# Indices 1 2 3 4 5 6 
#
# 1 0.031084 0.000383 -0.008145 0.000000 0.005354 0.000000
# 2 0.000383 0.015232 -0.003006 0.000000 0.002272 0.000000
# 3 -0.008145 -0.003006 0.009958 0.000000 0.001557 0.000000
# 4 0.000000 0.000000 0.000000 0.053815 0.000000 0.009732
# 5 0.005354 0.002272 0.001557 0.000000 0.022901 0.000000
# 6 0.000000 0.000000 0.000000 0.009732 0.000000 0.095112
#
#
# Mechanical properties :
#
#
# Convention : Reuss Voigt Hill
#
# Bulk Modulus (GPa) = 28.78699 48.27090 38.52895
# Shear Modulus (GPa) = 19.14111 28.14466 23.64288
#
# Velocity S-wave (km/s) = 3.05968 3.71014 3.40050
# Velocity P-wave (km/s) = 5.15379 6.47782 5.85336
#
# Compressibility (1/GPa) = 0.03473791
#
# Stress axis : x y z
#
# Youngs Moduli (GPa) = 32.17095 65.64972 100.42043
#
# Poissons Ratio (x) = -0.02513 0.81794
# Poissons Ratio (y) = -0.01231 0.30185
# Poissons Ratio (z) = 0.26204 0.19733
#
# Static dielectric constant tensor:
#      x y z
#    x 1.845170 0.000000 0.028290 
#    y 0.000000 1.734020 0.000000 
#    z 0.028290 0.000000 1.845760 
# 
# From -- ./inp_files/113785.got.cif
#   From: 2010.05.17/outbox.cif.g08.bks.cpg/sg15_57_cif.got.tgz:113785.got - 2010.06.03 18:47:42.
