data_PCOD9279263
_publ_section_title
;
Structure prediction by ZEFSAII (Michael W. Deem and Ramdas Pophale) SiO2 
 PCOD9279263
Probable space group: C 2/C
;
_chemical_formula_sum "Si O2"
_cell_formula_units_Z 52
_cell_length_a 12.833116
_cell_length_b 14.800339
_cell_length_c 12.185272
_cell_angle_alpha 90.000000
_cell_angle_beta 118.583886
_cell_angle_gamma 90.000000
_cell_volume 2032.318064
_symmetry_space_group_name_H-M "C 2/C"
_symmetry_group_IT_number 15
_symmetry_cell_setting 'monoclinic'
loop_
_space_group_symop_operation_xyz
x,y,z
-x,y,1/2-z
-x,-y,-z
x,-y,1/2+z
1/2+x,1/2+y,z
1/2-x,1/2+y,1/2-z
1/2-x,1/2-y,-z
1/2+x,1/2-y,1/2+z
loop_
_atom_site_type_symbol
_atom_site_label
_atom_site_fract_x
_atom_site_fract_y
_atom_site_fract_z
Si Si1 0.932292 0.191121 0.611971
Si Si2 0.500000 0.037359 0.750000
Si Si3 0.489570 0.407672 0.563808
Si Si4 0.232240 0.872063 0.739918
Si Si5 0.723869 0.834324 0.151776
Si Si6 0.991872 0.382108 0.923993
Si Si7 0.753971 0.941732 0.373827
O O1 0.975677 0.162300 0.514498
O O2 0.797892 0.166360 0.575871
O O3 0.000000 0.149382 0.750000
O O4 0.965704 0.296328 0.626238
O O5 0.504323 0.971369 0.857769
O O6 0.379214 0.092047 0.675633
O O7 0.500000 0.500000 0.500000
O O8 0.595765 0.395874 0.704191
O O9 0.348539 0.409653 0.511792
O O10 0.229730 0.768895 0.696264
O O11 0.350252 0.876572 0.874865
O O12 0.252831 0.950734 0.656934
O O13 0.786725 0.896035 0.274249
O O14 0.591939 0.873764 0.067947
#
# Coordination Sequence:
#
# PCOD9279263 Si02
#       7
#     8   4   8   8   8   8   8
#     4  12  19  33  55  93 119 145 183 237 302 359
#     4  10  22  38  58  80 120 152 206 240 282 344
#     4  10  21  35  55  81 119 153 188 228 290 353
#     4  10  21  37  57  86 117 152 190 238 288 354
#     4  12  23  34  61  89 123 150 190 241 298 347
#     4  11  21  34  58  89 118 149 184 249 304 339
#     4  10  22  40  57  87 113 161 193 238 291 345
#
# _framework density 25.586548000000001
#
# number of rings (size 3 to 8) (size 9 to 14) (size 15 to 20)
#    0.000    1.231    5.385    1.385    6.462    2.462 
#    0.000    0.000    0.000    4.615    0.000    0.000 
#    0.000    0.000    0.000    0.000    0.000    0.000 
#
# Total GULP energy -144996.107541 kJ/mol
# GULP energy per Si atom -5576.773367 kJ/mol
# Density = 2.552831 g / cm^3
# Si number density = 25.586548 Si / 1000 Ang^3
#
#
#
# Elastic Constant Matrix: (Units=GPa)
#
#
# Indices 1 2 3 4 5 6 
#
# 1 108.4054 12.6425 46.9930 0.0000 54.9993 0.0000
# 2 12.6425 92.1077 15.8643 0.0000 -6.9327 0.0000
# 3 46.9930 15.8643 170.6093 0.0000 52.6018 0.0000
# 4 0.0000 0.0000 0.0000 32.8373 0.0000 13.3480
# 5 54.9993 -6.9327 52.6018 0.0000 61.4297 0.0000
# 6 0.0000 0.0000 0.0000 13.3480 0.0000 8.0067
#
#
#
# Elastic Compliance Matrix: (Units=1/GPa)
#
#
# Indices 1 2 3 4 5 6 
#
# 1 0.018150 -0.003912 0.000694 0.000000 -0.017286 0.000000
# 2 -0.003912 0.012266 -0.002133 0.000000 0.006713 0.000000
# 3 0.000694 -0.002133 0.008335 0.000000 -0.007999 0.000000
# 4 0.000000 0.000000 0.000000 0.094474 0.000000 -0.157497
# 5 -0.017286 0.006713 -0.007999 0.000000 0.039362 0.000000
# 6 0.000000 0.000000 0.000000 -0.157497 0.000000 0.387458
#
#
# Mechanical properties :
#
#
# Convention : Reuss Voigt Hill
#
# Bulk Modulus (GPa) = 35.65103 58.01355 46.83229
# Shear Modulus (GPa) = 8.61926 40.16292 24.39109
#
# Velocity S-wave (km/s) = 1.83738 3.96623 3.09087
# Velocity P-wave (km/s) = 4.29710 6.61039 5.57505
#
# Compressibility (1/GPa) = 0.02804968
#
# Stress axis : x y z
#
# Youngs Moduli (GPa) = 55.09693 81.52355 119.97948
#
# Poissons Ratio (x) = 0.31890 -0.08326
# Poissons Ratio (y) = 0.21553 0.25590
# Poissons Ratio (z) = -0.03824 0.17388
#
# Static dielectric constant tensor:
#      x y z
#    x 2.188150 0.000000 0.095010 
#    y 0.000000 2.138260 0.000000 
#    z 0.095010 0.000000 2.154220 
# 
# From -- ./inp_files/205192.got.cif
#   From: 2010.05.17/outbox.cif.g08.bks.cpg/sg15_103_cif.got.tgz:205192.got - 2010.06.03 18:47:42.
