data_PCOD9279647
_publ_section_title
;
Structure prediction by ZEFSAII (Michael W. Deem and Ramdas Pophale) SiO2 
 PCOD9279647
Probable space group: C 2/C
;
_chemical_formula_sum "Si O2"
_cell_formula_units_Z 48
_cell_length_a 14.540756
_cell_length_b 10.846734
_cell_length_c 14.375209
_cell_angle_alpha 90.000000
_cell_angle_beta 93.227262
_cell_angle_gamma 90.000000
_cell_volume 2263.658171
_symmetry_space_group_name_H-M "C 2/C"
_symmetry_group_IT_number 15
_symmetry_cell_setting 'monoclinic'
loop_
_space_group_symop_operation_xyz
x,y,z
-x,y,1/2-z
-x,-y,-z
x,-y,1/2+z
1/2+x,1/2+y,z
1/2-x,1/2+y,1/2-z
1/2-x,1/2-y,-z
1/2+x,1/2-y,1/2+z
loop_
_atom_site_type_symbol
_atom_site_label
_atom_site_fract_x
_atom_site_fract_y
_atom_site_fract_z
Si Si1 0.471120 0.492634 0.605712
Si Si2 0.236562 0.027350 0.341773
Si Si3 0.937840 0.493693 0.904267
Si Si4 0.234296 0.246686 0.792806
Si Si5 0.922347 0.241695 0.396963
Si Si6 0.960114 0.742029 0.121513
O O1 0.500000 0.500000 0.500000
O O2 0.361430 0.479177 0.612154
O O3 0.523189 0.372023 0.643589
O O4 0.500711 0.624119 0.648495
O O5 0.327637 0.016734 0.411578
O O6 0.246054 0.156862 0.288493
O O7 0.238709 0.902507 0.277608
O O8 0.951879 0.626050 0.857436
O O9 0.972648 0.371243 0.856043
O O10 0.000000 0.500000 0.000000
O O11 0.314793 0.273361 0.871698
O O12 0.135950 0.274303 0.832209
O O13 0.940289 0.250186 0.508933
#
# Coordination Sequence:
#
# PCOD9279647 Si02
#       6
#     8   8   8   8   8   8
#     4   9  19  36  57  81 111 148 195 240 277 336
#     4  10  22  38  55  84 119 152 188 232 295 345
#     4   9  19  36  57  81 111 148 195 240 277 336
#     4  10  21  36  56  80 115 150 184 232 288 351
#     4   9  18  35  57  81 108 148 192 232 277 336
#     4   9  18  35  57  81 108 148 192 232 277 336
#
# _framework density 21.204612999999998
#
# number of rings (size 3 to 8) (size 9 to 14) (size 15 to 20)
#    0.000    2.667    0.000    0.500    0.000    8.000 
#    0.000   14.167    0.000    0.000    0.000    0.000 
#    0.000    0.000    0.000    0.000    0.000    0.000 
#
# Total GULP energy -133788.272387 kJ/mol
# GULP energy per Si atom -5574.511349 kJ/mol
# Density = 2.115635 g / cm^3
# Si number density = 21.204613 Si / 1000 Ang^3
#
#
#
# Elastic Constant Matrix: (Units=GPa)
#
#
# Indices 1 2 3 4 5 6 
#
# 1 91.4234 85.6897 8.7250 0.0000 -16.0824 0.0000
# 2 85.6897 185.9813 19.4451 0.0000 -21.2715 0.0000
# 3 8.7250 19.4451 67.0404 0.0000 -8.4746 0.0000
# 4 0.0000 0.0000 0.0000 12.4174 0.0000 -4.0990
# 5 -16.0824 -21.2715 -8.4746 0.0000 27.0881 0.0000
# 6 0.0000 0.0000 0.0000 -4.0990 0.0000 35.7451
#
#
#
# Elastic Compliance Matrix: (Units=1/GPa)
#
#
# Indices 1 2 3 4 5 6 
#
# 1 0.019885 -0.008626 0.000573 0.000000 0.005212 0.000000
# 2 -0.008626 0.009739 -0.001440 0.000000 0.002076 0.000000
# 3 0.000573 -0.001440 0.015784 0.000000 0.004147 0.000000
# 4 0.000000 0.000000 0.000000 0.083700 0.000000 0.009598
# 5 0.005212 0.002076 0.004147 0.000000 0.042939 0.000000
# 6 0.000000 0.000000 0.000000 0.009598 0.000000 0.029077
#
#
# Mechanical properties :
#
#
# Convention : Reuss Voigt Hill
#
# Bulk Modulus (GPa) = 37.84676 63.57386 50.71031
# Shear Modulus (GPa) = 21.84206 30.42249 26.13227
#
# Velocity S-wave (km/s) = 3.21294 3.79187 3.51434
# Velocity P-wave (km/s) = 5.62593 7.01550 6.35879
#
# Compressibility (1/GPa) = 0.02642234
#
# Stress axis : x y z
#
# Youngs Moduli (GPa) = 50.28932 102.67874 63.35637
#
# Poissons Ratio (x) = 0.88567 -0.03629
# Poissons Ratio (y) = 0.43378 0.09122
# Poissons Ratio (z) = -0.02880 0.14784
#
# Static dielectric constant tensor:
#      x y z
#    x 1.721860 0.000000 0.024600 
#    y 0.000000 1.851200 0.000000 
#    z 0.024600 0.000000 1.775850 
# 
# From -- ./inp_files/196142.got.cif
#   From: 2010.05.17/outbox.cif.g08.bks.cpg/sg15_99_cif.got.tgz:196142.got - 2010.06.03 18:47:42.
