data_PCOD9279356
_publ_section_title
;
Structure prediction by ZEFSAII (Michael W. Deem and Ramdas Pophale) SiO2 
 PCOD9279356
Probable space group: C 2/C
;
_chemical_formula_sum "Si O2"
_cell_formula_units_Z 52
_cell_length_a 19.128312
_cell_length_b 24.700832
_cell_length_c 5.097774
_cell_angle_alpha 90.000000
_cell_angle_beta 87.647778
_cell_angle_gamma 90.000000
_cell_volume 2406.593375
_symmetry_space_group_name_H-M "C 2/C"
_symmetry_group_IT_number 15
_symmetry_cell_setting 'monoclinic'
loop_
_space_group_symop_operation_xyz
x,y,z
-x,y,1/2-z
-x,-y,-z
x,-y,1/2+z
1/2+x,1/2+y,z
1/2-x,1/2+y,1/2-z
1/2-x,1/2-y,-z
1/2+x,1/2-y,1/2+z
loop_
_atom_site_type_symbol
_atom_site_label
_atom_site_fract_x
_atom_site_fract_y
_atom_site_fract_z
Si Si1 0.000000 0.460805 0.250000
Si Si2 0.276743 0.536328 0.681365
Si Si3 0.144391 0.709979 0.628389
Si Si4 0.690767 0.118251 0.994011
Si Si5 0.773430 0.795849 0.708642
Si Si6 0.571116 0.882073 0.903323
Si Si7 0.425307 0.536919 0.802664
O O1 0.000000 0.500000 0.500000
O O2 0.938582 0.418916 0.336551
O O3 0.273265 0.514003 0.387738
O O4 0.214963 0.575562 0.776492
O O5 0.352132 0.563562 0.732404
O O6 0.152009 0.669981 0.873228
O O7 0.151929 0.772716 0.706179
O O8 0.215350 0.702684 0.447211
O O9 0.083656 0.680867 0.475503
O O10 0.762695 0.144765 0.094334
O O11 0.637637 0.098201 0.224534
O O12 0.750000 0.750000 0.500000
O O13 0.500000 0.887588 0.750000
O O14 0.500000 0.565472 0.750000
O O15 0.425074 0.485840 0.598494
#
# Coordination Sequence:
#
# PCOD9279356 Si02
#       7
#     4   8   8   8   8   8   8
#     4  12  26  44  60  80 118 168 230 274 320 374
#     4  10  22  35  52  84 122 156 199 242 299 353
#     4   9  18  34  59  84 113 144 200 256 312 376
#     4  10  21  35  58  85 121 158 203 263 316 375
#     4   8  16  33  56  87 111 140 189 243 315 377
#     4  11  23  40  58  84 116 162 220 264 320 381
#     4   8  14  28  49  73 103 136 178 218 261 328
#
# _framework density 21.607303999999999
#
# number of rings (size 3 to 8) (size 9 to 14) (size 15 to 20)
#    0.000    2.462    0.769    0.923    4.308    1.231 
#    0.000    0.000    0.000    0.000    0.000   62.462 
#    0.000    0.000    0.000    0.000    0.000    0.000 
#
# Total GULP energy -144741.101173 kJ/mol
# GULP energy per Si atom -5566.965430 kJ/mol
# Density = 2.155812 g / cm^3
# Si number density = 21.607304 Si / 1000 Ang^3
#
#
#
# Elastic Constant Matrix: (Units=GPa)
#
#
# Indices 1 2 3 4 5 6 
#
# 1 98.8503 37.7681 14.7494 0.0000 -7.9997 0.0000
# 2 37.7681 48.3333 17.8551 0.0000 -6.2324 0.0000
# 3 14.7494 17.8551 106.7658 0.0000 -17.2545 0.0000
# 4 0.0000 0.0000 0.0000 26.5089 0.0000 -5.1395
# 5 -7.9997 -6.2324 -17.2545 0.0000 35.3248 0.0000
# 6 0.0000 0.0000 0.0000 -5.1395 0.0000 27.4021
#
#
#
# Elastic Compliance Matrix: (Units=1/GPa)
#
#
# Indices 1 2 3 4 5 6 
#
# 1 0.014482 -0.011174 0.000086 0.000000 0.001350 0.000000
# 2 -0.011174 0.030843 -0.003413 0.000000 0.001244 0.000000
# 3 0.000086 -0.003413 0.010674 0.000000 0.004631 0.000000
# 4 0.000000 0.000000 0.000000 0.039147 0.000000 0.007342
# 5 0.001350 0.001244 0.004631 0.000000 0.031096 0.000000
# 6 0.000000 0.000000 0.000000 0.007342 0.000000 0.037871
#
#
# Mechanical properties :
#
#
# Convention : Reuss Voigt Hill
#
# Bulk Modulus (GPa) = 37.04267 43.85495 40.44881
# Shear Modulus (GPa) = 24.73868 30.08560 27.41214
#
# Velocity S-wave (km/s) = 3.38734 3.73551 3.56568
# Velocity P-wave (km/s) = 5.69909 6.24066 5.97601
#
# Compressibility (1/GPa) = 0.02699590
#
# Stress axis : x y z
#
# Youngs Moduli (GPa) = 69.05088 32.42270 93.68914
#
# Poissons Ratio (x) = 0.36230 -0.00808
# Poissons Ratio (y) = 0.77159 0.31979
# Poissons Ratio (z) = -0.00596 0.11067
#
# Static dielectric constant tensor:
#      x y z
#    x 1.953630 0.000000 0.056640 
#    y 0.000000 1.853600 0.000000 
#    z 0.056640 0.000000 1.897470 
# 
# From -- ./inp_files/11271.got.cif
#   From: 2010.05.17/outbox.cif.g08.bks.cpg/sg15_6_cif.got.tgz:11271.got - 2010.06.03 18:47:42.
