data_PCOD9279483
_publ_section_title
;
Structure prediction by ZEFSAII (Michael W. Deem and Ramdas Pophale) SiO2 
 PCOD9279483
Probable space group: C 2/C
;
_chemical_formula_sum "Si O2"
_cell_formula_units_Z 60
_cell_length_a 20.940968
_cell_length_b 9.287682
_cell_length_c 17.070797
_cell_angle_alpha 90.000000
_cell_angle_beta 62.826273
_cell_angle_gamma 90.000000
_cell_volume 2953.692619
_symmetry_space_group_name_H-M "C 2/C"
_symmetry_group_IT_number 15
_symmetry_cell_setting 'monoclinic'
loop_
_space_group_symop_operation_xyz
x,y,z
-x,y,1/2-z
-x,-y,-z
x,-y,1/2+z
1/2+x,1/2+y,z
1/2-x,1/2+y,1/2-z
1/2-x,1/2-y,-z
1/2+x,1/2-y,1/2+z
loop_
_atom_site_type_symbol
_atom_site_label
_atom_site_fract_x
_atom_site_fract_y
_atom_site_fract_z
Si Si1 0.961124 0.178101 0.696156
Si Si2 0.598908 0.578673 0.523026
Si Si3 0.114916 0.407885 0.483508
Si Si4 0.485397 0.091677 0.598232
Si Si5 0.725417 0.156057 0.438459
Si Si6 0.000000 0.731142 0.750000
Si Si7 0.371411 0.444926 0.840199
Si Si8 0.589813 0.296469 0.437891
O O1 0.920023 0.248745 0.646829
O O2 0.000000 0.250713 0.750000
O O3 0.024370 0.099397 0.612137
O O4 0.906403 0.065187 0.765755
O O5 0.624992 0.737691 0.486416
O O6 0.647522 0.509144 0.563719
O O7 0.587479 0.467066 0.458853
O O8 0.043345 0.462384 0.569183
O O9 0.180941 0.506010 0.474708
O O10 0.086514 0.436910 0.410856
O O11 0.471677 0.141995 0.692850
O O12 0.528896 0.216127 0.524658
O O13 0.750000 0.250000 0.500000
O O14 0.797924 0.121613 0.350849
O O15 0.666874 0.247106 0.424655
O O16 0.933600 0.827362 0.816283
#
# Coordination Sequence:
#
# PCOD9279483 Si02
#       8
#     8   8   8   8   8   4   8   8
#     4  10  21  35  61  98 127 161 214 275 318 372
#     4  11  19  37  68  98 121 159 223 270 322 383
#     4  10  23  38  64  95 127 168 207 275 320 385
#     4  10  21  40  63  96 131 162 220 262 326 391
#     4  11  23  45  66  86 128 176 219 259 326 404
#     4  12  20  40  68  96 120 176 222 266 322 388
#     4  11  21  39  63  95 128 165 219 269 316 390
#     4  11  20  39  69  92 124 181 212 262 330 396
#
# _framework density 20.313555000000001
#
# number of rings (size 3 to 8) (size 9 to 14) (size 15 to 20)
#    0.000    1.333    6.000    1.200    1.867    0.533 
#    6.000    0.000    2.933    0.000    0.000    0.000 
#    0.000    0.000    0.000    0.000    0.000    0.000 
#
# Total GULP energy -167242.550933 kJ/mol
# GULP energy per Si atom -5574.751698 kJ/mol
# Density = 2.026732 g / cm^3
# Si number density = 20.313555 Si / 1000 Ang^3
#
#
#
# Elastic Constant Matrix: (Units=GPa)
#
#
# Indices 1 2 3 4 5 6 
#
# 1 140.3909 35.9233 40.1217 0.0000 12.5724 0.0000
# 2 35.9233 111.3004 22.6791 0.0000 6.5217 0.0000
# 3 40.1217 22.6791 57.0379 0.0000 24.3706 0.0000
# 4 0.0000 0.0000 0.0000 15.4542 0.0000 6.6842
# 5 12.5724 6.5217 24.3706 0.0000 42.5733 0.0000
# 6 0.0000 0.0000 0.0000 6.6842 0.0000 29.9953
#
#
#
# Elastic Compliance Matrix: (Units=1/GPa)
#
#
# Indices 1 2 3 4 5 6 
#
# 1 0.009278 -0.001776 -0.006309 0.000000 0.001144 0.000000
# 2 -0.001776 0.010147 -0.003104 0.000000 0.000747 0.000000
# 3 -0.006309 -0.003104 0.029395 0.000000 -0.014488 0.000000
# 4 0.000000 0.000000 0.000000 0.071609 0.000000 -0.015958
# 5 0.001144 0.000747 -0.014488 0.000000 0.031330 0.000000
# 6 0.000000 0.000000 0.000000 -0.015958 0.000000 0.036895
#
#
# Mechanical properties :
#
#
# Convention : Reuss Voigt Hill
#
# Bulk Modulus (GPa) = 37.82035 56.24193 47.03114
# Shear Modulus (GPa) = 22.74324 31.60491 27.17408
#
# Velocity S-wave (km/s) = 3.34969 3.94871 3.66147
# Velocity P-wave (km/s) = 5.79821 6.96683 6.40921
#
# Compressibility (1/GPa) = 0.02644079
#
# Stress axis : x y z
#
# Youngs Moduli (GPa) = 107.78224 98.55396 34.01986
#
# Poissons Ratio (x) = 0.17504 0.21462
# Poissons Ratio (y) = 0.19143 0.10561
# Poissons Ratio (z) = 0.67997 0.30595
#
# Static dielectric constant tensor:
#      x y z
#    x 1.782230 0.000000 0.044970 
#    y 0.000000 1.819700 0.000000 
#    z 0.044970 0.000000 1.721520 
# 
# From -- ./inp_files/214270.got.cif
#   From: 2010.05.17/outbox.cif.g08.bks.cpg/sg15_108_cif.got.tgz:214270.got - 2010.06.03 18:47:42.
