data_PCOD9279749
_publ_section_title
;
Structure prediction by ZEFSAII (Michael W. Deem and Ramdas Pophale) SiO2 
 PCOD9279749
Probable space group: C 2/C
;
_chemical_formula_sum "Si O2"
_cell_formula_units_Z 52
_cell_length_a 26.065259
_cell_length_b 6.406237
_cell_length_c 19.324981
_cell_angle_alpha 90.000000
_cell_angle_beta 58.869529
_cell_angle_gamma 90.000000
_cell_volume 2762.192617
_symmetry_space_group_name_H-M "C 2/C"
_symmetry_group_IT_number 15
_symmetry_cell_setting 'monoclinic'
loop_
_space_group_symop_operation_xyz
x,y,z
-x,y,1/2-z
-x,-y,-z
x,-y,1/2+z
1/2+x,1/2+y,z
1/2-x,1/2+y,1/2-z
1/2-x,1/2-y,-z
1/2+x,1/2-y,1/2+z
loop_
_atom_site_type_symbol
_atom_site_label
_atom_site_fract_x
_atom_site_fract_y
_atom_site_fract_z
Si Si1 0.781735 0.436038 0.885343
Si Si2 0.434540 0.454344 0.732054
Si Si3 0.784245 0.679579 0.131976
Si Si4 0.180846 0.118351 0.755729
Si Si5 0.500000 0.925011 0.250000
Si Si6 0.947681 0.193905 0.865181
Si Si7 0.167710 0.648859 0.002398
O O1 0.758636 0.664081 0.880797
O O2 0.813908 0.317122 0.799549
O O3 0.722518 0.300962 0.944843
O O4 0.821781 0.429161 0.926250
O O5 0.376466 0.483926 0.726455
O O6 0.453510 0.223900 0.742336
O O7 0.424616 0.577604 0.811605
O O8 0.492998 0.563423 0.657022
O O9 0.819547 0.807584 0.165300
O O10 0.740273 0.518679 0.201869
O O11 0.826633 0.547405 0.052183
O O12 0.531434 0.077569 0.173650
O O13 0.894156 0.224506 0.955770
#
# Coordination Sequence:
#
# PCOD9279749 Si02
#       7
#     8   8   8   8   4   8   8
#     4  10  21  38  55  84 114 149 185 231 289 328
#     4   9  19  33  55  80 113 146 185 235 275 323
#     4  11  23  35  57  83 113 155 188 226 285 335
#     4  11  21  37  56  83 115 151 188 233 275 343
#     4   8  18  32  54  86 100 148 188 222 286 326
#     4   9  18  35  55  84 113 142 184 237 273 330
#     4  10  21  36  58  84 115 144 185 240 280 331
#
# _framework density 18.825624999999999
#
# number of rings (size 3 to 8) (size 9 to 14) (size 15 to 20)
#    0.000    2.462    3.077    0.462    2.154    2.462 
#    0.000    0.769    0.000    1.846    0.000    0.000 
#    0.000    0.000    0.000    0.000    0.000    0.000 
#
# Total GULP energy -145087.676743 kJ/mol
# GULP energy per Si atom -5580.295259 kJ/mol
# Density = 1.878278 g / cm^3
# Si number density = 18.825625 Si / 1000 Ang^3
#
#
#
# Elastic Constant Matrix: (Units=GPa)
#
#
# Indices 1 2 3 4 5 6 
#
# 1 49.5858 -14.8674 1.2194 0.0082 2.0267 0.0268
# 2 -14.8674 54.6595 -4.0029 0.0074 10.5488 0.0532
# 3 1.2194 -4.0029 32.9735 0.0028 3.7346 -0.0003
# 4 0.0082 0.0074 0.0028 6.6111 -0.0048 3.9121
# 5 2.0267 10.5488 3.7346 -0.0048 21.1919 -0.0013
# 6 0.0268 0.0532 -0.0003 3.9121 -0.0013 9.9351
#
#
#
# Elastic Compliance Matrix: (Units=1/GPa)
#
#
# Indices 1 2 3 4 5 6 
#
# 1 0.022595 0.007347 0.000730 0.000025 -0.005947 -0.000111
# 2 0.007347 0.023074 0.003989 0.000052 -0.012891 -0.000165
# 3 0.000730 0.003989 0.031649 -0.000014 -0.007633 -0.000018
# 4 0.000025 0.000052 -0.000014 0.197214 0.000014 -0.077657
# 5 -0.005947 -0.012891 -0.007633 0.000014 0.055519 0.000087
# 6 -0.000111 -0.000165 -0.000018 -0.077657 0.000087 0.131234
#
#
# Mechanical properties :
#
#
# Convention : Reuss Voigt Hill
#
# Bulk Modulus (GPa) = 9.85698 11.32409 10.59054
# Shear Modulus (GPa) = 10.61643 17.87228 14.24436
#
# Velocity S-wave (km/s) = 2.37731 3.08451 2.75371
# Velocity P-wave (km/s) = 3.57530 4.32596 3.96842
#
# Compressibility (1/GPa) = 0.10145098
#
# Stress axis : x y z
#
# Youngs Moduli (GPa) = 44.25733 43.33934 31.59635
#
# Poissons Ratio (x) = -0.31842 -0.02306
# Poissons Ratio (y) = -0.32516 -0.12605
# Poissons Ratio (z) = -0.03230 -0.17290
#
# Static dielectric constant tensor:
#      x y z
#    x 1.646350 0.000000 -0.014600 
#    y 0.000000 1.664280 0.000000 
#    z -0.014600 0.000000 1.652150 
# 
# From -- ./inp_files/258417.got.cif
#   From: 2010.05.17/outbox.cif.g08.bks.cpg/sg15_130_cif.got.tgz:258417.got - 2010.06.03 18:47:42.
