data_PCOD9279025
_publ_section_title
;
Structure prediction by ZEFSAII (Michael W. Deem and Ramdas Pophale) SiO2 
 PCOD9279025
Probable space group: C 2/C
;
_chemical_formula_sum "Si O2"
_cell_formula_units_Z 56
_cell_length_a 15.655918
_cell_length_b 30.384820
_cell_length_c 8.310628
_cell_angle_alpha 90.000000
_cell_angle_beta 141.078923
_cell_angle_gamma 90.000000
_cell_volume 2483.711016
_symmetry_space_group_name_H-M "C 2/C"
_symmetry_group_IT_number 15
_symmetry_cell_setting 'monoclinic'
loop_
_space_group_symop_operation_xyz
x,y,z
-x,y,1/2-z
-x,-y,-z
x,-y,1/2+z
1/2+x,1/2+y,z
1/2-x,1/2+y,1/2-z
1/2-x,1/2-y,-z
1/2+x,1/2-y,1/2+z
loop_
_atom_site_type_symbol
_atom_site_label
_atom_site_fract_x
_atom_site_fract_y
_atom_site_fract_z
Si Si1 0.658987 0.460613 0.032682
Si Si2 0.706611 0.169149 0.622209
Si Si3 0.687233 0.856099 0.762864
Si Si4 0.652086 0.443258 0.405583
Si Si5 0.984107 0.167452 0.412283
Si Si6 0.219089 0.381510 0.476726
Si Si7 0.363366 0.269449 0.944824
O O1 0.500000 0.455173 0.750000
O O2 0.697740 0.511024 0.055011
O O3 0.752781 0.429266 0.059151
O O4 0.662551 0.449297 0.227540
O O5 0.620332 0.154767 0.338984
O O6 0.696780 0.221445 0.631854
O O7 0.685377 0.146971 0.766273
O O8 0.865077 0.159642 0.802062
O O9 0.629750 0.869568 0.502667
O O10 0.762728 0.901455 0.917757
O O11 0.761940 0.808725 0.844080
O O12 0.500000 0.436667 0.250000
O O13 0.866875 0.132103 0.271425
O O14 0.921118 0.214895 0.358726
O O15 0.000000 0.164014 0.250000
O O16 0.500000 0.271862 0.250000
#
# Coordination Sequence:
#
# PCOD9279025 Si02
#       7
#     8   8   8   8   8   8   8
#     4  11  19  32  44  72 103 138 179 212 251 306
#     4  11  21  37  53  74 105 141 174 223 258 306
#     4  11  21  34  52  73  99 142 175 210 262 306
#     4  11  21  29  48  69 102 140 178 212 253 306
#     4   9  20  33  51  73 100 141 177 212 257 308
#     4  10  21  34  53  74 106 138 180 213 252 313
#     4  11  22  35  53  76 103 137 181 217 263 315
#
# _framework density 22.546907000000001
#
# number of rings (size 3 to 8) (size 9 to 14) (size 15 to 20)
#    0.000    1.429    2.857    5.571    2.000    5.143 
#    0.000    0.000    0.000    0.000    0.000    0.000 
#    0.000    1.143    0.000    0.000    0.000    0.000 
#
# Total GULP energy -155999.898019 kJ/mol
# GULP energy per Si atom -5571.424929 kJ/mol
# Density = 2.249559 g / cm^3
# Si number density = 22.546907 Si / 1000 Ang^3
#
#
#
# Elastic Constant Matrix: (Units=GPa)
#
#
# Indices 1 2 3 4 5 6 
#
# 1 67.9060 39.7893 56.0875 0.0000 -28.2570 0.0000
# 2 39.7893 177.6216 43.2752 0.0000 -14.3421 0.0000
# 3 56.0875 43.2752 70.0374 0.0000 -22.2030 0.0000
# 4 0.0000 0.0000 0.0000 12.4150 0.0000 -24.0306
# 5 -28.2570 -14.3421 -22.2030 0.0000 36.1450 0.0000
# 6 0.0000 0.0000 0.0000 -24.0306 0.0000 23.2154
#
#
#
# Elastic Compliance Matrix: (Units=1/GPa)
#
#
# Indices 1 2 3 4 5 6 
#
# 1 0.052468 -0.001707 -0.034987 0.000000 0.018848 0.000000
# 2 -0.001707 0.006684 -0.002912 0.000000 -0.000471 0.000000
# 3 -0.034987 -0.002912 0.043537 0.000000 -0.001764 0.000000
# 4 0.000000 0.000000 0.000000 -0.080260 0.000000 -0.083079
# 5 0.018848 -0.000471 -0.001764 0.000000 0.041131 0.000000
# 6 0.000000 0.000000 0.000000 -0.083079 0.000000 -0.042921
#
#
# Mechanical properties :
#
#
# Convention : Reuss Voigt Hill
#
# Bulk Modulus (GPa) = 42.59798 65.98547 54.29172
# Shear Modulus (GPa) = 46.43569 26.11594 36.27581
#
# Velocity S-wave (km/s) = 4.54311 3.40706 4.01547
# Velocity P-wave (km/s) = 6.81571 6.69379 6.75502
#
# Compressibility (1/GPa) = 0.02347529
#
# Stress axis : x y z
#
# Youngs Moduli (GPa) = 19.05937 149.61504 22.96912
#
# Poissons Ratio (x) = 0.25544 0.80362
# Poissons Ratio (y) = 0.03254 0.06689
# Poissons Ratio (z) = 0.66683 0.43569
#
# Static dielectric constant tensor:
#      x y z
#    x 2.023770 0.000000 0.041620 
#    y 0.000000 1.801650 0.000000 
#    z 0.041620 0.000000 1.892130 
# 
# From -- ./inp_files/52061.got.cif
#   From: 2010.05.17/outbox.cif.g08.bks.cpg/sg15_27_cif.got.tgz:52061.got - 2010.06.03 18:47:42.
