data_PCOD9279822
_publ_section_title
;
Structure prediction by ZEFSAII (Michael W. Deem and Ramdas Pophale) SiO2 
 PCOD9279822
Probable space group: C 2/C
;
_chemical_formula_sum "Si O2"
_cell_formula_units_Z 36
_cell_length_a 9.959488
_cell_length_b 14.005584
_cell_length_c 17.163704
_cell_angle_alpha 90.000000
_cell_angle_beta 43.880571
_cell_angle_gamma 90.000000
_cell_volume 1659.514864
_symmetry_space_group_name_H-M "C 2/C"
_symmetry_group_IT_number 15
_symmetry_cell_setting 'monoclinic'
loop_
_space_group_symop_operation_xyz
x,y,z
-x,y,1/2-z
-x,-y,-z
x,-y,1/2+z
1/2+x,1/2+y,z
1/2-x,1/2+y,1/2-z
1/2-x,1/2-y,-z
1/2+x,1/2-y,1/2+z
loop_
_atom_site_type_symbol
_atom_site_label
_atom_site_fract_x
_atom_site_fract_y
_atom_site_fract_z
Si Si1 0.093608 0.995567 0.329464
Si Si2 0.000000 0.168135 0.750000
Si Si3 0.360284 0.738799 0.035285
Si Si4 0.235614 0.027623 0.430914
Si Si5 0.927343 0.577534 0.094190
O O1 0.030060 0.900268 0.311072
O O2 0.889506 0.029041 0.452063
O O3 0.232632 0.981015 0.346937
O O4 0.212798 0.057484 0.216726
O O5 0.195682 0.228512 0.664626
O O6 0.383482 0.626546 0.034728
O O7 0.250000 0.750000 0.000000
O O8 0.530575 0.816953 0.958099
O O9 0.432993 0.059111 0.389334
O O10 0.000000 0.500000 0.000000
#
# Coordination Sequence:
#
# PCOD9279822 Si02
#       5
#     8   4   8   8   8
#     4  11  21  36  58  88 120 153 188 244 295 349
#     4  12  20  38  62  88 118 156 194 248 292 350
#     4  10  21  36  59  91 113 143 205 250 285 329
#     4  10  23  38  58  91 116 149 199 245 287 344
#     4  11  20  36  60  89 114 151 192 242 298 345
#
# _framework density 21.693086000000001
#
# number of rings (size 3 to 8) (size 9 to 14) (size 15 to 20)
#    0.000    1.333    6.667    0.667    6.222    0.000 
#    0.000    0.000    0.000   14.667   11.556    0.000 
#    0.000    0.000    0.000    0.000    0.000    0.000 
#
# Total GULP energy -100238.141339 kJ/mol
# GULP energy per Si atom -5568.785630 kJ/mol
# Density = 2.164371 g / cm^3
# Si number density = 21.693086 Si / 1000 Ang^3
#
#
#
# Elastic Constant Matrix: (Units=GPa)
#
#
# Indices 1 2 3 4 5 6 
#
# 1 49.1948 18.3612 -0.1087 0.0000 10.0349 0.0000
# 2 18.3612 69.3845 27.7575 -0.0001 -3.0205 0.0000
# 3 -0.1087 27.7575 132.1792 -0.0001 -10.8451 0.0001
# 4 0.0000 -0.0001 -0.0001 18.0728 0.0000 -7.4932
# 5 10.0349 -3.0205 -10.8451 0.0000 41.9441 0.0000
# 6 0.0000 0.0000 0.0001 -7.4932 0.0000 29.7310
#
#
#
# Elastic Compliance Matrix: (Units=1/GPa)
#
#
# Indices 1 2 3 4 5 6 
#
# 1 0.024200 -0.007071 0.001009 0.000000 -0.006038 0.000000
# 2 -0.007071 0.017804 -0.003576 0.000000 0.002049 0.000000
# 3 0.001009 -0.003576 0.008456 0.000000 0.001687 0.000000
# 4 0.000000 0.000000 0.000000 0.061788 0.000000 0.015573
# 5 -0.006038 0.002049 0.001687 0.000000 0.025870 0.000000
# 6 0.000000 0.000000 0.000000 0.015573 0.000000 0.037560
#
#
# Mechanical properties :
#
#
# Convention : Reuss Voigt Hill
#
# Bulk Modulus (GPa) = 32.06778 38.08650 35.07714
# Shear Modulus (GPa) = 24.34894 31.59950 27.97422
#
# Velocity S-wave (km/s) = 3.35390 3.82076 3.59492
# Velocity P-wave (km/s) = 5.46011 6.08764 5.78240
#
# Compressibility (1/GPa) = 0.03118394
#
# Stress axis : x y z
#
# Youngs Moduli (GPa) = 41.32186 56.16866 118.26196
#
# Poissons Ratio (x) = 0.39715 -0.11937
# Poissons Ratio (y) = 0.29218 0.42295
# Poissons Ratio (z) = -0.04171 0.20088
#
# Static dielectric constant tensor:
#      x y z
#    x 1.817460 0.000000 0.007170 
#    y 0.000000 1.829030 0.000000 
#    z 0.007170 0.000000 2.107440 
# 
# From -- ./inp_files/85016.got.cif
#   From: 2010.05.17/outbox.cif.g08.bks.cpg/sg15_43_cif.got.tgz:85016.got - 2010.06.03 18:47:42.
