data_PCOD9279111
_publ_section_title
;
Structure prediction by ZEFSAII (Michael W. Deem and Ramdas Pophale) SiO2 
 PCOD9279111
Probable space group: C 2/C
;
_chemical_formula_sum "Si O2"
_cell_formula_units_Z 48
_cell_length_a 11.739393
_cell_length_b 20.440694
_cell_length_c 10.849244
_cell_angle_alpha 90.000000
_cell_angle_beta 104.054152
_cell_angle_gamma 90.000000
_cell_volume 2525.470659
_symmetry_space_group_name_H-M "C 2/C"
_symmetry_group_IT_number 15
_symmetry_cell_setting 'monoclinic'
loop_
_space_group_symop_operation_xyz
x,y,z
-x,y,1/2-z
-x,-y,-z
x,-y,1/2+z
1/2+x,1/2+y,z
1/2-x,1/2+y,1/2-z
1/2-x,1/2-y,-z
1/2+x,1/2-y,1/2+z
loop_
_atom_site_type_symbol
_atom_site_label
_atom_site_fract_x
_atom_site_fract_y
_atom_site_fract_z
Si Si1 0.194328 0.155611 0.875691
Si Si2 0.659417 0.192986 0.093452
Si Si3 0.520998 0.423859 0.487327
Si Si4 0.393564 0.683452 0.314852
Si Si5 0.903740 0.717692 0.050085
Si Si6 0.784750 0.843998 0.396276
O O1 0.125244 0.225408 0.859100
O O2 0.248668 0.146929 0.755022
O O3 0.103057 0.099931 0.894463
O O4 0.297413 0.167148 0.002471
O O5 0.769191 0.181554 0.212789
O O6 0.526972 0.182681 0.102992
O O7 0.664203 0.270994 0.071230
O O8 0.685295 0.153493 0.974188
O O9 0.500000 0.500000 0.500000
O O10 0.581848 0.386695 0.617344
O O11 0.392869 0.391913 0.444774
O O12 0.500000 0.697558 0.250000
O O13 0.401266 0.739035 0.422651
#
# Coordination Sequence:
#
# PCOD9279111 Si02
#       6
#     8   8   8   8   8   8
#     4  10  21  37  55  88 120 159 197 242 301 357
#     4  11  20  34  59  90 125 149 190 253 310 366
#     4  11  24  40  57  84 119 160 206 246 288 352
#     4  11  19  35  57  88 119 153 196 242 303 353
#     4  10  21  34  57  90 126 150 186 251 309 359
#     4  11  20  35  59  87 117 158 198 243 307 355
#
# _framework density 19.006359
#
# number of rings (size 3 to 8) (size 9 to 14) (size 15 to 20)
#    0.000    1.333    6.667    1.500    0.000    1.333 
#    0.000    0.000    0.000    1.000    4.333    0.000 
#    0.000    0.000    0.000    0.000    0.000    0.000 
#
# Total GULP energy -133937.535547 kJ/mol
# GULP energy per Si atom -5580.730648 kJ/mol
# Density = 1.896310 g / cm^3
# Si number density = 19.006359 Si / 1000 Ang^3
#
#
#
# Elastic Constant Matrix: (Units=GPa)
#
#
# Indices 1 2 3 4 5 6 
#
# 1 99.1033 17.0943 36.1585 0.0000 16.3653 0.0000
# 2 17.0943 93.2337 22.1951 0.0000 7.5607 0.0000
# 3 36.1585 22.1951 78.1707 0.0000 -3.2080 0.0000
# 4 0.0000 0.0000 0.0000 12.7973 0.0000 4.4603
# 5 16.3653 7.5607 -3.2080 0.0000 40.8219 0.0000
# 6 0.0000 0.0000 0.0000 4.4603 0.0000 20.2555
#
#
#
# Elastic Compliance Matrix: (Units=1/GPa)
#
#
# Indices 1 2 3 4 5 6 
#
# 1 0.013435 -0.000491 -0.006313 0.000000 -0.005791 0.000000
# 2 -0.000491 0.011759 -0.003203 0.000000 -0.002233 0.000000
# 3 -0.006313 -0.003203 0.016804 0.000000 0.004445 0.000000
# 4 0.000000 0.000000 0.000000 0.084637 0.000000 -0.018637
# 5 -0.005791 -0.002233 0.004445 0.000000 0.027581 0.000000
# 6 0.000000 0.000000 0.000000 -0.018637 0.000000 0.053473
#
#
# Mechanical properties :
#
#
# Convention : Reuss Voigt Hill
#
# Bulk Modulus (GPa) = 45.48620 46.82262 46.15441
# Shear Modulus (GPa) = 21.27370 27.77892 24.52631
#
# Velocity S-wave (km/s) = 3.34921 3.82718 3.59615
# Velocity P-wave (km/s) = 6.24022 6.64970 6.44821
#
# Compressibility (1/GPa) = 0.02198469
#
# Stress axis : x y z
#
# Youngs Moduli (GPa) = 74.43448 85.03822 59.50817
#
# Poissons Ratio (x) = 0.04174 0.37565
# Poissons Ratio (y) = 0.03653 0.19063
# Poissons Ratio (z) = 0.46987 0.27242
#
# Static dielectric constant tensor:
#      x y z
#    x 1.724280 0.000000 -0.036560 
#    y 0.000000 1.611970 0.000000 
#    z -0.036560 0.000000 1.762920 
# 
# From -- ./inp_files/88575.got.cif
#   From: 2010.05.17/outbox.cif.g08.bks.cpg/sg15_45_cif.got.tgz:88575.got - 2010.06.03 18:47:42.
