data_PCOD9279639
_publ_section_title
;
Structure prediction by ZEFSAII (Michael W. Deem and Ramdas Pophale) SiO2 
 PCOD9279639
Probable space group: C 2/C
;
_chemical_formula_sum "Si O2"
_cell_formula_units_Z 40
_cell_length_a 17.565478
_cell_length_b 19.615184
_cell_length_c 4.880530
_cell_angle_alpha 90.000000
_cell_angle_beta 83.960893
_cell_angle_gamma 90.000000
_cell_volume 1672.254744
_symmetry_space_group_name_H-M "C 2/C"
_symmetry_group_IT_number 15
_symmetry_cell_setting 'monoclinic'
loop_
_space_group_symop_operation_xyz
x,y,z
-x,y,1/2-z
-x,-y,-z
x,-y,1/2+z
1/2+x,1/2+y,z
1/2-x,1/2+y,1/2-z
1/2-x,1/2-y,-z
1/2+x,1/2-y,1/2+z
loop_
_atom_site_type_symbol
_atom_site_label
_atom_site_fract_x
_atom_site_fract_y
_atom_site_fract_z
Si Si1 0.700121 0.349535 0.267423
Si Si2 0.800822 0.546671 0.007194
Si Si3 0.372400 0.842945 0.140922
Si Si4 0.920802 0.048092 0.896048
Si Si5 0.576177 0.768238 0.870435
O O1 0.730734 0.400312 0.495414
O O2 0.782782 0.323866 0.134854
O O3 0.648578 0.400887 0.112960
O O4 0.644749 0.286349 0.335655
O O5 0.798168 0.478877 0.818531
O O6 0.868177 0.587979 0.822030
O O7 0.418897 0.791741 0.317849
O O8 0.405979 0.834650 0.826934
O O9 0.000000 0.080273 0.750000
O O10 0.917732 0.981440 0.701503
O O11 0.500000 0.740592 0.750000
#
# Coordination Sequence:
#
# PCOD9279639 Si02
#       5
#     8   8   8   8   8
#     4  10  23  37  67  91 130 157 216 246 318 361
#     4  10  21  37  64  94 122 154 202 257 310 360
#     4  10  25  40  67  90 131 159 218 259 309 366
#     4  10  21  36  55  88 131 168 201 244 303 374
#     4  12  24  44  63  93 128 170 207 260 318 373
#
# _framework density 23.919798
#
# number of rings (size 3 to 8) (size 9 to 14) (size 15 to 20)
#    1.200    0.400    0.000    4.800    0.000    4.800 
#    0.000    4.000    0.000   12.000    0.000    0.000 
#    0.000    0.000    0.000    0.000    0.000    0.000 
#
# Total GULP energy -111373.753675 kJ/mol
# GULP energy per Si atom -5568.687684 kJ/mol
# Density = 2.386536 g / cm^3
# Si number density = 23.919798 Si / 1000 Ang^3
#
#
#
# Elastic Constant Matrix: (Units=GPa)
#
#
# Indices 1 2 3 4 5 6 
#
# 1 89.4671 26.4229 -8.9441 0.0000 2.7961 0.0000
# 2 26.4229 61.1915 6.7944 0.0000 3.2603 0.0000
# 3 -8.9441 6.7944 87.7403 0.0000 -3.3345 0.0000
# 4 0.0000 0.0000 0.0000 -117.2148 0.0000 7.1654
# 5 2.7961 3.2603 -3.3345 0.0000 24.8586 0.0000
# 6 0.0000 0.0000 0.0000 7.1654 0.0000 16.3752
#
#
#
# Elastic Compliance Matrix: (Units=1/GPa)
#
#
# Indices 1 2 3 4 5 6 
#
# 1 0.013088 -0.005823 0.001767 0.000000 -0.000471 0.000000
# 2 -0.005823 0.019211 -0.002163 0.000000 -0.002155 0.000000
# 3 0.001767 -0.002163 0.011808 0.000000 0.001669 0.000000
# 4 0.000000 0.000000 0.000000 -0.008309 0.000000 0.003636
# 5 -0.000471 -0.002155 0.001669 0.000000 0.040787 0.000000
# 6 0.000000 0.000000 0.000000 0.003636 0.000000 0.059477
#
#
# Mechanical properties :
#
#
# Convention : Reuss Voigt Hill
#
# Bulk Modulus (GPa) = 31.57488 31.88281 31.72885
# Shear Modulus (GPa) = 31.43519 -0.92116 15.25701
#
# Velocity S-wave (km/s) = 3.62911 -0.62124 2.52829
# Velocity P-wave (km/s) = 5.54883 3.58377 4.67081
#
# Compressibility (1/GPa) = 0.03167075
#
# Stress axis : x y z
#
# Youngs Moduli (GPa) = 76.40376 52.05228 84.68584
#
# Poissons Ratio (x) = 0.30309 -0.14966
# Poissons Ratio (y) = 0.44488 0.18319
# Poissons Ratio (z) = -0.13502 0.11260
#
# Static dielectric constant tensor:
#      x y z
#    x 2.001200 0.000000 0.002820 
#    y 0.000000 1.937680 0.000000 
#    z 0.002820 0.000000 1.878800 
# 
# From -- ./inp_files/10210.got.cif
#   From: 2010.05.17/outbox.cif.g08.bks.cpg/sg15_6_cif.got.tgz:10210.got - 2010.06.03 18:47:42.
