data_PCOD9279464
_publ_section_title
;
Structure prediction by ZEFSAII (Michael W. Deem and Ramdas Pophale) SiO2 
 PCOD9279464
Probable space group: C 2/C
;
_chemical_formula_sum "Si O2"
_cell_formula_units_Z 64
_cell_length_a 11.663275
_cell_length_b 21.784113
_cell_length_c 13.730013
_cell_angle_alpha 90.000000
_cell_angle_beta 66.344193
_cell_angle_gamma 90.000000
_cell_volume 3195.315224
_symmetry_space_group_name_H-M "C 2/C"
_symmetry_group_IT_number 15
_symmetry_cell_setting 'monoclinic'
loop_
_space_group_symop_operation_xyz
x,y,z
-x,y,1/2-z
-x,-y,-z
x,-y,1/2+z
1/2+x,1/2+y,z
1/2-x,1/2+y,1/2-z
1/2-x,1/2-y,-z
1/2+x,1/2-y,1/2+z
loop_
_atom_site_type_symbol
_atom_site_label
_atom_site_fract_x
_atom_site_fract_y
_atom_site_fract_z
Si Si1 0.356755 0.725018 0.393420
Si Si2 0.735872 0.028359 0.849995
Si Si3 0.264046 0.811505 0.931890
Si Si4 0.902203 0.925041 0.459040
Si Si5 0.364733 0.241114 0.676139
Si Si6 0.219852 0.396185 0.944166
Si Si7 0.813198 0.956386 0.106409
Si Si8 0.065386 0.368940 0.482546
O O1 0.250000 0.750000 0.500000
O O2 0.496406 0.730770 0.387304
O O3 0.350178 0.763620 0.296158
O O4 0.323187 0.654490 0.383363
O O5 0.855989 0.055308 0.867199
O O6 0.743395 0.039862 0.732797
O O7 0.620248 0.064121 0.939385
O O8 0.730214 0.956418 0.874387
O O9 0.240007 0.786602 0.831961
O O10 0.250000 0.750000 0.000000
O O11 0.155460 0.859493 0.995838
O O12 0.388745 0.845393 0.927242
O O13 0.050251 0.927414 0.421137
O O14 0.841550 0.976182 0.551666
O O15 0.368987 0.176857 0.617682
O O16 0.242147 0.418453 0.047390
O O17 0.082364 0.368030 0.979110
#
# Coordination Sequence:
#
# PCOD9279464 Si02
#       8
#     8   8   8   8   8   8   8   8
#     4  11  23  39  63  93 128 158 206 263 310 380
#     4  10  22  37  61  88 116 165 206 251 314 374
#     4   9  19  38  63  83 115 163 204 250 303 368
#     4   9  19  38  56  86 121 153 201 257 306 366
#     4  10  22  40  65  91 118 171 202 251 325 363
#     4  11  23  40  60  92 125 161 207 263 312 374
#     4  10  21  35  61  86 119 160 200 256 315 369
#     4  10  21  41  63  83 128 158 207 256 306 378
#
# _framework density 20.029323000000002
#
# number of rings (size 3 to 8) (size 9 to 14) (size 15 to 20)
#    0.000    2.000    1.250    1.500    3.500    0.500 
#    4.500    0.625    0.000    0.000    0.000    0.000 
#    0.000    0.000    0.000    0.000    0.000    0.000 
#
# Total GULP energy -178642.378805 kJ/mol
# GULP energy per Si atom -5582.574338 kJ/mol
# Density = 1.998374 g / cm^3
# Si number density = 20.029323 Si / 1000 Ang^3
#
#
#
# Elastic Constant Matrix: (Units=GPa)
#
#
# Indices 1 2 3 4 5 6 
#
# 1 82.6775 1.0757 15.7938 0.0000 8.9389 0.0000
# 2 1.0757 75.3357 -20.7366 0.0000 -4.3927 0.0000
# 3 15.7938 -20.7366 38.5220 0.0000 12.7156 0.0000
# 4 0.0000 0.0000 0.0000 13.7700 0.0000 3.4067
# 5 8.9389 -4.3927 12.7156 0.0000 25.5339 0.0000
# 6 0.0000 0.0000 0.0000 3.4067 0.0000 31.0740
#
#
#
# Elastic Compliance Matrix: (Units=1/GPa)
#
#
# Indices 1 2 3 4 5 6 
#
# 1 0.013470 -0.001929 -0.005858 0.000000 -0.002130 0.000000
# 2 -0.001929 0.015928 0.009858 0.000000 -0.001494 0.000000
# 3 -0.005858 0.009858 0.038810 0.000000 -0.015581 0.000000
# 4 0.000000 0.000000 0.000000 0.074646 0.000000 -0.008184
# 5 -0.002130 -0.001494 -0.015581 0.000000 0.047411 0.000000
# 6 0.000000 0.000000 0.000000 -0.008184 0.000000 0.033078
#
#
# Mechanical properties :
#
#
# Convention : Reuss Voigt Hill
#
# Bulk Modulus (GPa) = 13.82158 20.97790 17.39974
# Shear Modulus (GPa) = 20.54926 27.43572 23.99249
#
# Velocity S-wave (km/s) = 3.20653 3.70507 3.46478
# Velocity P-wave (km/s) = 4.54145 5.36653 4.97114
#
# Compressibility (1/GPa) = 0.07235063
#
# Stress axis : x y z
#
# Youngs Moduli (GPa) = 74.24136 62.78322 25.76630
#
# Poissons Ratio (x) = 0.12110 0.15093
# Poissons Ratio (y) = 0.14320 -0.25400
# Poissons Ratio (z) = 0.43488 -0.61891
#
# Static dielectric constant tensor:
#      x y z
#    x 1.719950 0.000000 0.063040 
#    y 0.000000 1.710380 0.000000 
#    z 0.063040 0.000000 1.788620 
# 
# From -- ./inp_files/147134.got.cif
#   From: 2010.05.17/outbox.cif.g08.bks.cpg/sg15_74_cif.got.tgz:147134.got - 2010.06.03 18:47:42.
