data_PCOD9279274
_publ_section_title
;
Structure prediction by ZEFSAII (Michael W. Deem and Ramdas Pophale) SiO2 
 PCOD9279274
Probable space group: C 2/C
;
_chemical_formula_sum "Si O2"
_cell_formula_units_Z 64
_cell_length_a 12.252693
_cell_length_b 29.262985
_cell_length_c 15.751066
_cell_angle_alpha 90.000000
_cell_angle_beta 144.511890
_cell_angle_gamma 90.000000
_cell_volume 3278.595110
_symmetry_space_group_name_H-M "C 2/C"
_symmetry_group_IT_number 15
_symmetry_cell_setting 'monoclinic'
loop_
_space_group_symop_operation_xyz
x,y,z
-x,y,1/2-z
-x,-y,-z
x,-y,1/2+z
1/2+x,1/2+y,z
1/2-x,1/2+y,1/2-z
1/2-x,1/2-y,-z
1/2+x,1/2-y,1/2+z
loop_
_atom_site_type_symbol
_atom_site_label
_atom_site_fract_x
_atom_site_fract_y
_atom_site_fract_z
Si Si1 0.960451 0.570815 0.523097
Si Si2 0.350668 0.201978 0.078504
Si Si3 0.080087 0.331339 0.062147
Si Si4 0.003069 0.862579 0.152066
Si Si5 0.849639 0.298526 0.078911
Si Si6 0.646616 0.448319 0.152836
Si Si7 0.597602 0.468358 0.725877
Si Si8 0.194217 0.898041 0.005813
O O1 0.815215 0.540275 0.380520
O O2 0.853366 0.584123 0.542311
O O3 0.005347 0.617431 0.503238
O O4 0.161272 0.550890 0.671906
O O5 0.500000 0.202725 0.250000
O O6 0.250000 0.250000 0.000000
O O7 0.436537 0.191344 0.040196
O O8 0.181424 0.166121 0.987530
O O9 0.298657 0.335153 0.231403
O O10 0.958732 0.309931 0.060701
O O11 0.012740 0.909208 0.106205
O O12 0.000000 0.873351 0.250000
O O13 0.000000 0.294662 0.250000
O O14 0.750000 0.250000 0.000000
O O15 0.719614 0.343024 0.021224
O O16 0.564132 0.498069 0.125313
O O17 0.710205 0.425611 0.104174
O O18 0.500000 0.487454 0.750000
O O19 0.502854 0.418508 0.652362
#
# Coordination Sequence:
#
# PCOD9279274 Si02
#       8
#     8   8   8   8   8   8   8   8
#     4   9  19  36  58  82 115 155 197 242 292 351
#     4  11  23  39  60  86 116 153 197 243 301 369
#     4   9  20  39  60  85 120 160 195 242 306 360
#     4   9  19  36  56  80 113 151 192 242 295 357
#     4  11  24  41  63  92 119 154 205 256 309 370
#     4  11  19  34  60  85 115 155 197 243 297 350
#     4  10  21  35  55  86 119 157 201 244 292 354
#     4  10  21  38  56  82 120 157 196 246 302 359
#
# _framework density 19.520555999999999
#
# number of rings (size 3 to 8) (size 9 to 14) (size 15 to 20)
#    0.000    2.000    0.000    4.875    0.000    6.500 
#    0.000    0.000    0.000    0.750    0.000    0.000 
#    0.000    0.000    0.000    0.000    0.000    0.000 
#
# Total GULP energy -178319.141090 kJ/mol
# GULP energy per Si atom -5572.473159 kJ/mol
# Density = 1.947613 g / cm^3
# Si number density = 19.520556 Si / 1000 Ang^3
#
#
#
# Elastic Constant Matrix: (Units=GPa)
#
#
# Indices 1 2 3 4 5 6 
#
# 1 88.1549 56.2852 38.7875 0.0000 -15.8229 0.0000
# 2 56.2852 127.3205 50.9208 0.0000 -16.3933 0.0000
# 3 38.7875 50.9208 91.4856 0.0000 -18.9662 0.0000
# 4 0.0000 0.0000 0.0000 9.7141 0.0000 -9.7593
# 5 -15.8229 -16.3933 -18.9662 0.0000 24.0058 0.0000
# 6 0.0000 0.0000 0.0000 -9.7593 0.0000 13.7730
#
#
#
# Elastic Compliance Matrix: (Units=1/GPa)
#
#
# Indices 1 2 3 4 5 6 
#
# 1 0.017277 -0.005760 -0.003078 0.000000 0.005023 0.000000
# 2 -0.005760 0.012200 -0.004076 0.000000 0.001314 0.000000
# 3 -0.003078 -0.004076 0.016152 0.000000 0.007949 0.000000
# 4 0.000000 0.000000 0.000000 0.357303 0.000000 0.253180
# 5 0.005023 0.001314 0.007949 0.000000 0.052145 0.000000
# 6 0.000000 0.000000 0.000000 0.253180 0.000000 0.252006
#
#
# Mechanical properties :
#
#
# Convention : Reuss Voigt Hill
#
# Bulk Modulus (GPa) = 50.50030 66.54979 58.52504
# Shear Modulus (GPa) = 6.76122 20.22973 13.49547
#
# Velocity S-wave (km/s) = 1.86310 3.22270 2.63220
# Velocity P-wave (km/s) = 5.52763 6.92921 6.26772
#
# Compressibility (1/GPa) = 0.01980186
#
# Stress axis : x y z
#
# Youngs Moduli (GPa) = 57.88000 81.96749 61.91125
#
# Poissons Ratio (x) = 0.47215 0.19054
# Poissons Ratio (y) = 0.33340 0.25234
# Poissons Ratio (z) = 0.17813 0.33409
#
# Static dielectric constant tensor:
#      x y z
#    x 1.743100 0.000000 -0.014600 
#    y 0.000000 1.766340 0.000000 
#    z -0.014600 0.000000 1.713160 
# 
# From -- ./inp_files/149210.got.cif
#   From: 2010.05.17/outbox.cif.g08.bks.cpg/sg15_75_cif.got.tgz:149210.got - 2010.06.03 18:47:42.
