data_PCOD9279948
_publ_section_title
;
Structure prediction by ZEFSAII (Michael W. Deem and Ramdas Pophale) SiO2 
 PCOD9279948
Probable space group: C 2/C
;
_chemical_formula_sum "Si O2"
_cell_formula_units_Z 56
_cell_length_a 21.541622
_cell_length_b 22.702382
_cell_length_c 5.771605
_cell_angle_alpha 90.000000
_cell_angle_beta 111.735970
_cell_angle_gamma 90.000000
_cell_volume 2621.896325
_symmetry_space_group_name_H-M "C 2/C"
_symmetry_group_IT_number 15
_symmetry_cell_setting 'monoclinic'
loop_
_space_group_symop_operation_xyz
x,y,z
-x,y,1/2-z
-x,-y,-z
x,-y,1/2+z
1/2+x,1/2+y,z
1/2-x,1/2+y,1/2-z
1/2-x,1/2-y,-z
1/2+x,1/2-y,1/2+z
loop_
_atom_site_type_symbol
_atom_site_label
_atom_site_fract_x
_atom_site_fract_y
_atom_site_fract_z
Si Si1 0.258516 0.668077 0.244839
Si Si2 0.500000 0.667740 0.750000
Si Si3 0.392862 0.622254 0.279508
Si Si4 0.500000 0.466210 0.750000
Si Si5 0.820639 0.284313 0.475896
Si Si6 0.585078 0.267158 0.016956
Si Si7 0.614621 0.153258 0.810186
Si Si8 0.422159 0.979274 0.159842
O O1 0.316224 0.621673 0.259377
O O2 0.231973 0.672492 0.473279
O O3 0.287991 0.735062 0.264580
O O4 0.191861 0.655314 0.006630
O O5 0.438744 0.629649 0.571534
O O6 0.476985 0.708562 0.927000
O O7 0.432565 0.573938 0.181402
O O8 0.396160 0.682208 0.136121
O O9 0.500000 0.500000 0.500000
O O10 0.855728 0.244468 0.719172
O O11 0.877338 0.324043 0.439555
O O12 0.575989 0.204340 0.889089
O O13 0.583934 0.090241 0.807461
O O14 0.500000 0.998126 0.250000
O O15 0.393537 0.006573 0.361969
#
# Coordination Sequence:
#
# PCOD9279948 Si02
#       8
#     8   4   8   4   8   8   8   8
#     4  10  22  37  62 102 136 183 210 279 359 424
#     4  12  21  38  60  98 136 183 222 276 354 422
#     4  12  24  43  67  94 135 176 235 288 358 419
#     4  12  29  52  74  94 130 189 252 300 348 408
#     4  10  21  36  61  99 148 172 216 268 361 435
#     4  11  22  36  63 102 136 175 217 287 351 424
#     4  11  23  40  67 103 139 177 231 284 340 428
#     4  10  25  49  73  96 136 191 236 285 343 404
#
# _framework density 21.358588999999998
#
# number of rings (size 3 to 8) (size 9 to 14) (size 15 to 20)
#    0.000    1.143    4.286    0.857    8.000    2.286 
#    1.286    1.429    0.000    0.000    0.000    0.000 
#    0.000    0.000    0.000    0.000    0.000    0.000 
#
# Total GULP energy -156139.975508 kJ/mol
# GULP energy per Si atom -5576.427697 kJ/mol
# Density = 2.130998 g / cm^3
# Si number density = 21.358589 Si / 1000 Ang^3
#
#
#
# Elastic Constant Matrix: (Units=GPa)
#
#
# Indices 1 2 3 4 5 6 
#
# 1 79.9467 -9.4528 22.3056 0.0000 1.3901 0.0000
# 2 -9.4528 57.6683 23.8072 0.0000 -11.4604 0.0000
# 3 22.3056 23.8072 98.1007 0.0000 -8.3060 0.0000
# 4 0.0000 0.0000 0.0000 20.3776 0.0000 -16.0443
# 5 1.3901 -11.4604 -8.3060 0.0000 37.3637 0.0000
# 6 0.0000 0.0000 0.0000 -16.0443 0.0000 29.1539
#
#
#
# Elastic Compliance Matrix: (Units=1/GPa)
#
#
# Indices 1 2 3 4 5 6 
#
# 1 0.014163 0.004015 -0.004214 0.000000 -0.000232 0.000000
# 2 0.004015 0.021358 -0.005661 0.000000 0.005143 0.000000
# 3 -0.004214 -0.005661 0.012630 0.000000 0.001228 0.000000
# 4 0.000000 0.000000 0.000000 0.086596 0.000000 0.047657
# 5 -0.000232 0.005143 0.001228 0.000000 0.028623 0.000000
# 6 0.000000 0.000000 0.000000 0.047657 0.000000 0.060528
#
#
# Mechanical properties :
#
#
# Convention : Reuss Voigt Hill
#
# Bulk Modulus (GPa) = 27.44939 34.33728 30.89334
# Shear Modulus (GPa) = 20.18078 30.64941 25.41509
#
# Velocity S-wave (km/s) = 3.07719 3.79224 3.45327
# Velocity P-wave (km/s) = 5.05025 5.94022 5.51322
#
# Compressibility (1/GPa) = 0.03643068
#
# Stress axis : x y z
#
# Youngs Moduli (GPa) = 70.60672 46.82157 79.17937
#
# Poissons Ratio (x) = -0.18800 0.33369
# Poissons Ratio (y) = -0.28350 0.44820
# Poissons Ratio (z) = 0.29756 0.26504
#
# Static dielectric constant tensor:
#      x y z
#    x 1.832060 0.000000 -0.020150 
#    y 0.000000 1.756500 0.000000 
#    z -0.020150 0.000000 1.877550 
# 
# From -- ./inp_files/15864.got.cif
#   From: 2010.05.17/outbox.cif.g08.bks.cpg/sg15_8_cif.got.tgz:15864.got - 2010.06.03 18:47:42.
