data_PCOD9279136
_publ_section_title
;
Structure prediction by ZEFSAII (Michael W. Deem and Ramdas Pophale) SiO2 
 PCOD9279136
Probable space group: C 2/C
;
_chemical_formula_sum "Si O2"
_cell_formula_units_Z 44
_cell_length_a 12.604623
_cell_length_b 22.799717
_cell_length_c 10.021269
_cell_angle_alpha 90.000000
_cell_angle_beta 130.939205
_cell_angle_gamma 90.000000
_cell_volume 2175.514860
_symmetry_space_group_name_H-M "C 2/C"
_symmetry_group_IT_number 15
_symmetry_cell_setting 'monoclinic'
loop_
_space_group_symop_operation_xyz
x,y,z
-x,y,1/2-z
-x,-y,-z
x,-y,1/2+z
1/2+x,1/2+y,z
1/2-x,1/2+y,1/2-z
1/2-x,1/2-y,-z
1/2+x,1/2-y,1/2+z
loop_
_atom_site_type_symbol
_atom_site_label
_atom_site_fract_x
_atom_site_fract_y
_atom_site_fract_z
Si Si1 0.746204 0.670771 0.439467
Si Si2 0.616850 0.058501 0.458118
Si Si3 0.890554 0.049245 0.540577
Si Si4 0.000000 0.751096 0.750000
Si Si5 0.579894 0.417445 0.957870
Si Si6 0.058195 0.423047 0.446197
O O1 0.613078 0.705819 0.271063
O O2 0.685743 0.637211 0.522819
O O3 0.811175 0.617808 0.410059
O O4 0.883684 0.711592 0.578036
O O5 0.500000 0.065771 0.250000
O O6 0.758271 0.077498 0.503810
O O7 0.565689 0.087692 0.551556
O O8 0.615681 0.989291 0.494309
O O9 0.000000 0.041946 0.750000
O O10 0.967963 0.083108 0.485368
O O11 0.849679 0.982151 0.463313
O O12 0.500000 0.418758 0.750000
O O13 0.000000 0.411805 0.250000
#
# Coordination Sequence:
#
# PCOD9279136 Si02
#       6
#     8   8   8   4   8   8
#     4  11  20  38  54  86 108 148 180 255 274 324
#     4  10  22  34  51  86 122 156 180 210 270 360
#     4  10  22  34  51  86 122 156 180 210 270 360
#     4  10  24  34  56  82 112 132 204 242 298 296
#     4  10  21  34  59  80 120 151 185 225 279 325
#     4  10  21  34  59  80 120 151 185 225 279 325
#
# _framework density 20.225097999999999
#
# number of rings (size 3 to 8) (size 9 to 14) (size 15 to 20)
#    0.000    1.818    3.636    0.000    5.091    4.364 
#    0.000    0.000    0.000    0.000    0.000   25.455 
#    0.000    0.000    0.000    0.000    0.000    0.000 
#
# Total GULP energy -122556.455951 kJ/mol
# GULP energy per Si atom -5570.747998 kJ/mol
# Density = 2.017906 g / cm^3
# Si number density = 20.225098 Si / 1000 Ang^3
#
#
#
# Elastic Constant Matrix: (Units=GPa)
#
#
# Indices 1 2 3 4 5 6 
#
# 1 201.2424 34.8937 48.6925 0.0000 -8.9782 0.0000
# 2 34.8937 41.3242 28.0385 0.0000 1.5130 0.0000
# 3 48.6925 28.0385 65.5328 0.0000 5.7781 0.0000
# 4 0.0000 0.0000 0.0000 9.3900 0.0000 14.9678
# 5 -8.9782 1.5130 5.7781 0.0000 43.8642 0.0000
# 6 0.0000 0.0000 0.0000 14.9678 0.0000 38.7434
#
#
#
# Elastic Compliance Matrix: (Units=1/GPa)
#
#
# Indices 1 2 3 4 5 6 
#
# 1 0.006471 -0.003040 -0.003676 0.000000 0.001914 0.000000
# 2 -0.003040 0.035550 -0.012939 0.000000 -0.000144 0.000000
# 3 -0.003676 -0.012939 0.023831 0.000000 -0.003445 0.000000
# 4 0.000000 0.000000 0.000000 0.277205 0.000000 -0.107093
# 5 0.001914 -0.000144 -0.003445 0.000000 0.023648 0.000000
# 6 0.000000 0.000000 0.000000 -0.107093 0.000000 0.067185
#
#
# Mechanical properties :
#
#
# Convention : Reuss Voigt Hill
#
# Bulk Modulus (GPa) = 37.67619 59.03876 48.35748
# Shear Modulus (GPa) = 10.37243 31.49783 20.93513
#
# Velocity S-wave (km/s) = 2.26708 3.95063 3.22080
# Velocity P-wave (km/s) = 5.05190 7.07560 6.14760
#
# Compressibility (1/GPa) = 0.02654196
#
# Stress axis : x y z
#
# Youngs Moduli (GPa) = 154.53316 28.12936 41.96240
#
# Poissons Ratio (x) = 0.08551 0.15427
# Poissons Ratio (y) = 0.46975 0.54295
# Poissons Ratio (z) = 0.56811 0.36396
#
# Static dielectric constant tensor:
#      x y z
#    x 1.764860 0.000000 0.046260 
#    y 0.000000 1.830450 0.000000 
#    z 0.046260 0.000000 1.740380 
# 
# From -- ./inp_files/32756.got.cif
#   From: 2010.05.17/outbox.cif.g08.bks.cpg/sg15_17_cif.got.tgz:32756.got - 2010.06.03 18:47:42.
