data_PCOD9279287
_publ_section_title
;
Structure prediction by ZEFSAII (Michael W. Deem and Ramdas Pophale) SiO2 
 PCOD9279287
Probable space group: C 2/C
;
_chemical_formula_sum "Si O2"
_cell_formula_units_Z 40
_cell_length_a 12.100493
_cell_length_b 34.006255
_cell_length_c 5.148488
_cell_angle_alpha 90.000000
_cell_angle_beta 70.727271
_cell_angle_gamma 90.000000
_cell_volume 1999.835721
_symmetry_space_group_name_H-M "C 2/C"
_symmetry_group_IT_number 15
_symmetry_cell_setting 'monoclinic'
loop_
_space_group_symop_operation_xyz
x,y,z
-x,y,1/2-z
-x,-y,-z
x,-y,1/2+z
1/2+x,1/2+y,z
1/2-x,1/2+y,1/2-z
1/2-x,1/2-y,-z
1/2+x,1/2-y,1/2+z
loop_
_atom_site_type_symbol
_atom_site_label
_atom_site_fract_x
_atom_site_fract_y
_atom_site_fract_z
Si Si1 0.239108 0.795255 0.932172
Si Si2 0.636228 0.875145 0.592136
Si Si3 0.366734 0.483724 0.063108
Si Si4 0.220090 0.899447 0.516391
Si Si5 0.882532 0.817087 0.973475
O O1 0.338177 0.827839 0.921045
O O2 0.216049 0.799295 0.642713
O O3 0.250000 0.750000 0.000000
O O4 0.136172 0.808960 0.209598
O O5 0.500000 0.882360 0.750000
O O6 0.683233 0.892125 0.283465
O O7 0.716066 0.894101 0.757405
O O8 0.311519 0.488283 0.388626
O O9 0.348190 0.440044 0.973784
O O10 0.500000 0.500000 0.000000
O O11 0.129985 0.863644 0.554677
O O12 0.000000 0.802106 0.750000
#
# Coordination Sequence:
#
# PCOD9279287 Si02
#       5
#     8   8   8   8   8
#     4  10  21  38  55  84 118 147 197 249 283 343
#     4  10  21  38  61  84 110 164 206 234 290 337
#     4  10  21  36  57  89 118 149 185 226 310 361
#     4  10  21  38  58  85 122 146 191 250 273 360
#     4  10  21  35  56  83 115 153 182 227 307 347
#
# _framework density 20.001642
#
# number of rings (size 3 to 8) (size 9 to 14) (size 15 to 20)
#    0.000    2.000    0.000    3.000    2.800    1.600 
#    7.200    0.000    0.000   12.000    0.000    0.000 
#    0.000    0.000    0.000    0.000    0.000    0.000 
#
# Total GULP energy -111404.307013 kJ/mol
# GULP energy per Si atom -5570.215351 kJ/mol
# Density = 1.995612 g / cm^3
# Si number density = 20.001642 Si / 1000 Ang^3
#
#
#
# Elastic Constant Matrix: (Units=GPa)
#
#
# Indices 1 2 3 4 5 6 
#
# 1 33.2114 23.4395 10.3864 0.0000 -8.0661 0.0000
# 2 23.4395 134.4297 -9.0800 0.0000 15.9347 0.0000
# 3 10.3864 -9.0800 94.1476 0.0000 14.3711 0.0000
# 4 0.0000 0.0000 0.0000 22.2294 0.0000 1.3414
# 5 -8.0661 15.9347 14.3711 0.0000 37.9904 0.0000
# 6 0.0000 0.0000 0.0000 1.3414 0.0000 -1.6674
#
#
#
# Elastic Compliance Matrix: (Units=1/GPa)
#
#
# Indices 1 2 3 4 5 6 
#
# 1 0.044067 -0.010248 -0.008420 0.000000 0.016840 0.000000
# 2 -0.010248 0.010372 0.003319 0.000000 -0.007782 0.000000
# 3 -0.008420 0.003319 0.013113 0.000000 -0.008140 0.000000
# 4 0.000000 0.000000 0.000000 0.042903 0.000000 0.034516
# 5 0.016840 -0.007782 -0.008140 0.000000 0.036241 0.000000
# 6 0.000000 0.000000 0.000000 0.034516 0.000000 -0.571978
#
#
# Mechanical properties :
#
#
# Convention : Reuss Voigt Hill
#
# Bulk Modulus (GPa) = 27.13546 34.58674 30.86110
# Shear Modulus (GPa) = -13.07882 27.51334 7.21726
#
# Velocity S-wave (km/s) = -2.55990 3.71287 1.90162
# Velocity P-wave (km/s) = 2.20423 5.97579 4.50381
#
# Compressibility (1/GPa) = 0.03685214
#
# Stress axis : x y z
#
# Youngs Moduli (GPa) = 22.69296 96.40966 76.25888
#
# Poissons Ratio (x) = 0.98805 0.64213
# Poissons Ratio (y) = 0.23257 -0.25309
# Poissons Ratio (z) = 0.19108 -0.31997
#
# Static dielectric constant tensor:
#      x y z
#    x 1.669310 0.000000 0.055200 
#    y 0.000000 1.720130 0.000000 
#    z 0.055200 0.000000 1.718750 
# 
# From -- ./inp_files/5708.got.cif
#   From: 2010.05.17/outbox.cif.g08.bks.cpg/sg15_3_cif.got.tgz:5708.got - 2010.06.03 18:47:42.
