data_PCOD9279450
_publ_section_title
;
Structure prediction by ZEFSAII (Michael W. Deem and Ramdas Pophale) SiO2 
 PCOD9279450
Probable space group: C 2/C
;
_chemical_formula_sum "Si O2"
_cell_formula_units_Z 56
_cell_length_a 13.460843
_cell_length_b 20.359280
_cell_length_c 10.138699
_cell_angle_alpha 90.000000
_cell_angle_beta 107.601572
_cell_angle_gamma 90.000000
_cell_volume 2648.456875
_symmetry_space_group_name_H-M "C 2/C"
_symmetry_group_IT_number 15
_symmetry_cell_setting 'monoclinic'
loop_
_space_group_symop_operation_xyz
x,y,z
-x,y,1/2-z
-x,-y,-z
x,-y,1/2+z
1/2+x,1/2+y,z
1/2-x,1/2+y,1/2-z
1/2-x,1/2-y,-z
1/2+x,1/2-y,1/2+z
loop_
_atom_site_type_symbol
_atom_site_label
_atom_site_fract_x
_atom_site_fract_y
_atom_site_fract_z
Si Si1 0.762386 0.511733 0.920105
Si Si2 0.151656 0.220025 0.033427
Si Si3 0.599934 0.404351 0.885263
Si Si4 0.923973 0.213857 0.924783
Si Si5 0.768742 0.315985 0.814740
Si Si6 0.123345 0.565536 0.272178
Si Si7 0.384647 0.380921 0.181506
O O1 0.658805 0.473104 0.934124
O O2 0.835456 0.474251 0.842221
O O3 0.708542 0.571726 0.819407
O O4 0.823177 0.537005 0.073550
O O5 0.137466 0.145229 0.974521
O O6 0.036650 0.247754 0.965600
O O7 0.250000 0.250000 0.000000
O O8 0.183790 0.223823 0.197175
O O9 0.500000 0.412534 0.750000
O O10 0.697620 0.366612 0.861769
O O11 0.569289 0.352607 0.986495
O O12 0.839739 0.267991 0.928818
O O13 0.889479 0.185550 0.769470
O O14 0.840592 0.359493 0.745124
O O15 0.000000 0.562056 0.250000
O O16 0.500000 0.410260 0.250000
#
# Coordination Sequence:
#
# PCOD9279450 Si02
#       7
#     8   8   8   8   8   8   8
#     4  11  23  42  66  93 127 170 213 265 317 383
#     4  11  21  37  59  92 123 157 210 258 311 368
#     4  11  23  42  63  92 127 167 207 259 320 382
#     4  11  23  39  64  90 130 163 207 265 318 380
#     4  11  23  40  64  91 123 166 206 260 321 378
#     4  11  25  42  65  91 128 171 217 263 317 380
#     4  10  21  35  60  92 120 156 202 258 313 369
#
# _framework density 21.144389
#
# number of rings (size 3 to 8) (size 9 to 14) (size 15 to 20)
#    0.000    1.143    4.286    2.143    2.000    0.000 
#    0.000    4.286    0.000    0.857    0.000    0.000 
#    0.000    0.000    0.000    0.000    0.000    0.000 
#
# Total GULP energy -155976.267367 kJ/mol
# GULP energy per Si atom -5570.580977 kJ/mol
# Density = 2.109626 g / cm^3
# Si number density = 21.144389 Si / 1000 Ang^3
#
#
#
# Elastic Constant Matrix: (Units=GPa)
#
#
# Indices 1 2 3 4 5 6 
#
# 1 143.8283 44.9584 41.0143 0.0000 25.0039 0.0000
# 2 44.9584 45.8970 22.7574 0.0000 22.9695 0.0000
# 3 41.0143 22.7574 76.2950 0.0000 23.8433 0.0000
# 4 0.0000 0.0000 0.0000 21.6996 0.0000 3.2023
# 5 25.0039 22.9695 23.8433 0.0000 37.1110 0.0000
# 6 0.0000 0.0000 0.0000 3.2023 0.0000 37.3444
#
#
#
# Elastic Compliance Matrix: (Units=1/GPa)
#
#
# Indices 1 2 3 4 5 6 
#
# 1 0.010599 -0.009069 -0.003147 0.000000 0.000494 0.000000
# 2 -0.009069 0.040407 -0.001590 0.000000 -0.017877 0.000000
# 3 -0.003147 -0.001590 0.017896 0.000000 -0.008393 0.000000
# 4 0.000000 0.000000 0.000000 0.046674 0.000000 -0.004002
# 5 0.000494 -0.017877 -0.008393 0.000000 0.043071 0.000000
# 6 0.000000 0.000000 0.000000 -0.004002 0.000000 0.027121
#
#
# Mechanical properties :
#
#
# Convention : Reuss Voigt Hill
#
# Bulk Modulus (GPa) = 24.21945 53.72006 38.96975
# Shear Modulus (GPa) = 22.01238 29.71703 25.86470
#
# Velocity S-wave (km/s) = 3.23003 3.75298 3.50128
# Velocity P-wave (km/s) = 5.03885 6.65141 5.90048
#
# Compressibility (1/GPa) = 0.04128913
#
# Stress axis : x y z
#
# Youngs Moduli (GPa) = 94.34719 24.74821 55.87777
#
# Poissons Ratio (x) = 0.22445 0.17585
# Poissons Ratio (y) = 0.85565 0.08887
# Poissons Ratio (z) = 0.29691 0.03936
#
# Static dielectric constant tensor:
#      x y z
#    x 1.812630 0.000000 -0.042390 
#    y 0.000000 1.855340 0.000000 
#    z -0.042390 0.000000 1.797350 
# 
# From -- ./inp_files/89651.got.cif
#   From: 2010.05.17/outbox.cif.g08.bks.cpg/sg15_45_cif.got.tgz:89651.got - 2010.06.03 18:47:42.
