data_PCOD9279049
_publ_section_title
;
Structure prediction by ZEFSAII (Michael W. Deem and Ramdas Pophale) SiO2 
 PCOD9279049
Probable space group: C 2/C
;
_chemical_formula_sum "Si O2"
_cell_formula_units_Z 48
_cell_length_a 19.840728
_cell_length_b 13.397466
_cell_length_c 10.737379
_cell_angle_alpha 90.000000
_cell_angle_beta 39.568304
_cell_angle_gamma 90.000000
_cell_volume 1818.094178
_symmetry_space_group_name_H-M "C 2/C"
_symmetry_group_IT_number 15
_symmetry_cell_setting 'monoclinic'
loop_
_space_group_symop_operation_xyz
x,y,z
-x,y,1/2-z
-x,-y,-z
x,-y,1/2+z
1/2+x,1/2+y,z
1/2-x,1/2+y,1/2-z
1/2-x,1/2-y,-z
1/2+x,1/2-y,1/2+z
loop_
_atom_site_type_symbol
_atom_site_label
_atom_site_fract_x
_atom_site_fract_y
_atom_site_fract_z
Si Si1 0.687957 0.949308 0.742813
Si Si2 0.073823 0.897884 0.038189
Si Si3 0.345714 0.184489 0.717775
Si Si4 0.791617 0.658271 0.523083
Si Si5 0.136344 0.693288 0.531194
Si Si6 0.069003 0.121457 0.967552
O O1 0.806346 0.907855 0.592353
O O2 0.650116 0.910420 0.661657
O O3 0.628873 0.899422 0.945239
O O4 0.693427 0.067894 0.730506
O O5 0.000000 0.857482 0.250000
O O6 0.030461 0.845393 0.975483
O O7 0.042645 0.014256 0.059998
O O8 0.361433 0.190550 0.543339
O O9 0.259714 0.272607 0.861131
O O10 0.402437 0.177499 0.772914
O O11 0.750000 0.750000 0.500000
O O12 0.679420 0.611444 0.732074
O O13 0.091127 0.793278 0.534163
#
# Coordination Sequence:
#
# PCOD9279049 Si02
#       6
#     8   8   8   8   8   8
#     4  12  20  35  62  88 124 162 208 257 313 368
#     4  11  22  34  58  88 132 167 195 251 318 386
#     4  10  21  34  54  87 119 161 206 255 312 359
#     4  11  19  35  55  83 118 160 210 253 299 368
#     4  10  21  38  57  82 129 161 208 267 303 366
#     4  10  21  38  52  85 126 166 206 247 314 378
#
# _framework density 26.401273
#
# number of rings (size 3 to 8) (size 9 to 14) (size 15 to 20)
#    0.000    1.333    8.333    1.000    0.000    0.000 
#    0.000    0.000    0.000    0.000    0.000    1.167 
#    5.000    0.000    0.000    0.000    0.000    0.000 
#
# Total GULP energy -133980.388420 kJ/mol
# GULP energy per Si atom -5582.516184 kJ/mol
# Density = 2.634118 g / cm^3
# Si number density = 26.401273 Si / 1000 Ang^3
#
#
#
# Elastic Constant Matrix: (Units=GPa)
#
#
# Indices 1 2 3 4 5 6 
#
# 1 160.5616 -2.0626 49.3677 0.0000 50.3923 0.0000
# 2 -2.0626 50.5561 13.3847 0.0000 32.9177 0.0000
# 3 49.3677 13.3847 90.4095 0.0000 26.3344 0.0000
# 4 0.0000 0.0000 0.0000 27.2952 0.0000 7.5231
# 5 50.3923 32.9177 26.3344 0.0000 51.6532 0.0000
# 6 0.0000 0.0000 0.0000 7.5231 0.0000 44.2016
#
#
#
# Elastic Compliance Matrix: (Units=1/GPa)
#
#
# Indices 1 2 3 4 5 6 
#
# 1 0.014966 0.016850 -0.003859 0.000000 -0.023372 0.000000
# 2 0.016850 0.052951 -0.002845 0.000000 -0.048733 0.000000
# 3 -0.003859 -0.002845 0.014051 0.000000 -0.001586 0.000000
# 4 0.000000 0.000000 0.000000 0.038440 0.000000 -0.006542
# 5 -0.023372 -0.048733 -0.001586 0.000000 0.074026 0.000000
# 6 0.000000 0.000000 0.000000 -0.006542 0.000000 0.023737
#
#
# Mechanical properties :
#
#
# Convention : Reuss Voigt Hill
#
# Bulk Modulus (GPa) = 9.77902 46.98964 28.38433
# Shear Modulus (GPa) = 21.55480 40.68584 31.12032
#
# Velocity S-wave (km/s) = 2.86042 3.92989 3.43701
# Velocity P-wave (km/s) = 3.82379 6.19911 5.15026
#
# Compressibility (1/GPa) = 0.10225978
#
# Stress axis : x y z
#
# Youngs Moduli (GPa) = 66.81666 18.88529 71.16864
#
# Poissons Ratio (x) = -0.31821 0.27465
# Poissons Ratio (y) = -1.12585 0.20248
# Poissons Ratio (z) = 0.25786 0.05373
#
# Static dielectric constant tensor:
#      x y z
#    x 1.794960 0.000000 0.343720 
#    y 0.000000 2.095370 0.000000 
#    z 0.343720 0.000000 1.837540 
# 
# From -- ./inp_files/112941.got.cif
#   From: 2010.05.17/outbox.cif.g08.bks.cpg/sg15_57_cif.got.tgz:112941.got - 2010.06.03 18:47:42.
