data_PCOD9279463
_publ_section_title
;
Structure prediction by ZEFSAII (Michael W. Deem and Ramdas Pophale) SiO2 
 PCOD9279463
Probable space group: C 2/C
;
_chemical_formula_sum "Si O2"
_cell_formula_units_Z 56
_cell_length_a 9.098527
_cell_length_b 16.960215
_cell_length_c 17.597452
_cell_angle_alpha 90.000000
_cell_angle_beta 126.269384
_cell_angle_gamma 90.000000
_cell_volume 2189.369184
_symmetry_space_group_name_H-M "C 2/C"
_symmetry_group_IT_number 15
_symmetry_cell_setting 'monoclinic'
loop_
_space_group_symop_operation_xyz
x,y,z
-x,y,1/2-z
-x,-y,-z
x,-y,1/2+z
1/2+x,1/2+y,z
1/2-x,1/2+y,1/2-z
1/2-x,1/2-y,-z
1/2+x,1/2-y,1/2+z
loop_
_atom_site_type_symbol
_atom_site_label
_atom_site_fract_x
_atom_site_fract_y
_atom_site_fract_z
Si Si1 0.715873 0.959941 0.403285
Si Si2 0.892811 0.699615 0.648834
Si Si3 0.166991 0.662513 0.244257
Si Si4 0.010159 0.761032 0.063553
Si Si5 0.359584 0.027221 0.376007
Si Si6 0.410308 0.871978 0.437129
Si Si7 0.057806 0.890327 0.563083
O O1 0.675523 0.885357 0.337951
O O2 0.852738 0.921544 0.507812
O O3 0.534312 0.996395 0.381576
O O4 0.822311 0.031415 0.398539
O O5 0.703679 0.744129 0.575424
O O6 0.000000 0.740436 0.750000
O O7 0.010950 0.669772 0.614074
O O8 0.079138 0.733593 0.167422
O O9 0.348842 0.670491 0.350617
O O10 0.000000 0.640792 0.250000
O O11 0.224434 0.592412 0.204512
O O12 0.871162 0.698010 0.984356
O O13 0.940486 0.847169 0.018387
O O14 0.439324 0.077913 0.469794
O O15 0.271620 0.943492 0.373851
#
# Coordination Sequence:
#
# PCOD9279463 Si02
#       7
#     8   8   8   8   8   8   8
#     4   9  19  37  59  88 114 154 202 257 306 351
#     4  10  21  35  61  86 115 156 207 248 304 371
#     4  11  22  38  63  88 120 166 214 251 308 377
#     4  10  23  40  53  91 126 161 195 256 319 368
#     4   9  18  36  60  88 111 157 206 249 300 368
#     4   9  19  35  59  82 119 152 195 250 307 364
#     4  10  21  37  61  87 124 157 201 259 306 362
#
# _framework density 25.578143000000001
#
# number of rings (size 3 to 8) (size 9 to 14) (size 15 to 20)
#    0.000    2.286    1.429    0.429    6.000    0.571 
#    0.000    0.000    0.000    0.000    0.000    0.000 
#    0.000    0.000    0.000    0.000    0.000    0.000 
#
# Total GULP energy -156028.445757 kJ/mol
# GULP energy per Si atom -5572.444491 kJ/mol
# Density = 2.551993 g / cm^3
# Si number density = 25.578143 Si / 1000 Ang^3
#
#
#
# Elastic Constant Matrix: (Units=GPa)
#
#
# Indices 1 2 3 4 5 6 
#
# 1 22.8359 0.7900 -1.2667 0.0000 -8.1133 0.0000
# 2 0.7900 128.0070 20.1337 0.0000 -3.9618 0.0000
# 3 -1.2667 20.1337 111.8417 0.0000 -1.2265 0.0000
# 4 0.0000 0.0000 0.0000 40.7521 0.0000 -8.0121
# 5 -8.1133 -3.9618 -1.2265 0.0000 26.7339 0.0000
# 6 0.0000 0.0000 0.0000 -8.0121 0.0000 26.1433
#
#
#
# Elastic Compliance Matrix: (Units=1/GPa)
#
#
# Indices 1 2 3 4 5 6 
#
# 1 0.049141 0.000048 0.000712 0.000000 0.014953 0.000000
# 2 0.000048 0.008074 -0.001440 0.000000 0.001145 0.000000
# 3 0.000712 -0.001440 0.009213 0.000000 0.000425 0.000000
# 4 0.000000 0.000000 0.000000 0.026112 0.000000 0.008002
# 5 0.014953 0.001145 0.000425 0.000000 0.042133 0.000000
# 6 0.000000 0.000000 0.000000 0.008002 0.000000 0.040703
#
#
# Mechanical properties :
#
#
# Convention : Reuss Voigt Hill
#
# Bulk Modulus (GPa) = 15.36889 33.55541 24.46215
# Shear Modulus (GPa) = 25.19823 34.92772 30.06297
#
# Velocity S-wave (km/s) = 3.14211 3.69932 3.43204
# Velocity P-wave (km/s) = 4.38012 5.60302 5.02888
#
# Compressibility (1/GPa) = 0.06506650
#
# Stress axis : x y z
#
# Youngs Moduli (GPa) = 20.34953 123.85811 108.53966
#
# Poissons Ratio (x) = -0.00589 -0.07728
# Poissons Ratio (y) = -0.00097 0.15633
# Poissons Ratio (z) = -0.01449 0.17840
#
# Static dielectric constant tensor:
#      x y z
#    x 2.064090 0.000000 -0.022060 
#    y 0.000000 2.137120 0.000000 
#    z -0.022060 0.000000 2.068930 
# 
# From -- ./inp_files/199566.got.cif
#   From: 2010.05.17/outbox.cif.g08.bks.cpg/sg15_100_cif.got.tgz:199566.got - 2010.06.03 18:47:42.
