data_PCOD9279301
_publ_section_title
;
Structure prediction by ZEFSAII (Michael W. Deem and Ramdas Pophale) SiO2 
 PCOD9279301
Probable space group: C 2/C
;
_chemical_formula_sum "Si O2"
_cell_formula_units_Z 56
_cell_length_a 15.946332
_cell_length_b 15.991115
_cell_length_c 21.387306
_cell_angle_alpha 90.000000
_cell_angle_beta 155.567877
_cell_angle_gamma 90.000000
_cell_volume 2255.754594
_symmetry_space_group_name_H-M "C 2/C"
_symmetry_group_IT_number 15
_symmetry_cell_setting 'monoclinic'
loop_
_space_group_symop_operation_xyz
x,y,z
-x,y,1/2-z
-x,-y,-z
x,-y,1/2+z
1/2+x,1/2+y,z
1/2-x,1/2+y,1/2-z
1/2-x,1/2-y,-z
1/2+x,1/2-y,1/2+z
loop_
_atom_site_type_symbol
_atom_site_label
_atom_site_fract_x
_atom_site_fract_y
_atom_site_fract_z
Si Si1 0.376360 0.624754 0.534137
Si Si2 0.586999 0.946670 0.432402
Si Si3 0.224673 0.930537 0.671196
Si Si4 0.436328 0.446339 0.581062
Si Si5 0.920265 0.279241 0.882414
Si Si6 0.681269 0.314283 0.832446
Si Si7 0.264607 0.619136 0.586813
O O1 0.277556 0.596252 0.402058
O O2 0.493703 0.541698 0.636011
O O3 0.524908 0.699031 0.619623
O O4 0.219482 0.643789 0.483028
O O5 0.648015 0.862163 0.510455
O O6 0.702889 0.939064 0.444215
O O7 0.363903 0.986785 0.276101
O O8 0.704628 0.022089 0.548684
O O9 0.005606 0.937564 0.556476
O O10 0.315757 0.852657 0.772068
O O11 0.560395 0.383793 0.709500
O O12 0.793888 0.257831 0.858369
O O13 0.133637 0.323978 0.043376
O O14 0.500000 0.274400 0.750000
O O15 0.500000 0.637967 0.750000
#
# Coordination Sequence:
#
# PCOD9279301 Si02
#       7
#     8   8   8   8   8   8   8
#     4  11  22  38  56  83 125 157 190 241 301 357
#     4   9  18  34  59  89 113 151 194 246 291 338
#     4  10  22  38  57  86 118 154 199 239 293 356
#     4   9  19  36  60  84 115 153 198 246 293 349
#     4  10  23  37  57  87 119 158 194 239 303 354
#     4   9  18  38  65  88 116 149 204 255 288 343
#     4  10  21  35  56  87 119 152 192 233 296 363
#
# _framework density 24.825396000000001
#
# number of rings (size 3 to 8) (size 9 to 14) (size 15 to 20)
#    0.000    2.286    0.000    3.000    2.000   12.571 
#    0.000    0.000    3.143    2.571    0.000    0.000 
#    0.000    0.000    0.000    0.000    0.000    0.000 
#
# Total GULP energy -156370.891439 kJ/mol
# GULP energy per Si atom -5584.674694 kJ/mol
# Density = 2.476889 g / cm^3
# Si number density = 24.825396 Si / 1000 Ang^3
#
#
#
# Elastic Constant Matrix: (Units=GPa)
#
#
# Indices 1 2 3 4 5 6 
#
# 1 125.2623 -14.7372 13.3923 -0.0079 15.4957 0.0015
# 2 -14.7372 28.8007 -13.8716 0.0190 13.3751 0.0095
# 3 13.3923 -13.8716 72.9938 0.0407 -1.2542 0.0168
# 4 -0.0079 0.0190 0.0407 5.5057 0.0102 5.0292
# 5 15.4957 13.3751 -1.2542 0.0102 29.1088 0.0046
# 6 0.0015 0.0095 0.0168 5.0292 0.0046 20.7824
#
#
#
# Elastic Compliance Matrix: (Units=1/GPa)
#
#
# Indices 1 2 3 4 5 6 
#
# 1 0.010427 0.009944 -0.000197 0.000004 -0.010129 -0.000004
# 2 0.009944 0.058912 0.008822 -0.000218 -0.031983 0.000025
# 3 -0.000197 0.008822 0.015356 -0.000159 -0.003287 0.000023
# 4 0.000004 -0.000218 -0.000159 0.233175 0.000018 -0.056426
# 5 -0.010129 -0.031983 -0.003287 0.000018 0.054300 0.000002
# 6 -0.000004 0.000025 0.000023 -0.056426 0.000002 0.061772
#
#
# Mechanical properties :
#
#
# Convention : Reuss Voigt Hill
#
# Bulk Modulus (GPa) = 8.20804 21.84710 15.02757
# Shear Modulus (GPa) = 11.43077 27.23094 19.33086
#
# Velocity S-wave (km/s) = 2.14813 3.31554 2.79350
# Velocity P-wave (km/s) = 3.07670 4.84525 4.05848
#
# Compressibility (1/GPa) = 0.12183172
#
# Stress axis : x y z
#
# Youngs Moduli (GPa) = 95.90248 16.97460 65.12099
#
# Poissons Ratio (x) = -0.16880 0.01285
# Poissons Ratio (y) = -0.95368 -0.57447
# Poissons Ratio (z) = 0.01893 -0.14974
#
# Static dielectric constant tensor:
#      x y z
#    x 2.014840 0.000000 -0.009650 
#    y 0.000000 1.957720 -0.000020 
#    z -0.009650 -0.000020 2.033720 
# 
# From -- ./inp_files/245158.got.cif
#   From: 2010.05.17/outbox.cif.g08.bks.cpg/sg15_123_cif.got.tgz:245158.got - 2010.06.03 18:47:42.
