data_PCOD9279993
_publ_section_title
;
Structure prediction by ZEFSAII (Michael W. Deem and Ramdas Pophale) SiO2 
 PCOD9279993
Probable space group: C 2/C
;
_chemical_formula_sum "Si O2"
_cell_formula_units_Z 48
_cell_length_a 9.211381
_cell_length_b 28.208190
_cell_length_c 16.936254
_cell_angle_alpha 90.000000
_cell_angle_beta 150.002927
_cell_angle_gamma 90.000000
_cell_volume 2200.132816
_symmetry_space_group_name_H-M "C 2/C"
_symmetry_group_IT_number 15
_symmetry_cell_setting 'monoclinic'
loop_
_space_group_symop_operation_xyz
x,y,z
-x,y,1/2-z
-x,-y,-z
x,-y,1/2+z
1/2+x,1/2+y,z
1/2-x,1/2+y,1/2-z
1/2-x,1/2-y,-z
1/2+x,1/2-y,1/2+z
loop_
_atom_site_type_symbol
_atom_site_label
_atom_site_fract_x
_atom_site_fract_y
_atom_site_fract_z
Si Si1 0.384931 0.543859 0.604619
Si Si2 0.067530 0.850052 0.904680
Si Si3 0.911977 0.683798 0.429896
Si Si4 0.333723 0.712648 0.898409
Si Si5 0.321731 0.449850 0.748982
Si Si6 0.028249 0.146618 0.857846
O O1 0.500000 0.544718 0.750000
O O2 0.536729 0.496342 0.643836
O O3 0.513631 0.593099 0.632249
O O4 0.029045 0.544224 0.430125
O O5 0.865840 0.816049 0.757507
O O6 0.920580 0.901575 0.838329
O O7 0.352261 0.847173 0.981281
O O8 0.102115 0.826283 0.004899
O O9 0.001870 0.737817 0.489123
O O10 0.133034 0.657522 0.476731
O O11 0.375856 0.687357 0.834816
O O12 0.000000 0.724953 0.750000
O O13 0.500000 0.445483 0.750000
O O14 0.000000 0.150104 0.750000
#
# Coordination Sequence:
#
# PCOD9279993 Si02
#       6
#     8   8   8   8   8   8
#     4  10  21  36  62  95 128 169 219 266 319 388
#     4  11  22  40  68  91 129 166 214 263 319 383
#     4  11  22  43  64  91 126 171 213 260 321 377
#     4  12  26  40  64  95 126 171 216 265 322 381
#     4  11  19  37  63  97 126 172 215 267 323 383
#     4  11  24  42  62  93 130 166 213 266 316 381
#
# _framework density 21.816865
#
# number of rings (size 3 to 8) (size 9 to 14) (size 15 to 20)
#    0.000    1.000    5.000    4.000    2.333    4.667 
#    0.000    0.833    0.000    0.000    0.000    0.000 
#    0.000    0.000    0.000    0.000    0.000    0.000 
#
# Total GULP energy -133730.411691 kJ/mol
# GULP energy per Si atom -5572.100487 kJ/mol
# Density = 2.176721 g / cm^3
# Si number density = 21.816865 Si / 1000 Ang^3
#
#
#
# Elastic Constant Matrix: (Units=GPa)
#
#
# Indices 1 2 3 4 5 6 
#
# 1 39.3228 33.6059 8.3734 0.0000 -3.0660 0.0000
# 2 33.6059 199.7245 36.3111 0.0000 -1.2012 0.0000
# 3 8.3734 36.3111 62.9693 0.0000 1.7361 0.0000
# 4 0.0000 0.0000 0.0000 30.8192 0.0000 -1.0482
# 5 -3.0660 -1.2012 1.7361 0.0000 21.4350 0.0000
# 6 0.0000 0.0000 0.0000 -1.0482 0.0000 -5.7625
#
#
#
# Elastic Compliance Matrix: (Units=1/GPa)
#
#
# Indices 1 2 3 4 5 6 
#
# 1 0.030146 -0.004801 -0.001355 0.000000 0.004153 0.000000
# 2 -0.004801 0.006365 -0.003030 0.000000 -0.000085 0.000000
# 3 -0.001355 -0.003030 0.017858 0.000000 -0.001810 0.000000
# 4 0.000000 0.000000 0.000000 0.032248 0.000000 -0.005866
# 5 0.004153 -0.000085 -0.001810 0.000000 0.047388 0.000000
# 6 0.000000 0.000000 0.000000 -0.005866 0.000000 -0.172468
#
#
# Mechanical properties :
#
#
# Convention : Reuss Voigt Hill
#
# Bulk Modulus (GPa) = 27.77930 50.95527 39.36729
# Shear Modulus (GPa) = -617.78709 24.21343 -296.78683
#
# Velocity S-wave (km/s) = -16.84590 3.33505 -11.67608
# Velocity P-wave (km/s) = 19.12115 6.18359 12.79417
#
# Compressibility (1/GPa) = 0.03599803
#
# Stress axis : x y z
#
# Youngs Moduli (GPa) = 33.17198 157.10831 55.99794
#
# Poissons Ratio (x) = 0.75430 0.07586
# Poissons Ratio (y) = 0.15926 0.16965
# Poissons Ratio (z) = 0.04494 0.47598
#
# Static dielectric constant tensor:
#      x y z
#    x 1.740360 0.000000 -0.130850 
#    y 0.000000 1.847270 0.000000 
#    z -0.130850 0.000000 1.365640 
# 
# From -- ./inp_files/194309.got.cif
#   From: 2010.05.17/outbox.cif.g08.bks.cpg/sg15_98_cif.got.tgz:194309.got - 2010.06.03 18:47:42.
