data_PCOD9279309
_publ_section_title
;
Structure prediction by ZEFSAII (Michael W. Deem and Ramdas Pophale) SiO2 
 PCOD9279309
Probable space group: C 2/C
;
_chemical_formula_sum "Si O2"
_cell_formula_units_Z 48
_cell_length_a 17.101334
_cell_length_b 22.953681
_cell_length_c 6.875328
_cell_angle_alpha 90.000000
_cell_angle_beta 113.672930
_cell_angle_gamma 90.000000
_cell_volume 2471.731193
_symmetry_space_group_name_H-M "C 2/C"
_symmetry_group_IT_number 15
_symmetry_cell_setting 'monoclinic'
loop_
_space_group_symop_operation_xyz
x,y,z
-x,y,1/2-z
-x,-y,-z
x,-y,1/2+z
1/2+x,1/2+y,z
1/2-x,1/2+y,1/2-z
1/2-x,1/2-y,-z
1/2+x,1/2-y,1/2+z
loop_
_atom_site_type_symbol
_atom_site_label
_atom_site_fract_x
_atom_site_fract_y
_atom_site_fract_z
Si Si1 0.432788 0.077725 0.960781
Si Si2 0.854631 0.689715 0.042079
Si Si3 0.879934 0.547135 0.480465
Si Si4 0.238851 0.871399 0.714327
Si Si5 0.902506 0.819110 0.188076
Si Si6 0.788240 0.806528 0.428385
O O1 0.419127 0.139103 0.048631
O O2 0.394084 0.077588 0.703638
O O3 0.385327 0.022432 0.009364
O O4 0.467027 0.063427 0.454070
O O5 0.781826 0.682880 0.807495
O O6 0.809439 0.674542 0.201520
O O7 0.888282 0.755182 0.077202
O O8 0.794064 0.570052 0.294837
O O9 0.161263 0.864177 0.484949
O O10 0.207305 0.853268 0.895348
O O11 0.874515 0.808502 0.384974
O O12 0.000000 0.835975 0.250000
O O13 0.750000 0.750000 0.500000
#
# Coordination Sequence:
#
# PCOD9279309 Si02
#       6
#     8   8   8   8   8   8
#     4  10  21  35  56  91 124 158 202 244 294 371
#     4  11  21  35  57  84 120 157 197 247 300 361
#     4  10  21  37  56  86 127 163 199 244 299 366
#     4  11  21  38  60  80 119 167 198 250 302 360
#     4  11  25  38  56  90 121 161 212 255 303 360
#     4  11  19  39  58  80 117 157 201 246 304 368
#
# _framework density 19.419587
#
# number of rings (size 3 to 8) (size 9 to 14) (size 15 to 20)
#    0.000    1.333    5.000    2.000    2.333    2.000 
#    0.000    0.000    0.000    0.000    0.000   10.500 
#    0.000    0.167    0.000    0.000    0.000    0.000 
#
# Total GULP energy -133880.056241 kJ/mol
# GULP energy per Si atom -5578.335677 kJ/mol
# Density = 1.937539 g / cm^3
# Si number density = 19.419587 Si / 1000 Ang^3
#
#
#
# Elastic Constant Matrix: (Units=GPa)
#
#
# Indices 1 2 3 4 5 6 
#
# 1 121.8571 37.2162 50.2579 0.0000 -5.6577 0.0000
# 2 37.2162 55.4354 26.8751 0.0000 -0.9884 0.0000
# 3 50.2579 26.8751 89.0284 0.0000 -10.5520 0.0000
# 4 0.0000 0.0000 0.0000 16.2586 0.0000 -6.5189
# 5 -5.6577 -0.9884 -10.5520 0.0000 34.0255 0.0000
# 6 0.0000 0.0000 0.0000 -6.5189 0.0000 24.4792
#
#
#
# Elastic Compliance Matrix: (Units=1/GPa)
#
#
# Indices 1 2 3 4 5 6 
#
# 1 0.012019 -0.005611 -0.005060 0.000000 0.000266 0.000000
# 2 -0.005611 0.023817 -0.004205 0.000000 -0.001545 0.000000
# 3 -0.005060 -0.004205 0.015825 0.000000 0.003944 0.000000
# 4 0.000000 0.000000 0.000000 0.068858 0.000000 0.018337
# 5 0.000266 -0.001545 0.003944 0.000000 0.030612 0.000000
# 6 0.000000 0.000000 0.000000 0.018337 0.000000 0.045734
#
#
# Mechanical properties :
#
#
# Convention : Reuss Voigt Hill
#
# Bulk Modulus (GPa) = 45.64174 55.00213 50.32194
# Shear Modulus (GPa) = 21.37462 25.08411 23.22936
#
# Velocity S-wave (km/s) = 3.32124 3.59791 3.46234
# Velocity P-wave (km/s) = 6.18559 6.75607 6.47711
#
# Compressibility (1/GPa) = 0.02190977
#
# Stress axis : x y z
#
# Youngs Moduli (GPa) = 83.20033 41.98628 63.18933
#
# Poissons Ratio (x) = 0.23560 0.31971
# Poissons Ratio (y) = 0.46687 0.26572
# Poissons Ratio (z) = 0.42095 0.17656
#
# Static dielectric constant tensor:
#      x y z
#    x 1.718490 0.000000 -0.034370 
#    y 0.000000 1.700490 0.000000 
#    z -0.034370 0.000000 1.754820 
# 
# From -- ./inp_files/11078.got.cif
#   From: 2010.05.17/outbox.cif.g08.bks.cpg/sg15_6_cif.got.tgz:11078.got - 2010.06.03 18:47:42.
