data_PCOD9279662
_publ_section_title
;
Structure prediction by ZEFSAII (Michael W. Deem and Ramdas Pophale) SiO2 
 PCOD9279662
Probable space group: C 2/C
;
_chemical_formula_sum "Si O2"
_cell_formula_units_Z 56
_cell_length_a 20.810959
_cell_length_b 20.992694
_cell_length_c 17.972472
_cell_angle_alpha 90.000000
_cell_angle_beta 159.235611
_cell_angle_gamma 90.000000
_cell_volume 2783.658911
_symmetry_space_group_name_H-M "C 2/C"
_symmetry_group_IT_number 15
_symmetry_cell_setting 'monoclinic'
loop_
_space_group_symop_operation_xyz
x,y,z
-x,y,1/2-z
-x,-y,-z
x,-y,1/2+z
1/2+x,1/2+y,z
1/2-x,1/2+y,1/2-z
1/2-x,1/2-y,-z
1/2+x,1/2-y,1/2+z
loop_
_atom_site_type_symbol
_atom_site_label
_atom_site_fract_x
_atom_site_fract_y
_atom_site_fract_z
Si Si1 0.829032 0.539909 0.905969
Si Si2 0.797178 0.573707 0.255167
Si Si3 0.832081 0.836659 0.348341
Si Si4 0.469376 0.537549 0.802499
Si Si5 0.751217 0.798135 0.723417
Si Si6 0.321884 0.803355 0.017752
Si Si7 0.007422 0.111740 0.343062
O O1 0.780118 0.476582 0.805060
O O2 0.741248 0.601801 0.772438
O O3 0.733811 0.539072 0.883615
O O4 0.044351 0.548624 0.128177
O O5 0.845773 0.643557 0.339738
O O6 0.608959 0.574573 0.006661
O O7 0.736068 0.770798 0.224471
O O8 0.043779 0.823074 0.562240
O O9 0.834890 0.856681 0.438423
O O10 0.500000 0.556670 0.750000
O O11 0.523739 0.463280 0.867454
O O12 0.648271 0.779029 0.534439
O O13 0.500000 0.828649 0.250000
O O14 0.250000 0.750000 0.000000
O O15 0.189520 0.860825 0.851168
O O16 0.000000 0.131316 0.250000
#
# Coordination Sequence:
#
# PCOD9279662 Si02
#       7
#     8   8   8   8   8   8   8
#     4  11  22  40  67  92 129 165 209 268 317 383
#     4  11  23  41  66  96 125 170 219 259 321 382
#     4  11  20  36  59  88 126 160 209 263 308 379
#     4  11  23  44  65  91 128 167 212 272 326 374
#     4  11  22  35  59  91 124 170 214 258 315 376
#     4  11  21  35  52  82 131 175 206 249 296 368
#     4  10  21  36  56  84 124 169 204 250 311 367
#
# _framework density 20.117407
#
# number of rings (size 3 to 8) (size 9 to 14) (size 15 to 20)
#    0.000    1.143    2.857    6.000    0.000    1.714 
#    7.714    0.000    0.000    0.857    0.000    0.000 
#    0.000    0.000    0.000    0.000    0.000    0.000 
#
# Total GULP energy -156014.672248 kJ/mol
# GULP energy per Si atom -5571.952580 kJ/mol
# Density = 2.007162 g / cm^3
# Si number density = 20.117407 Si / 1000 Ang^3
#
#
#
# Elastic Constant Matrix: (Units=GPa)
#
#
# Indices 1 2 3 4 5 6 
#
# 1 99.6325 17.7800 7.0297 0.0000 8.7100 0.0000
# 2 17.7800 105.6507 8.9019 0.0000 -16.7417 0.0000
# 3 7.0297 8.9019 46.1727 -0.0002 4.4055 0.0004
# 4 0.0000 0.0000 -0.0002 18.8266 -0.0001 29.7883
# 5 8.7100 -16.7417 4.4055 -0.0001 20.1800 0.0002
# 6 0.0000 0.0000 0.0004 29.7883 0.0002 -43.8428
#
#
#
# Elastic Compliance Matrix: (Units=1/GPa)
#
#
# Indices 1 2 3 4 5 6 
#
# 1 0.011237 -0.003002 -0.000441 0.000000 -0.007244 0.000000
# 2 -0.003002 0.012130 -0.003029 0.000000 0.012020 0.000000
# 3 -0.000441 -0.003029 0.023010 0.000000 -0.007346 0.000000
# 4 0.000000 0.000000 0.000000 0.025598 0.000000 0.017392
# 5 -0.007244 0.012020 -0.007346 0.000000 0.064257 0.000000
# 6 0.000000 0.000000 0.000000 0.017392 0.000000 -0.010992
#
#
# Mechanical properties :
#
#
# Convention : Reuss Voigt Hill
#
# Bulk Modulus (GPa) = 29.90929 35.43101 32.67015
# Shear Modulus (GPa) = 33.48355 13.54903 23.51629
#
# Velocity S-wave (km/s) = 4.08414 2.59800 3.42270
# Velocity P-wave (km/s) = 6.09425 5.16235 5.64755
#
# Compressibility (1/GPa) = 0.03343442
#
# Stress axis : x y z
#
# Youngs Moduli (GPa) = 88.99174 82.43817 43.45992
#
# Poissons Ratio (x) = 0.24747 0.01916
# Poissons Ratio (y) = 0.26714 0.13162
# Poissons Ratio (z) = 0.03923 0.24967
#
# Static dielectric constant tensor:
#      x y z
#    x 2.114230 0.000000 0.142730 
#    y 0.000000 1.742780 0.000000 
#    z 0.142730 0.000000 1.732480 
# 
# From -- ./inp_files/216610.got.cif
#   From: 2010.05.17/outbox.cif.g08.bks.cpg/sg15_109_cif.got.tgz:216610.got - 2010.06.03 18:47:42.
