data_PCOD9279686
_publ_section_title
;
Structure prediction by ZEFSAII (Michael W. Deem and Ramdas Pophale) SiO2 
 PCOD9279686
Probable space group: C 2/C
;
_chemical_formula_sum "Si O2"
_cell_formula_units_Z 56
_cell_length_a 11.034818
_cell_length_b 21.316539
_cell_length_c 11.444013
_cell_angle_alpha 90.000000
_cell_angle_beta 109.274757
_cell_angle_gamma 90.000000
_cell_volume 2541.017053
_symmetry_space_group_name_H-M "C 2/C"
_symmetry_group_IT_number 15
_symmetry_cell_setting 'monoclinic'
loop_
_space_group_symop_operation_xyz
x,y,z
-x,y,1/2-z
-x,-y,-z
x,-y,1/2+z
1/2+x,1/2+y,z
1/2-x,1/2+y,1/2-z
1/2-x,1/2-y,-z
1/2+x,1/2-y,1/2+z
loop_
_atom_site_type_symbol
_atom_site_label
_atom_site_fract_x
_atom_site_fract_y
_atom_site_fract_z
Si Si1 0.725324 0.107511 0.801785
Si Si2 0.500000 0.458219 0.750000
Si Si3 0.836661 0.003134 0.004015
Si Si4 0.261848 0.597593 0.286415
Si Si5 0.383548 0.998728 0.876843
Si Si6 0.500000 0.207460 0.750000
Si Si7 0.369686 0.683893 0.654275
Si Si8 0.643090 0.720129 0.101815
O O1 0.801660 0.068178 0.925461
O O2 0.628702 0.164088 0.808751
O O3 0.825882 0.129579 0.732193
O O4 0.629486 0.055977 0.715528
O O5 0.470013 0.495847 0.620196
O O6 0.621792 0.414980 0.765836
O O7 0.803232 0.944902 0.910028
O O8 0.737763 0.995402 0.078071
O O9 0.133286 0.566380 0.196788
O O10 0.262383 0.670551 0.306875
O O11 0.500000 0.000000 0.000000
O O12 0.466951 0.252050 0.849897
O O13 0.500000 0.712031 0.750000
O O14 0.404366 0.681995 0.527282
O O15 0.236345 0.721957 0.604877
#
# Coordination Sequence:
#
# PCOD9279686 Si02
#       8
#     8   4   8   8   8   4   8   8
#     4  10  21  40  66  98 127 179 219 263 338 389
#     4  10  21  36  56  90 128 160 201 262 320 390
#     4  10  21  38  59  96 127 166 213 259 330 397
#     4  10  21  38  59  89 124 161 203 265 323 386
#     4  10  21  39  61  94 130 162 208 265 327 392
#     4  10  21  42  72  90 134 170 227 282 312 400
#     4  10  23  44  64  88 128 173 222 269 321 394
#     4  10  22  44  63  95 124 169 225 269 331 378
#
# _framework density 22.038419999999999
#
# number of rings (size 3 to 8) (size 9 to 14) (size 15 to 20)
#    0.000    2.000    0.000    2.571    2.000    1.714 
#   28.286    1.429    0.000    0.000    0.000    0.000 
#    0.000    0.000    0.000    0.000    0.000    0.000 
#
# Total GULP energy -155927.046560 kJ/mol
# GULP energy per Si atom -5568.823091 kJ/mol
# Density = 2.198826 g / cm^3
# Si number density = 22.038420 Si / 1000 Ang^3
#
#
#
# Elastic Constant Matrix: (Units=GPa)
#
#
# Indices 1 2 3 4 5 6 
#
# 1 59.0480 5.8375 22.3538 0.0000 -10.3478 0.0000
# 2 5.8375 70.2665 38.4340 0.0000 -16.6750 0.0000
# 3 22.3538 38.4340 122.3955 0.0000 7.7126 0.0000
# 4 0.0000 0.0000 0.0000 12.5662 0.0000 -4.6648
# 5 -10.3478 -16.6750 7.7126 0.0000 42.4041 0.0000
# 6 0.0000 0.0000 0.0000 -4.6648 0.0000 24.0726
#
#
#
# Elastic Compliance Matrix: (Units=1/GPa)
#
#
# Indices 1 2 3 4 5 6 
#
# 1 0.019683 0.002600 -0.004834 0.000000 0.006705 0.000000
# 2 0.002600 0.020546 -0.007562 0.000000 0.010090 0.000000
# 3 -0.004834 -0.007562 0.011825 0.000000 -0.006304 0.000000
# 4 0.000000 0.000000 0.000000 0.085747 0.000000 0.016616
# 5 0.006705 0.010090 -0.006304 0.000000 0.030333 0.000000
# 6 0.000000 0.000000 0.000000 0.016616 0.000000 0.044761
#
#
# Mechanical properties :
#
#
# Convention : Reuss Voigt Hill
#
# Bulk Modulus (GPa) = 30.80533 42.77339 36.78936
# Shear Modulus (GPa) = 20.55003 28.14756 24.34879
#
# Velocity S-wave (km/s) = 3.05694 3.57768 3.32751
# Velocity P-wave (km/s) = 5.14473 6.04293 5.61183
#
# Compressibility (1/GPa) = 0.03246191
#
# Stress axis : x y z
#
# Youngs Moduli (GPa) = 50.80466 48.67030 84.56630
#
# Poissons Ratio (x) = -0.12654 0.40877
# Poissons Ratio (y) = -0.13208 0.63953
# Poissons Ratio (z) = 0.24558 0.36807
#
# Static dielectric constant tensor:
#      x y z
#    x 1.755210 0.000000 -0.060660 
#    y 0.000000 1.776780 0.000000 
#    z -0.060660 0.000000 1.891030 
# 
# From -- ./inp_files/89672.got.cif
#   From: 2010.05.17/outbox.cif.g08.bks.cpg/sg15_45_cif.got.tgz:89672.got - 2010.06.03 18:47:42.
