data_PCOD9279155
_publ_section_title
;
Structure prediction by ZEFSAII (Michael W. Deem and Ramdas Pophale) SiO2 
 PCOD9279155
Probable space group: C 2/C
;
_chemical_formula_sum "Si O2"
_cell_formula_units_Z 64
_cell_length_a 7.187491
_cell_length_b 20.089552
_cell_length_c 19.857360
_cell_angle_alpha 90.000000
_cell_angle_beta 97.682798
_cell_angle_gamma 90.000000
_cell_volume 2841.534782
_symmetry_space_group_name_H-M "C 2/C"
_symmetry_group_IT_number 15
_symmetry_cell_setting 'monoclinic'
loop_
_space_group_symop_operation_xyz
x,y,z
-x,y,1/2-z
-x,-y,-z
x,-y,1/2+z
1/2+x,1/2+y,z
1/2-x,1/2+y,1/2-z
1/2-x,1/2-y,-z
1/2+x,1/2-y,1/2+z
loop_
_atom_site_type_symbol
_atom_site_label
_atom_site_fract_x
_atom_site_fract_y
_atom_site_fract_z
Si Si1 0.125544 0.550041 0.961894
Si Si2 0.349728 0.326521 0.952179
Si Si3 0.703355 0.025926 0.652171
Si Si4 0.359434 0.159740 0.802706
Si Si5 0.021440 0.686196 0.540939
Si Si6 0.947753 0.973250 0.916069
Si Si7 0.696052 0.442939 0.729838
Si Si8 0.695591 0.199020 0.296959
O O1 0.993941 0.546755 0.889633
O O2 0.118747 0.626614 0.986376
O O3 0.333432 0.521849 0.960292
O O4 0.000000 0.500000 0.000000
O O5 0.492997 0.265335 0.972669
O O6 0.443862 0.396830 0.940407
O O7 0.220659 0.306705 0.879998
O O8 0.213488 0.332535 0.010158
O O9 0.769853 0.095938 0.687662
O O10 0.665618 0.970720 0.707226
O O11 0.854973 0.998717 0.605345
O O12 0.500000 0.140644 0.750000
O O13 0.458034 0.180621 0.877659
O O14 0.258082 0.227930 0.777716
O O15 0.804641 0.970346 0.844975
O O16 0.500000 0.467924 0.750000
O O17 0.688012 0.363746 0.723983
O O18 0.500000 0.187379 0.250000
#
# Coordination Sequence:
#
# PCOD9279155 Si02
#       8
#     8   8   8   8   8   8   8   8
#     4  11  22  37  61  93 119 161 211 257 306 371
#     4   9  18  38  64  85 123 165 202 247 316 377
#     4  10  24  39  61  88 123 163 203 251 321 363
#     4  10  22  40  59  85 118 159 202 251 309 372
#     4   9  19  37  62  86 118 166 201 246 316 370
#     4  10  21  38  62  88 120 157 204 262 295 371
#     4   9  20  36  57  85 114 154 200 243 304 370
#     4  10  21  34  60  90 117 156 198 252 304 366
#
# _framework density 22.523040000000002
#
# number of rings (size 3 to 8) (size 9 to 14) (size 15 to 20)
#    0.000    2.250    1.250    0.375    7.000    3.000 
#    0.000    0.000    0.000    1.500    0.000    0.000 
#    0.000    0.000    0.000    0.000    0.000    0.000 
#
# Total GULP energy -178307.013602 kJ/mol
# GULP energy per Si atom -5572.094175 kJ/mol
# Density = 2.247178 g / cm^3
# Si number density = 22.523040 Si / 1000 Ang^3
#
#
#
# Elastic Constant Matrix: (Units=GPa)
#
#
# Indices 1 2 3 4 5 6 
#
# 1 85.3768 47.2010 13.6343 0.0000 -14.0535 0.0000
# 2 47.2010 165.3314 33.5690 0.0000 -29.5609 0.0000
# 3 13.6343 33.5690 69.6259 0.0000 -15.6610 0.0000
# 4 0.0000 0.0000 0.0000 36.0250 0.0000 -3.1205
# 5 -14.0535 -29.5609 -15.6610 0.0000 33.9852 0.0000
# 6 0.0000 0.0000 0.0000 -3.1205 0.0000 36.3584
#
#
#
# Elastic Compliance Matrix: (Units=1/GPa)
#
#
# Indices 1 2 3 4 5 6 
#
# 1 0.014139 -0.003469 -0.000513 0.000000 0.002593 0.000000
# 2 -0.003469 0.008356 -0.002273 0.000000 0.004786 0.000000
# 3 -0.000513 -0.002273 0.016809 0.000000 0.005557 0.000000
# 4 0.000000 0.000000 0.000000 0.027966 0.000000 0.002400
# 5 0.002593 0.004786 0.005557 0.000000 0.037221 0.000000
# 6 0.000000 0.000000 0.000000 0.002400 0.000000 0.027710
#
#
# Mechanical properties :
#
#
# Convention : Reuss Voigt Hill
#
# Bulk Modulus (GPa) = 37.32107 56.57141 46.94624
# Shear Modulus (GPa) = 32.54314 36.33572 34.43943
#
# Velocity S-wave (km/s) = 3.80528 4.02091 3.91458
# Velocity P-wave (km/s) = 5.99275 6.83583 6.42813
#
# Compressibility (1/GPa) = 0.02679451
#
# Stress axis : x y z
#
# Youngs Moduli (GPa) = 70.72464 119.67328 59.49332
#
# Poissons Ratio (x) = 0.41513 0.03052
# Poissons Ratio (y) = 0.24533 0.13522
# Poissons Ratio (z) = 0.03629 0.27200
#
# Static dielectric constant tensor:
#      x y z
#    x 1.874550 0.000000 0.099890 
#    y 0.000000 1.904660 0.000000 
#    z 0.099890 0.000000 1.985730 
# 
# From -- ./inp_files/232682.got.cif
#   From: 2010.05.17/outbox.cif.g08.bks.cpg/sg15_117_cif.got.tgz:232682.got - 2010.06.03 18:47:42.
