data_PCOD9279402
_publ_section_title
;
Structure prediction by ZEFSAII (Michael W. Deem and Ramdas Pophale) SiO2 
 PCOD9279402
Probable space group: C 2/C
;
_chemical_formula_sum "Si O2"
_cell_formula_units_Z 60
_cell_length_a 30.847940
_cell_length_b 11.867425
_cell_length_c 8.434230
_cell_angle_alpha 90.000000
_cell_angle_beta 94.512066
_cell_angle_gamma 90.000000
_cell_volume 3078.080991
_symmetry_space_group_name_H-M "C 2/C"
_symmetry_group_IT_number 15
_symmetry_cell_setting 'monoclinic'
loop_
_space_group_symop_operation_xyz
x,y,z
-x,y,1/2-z
-x,-y,-z
x,-y,1/2+z
1/2+x,1/2+y,z
1/2-x,1/2+y,1/2-z
1/2-x,1/2-y,-z
1/2+x,1/2-y,1/2+z
loop_
_atom_site_type_symbol
_atom_site_label
_atom_site_fract_x
_atom_site_fract_y
_atom_site_fract_z
Si Si1 0.403424 0.139051 0.669016
Si Si2 0.908936 0.053947 0.721944
Si Si3 0.033839 0.899187 0.535890
Si Si4 0.289441 0.945291 0.676894
Si Si5 0.355201 0.944320 0.450212
Si Si6 0.500000 0.792769 0.250000
Si Si7 0.262456 0.626176 0.050103
Si Si8 0.636163 0.632705 0.491884
O O1 0.385969 0.127909 0.844784
O O2 0.455918 0.141397 0.691014
O O3 0.384615 0.255514 0.591791
O O4 0.383076 0.036969 0.557491
O O5 0.942638 0.123600 0.624242
O O6 0.933826 0.957555 0.829339
O O7 0.881782 0.980527 0.592184
O O8 0.879671 0.127076 0.830966
O O9 0.012435 0.790788 0.608752
O O10 0.000000 0.000000 0.500000
O O11 0.322202 0.882993 0.563785
O O12 0.322695 0.995589 0.816144
O O13 0.264783 0.039319 0.565849
O O14 0.252236 0.887741 0.771342
O O15 0.250000 0.750000 0.000000
O O16 0.313040 0.622273 0.025299
#
# Coordination Sequence:
#
# PCOD9279402 Si02
#       8
#     8   8   8   8   8   4   8   8
#     4  11  23  42  64  85 119 162 208 264 296 358
#     4  10  21  35  59  87 124 161 188 235 303 368
#     4  11  18  36  58  85 120 161 195 235 293 366
#     4   9  19  39  63  89 118 157 199 245 305 368
#     4   9  20  42  64  82 115 160 207 256 312 341
#     4  12  22  38  62  90 118 156 214 250 302 354
#     4  11  21  37  61  90 122 159 198 248 292 361
#     4  11  21  39  58  93 127 159 197 241 304 360
#
# _framework density 19.492664000000001
#
# number of rings (size 3 to 8) (size 9 to 14) (size 15 to 20)
#    0.000    1.600    2.667    4.000    0.000    0.533 
#    7.200    7.333    0.000    0.000    0.000    0.000 
#    0.000    0.000    0.000    0.000    0.000    0.000 
#
# Total GULP energy -167219.669081 kJ/mol
# GULP energy per Si atom -5573.988969 kJ/mol
# Density = 1.944830 g / cm^3
# Si number density = 19.492664 Si / 1000 Ang^3
#
#
#
# Elastic Constant Matrix: (Units=GPa)
#
#
# Indices 1 2 3 4 5 6 
#
# 1 147.3577 21.5428 56.1762 0.0000 -24.5000 0.0000
# 2 21.5428 51.5801 29.6518 0.0000 -19.2430 0.0000
# 3 56.1762 29.6518 124.4021 0.0000 -47.0671 0.0000
# 4 0.0000 0.0000 0.0000 34.3071 0.0000 -0.4868
# 5 -24.5000 -19.2430 -47.0671 0.0000 49.1675 0.0000
# 6 0.0000 0.0000 0.0000 -0.4868 0.0000 25.9849
#
#
#
# Elastic Compliance Matrix: (Units=1/GPa)
#
#
# Indices 1 2 3 4 5 6 
#
# 1 0.008306 -0.001432 -0.003223 0.000000 0.000493 0.000000
# 2 -0.001432 0.023799 -0.002778 0.000000 0.005941 0.000000
# 3 -0.003223 -0.002778 0.014325 0.000000 0.011020 0.000000
# 4 0.000000 0.000000 0.000000 0.029156 0.000000 0.000546
# 5 0.000493 0.005941 0.011020 0.000000 0.033459 0.000000
# 6 0.000000 0.000000 0.000000 0.000546 0.000000 0.038494
#
#
# Mechanical properties :
#
#
# Convention : Reuss Voigt Hill
#
# Bulk Modulus (GPa) = 31.68119 59.78684 45.73401
# Shear Modulus (GPa) = 28.91376 36.28984 32.60180
#
# Velocity S-wave (km/s) = 3.85556 4.31944 4.09408
# Velocity P-wave (km/s) = 6.00905 7.45754 6.77213
#
# Compressibility (1/GPa) = 0.03156447
#
# Stress axis : x y z
#
# Youngs Moduli (GPa) = 120.39144 42.01842 69.80613
#
# Poissons Ratio (x) = 0.06019 0.22497
# Poissons Ratio (y) = 0.17246 0.19391
# Poissons Ratio (z) = 0.38800 0.11672
#
# Static dielectric constant tensor:
#      x y z
#    x 1.674740 0.000000 -0.014520 
#    y 0.000000 1.638540 0.000000 
#    z -0.014520 0.000000 1.750930 
# 
# From -- ./inp_files/69118.got.cif
#   From: 2010.05.17/outbox.cif.g08.bks.cpg/sg15_35_cif.got.tgz:69118.got - 2010.06.03 18:47:42.
