data_PCOD9279203
_publ_section_title
;
Structure prediction by ZEFSAII (Michael W. Deem and Ramdas Pophale) SiO2 
 PCOD9279203
Probable space group: C 2/C
;
_chemical_formula_sum "Si O2"
_cell_formula_units_Z 64
_cell_length_a 14.938377
_cell_length_b 18.896800
_cell_length_c 23.102503
_cell_angle_alpha 90.000000
_cell_angle_beta 28.204219
_cell_angle_gamma 90.000000
_cell_volume 3082.185863
_symmetry_space_group_name_H-M "C 2/C"
_symmetry_group_IT_number 15
_symmetry_cell_setting 'monoclinic'
loop_
_space_group_symop_operation_xyz
x,y,z
-x,y,1/2-z
-x,-y,-z
x,-y,1/2+z
1/2+x,1/2+y,z
1/2-x,1/2+y,1/2-z
1/2-x,1/2-y,-z
1/2+x,1/2-y,1/2+z
loop_
_atom_site_type_symbol
_atom_site_label
_atom_site_fract_x
_atom_site_fract_y
_atom_site_fract_z
Si Si1 0.182192 0.765054 0.291280
Si Si2 0.674877 0.016652 0.786830
Si Si3 0.514282 0.391005 0.045861
Si Si4 0.148425 0.871499 0.835624
Si Si5 0.761002 0.650962 0.957058
Si Si6 0.489969 0.140799 0.567141
Si Si7 0.147451 0.507106 0.117032
Si Si8 0.187901 0.221150 0.162139
O O1 0.181813 0.685003 0.268039
O O2 0.315798 0.805589 0.170119
O O3 0.296536 0.761346 0.286585
O O4 0.008060 0.815989 0.407920
O O5 0.604257 0.063899 0.880400
O O6 0.809941 0.069434 0.671206
O O7 0.794524 0.946081 0.723924
O O8 0.481292 0.993144 0.866283
O O9 0.578616 0.379952 0.942357
O O10 0.670523 0.443018 0.984566
O O11 0.964355 0.844696 0.905771
O O12 0.885107 0.648419 0.944615
O O13 0.796613 0.575181 0.906220
O O14 0.801405 0.717363 0.892824
O O15 0.636181 0.167762 0.436866
O O16 0.000000 0.530300 0.250000
O O17 0.000000 0.181036 0.250000
#
# Coordination Sequence:
#
# PCOD9279203 Si02
#       8
#     8   8   8   8   8   8   8   8
#     4  11  22  33  52  77 110 146 179 219 263 315
#     4  10  22  36  57  83 112 136 179 229 269 318
#     4  11  21  36  56  83 110 140 178 220 275 322
#     4  12  20  35  54  79 109 140 178 222 269 317
#     4  11  19  30  52  84 114 135 170 212 273 333
#     4  10  21  35  50  81 112 142 178 218 263 326
#     4  11  20  31  55  84 108 140 171 221 280 318
#     4  12  20  32  51  79 116 149 173 209 269 335
#
# _framework density 20.764483999999999
#
# number of rings (size 3 to 8) (size 9 to 14) (size 15 to 20)
#    0.000    1.000    6.250    2.625    1.750    0.000 
#    0.000    1.250    0.000    0.000    0.000    0.000 
#    0.000    0.000    0.000    0.000    0.000    0.000 
#
# Total GULP energy -178434.585537 kJ/mol
# GULP energy per Si atom -5576.080798 kJ/mol
# Density = 2.071722 g / cm^3
# Si number density = 20.764484 Si / 1000 Ang^3
#
#
#
# Elastic Constant Matrix: (Units=GPa)
#
#
# Indices 1 2 3 4 5 6 
#
# 1 20.0602 -4.3565 2.2456 -0.0022 -5.0569 -0.0044
# 2 -4.3565 107.1664 45.0425 0.0282 2.5394 -0.0059
# 3 2.2456 45.0425 79.6432 0.0388 -12.8080 -0.0232
# 4 -0.0022 0.0282 0.0388 29.2695 -0.0026 -12.9719
# 5 -5.0569 2.5394 -12.8080 -0.0026 11.2402 0.0067
# 6 -0.0044 -0.0059 -0.0232 -12.9719 0.0067 6.9003
#
#
#
# Elastic Compliance Matrix: (Units=1/GPa)
#
#
# Indices 1 2 3 4 5 6 
#
# 1 0.056852 0.000497 0.002707 0.000065 0.028550 0.000140
# 2 0.000497 0.014036 -0.010317 -0.000028 -0.014703 -0.000061
# 3 0.002707 -0.010317 0.023122 0.000004 0.029896 0.000049
# 4 0.000065 -0.000028 0.000004 0.204772 -0.000142 0.384953
# 5 0.028550 -0.014703 0.029896 -0.000142 0.139199 -0.000295
# 6 0.000140 -0.000061 0.000049 0.384953 -0.000295 0.868599
#
#
# Mechanical properties :
#
#
# Convention : Reuss Voigt Hill
#
# Bulk Modulus (GPa) = 12.53373 32.52590 22.52981
# Shear Modulus (GPa) = 3.71085 20.41120 12.06102
#
# Velocity S-wave (km/s) = 1.33828 3.13866 2.41269
# Velocity P-wave (km/s) = 2.90469 5.36965 4.31685
#
# Compressibility (1/GPa) = 0.07978473
#
# Stress axis : x y z
#
# Youngs Moduli (GPa) = 17.58961 71.24541 43.24877
#
# Poissons Ratio (x) = -0.03538 -0.11710
# Poissons Ratio (y) = -0.00874 0.44618
# Poissons Ratio (z) = -0.04762 0.73501
#
# Static dielectric constant tensor:
#      x y z
#    x 1.750910 0.000000 0.017620 
#    y 0.000000 1.800670 0.000010 
#    z 0.017620 0.000010 1.855140 
# 
# From -- ./inp_files/274803.got.cif
#   From: 2010.05.17/outbox.cif.g08.bks.cpg/sg15_138_cif.got.tgz:274803.got - 2010.06.03 18:47:42.
