data_PCOD9279778
_publ_section_title
;
Structure prediction by ZEFSAII (Michael W. Deem and Ramdas Pophale) SiO2 
 PCOD9279778
Probable space group: C 2/C
;
_chemical_formula_sum "Si O2"
_cell_formula_units_Z 64
_cell_length_a 25.803045
_cell_length_b 14.131243
_cell_length_c 9.889665
_cell_angle_alpha 90.000000
_cell_angle_beta 114.241172
_cell_angle_gamma 90.000000
_cell_volume 3288.096467
_symmetry_space_group_name_H-M "C 2/C"
_symmetry_group_IT_number 15
_symmetry_cell_setting 'monoclinic'
loop_
_space_group_symop_operation_xyz
x,y,z
-x,y,1/2-z
-x,-y,-z
x,-y,1/2+z
1/2+x,1/2+y,z
1/2-x,1/2+y,1/2-z
1/2-x,1/2-y,-z
1/2+x,1/2-y,1/2+z
loop_
_atom_site_type_symbol
_atom_site_label
_atom_site_fract_x
_atom_site_fract_y
_atom_site_fract_z
Si Si1 0.121464 0.799482 0.341284
Si Si2 0.145710 0.408339 0.785292
Si Si3 0.384908 0.290492 0.665512
Si Si4 0.143863 0.411047 0.465255
Si Si5 0.719107 0.411790 0.574737
Si Si6 0.945586 0.127049 0.486470
Si Si7 0.924533 0.906185 0.452929
Si Si8 0.720809 0.591371 0.393076
O O1 0.118078 0.689537 0.302507
O O2 0.179432 0.827016 0.481229
O O3 0.071322 0.832579 0.386524
O O4 0.118110 0.859668 0.200073
O O5 0.134008 0.426491 0.614324
O O6 0.129381 0.497175 0.860722
O O7 0.213920 0.393818 0.872645
O O8 0.387603 0.183026 0.618753
O O9 0.415452 0.310180 0.839828
O O10 0.412818 0.360311 0.585485
O O11 0.319198 0.321665 0.610265
O O12 0.211773 0.393852 0.519453
O O13 0.704212 0.503735 0.470505
O O14 0.710325 0.429912 0.724028
O O15 0.012212 0.121144 0.527995
O O16 0.922211 0.019469 0.453793
#
# Coordination Sequence:
#
# PCOD9279778 Si02
#       8
#     8   8   8   8   8   8   8   8
#     4  12  22  39  63  90 121 162 201 245 303 359
#     4  10  23  41  61  89 124 162 204 249 293 351
#     4  12  22  39  63  90 121 162 201 245 303 359
#     4  10  23  41  61  89 124 162 204 249 293 351
#     4  10  21  36  58  91 126 162 200 242 295 360
#     4  11  24  40  64  93 119 157 196 250 308 367
#     4  11  24  42  62  89 125 153 200 250 304 363
#     4  10  21  36  58  91 126 162 200 242 295 360
#
# _framework density 19.46415
#
# number of rings (size 3 to 8) (size 9 to 14) (size 15 to 20)
#    0.000    1.250    2.500    3.750    3.500    2.000 
#    0.000    0.000    0.000    4.500    0.000    0.000 
#    0.000    0.000    0.000    0.000    0.000    0.000 
#
# Total GULP energy -178913.054006 kJ/mol
# GULP energy per Si atom -5591.032938 kJ/mol
# Density = 1.941985 g / cm^3
# Si number density = 19.464150 Si / 1000 Ang^3
#
#
#
# Elastic Constant Matrix: (Units=GPa)
#
#
# Indices 1 2 3 4 5 6 
#
# 1 29.4374 20.1568 1.1818 0.0000 -7.8892 0.0000
# 2 20.1568 126.4736 57.0172 0.0000 -6.0846 0.0000
# 3 1.1818 57.0172 70.6292 0.0000 -15.1669 0.0000
# 4 0.0000 0.0000 0.0000 30.2697 0.0000 -8.6101
# 5 -7.8892 -6.0846 -15.1669 0.0000 24.8026 0.0000
# 6 0.0000 0.0000 0.0000 -8.6101 0.0000 16.7786
#
#
#
# Elastic Compliance Matrix: (Units=1/GPa)
#
#
# Indices 1 2 3 4 5 6 
#
# 1 0.047848 -0.013005 0.014137 0.000000 0.020674 0.000000
# 2 -0.013005 0.016244 -0.014882 0.000000 -0.009252 0.000000
# 3 0.014137 -0.014882 0.030066 0.000000 0.019231 0.000000
# 4 0.000000 0.000000 0.000000 0.038683 0.000000 0.019851
# 5 0.020674 -0.009252 0.019231 0.000000 0.056385 0.000000
# 6 0.000000 0.000000 0.000000 0.019851 0.000000 0.069786
#
#
# Mechanical properties :
#
#
# Convention : Reuss Voigt Hill
#
# Bulk Modulus (GPa) = 15.00186 42.58355 28.79270
# Shear Modulus (GPa) = 16.19540 24.24915 20.22228
#
# Velocity S-wave (km/s) = 2.88768 3.53347 3.22677
# Velocity P-wave (km/s) = 4.34079 6.21069 5.35794
#
# Compressibility (1/GPa) = 0.06665841
#
# Stress axis : x y z
#
# Youngs Moduli (GPa) = 20.89938 61.56283 33.26052
#
# Poissons Ratio (x) = 0.80061 -0.47022
# Poissons Ratio (y) = 0.27179 0.49499
# Poissons Ratio (z) = -0.29546 0.91619
#
# Static dielectric constant tensor:
#      x y z
#    x 1.683440 0.000000 0.010890 
#    y 0.000000 1.644390 0.000000 
#    z 0.010890 0.000000 1.660240 
# 
# From -- ./inp_files/66256.got.cif
#   From: 2010.05.17/outbox.cif.g08.bks.cpg/sg15_34_cif.got.tgz:66256.got - 2010.06.03 18:47:42.
