data_PCOD9279933
_publ_section_title
;
Structure prediction by ZEFSAII (Michael W. Deem and Ramdas Pophale) SiO2 
 PCOD9279933
Probable space group: C 2/C
;
_chemical_formula_sum "Si O2"
_cell_formula_units_Z 60
_cell_length_a 18.545710
_cell_length_b 11.949883
_cell_length_c 15.276432
_cell_angle_alpha 90.000000
_cell_angle_beta 115.128101
_cell_angle_gamma 90.000000
_cell_volume 3065.142419
_symmetry_space_group_name_H-M "C 2/C"
_symmetry_group_IT_number 15
_symmetry_cell_setting 'monoclinic'
loop_
_space_group_symop_operation_xyz
x,y,z
-x,y,1/2-z
-x,-y,-z
x,-y,1/2+z
1/2+x,1/2+y,z
1/2-x,1/2+y,1/2-z
1/2-x,1/2-y,-z
1/2+x,1/2-y,1/2+z
loop_
_atom_site_type_symbol
_atom_site_label
_atom_site_fract_x
_atom_site_fract_y
_atom_site_fract_z
Si Si1 0.500000 0.224093 0.250000
Si Si2 0.690342 0.299485 0.895860
Si Si3 0.662231 0.113865 0.275277
Si Si4 0.580781 0.386430 0.970152
Si Si5 0.456201 0.356245 0.051779
Si Si6 0.708157 0.760901 0.072142
Si Si7 0.253501 0.595344 0.842572
Si Si8 0.274867 0.998540 0.350278
O O1 0.577318 0.152279 0.264514
O O2 0.478269 0.296977 0.153737
O O3 0.604412 0.316354 0.895998
O O4 0.702925 0.209260 0.825315
O O5 0.722440 0.419889 0.881916
O O6 0.750000 0.250000 0.000000
O O7 0.728567 0.208400 0.327166
O O8 0.695896 0.005154 0.343865
O O9 0.663768 0.075128 0.174169
O O10 0.549320 0.510743 0.934224
O O11 0.520467 0.333899 0.008698
O O12 0.665480 0.399888 0.062557
O O13 0.371950 0.310714 0.973574
O O14 0.691095 0.891303 0.082487
O O15 0.750000 0.750000 0.000000
O O16 0.274567 0.557065 0.755123
#
# Coordination Sequence:
#
# PCOD9279933 Si02
#       8
#     4   8   8   8   8   8   8   8
#     4  12  26  40  64  94 126 172 212 276 320 378
#     4  10  21  36  61  94 122 165 208 262 318 377
#     4  10  24  42  65  94 128 164 216 265 321 386
#     4  10  22  40  62  96 131 162 215 266 327 383
#     4  11  24  40  63  97 132 168 215 273 319 376
#     4  12  22  42  67  95 127 172 218 258 322 390
#     4   9  21  40  67  90 127 165 213 265 318 390
#     4  10  23  37  67  93 122 170 213 259 313 389
#
# _framework density 19.574946000000001
#
# number of rings (size 3 to 8) (size 9 to 14) (size 15 to 20)
#    0.800    0.800    2.667    1.600    7.467    0.000 
#    2.400    2.000    0.000    0.000    0.000    0.000 
#    0.000    0.000    0.000    0.000    0.000    0.000 
#
# Total GULP energy -167232.736985 kJ/mol
# GULP energy per Si atom -5574.424566 kJ/mol
# Density = 1.953039 g / cm^3
# Si number density = 19.574946 Si / 1000 Ang^3
#
#
#
# Elastic Constant Matrix: (Units=GPa)
#
#
# Indices 1 2 3 4 5 6 
#
# 1 150.0154 45.7468 39.9763 0.0000 -13.1307 0.0000
# 2 45.7468 90.1432 23.4707 0.0000 -14.3308 0.0000
# 3 39.9763 23.4707 46.6848 0.0000 -9.6931 0.0000
# 4 0.0000 0.0000 0.0000 35.2881 0.0000 -8.6194
# 5 -13.1307 -14.3308 -9.6931 0.0000 31.5196 0.0000
# 6 0.0000 0.0000 0.0000 -8.6194 0.0000 36.8694
#
#
#
# Elastic Compliance Matrix: (Units=1/GPa)
#
#
# Indices 1 2 3 4 5 6 
#
# 1 0.009321 -0.002983 -0.006364 0.000000 0.000570 0.000000
# 2 -0.002983 0.014233 -0.003755 0.000000 0.004074 0.000000
# 3 -0.006364 -0.003755 0.029752 0.000000 0.004791 0.000000
# 4 0.000000 0.000000 0.000000 0.030054 0.000000 0.007026
# 5 0.000570 0.004074 0.004791 0.000000 0.035289 0.000000
# 6 0.000000 0.000000 0.000000 0.007026 0.000000 0.028765
#
#
# Mechanical properties :
#
#
# Convention : Reuss Voigt Hill
#
# Bulk Modulus (GPa) = 36.89761 56.13678 46.51720
# Shear Modulus (GPa) = 27.37420 32.57873 29.97646
#
# Velocity S-wave (km/s) = 3.74362 4.08402 3.91752
# Velocity P-wave (km/s) = 6.12997 7.13996 6.65416
#
# Compressibility (1/GPa) = 0.02710202
#
# Stress axis : x y z
#
# Youngs Moduli (GPa) = 107.28049 70.26090 33.61070
#
# Poissons Ratio (x) = 0.20958 0.21390
# Poissons Ratio (y) = 0.32001 0.12622
# Poissons Ratio (z) = 0.68272 0.26386
#
# Static dielectric constant tensor:
#      x y z
#    x 1.685160 0.000000 -0.048560 
#    y 0.000000 1.720440 0.000000 
#    z -0.048560 0.000000 1.739700 
# 
# From -- ./inp_files/210375.got.cif
#   From: 2010.05.17/outbox.cif.g08.bks.cpg/sg15_106_cif.got.tgz:210375.got - 2010.06.03 18:47:42.
