data_PCOD9279295
_publ_section_title
;
Structure prediction by ZEFSAII (Michael W. Deem and Ramdas Pophale) SiO2 
 PCOD9279295
Probable space group: C 2/C
;
_chemical_formula_sum "Si O2"
_cell_formula_units_Z 60
_cell_length_a 20.850644
_cell_length_b 35.608958
_cell_length_c 5.047566
_cell_angle_alpha 90.000000
_cell_angle_beta 124.275660
_cell_angle_gamma 90.000000
_cell_volume 3096.836424
_symmetry_space_group_name_H-M "C 2/C"
_symmetry_group_IT_number 15
_symmetry_cell_setting 'monoclinic'
loop_
_space_group_symop_operation_xyz
x,y,z
-x,y,1/2-z
-x,-y,-z
x,-y,1/2+z
1/2+x,1/2+y,z
1/2-x,1/2+y,1/2-z
1/2-x,1/2-y,-z
1/2+x,1/2-y,1/2+z
loop_
_atom_site_type_symbol
_atom_site_label
_atom_site_fract_x
_atom_site_fract_y
_atom_site_fract_z
Si Si1 0.056544 0.705204 0.634963
Si Si2 0.133806 0.089175 0.620384
Si Si3 0.907430 0.477062 0.529585
Si Si4 0.321716 0.138398 0.582009
Si Si5 0.855285 0.139491 0.369225
Si Si6 0.687298 0.089681 0.423655
Si Si7 0.445032 0.288567 0.872542
Si Si8 0.000000 0.027581 0.250000
O O1 0.121178 0.673324 0.786747
O O2 0.092186 0.747260 0.747862
O O3 0.000000 0.699854 0.750000
O O4 0.000000 0.702324 0.250000
O O5 0.138318 0.108186 0.343490
O O6 0.222341 0.077838 0.902146
O O7 0.074016 0.055049 0.460248
O O8 0.109663 0.120684 0.783254
O O9 0.889117 0.488199 0.185582
O O10 0.861524 0.442916 0.551475
O O11 0.000000 0.470108 0.750000
O O12 0.234795 0.148258 0.285831
O O13 0.314852 0.122875 0.863670
O O14 0.345616 0.105723 0.429253
O O15 0.892153 0.176727 0.331708
O O16 0.500000 0.296757 0.750000
O O17 0.500000 0.283381 0.250000
O O18 0.000000 0.000000 0.500000
#
# Coordination Sequence:
#
# PCOD9279295 Si02
#       8
#     8   8   8   8   8   8   8   4
#     4  10  21  37  55  83 120 154 192 240 288 341
#     4  10  23  39  59  85 115 148 189 244 285 343
#     4  10  21  36  55  81 110 140 181 233 279 329
#     4  10  21  37  57  82 116 151 193 238 284 350
#     4  10  21  38  59  86 113 149 195 240 290 338
#     4  10  21  38  58  84 112 149 195 232 290 352
#     4  10  21  35  56  86 115 149 197 238 287 355
#     4  12  26  42  60  88 120 154 194 236 296 362
#
# _framework density 19.374611999999999
#
# number of rings (size 3 to 8) (size 9 to 14) (size 15 to 20)
#    0.000    1.867    0.000    3.200    2.800    3.200 
#    0.000    0.000    0.000    9.600    0.000    0.000 
#    0.000    0.000    0.000    0.000    0.000    0.000 
#
# Total GULP energy -167386.047021 kJ/mol
# GULP energy per Si atom -5579.534901 kJ/mol
# Density = 1.933051 g / cm^3
# Si number density = 19.374612 Si / 1000 Ang^3
#
#
#
# Elastic Constant Matrix: (Units=GPa)
#
#
# Indices 1 2 3 4 5 6 
#
# 1 104.0309 78.5729 36.8877 0.0000 -8.7572 0.0000
# 2 78.5729 123.6642 25.8783 0.0000 21.7738 0.0000
# 3 36.8877 25.8783 68.3569 0.0000 -20.5869 0.0000
# 4 0.0000 0.0000 0.0000 91.5633 0.0000 89.7119
# 5 -8.7572 21.7738 -20.5869 0.0000 29.5178 0.0000
# 6 0.0000 0.0000 0.0000 89.7119 0.0000 180.4742
#
#
#
# Elastic Compliance Matrix: (Units=1/GPa)
#
#
# Indices 1 2 3 4 5 6 
#
# 1 0.029271 -0.023618 0.001276 0.000000 0.026996 0.000000
# 2 -0.023618 0.032151 -0.010987 0.000000 -0.038385 0.000000
# 3 0.001276 -0.010987 0.026147 0.000000 0.026719 0.000000
# 4 0.000000 0.000000 0.000000 0.021291 0.000000 -0.010584
# 5 0.026996 -0.038385 0.026719 0.000000 0.088837 0.000000
# 6 0.000000 0.000000 0.000000 -0.010584 0.000000 0.010802
#
#
# Mechanical properties :
#
#
# Convention : Reuss Voigt Hill
#
# Bulk Modulus (GPa) = 47.82329 64.30330 56.06329
# Shear Modulus (GPa) = 17.72258 70.62525 44.17391
#
# Velocity S-wave (km/s) = 3.02773 6.04414 4.78010
# Velocity P-wave (km/s) = 6.07947 9.05375 7.71136
#
# Compressibility (1/GPa) = 0.02091031
#
# Stress axis : x y z
#
# Youngs Moduli (GPa) = 34.16329 31.10361 38.24594
#
# Poissons Ratio (x) = 0.73462 -0.04880
# Poissons Ratio (y) = 0.80688 0.42019
# Poissons Ratio (z) = -0.04359 0.34172
#
# Static dielectric constant tensor:
#      x y z
#    x 1.662590 0.000000 0.004370 
#    y 0.000000 1.704990 0.000000 
#    z 0.004370 0.000000 1.665170 
# 
# From -- ./inp_files/14413.got.cif
#   From: 2010.05.17/outbox.cif.g08.bks.cpg/sg15_8_cif.got.tgz:14413.got - 2010.06.03 18:47:42.
