data_PCOD9279511
_publ_section_title
;
Structure prediction by ZEFSAII (Michael W. Deem and Ramdas Pophale) SiO2 
 PCOD9279511
Probable space group: C 2/C
;
_chemical_formula_sum "Si O2"
_cell_formula_units_Z 40
_cell_length_a 18.932748
_cell_length_b 5.220752
_cell_length_c 23.082813
_cell_angle_alpha 90.000000
_cell_angle_beta 54.964431
_cell_angle_gamma 90.000000
_cell_volume 1868.147074
_symmetry_space_group_name_H-M "C 2/C"
_symmetry_group_IT_number 15
_symmetry_cell_setting 'monoclinic'
loop_
_space_group_symop_operation_xyz
x,y,z
-x,y,1/2-z
-x,-y,-z
x,-y,1/2+z
1/2+x,1/2+y,z
1/2-x,1/2+y,1/2-z
1/2-x,1/2-y,-z
1/2+x,1/2-y,1/2+z
loop_
_atom_site_type_symbol
_atom_site_label
_atom_site_fract_x
_atom_site_fract_y
_atom_site_fract_z
Si Si1 0.433149 0.096793 0.835618
Si Si2 0.601627 0.772790 0.920054
Si Si3 0.103569 0.911230 0.192178
Si Si4 0.506231 0.722682 0.422361
Si Si5 0.763045 0.951719 0.779105
O O1 0.500000 0.077726 0.750000
O O2 0.370816 0.330633 0.851882
O O3 0.482840 0.173930 0.870060
O O4 0.383032 0.831459 0.854950
O O5 0.557306 0.546371 0.902585
O O6 0.699296 0.820887 0.855676
O O7 0.559835 0.048396 0.926232
O O8 0.578247 0.696576 0.996771
O O9 0.000000 0.925466 0.250000
O O10 0.154185 0.922266 0.228591
O O11 0.781445 0.701484 0.730261
#
# Coordination Sequence:
#
# PCOD9279511 Si02
#       5
#     8   8   8   8   8
#     4  10  21  35  63  88 124 165 221 256 322 390
#     4  10  23  39  64  92 133 168 224 263 341 374
#     4  10  23  39  57  92 128 170 213 258 337 391
#     4  10  21  41  64  95 125 177 214 276 317 411
#     4  12  26  40  64  97 135 171 220 284 323 390
#
# _framework density 21.411588999999999
#
# number of rings (size 3 to 8) (size 9 to 14) (size 15 to 20)
#    0.000    1.600    0.000    3.600   16.800    0.000 
#    0.000    2.000    0.000    0.000    0.000    0.000 
#    0.000    0.000    0.000    0.000    0.000    0.000 
#
# Total GULP energy -111448.525759 kJ/mol
# GULP energy per Si atom -5572.426288 kJ/mol
# Density = 2.136285 g / cm^3
# Si number density = 21.411589 Si / 1000 Ang^3
#
#
#
# Elastic Constant Matrix: (Units=GPa)
#
#
# Indices 1 2 3 4 5 6 
#
# 1 79.8875 36.3553 49.0107 -0.0760 12.9723 -0.0146
# 2 36.3553 599.2708 158.8965 -0.1958 212.3002 -0.2869
# 3 49.0107 158.8965 155.1373 -0.1056 81.5592 -0.1343
# 4 -0.0760 -0.1958 -0.1056 45.5013 -0.0919 21.0118
# 5 12.9723 212.3002 81.5592 -0.0919 132.4641 -0.1191
# 6 -0.0146 -0.2869 -0.1343 21.0118 -0.1191 37.7520
#
#
#
# Elastic Compliance Matrix: (Units=1/GPa)
#
#
# Indices 1 2 3 4 5 6 
#
# 1 0.016001 -0.000289 -0.006179 0.000028 0.002701 -0.000025
# 2 -0.000289 0.003982 -0.000957 -0.000002 -0.005765 0.000009
# 3 -0.006179 -0.000957 0.012204 -0.000006 -0.005376 0.000020
# 4 0.000028 -0.000002 -0.000006 0.029580 0.000009 -0.016463
# 5 0.002701 -0.005765 -0.005376 0.000009 0.019834 -0.000005
# 6 -0.000025 0.000009 0.000020 -0.016463 -0.000005 0.035652
#
#
# Mechanical properties :
#
#
# Convention : Reuss Voigt Hill
#
# Bulk Modulus (GPa) = 57.67593 146.98007 102.32800
# Shear Modulus (GPa) = 36.26289 82.47902 59.37096
#
# Velocity S-wave (km/s) = 4.11981 6.21324 5.27149
# Velocity P-wave (km/s) = 7.04456 10.96661 9.21663
#
# Compressibility (1/GPa) = 0.01733825
#
# Stress axis : x y z
#
# Youngs Moduli (GPa) = 62.49478 251.11725 81.94164
#
# Poissons Ratio (x) = 0.07264 0.50630
# Poissons Ratio (y) = 0.01808 0.07838
# Poissons Ratio (z) = 0.38614 0.24020
#
# Static dielectric constant tensor:
#      x y z
#    x 1.807290 0.000150 0.006720 
#    y 0.000150 1.756700 0.000120 
#    z 0.006720 0.000120 1.828140 
# 
# From -- ./inp_files/275580.got.cif
#   From: 2010.05.17/outbox.cif.g08.bks.cpg/sg15_138_cif.got.tgz:275580.got - 2010.06.03 18:47:42.
