data_PCOD9279460
_publ_section_title
;
Structure prediction by ZEFSAII (Michael W. Deem and Ramdas Pophale) SiO2 
 PCOD9279460
Probable space group: C 2/C
;
_chemical_formula_sum "Si O2"
_cell_formula_units_Z 60
_cell_length_a 28.470961
_cell_length_b 17.762584
_cell_length_c 5.283910
_cell_angle_alpha 90.000000
_cell_angle_beta 97.875031
_cell_angle_gamma 90.000000
_cell_volume 2646.967032
_symmetry_space_group_name_H-M "C 2/C"
_symmetry_group_IT_number 15
_symmetry_cell_setting 'monoclinic'
loop_
_space_group_symop_operation_xyz
x,y,z
-x,y,1/2-z
-x,-y,-z
x,-y,1/2+z
1/2+x,1/2+y,z
1/2-x,1/2+y,1/2-z
1/2-x,1/2-y,-z
1/2+x,1/2-y,1/2+z
loop_
_atom_site_type_symbol
_atom_site_label
_atom_site_fract_x
_atom_site_fract_y
_atom_site_fract_z
Si Si1 0.858759 0.671368 0.437087
Si Si2 0.135665 0.957636 0.109015
Si Si3 0.000000 0.592840 0.250000
Si Si4 0.043128 0.726238 0.958409
Si Si5 0.714926 0.790431 0.282938
Si Si6 0.689075 0.686212 0.869174
Si Si7 0.396469 0.042033 0.100942
Si Si8 0.531195 0.606521 0.532860
O O1 0.906606 0.699541 0.609976
O O2 0.818814 0.649103 0.609873
O O3 0.834241 0.744361 0.298856
O O4 0.874229 0.615680 0.221306
O O5 0.162970 0.886497 0.246851
O O6 0.079505 0.940413 0.061165
O O7 0.147246 0.022052 0.326476
O O8 0.976616 0.651553 0.425326
O O9 0.954123 0.547468 0.126453
O O10 0.000000 0.745992 0.750000
O O11 0.048276 0.806188 0.103134
O O12 0.750000 0.750000 0.500000
O O13 0.753668 0.824253 0.117833
O O14 0.684487 0.721426 0.145224
O O15 0.383572 0.979243 0.304111
O O16 0.500000 0.583423 0.750000
O O17 0.500000 0.600294 0.250000
#
# Coordination Sequence:
#
# PCOD9279460 Si02
#       8
#     8   8   4   8   8   8   8   8
#     4  10  22  40  71  96 132 180 231 288 342 415
#     4  12  28  45  69 104 146 193 232 287 364 424
#     4  10  22  38  62  86 128 184 230 278 342 400
#     4  10  21  35  61 101 131 176 237 294 339 396
#     4   9  21  41  75 101 126 167 230 290 354 403
#     4  10  22  44  72 102 135 177 238 295 346 428
#     4  11  26  42  61  94 138 180 222 276 346 414
#     4  11  23  42  65  93 140 186 241 297 341 408
#
# _framework density 22.667452999999998
#
# number of rings (size 3 to 8) (size 9 to 14) (size 15 to 20)
#    0.000    1.600    2.000    1.200    9.333    4.800 
#    0.000    1.333    0.000    0.000    0.000    0.000 
#    0.000    0.000    0.000    0.000    0.000    0.000 
#
# Total GULP energy -167111.017533 kJ/mol
# GULP energy per Si atom -5570.367251 kJ/mol
# Density = 2.261586 g / cm^3
# Si number density = 22.667453 Si / 1000 Ang^3
#
#
#
# Elastic Constant Matrix: (Units=GPa)
#
#
# Indices 1 2 3 4 5 6 
#
# 1 121.1331 24.9800 23.9436 0.0000 -7.2539 0.0000
# 2 24.9800 70.1530 5.2304 0.0000 11.1050 0.0000
# 3 23.9436 5.2304 81.2572 0.0000 7.7093 0.0000
# 4 0.0000 0.0000 0.0000 27.9885 0.0000 4.8438
# 5 -7.2539 11.1050 7.7093 0.0000 33.4143 0.0000
# 6 0.0000 0.0000 0.0000 4.8438 0.0000 44.0075
#
#
#
# Elastic Compliance Matrix: (Units=1/GPa)
#
#
# Indices 1 2 3 4 5 6 
#
# 1 0.009931 -0.003970 -0.003068 0.000000 0.004183 0.000000
# 2 -0.003970 0.016653 0.000720 0.000000 -0.006563 0.000000
# 3 -0.003068 0.000720 0.013547 0.000000 -0.004031 0.000000
# 4 0.000000 0.000000 0.000000 0.036423 0.000000 -0.004009
# 5 0.004183 -0.006563 -0.004031 0.000000 0.033946 0.000000
# 6 0.000000 0.000000 0.000000 -0.004009 0.000000 0.023165
#
#
# Mechanical properties :
#
#
# Convention : Reuss Voigt Hill
#
# Bulk Modulus (GPa) = 36.36769 42.31682 39.34226
# Shear Modulus (GPa) = 32.16188 35.64135 33.90161
#
# Velocity S-wave (km/s) = 3.77086 3.96960 3.87150
# Velocity P-wave (km/s) = 5.91929 6.30233 6.11381
#
# Compressibility (1/GPa) = 0.02749693
#
# Stress axis : x y z
#
# Youngs Moduli (GPa) = 100.69651 60.04865 73.81943
#
# Poissons Ratio (x) = 0.23837 0.22645
# Poissons Ratio (y) = 0.39972 -0.05318
# Poissons Ratio (z) = 0.30890 -0.04326
#
# Static dielectric constant tensor:
#      x y z
#    x 2.175040 0.000000 0.195930 
#    y 0.000000 1.908880 0.000000 
#    z 0.195930 0.000000 2.118570 
# 
# From -- ./inp_files/17194.got.cif
#   From: 2010.05.17/outbox.cif.g08.bks.cpg/sg15_9_cif.got.tgz:17194.got - 2010.06.03 18:47:42.
