data_PCOD9279282
_publ_section_title
;
Structure prediction by ZEFSAII (Michael W. Deem and Ramdas Pophale) SiO2 
 PCOD9279282
Probable space group: C 2/C
;
_chemical_formula_sum "Si O2"
_cell_formula_units_Z 44
_cell_length_a 12.217417
_cell_length_b 23.843330
_cell_length_c 9.268323
_cell_angle_alpha 90.000000
_cell_angle_beta 59.094957
_cell_angle_gamma 90.000000
_cell_volume 2316.566266
_symmetry_space_group_name_H-M "C 2/C"
_symmetry_group_IT_number 15
_symmetry_cell_setting 'monoclinic'
loop_
_space_group_symop_operation_xyz
x,y,z
-x,y,1/2-z
-x,-y,-z
x,-y,1/2+z
1/2+x,1/2+y,z
1/2-x,1/2+y,1/2-z
1/2-x,1/2-y,-z
1/2+x,1/2-y,1/2+z
loop_
_atom_site_type_symbol
_atom_site_label
_atom_site_fract_x
_atom_site_fract_y
_atom_site_fract_z
Si Si1 0.000000 0.496698 0.750000
Si Si2 0.097214 0.311051 0.049845
Si Si3 0.106731 0.815500 0.552401
Si Si4 0.379577 0.927178 0.582810
Si Si5 0.051899 0.912889 0.368182
Si Si6 0.113931 0.970108 0.787941
O O1 0.909906 0.456566 0.714803
O O2 0.062397 0.536760 0.587725
O O3 0.077857 0.247118 0.011742
O O4 0.000000 0.318517 0.250000
O O5 0.246788 0.314653 0.992928
O O6 0.074968 0.363155 0.958405
O O7 0.095803 0.862957 0.439055
O O8 0.000000 0.825633 0.750000
O O9 0.229031 0.932167 0.660574
O O10 0.000000 0.893258 0.250000
O O11 0.937897 0.945134 0.528197
O O12 0.151345 0.964341 0.279286
O O13 0.000000 0.968231 0.750000
#
# Coordination Sequence:
#
# PCOD9279282 Si02
#       6
#     4   8   8   8   8   8
#     4  10  26  36  58  84 114 166 190 234 294 352
#     4  10  21  38  64  85 113 158 206 237 287 349
#     4  10  21  39  63  86 114 159 201 241 287 357
#     4  11  22  42  57  86 120 153 198 242 288 358
#     4  10  21  35  55  96 117 147 189 243 306 341
#     4  10  22  36  61  88 118 155 188 244 300 354
#
# _framework density 18.993628999999999
#
# number of rings (size 3 to 8) (size 9 to 14) (size 15 to 20)
#    0.000    1.818    0.909    2.727   10.182    0.727 
#    1.636    0.000    0.000    4.364    0.000    0.000 
#    0.000    0.000    0.000    0.000    0.000    0.000 
#
# Total GULP energy -122713.120418 kJ/mol
# GULP energy per Si atom -5577.869110 kJ/mol
# Density = 1.895040 g / cm^3
# Si number density = 18.993629 Si / 1000 Ang^3
#
#
#
# Elastic Constant Matrix: (Units=GPa)
#
#
# Indices 1 2 3 4 5 6 
#
# 1 55.9687 21.6630 30.2103 0.0000 2.5541 0.0000
# 2 21.6630 139.0552 25.4187 0.0000 18.7828 0.0000
# 3 30.2103 25.4187 63.1389 0.0000 9.6494 0.0000
# 4 0.0000 0.0000 0.0000 146.8141 0.0000 -50.5525
# 5 2.5541 18.7828 9.6494 0.0000 34.5939 0.0000
# 6 0.0000 0.0000 0.0000 -50.5525 0.0000 31.2481
#
#
#
# Elastic Compliance Matrix: (Units=1/GPa)
#
#
# Indices 1 2 3 4 5 6 
#
# 1 0.024695 -0.002109 -0.011347 0.000000 0.002487 0.000000
# 2 -0.002109 0.008369 -0.001765 0.000000 -0.003896 0.000000
# 3 -0.011347 -0.001765 0.022670 0.000000 -0.004527 0.000000
# 4 0.000000 0.000000 0.000000 0.015377 0.000000 0.024877
# 5 0.002487 -0.003896 -0.004527 0.000000 0.032101 0.000000
# 6 0.000000 0.000000 0.000000 0.024877 0.000000 0.072247
#
#
# Mechanical properties :
#
#
# Convention : Reuss Voigt Hill
#
# Bulk Modulus (GPa) = 39.53775 45.86074 42.69925
# Shear Modulus (GPa) = 23.32851 54.58928 38.95889
#
# Velocity S-wave (km/s) = 3.50841 5.36686 4.53388
# Velocity P-wave (km/s) = 6.10520 7.91215 7.06666
#
# Compressibility (1/GPa) = 0.02529228
#
# Stress axis : x y z
#
# Youngs Moduli (GPa) = 40.49480 119.49250 44.11201
#
# Poissons Ratio (x) = 0.25199 0.50053
# Poissons Ratio (y) = 0.08540 0.07784
# Poissons Ratio (z) = 0.45948 0.21087
#
# Static dielectric constant tensor:
#      x y z
#    x 1.672630 0.000000 -0.027280 
#    y 0.000000 1.703990 0.000000 
#    z -0.027280 0.000000 1.672940 
# 
# From -- ./inp_files/31855.got.cif
#   From: 2010.05.17/outbox.cif.g08.bks.cpg/sg15_16_cif.got.tgz:31855.got - 2010.06.03 18:47:42.
