data_PCOD9279772
_publ_section_title
;
Structure prediction by ZEFSAII (Michael W. Deem and Ramdas Pophale) SiO2 
 PCOD9279772
Probable space group: C 2/C
;
_chemical_formula_sum "Si O2"
_cell_formula_units_Z 56
_cell_length_a 21.128095
_cell_length_b 20.253881
_cell_length_c 13.541444
_cell_angle_alpha 90.000000
_cell_angle_beta 156.001201
_cell_angle_gamma 90.000000
_cell_volume 2356.820059
_symmetry_space_group_name_H-M "C 2/C"
_symmetry_group_IT_number 15
_symmetry_cell_setting 'monoclinic'
loop_
_space_group_symop_operation_xyz
x,y,z
-x,y,1/2-z
-x,-y,-z
x,-y,1/2+z
1/2+x,1/2+y,z
1/2-x,1/2+y,1/2-z
1/2-x,1/2-y,-z
1/2+x,1/2-y,1/2+z
loop_
_atom_site_type_symbol
_atom_site_label
_atom_site_fract_x
_atom_site_fract_y
_atom_site_fract_z
Si Si1 0.500000 0.108051 0.750000
Si Si2 0.549421 0.324111 0.040335
Si Si3 0.236316 0.828838 0.490620
Si Si4 0.181183 0.933014 0.807362
Si Si5 0.805122 0.408550 0.292885
Si Si6 0.428775 0.831889 0.945781
Si Si7 0.427492 0.521648 0.551223
Si Si8 0.000000 0.408811 0.750000
O O1 0.358696 0.065720 0.591389
O O2 0.573795 0.150888 0.942919
O O3 0.588829 0.344625 0.210551
O O4 0.694203 0.352133 0.182569
O O5 0.399615 0.362686 0.787358
O O6 0.535826 0.245886 0.014747
O O7 0.250000 0.750000 0.500000
O O8 0.379139 0.863271 0.637491
O O9 0.273452 0.844312 0.658064
O O10 0.074834 0.987895 0.706595
O O11 0.164663 0.942994 0.666609
O O12 0.932094 0.374962 0.404035
O O13 0.897652 0.441367 0.517628
O O14 0.690042 0.462730 0.082822
O O15 0.500000 0.555885 0.750000
#
# Coordination Sequence:
#
# PCOD9279772 Si02
#       8
#     4   8   8   8   8   8   8   4
#     4  12  26  41  54  92 134 160 201 252 304 366
#     4   9  19  37  61  88 119 162 203 251 307 361
#     4   8  15  31  52  80 111 152 197 239 285 346
#     4  10  24  42  61  88 125 157 203 258 302 359
#     4   9  18  35  61  89 117 159 207 246 302 365
#     4  10  21  36  58  89 131 164 199 244 307 368
#     4  10  21  43  68  87 112 159 213 253 301 363
#     4   8  14  27  52  82 114 142 189 246 288 346
#
# _framework density 23.760829999999999
#
# number of rings (size 3 to 8) (size 9 to 14) (size 15 to 20)
#    0.000    2.571    0.000    0.857    2.000    2.286 
#    7.714    5.714    1.571    0.000    0.000    0.000 
#    0.000    0.000    0.000    0.000    0.000    0.000 
#
# Total GULP energy -156390.456641 kJ/mol
# GULP energy per Si atom -5585.373451 kJ/mol
# Density = 2.370675 g / cm^3
# Si number density = 23.760830 Si / 1000 Ang^3
#
#
#
# Elastic Constant Matrix: (Units=GPa)
#
#
# Indices 1 2 3 4 5 6 
#
# 1 76.9249 12.9253 27.6694 0.0000 -24.4476 0.0000
# 2 12.9253 44.6314 21.4698 0.0000 0.5782 0.0000
# 3 27.6694 21.4698 117.1384 0.0000 0.2805 0.0000
# 4 0.0000 0.0000 0.0000 27.9703 0.0000 -9.9970
# 5 -24.4476 0.5782 0.2805 0.0000 36.3449 0.0000
# 6 0.0000 0.0000 0.0000 -9.9970 0.0000 19.1802
#
#
#
# Elastic Compliance Matrix: (Units=1/GPa)
#
#
# Indices 1 2 3 4 5 6 
#
# 1 0.019158 -0.003865 -0.003848 0.000000 0.012978 0.000000
# 2 -0.003865 0.025357 -0.003727 0.000000 -0.002975 0.000000
# 3 -0.003848 -0.003727 0.010135 0.000000 -0.002607 0.000000
# 4 0.000000 0.000000 0.000000 0.043937 0.000000 0.022901
# 5 0.012978 -0.002975 -0.002607 0.000000 0.036311 0.000000
# 6 0.000000 0.000000 0.000000 0.022901 0.000000 0.064074
#
#
# Mechanical properties :
#
#
# Convention : Reuss Voigt Hill
#
# Bulk Modulus (GPa) = 31.47758 40.31375 35.89566
# Shear Modulus (GPa) = 21.51072 28.47442 24.99257
#
# Velocity S-wave (km/s) = 3.01209 3.46551 3.24673
# Velocity P-wave (km/s) = 5.03719 5.74599 5.40322
#
# Compressibility (1/GPa) = 0.03176865
#
# Stress axis : x y z
#
# Youngs Moduli (GPa) = 52.19837 39.43736 98.66554
#
# Poissons Ratio (x) = 0.15243 0.37966
# Poissons Ratio (y) = 0.20176 0.36777
# Poissons Ratio (z) = 0.20085 0.14700
#
# Static dielectric constant tensor:
#      x y z
#    x 1.860340 0.000000 -0.043580 
#    y 0.000000 1.853380 0.000000 
#    z -0.043580 0.000000 1.887820 
# 
# From -- ./inp_files/174794.got.cif
#   From: 2010.05.17/outbox.cif.g08.bks.cpg/sg15_88_cif.got.tgz:174794.got - 2010.06.03 18:47:42.
