data_PCOD9279316
_publ_section_title
;
Structure prediction by ZEFSAII (Michael W. Deem and Ramdas Pophale) SiO2 
 PCOD9279316
Probable space group: C 2/C
;
_chemical_formula_sum "Si O2"
_cell_formula_units_Z 56
_cell_length_a 21.724136
_cell_length_b 12.641030
_cell_length_c 19.542060
_cell_angle_alpha 90.000000
_cell_angle_beta 145.359119
_cell_angle_gamma 90.000000
_cell_volume 3050.513891
_symmetry_space_group_name_H-M "C 2/C"
_symmetry_group_IT_number 15
_symmetry_cell_setting 'monoclinic'
loop_
_space_group_symop_operation_xyz
x,y,z
-x,y,1/2-z
-x,-y,-z
x,-y,1/2+z
1/2+x,1/2+y,z
1/2-x,1/2+y,1/2-z
1/2-x,1/2-y,-z
1/2+x,1/2-y,1/2+z
loop_
_atom_site_type_symbol
_atom_site_label
_atom_site_fract_x
_atom_site_fract_y
_atom_site_fract_z
Si Si1 0.791587 0.926169 0.669969
Si Si2 0.510879 0.309237 0.895432
Si Si3 0.212193 0.133812 0.487349
Si Si4 0.058106 0.592498 0.133047
Si Si5 0.432551 0.089348 0.757723
Si Si6 0.175181 0.748139 0.153636
Si Si7 0.163945 0.409427 0.135744
O O1 0.789479 0.928506 0.585824
O O2 0.712107 0.836342 0.629327
O O3 0.909026 0.886880 0.801009
O O4 0.750070 0.034134 0.664973
O O5 0.597276 0.351640 0.918728
O O6 0.470255 0.190454 0.837792
O O7 0.573935 0.305000 0.024924
O O8 0.250000 0.250000 0.500000
O O9 0.305152 0.094641 0.623790
O O10 0.044505 0.525868 0.189645
O O11 0.137865 0.688949 0.188819
O O12 0.110361 0.500168 0.133573
O O13 0.939843 0.630170 0.000902
O O14 0.500000 0.101952 0.750000
O O15 0.273607 0.824331 0.262057
#
# Coordination Sequence:
#
# PCOD9279316 Si02
#       7
#     8   8   8   8   8   8   8
#     4  11  21  34  53  82 113 145 180 225 279 330
#     4  12  20  31  54  83 116 142 177 227 287 334
#     4  12  20  32  53  85 115 145 173 226 284 331
#     4  10  21  35  57  81 105 146 187 226 270 330
#     4  12  20  33  56  82 111 142 183 229 277 332
#     4  11  21  36  54  79 111 148 187 226 271 324
#     4  10  21  37  55  77 112 145 184 228 272 327
#
# _framework density 18.357561
#
# number of rings (size 3 to 8) (size 9 to 14) (size 15 to 20)
#    0.000    0.857    4.286    6.429    0.000    0.571 
#    0.000    1.429    0.000    5.143    0.000    0.000 
#    0.000    0.000    0.000    0.000    0.000    0.000 
#
# Total GULP energy -156253.089316 kJ/mol
# GULP energy per Si atom -5580.467476 kJ/mol
# Density = 1.831578 g / cm^3
# Si number density = 18.357561 Si / 1000 Ang^3
#
#
#
# Elastic Constant Matrix: (Units=GPa)
#
#
# Indices 1 2 3 4 5 6 
#
# 1 64.0382 28.1538 15.8566 0.0000 12.0812 0.0000
# 2 28.1538 39.8764 32.2211 0.0000 -1.8793 0.0000
# 3 15.8566 32.2211 115.2038 0.0000 10.3007 0.0000
# 4 0.0000 0.0000 0.0000 13.6398 0.0000 -0.4311
# 5 12.0812 -1.8793 10.3007 0.0000 32.2058 0.0000
# 6 0.0000 0.0000 0.0000 -0.4311 0.0000 24.9731
#
#
#
# Elastic Compliance Matrix: (Units=1/GPa)
#
#
# Indices 1 2 3 4 5 6 
#
# 1 0.027090 -0.022777 0.003777 0.000000 -0.012699 0.000000
# 2 -0.022777 0.052328 -0.012907 0.000000 0.015726 0.000000
# 3 0.003777 -0.012907 0.012316 0.000000 -0.006109 0.000000
# 4 0.000000 0.000000 0.000000 0.073355 0.000000 0.001266
# 5 -0.012699 0.015726 -0.006109 0.000000 0.038686 0.000000
# 6 0.000000 0.000000 0.000000 0.001266 0.000000 0.040065
#
#
# Mechanical properties :
#
#
# Convention : Reuss Voigt Hill
#
# Bulk Modulus (GPa) = 35.81360 41.28679 38.55020
# Shear Modulus (GPa) = 15.77487 23.68953 19.73220
#
# Velocity S-wave (km/s) = 2.93458 3.59618 3.28210
# Velocity P-wave (km/s) = 5.57078 6.30734 5.95047
#
# Compressibility (1/GPa) = 0.02792236
#
# Stress axis : x y z
#
# Youngs Moduli (GPa) = 36.91445 19.11009 81.19201
#
# Poissons Ratio (x) = 0.43526 -0.30668
# Poissons Ratio (y) = 0.84078 1.04792
# Poissons Ratio (z) = -0.13943 0.24665
#
# Static dielectric constant tensor:
#      x y z
#    x 1.675640 0.000000 -0.016130 
#    y 0.000000 1.622750 0.000000 
#    z -0.016130 0.000000 1.681200 
# 
# From -- ./inp_files/255425.got.cif
#   From: 2010.05.17/outbox.cif.g08.bks.cpg/sg15_128_cif.got.tgz:255425.got - 2010.06.03 18:47:42.
