data_PCOD9279892
_publ_section_title
;
Structure prediction by ZEFSAII (Michael W. Deem and Ramdas Pophale) SiO2 
 PCOD9279892
Probable space group: C 2/C
;
_chemical_formula_sum "Si O2"
_cell_formula_units_Z 48
_cell_length_a 22.832674
_cell_length_b 24.258761
_cell_length_c 5.224906
_cell_angle_alpha 90.000000
_cell_angle_beta 104.964633
_cell_angle_gamma 90.000000
_cell_volume 2795.885578
_symmetry_space_group_name_H-M "C 2/C"
_symmetry_group_IT_number 15
_symmetry_cell_setting 'monoclinic'
loop_
_space_group_symop_operation_xyz
x,y,z
-x,y,1/2-z
-x,-y,-z
x,-y,1/2+z
1/2+x,1/2+y,z
1/2-x,1/2+y,1/2-z
1/2-x,1/2-y,-z
1/2+x,1/2-y,1/2+z
loop_
_atom_site_type_symbol
_atom_site_label
_atom_site_fract_x
_atom_site_fract_y
_atom_site_fract_z
Si Si1 0.295705 0.699747 0.104457
Si Si2 0.000000 0.683094 0.250000
Si Si3 0.411421 0.116288 0.483607
Si Si4 0.500000 0.964280 0.250000
Si Si5 0.374552 0.206465 0.838760
Si Si6 0.175046 0.538900 0.414714
Si Si7 0.743081 0.148502 0.559007
O O1 0.357776 0.733118 0.215206
O O2 0.274549 0.671082 0.340390
O O3 0.250000 0.750000 0.000000
O O4 0.285870 0.660246 0.851547
O O5 0.969159 0.646156 0.430384
O O6 0.060055 0.709766 0.447610
O O7 0.438917 0.070864 0.700156
O O8 0.375721 0.161526 0.608675
O O9 0.378688 0.081646 0.223925
O O10 0.500000 0.000000 0.500000
O O11 0.319848 0.183355 0.958562
O O12 0.175442 0.502888 0.673508
O O13 0.228400 0.415869 0.005305
#
# Coordination Sequence:
#
# PCOD9279892 Si02
#       7
#     8   4   8   4   8   8   8
#     4  10  21  36  61  82 101 138 184 240 290 344
#     4  12  23  36  56  74 118 152 188 239 276 316
#     4  12  24  38  49  77 108 151 199 238 276 322
#     4  12  25  38  50  66 100 152 206 245 268 298
#     4  11  22  37  57  79 110 146 192 235 295 333
#     4  12  24  38  58  78 108 149 193 243 287 319
#     4  11  22  39  58  80 108 137 190 243 281 340
#
# _framework density 17.168085999999999
#
# number of rings (size 3 to 8) (size 9 to 14) (size 15 to 20)
#    0.000    0.667    3.333    7.500    2.333    0.000 
#    0.000    0.000    0.000    0.000    0.000    0.000 
#    0.000    0.000    0.000   15.000    0.000    0.167 
#
# Total GULP energy -133898.145702 kJ/mol
# GULP energy per Si atom -5579.089404 kJ/mol
# Density = 1.712901 g / cm^3
# Si number density = 17.168086 Si / 1000 Ang^3
#
#
#
# Elastic Constant Matrix: (Units=GPa)
#
#
# Indices 1 2 3 4 5 6 
#
# 1 55.8397 50.1391 53.1227 0.0000 10.9127 0.0000
# 2 50.1391 82.5291 60.4373 0.0000 11.2899 0.0000
# 3 53.1227 60.4373 150.0361 0.0000 1.6974 0.0000
# 4 0.0000 0.0000 0.0000 35.2367 0.0000 73.0553
# 5 10.9127 11.2899 1.6974 0.0000 31.5557 0.0000
# 6 0.0000 0.0000 0.0000 73.0553 0.0000 -506.3840
#
#
#
# Elastic Compliance Matrix: (Units=1/GPa)
#
#
# Indices 1 2 3 4 5 6 
#
# 1 0.045527 -0.021066 -0.007545 0.000000 -0.007801 0.000000
# 2 -0.021066 0.028057 -0.003814 0.000000 -0.002548 0.000000
# 3 -0.007545 -0.003814 0.010835 0.000000 0.003391 0.000000
# 4 0.000000 0.000000 0.000000 0.021845 0.000000 0.003152
# 5 -0.007801 -0.002548 0.003391 0.000000 0.035117 0.000000
# 6 0.000000 0.000000 0.000000 0.003152 0.000000 -0.001520
#
#
# Mechanical properties :
#
#
# Convention : Reuss Voigt Hill
#
# Bulk Modulus (GPa) = 51.10658 68.42257 59.76457
# Shear Modulus (GPa) = 23.67031 -79.60460 -27.96714
#
# Velocity S-wave (km/s) = 3.71717 -6.81678 -4.04049
# Velocity P-wave (km/s) = 6.94666 4.69222 3.62210
#
# Compressibility (1/GPa) = 0.01956695
#
# Stress axis : x y z
#
# Youngs Moduli (GPa) = 21.96505 35.64161 92.29583
#
# Poissons Ratio (x) = 0.75083 0.69641
# Poissons Ratio (y) = 0.46272 0.35204
# Poissons Ratio (z) = 0.16574 0.13595
#
# Static dielectric constant tensor:
#      x y z
#    x 1.622610 0.000000 0.016470 
#    y 0.000000 1.633240 0.000000 
#    z 0.016470 0.000000 1.665840 
# 
# From -- ./inp_files/13255.got.cif
#   From: 2010.05.17/outbox.cif.g08.bks.cpg/sg15_7_cif.got.tgz:13255.got - 2010.06.03 18:47:42.
