data_PCOD9279209
_publ_section_title
;
Structure prediction by ZEFSAII (Michael W. Deem and Ramdas Pophale) SiO2 
 PCOD9279209
Probable space group: C 2/C
;
_chemical_formula_sum "Si O2"
_cell_formula_units_Z 48
_cell_length_a 26.178103
_cell_length_b 6.611769
_cell_length_c 8.907486
_cell_angle_alpha 90.000000
_cell_angle_beta 104.656601
_cell_angle_gamma 90.000000
_cell_volume 1491.570788
_symmetry_space_group_name_H-M "C 2/C"
_symmetry_group_IT_number 15
_symmetry_cell_setting 'monoclinic'
loop_
_space_group_symop_operation_xyz
x,y,z
-x,y,1/2-z
-x,-y,-z
x,-y,1/2+z
1/2+x,1/2+y,z
1/2-x,1/2+y,1/2-z
1/2-x,1/2-y,-z
1/2+x,1/2-y,1/2+z
loop_
_atom_site_type_symbol
_atom_site_label
_atom_site_fract_x
_atom_site_fract_y
_atom_site_fract_z
Si Si1 0.251682 0.519488 0.738467
Si Si2 0.464133 0.933417 0.610180
Si Si3 0.826013 0.616956 0.072743
Si Si4 0.106020 0.632905 0.713734
Si Si5 0.836613 0.121867 0.065498
Si Si6 0.633192 0.374000 0.194212
O O1 0.200161 0.608891 0.615069
O O2 0.279507 0.383031 0.631385
O O3 0.305954 0.613234 0.858711
O O4 0.225666 0.392888 0.853041
O O5 0.500000 0.206339 0.250000
O O6 0.411547 0.862647 0.479308
O O7 0.555594 0.901846 0.284901
O O8 0.500000 0.000000 0.500000
O O9 0.876370 0.628198 0.269773
O O10 0.844205 0.376483 0.103886
O O11 0.839352 0.862728 0.104397
O O12 0.122055 0.884854 0.736272
O O13 0.890552 0.118287 0.988067
#
# Coordination Sequence:
#
# PCOD9279209 Si02
#       6
#     8   8   8   8   8   8
#     4  10  21  35  51  75 121 175 208 245 279 317
#     4   9  20  41  66  92 119 140 183 251 332 382
#     4  12  22  34  57  82 125 162 222 239 283 341
#     4  11  22  37  61  98 115 151 196 262 297 363
#     4  10  22  37  54  79 124 157 215 239 294 333
#     4  10  22  37  50  78 114 177 207 244 283 328
#
# _framework density 32.180838000000001
#
# number of rings (size 3 to 8) (size 9 to 14) (size 15 to 20)
#    1.000    0.667    1.667    3.500    2.333    4.000 
#    0.000    0.000    0.000    0.000    0.000   73.500 
#    0.000    0.000    0.000    0.000    0.000    0.000 
#
# Total GULP energy -133668.616672 kJ/mol
# GULP energy per Si atom -5569.525695 kJ/mol
# Density = 3.210759 g / cm^3
# Si number density = 32.180838 Si / 1000 Ang^3
#
#
#
# Elastic Constant Matrix: (Units=GPa)
#
#
# Indices 1 2 3 4 5 6 
#
# 1 91.6669 73.3493 41.6746 0.0000 8.9360 0.0000
# 2 73.3493 303.2906 164.5462 0.0000 5.0419 0.0000
# 3 41.6746 164.5462 396.7847 0.0000 12.1441 0.0000
# 4 0.0000 0.0000 0.0000 115.0307 0.0000 -29.2486
# 5 8.9360 5.0419 12.1441 0.0000 87.3922 0.0000
# 6 0.0000 0.0000 0.0000 -29.2486 0.0000 -1.0420
#
#
#
# Elastic Compliance Matrix: (Units=1/GPa)
#
#
# Indices 1 2 3 4 5 6 
#
# 1 0.013653 -0.003257 -0.000047 0.000000 -0.001202 0.000000
# 2 -0.003257 0.005031 -0.001753 0.000000 0.000286 0.000000
# 3 -0.000047 -0.001753 0.003263 0.000000 -0.000347 0.000000
# 4 0.000000 0.000000 0.000000 0.001068 0.000000 -0.029988
# 5 -0.001202 0.000286 -0.000347 0.000000 0.011597 0.000000
# 6 0.000000 0.000000 0.000000 -0.029988 0.000000 -0.117939
#
#
# Mechanical properties :
#
#
# Convention : Reuss Voigt Hill
#
# Bulk Modulus (GPa) = 84.50009 150.09804 117.29907
# Shear Modulus (GPa) = -72.18326 74.42099 1.11886
#
# Velocity S-wave (km/s) = -4.74122 4.81415 0.59028
# Velocity P-wave (km/s) = 1.91243 8.81163 6.08224
#
# Compressibility (1/GPa) = 0.01183431
#
# Stress axis : x y z
#
# Youngs Moduli (GPa) = 73.24212 198.76154 306.48351
#
# Poissons Ratio (x) = 0.64730 0.01431
# Poissons Ratio (y) = 0.23853 0.53730
# Poissons Ratio (z) = 0.00342 0.34845
#
# Static dielectric constant tensor:
#      x y z
#    x 2.651090 0.000000 0.128830 
#    y 0.000000 2.697400 0.000000 
#    z 0.128830 0.000000 2.644060 
# 
# From -- ./inp_files/121165.got.cif
#   From: 2010.05.17/outbox.cif.g08.bks.cpg/sg15_61_cif.got.tgz:121165.got - 2010.06.03 18:47:42.
