data_PCOD9279644
_publ_section_title
;
Structure prediction by ZEFSAII (Michael W. Deem and Ramdas Pophale) SiO2 
 PCOD9279644
Probable space group: C 2/C
;
_chemical_formula_sum "Si O2"
_cell_formula_units_Z 48
_cell_length_a 8.594270
_cell_length_b 18.401011
_cell_length_c 17.040173
_cell_angle_alpha 90.000000
_cell_angle_beta 59.179831
_cell_angle_gamma 90.000000
_cell_volume 2314.229342
_symmetry_space_group_name_H-M "C 2/C"
_symmetry_group_IT_number 15
_symmetry_cell_setting 'monoclinic'
loop_
_space_group_symop_operation_xyz
x,y,z
-x,y,1/2-z
-x,-y,-z
x,-y,1/2+z
1/2+x,1/2+y,z
1/2-x,1/2+y,1/2-z
1/2-x,1/2-y,-z
1/2+x,1/2-y,1/2+z
loop_
_atom_site_type_symbol
_atom_site_label
_atom_site_fract_x
_atom_site_fract_y
_atom_site_fract_z
Si Si1 0.284721 0.080438 0.505418
Si Si2 0.951257 0.369634 0.344236
Si Si3 0.050050 0.117501 0.004432
Si Si4 0.352133 0.364656 0.843100
Si Si5 0.848979 0.500111 0.645124
Si Si6 0.497234 0.211227 0.997230
O O1 0.258073 0.044658 0.597260
O O2 0.344469 0.164324 0.502961
O O3 0.113450 0.074281 0.493432
O O4 0.461501 0.037609 0.429361
O O5 0.742798 0.393601 0.411308
O O6 0.986647 0.319925 0.411329
O O7 0.000000 0.333031 0.250000
O O8 0.087267 0.438841 0.311375
O O9 0.077506 0.106483 0.090540
O O10 0.998823 0.202678 0.007140
O O11 0.500000 0.328442 0.750000
O O12 0.279442 0.431751 0.808813
O O13 0.186176 0.313211 0.910788
#
# Coordination Sequence:
#
# PCOD9279644 Si02
#       6
#     8   8   8   8   8   8
#     4   9  18  36  57  78 109 143 176 221 268 313
#     4  10  21  36  56  79 107 142 177 219 266 316
#     4  11  21  33  58  83 102 142 187 213 260 327
#     4  10  21  36  56  79 107 142 177 219 266 316
#     4   9  20  36  52  77 114 142 172 223 272 305
#     4   9  20  38  55  79 111 140 173 223 271 307
#
# _framework density 20.741246
#
# number of rings (size 3 to 8) (size 9 to 14) (size 15 to 20)
#    0.000    2.333    0.000    5.500    0.000    8.000 
#    0.000    5.000    0.000    8.000    0.000    0.000 
#    0.000    0.000    0.000    0.000    0.000    0.000 
#
# Total GULP energy -133864.608943 kJ/mol
# GULP energy per Si atom -5577.692039 kJ/mol
# Density = 2.069404 g / cm^3
# Si number density = 20.741246 Si / 1000 Ang^3
#
#
#
# Elastic Constant Matrix: (Units=GPa)
#
#
# Indices 1 2 3 4 5 6 
#
# 1 119.1996 18.8280 21.9771 0.0000 -0.4270 0.0000
# 2 18.8280 95.3098 6.2766 0.0000 -0.2802 0.0000
# 3 21.9771 6.2766 114.4874 0.0000 -3.4521 0.0000
# 4 0.0000 0.0000 0.0000 -4.4098 0.0000 -3.0384
# 5 -0.4270 -0.2802 -3.4521 0.0000 6.6121 0.0000
# 6 0.0000 0.0000 0.0000 -3.0384 0.0000 18.3329
#
#
#
# Elastic Compliance Matrix: (Units=1/GPa)
#
#
# Indices 1 2 3 4 5 6 
#
# 1 0.008953 -0.001662 -0.001638 0.000000 -0.000347 0.000000
# 2 -0.001662 0.010839 -0.000269 0.000000 0.000212 0.000000
# 3 -0.001638 -0.000269 0.009205 0.000000 0.004689 0.000000
# 4 0.000000 0.000000 0.000000 -0.203525 0.000000 -0.033732
# 5 -0.000347 0.000212 0.004689 0.000000 0.153672 0.000000
# 6 0.000000 0.000000 0.000000 -0.033732 0.000000 0.048956
#
#
# Mechanical properties :
#
#
# Convention : Reuss Voigt Hill
#
# Bulk Modulus (GPa) = 45.74689 47.01780 46.38234
# Shear Modulus (GPa) = 117.58401 22.90136 70.24269
#
# Velocity S-wave (km/s) = 7.53751 3.32647 5.82578
# Velocity P-wave (km/s) = 9.89221 6.12143 8.22580
#
# Compressibility (1/GPa) = 0.02185941
#
# Stress axis : x y z
#
# Youngs Moduli (GPa) = 111.70063 92.26206 108.63520
#
# Poissons Ratio (x) = 0.15331 0.17793
# Poissons Ratio (y) = 0.18561 0.02921
# Poissons Ratio (z) = 0.18296 0.02481
#
# Static dielectric constant tensor:
#      x y z
#    x 1.759150 0.000000 0.004000 
#    y 0.000000 1.796670 0.000000 
#    z 0.004000 0.000000 1.697610 
# 
# From -- ./inp_files/190250.got.cif
#   From: 2010.05.17/outbox.cif.g08.bks.cpg/sg15_96_cif.got.tgz:190250.got - 2010.06.03 18:47:42.
