data_PCOD9279597
_publ_section_title
;
Structure prediction by ZEFSAII (Michael W. Deem and Ramdas Pophale) SiO2 
 PCOD9279597
Probable space group: C 2/C
;
_chemical_formula_sum "Si O2"
_cell_formula_units_Z 32
_cell_length_a 7.424822
_cell_length_b 36.777777
_cell_length_c 5.319530
_cell_angle_alpha 90.000000
_cell_angle_beta 101.419212
_cell_angle_gamma 90.000000
_cell_volume 1423.841437
_symmetry_space_group_name_H-M "C 2/C"
_symmetry_group_IT_number 15
_symmetry_cell_setting 'monoclinic'
loop_
_space_group_symop_operation_xyz
x,y,z
-x,y,1/2-z
-x,-y,-z
x,-y,1/2+z
1/2+x,1/2+y,z
1/2-x,1/2+y,1/2-z
1/2-x,1/2-y,-z
1/2+x,1/2-y,1/2+z
loop_
_atom_site_type_symbol
_atom_site_label
_atom_site_fract_x
_atom_site_fract_y
_atom_site_fract_z
Si Si1 0.885956 0.217665 0.964496
Si Si2 0.776812 0.597271 0.189321
Si Si3 0.221929 0.360735 0.310686
Si Si4 0.710595 0.485708 0.758927
O O1 0.788039 0.180416 0.855677
O O2 0.000000 0.229487 0.750000
O O3 0.750000 0.250000 0.000000
O O4 0.000000 0.210160 0.250000
O O5 0.716667 0.616378 0.430121
O O6 0.713181 0.555757 0.170654
O O7 0.000000 0.596525 0.250000
O O8 0.716698 0.620192 0.930201
O O9 0.000000 0.360649 0.250000
O O10 0.500000 0.497709 0.750000
O O11 0.796266 0.509393 0.558628
#
# Coordination Sequence:
#
# PCOD9279597 Si02
#       4
#     8   8   8   8
#     4  12  26  44  68  98 130 168 212 256 311 372
#     4  10  21  37  60  87 117 157 202 252 307 363
#     4  10  22  41  62  89 125 161 203 255 309 366
#     4  10  21  36  54  80 115 155 198 248 304 361
#
# _framework density 22.474412999999998
#
# number of rings (size 3 to 8) (size 9 to 14) (size 15 to 20)
#    0.000    1.500    0.000    4.500    0.000    7.000 
#    0.000    0.000    0.000    0.000    0.000    0.000 
#    0.000    0.000    0.000    0.000    0.000    0.000 
#
# Total GULP energy -89551.620253 kJ/mol
# GULP energy per Si atom -5596.976266 kJ/mol
# Density = 2.242326 g / cm^3
# Si number density = 22.474413 Si / 1000 Ang^3
#
#
#
# Elastic Constant Matrix: (Units=GPa)
#
#
# Indices 1 2 3 4 5 6 
#
# 1 48.8120 15.7278 48.3148 0.0000 -6.6972 0.0000
# 2 15.7278 161.8230 81.9422 0.0000 -11.0794 0.0000
# 3 48.3148 81.9422 229.5633 0.0000 -19.4514 0.0000
# 4 0.0000 0.0000 0.0000 31.8304 0.0000 -13.0543
# 5 -6.6972 -11.0794 -19.4514 0.0000 29.8439 0.0000
# 6 0.0000 0.0000 0.0000 -13.0543 0.0000 84.1585
#
#
#
# Elastic Compliance Matrix: (Units=1/GPa)
#
#
# Indices 1 2 3 4 5 6 
#
# 1 0.026058 0.000375 -0.005410 0.000000 0.002461 0.000000
# 2 0.000375 0.007583 -0.002689 0.000000 0.001147 0.000000
# 3 -0.005410 -0.002689 0.006633 0.000000 0.002111 0.000000
# 4 0.000000 0.000000 0.000000 0.033551 0.000000 0.005204
# 5 0.002461 0.001147 0.002111 0.000000 0.035862 0.000000
# 6 0.000000 0.000000 0.000000 0.005204 0.000000 0.012690
#
#
# Mechanical properties :
#
#
# Convention : Reuss Voigt Hill
#
# Bulk Modulus (GPa) = 40.27667 81.35200 60.81433
# Shear Modulus (GPa) = 34.22339 48.78079 41.50209
#
# Velocity S-wave (km/s) = 3.90650 4.66392 4.30191
# Velocity P-wave (km/s) = 6.18932 8.07955 7.19676
#
# Compressibility (1/GPa) = 0.02482827
#
# Stress axis : x y z
#
# Youngs Moduli (GPa) = 38.37579 131.87311 150.75687
#
# Poissons Ratio (x) = -0.04947 0.81555
# Poissons Ratio (y) = -0.01440 0.40531
# Poissons Ratio (z) = 0.20760 0.35454
#
# Static dielectric constant tensor:
#      x y z
#    x 1.879830 0.000000 0.008220 
#    y 0.000000 1.755020 0.000000 
#    z 0.008220 0.000000 1.965090 
# 
# From -- ./inp_files/2352.got.cif
#   From: 2010.05.17/outbox.cif.g08.bks.cpg/sg15_2_cif.got.tgz:2352.got - 2010.06.03 18:47:42.
