data_PCOD9279232
_publ_section_title
;
Structure prediction by ZEFSAII (Michael W. Deem and Ramdas Pophale) SiO2 
 PCOD9279232
Probable space group: C 2/C
;
_chemical_formula_sum "Si O2"
_cell_formula_units_Z 52
_cell_length_a 22.784291
_cell_length_b 11.144796
_cell_length_c 9.719854
_cell_angle_alpha 90.000000
_cell_angle_beta 90.266012
_cell_angle_gamma 90.000000
_cell_volume 2468.099721
_symmetry_space_group_name_H-M "C 2/C"
_symmetry_group_IT_number 15
_symmetry_cell_setting 'monoclinic'
loop_
_space_group_symop_operation_xyz
x,y,z
-x,y,1/2-z
-x,-y,-z
x,-y,1/2+z
1/2+x,1/2+y,z
1/2-x,1/2+y,1/2-z
1/2-x,1/2-y,-z
1/2+x,1/2-y,1/2+z
loop_
_atom_site_type_symbol
_atom_site_label
_atom_site_fract_x
_atom_site_fract_y
_atom_site_fract_z
Si Si1 0.000000 0.509120 0.250000
Si Si2 0.318277 0.987599 0.407625
Si Si3 0.881645 0.144886 0.528057
Si Si4 0.703377 0.742275 0.204130
Si Si5 0.330333 0.762292 0.779795
Si Si6 0.311236 0.414691 0.529420
Si Si7 0.565443 0.872529 0.007390
O O1 0.040303 0.428099 0.149018
O O2 0.033093 0.587051 0.367476
O O3 0.308091 0.884374 0.293245
O O4 0.368126 0.927226 0.503595
O O5 0.344609 0.111470 0.349636
O O6 0.252672 0.019730 0.461252
O O7 0.830782 0.187952 0.423746
O O8 0.875257 0.197161 0.681264
O O9 0.935019 0.227680 0.476334
O O10 0.866735 0.004697 0.532752
O O11 0.771972 0.717904 0.189674
O O12 0.684779 0.673320 0.340519
O O13 0.312400 0.667667 0.896050
#
# Coordination Sequence:
#
# PCOD9279232 Si02
#       7
#     4   8   8   8   8   8   8
#     4  10  22  46  64  98 124 150 224 294 324 358
#     4  10  21  36  60  90 124 168 214 243 316 377
#     4  11  22  37  57  88 121 172 202 246 314 385
#     4  10  21  35  53  80 124 174 207 244 285 362
#     4  11  22  34  53  85 130 174 205 248 286 367
#     4  11  23  37  54  88 138 171 207 242 297 390
#     4  10  23  40  68  92 122 158 208 281 328 363
#
# _framework density 21.068840999999999
#
# number of rings (size 3 to 8) (size 9 to 14) (size 15 to 20)
#    0.000    1.538    1.538    4.154    4.308    7.385 
#    0.000    0.000    0.000    0.000    0.000   61.385 
#    0.000    0.000    0.000    0.000    0.000    0.000 
#
# Total GULP energy -144971.684390 kJ/mol
# GULP energy per Si atom -5575.834015 kJ/mol
# Density = 2.102089 g / cm^3
# Si number density = 21.068841 Si / 1000 Ang^3
#
#
#
# Elastic Constant Matrix: (Units=GPa)
#
#
# Indices 1 2 3 4 5 6 
#
# 1 38.7930 33.0250 30.2328 0.0000 -0.8483 0.0000
# 2 33.0250 86.3351 19.6461 0.0000 -2.4223 0.0000
# 3 30.2328 19.6461 95.6006 0.0000 -4.9157 0.0000
# 4 0.0000 0.0000 0.0000 25.0930 0.0000 -6.0161
# 5 -0.8483 -2.4223 -4.9157 0.0000 24.6626 0.0000
# 6 0.0000 0.0000 0.0000 -6.0161 0.0000 20.7002
#
#
#
# Elastic Compliance Matrix: (Units=1/GPa)
#
#
# Indices 1 2 3 4 5 6 
#
# 1 0.048921 -0.015978 -0.012307 0.000000 -0.002340 0.000000
# 2 -0.015978 0.017382 0.001556 0.000000 0.001468 0.000000
# 3 -0.012307 0.001556 0.014164 0.000000 0.002553 0.000000
# 4 0.000000 0.000000 0.000000 0.042837 0.000000 0.012450
# 5 -0.002340 0.001468 0.002553 0.000000 0.041120 0.000000
# 6 0.000000 0.000000 0.000000 0.012450 0.000000 0.051927
#
#
# Mechanical properties :
#
#
# Convention : Reuss Voigt Hill
#
# Bulk Modulus (GPa) = 37.02641 42.94850 39.98746
# Shear Modulus (GPa) = 17.93334 23.27948 20.60641
#
# Velocity S-wave (km/s) = 2.92066 3.32765 3.13077
# Velocity P-wave (km/s) = 5.38385 5.93240 5.66477
#
# Compressibility (1/GPa) = 0.02700775
#
# Stress axis : x y z
#
# Youngs Moduli (GPa) = 20.44124 57.53148 70.60303
#
# Poissons Ratio (x) = 0.91925 0.86894
# Poissons Ratio (y) = 0.32661 -0.10989
# Poissons Ratio (z) = 0.25158 -0.08954
#
# Static dielectric constant tensor:
#      x y z
#    x 1.828700 0.000000 -0.034730 
#    y 0.000000 1.823330 0.000000 
#    z -0.034730 0.000000 1.791190 
# 
# From -- ./inp_files/65179.got.cif
#   From: 2010.05.17/outbox.cif.g08.bks.cpg/sg15_33_cif.got.tgz:65179.got - 2010.06.03 18:47:42.
