data_PCOD9279445
_publ_section_title
;
Structure prediction by ZEFSAII (Michael W. Deem and Ramdas Pophale) SiO2 
 PCOD9279445
Probable space group: C 2/C
;
_chemical_formula_sum "Si O2"
_cell_formula_units_Z 64
_cell_length_a 19.491414
_cell_length_b 11.913699
_cell_length_c 15.307693
_cell_angle_alpha 90.000000
_cell_angle_beta 102.820999
_cell_angle_gamma 90.000000
_cell_volume 3466.048677
_symmetry_space_group_name_H-M "C 2/C"
_symmetry_group_IT_number 15
_symmetry_cell_setting 'monoclinic'
loop_
_space_group_symop_operation_xyz
x,y,z
-x,y,1/2-z
-x,-y,-z
x,-y,1/2+z
1/2+x,1/2+y,z
1/2-x,1/2+y,1/2-z
1/2-x,1/2-y,-z
1/2+x,1/2-y,1/2+z
loop_
_atom_site_type_symbol
_atom_site_label
_atom_site_fract_x
_atom_site_fract_y
_atom_site_fract_z
Si Si1 0.653775 0.834551 0.411655
Si Si2 0.524722 0.025252 0.909310
Si Si3 0.271698 0.391709 0.565179
Si Si4 0.699189 0.296832 0.616482
Si Si5 0.120239 0.621597 0.700282
Si Si6 0.322647 0.365514 0.080442
Si Si7 0.197029 0.395924 0.717522
Si Si8 0.924827 0.689170 0.189678
O O1 0.583667 0.880130 0.435316
O O2 0.673877 0.707244 0.438069
O O3 0.719268 0.906458 0.468181
O O4 0.638349 0.848424 0.304888
O O5 0.457666 0.071666 0.836312
O O6 0.560731 0.918186 0.870355
O O7 0.500000 0.000000 0.000000
O O8 0.310642 0.505707 0.602712
O O9 0.222709 0.349327 0.631840
O O10 0.636796 0.227897 0.644472
O O11 0.676436 0.361778 0.524074
O O12 0.756362 0.205648 0.598297
O O13 0.739250 0.374762 0.697428
O O14 0.174995 0.523192 0.692731
O O15 0.389306 0.294939 0.132455
O O16 0.129020 0.345303 0.747865
O O17 0.000000 0.718386 0.250000
#
# Coordination Sequence:
#
# PCOD9279445 Si02
#       8
#     8   8   8   8   8   8   8   8
#     4  11  24  39  60  92 125 163 206 265 312 362
#     4  12  24  39  65  94 126 162 204 260 317 368
#     4  11  23  41  61  88 126 166 207 256 316 368
#     4  10  21  35  60  90 119 157 205 254 302 373
#     4  12  20  38  62  91 125 155 208 256 317 364
#     4  10  22  37  59  88 122 162 204 249 305 373
#     4  11  20  36  60  89 124 155 200 257 313 363
#     4  11  22  39  59  92 125 158 203 257 307 373
#
# _framework density 18.464829999999999
#
# number of rings (size 3 to 8) (size 9 to 14) (size 15 to 20)
#    0.000    1.000    5.000    2.625    3.500    0.000 
#    0.000    1.250    0.000    1.500    0.000    0.000 
#    0.000    0.000    0.000    0.000    0.000    0.000 
#
# Total GULP energy -178588.437739 kJ/mol
# GULP energy per Si atom -5580.888679 kJ/mol
# Density = 1.842280 g / cm^3
# Si number density = 18.464830 Si / 1000 Ang^3
#
#
#
# Elastic Constant Matrix: (Units=GPa)
#
#
# Indices 1 2 3 4 5 6 
#
# 1 98.4763 60.7280 49.5908 0.0000 0.9029 0.0000
# 2 60.7280 70.2068 24.5707 0.0000 11.1256 0.0000
# 3 49.5908 24.5707 100.1323 0.0000 3.9100 0.0000
# 4 0.0000 0.0000 0.0000 23.0692 0.0000 4.3209
# 5 0.9029 11.1256 3.9100 0.0000 32.2366 0.0000
# 6 0.0000 0.0000 0.0000 4.3209 0.0000 35.9931
#
#
#
# Elastic Compliance Matrix: (Units=1/GPa)
#
#
# Indices 1 2 3 4 5 6 
#
# 1 0.028838 -0.023128 -0.008929 0.000000 0.008257 0.000000
# 2 -0.023128 0.034954 0.003339 0.000000 -0.011821 0.000000
# 3 -0.008929 0.003339 0.013690 0.000000 -0.002563 0.000000
# 4 0.000000 0.000000 0.000000 0.044345 0.000000 -0.005324
# 5 0.008257 -0.011821 -0.002563 0.000000 0.035180 0.000000
# 6 0.000000 0.000000 0.000000 -0.005324 0.000000 0.028422
#
#
# Mechanical properties :
#
#
# Convention : Reuss Voigt Hill
#
# Bulk Modulus (GPa) = 49.88909 59.84382 54.86645
# Shear Modulus (GPa) = 20.03619 27.18819 23.61219
#
# Velocity S-wave (km/s) = 3.29766 3.84139 3.57986
# Velocity P-wave (km/s) = 6.44798 7.22184 6.84586
#
# Compressibility (1/GPa) = 0.02004446
#
# Stress axis : x y z
#
# Youngs Moduli (GPa) = 34.67601 28.60902 73.04652
#
# Poissons Ratio (x) = 0.66168 0.65227
# Poissons Ratio (y) = 0.80200 -0.24389
# Poissons Ratio (z) = 0.30964 -0.09552
#
# Static dielectric constant tensor:
#      x y z
#    x 1.635110 0.000000 -0.017870 
#    y 0.000000 1.640350 0.000000 
#    z -0.017870 0.000000 1.669120 
# 
# From -- ./inp_files/167645.got.cif
#   From: 2010.05.17/outbox.cif.g08.bks.cpg/sg15_84_cif.got.tgz:167645.got - 2010.06.03 18:47:42.
