data_PCOD9279354
_publ_section_title
;
Structure prediction by ZEFSAII (Michael W. Deem and Ramdas Pophale) SiO2 
 PCOD9279354
Probable space group: C 2/C
;
_chemical_formula_sum "Si O2"
_cell_formula_units_Z 48
_cell_length_a 23.055158
_cell_length_b 11.682985
_cell_length_c 9.660430
_cell_angle_alpha 90.000000
_cell_angle_beta 63.234524
_cell_angle_gamma 90.000000
_cell_volume 2323.274101
_symmetry_space_group_name_H-M "C 2/C"
_symmetry_group_IT_number 15
_symmetry_cell_setting 'monoclinic'
loop_
_space_group_symop_operation_xyz
x,y,z
-x,y,1/2-z
-x,-y,-z
x,-y,1/2+z
1/2+x,1/2+y,z
1/2-x,1/2+y,1/2-z
1/2-x,1/2-y,-z
1/2+x,1/2-y,1/2+z
loop_
_atom_site_type_symbol
_atom_site_label
_atom_site_fract_x
_atom_site_fract_y
_atom_site_fract_z
Si Si1 0.142041 0.567664 0.283734
Si Si2 0.019766 0.609090 0.569997
Si Si3 0.190573 0.843287 0.549365
Si Si4 0.392184 0.202945 0.682614
Si Si5 0.770056 0.005481 0.751751
Si Si6 0.187972 0.692826 0.992757
O O1 0.095587 0.615946 0.452998
O O2 0.127111 0.432397 0.276630
O O3 0.218720 0.577671 0.231842
O O4 0.134087 0.646553 0.157721
O O5 0.000000 0.589543 0.750000
O O6 0.000000 0.500000 0.500000
O O7 0.969313 0.706530 0.575902
O O8 0.250000 0.750000 0.500000
O O9 0.127755 0.770431 0.658546
O O10 0.195985 0.912443 0.398798
O O11 0.192756 0.937208 0.670019
O O12 0.350339 0.247970 0.596052
O O13 0.720667 0.082641 0.891065
O O14 0.250000 0.750000 0.000000
#
# Coordination Sequence:
#
# PCOD9279354 Si02
#       6
#     8   8   8   8   8   8
#     4  10  21  35  58  84 133 158 208 254 328 378
#     4  10  24  36  59  87 125 171 209 253 322 385
#     4  12  22  39  60  87 137 168 209 268 329 389
#     4  10  23  36  58  86 127 169 213 254 314 398
#     4  11  23  34  60  90 127 168 207 261 328 389
#     4  11  21  35  56  92 128 163 206 260 329 386
#
# _framework density 20.660496999999999
#
# number of rings (size 3 to 8) (size 9 to 14) (size 15 to 20)
#    0.000    1.333    5.000    1.000   16.333    0.000 
#    0.000    0.000    0.000    0.000    0.000    4.667 
#    0.000    0.000    0.000    0.000    0.000    0.000 
#
# Total GULP energy -133632.325668 kJ/mol
# GULP energy per Si atom -5568.013570 kJ/mol
# Density = 2.061347 g / cm^3
# Si number density = 20.660497 Si / 1000 Ang^3
#
#
#
# Elastic Constant Matrix: (Units=GPa)
#
#
# Indices 1 2 3 4 5 6 
#
# 1 44.5750 14.1807 21.7144 0.0000 2.2266 0.0000
# 2 14.1807 42.2335 47.3988 0.0000 -1.4837 0.0000
# 3 21.7144 47.3988 156.7950 0.0000 -3.0954 0.0000
# 4 0.0000 0.0000 0.0000 53.1112 0.0000 4.3238
# 5 2.2266 -1.4837 -3.0954 0.0000 34.8936 0.0000
# 6 0.0000 0.0000 0.0000 4.3238 0.0000 27.6194
#
#
#
# Elastic Compliance Matrix: (Units=1/GPa)
#
#
# Indices 1 2 3 4 5 6 
#
# 1 0.025469 -0.006992 -0.001454 0.000000 -0.002051 0.000000
# 2 -0.006992 0.037767 -0.010426 0.000000 0.001127 0.000000
# 3 -0.001454 -0.010426 0.009741 0.000000 0.000514 0.000000
# 4 0.000000 0.000000 0.000000 0.019071 0.000000 -0.002986
# 5 -0.002051 0.001127 0.000514 0.000000 0.028883 0.000000
# 6 0.000000 0.000000 0.000000 -0.002986 0.000000 0.036674
#
#
# Mechanical properties :
#
#
# Convention : Reuss Voigt Hill
#
# Bulk Modulus (GPa) = 28.38290 45.57680 36.97985
# Shear Modulus (GPa) = 24.14366 33.81215 28.97791
#
# Velocity S-wave (km/s) = 3.42217 4.04983 3.74916
# Velocity P-wave (km/s) = 5.42057 6.63144 6.05634
#
# Compressibility (1/GPa) = 0.03523248
#
# Stress axis : x y z
#
# Youngs Moduli (GPa) = 39.26301 26.47846 102.65800
#
# Poissons Ratio (x) = 0.18514 0.14927
# Poissons Ratio (y) = 0.27453 1.07033
# Poissons Ratio (z) = 0.05709 0.27607
#
# Static dielectric constant tensor:
#      x y z
#    x 1.889610 0.000000 0.036000 
#    y 0.000000 1.639150 0.000000 
#    z 0.036000 0.000000 1.787230 
# 
# From -- ./inp_files/65043.got.cif
#   From: 2010.05.17/outbox.cif.g08.bks.cpg/sg15_33_cif.got.tgz:65043.got - 2010.06.03 18:47:42.
