data_PCOD9279572
_publ_section_title
;
Structure prediction by ZEFSAII (Michael W. Deem and Ramdas Pophale) SiO2 
 PCOD9279572
Probable space group: C 2/C
;
_chemical_formula_sum "Si O2"
_cell_formula_units_Z 36
_cell_length_a 28.553436
_cell_length_b 7.121833
_cell_length_c 9.273023
_cell_angle_alpha 90.000000
_cell_angle_beta 125.572504
_cell_angle_gamma 90.000000
_cell_volume 1533.786824
_symmetry_space_group_name_H-M "C 2/C"
_symmetry_group_IT_number 15
_symmetry_cell_setting 'monoclinic'
loop_
_space_group_symop_operation_xyz
x,y,z
-x,y,1/2-z
-x,-y,-z
x,-y,1/2+z
1/2+x,1/2+y,z
1/2-x,1/2+y,1/2-z
1/2-x,1/2-y,-z
1/2+x,1/2-y,1/2+z
loop_
_atom_site_type_symbol
_atom_site_label
_atom_site_fract_x
_atom_site_fract_y
_atom_site_fract_z
Si Si1 0.710431 0.008588 0.872616
Si Si2 0.000000 0.165690 0.250000
Si Si3 0.892715 0.987357 0.181946
Si Si4 0.195192 0.256843 0.103309
Si Si5 0.615881 0.753127 0.562583
O O1 0.764359 0.895315 0.902237
O O2 0.653030 0.915457 0.697641
O O3 0.710329 0.210559 0.796662
O O4 0.706860 0.946247 0.031595
O O5 0.047630 0.286276 0.420781
O O6 0.040286 0.034211 0.222843
O O7 0.868993 0.813986 0.044367
O O8 0.864845 0.173642 0.059040
O O9 0.879178 0.922705 0.318128
#
# Coordination Sequence:
#
# PCOD9279572 Si02
#       5
#     8   4   8   8   8
#     4  10  21  36  53  78 108 137 174 216 260 312
#     4   8  18  32  56  76 106 136 176 214 250 308
#     4   9  18  32  53  78 103 134 175 215 254 305
#     4  10  21  36  53  78 108 137 174 216 260 312
#     4   9  18  32  53  78 103 134 175 215 254 305
#
# _framework density 23.471319000000001
#
# number of rings (size 3 to 8) (size 9 to 14) (size 15 to 20)
#    1.333    1.333    0.000    2.000    0.000    2.667 
#    0.000    1.111    0.000    5.333    0.000    0.000 
#    0.000    0.000    0.000    0.000    0.000    0.000 
#
# Total GULP energy -100224.665840 kJ/mol
# GULP energy per Si atom -5568.036991 kJ/mol
# Density = 2.341790 g / cm^3
# Si number density = 23.471319 Si / 1000 Ang^3
#
#
#
# Elastic Constant Matrix: (Units=GPa)
#
#
# Indices 1 2 3 4 5 6 
#
# 1 63.5052 7.6191 15.4515 0.0000 9.8404 0.0000
# 2 7.6191 19.3836 -15.8080 0.0000 9.7619 0.0000
# 3 15.4515 -15.8080 84.7230 0.0000 1.8653 0.0000
# 4 0.0000 0.0000 0.0000 52.8010 0.0000 -0.0819
# 5 9.8404 9.7619 1.8653 0.0000 44.3131 0.0000
# 6 0.0000 0.0000 0.0000 -0.0819 0.0000 14.3819
#
#
#
# Elastic Compliance Matrix: (Units=1/GPa)
#
#
# Indices 1 2 3 4 5 6 
#
# 1 0.018611 -0.010979 -0.005410 0.000000 -0.001487 0.000000
# 2 -0.010979 0.077271 0.016756 0.000000 -0.015290 0.000000
# 3 -0.005410 0.016756 0.015986 0.000000 -0.003163 0.000000
# 4 0.000000 0.000000 0.000000 0.018939 0.000000 0.000108
# 5 -0.001487 -0.015290 -0.003163 0.000000 0.026398 0.000000
# 6 0.000000 0.000000 0.000000 0.000108 0.000000 0.069532
#
#
# Mechanical properties :
#
#
# Convention : Reuss Voigt Hill
#
# Bulk Modulus (GPa) = 8.88071 20.23745 14.55908
# Shear Modulus (GPa) = 18.97277 32.98915 25.98096
#
# Velocity S-wave (km/s) = 2.84621 3.75308 3.33066
# Velocity P-wave (km/s) = 3.82009 5.23658 4.58338
#
# Compressibility (1/GPa) = 0.11260366
#
# Stress axis : x y z
#
# Youngs Moduli (GPa) = 53.73304 12.94147 62.55499
#
# Poissons Ratio (x) = 0.14208 0.33841
# Poissons Ratio (y) = 0.58991 -1.04820
# Poissons Ratio (z) = 0.29069 -0.21685
#
# Static dielectric constant tensor:
#      x y z
#    x 1.880180 0.000000 0.013260 
#    y 0.000000 1.956990 0.000000 
#    z 0.013260 0.000000 1.923900 
# 
# From -- ./inp_files/59784.got.cif
#   From: 2010.05.17/outbox.cif.g08.bks.cpg/sg15_30_cif.got.tgz:59784.got - 2010.06.03 18:47:42.
