data_PCOD9279080
_publ_section_title
;
Structure prediction by ZEFSAII (Michael W. Deem and Ramdas Pophale) SiO2 
 PCOD9279080
Probable space group: C 2/C
;
_chemical_formula_sum "Si O2"
_cell_formula_units_Z 48
_cell_length_a 5.417630
_cell_length_b 22.073940
_cell_length_c 16.801730
_cell_angle_alpha 90.000000
_cell_angle_beta 114.800753
_cell_angle_gamma 90.000000
_cell_volume 1823.979559
_symmetry_space_group_name_H-M "C 2/C"
_symmetry_group_IT_number 15
_symmetry_cell_setting 'monoclinic'
loop_
_space_group_symop_operation_xyz
x,y,z
-x,y,1/2-z
-x,-y,-z
x,-y,1/2+z
1/2+x,1/2+y,z
1/2-x,1/2+y,1/2-z
1/2-x,1/2-y,-z
1/2+x,1/2-y,1/2+z
loop_
_atom_site_type_symbol
_atom_site_label
_atom_site_fract_x
_atom_site_fract_y
_atom_site_fract_z
Si Si1 0.309645 0.753625 0.298591
Si Si2 0.694973 0.035614 0.587668
Si Si3 0.802272 0.434159 0.157245
Si Si4 0.449709 0.355170 0.519105
Si Si5 0.100363 0.676147 0.528470
Si Si6 0.189759 0.893521 0.700733
O O1 0.500000 0.769451 0.250000
O O2 0.395011 0.784946 0.391653
O O3 0.301156 0.680558 0.299490
O O4 0.000000 0.775702 0.250000
O O5 0.530094 0.024836 0.645943
O O6 0.665444 0.106095 0.558656
O O7 0.022678 0.031112 0.642229
O O8 0.500000 0.000000 0.500000
O O9 0.696662 0.386935 0.076001
O O10 0.000000 0.404498 0.250000
O O11 0.681531 0.313203 0.511636
O O12 0.573303 0.404605 0.596018
O O13 0.213897 0.323225 0.539027
O O14 0.500000 0.913743 0.750000
O O15 0.000000 0.910515 0.750000
#
# Coordination Sequence:
#
# PCOD9279080 Si02
#       6
#     8   8   8   8   8   8
#     4  10  21  36  55  86 124 159 204 252 294 354
#     4  10  21  38  61  85 119 158 194 241 301 367
#     4  10  21  38  63  95 127 158 196 249 312 367
#     4  10  21  36  58  89 122 159 204 254 298 359
#     4  10  21  34  56  84 115 155 193 244 310 354
#     4  10  21  38  59  83 119 168 213 252 296 347
#
# _framework density 26.316085000000001
#
# number of rings (size 3 to 8) (size 9 to 14) (size 15 to 20)
#    0.000    2.000    0.000    3.000    0.000    9.333 
#    0.000    0.000    0.000   40.000    0.000    0.000 
#    0.000    0.000    0.000    0.000    0.000    0.000 
#
# Total GULP energy -134072.133212 kJ/mol
# GULP energy per Si atom -5586.338884 kJ/mol
# Density = 2.625619 g / cm^3
# Si number density = 26.316085 Si / 1000 Ang^3
#
#
#
# Elastic Constant Matrix: (Units=GPa)
#
#
# Indices 1 2 3 4 5 6 
#
# 1 290.4285 24.7791 73.9425 0.0000 18.0651 0.0000
# 2 24.7791 96.0089 40.1287 0.0000 -9.5889 0.0000
# 3 73.9425 40.1287 167.0289 0.0000 18.5533 0.0000
# 4 0.0000 0.0000 0.0000 30.3697 0.0000 -16.4524
# 5 18.0651 -9.5889 18.5533 0.0000 52.8817 0.0000
# 6 0.0000 0.0000 0.0000 -16.4524 0.0000 12.3389
#
#
#
# Elastic Compliance Matrix: (Units=1/GPa)
#
#
# Indices 1 2 3 4 5 6 
#
# 1 0.003927 -0.000464 -0.001528 0.000000 -0.000889 0.000000
# 2 -0.000464 0.012178 -0.003104 0.000000 0.003456 0.000000
# 3 -0.001528 -0.003104 0.007715 0.000000 -0.002747 0.000000
# 4 0.000000 0.000000 0.000000 0.118590 0.000000 0.158126
# 5 -0.000889 0.003456 -0.002747 0.000000 0.020805 0.000000
# 6 0.000000 0.000000 0.000000 0.158126 0.000000 0.291886
#
#
# Mechanical properties :
#
#
# Convention : Reuss Voigt Hill
#
# Bulk Modulus (GPa) = 73.38321 92.35189 82.86755
# Shear Modulus (GPa) = 10.64202 46.75913 28.70058
#
# Velocity S-wave (km/s) = 2.01313 4.21982 3.30602
# Velocity P-wave (km/s) = 5.77490 7.67541 6.79196
#
# Compressibility (1/GPa) = 0.01362710
#
# Stress axis : x y z
#
# Youngs Moduli (GPa) = 254.63541 82.11501 129.62445
#
# Poissons Ratio (x) = 0.03807 0.19811
# Poissons Ratio (y) = 0.11805 0.40241
# Poissons Ratio (z) = 0.38917 0.25492
#
# Static dielectric constant tensor:
#      x y z
#    x 2.084720 0.000000 -0.001730 
#    y 0.000000 2.264540 0.000000 
#    z -0.001730 0.000000 2.212190 
# 
# From -- ./inp_files/130942.got.cif
#   From: 2010.05.17/outbox.cif.g08.bks.cpg/sg15_66_cif.got.tgz:130942.got - 2010.06.03 18:47:42.
