data_PCOD9279531
_publ_section_title
;
Structure prediction by ZEFSAII (Michael W. Deem and Ramdas Pophale) SiO2 
 PCOD9279531
Probable space group: C 2/C
;
_chemical_formula_sum "Si O2"
_cell_formula_units_Z 52
_cell_length_a 20.725897
_cell_length_b 12.541470
_cell_length_c 9.998584
_cell_angle_alpha 90.000000
_cell_angle_beta 67.128349
_cell_angle_gamma 90.000000
_cell_volume 2394.627879
_symmetry_space_group_name_H-M "C 2/C"
_symmetry_group_IT_number 15
_symmetry_cell_setting 'monoclinic'
loop_
_space_group_symop_operation_xyz
x,y,z
-x,y,1/2-z
-x,-y,-z
x,-y,1/2+z
1/2+x,1/2+y,z
1/2-x,1/2+y,1/2-z
1/2-x,1/2-y,-z
1/2+x,1/2-y,1/2+z
loop_
_atom_site_type_symbol
_atom_site_label
_atom_site_fract_x
_atom_site_fract_y
_atom_site_fract_z
Si Si1 0.505195 0.626260 0.001335
Si Si2 0.500000 0.755459 0.250000
Si Si3 0.752137 0.091432 0.206273
Si Si4 0.189587 0.434289 0.459319
Si Si5 0.061041 0.421552 0.994391
Si Si6 0.863547 0.246274 0.694213
Si Si7 0.127026 0.204539 0.512102
O O1 0.586718 0.662815 0.924097
O O2 0.455535 0.682984 0.931685
O O3 0.500000 0.500000 0.000000
O O4 0.470502 0.674586 0.163815
O O5 0.542576 0.836282 0.122913
O O6 0.719817 0.070524 0.084533
O O7 0.708960 0.196964 0.294475
O O8 0.741471 0.990702 0.311486
O O9 0.831822 0.120498 0.111905
O O10 0.123323 0.511007 0.504704
O O11 0.157757 0.319558 0.445412
O O12 0.087054 0.352306 0.846712
O O13 0.000000 0.500000 0.000000
O O14 0.851450 0.198426 0.849824
#
# Coordination Sequence:
#
# PCOD9279531 Si02
#       7
#     8   4   8   8   8   8   8
#     4  11  25  41  65  91 130 176 216 272 334 382
#     4  10  24  40  58  98 136 158 226 270 326 404
#     4  10  23  41  65  95 125 169 215 273 330 400
#     4  10  21  39  65  91 128 165 212 269 336 388
#     4  10  21  35  64  97 130 165 204 272 342 391
#     4   9  20  40  61  91 122 160 215 260 316 398
#     4  11  23  40  67  90 126 167 228 260 321 413
#
# _framework density 21.715273
#
# number of rings (size 3 to 8) (size 9 to 14) (size 15 to 20)
#    0.000    1.846    0.000    4.154   10.769    3.692 
#    0.000    0.769    0.000    0.000    0.000    0.000 
#    0.000    0.000    0.000    0.000    0.000    0.000 
#
# Total GULP energy -144859.709963 kJ/mol
# GULP energy per Si atom -5571.527306 kJ/mol
# Density = 2.166585 g / cm^3
# Si number density = 21.715273 Si / 1000 Ang^3
#
#
#
# Elastic Constant Matrix: (Units=GPa)
#
#
# Indices 1 2 3 4 5 6 
#
# 1 47.6379 17.0686 15.4615 0.0000 -4.0485 0.0000
# 2 17.0686 118.1663 51.5656 0.0000 0.2393 0.0000
# 3 15.4615 51.5656 101.1181 0.0000 -12.9187 0.0000
# 4 0.0000 0.0000 0.0000 24.9905 0.0000 -1.0739
# 5 -4.0485 0.2393 -12.9187 0.0000 24.7765 0.0000
# 6 0.0000 0.0000 0.0000 -1.0739 0.0000 25.5698
#
#
#
# Elastic Compliance Matrix: (Units=1/GPa)
#
#
# Indices 1 2 3 4 5 6 
#
# 1 0.022717 -0.002477 -0.001857 0.000000 0.002768 0.000000
# 2 -0.002477 0.011399 -0.005893 0.000000 -0.003587 0.000000
# 3 -0.001857 -0.005893 0.014085 0.000000 0.007098 0.000000
# 4 0.000000 0.000000 0.000000 0.040088 0.000000 0.001684
# 5 0.002768 -0.003587 0.007098 0.000000 0.044548 0.000000
# 6 0.000000 0.000000 0.000000 0.001684 0.000000 0.039179
#
#
# Mechanical properties :
#
#
# Convention : Reuss Voigt Hill
#
# Bulk Modulus (GPa) = 36.03773 48.34597 42.19185
# Shear Modulus (GPa) = 24.78703 27.25581 26.02142
#
# Velocity S-wave (km/s) = 3.38221 3.54665 3.46540
# Velocity P-wave (km/s) = 5.64660 6.25168 5.95683
#
# Compressibility (1/GPa) = 0.02774870
#
# Stress axis : x y z
#
# Youngs Moduli (GPa) = 44.01995 87.72642 70.99697
#
# Poissons Ratio (x) = 0.21726 0.13184
# Poissons Ratio (y) = 0.10902 0.41836
# Poissons Ratio (z) = 0.08175 0.51694
#
# Static dielectric constant tensor:
#      x y z
#    x 1.824730 0.000000 -0.032960 
#    y 0.000000 1.763560 0.000000 
#    z -0.032960 0.000000 1.844210 
# 
# From -- ./inp_files/111514.got.cif
#   From: 2010.05.17/outbox.cif.g08.bks.cpg/sg15_56_cif.got.tgz:111514.got - 2010.06.03 18:47:42.
