data_PCOD9279863
_publ_section_title
;
Structure prediction by ZEFSAII (Michael W. Deem and Ramdas Pophale) SiO2 
 PCOD9279863
Probable space group: C 2/C
;
_chemical_formula_sum "Si O2"
_cell_formula_units_Z 56
_cell_length_a 8.782222
_cell_length_b 24.638337
_cell_length_c 14.454586
_cell_angle_alpha 90.000000
_cell_angle_beta 61.711291
_cell_angle_gamma 90.000000
_cell_volume 2754.138151
_symmetry_space_group_name_H-M "C 2/C"
_symmetry_group_IT_number 15
_symmetry_cell_setting 'monoclinic'
loop_
_space_group_symop_operation_xyz
x,y,z
-x,y,1/2-z
-x,-y,-z
x,-y,1/2+z
1/2+x,1/2+y,z
1/2-x,1/2+y,1/2-z
1/2-x,1/2-y,-z
1/2+x,1/2-y,1/2+z
loop_
_atom_site_type_symbol
_atom_site_label
_atom_site_fract_x
_atom_site_fract_y
_atom_site_fract_z
Si Si1 0.366129 0.609985 0.365510
Si Si2 0.295388 0.815680 0.152557
Si Si3 0.069298 0.779547 0.565974
Si Si4 0.024006 0.164030 0.882143
Si Si5 0.968783 0.420497 0.009505
Si Si6 0.076952 0.497851 0.632170
Si Si7 0.918981 0.057272 0.546642
O O1 0.500000 0.589222 0.250000
O O2 0.393786 0.674449 0.368252
O O3 0.421918 0.587253 0.448163
O O4 0.165220 0.591844 0.416348
O O5 0.418935 0.763951 0.127930
O O6 0.205137 0.828585 0.276443
O O7 0.398999 0.865572 0.075878
O O8 0.130848 0.809653 0.131614
O O9 0.250000 0.750000 0.500000
O O10 0.026774 0.808408 0.480920
O O11 0.004811 0.098904 0.900954
O O12 0.966024 0.465456 0.092447
O O13 0.871460 0.447428 0.949425
O O14 0.222458 0.540289 0.623689
O O15 0.000000 0.476514 0.750000
O O16 0.000000 0.000000 0.500000
#
# Coordination Sequence:
#
# PCOD9279863 Si02
#       7
#     8   8   8   8   8   8   8
#     4  10  23  40  58  91 123 162 212 259 317 381
#     4  11  22  41  66  90 130 160 212 266 323 381
#     4  11  23  41  65  89 124 164 215 264 315 386
#     4  10  24  41  63  99 124 167 209 262 327 382
#     4  10  21  39  59  89 127 161 211 269 307 386
#     4  10  21  36  60  89 121 167 211 254 319 380
#     4  10  21  40  61  89 129 162 211 254 311 390
#
# _framework density 20.33304
#
# number of rings (size 3 to 8) (size 9 to 14) (size 15 to 20)
#    0.000    1.714    1.429    2.143    4.000    0.000 
#    5.143    0.000    3.143    0.000    0.000    0.000 
#    0.000    0.000    0.000    0.000    0.000    0.000 
#
# Total GULP energy -156040.234480 kJ/mol
# GULP energy per Si atom -5572.865517 kJ/mol
# Density = 2.028676 g / cm^3
# Si number density = 20.333040 Si / 1000 Ang^3
#
#
#
# Elastic Constant Matrix: (Units=GPa)
#
#
# Indices 1 2 3 4 5 6 
#
# 1 46.2539 20.3450 6.9616 0.0000 -13.9063 0.0000
# 2 20.3450 106.3402 15.2834 0.0000 -15.6407 0.0000
# 3 6.9616 15.2834 80.5373 0.0000 -26.6698 0.0000
# 4 0.0000 0.0000 0.0000 28.2772 0.0000 -9.9400
# 5 -13.9063 -15.6407 -26.6698 0.0000 20.1455 0.0000
# 6 0.0000 0.0000 0.0000 -9.9400 0.0000 7.7344
#
#
#
# Elastic Compliance Matrix: (Units=1/GPa)
#
#
# Indices 1 2 3 4 5 6 
#
# 1 0.030264 -0.002645 0.007343 0.000000 0.028559 0.000000
# 2 -0.002645 0.010921 0.000640 0.000000 0.007500 0.000000
# 3 0.007343 0.000640 0.024044 0.000000 0.037397 0.000000
# 4 0.000000 0.000000 0.000000 0.064505 0.000000 0.082900
# 5 0.028559 0.007500 0.037397 0.000000 0.124685 0.000000
# 6 0.000000 0.000000 0.000000 0.082900 0.000000 0.235834
#
#
# Mechanical properties :
#
#
# Convention : Reuss Voigt Hill
#
# Bulk Modulus (GPa) = 13.17424 35.36794 24.27109
# Shear Modulus (GPa) = 9.90336 23.93417 16.91877
#
# Velocity S-wave (km/s) = 2.20933 3.43462 2.88771
# Velocity P-wave (km/s) = 3.60576 5.75855 4.80429
#
# Compressibility (1/GPa) = 0.07590573
#
# Stress axis : x y z
#
# Youngs Moduli (GPa) = 33.04220 91.56672 41.58964
#
# Poissons Ratio (x) = 0.24220 -0.30540
# Poissons Ratio (y) = 0.08740 -0.02661
# Poissons Ratio (z) = -0.24263 -0.05859
#
# Static dielectric constant tensor:
#      x y z
#    x 1.776210 0.000000 -0.054250 
#    y 0.000000 1.760740 0.000000 
#    z -0.054250 0.000000 1.732520 
# 
# From -- ./inp_files/137733.got.cif
#   From: 2010.05.17/outbox.cif.g08.bks.cpg/sg15_69_cif.got.tgz:137733.got - 2010.06.03 18:47:42.
