data_PCOD9279868
_publ_section_title
;
Structure prediction by ZEFSAII (Michael W. Deem and Ramdas Pophale) SiO2 
 PCOD9279868
Probable space group: C 2/C
;
_chemical_formula_sum "Si O2"
_cell_formula_units_Z 64
_cell_length_a 25.280520
_cell_length_b 11.402457
_cell_length_c 22.343390
_cell_angle_alpha 90.000000
_cell_angle_beta 146.913166
_cell_angle_gamma 90.000000
_cell_volume 3516.042549
_symmetry_space_group_name_H-M "C 2/C"
_symmetry_group_IT_number 15
_symmetry_cell_setting 'monoclinic'
loop_
_space_group_symop_operation_xyz
x,y,z
-x,y,1/2-z
-x,-y,-z
x,-y,1/2+z
1/2+x,1/2+y,z
1/2-x,1/2+y,1/2-z
1/2-x,1/2-y,-z
1/2+x,1/2-y,1/2+z
loop_
_atom_site_type_symbol
_atom_site_label
_atom_site_fract_x
_atom_site_fract_y
_atom_site_fract_z
Si Si1 0.891994 0.499216 0.663554
Si Si2 0.771292 0.622104 0.844923
Si Si3 0.005345 0.370847 0.975252
Si Si4 0.723586 0.419541 0.163837
Si Si5 0.446161 0.731224 0.036577
Si Si6 0.205487 0.590807 0.046428
Si Si7 0.672561 0.141902 0.284598
Si Si8 0.866171 0.270751 0.216113
O O1 0.831028 0.521570 0.546074
O O2 0.845526 0.410066 0.666794
O O3 0.897853 0.625662 0.701934
O O4 0.000000 0.460186 0.750000
O O5 0.726269 0.604829 0.736573
O O6 0.763104 0.502562 0.874088
O O7 0.717636 0.729646 0.825580
O O8 0.885769 0.647264 0.944674
O O9 0.927077 0.363082 0.847942
O O10 0.000000 0.500000 0.000000
O O11 0.977667 0.281860 0.002042
O O12 0.754503 0.551638 0.179147
O O13 0.804800 0.336306 0.209989
O O14 0.622523 0.379937 0.039240
O O15 0.540769 0.711367 0.166020
O O16 0.381284 0.830483 0.008228
O O17 0.294058 0.678574 0.117368
#
# Coordination Sequence:
#
# PCOD9279868 Si02
#       8
#     8   8   8   8   8   8   8   8
#     4  11  21  41  67  88 116 163 214 255 290 357
#     4  12  23  37  61  90 127 165 196 249 307 368
#     4  12  19  35  63  87 119 156 205 249 294 368
#     4  10  21  36  60  90 126 156 193 255 307 367
#     4  11  19  36  61  93 119 152 203 255 307 361
#     4  11  23  37  61  89 122 159 205 254 307 353
#     4  11  24  41  58  91 126 161 207 248 307 364
#     4  10  21  38  62  94 121 151 200 261 312 351
#
# _framework density 18.202283000000001
#
# number of rings (size 3 to 8) (size 9 to 14) (size 15 to 20)
#    0.000    1.000    6.250    1.875    1.750    0.500 
#    2.250    1.250    0.000    0.750    0.000    0.000 
#    0.000    0.000    0.000    0.000    0.000    0.000 
#
# Total GULP energy -178832.597597 kJ/mol
# GULP energy per Si atom -5588.518675 kJ/mol
# Density = 1.816085 g / cm^3
# Si number density = 18.202283 Si / 1000 Ang^3
#
#
#
# Elastic Constant Matrix: (Units=GPa)
#
#
# Indices 1 2 3 4 5 6 
#
# 1 51.8773 7.4961 -6.7596 0.0000 -7.1375 0.0000
# 2 7.4961 31.0046 -3.0871 0.0000 5.6659 0.0000
# 3 -6.7596 -3.0871 54.0759 0.0000 -0.0259 0.0000
# 4 0.0000 0.0000 0.0000 17.5821 0.0000 4.8418
# 5 -7.1375 5.6659 -0.0259 0.0000 22.7563 0.0000
# 6 0.0000 0.0000 0.0000 4.8418 0.0000 14.6912
#
#
#
# Elastic Compliance Matrix: (Units=1/GPa)
#
#
# Indices 1 2 3 4 5 6 
#
# 1 0.021689 -0.006552 0.002341 0.000000 0.008437 0.000000
# 2 -0.006552 0.035972 0.001229 0.000000 -0.011010 0.000000
# 3 0.002341 0.001229 0.018856 0.000000 0.000450 0.000000
# 4 0.000000 0.000000 0.000000 0.062553 0.000000 -0.020616
# 5 0.008437 -0.011010 0.000450 0.000000 0.049332 0.000000
# 6 0.000000 0.000000 0.000000 -0.020616 0.000000 0.074862
#
#
# Mechanical properties :
#
#
# Convention : Reuss Voigt Hill
#
# Bulk Modulus (GPa) = 14.17390 14.69517 14.43454
# Shear Modulus (GPa) = 17.07967 20.29315 18.68641
#
# Velocity S-wave (km/s) = 3.06653 3.34259 3.20753
# Velocity P-wave (km/s) = 4.51021 4.79458 4.65456
#
# Compressibility (1/GPa) = 0.07055220
#
# Stress axis : x y z
#
# Youngs Moduli (GPa) = 46.10657 27.79941 53.03472
#
# Poissons Ratio (x) = 0.18216 -0.12416
# Poissons Ratio (y) = 0.30211 -0.06519
# Poissons Ratio (z) = -0.10794 -0.03417
#
# Static dielectric constant tensor:
#      x y z
#    x 1.620300 0.000000 0.005400 
#    y 0.000000 1.603280 0.000000 
#    z 0.005400 0.000000 1.615950 
# 
# From -- ./inp_files/283509.got.cif
#   From: 2010.05.17/outbox.cif.g08.bks.cpg/sg15_142_cif.got.tgz:283509.got - 2010.06.03 18:47:42.
