data_PCOD9279548
_publ_section_title
;
Structure prediction by ZEFSAII (Michael W. Deem and Ramdas Pophale) SiO2 
 PCOD9279548
Probable space group: C 2/C
;
_chemical_formula_sum "Si O2"
_cell_formula_units_Z 56
_cell_length_a 24.172377
_cell_length_b 5.138120
_cell_length_c 18.955047
_cell_angle_alpha 90.000000
_cell_angle_beta 69.206432
_cell_angle_gamma 90.000000
_cell_volume 2200.886349
_symmetry_space_group_name_H-M "C 2/C"
_symmetry_group_IT_number 15
_symmetry_cell_setting 'monoclinic'
loop_
_space_group_symop_operation_xyz
x,y,z
-x,y,1/2-z
-x,-y,-z
x,-y,1/2+z
1/2+x,1/2+y,z
1/2-x,1/2+y,1/2-z
1/2-x,1/2-y,-z
1/2+x,1/2-y,1/2+z
loop_
_atom_site_type_symbol
_atom_site_label
_atom_site_fract_x
_atom_site_fract_y
_atom_site_fract_z
Si Si1 0.316476 0.226818 0.196699
Si Si2 0.012788 0.635335 0.867403
Si Si3 0.112389 0.791910 0.541001
Si Si4 0.121934 0.375626 0.226454
Si Si5 0.835841 0.688227 0.420816
Si Si6 0.935030 0.879890 0.092069
Si Si7 0.273153 0.496275 0.350442
O O1 0.373401 0.407256 0.161969
O O2 0.274737 0.335669 0.276707
O O3 0.281207 0.186378 0.140366
O O4 0.346321 0.970405 0.215729
O O5 0.055497 0.680905 0.780962
O O6 0.024764 0.342688 0.889598
O O7 0.944550 0.704074 0.886762
O O8 0.034052 0.842154 0.917301
O O9 0.161763 0.574646 0.535057
O O10 0.087181 0.786279 0.473604
O O11 0.133512 0.080269 0.550136
O O12 0.128640 0.612404 0.167715
O O13 0.165564 0.158188 0.174901
O O14 0.775127 0.801421 0.415059
#
# Coordination Sequence:
#
# PCOD9279548 Si02
#       7
#     8   8   8   8   8   8   8
#     4  10  21  35  69  96 120 160 205 274 329 351
#     4  11  23  41  67  96 121 164 214 271 315 358
#     4  12  24  44  63  88 133 179 204 249 316 382
#     4  10  21  40  61  95 125 150 210 264 308 376
#     4  11  25  42  60  91 131 171 210 248 313 394
#     4  11  23  42  66  97 125 158 221 265 304 383
#     4  11  19  40  63  92 128 157 207 269 323 369
#
# _framework density 25.444292000000001
#
# number of rings (size 3 to 8) (size 9 to 14) (size 15 to 20)
#    0.000    1.143    4.286    2.571    0.000    0.571 
#    2.571    1.429    0.000    0.000    0.000    0.000 
#    0.000    0.000    0.000    0.000    0.000    0.000 
#
# Total GULP energy -156623.712189 kJ/mol
# GULP energy per Si atom -5593.704007 kJ/mol
# Density = 2.538638 g / cm^3
# Si number density = 25.444292 Si / 1000 Ang^3
#
#
#
# Elastic Constant Matrix: (Units=GPa)
#
#
# Indices 1 2 3 4 5 6 
#
# 1 58.8827 26.5416 3.0232 -0.0011 7.7542 -0.0006
# 2 26.5416 122.6212 13.0129 0.0059 10.5055 0.0064
# 3 3.0232 13.0129 60.4439 0.0003 9.2896 -0.0004
# 4 -0.0011 0.0059 0.0003 32.8633 0.0002 12.2734
# 5 7.7542 10.5055 9.2896 0.0002 30.5676 -0.0002
# 6 -0.0006 0.0064 -0.0004 12.2734 -0.0002 32.3587
#
#
#
# Elastic Compliance Matrix: (Units=1/GPa)
#
#
# Indices 1 2 3 4 5 6 
#
# 1 0.019196 -0.003887 0.000440 0.000001 -0.003667 0.000001
# 2 -0.003887 0.009310 -0.001542 -0.000001 -0.001745 -0.000001
# 3 0.000440 -0.001542 0.017613 0.000000 -0.004934 0.000001
# 4 0.000001 -0.000001 0.000000 0.035451 0.000000 -0.013446
# 5 -0.003667 -0.001745 -0.004934 0.000000 0.035744 0.000000
# 6 0.000001 -0.000001 0.000001 -0.013446 0.000000 0.036004
#
#
# Mechanical properties :
#
#
# Convention : Reuss Voigt Hill
#
# Bulk Modulus (GPa) = 27.66989 36.34481 32.00735
# Shear Modulus (GPa) = 28.51597 32.44925 30.48261
#
# Velocity S-wave (km/s) = 3.35135 3.57502 3.46499
# Velocity P-wave (km/s) = 5.08662 5.59965 5.34929
#
# Compressibility (1/GPa) = 0.03614037
#
# Stress axis : x y z
#
# Youngs Moduli (GPa) = 52.09550 107.41431 56.77781
#
# Poissons Ratio (x) = 0.41757 -0.02501
# Poissons Ratio (y) = 0.20252 0.08753
# Poissons Ratio (z) = -0.02294 0.16560
#
# Static dielectric constant tensor:
#      x y z
#    x 2.037120 0.000000 -0.039140 
#    y 0.000000 1.988920 0.000000 
#    z -0.039140 0.000000 2.068100 
# 
# From -- ./inp_files/254026.got.cif
#   From: 2010.05.17/outbox.cif.g08.bks.cpg/sg15_128_cif.got.tgz:254026.got - 2010.06.03 18:47:42.
