data_PCOD9279089
_publ_section_title
;
Structure prediction by ZEFSAII (Michael W. Deem and Ramdas Pophale) SiO2 
 PCOD9279089
Probable space group: C 2/C
;
_chemical_formula_sum "Si O2"
_cell_formula_units_Z 48
_cell_length_a 16.321291
_cell_length_b 16.175690
_cell_length_c 8.447407
_cell_angle_alpha 90.000000
_cell_angle_beta 58.134778
_cell_angle_gamma 90.000000
_cell_volume 1894.078277
_symmetry_space_group_name_H-M "C 2/C"
_symmetry_group_IT_number 15
_symmetry_cell_setting 'monoclinic'
loop_
_space_group_symop_operation_xyz
x,y,z
-x,y,1/2-z
-x,-y,-z
x,-y,1/2+z
1/2+x,1/2+y,z
1/2-x,1/2+y,1/2-z
1/2-x,1/2-y,-z
1/2+x,1/2-y,1/2+z
loop_
_atom_site_type_symbol
_atom_site_label
_atom_site_fract_x
_atom_site_fract_y
_atom_site_fract_z
Si Si1 0.000000 0.028987 0.750000
Si Si2 0.828011 0.720729 0.776437
Si Si3 0.935310 0.617259 0.160537
Si Si4 0.619497 0.699330 0.888189
Si Si5 0.269757 0.846132 0.024367
Si Si6 0.000000 0.377736 0.250000
Si Si7 0.568912 0.387219 0.868925
O O1 0.052001 0.080742 0.562724
O O2 0.922650 0.967328 0.746691
O O3 0.841346 0.666031 0.600674
O O4 0.853798 0.815226 0.713818
O O5 0.905785 0.677567 0.808970
O O6 0.788459 0.783999 0.092376
O O7 0.925219 0.717356 0.141863
O O8 0.824084 0.601264 0.335589
O O9 0.000000 0.598331 0.250000
O O10 0.969728 0.582894 0.953057
O O11 0.667198 0.636784 0.711462
O O12 0.533715 0.655560 0.062808
O O13 0.250000 0.750000 0.000000
#
# Coordination Sequence:
#
# PCOD9279089 Si02
#       7
#     4   8   8   8   8   4   8
#     4  10  27  36  56  80 114 198 203 242 296 350
#     4  10  21  34  56  87 113 161 198 262 329 358
#     4  11  18  32  47  75 116 154 192 230 309 387
#     4   9  20  34  62  82 113 164 195 273 326 361
#     4   8  17  31  47  81 102 150 197 230 336 352
#     4  12  21  28  50  84 120 160 183 240 320 388
#     4  11  21  42  56  82 132 157 223 247 292 402
#
# _framework density 25.342141000000002
#
# number of rings (size 3 to 8) (size 9 to 14) (size 15 to 20)
#    1.000    1.000    3.333    0.500    5.833    0.667 
#    0.000    0.000    0.000    0.000    0.000    0.000 
#    0.000   14.667    0.000    0.000    0.000    0.000 
#
# Total GULP energy -133784.179819 kJ/mol
# GULP energy per Si atom -5574.340826 kJ/mol
# Density = 2.528446 g / cm^3
# Si number density = 25.342141 Si / 1000 Ang^3
#
#
#
# Elastic Constant Matrix: (Units=GPa)
#
#
# Indices 1 2 3 4 5 6 
#
# 1 127.7583 25.1186 30.3652 0.0000 17.6803 0.0000
# 2 25.1186 65.8493 28.7281 0.0000 5.9173 0.0000
# 3 30.3652 28.7281 179.2636 0.0000 -5.0947 0.0000
# 4 0.0000 0.0000 0.0000 34.9252 0.0000 17.8226
# 5 17.6803 5.9173 -5.0947 0.0000 53.4827 0.0000
# 6 0.0000 0.0000 0.0000 17.8226 0.0000 29.9489
#
#
#
# Elastic Compliance Matrix: (Units=1/GPa)
#
#
# Indices 1 2 3 4 5 6 
#
# 1 0.009021 -0.002675 -0.001179 0.000000 -0.002798 0.000000
# 2 -0.002675 0.017351 -0.002363 0.000000 -0.001260 0.000000
# 3 -0.001179 -0.002363 0.006192 0.000000 0.001241 0.000000
# 4 0.000000 0.000000 0.000000 0.041120 0.000000 -0.024471
# 5 -0.002798 -0.001260 0.001241 0.000000 0.019880 0.000000
# 6 0.000000 0.000000 0.000000 -0.024471 0.000000 0.047953
#
#
# Mechanical properties :
#
#
# Convention : Reuss Voigt Hill
#
# Bulk Modulus (GPa) = 49.67944 60.14390 54.91167
# Shear Modulus (GPa) = 31.12139 42.91530 37.01834
#
# Velocity S-wave (km/s) = 3.50815 4.11960 3.82611
# Velocity P-wave (km/s) = 6.00463 6.81267 6.42137
#
# Compressibility (1/GPa) = 0.02012905
#
# Stress axis : x y z
#
# Youngs Moduli (GPa) = 110.85613 57.63371 161.49733
#
# Poissons Ratio (x) = 0.15418 0.19037
# Poissons Ratio (y) = 0.29657 0.38166
# Poissons Ratio (z) = 0.13068 0.13620
#
# Static dielectric constant tensor:
#      x y z
#    x 2.051070 0.000000 0.057060 
#    y 0.000000 1.939920 0.000000 
#    z 0.057060 0.000000 2.184070 
# 
# From -- ./inp_files/57216.got.cif
#   From: 2010.05.17/outbox.cif.g08.bks.cpg/sg15_29_cif.got.tgz:57216.got - 2010.06.03 18:47:42.
