data_PCOD9279705
_publ_section_title
;
Structure prediction by ZEFSAII (Michael W. Deem and Ramdas Pophale) SiO2 
 PCOD9279705
Probable space group: C 2/C
;
_chemical_formula_sum "Si O2"
_cell_formula_units_Z 64
_cell_length_a 27.526044
_cell_length_b 20.566386
_cell_length_c 18.585228
_cell_angle_alpha 90.000000
_cell_angle_beta 160.614933
_cell_angle_gamma 90.000000
_cell_volume 3492.182508
_symmetry_space_group_name_H-M "C 2/C"
_symmetry_group_IT_number 15
_symmetry_cell_setting 'monoclinic'
loop_
_space_group_symop_operation_xyz
x,y,z
-x,y,1/2-z
-x,-y,-z
x,-y,1/2+z
1/2+x,1/2+y,z
1/2-x,1/2+y,1/2-z
1/2-x,1/2-y,-z
1/2+x,1/2-y,1/2+z
loop_
_atom_site_type_symbol
_atom_site_label
_atom_site_fract_x
_atom_site_fract_y
_atom_site_fract_z
Si Si1 0.670588 0.942139 0.562055
Si Si2 0.345245 0.483908 0.941903
Si Si3 0.557873 0.700430 0.413794
Si Si4 0.339732 0.119573 0.810466
Si Si5 0.307216 0.612120 0.109338
Si Si6 0.988059 0.423135 0.810092
Si Si7 0.959400 0.663835 0.827405
Si Si8 0.685949 0.521763 0.940566
O O1 0.765901 0.921326 0.626589
O O2 0.552299 0.886746 0.410558
O O3 0.771017 0.947504 0.772490
O O4 0.583751 0.010276 0.434432
O O5 0.262819 0.554272 0.830987
O O6 0.318604 0.454798 0.983765
O O7 0.521296 0.480145 0.178609
O O8 0.500000 0.706155 0.250000
O O9 0.725719 0.678948 0.650071
O O10 0.465693 0.642535 0.322327
O O11 0.531824 0.766026 0.421784
O O12 0.436925 0.132739 0.874993
O O13 0.442083 0.112899 0.023742
O O14 0.279583 0.555095 0.013120
O O15 0.195830 0.668130 0.930288
O O16 0.818959 0.442058 0.587860
O O17 0.000000 0.387849 0.750000
#
# Coordination Sequence:
#
# PCOD9279705 Si02
#       8
#     8   8   8   8   8   8   8   8
#     4  11  22  35  56  90 117 150 190 239 288 343
#     4  10  21  36  57  83 120 152 189 238 291 352
#     4  12  24  39  58  84 122 160 193 232 285 348
#     4  11  23  38  59  86 115 157 195 235 294 346
#     4  12  21  35  55  85 122 155 184 230 282 355
#     4  11  21  38  60  87 119 148 193 242 293 345
#     4  12  23  37  59  83 119 156 194 235 284 355
#     4  11  19  35  57  82 118 156 188 230 291 346
#
# _framework density 18.326647999999999
#
# number of rings (size 3 to 8) (size 9 to 14) (size 15 to 20)
#    0.000    0.750    6.250    2.250    1.750    3.500 
#    0.000    0.000    0.000    0.750    3.250    0.000 
#    0.000    0.000    0.000    0.000    0.000    0.000 
#
# Total GULP energy -178478.841391 kJ/mol
# GULP energy per Si atom -5577.463793 kJ/mol
# Density = 1.828494 g / cm^3
# Si number density = 18.326648 Si / 1000 Ang^3
#
#
#
# Elastic Constant Matrix: (Units=GPa)
#
#
# Indices 1 2 3 4 5 6 
#
# 1 111.4477 22.6442 36.9637 0.0000 -4.3506 0.0000
# 2 22.6442 35.7458 1.8917 0.0000 -5.5086 0.0000
# 3 36.9637 1.8917 74.2232 0.0000 -3.1349 0.0000
# 4 0.0000 0.0000 0.0000 5.2201 0.0000 -6.3933
# 5 -4.3506 -5.5086 -3.1349 0.0000 26.5332 0.0000
# 6 0.0000 0.0000 0.0000 -6.3933 0.0000 9.7402
#
#
#
# Elastic Compliance Matrix: (Units=1/GPa)
#
#
# Indices 1 2 3 4 5 6 
#
# 1 0.012526 -0.007653 -0.006053 0.000000 -0.000250 0.000000
# 2 -0.007653 0.033593 0.003213 0.000000 0.006099 0.000000
# 3 -0.006053 0.003213 0.016474 0.000000 0.001621 0.000000
# 4 0.000000 0.000000 0.000000 0.976942 0.000000 0.641253
# 5 -0.000250 0.006099 0.001621 0.000000 0.039105 0.000000
# 6 0.000000 0.000000 0.000000 0.641253 0.000000 0.523578
#
#
# Mechanical properties :
#
#
# Convention : Reuss Voigt Hill
#
# Bulk Modulus (GPa) = 24.03527 38.26842 31.15185
# Shear Modulus (GPa) = 3.05423 18.95982 11.00703
#
# Velocity S-wave (km/s) = 1.29235 3.21993 2.45338
# Velocity P-wave (km/s) = 3.92050 5.89496 5.00604
#
# Compressibility (1/GPa) = 0.04160552
#
# Stress axis : x y z
#
# Youngs Moduli (GPa) = 79.83566 29.76794 60.70132
#
# Poissons Ratio (x) = 0.22781 0.36745
# Poissons Ratio (y) = 0.61098 -0.19501
# Poissons Ratio (z) = 0.48328 -0.09563
#
# Static dielectric constant tensor:
#      x y z
#    x 1.676380 0.000000 0.035090 
#    y 0.000000 1.613570 0.000000 
#    z 0.035090 0.000000 1.680190 
# 
# From -- ./inp_files/124259.got.cif
#   From: 2010.05.17/outbox.cif.g08.bks.cpg/sg15_63_cif.got.tgz:124259.got - 2010.06.03 18:47:42.
