data_PCOD9279404
_publ_section_title
;
Structure prediction by ZEFSAII (Michael W. Deem and Ramdas Pophale) SiO2 
 PCOD9279404
Probable space group: C 2/C
;
_chemical_formula_sum "Si O2"
_cell_formula_units_Z 64
_cell_length_a 14.722270
_cell_length_b 10.092333
_cell_length_c 28.476550
_cell_angle_alpha 90.000000
_cell_angle_beta 136.028410
_cell_angle_gamma 90.000000
_cell_volume 2937.662434
_symmetry_space_group_name_H-M "C 2/C"
_symmetry_group_IT_number 15
_symmetry_cell_setting 'monoclinic'
loop_
_space_group_symop_operation_xyz
x,y,z
-x,y,1/2-z
-x,-y,-z
x,-y,1/2+z
1/2+x,1/2+y,z
1/2-x,1/2+y,1/2-z
1/2-x,1/2-y,-z
1/2+x,1/2-y,1/2+z
loop_
_atom_site_type_symbol
_atom_site_label
_atom_site_fract_x
_atom_site_fract_y
_atom_site_fract_z
Si Si1 0.942675 0.176267 0.175551
Si Si2 0.191889 0.710259 0.595318
Si Si3 0.036863 0.242992 0.844153
Si Si4 0.965909 0.800981 0.051291
Si Si5 0.317793 0.072576 0.378328
Si Si6 0.331391 0.522145 0.371877
Si Si7 0.070613 0.530483 0.826625
Si Si8 0.340737 0.477617 0.271171
O O1 0.795243 0.127118 0.128882
O O2 0.952162 0.325515 0.160038
O O3 0.000000 0.180105 0.250000
O O4 0.032134 0.073748 0.180946
O O5 0.349576 0.700733 0.649851
O O6 0.132946 0.566909 0.583131
O O7 0.154863 0.820277 0.619778
O O8 0.140339 0.768611 0.527105
O O9 0.027079 0.401247 0.838480
O O10 0.080493 0.200619 0.912381
O O11 0.901614 0.167079 0.783644
O O12 0.076493 0.686610 0.088999
O O13 0.037500 0.940656 0.069732
O O14 0.251671 0.032379 0.303903
O O15 0.223279 0.483035 0.370064
O O16 0.283415 0.478983 0.302152
O O17 0.000000 0.523504 0.750000
#
# Coordination Sequence:
#
# PCOD9279404 Si02
#       8
#     8   8   8   8   8   8   8   8
#     4   9  18  37  56  81 118 159 184 235 303 364
#     4  11  23  41  63  85 119 166 210 242 296 357
#     4  10  23  38  63  90 118 155 203 259 297 355
#     4  11  23  42  60  86 121 164 207 248 293 361
#     4  11  22  37  62  88 123 158 193 251 307 363
#     4  10  23  39  60  90 117 156 196 259 300 354
#     4  10  21  35  59  88 121 150 193 244 314 365
#     4  10  22  38  61  90 122 150 197 247 319 358
#
# _framework density 21.78603
#
# number of rings (size 3 to 8) (size 9 to 14) (size 15 to 20)
#    0.000    1.750    2.500    1.125    5.250    2.000 
#    0.000    0.000    0.000    1.500    0.000    0.000 
#    0.000    0.000    0.000    0.000    0.000    0.000 
#
# Total GULP energy -178924.077982 kJ/mol
# GULP energy per Si atom -5591.377437 kJ/mol
# Density = 2.173644 g / cm^3
# Si number density = 21.786030 Si / 1000 Ang^3
#
#
#
# Elastic Constant Matrix: (Units=GPa)
#
#
# Indices 1 2 3 4 5 6 
#
# 1 64.4200 34.9758 4.1068 0.0000 2.2576 0.0000
# 2 34.9758 136.7401 -3.0315 0.0000 2.2152 0.0000
# 3 4.1068 -3.0315 53.1231 0.0000 -5.5582 0.0000
# 4 0.0000 0.0000 0.0000 26.9400 0.0000 2.9338
# 5 2.2576 2.2152 -5.5582 0.0000 20.3651 0.0000
# 6 0.0000 0.0000 0.0000 2.9338 0.0000 6.2711
#
#
#
# Elastic Compliance Matrix: (Units=1/GPa)
#
#
# Indices 1 2 3 4 5 6 
#
# 1 0.018255 -0.004678 -0.001891 0.000000 -0.002031 0.000000
# 2 -0.004678 0.008531 0.000829 0.000000 -0.000183 0.000000
# 3 -0.001891 0.000829 0.019590 0.000000 0.005466 0.000000
# 4 0.000000 0.000000 0.000000 0.039112 0.000000 -0.018298
# 5 -0.002031 -0.000183 0.005466 0.000000 0.050840 0.000000
# 6 0.000000 0.000000 0.000000 -0.018298 0.000000 0.168022
#
#
# Mechanical properties :
#
#
# Convention : Reuss Voigt Hill
#
# Bulk Modulus (GPa) = 28.65631 36.26503 32.46067
# Shear Modulus (GPa) = 15.26896 25.26404 20.26650
#
# Velocity S-wave (km/s) = 2.65025 3.40905 3.05331
# Velocity P-wave (km/s) = 4.74839 5.67253 5.23091
#
# Compressibility (1/GPa) = 0.03489633
#
# Stress axis : x y z
#
# Youngs Moduli (GPa) = 54.77997 117.21779 51.04750
#
# Poissons Ratio (x) = 0.54838 0.09651
# Poissons Ratio (y) = 0.25628 -0.04234
# Poissons Ratio (z) = 0.10357 -0.09722
#
# Static dielectric constant tensor:
#      x y z
#    x 1.785840 0.000000 0.018110 
#    y 0.000000 1.799500 0.000000 
#    z 0.018110 0.000000 1.776580 
# 
# From -- ./inp_files/313171.got.cif
#   From: 2010.05.17/outbox.cif.g08.bks.cpg/sg15_157_cif.got.tgz:313171.got - 2010.06.03 18:47:42.
