data_PCOD9279193
_publ_section_title
;
Structure prediction by ZEFSAII (Michael W. Deem and Ramdas Pophale) SiO2 
 PCOD9279193
Probable space group: C 2/C
;
_chemical_formula_sum "Si O2"
_cell_formula_units_Z 64
_cell_length_a 29.856894
_cell_length_b 11.463356
_cell_length_c 17.275463
_cell_angle_alpha 90.000000
_cell_angle_beta 31.272353
_cell_angle_gamma 90.000000
_cell_volume 3069.324292
_symmetry_space_group_name_H-M "C 2/C"
_symmetry_group_IT_number 15
_symmetry_cell_setting 'monoclinic'
loop_
_space_group_symop_operation_xyz
x,y,z
-x,y,1/2-z
-x,-y,-z
x,-y,1/2+z
1/2+x,1/2+y,z
1/2-x,1/2+y,1/2-z
1/2-x,1/2-y,-z
1/2+x,1/2-y,1/2+z
loop_
_atom_site_type_symbol
_atom_site_label
_atom_site_fract_x
_atom_site_fract_y
_atom_site_fract_z
Si Si1 0.497046 0.771098 0.037236
Si Si2 0.068005 0.412125 0.508020
Si Si3 0.679038 0.282727 0.897733
Si Si4 0.748472 0.024514 0.655213
Si Si5 0.130059 0.913332 0.822524
Si Si6 0.763905 0.386970 0.497169
Si Si7 0.342966 0.654281 0.637518
Si Si8 0.551746 0.111115 0.743261
O O1 0.459746 0.650789 0.059580
O O2 0.438024 0.811072 0.195345
O O3 0.487565 0.863879 0.982611
O O4 0.588273 0.752419 0.943361
O O5 0.094751 0.299882 0.521105
O O6 0.158539 0.464391 0.338235
O O7 0.009805 0.504030 0.639994
O O8 0.700513 0.402249 0.910379
O O9 0.681823 0.325574 0.803577
O O10 0.755430 0.195930 0.806571
O O11 0.728347 0.048758 0.596286
O O12 0.813397 0.122682 0.594347
O O13 0.181894 0.928215 0.667287
O O14 0.124072 0.033867 0.875863
O O15 0.750000 0.250000 0.500000
O O16 0.849246 0.415485 0.421902
O O17 0.500000 0.170410 0.750000
#
# Coordination Sequence:
#
# PCOD9279193 Si02
#       8
#     8   8   8   8   8   8   8   8
#     4  11  21  39  63  88 121 158 205 251 301 362
#     4  10  21  42  59  90 126 154 211 250 294 364
#     4   9  20  38  63  85 116 162 203 253 296 362
#     4  10  21  39  63  90 121 167 199 252 309 365
#     4  10  22  40  56  89 124 156 198 255 307 358
#     4  12  23  41  60  91 131 156 196 256 323 358
#     4  10  21  34  66  86 115 160 210 246 295 373
#     4  12  27  36  63  94 121 159 195 260 304 362
#
# _framework density 20.851493999999999
#
# number of rings (size 3 to 8) (size 9 to 14) (size 15 to 20)
#    0.000    1.500    2.500    3.000   10.500    0.000 
#    0.000    1.875    0.000    0.000    0.000    0.000 
#    0.000    0.000    0.000    0.000    0.000    0.000 
#
# Total GULP energy -178384.259952 kJ/mol
# GULP energy per Si atom -5574.508124 kJ/mol
# Density = 2.080404 g / cm^3
# Si number density = 20.851494 Si / 1000 Ang^3
#
#
#
# Elastic Constant Matrix: (Units=GPa)
#
#
# Indices 1 2 3 4 5 6 
#
# 1 78.0942 11.9532 1.2930 0.0000 -21.1163 0.0000
# 2 11.9532 71.7819 -4.8699 0.0000 -12.8535 0.0000
# 3 1.2930 -4.8699 36.3767 0.0000 -13.4085 0.0000
# 4 0.0000 0.0000 0.0000 21.5283 0.0000 -15.9576
# 5 -21.1163 -12.8535 -13.4085 0.0000 27.3070 0.0000
# 6 0.0000 0.0000 0.0000 -15.9576 0.0000 25.4115
#
#
#
# Elastic Compliance Matrix: (Units=1/GPa)
#
#
# Indices 1 2 3 4 5 6 
#
# 1 0.016958 0.000384 0.005310 0.000000 0.015902 0.000000
# 2 0.000384 0.016260 0.006219 0.000000 0.011004 0.000000
# 3 0.005310 0.006219 0.037517 0.000000 0.025455 0.000000
# 4 0.000000 0.000000 0.000000 0.086900 0.000000 0.054570
# 5 0.015902 0.011004 0.025455 0.000000 0.066596 0.000000
# 6 0.000000 0.000000 0.000000 0.054570 0.000000 0.073621
#
#
# Mechanical properties :
#
#
# Convention : Reuss Voigt Hill
#
# Bulk Modulus (GPa) = 10.57528 22.55616 16.56572
# Shear Modulus (GPa) = 16.36417 26.70781 21.53599
#
# Velocity S-wave (km/s) = 2.80446 3.58279 3.21725
# Velocity P-wave (km/s) = 3.94581 5.28736 4.66506
#
# Compressibility (1/GPa) = 0.09456015
#
# Stress axis : x y z
#
# Youngs Moduli (GPa) = 58.96887 61.50249 26.65468
#
# Poissons Ratio (x) = -0.02360 -0.14154
# Poissons Ratio (y) = -0.02263 -0.16577
# Poissons Ratio (z) = -0.31312 -0.38249
#
# Static dielectric constant tensor:
#      x y z
#    x 1.765570 0.000000 -0.035120 
#    y 0.000000 1.788650 0.000000 
#    z -0.035120 0.000000 1.763250 
# 
# From -- ./inp_files/215079.got.cif
#   From: 2010.05.17/outbox.cif.g08.bks.cpg/sg15_108_cif.got.tgz:215079.got - 2010.06.03 18:47:42.
