data_PCOD9279196
_publ_section_title
;
Structure prediction by ZEFSAII (Michael W. Deem and Ramdas Pophale) SiO2 
 PCOD9279196
Probable space group: C 2/C
;
_chemical_formula_sum "Si O2"
_cell_formula_units_Z 32
_cell_length_a 14.782286
_cell_length_b 21.730550
_cell_length_c 14.266855
_cell_angle_alpha 90.000000
_cell_angle_beta 20.632991
_cell_angle_gamma 90.000000
_cell_volume 1614.925625
_symmetry_space_group_name_H-M "C 2/C"
_symmetry_group_IT_number 15
_symmetry_cell_setting 'monoclinic'
loop_
_space_group_symop_operation_xyz
x,y,z
-x,y,1/2-z
-x,-y,-z
x,-y,1/2+z
1/2+x,1/2+y,z
1/2-x,1/2+y,1/2-z
1/2-x,1/2-y,-z
1/2+x,1/2-y,1/2+z
loop_
_atom_site_type_symbol
_atom_site_label
_atom_site_fract_x
_atom_site_fract_y
_atom_site_fract_z
Si Si1 0.452232 0.430754 0.513083
Si Si2 0.665427 0.776521 0.979774
Si Si3 0.415186 0.048172 0.438322
Si Si4 0.693586 0.589885 0.150092
O O1 0.500000 0.500000 0.500000
O O2 0.466602 0.397676 0.599059
O O3 0.160310 0.431196 0.760677
O O4 0.661530 0.420056 0.228744
O O5 0.634259 0.849279 0.022452
O O6 0.918211 0.756554 0.678885
O O7 0.750000 0.750000 0.000000
O O8 0.500000 0.061789 0.250000
O O9 0.351981 0.974213 0.502693
O O10 0.500000 0.585441 0.250000
#
# Coordination Sequence:
#
# PCOD9279196 Si02
#       4
#     8   8   8   8
#     4  10  21  36  49  80 105 136 190 226 251 337
#     4  10  21  35  47  74 110 142 182 217 238 320
#     4  11  22  36  54  76 104 143 187 229 267 313
#     4  11  21  34  57  76 113 157 174 210 283 316
#
# _framework density 19.815154
#
# number of rings (size 3 to 8) (size 9 to 14) (size 15 to 20)
#    0.000    1.500    2.500    6.750    3.500    6.000 
#    0.000    0.000    0.000    0.000    0.000    0.000 
#    0.000   20.000    0.000    0.000    0.000    0.750 
#
# Total GULP energy -89111.051224 kJ/mol
# GULP energy per Si atom -5569.440701 kJ/mol
# Density = 1.977005 g / cm^3
# Si number density = 19.815154 Si / 1000 Ang^3
#
#
#
# Elastic Constant Matrix: (Units=GPa)
#
#
# Indices 1 2 3 4 5 6 
#
# 1 100.4991 16.1692 47.1563 0.0533 15.1538 -0.0335
# 2 16.1692 44.5956 20.5218 0.0799 5.4901 -0.0660
# 3 47.1563 20.5218 148.1450 0.0751 -3.4631 0.0928
# 4 0.0533 0.0799 0.0751 19.8478 -0.0167 8.3702
# 5 15.1538 5.4901 -3.4631 -0.0167 44.8207 0.0750
# 6 -0.0335 -0.0660 0.0928 8.3702 0.0750 -6.7945
#
#
#
# Elastic Compliance Matrix: (Units=1/GPa)
#
#
# Indices 1 2 3 4 5 6 
#
# 1 0.012784 -0.002331 -0.003848 0.000030 -0.004334 -0.000104
# 2 -0.002331 0.024841 -0.002757 0.000026 -0.002467 -0.000263
# 3 -0.003848 -0.002757 0.008410 -0.000057 0.002288 0.000115
# 4 0.000030 0.000026 -0.000057 0.033158 -0.000074 0.040846
# 5 -0.004334 -0.002467 0.002288 -0.000074 0.024255 0.000254
# 6 -0.000104 -0.000263 0.000115 0.040846 0.000254 -0.096853
#
#
# Mechanical properties :
#
#
# Convention : Reuss Voigt Hill
#
# Bulk Modulus (GPa) = 35.50600 51.21491 43.36045
# Shear Modulus (GPa) = 147.68997 25.53430 86.61213
#
# Velocity S-wave (km/s) = 8.64266 3.59364 6.61853
# Velocity P-wave (km/s) = 10.84213 6.56669 8.96307
#
# Compressibility (1/GPa) = 0.02816426
#
# Stress axis : x y z
#
# Youngs Moduli (GPa) = 78.22110 40.25637 118.90317
#
# Poissons Ratio (x) = 0.09385 0.45750
# Poissons Ratio (y) = 0.18236 0.32776
# Poissons Ratio (z) = 0.30097 0.11097
#
# Static dielectric constant tensor:
#      x y z
#    x 1.725420 -0.000020 0.027580 
#    y -0.000020 1.640090 0.000150 
#    z 0.027580 0.000150 1.787320 
# 
# From -- ./inp_files/7085.got.cif
#   From: 2010.05.17/outbox.cif.g08.bks.cpg/sg15_4_cif.got.tgz:7085.got - 2010.06.03 18:47:42.
