data_PCOD9279668
_publ_section_title
;
Structure prediction by ZEFSAII (Michael W. Deem and Ramdas Pophale) SiO2 
 PCOD9279668
Probable space group: C 2/C
;
_chemical_formula_sum "Si O2"
_cell_formula_units_Z 48
_cell_length_a 15.683333
_cell_length_b 29.932630
_cell_length_c 16.087289
_cell_angle_alpha 90.000000
_cell_angle_beta 162.124453
_cell_angle_gamma 90.000000
_cell_volume 2318.111909
_symmetry_space_group_name_H-M "C 2/C"
_symmetry_group_IT_number 15
_symmetry_cell_setting 'monoclinic'
loop_
_space_group_symop_operation_xyz
x,y,z
-x,y,1/2-z
-x,-y,-z
x,-y,1/2+z
1/2+x,1/2+y,z
1/2-x,1/2+y,1/2-z
1/2-x,1/2-y,-z
1/2+x,1/2-y,1/2+z
loop_
_atom_site_type_symbol
_atom_site_label
_atom_site_fract_x
_atom_site_fract_y
_atom_site_fract_z
Si Si1 0.804291 0.470530 0.994106
Si Si2 0.650856 0.607609 0.233945
Si Si3 0.690796 0.684082 0.497607
Si Si4 0.419429 0.278171 0.424050
Si Si5 0.193831 0.428130 0.004252
Si Si6 0.734374 0.128049 0.708103
O O1 0.500000 0.474272 0.750000
O O2 0.767870 0.437126 0.884075
O O3 0.898302 0.520883 0.059566
O O4 0.000000 0.453016 0.250000
O O5 0.930547 0.633539 0.467501
O O6 0.468444 0.637697 0.127422
O O7 0.445515 0.601406 0.965151
O O8 0.682737 0.710231 0.577062
O O9 0.000000 0.677177 0.750000
O O10 0.500000 0.706645 0.250000
O O11 0.733486 0.262255 0.719119
O O12 0.369468 0.323161 0.326364
O O13 0.500000 0.429639 0.250000
O O14 0.192311 0.397899 0.083897
O O15 0.000000 0.411480 0.750000
#
# Coordination Sequence:
#
# PCOD9279668 Si02
#       6
#     8   8   8   8   8   8
#     4  10  21  36  56  85 122 160 194 231 275 326
#     4  11  22  36  57  87 122 159 197 233 275 328
#     4  11  22  36  55  82 118 158 198 234 269 321
#     4  11  23  39  57  81 113 150 190 236 292 341
#     4  10  22  41  64  88 114 148 189 237 297 354
#     4  11  23  40  62  86 114 151 193 240 293 348
#
# _framework density 20.706507999999999
#
# number of rings (size 3 to 8) (size 9 to 14) (size 15 to 20)
#    0.000    1.333    0.000    7.500    0.000    6.000 
#    0.000    0.000    0.000    3.000    0.000    0.000 
#    0.000    0.000    0.000    0.000    0.000    0.000 
#
# Total GULP energy -134204.839797 kJ/mol
# GULP energy per Si atom -5591.868325 kJ/mol
# Density = 2.065938 g / cm^3
# Si number density = 20.706508 Si / 1000 Ang^3
#
#
#
# Elastic Constant Matrix: (Units=GPa)
#
#
# Indices 1 2 3 4 5 6 
#
# 1 36.7530 33.0864 32.6878 0.0057 -20.1522 0.0057
# 2 33.0864 90.0006 24.7521 0.0078 -29.0712 0.0057
# 3 32.6878 24.7521 147.6479 0.0323 -25.1248 0.0045
# 4 0.0057 0.0078 0.0323 33.0788 0.0072 -1.1014
# 5 -20.1522 -29.0712 -25.1248 0.0072 40.0896 0.0003
# 6 0.0057 0.0057 0.0045 -1.1014 0.0003 20.7669
#
#
#
# Elastic Compliance Matrix: (Units=1/GPa)
#
#
# Indices 1 2 3 4 5 6 
#
# 1 0.052305 -0.013328 -0.007294 -0.000002 0.012056 -0.000009
# 2 -0.013328 0.017974 0.001137 -0.000005 0.007047 -0.000002
# 3 -0.007294 0.001137 0.008634 -0.000008 0.002569 -0.000001
# 4 -0.000002 -0.000005 -0.000008 0.030284 -0.000015 0.001606
# 5 0.012056 0.007047 0.002569 -0.000015 0.037725 -0.000007
# 6 -0.000009 -0.000002 -0.000001 0.001606 -0.000007 0.048239
#
#
# Mechanical properties :
#
#
# Convention : Reuss Voigt Hill
#
# Bulk Modulus (GPa) = 25.03586 50.60597 37.82092
# Shear Modulus (GPa) = 20.20637 31.04540 25.62589
#
# Velocity S-wave (km/s) = 3.12724 3.87629 3.52174
# Velocity P-wave (km/s) = 5.01563 6.67284 5.90269
#
# Compressibility (1/GPa) = 0.03994270
#
# Stress axis : x y z
#
# Youngs Moduli (GPa) = 19.11860 55.63464 115.81757
#
# Poissons Ratio (x) = 0.74151 0.84475
# Poissons Ratio (y) = 0.25482 -0.13164
# Poissons Ratio (z) = 0.13945 -0.06323
#
# Static dielectric constant tensor:
#      x y z
#    x 1.709520 0.000000 -0.011680 
#    y 0.000000 1.788310 -0.000010 
#    z -0.011680 -0.000010 1.727100 
# 
# From -- ./inp_files/157700.got.cif
#   From: 2010.05.17/outbox.cif.g08.bks.cpg/sg15_79_cif.got.tgz:157700.got - 2010.06.03 18:47:42.
