data_PCOD9279672
_publ_section_title
;
Structure prediction by ZEFSAII (Michael W. Deem and Ramdas Pophale) SiO2 
 PCOD9279672
Probable space group: C 2/C
;
_chemical_formula_sum "Si O2"
_cell_formula_units_Z 52
_cell_length_a 12.781792
_cell_length_b 27.060358
_cell_length_c 9.653022
_cell_angle_alpha 90.000000
_cell_angle_beta 56.070375
_cell_angle_gamma 90.000000
_cell_volume 2770.270148
_symmetry_space_group_name_H-M "C 2/C"
_symmetry_group_IT_number 15
_symmetry_cell_setting 'monoclinic'
loop_
_space_group_symop_operation_xyz
x,y,z
-x,y,1/2-z
-x,-y,-z
x,-y,1/2+z
1/2+x,1/2+y,z
1/2-x,1/2+y,1/2-z
1/2-x,1/2-y,-z
1/2+x,1/2-y,1/2+z
loop_
_atom_site_type_symbol
_atom_site_label
_atom_site_fract_x
_atom_site_fract_y
_atom_site_fract_z
Si Si1 0.500000 0.371126 0.750000
Si Si2 0.526559 0.048902 0.568299
Si Si3 0.134488 0.948041 0.032781
Si Si4 0.180319 0.041003 0.187429
Si Si5 0.788877 0.805629 0.435636
Si Si6 0.889280 0.392086 0.943787
Si Si7 0.989976 0.150769 0.566083
O O1 0.388613 0.408393 0.795787
O O2 0.533058 0.345018 0.580734
O O3 0.500000 0.043866 0.750000
O O4 0.675232 0.053715 0.444829
O O5 0.443191 0.089939 0.551298
O O6 0.500000 0.000000 0.500000
O O7 0.158931 0.970359 0.863667
O O8 0.262325 0.920891 0.990928
O O9 0.022658 0.906707 0.089545
O O10 0.129224 0.995086 0.137147
O O11 0.750000 0.750000 0.500000
O O12 0.660200 0.836330 0.517332
O O13 0.879097 0.823230 0.238737
O O14 0.878038 0.823081 0.495813
O O15 0.000000 0.400012 0.750000
#
# Coordination Sequence:
#
# PCOD9279672 Si02
#       7
#     4   8   8   8   8   8   8
#     4  10  24  40  60  88 130 170 192 258 298 378
#     4  12  23  36  57  87 128 171 213 254 301 367
#     4  10  21  36  56  86 120 171 205 255 290 361
#     4  11  22  35  56  85 127 170 221 237 299 354
#     4  10  23  42  70  93 112 153 207 270 321 383
#     4  11  22  38  59  85 125 162 204 263 313 366
#     4   9  22  43  63  91 125 154 207 253 323 366
#
# _framework density 18.770731999999999
#
# number of rings (size 3 to 8) (size 9 to 14) (size 15 to 20)
#    0.000    1.538    3.077    1.385    4.308    7.385 
#    0.000    0.769    1.692    0.000    0.000    0.000 
#    0.000    0.000    0.000    0.000    0.000    0.000 
#
# Total GULP energy -144943.069215 kJ/mol
# GULP energy per Si atom -5574.733431 kJ/mol
# Density = 1.872801 g / cm^3
# Si number density = 18.770732 Si / 1000 Ang^3
#
#
#
# Elastic Constant Matrix: (Units=GPa)
#
#
# Indices 1 2 3 4 5 6 
#
# 1 89.2046 17.9599 59.5559 0.0000 12.8816 0.0000
# 2 17.9599 81.3523 50.8173 0.0000 17.9649 0.0000
# 3 59.5559 50.8173 130.3341 0.0000 27.9964 0.0000
# 4 0.0000 0.0000 0.0000 29.3996 0.0000 -8.4659
# 5 12.8816 17.9649 27.9964 0.0000 45.7265 0.0000
# 6 0.0000 0.0000 0.0000 -8.4659 0.0000 22.8307
#
#
#
# Elastic Compliance Matrix: (Units=1/GPa)
#
#
# Indices 1 2 3 4 5 6 
#
# 1 0.016253 0.001423 -0.007919 0.000000 -0.000289 0.000000
# 2 0.001423 0.016712 -0.006528 0.000000 -0.002970 0.000000
# 3 -0.007919 -0.006528 0.014746 0.000000 -0.004233 0.000000
# 4 0.000000 0.000000 0.000000 0.038080 0.000000 0.014121
# 5 -0.000289 -0.002970 -0.004233 0.000000 0.025709 0.000000
# 6 0.000000 0.000000 0.000000 0.014121 0.000000 0.049037
#
#
# Mechanical properties :
#
#
# Convention : Reuss Voigt Hill
#
# Bulk Modulus (GPa) = 46.16686 61.95081 54.05884
# Shear Modulus (GPa) = 25.79911 31.09524 28.44718
#
# Velocity S-wave (km/s) = 3.71136 4.07453 3.89717
# Velocity P-wave (km/s) = 6.55851 7.43043 7.00804
#
# Compressibility (1/GPa) = 0.02166056
#
# Stress axis : x y z
#
# Youngs Moduli (GPa) = 61.52862 59.83830 67.81640
#
# Poissons Ratio (x) = -0.08512 0.53705
# Poissons Ratio (y) = -0.08753 0.44271
# Poissons Ratio (z) = 0.48726 0.39063
#
# Static dielectric constant tensor:
#      x y z
#    x 1.629330 0.000000 0.003960 
#    y 0.000000 1.684920 0.000000 
#    z 0.003960 0.000000 1.705240 
# 
# From -- ./inp_files/34093.got.cif
#   From: 2010.05.17/outbox.cif.g08.bks.cpg/sg15_18_cif.got.tgz:34093.got - 2010.06.03 18:47:42.
