data_PCOD9279302
_publ_section_title
;
Structure prediction by ZEFSAII (Michael W. Deem and Ramdas Pophale) SiO2 
 PCOD9279302
Probable space group: C 2/C
;
_chemical_formula_sum "Si O2"
_cell_formula_units_Z 60
_cell_length_a 20.532888
_cell_length_b 14.152293
_cell_length_c 19.290169
_cell_angle_alpha 90.000000
_cell_angle_beta 151.089372
_cell_angle_gamma 90.000000
_cell_volume 2709.940444
_symmetry_space_group_name_H-M "C 2/C"
_symmetry_group_IT_number 15
_symmetry_cell_setting 'monoclinic'
loop_
_space_group_symop_operation_xyz
x,y,z
-x,y,1/2-z
-x,-y,-z
x,-y,1/2+z
1/2+x,1/2+y,z
1/2-x,1/2+y,1/2-z
1/2-x,1/2-y,-z
1/2+x,1/2-y,1/2+z
loop_
_atom_site_type_symbol
_atom_site_label
_atom_site_fract_x
_atom_site_fract_y
_atom_site_fract_z
Si Si1 0.500000 0.876156 0.750000
Si Si2 0.375347 0.735932 0.746131
Si Si3 0.173337 0.262360 0.355467
Si Si4 0.386148 0.541337 0.699903
Si Si5 0.704009 0.969374 0.428556
Si Si6 0.887929 0.191990 0.426935
Si Si7 0.902142 0.001950 0.992487
Si Si8 0.557842 0.283974 0.959804
O O1 0.426509 0.811090 0.737540
O O2 0.390643 0.953269 0.624568
O O3 0.319413 0.641344 0.656976
O O4 0.259191 0.773845 0.688322
O O5 0.508503 0.709197 0.913484
O O6 0.250000 0.250000 0.500000
O O7 0.143573 0.375833 0.337478
O O8 0.298103 0.236234 0.420127
O O9 0.034717 0.218854 0.196300
O O10 0.500000 0.568828 0.750000
O O11 0.309117 0.456007 0.589594
O O12 0.457350 0.507838 0.835916
O O13 0.787745 0.017205 0.444105
O O14 0.885237 0.077228 0.418543
O O15 0.954489 0.244993 0.423732
O O16 0.893515 0.112337 0.969957
#
# Coordination Sequence:
#
# PCOD9279302 Si02
#       8
#     4   8   8   8   8   8   8   8
#     4  12  22  34  58  90 126 156 196 244 304 354
#     4  11  22  35  61  90 125 164 199 240 297 361
#     4  11  24  42  66  90 116 155 204 258 310 358
#     4   9  17  32  56  86 120 151 196 240 292 352
#     4  10  21  35  56  87 123 154 192 248 304 351
#     4  11  22  39  59  89 125 162 202 242 296 362
#     4   9  19  37  59  85 113 160 200 246 290 357
#     4  11  23  41  64  88 119 159 204 251 302 361
#
# _framework density 22.140708
#
# number of rings (size 3 to 8) (size 9 to 14) (size 15 to 20)
#    0.000    1.600    2.000    3.200    1.867    3.200 
#    0.000    0.000    0.000    0.800    0.000    0.000 
#    0.000    0.000    0.000    0.000    0.000    0.000 
#
# Total GULP energy -167030.558448 kJ/mol
# GULP energy per Si atom -5567.685282 kJ/mol
# Density = 2.209031 g / cm^3
# Si number density = 22.140708 Si / 1000 Ang^3
#
#
#
# Elastic Constant Matrix: (Units=GPa)
#
#
# Indices 1 2 3 4 5 6 
#
# 1 70.7093 -2.4013 -6.5802 -0.0001 19.1039 -0.0001
# 2 -2.4013 52.7916 1.0828 -0.0002 6.0640 -0.0001
# 3 -6.5802 1.0828 47.8138 -0.0004 15.8759 -0.0002
# 4 -0.0001 -0.0002 -0.0004 19.5835 -0.0001 -0.6249
# 5 19.1039 6.0640 15.8759 -0.0001 31.6233 -0.0001
# 6 -0.0001 -0.0001 -0.0002 -0.6249 -0.0001 12.6895
#
#
#
# Elastic Compliance Matrix: (Units=1/GPa)
#
#
# Indices 1 2 3 4 5 6 
#
# 1 0.019345 0.002576 0.007978 0.000000 -0.016186 0.000000
# 2 0.002576 0.019748 0.002017 0.000000 -0.006356 0.000000
# 3 0.007978 0.002017 0.028436 0.000000 -0.019482 0.000000
# 4 0.000000 0.000000 0.000000 0.051144 0.000000 0.002519
# 5 -0.016186 -0.006356 -0.019482 0.000000 0.052400 0.000000
# 6 0.000000 0.000000 0.000000 0.002519 0.000000 0.078929
#
#
# Mechanical properties :
#
#
# Convention : Reuss Voigt Hill
#
# Bulk Modulus (GPa) = 10.79078 17.27972 14.03525
# Shear Modulus (GPa) = 19.55036 24.72682 22.13859
#
# Velocity S-wave (km/s) = 2.97476 3.34549 3.16556
# Velocity P-wave (km/s) = 4.08452 4.76912 4.44003
#
# Compressibility (1/GPa) = 0.09267173
#
# Stress axis : x y z
#
# Youngs Moduli (GPa) = 51.69199 50.63751 35.16723
#
# Poissons Ratio (x) = -0.13042 -0.28057
# Poissons Ratio (y) = -0.13313 -0.07095
# Poissons Ratio (z) = -0.41241 -0.10216
#
# Static dielectric constant tensor:
#      x y z
#    x 1.883600 0.000000 0.022790 
#    y 0.000000 1.920850 0.000000 
#    z 0.022790 0.000000 1.931220 
# 
# From -- ./inp_files/253059.got.cif
#   From: 2010.05.17/outbox.cif.g08.bks.cpg/sg15_127_cif.got.tgz:253059.got - 2010.06.03 18:47:42.
