data_PCOD9279568
_publ_section_title
;
Structure prediction by ZEFSAII (Michael W. Deem and Ramdas Pophale) SiO2 
 PCOD9279568
Probable space group: C 2/C
;
_chemical_formula_sum "Si O2"
_cell_formula_units_Z 40
_cell_length_a 19.297109
_cell_length_b 13.712298
_cell_length_c 7.893418
_cell_angle_alpha 90.000000
_cell_angle_beta 139.125618
_cell_angle_gamma 90.000000
_cell_volume 1366.824448
_symmetry_space_group_name_H-M "C 2/C"
_symmetry_group_IT_number 15
_symmetry_cell_setting 'monoclinic'
loop_
_space_group_symop_operation_xyz
x,y,z
-x,y,1/2-z
-x,-y,-z
x,-y,1/2+z
1/2+x,1/2+y,z
1/2-x,1/2+y,1/2-z
1/2-x,1/2-y,-z
1/2+x,1/2-y,1/2+z
loop_
_atom_site_type_symbol
_atom_site_label
_atom_site_fract_x
_atom_site_fract_y
_atom_site_fract_z
Si Si1 0.873124 0.642520 0.779398
Si Si2 0.872101 0.835893 0.629041
Si Si3 0.390684 0.576966 0.518580
Si Si4 0.623071 0.741770 0.733589
Si Si5 0.648618 0.053908 0.130323
O O1 0.926000 0.744879 0.832195
O O2 0.755879 0.674626 0.621935
O O3 0.866329 0.594302 0.583382
O O4 0.903743 0.551228 0.948588
O O5 0.898744 0.821941 0.479402
O O6 0.883065 0.913357 0.801685
O O7 0.500000 0.518562 0.750000
O O8 0.405525 0.676204 0.655803
O O9 0.276800 0.539277 0.374711
O O10 0.604862 0.859037 0.668447
O O11 0.750000 0.750000 0.000000
#
# Coordination Sequence:
#
# PCOD9279568 Si02
#       5
#     8   8   8   8   8
#     4   9  17  30  53  79 106 128 174 229 265 297
#     4   9  19  34  50  79 107 139 177 218 263 311
#     4  10  21  36  53  76 111 146 176 209 263 327
#     4   9  18  33  55  77 102 135 182 221 261 310
#     4   9  19  30  52  84 101 132 178 222 265 307
#
# _framework density 29.264914999999998
#
# number of rings (size 3 to 8) (size 9 to 14) (size 15 to 20)
#    0.000    2.800    0.000    3.600    8.400    0.800 
#    0.000    4.000    0.000    1.200    0.000    0.000 
#    0.000    0.000    0.000    0.000    0.000    0.000 
#
# Total GULP energy -111675.377812 kJ/mol
# GULP energy per Si atom -5583.768891 kJ/mol
# Density = 2.919831 g / cm^3
# Si number density = 29.264915 Si / 1000 Ang^3
#
#
#
# Elastic Constant Matrix: (Units=GPa)
#
#
# Indices 1 2 3 4 5 6 
#
# 1 178.1925 70.6183 40.9224 0.0000 -23.4498 0.0000
# 2 70.6183 123.0222 38.2822 0.0000 -22.9758 0.0000
# 3 40.9224 38.2822 133.6817 0.0000 -35.8630 0.0000
# 4 0.0000 0.0000 0.0000 48.6691 0.0000 -10.3713
# 5 -23.4498 -22.9758 -35.8630 0.0000 53.4227 0.0000
# 6 0.0000 0.0000 0.0000 -10.3713 0.0000 42.4363
#
#
#
# Elastic Compliance Matrix: (Units=1/GPa)
#
#
# Indices 1 2 3 4 5 6 
#
# 1 0.007467 -0.003809 -0.000921 0.000000 0.001021 0.000000
# 2 -0.003809 0.011170 -0.001454 0.000000 0.002156 0.000000
# 3 -0.000921 -0.001454 0.009638 0.000000 0.005441 0.000000
# 4 0.000000 0.000000 0.000000 0.021676 0.000000 0.005298
# 5 0.001021 0.002156 0.005441 0.000000 0.023746 0.000000
# 6 0.000000 0.000000 0.000000 0.005298 0.000000 0.024859
#
#
# Mechanical properties :
#
#
# Convention : Reuss Voigt Hill
#
# Bulk Modulus (GPa) = 62.86633 81.61580 72.24106
# Shear Modulus (GPa) = 43.01830 47.91050 45.46440
#
# Velocity S-wave (km/s) = 3.83817 4.05054 3.94578
# Velocity P-wave (km/s) = 6.41642 7.05868 6.74520
#
# Compressibility (1/GPa) = 0.01590677
#
# Stress axis : x y z
#
# Youngs Moduli (GPa) = 133.91515 89.52240 103.75074
#
# Poissons Ratio (x) = 0.34100 0.09557
# Poissons Ratio (y) = 0.51010 0.15090
# Poissons Ratio (z) = 0.12335 0.13021
#
# Static dielectric constant tensor:
#      x y z
#    x 1.450950 0.000000 -0.131200 
#    y 0.000000 2.738920 0.000000 
#    z -0.131200 0.000000 2.163950 
# 
# From -- ./inp_files/37988.got.cif
#   From: 2010.05.17/outbox.cif.g08.bks.cpg/sg15_19_cif.got.tgz:37988.got - 2010.06.03 18:47:42.
