data_PCOD9279187
_publ_section_title
;
Structure prediction by ZEFSAII (Michael W. Deem and Ramdas Pophale) SiO2 
 PCOD9279187
Probable space group: C 2/C
;
_chemical_formula_sum "Si O2"
_cell_formula_units_Z 44
_cell_length_a 12.676584
_cell_length_b 20.530837
_cell_length_c 7.649783
_cell_angle_alpha 90.000000
_cell_angle_beta 105.084586
_cell_angle_gamma 90.000000
_cell_volume 1922.336819
_symmetry_space_group_name_H-M "C 2/C"
_symmetry_group_IT_number 15
_symmetry_cell_setting 'monoclinic'
loop_
_space_group_symop_operation_xyz
x,y,z
-x,y,1/2-z
-x,-y,-z
x,-y,1/2+z
1/2+x,1/2+y,z
1/2-x,1/2+y,1/2-z
1/2-x,1/2-y,-z
1/2+x,1/2-y,1/2+z
loop_
_atom_site_type_symbol
_atom_site_label
_atom_site_fract_x
_atom_site_fract_y
_atom_site_fract_z
Si Si1 0.738009 0.064539 0.033372
Si Si2 0.500000 0.272092 0.750000
Si Si3 0.704423 0.671568 0.150152
Si Si4 0.752989 0.419618 0.358037
Si Si5 0.582864 0.760151 0.649768
Si Si6 0.502667 0.885392 0.441707
O O1 0.771602 0.114203 0.198234
O O2 0.777153 0.991763 0.089969
O O3 0.776055 0.087273 0.858326
O O4 0.604605 0.066118 0.973038
O O5 0.410615 0.298701 0.849478
O O6 0.408980 0.261412 0.548389
O O7 0.800162 0.724868 0.213708
O O8 0.709048 0.635804 0.965679
O O9 0.885296 0.415210 0.422888
O O10 0.500000 0.726243 0.750000
O O11 0.528760 0.831277 0.591768
O O12 0.500000 0.848512 0.250000
#
# Coordination Sequence:
#
# PCOD9279187 Si02
#       6
#     8   4   8   8   8   8
#     4  10  21  34  63  94 131 164 200 247 316 380
#     4  12  28  46  62  88 124 172 222 264 306 360
#     4  11  25  43  64  93 129 164 212 261 308 379
#     4  11  19  37  62  95 131 164 201 249 315 380
#     4  11  22  41  68  94 123 159 210 265 327 368
#     4   9  18  33  57  95 132 156 188 251 317 385
#
# _framework density 22.888809999999999
#
# number of rings (size 3 to 8) (size 9 to 14) (size 15 to 20)
#    0.000    1.455    4.545    1.091    0.000    2.182 
#    0.000    0.909    0.000    0.000    0.000    0.000 
#    0.000    0.000    0.000    0.000    0.000    0.000 
#
# Total GULP energy -122661.679505 kJ/mol
# GULP energy per Si atom -5575.530887 kJ/mol
# Density = 2.283671 g / cm^3
# Si number density = 22.888810 Si / 1000 Ang^3
#
#
#
# Elastic Constant Matrix: (Units=GPa)
#
#
# Indices 1 2 3 4 5 6 
#
# 1 105.0199 121.7467 19.8898 0.0000 -20.6371 0.0000
# 2 121.7467 319.1433 0.6086 0.0000 -10.1305 0.0000
# 3 19.8898 0.6086 117.3442 0.0000 -44.7076 0.0000
# 4 0.0000 0.0000 0.0000 5.1663 0.0000 -1.3778
# 5 -20.6371 -10.1305 -44.7076 0.0000 41.4005 0.0000
# 6 0.0000 0.0000 0.0000 -1.3778 0.0000 16.7784
#
#
#
# Elastic Compliance Matrix: (Units=1/GPa)
#
#
# Indices 1 2 3 4 5 6 
#
# 1 0.019343 -0.007141 -0.000397 0.000000 0.007466 0.000000
# 2 -0.007141 0.005810 0.000621 0.000000 -0.001467 0.000000
# 3 -0.000397 0.000621 0.014558 0.000000 0.015675 0.000000
# 4 0.000000 0.000000 0.000000 0.197896 0.000000 0.016251
# 5 0.007466 -0.001467 0.015675 0.000000 0.044444 0.000000
# 6 0.000000 0.000000 0.000000 0.016251 0.000000 0.060935
#
#
# Mechanical properties :
#
#
# Convention : Reuss Voigt Hill
#
# Bulk Modulus (GPa) = 38.64464 91.77751 65.21108
# Shear Modulus (GPa) = 13.68193 39.28652 26.48422
#
# Velocity S-wave (km/s) = 2.44756 4.14745 3.40528
# Velocity P-wave (km/s) = 4.99076 7.94476 6.63427
#
# Compressibility (1/GPa) = 0.02587681
#
# Stress axis : x y z
#
# Youngs Moduli (GPa) = 51.69881 172.12184 68.68964
#
# Poissons Ratio (x) = 1.22915 0.02729
# Poissons Ratio (y) = 0.36919 -0.04268
# Poissons Ratio (z) = 0.02054 -0.10695
#
# Static dielectric constant tensor:
#      x y z
#    x 1.804440 0.000000 0.012010 
#    y 0.000000 1.483960 0.000000 
#    z 0.012010 0.000000 1.904790 
# 
# From -- ./inp_files/32213.got.cif
#   From: 2010.05.17/outbox.cif.g08.bks.cpg/sg15_17_cif.got.tgz:32213.got - 2010.06.03 18:47:42.
