data_PCOD9279702
_publ_section_title
;
Structure prediction by ZEFSAII (Michael W. Deem and Ramdas Pophale) SiO2 
 PCOD9279702
Probable space group: C 2/C
;
_chemical_formula_sum "Si O2"
_cell_formula_units_Z 48
_cell_length_a 14.429749
_cell_length_b 23.829155
_cell_length_c 12.480651
_cell_angle_alpha 90.000000
_cell_angle_beta 144.087101
_cell_angle_gamma 90.000000
_cell_volume 2517.173680
_symmetry_space_group_name_H-M "C 2/C"
_symmetry_group_IT_number 15
_symmetry_cell_setting 'monoclinic'
loop_
_space_group_symop_operation_xyz
x,y,z
-x,y,1/2-z
-x,-y,-z
x,-y,1/2+z
1/2+x,1/2+y,z
1/2-x,1/2+y,1/2-z
1/2-x,1/2-y,-z
1/2+x,1/2-y,1/2+z
loop_
_atom_site_type_symbol
_atom_site_label
_atom_site_fract_x
_atom_site_fract_y
_atom_site_fract_z
Si Si1 0.140417 0.707251 0.036554
Si Si2 0.708704 0.392647 0.710108
Si Si3 0.166100 0.957522 0.454168
Si Si4 0.162215 0.500920 0.583862
Si Si5 0.863956 0.068268 0.942303
Si Si6 0.286192 0.180896 0.635582
O O1 0.217541 0.667963 0.199026
O O2 0.169254 0.773389 0.078273
O O3 0.222204 0.690721 0.999944
O O4 0.957630 0.695198 0.843440
O O5 0.727053 0.418156 0.607876
O O6 0.790222 0.435770 0.869740
O O7 0.524487 0.400150 0.563224
O O8 0.308134 0.971639 0.504337
O O9 0.000000 0.934427 0.250000
O O10 0.115172 0.017877 0.454934
O O11 0.288569 0.535997 0.771678
O O12 0.000000 0.500000 0.500000
O O13 0.749293 0.116577 0.875283
#
# Coordination Sequence:
#
# PCOD9279702 Si02
#       6
#     8   8   8   8   8   8
#     4  10  21  37  55  86 114 154 195 248 304 365
#     4  11  21  35  59  84 117 157 202 240 296 361
#     4  11  20  38  58  85 121 163 198 238 297 358
#     4  11  22  36  55  86 120 153 200 245 296 351
#     4  11  21  33  57  85 114 157 194 243 292 363
#     4  10  21  36  57  82 119 149 194 246 309 357
#
# _framework density 19.069005000000001
#
# number of rings (size 3 to 8) (size 9 to 14) (size 15 to 20)
#    0.000    1.333    3.333    4.000    0.000    5.333 
#    0.000    0.000    0.000    1.000    0.000    0.000 
#    0.000    0.000    0.000    0.000    0.000    0.000 
#
# Total GULP energy -133873.784303 kJ/mol
# GULP energy per Si atom -5578.074346 kJ/mol
# Density = 1.902560 g / cm^3
# Si number density = 19.069005 Si / 1000 Ang^3
#
#
#
# Elastic Constant Matrix: (Units=GPa)
#
#
# Indices 1 2 3 4 5 6 
#
# 1 80.7791 -2.8497 24.7937 0.0000 -4.6995 0.0000
# 2 -2.8497 69.7942 21.8161 0.0000 -7.7064 0.0000
# 3 24.7937 21.8161 60.8601 0.0000 -7.7820 0.0000
# 4 0.0000 0.0000 0.0000 27.2950 0.0000 6.0283
# 5 -4.6995 -7.7064 -7.7820 0.0000 24.2268 0.0000
# 6 0.0000 0.0000 0.0000 6.0283 0.0000 21.8914
#
#
#
# Elastic Compliance Matrix: (Units=1/GPa)
#
#
# Indices 1 2 3 4 5 6 
#
# 1 0.014665 0.002903 -0.006813 0.000000 0.001580 0.000000
# 2 0.002903 0.016986 -0.006787 0.000000 0.003786 0.000000
# 3 -0.006813 -0.006787 0.022102 0.000000 0.003619 0.000000
# 4 0.000000 0.000000 0.000000 0.039009 0.000000 -0.010742
# 5 0.001580 0.003786 0.003619 0.000000 0.043950 0.000000
# 6 0.000000 0.000000 0.000000 -0.010742 0.000000 0.048638
#
#
# Mechanical properties :
#
#
# Convention : Reuss Voigt Hill
#
# Bulk Modulus (GPa) = 30.90391 33.21708 32.06049
# Shear Modulus (GPa) = 22.98525 25.86088 24.42306
#
# Velocity S-wave (km/s) = 3.47561 3.68662 3.58267
# Velocity P-wave (km/s) = 5.68754 5.96480 5.82781
#
# Compressibility (1/GPa) = 0.03235837
#
# Stress axis : x y z
#
# Youngs Moduli (GPa) = 68.19045 58.87223 45.24411
#
# Poissons Ratio (x) = -0.17089 0.30824
# Poissons Ratio (y) = -0.19794 0.30708
# Poissons Ratio (z) = 0.46457 0.39958
#
# Static dielectric constant tensor:
#      x y z
#    x 1.738610 0.000000 -0.004400 
#    y 0.000000 1.641900 0.000000 
#    z -0.004400 0.000000 1.710640 
# 
# From -- ./inp_files/100051.got.cif
#   From: 2010.05.17/outbox.cif.g08.bks.cpg/sg15_51_cif.got.tgz:100051.got - 2010.06.03 18:47:42.
