data_PCOD9279630
_publ_section_title
;
Structure prediction by ZEFSAII (Michael W. Deem and Ramdas Pophale) SiO2 
 PCOD9279630
Probable space group: C 2/C
;
_chemical_formula_sum "Si O2"
_cell_formula_units_Z 48
_cell_length_a 20.324019
_cell_length_b 5.293034
_cell_length_c 26.091049
_cell_angle_alpha 90.000000
_cell_angle_beta 121.457163
_cell_angle_gamma 90.000000
_cell_volume 2394.255048
_symmetry_space_group_name_H-M "C 2/C"
_symmetry_group_IT_number 15
_symmetry_cell_setting 'monoclinic'
loop_
_space_group_symop_operation_xyz
x,y,z
-x,y,1/2-z
-x,-y,-z
x,-y,1/2+z
1/2+x,1/2+y,z
1/2-x,1/2+y,1/2-z
1/2-x,1/2-y,-z
1/2+x,1/2-y,1/2+z
loop_
_atom_site_type_symbol
_atom_site_label
_atom_site_fract_x
_atom_site_fract_y
_atom_site_fract_z
Si Si1 0.973803 0.484098 0.547538
Si Si2 0.687663 0.839496 0.044466
Si Si3 0.180490 0.944333 0.963202
Si Si4 0.701036 0.113525 0.670329
Si Si5 0.507722 0.469396 0.883410
Si Si6 0.648304 0.389181 0.208663
O O1 0.880335 0.506803 0.509146
O O2 0.011442 0.712727 0.593972
O O3 0.000000 0.500000 0.500000
O O4 0.992806 0.213273 0.579496
O O5 0.685541 0.887168 0.103662
O O6 0.773408 0.872130 0.057250
O O7 0.665649 0.564799 0.013430
O O8 0.096260 0.915756 0.903730
O O9 0.250000 0.750000 0.000000
O O10 0.674561 0.381967 0.682303
O O11 0.792630 0.099897 0.720053
O O12 0.662389 0.876509 0.684676
O O13 0.440992 0.545696 0.816459
#
# Coordination Sequence:
#
# PCOD9279630 Si02
#       6
#     8   8   8   8   8   8
#     4  11  21  32  54  83 112 141 180 233 288 338
#     4  10  21  36  55  83 114 152 190 229 286 340
#     4  10  21  37  54  81 117 154 190 230 282 336
#     4  10  22  38  61  83 115 148 186 237 287 343
#     4  11  21  35  55  79 113 147 183 232 278 332
#     4  10  21  39  58  87 112 147 189 233 290 338
#
# _framework density 20.047989000000001
#
# number of rings (size 3 to 8) (size 9 to 14) (size 15 to 20)
#    0.000    1.667    1.667    3.500    2.333    1.333 
#    0.000    0.833    0.000    0.000    0.000    0.000 
#    0.000    0.000    0.000    0.000    0.000    0.000 
#
# Total GULP energy -133611.276127 kJ/mol
# GULP energy per Si atom -5567.136505 kJ/mol
# Density = 2.000236 g / cm^3
# Si number density = 20.047989 Si / 1000 Ang^3
#
#
#
# Elastic Constant Matrix: (Units=GPa)
#
#
# Indices 1 2 3 4 5 6 
#
# 1 55.4033 1.7373 18.0531 0.0002 34.6927 -0.0003
# 2 1.7373 110.4731 11.5473 0.0023 4.8198 -0.0010
# 3 18.0531 11.5473 86.3016 -0.0005 25.8545 0.0007
# 4 0.0002 0.0023 -0.0005 22.3624 -0.0005 7.7777
# 5 34.6927 4.8198 25.8545 -0.0005 36.9293 0.0007
# 6 -0.0003 -0.0010 0.0007 7.7777 0.0007 8.4456
#
#
#
# Elastic Compliance Matrix: (Units=1/GPa)
#
#
# Indices 1 2 3 4 5 6 
#
# 1 0.045038 0.000845 0.004017 -0.000005 -0.045233 0.000010
# 2 0.000845 0.009202 -0.001025 -0.000002 -0.001277 0.000003
# 3 0.004017 -0.001025 0.015153 0.000000 -0.014248 0.000000
# 4 -0.000005 -0.000002 0.000000 0.065790 0.000007 -0.060587
# 5 -0.045233 -0.001277 -0.014248 0.000007 0.079714 -0.000013
# 6 0.000010 0.000003 0.000000 -0.060587 -0.000013 0.174200
#
#
# Mechanical properties :
#
#
# Convention : Reuss Voigt Hill
#
# Bulk Modulus (GPa) = 12.97595 34.98370 23.97982
# Shear Modulus (GPa) = 12.28162 28.27016 20.27589
#
# Velocity S-wave (km/s) = 2.47778 3.75924 3.18365
# Velocity P-wave (km/s) = 3.83045 6.02746 5.04989
#
# Compressibility (1/GPa) = 0.07706566
#
# Stress axis : x y z
#
# Youngs Moduli (GPa) = 22.20332 108.67687 65.99471
#
# Poissons Ratio (x) = -0.09187 -0.26507
# Poissons Ratio (y) = -0.01877 0.06767
# Poissons Ratio (z) = -0.08918 0.11144
#
# Static dielectric constant tensor:
#      x y z
#    x 1.776730 0.000000 0.100870 
#    y 0.000000 1.801850 0.000000 
#    z 0.100870 0.000000 1.756230 
# 
# From -- ./inp_files/250848.got.cif
#   From: 2010.05.17/outbox.cif.g08.bks.cpg/sg15_126_cif.got.tgz:250848.got - 2010.06.03 18:47:42.
