data_PCOD9279390
_publ_section_title
;
Structure prediction by ZEFSAII (Michael W. Deem and Ramdas Pophale) SiO2 
 PCOD9279390
Probable space group: C 2/C
;
_chemical_formula_sum "Si O2"
_cell_formula_units_Z 56
_cell_length_a 23.371309
_cell_length_b 20.696173
_cell_length_c 5.852495
_cell_angle_alpha 90.000000
_cell_angle_beta 94.726798
_cell_angle_gamma 90.000000
_cell_volume 2821.204460
_symmetry_space_group_name_H-M "C 2/C"
_symmetry_group_IT_number 15
_symmetry_cell_setting 'monoclinic'
loop_
_space_group_symop_operation_xyz
x,y,z
-x,y,1/2-z
-x,-y,-z
x,-y,1/2+z
1/2+x,1/2+y,z
1/2-x,1/2+y,1/2-z
1/2-x,1/2-y,-z
1/2+x,1/2-y,1/2+z
loop_
_atom_site_type_symbol
_atom_site_label
_atom_site_fract_x
_atom_site_fract_y
_atom_site_fract_z
Si Si1 0.980204 0.926563 0.994611
Si Si2 0.623685 0.639315 0.092098
Si Si3 0.359591 0.155249 0.831085
Si Si4 0.845230 0.219155 0.014438
Si Si5 0.738387 0.318960 0.379342
Si Si6 0.567899 0.964081 0.283798
Si Si7 0.434317 0.242189 0.158453
O O1 0.000000 0.898512 0.250000
O O2 0.911291 0.923957 0.971678
O O3 0.000000 0.899006 0.750000
O O4 0.000000 0.000000 0.000000
O O5 0.635633 0.653694 0.357382
O O6 0.683510 0.648777 0.983149
O O7 0.578567 0.696647 0.008940
O O8 0.343553 0.220082 0.683917
O O9 0.296466 0.139442 0.908923
O O10 0.389930 0.097720 0.706418
O O11 0.406156 0.179588 0.030924
O O12 0.786108 0.200908 0.874818
O O13 0.893975 0.240616 0.856151
O O14 0.750000 0.250000 0.500000
O O15 0.500000 0.946208 0.250000
O O16 0.577159 0.999841 0.536056
O O17 0.500000 0.233896 0.250000
#
# Coordination Sequence:
#
# PCOD9279390 Si02
#       7
#     8   8   8   8   8   8   8
#     4  10  23  42  67  92 124 169 226 276 326 384
#     4  10  22  35  60  90 127 174 209 262 328 389
#     4  11  23  37  65  89 124 173 206 265 324 398
#     4  10  21  35  58  94 131 166 210 257 332 399
#     4  11  20  39  56  93 132 168 213 255 330 404
#     4  10  25  46  68  92 122 165 220 271 326 382
#     4  10  22  33  54  94 134 156 204 256 326 401
#
# _framework density 19.849678000000001
#
# number of rings (size 3 to 8) (size 9 to 14) (size 15 to 20)
#    0.000    1.714    4.286    0.857   10.000    1.714 
#    0.000    0.000    6.286    0.000    0.000    0.000 
#    0.000    0.000    0.000    0.000    0.000    0.000 
#
# Total GULP energy -155873.595813 kJ/mol
# GULP energy per Si atom -5566.914136 kJ/mol
# Density = 1.980450 g / cm^3
# Si number density = 19.849678 Si / 1000 Ang^3
#
#
#
# Elastic Constant Matrix: (Units=GPa)
#
#
# Indices 1 2 3 4 5 6 
#
# 1 149.4211 47.5146 31.2345 0.0000 12.9305 0.0000
# 2 47.5146 54.0129 12.0295 0.0000 -1.2787 0.0000
# 3 31.2345 12.0295 98.1958 0.0000 7.7680 0.0000
# 4 0.0000 0.0000 0.0000 13.4431 0.0000 -3.2144
# 5 12.9305 -1.2787 7.7680 0.0000 36.3604 0.0000
# 6 0.0000 0.0000 0.0000 -3.2144 0.0000 37.2116
#
#
#
# Elastic Compliance Matrix: (Units=1/GPa)
#
#
# Indices 1 2 3 4 5 6 
#
# 1 0.010111 -0.008556 -0.001892 0.000000 -0.003492 0.000000
# 2 -0.008556 0.026324 -0.000831 0.000000 0.004146 0.000000
# 3 -0.001892 -0.000831 0.011023 0.000000 -0.001711 0.000000
# 4 0.000000 0.000000 0.000000 0.075957 0.000000 0.006561
# 5 -0.003492 0.004146 -0.001711 0.000000 0.029256 0.000000
# 6 0.000000 0.000000 0.000000 0.006561 0.000000 0.027440
#
#
# Mechanical properties :
#
#
# Convention : Reuss Voigt Hill
#
# Bulk Modulus (GPa) = 40.16104 53.68744 46.92424
# Shear Modulus (GPa) = 23.70035 31.45974 27.58005
#
# Velocity S-wave (km/s) = 3.45917 3.98540 3.73157
# Velocity P-wave (km/s) = 6.01922 6.94864 6.50056
#
# Compressibility (1/GPa) = 0.02489975
#
# Stress axis : x y z
#
# Youngs Moduli (GPa) = 98.90419 37.98841 90.72205
#
# Poissons Ratio (x) = 0.32502 0.17162
# Poissons Ratio (y) = 0.84620 0.07542
# Poissons Ratio (z) = 0.18710 0.03158
#
# Static dielectric constant tensor:
#      x y z
#    x 1.718540 0.000000 -0.022960 
#    y 0.000000 1.710630 0.000000 
#    z -0.022960 0.000000 1.796190 
# 
# From -- ./inp_files/15672.got.cif
#   From: 2010.05.17/outbox.cif.g08.bks.cpg/sg15_8_cif.got.tgz:15672.got - 2010.06.03 18:47:42.
