data_PCOD9279492
_publ_section_title
;
Structure prediction by ZEFSAII (Michael W. Deem and Ramdas Pophale) SiO2 
 PCOD9279492
Probable space group: C 2/C
;
_chemical_formula_sum "Si O2"
_cell_formula_units_Z 40
_cell_length_a 25.252045
_cell_length_b 6.677664
_cell_length_c 17.361662
_cell_angle_alpha 90.000000
_cell_angle_beta 31.410198
_cell_angle_gamma 90.000000
_cell_volume 1525.754917
_symmetry_space_group_name_H-M "C 2/C"
_symmetry_group_IT_number 15
_symmetry_cell_setting 'monoclinic'
loop_
_space_group_symop_operation_xyz
x,y,z
-x,y,1/2-z
-x,-y,-z
x,-y,1/2+z
1/2+x,1/2+y,z
1/2-x,1/2+y,1/2-z
1/2-x,1/2-y,-z
1/2+x,1/2-y,1/2+z
loop_
_atom_site_type_symbol
_atom_site_label
_atom_site_fract_x
_atom_site_fract_y
_atom_site_fract_z
Si Si1 0.874794 0.576976 0.080220
Si Si2 0.051786 0.220945 0.260783
Si Si3 0.677611 0.255236 0.748486
Si Si4 0.794525 0.312361 0.827905
Si Si5 0.884873 0.623933 0.374806
O O1 0.764098 0.613668 0.180251
O O2 0.888125 0.356922 0.102443
O O3 0.865294 0.722829 0.166684
O O4 0.963907 0.650130 0.914299
O O5 0.000000 0.115050 0.250000
O O6 0.115913 0.143464 0.254921
O O7 0.123145 0.386788 0.131002
O O8 0.727899 0.051357 0.651497
O O9 0.852289 0.276979 0.835551
O O10 0.687938 0.203957 0.969065
O O11 0.000000 0.665493 0.250000
#
# Coordination Sequence:
#
# PCOD9279492 Si02
#       5
#     8   8   8   8   8
#     4  10  21  37  61  89 124 158 199 246 306 356
#     4  10  21  35  62  88 116 162 203 243 294 364
#     4   9  21  38  60  85 123 154 203 243 298 356
#     4   8  19  33  54  89 116 149 197 246 289 347
#     4   9  17  31  58  87 111 150 203 243 283 347
#
# _framework density 26.216531
#
# number of rings (size 3 to 8) (size 9 to 14) (size 15 to 20)
#    1.200    1.600    0.000    0.600    5.600    0.800 
#    0.000    2.000    0.000    0.000    0.000    0.000 
#    0.000    0.000    0.000    0.000    0.000    0.000 
#
# Total GULP energy -111612.514593 kJ/mol
# GULP energy per Si atom -5580.625730 kJ/mol
# Density = 2.615686 g / cm^3
# Si number density = 26.216531 Si / 1000 Ang^3
#
#
#
# Elastic Constant Matrix: (Units=GPa)
#
#
# Indices 1 2 3 4 5 6 
#
# 1 203.0122 12.0024 38.7558 -0.0025 13.8479 -0.0016
# 2 12.0024 60.5683 9.9816 -0.0151 14.1684 0.0252
# 3 38.7558 9.9816 94.3451 -0.0041 22.0857 0.0025
# 4 -0.0025 -0.0151 -0.0041 10.8678 0.0016 -2.8327
# 5 13.8479 14.1684 22.0857 0.0016 49.4588 0.0011
# 6 -0.0016 0.0252 0.0025 -2.8327 0.0011 5.1948
#
#
#
# Elastic Compliance Matrix: (Units=1/GPa)
#
#
# Indices 1 2 3 4 5 6 
#
# 1 0.005382 -0.000633 -0.002048 0.000001 -0.000411 0.000007
# 2 -0.000633 0.017820 -0.000527 0.000003 -0.004692 -0.000083
# 3 -0.002048 -0.000527 0.012649 0.000004 -0.004924 -0.000001
# 4 0.000001 0.000003 0.000004 0.107260 -0.000008 0.058489
# 5 -0.000411 -0.004692 -0.004924 -0.000008 0.023877 0.000016
# 6 0.000007 -0.000083 -0.000001 0.058489 0.000016 0.224393
#
#
# Mechanical properties :
#
#
# Convention : Reuss Voigt Hill
#
# Bulk Modulus (GPa) = 33.97147 53.26726 43.61937
# Shear Modulus (GPa) = 12.26668 32.91668 22.59168
#
# Velocity S-wave (km/s) = 2.16544 3.54725 2.93872
# Velocity P-wave (km/s) = 4.38616 6.09422 5.30933
#
# Compressibility (1/GPa) = 0.02943646
#
# Stress axis : x y z
#
# Youngs Moduli (GPa) = 185.79773 56.11589 79.05758
#
# Poissons Ratio (x) = 0.03552 0.16189
# Poissons Ratio (y) = 0.11759 0.04166
# Poissons Ratio (z) = 0.38046 0.02957
#
# Static dielectric constant tensor:
#      x y z
#    x 2.145550 0.000000 0.078140 
#    y 0.000000 2.100000 0.000020 
#    z 0.078140 0.000020 2.087760 
# 
# From -- ./inp_files/210472.got.cif
#   From: 2010.05.17/outbox.cif.g08.bks.cpg/sg15_106_cif.got.tgz:210472.got - 2010.06.03 18:47:42.
