data_PCOD9279673
_publ_section_title
;
Structure prediction by ZEFSAII (Michael W. Deem and Ramdas Pophale) SiO2 
 PCOD9279673
Probable space group: C 2/C
;
_chemical_formula_sum "Si O2"
_cell_formula_units_Z 44
_cell_length_a 15.059352
_cell_length_b 28.663655
_cell_length_c 5.217496
_cell_angle_alpha 90.000000
_cell_angle_beta 56.585695
_cell_angle_gamma 90.000000
_cell_volume 1879.904561
_symmetry_space_group_name_H-M "C 2/C"
_symmetry_group_IT_number 15
_symmetry_cell_setting 'monoclinic'
loop_
_space_group_symop_operation_xyz
x,y,z
-x,y,1/2-z
-x,-y,-z
x,-y,1/2+z
1/2+x,1/2+y,z
1/2-x,1/2+y,1/2-z
1/2-x,1/2-y,-z
1/2+x,1/2-y,1/2+z
loop_
_atom_site_type_symbol
_atom_site_label
_atom_site_fract_x
_atom_site_fract_y
_atom_site_fract_z
Si Si1 0.691648 0.285708 0.399971
Si Si2 0.675763 0.110646 0.303325
Si Si3 0.186860 0.109384 0.923961
Si Si4 0.400551 0.205227 0.223570
Si Si5 0.500000 0.466548 0.750000
Si Si6 0.884304 0.482479 0.826208
O O1 0.750000 0.250000 0.500000
O O2 0.652751 0.336789 0.546114
O O3 0.600371 0.254389 0.418664
O O4 0.788987 0.295179 0.052136
O O5 0.722208 0.100763 0.507997
O O6 0.612076 0.158911 0.423952
O O7 0.604869 0.069438 0.298586
O O8 0.769079 0.110973 0.938271
O O9 0.099320 0.069426 0.088002
O O10 0.500000 0.201022 0.250000
O O11 0.500000 0.500000 0.500000
O O12 0.826366 0.510147 0.690079
O O13 0.000000 0.498413 0.750000
#
# Coordination Sequence:
#
# PCOD9279673 Si02
#       6
#     8   8   8   8   4   8
#     4  10  21  43  63  97 137 173 234 283 346 435
#     4  11  22  41  64  95 129 167 214 272 343 406
#     4  11  25  43  69  93 129 171 217 287 343 403
#     4  10  22  39  64  96 135 179 222 283 348 421
#     4  12  28  50  70 102 136 180 246 298 352 430
#     4  10  21  36  56  86 121 160 204 251 306 385
#
# _framework density 23.405443999999999
#
# number of rings (size 3 to 8) (size 9 to 14) (size 15 to 20)
#    0.000    1.455    1.818    2.727    0.000    6.545 
#    1.636    1.818    0.000    0.000    0.000    0.000 
#    0.000    0.000    0.000    0.000    0.000    0.000 
#
# Total GULP energy -122768.471951 kJ/mol
# GULP energy per Si atom -5580.385089 kJ/mol
# Density = 2.335217 g / cm^3
# Si number density = 23.405444 Si / 1000 Ang^3
#
#
#
# Elastic Constant Matrix: (Units=GPa)
#
#
# Indices 1 2 3 4 5 6 
#
# 1 97.1042 48.0635 12.6486 0.0000 7.4857 0.0000
# 2 48.0635 195.0649 36.9910 0.0000 1.9310 0.0000
# 3 12.6486 36.9910 58.9701 0.0000 8.7360 0.0000
# 4 0.0000 0.0000 0.0000 5.8639 0.0000 0.3835
# 5 7.4857 1.9310 8.7360 0.0000 39.4929 0.0000
# 6 0.0000 0.0000 0.0000 0.3835 0.0000 47.4307
#
#
#
# Elastic Compliance Matrix: (Units=1/GPa)
#
#
# Indices 1 2 3 4 5 6 
#
# 1 0.011914 -0.002824 -0.000486 0.000000 -0.002013 0.000000
# 2 -0.002824 0.006499 -0.003622 0.000000 0.001019 0.000000
# 3 -0.000486 -0.003622 0.019948 0.000000 -0.004143 0.000000
# 4 0.000000 0.000000 0.000000 0.170626 0.000000 -0.001379
# 5 -0.002013 0.001019 -0.004143 0.000000 0.026569 0.000000
# 6 0.000000 0.000000 0.000000 -0.001379 0.000000 0.021095
#
#
# Mechanical properties :
#
#
# Convention : Reuss Voigt Hill
#
# Bulk Modulus (GPa) = 40.82021 60.72726 50.77374
# Shear Modulus (GPa) = 17.94172 35.45325 26.69748
#
# Velocity S-wave (km/s) = 2.77169 3.89619 3.38102
# Velocity P-wave (km/s) = 5.26511 6.80019 6.08128
#
# Compressibility (1/GPa) = 0.02449767
#
# Stress axis : x y z
#
# Youngs Moduli (GPa) = 83.93303 153.87043 50.13077
#
# Poissons Ratio (x) = 0.43446 0.02437
# Poissons Ratio (y) = 0.23699 0.18157
# Poissons Ratio (z) = 0.04081 0.55731
#
# Static dielectric constant tensor:
#      x y z
#    x 1.824470 0.000000 0.057120 
#    y 0.000000 2.002980 0.000000 
#    z 0.057120 0.000000 2.002520 
# 
# From -- ./inp_files/8197.got.cif
#   From: 2010.05.17/outbox.cif.g08.bks.cpg/sg15_5_cif.got.tgz:8197.got - 2010.06.03 18:47:42.
