data_PCOD9279518
_publ_section_title
;
Structure prediction by ZEFSAII (Michael W. Deem and Ramdas Pophale) SiO2 
 PCOD9279518
Probable space group: C 2/C
;
_chemical_formula_sum "Si O2"
_cell_formula_units_Z 64
_cell_length_a 29.026760
_cell_length_b 9.758174
_cell_length_c 12.114159
_cell_angle_alpha 90.000000
_cell_angle_beta 86.066433
_cell_angle_gamma 90.000000
_cell_volume 3423.230145
_symmetry_space_group_name_H-M "C 2/C"
_symmetry_group_IT_number 15
_symmetry_cell_setting 'monoclinic'
loop_
_space_group_symop_operation_xyz
x,y,z
-x,y,1/2-z
-x,-y,-z
x,-y,1/2+z
1/2+x,1/2+y,z
1/2-x,1/2+y,1/2-z
1/2-x,1/2-y,-z
1/2+x,1/2-y,1/2+z
loop_
_atom_site_type_symbol
_atom_site_label
_atom_site_fract_x
_atom_site_fract_y
_atom_site_fract_z
Si Si1 0.243094 0.645739 0.397125
Si Si2 0.993824 0.132966 0.073645
Si Si3 0.986623 0.378895 0.922419
Si Si4 0.931547 0.543152 0.236015
Si Si5 0.568048 0.725294 0.232799
Si Si6 0.326790 0.084092 0.275965
Si Si7 0.792893 0.653303 0.518392
Si Si8 0.175182 0.266187 0.248961
O O1 0.250000 0.750000 0.500000
O O2 0.203743 0.666483 0.308491
O O3 0.228219 0.496095 0.445521
O O4 0.289573 0.663109 0.316594
O O5 0.955261 0.123821 0.175124
O O6 0.040670 0.189162 0.125061
O O7 0.976924 0.245693 0.991473
O O8 0.000000 0.000000 0.000000
O O9 0.942513 0.421730 0.860030
O O10 0.032093 0.368686 0.838810
O O11 0.000000 0.500000 0.000000
O O12 0.943202 0.381358 0.225681
O O13 0.878809 0.574854 0.221475
O O14 0.623287 0.725958 0.222337
O O15 0.322105 0.141632 0.400586
O O16 0.312779 0.922898 0.289149
O O17 0.750000 0.750000 0.500000
O O18 0.819445 0.718898 0.619188
#
# Coordination Sequence:
#
# PCOD9279518 Si02
#       8
#     8   8   8   8   8   8   8   8
#     4  11  22  40  62  89 126 166 204 256 316 374
#     4  11  23  40  63  85 128 165 192 247 317 370
#     4  11  19  36  63  91 119 159 202 248 298 360
#     4  10  21  35  63  98 119 151 213 259 294 356
#     4  10  21  41  60  89 123 161 203 253 306 364
#     4  10  22  38  62  96 124 160 208 261 311 365
#     4  11  22  40  65  88 125 163 205 264 309 366
#     4  10  22  40  64  91 122 166 211 249 316 371
#
# _framework density 18.695792000000001
#
# number of rings (size 3 to 8) (size 9 to 14) (size 15 to 20)
#    0.000    1.500    5.000    0.750    1.750    4.000 
#    2.250    1.250    0.000    0.000    0.000    0.000 
#    0.000    0.000    0.000    0.000    0.000    0.000 
#
# Total GULP energy -178259.004811 kJ/mol
# GULP energy per Si atom -5570.593900 kJ/mol
# Density = 1.865324 g / cm^3
# Si number density = 18.695792 Si / 1000 Ang^3
#
#
#
# Elastic Constant Matrix: (Units=GPa)
#
#
# Indices 1 2 3 4 5 6 
#
# 1 91.6028 0.6457 18.9197 0.0000 10.3086 0.0000
# 2 0.6457 34.7773 13.3771 0.0000 -0.0407 0.0000
# 3 18.9197 13.3771 88.1831 0.0000 5.7854 0.0000
# 4 0.0000 0.0000 0.0000 27.7529 0.0000 0.7807
# 5 10.3086 -0.0407 5.7854 0.0000 20.3926 0.0000
# 6 0.0000 0.0000 0.0000 0.7807 0.0000 24.2052
#
#
#
# Elastic Compliance Matrix: (Units=1/GPa)
#
#
# Indices 1 2 3 4 5 6 
#
# 1 0.012000 0.000663 -0.002320 0.000000 -0.005406 0.000000
# 2 0.000663 0.030612 -0.004859 0.000000 0.001104 0.000000
# 3 -0.002320 -0.004859 0.012736 0.000000 -0.002450 0.000000
# 4 0.000000 0.000000 0.000000 0.036065 0.000000 -0.001163
# 5 -0.005406 0.001104 -0.002450 0.000000 0.052467 0.000000
# 6 0.000000 0.000000 0.000000 -0.001163 0.000000 0.041351
#
#
# Mechanical properties :
#
#
# Convention : Reuss Voigt Hill
#
# Bulk Modulus (GPa) = 23.63151 31.16090 27.39620
# Shear Modulus (GPa) = 23.54408 26.57819 25.06113
#
# Velocity S-wave (km/s) = 3.55255 3.77452 3.66521
# Velocity P-wave (km/s) = 5.43092 5.97491 5.70940
#
# Compressibility (1/GPa) = 0.04231638
#
# Stress axis : x y z
#
# Youngs Moduli (GPa) = 83.33549 32.66673 78.51971
#
# Poissons Ratio (x) = -0.02167 0.18220
# Poissons Ratio (y) = -0.05529 0.38149
# Poissons Ratio (z) = 0.19338 0.15871
#
# Static dielectric constant tensor:
#      x y z
#    x 1.645340 0.000000 -0.075100 
#    y 0.000000 1.365010 0.000000 
#    z -0.075100 0.000000 2.501290 
# 
# From -- ./inp_files/125899.got.cif
#   From: 2010.05.17/outbox.cif.g08.bks.cpg/sg15_63_cif.got.tgz:125899.got - 2010.06.03 18:47:42.
