data_PCOD9279925
_publ_section_title
;
Structure prediction by ZEFSAII (Michael W. Deem and Ramdas Pophale) SiO2 
 PCOD9279925
Probable space group: C 2/C
;
_chemical_formula_sum "Si O2"
_cell_formula_units_Z 40
_cell_length_a 16.578233
_cell_length_b 21.707131
_cell_length_c 9.533469
_cell_angle_alpha 90.000000
_cell_angle_beta 151.084822
_cell_angle_gamma 90.000000
_cell_volume 1658.826375
_symmetry_space_group_name_H-M "C 2/C"
_symmetry_group_IT_number 15
_symmetry_cell_setting 'monoclinic'
loop_
_space_group_symop_operation_xyz
x,y,z
-x,y,1/2-z
-x,-y,-z
x,-y,1/2+z
1/2+x,1/2+y,z
1/2-x,1/2+y,1/2-z
1/2-x,1/2-y,-z
1/2+x,1/2-y,1/2+z
loop_
_atom_site_type_symbol
_atom_site_label
_atom_site_fract_x
_atom_site_fract_y
_atom_site_fract_z
Si Si1 0.745054 0.278610 0.645513
Si Si2 0.754818 0.002753 0.644406
Si Si3 0.797886 0.922531 0.946256
Si Si4 0.827318 0.091970 0.016251
Si Si5 0.619542 0.210460 0.714889
O O1 0.750000 0.250000 0.500000
O O2 0.695233 0.349713 0.556660
O O3 0.934555 0.280151 0.987690
O O4 0.865647 0.261756 0.419096
O O5 0.710353 0.051479 0.454004
O O6 0.846540 0.953286 0.679854
O O7 0.804776 0.049909 0.844636
O O8 0.687948 0.950984 0.651520
O O9 0.000000 0.941025 0.250000
O O10 0.000000 0.127284 0.250000
O O11 0.678846 0.139793 0.807782
O O12 0.750000 0.250000 0.000000
#
# Coordination Sequence:
#
# PCOD9279925 Si02
#       5
#     8   8   8   8   8
#     4  12  26  45  67  96 130 171 217 269 326 384
#     4  10  21  36  61  92 125 166 211 252 309 382
#     4  11  20  37  62  91 125 166 211 258 309 377
#     4  11  20  37  62  91 125 166 211 258 309 377
#     4  12  26  45  67  96 130 171 217 269 326 384
#
# _framework density 24.113434000000002
#
# number of rings (size 3 to 8) (size 9 to 14) (size 15 to 20)
#    0.000    0.800    0.000   10.800    0.000    0.000 
#    0.000    6.000    0.000    0.000    0.000    0.000 
#    0.000    0.000    0.000    0.000    0.000    0.000 
#
# Total GULP energy -111375.927381 kJ/mol
# GULP energy per Si atom -5568.796369 kJ/mol
# Density = 2.405855 g / cm^3
# Si number density = 24.113434 Si / 1000 Ang^3
#
#
#
# Elastic Constant Matrix: (Units=GPa)
#
#
# Indices 1 2 3 4 5 6 
#
# 1 87.4974 18.1526 41.5583 0.0000 -25.3161 0.0000
# 2 18.1526 128.6835 16.8732 0.0000 2.3753 0.0000
# 3 41.5583 16.8732 63.9664 0.0000 -8.1755 0.0000
# 4 0.0000 0.0000 0.0000 17.8454 0.0000 -17.4687
# 5 -25.3161 2.3753 -8.1755 0.0000 54.1085 0.0000
# 6 0.0000 0.0000 0.0000 -17.4687 0.0000 14.8460
#
#
#
# Elastic Compliance Matrix: (Units=1/GPa)
#
#
# Indices 1 2 3 4 5 6 
#
# 1 0.019114 -0.001373 -0.011120 0.000000 0.007323 0.000000
# 2 -0.001373 0.008173 -0.001419 0.000000 -0.001216 0.000000
# 3 -0.011120 -0.001419 0.023020 0.000000 -0.001662 0.000000
# 4 0.000000 0.000000 0.000000 -0.369096 0.000000 -0.434301
# 5 0.007323 -0.001216 -0.001662 0.000000 0.021710 0.000000
# 6 0.000000 0.000000 0.000000 -0.434301 0.000000 -0.443666
#
#
# Mechanical properties :
#
#
# Convention : Reuss Voigt Hill
#
# Bulk Modulus (GPa) = 44.47985 48.14617 46.31301
# Shear Modulus (GPa) = -7.08792 30.93087 11.92147
#
# Velocity S-wave (km/s) = -1.71633 3.58540 2.22590
# Velocity P-wave (km/s) = 3.81555 6.09508 5.08470
#
# Compressibility (1/GPa) = 0.02248209
#
# Stress axis : x y z
#
# Youngs Moduli (GPa) = 52.31637 122.35029 43.44098
#
# Poissons Ratio (x) = 0.16804 0.48307
# Poissons Ratio (y) = 0.07185 0.06164
# Poissons Ratio (z) = 0.58177 0.17362
#
# Static dielectric constant tensor:
#      x y z
#    x 1.918210 0.000000 0.061740 
#    y 0.000000 1.919170 0.000000 
#    z 0.061740 0.000000 2.029500 
# 
# From -- ./inp_files/51386.got.cif
#   From: 2010.05.17/outbox.cif.g08.bks.cpg/sg15_26_cif.got.tgz:51386.got - 2010.06.03 18:47:42.
