data_PCOD9279085
_publ_section_title
;
Structure prediction by ZEFSAII (Michael W. Deem and Ramdas Pophale) SiO2 
 PCOD9279085
Probable space group: C 2/C
;
_chemical_formula_sum "Si O2"
_cell_formula_units_Z 48
_cell_length_a 21.431395
_cell_length_b 11.300678
_cell_length_c 8.095116
_cell_angle_alpha 90.000000
_cell_angle_beta 63.205957
_cell_angle_gamma 90.000000
_cell_volume 1750.051405
_symmetry_space_group_name_H-M "C 2/C"
_symmetry_group_IT_number 15
_symmetry_cell_setting 'monoclinic'
loop_
_space_group_symop_operation_xyz
x,y,z
-x,y,1/2-z
-x,-y,-z
x,-y,1/2+z
1/2+x,1/2+y,z
1/2-x,1/2+y,1/2-z
1/2-x,1/2-y,-z
1/2+x,1/2-y,1/2+z
loop_
_atom_site_type_symbol
_atom_site_label
_atom_site_fract_x
_atom_site_fract_y
_atom_site_fract_z
Si Si1 0.951047 0.910944 0.656009
Si Si2 0.652885 0.846667 0.032176
Si Si3 0.399572 0.855067 0.751093
Si Si4 0.059018 0.654393 0.948478
Si Si5 0.282400 0.402265 0.110664
Si Si6 0.833789 0.898107 0.378617
O O1 0.933162 0.796703 0.570474
O O2 0.000000 0.870376 0.750000
O O3 0.885643 0.993868 0.773010
O O4 0.000000 0.000000 0.500000
O O5 0.589492 0.879984 0.233095
O O6 0.720145 0.883124 0.057730
O O7 0.647362 0.890480 0.850133
O O8 0.661173 0.702359 0.002427
O O9 0.477625 0.867559 0.582801
O O10 0.378701 0.718715 0.809196
O O11 0.401017 0.897187 0.939443
O O12 0.272324 0.379890 0.317107
O O13 0.301816 0.541646 0.077397
#
# Coordination Sequence:
#
# PCOD9279085 Si02
#       6
#     8   8   8   8   8   8
#     4  12  20  28  48  81 118 154 185 230 285 344
#     4  10  21  39  53  79 118 158 195 233 289 345
#     4  10  21  34  56  86 112 144 194 241 294 348
#     4  11  20  33  55  83 114 149 187 236 290 346
#     4  10  22  37  53  77 115 161 199 234 277 345
#     4  11  20  34  51  80 116 152 195 233 277 346
#
# _framework density 27.427765000000001
#
# number of rings (size 3 to 8) (size 9 to 14) (size 15 to 20)
#    0.000    1.333    3.333    4.500    0.000    0.000 
#    3.000    2.500    0.000    0.000    0.000    4.667 
#    0.000    0.000    0.000    0.000    0.000    0.000 
#
# Total GULP energy -134142.827556 kJ/mol
# GULP energy per Si atom -5589.284481 kJ/mol
# Density = 2.736534 g / cm^3
# Si number density = 27.427765 Si / 1000 Ang^3
#
#
#
# Elastic Constant Matrix: (Units=GPa)
#
#
# Indices 1 2 3 4 5 6 
#
# 1 141.8316 14.3252 45.2645 0.0000 38.1872 0.0000
# 2 14.3252 138.9212 37.1122 0.0000 10.6299 0.0000
# 3 45.2645 37.1122 112.1741 0.0000 31.6782 0.0000
# 4 0.0000 0.0000 0.0000 39.4030 0.0000 -0.1802
# 5 38.1872 10.6299 31.6782 0.0000 60.0499 0.0000
# 6 0.0000 0.0000 0.0000 -0.1802 0.0000 7.4001
#
#
#
# Elastic Compliance Matrix: (Units=1/GPa)
#
#
# Indices 1 2 3 4 5 6 
#
# 1 0.009014 0.000052 -0.002389 0.000000 -0.004481 0.000000
# 2 0.000052 0.007897 -0.002620 0.000000 -0.000049 0.000000
# 3 -0.002389 -0.002620 0.011968 0.000000 -0.004331 0.000000
# 4 0.000000 0.000000 0.000000 0.025382 0.000000 0.000618
# 5 -0.004481 -0.000049 -0.004331 0.000000 0.021796 0.000000
# 6 0.000000 0.000000 0.000000 0.000618 0.000000 0.135149
#
#
# Mechanical properties :
#
#
# Convention : Reuss Voigt Hill
#
# Bulk Modulus (GPa) = 52.72782 65.14785 58.93783
# Shear Modulus (GPa) = 21.98370 41.11894 31.55132
#
# Velocity S-wave (km/s) = 2.83417 3.87611 3.39535
# Velocity P-wave (km/s) = 5.47504 6.62091 6.07505
#
# Compressibility (1/GPa) = 0.01896532
#
# Stress axis : x y z
#
# Youngs Moduli (GPa) = 110.93342 126.63771 83.55321
#
# Poissons Ratio (x) = -0.00653 0.19961
# Poissons Ratio (y) = -0.00572 0.21887
# Poissons Ratio (z) = 0.26502 0.33174
#
# Static dielectric constant tensor:
#      x y z
#    x 1.332980 0.000000 -0.228400 
#    y 0.000000 2.226960 0.000000 
#    z -0.228400 0.000000 2.137610 
# 
# From -- ./inp_files/55213.got.cif
#   From: 2010.05.17/outbox.cif.g08.bks.cpg/sg15_28_cif.got.tgz:55213.got - 2010.06.03 18:47:42.
