data_PCOD9279275
_publ_section_title
;
Structure prediction by ZEFSAII (Michael W. Deem and Ramdas Pophale) SiO2 
 PCOD9279275
Probable space group: C 2/C
;
_chemical_formula_sum "Si O2"
_cell_formula_units_Z 52
_cell_length_a 14.650168
_cell_length_b 19.736804
_cell_length_c 20.734884
_cell_angle_alpha 90.000000
_cell_angle_beta 153.036668
_cell_angle_gamma 90.000000
_cell_volume 2718.453390
_symmetry_space_group_name_H-M "C 2/C"
_symmetry_group_IT_number 15
_symmetry_cell_setting 'monoclinic'
loop_
_space_group_symop_operation_xyz
x,y,z
-x,y,1/2-z
-x,-y,-z
x,-y,1/2+z
1/2+x,1/2+y,z
1/2-x,1/2+y,1/2-z
1/2-x,1/2-y,-z
1/2+x,1/2-y,1/2+z
loop_
_atom_site_type_symbol
_atom_site_label
_atom_site_fract_x
_atom_site_fract_y
_atom_site_fract_z
Si Si1 0.534067 0.546687 0.084980
Si Si2 0.694653 0.012293 0.973984
Si Si3 0.618291 0.960476 0.130481
Si Si4 0.000000 0.419796 0.750000
Si Si5 0.321103 0.323900 0.894960
Si Si6 0.216086 0.110551 0.878556
Si Si7 0.448011 0.770651 0.583066
O O1 0.725855 0.512775 0.240190
O O2 0.570537 0.623644 0.084876
O O3 0.500000 0.500000 0.000000
O O4 0.353022 0.541368 0.022743
O O5 0.551456 0.061570 0.925241
O O6 0.541007 0.967059 0.835997
O O7 0.795823 0.959361 0.087841
O O8 0.738775 0.903441 0.167742
O O9 0.500000 0.000000 0.000000
O O10 0.191550 0.373006 0.859744
O O11 0.152473 0.278491 0.752422
O O12 0.458539 0.279359 0.028494
O O13 0.000000 0.145394 0.750000
O O14 0.390987 0.155484 0.019217
O O15 0.250000 0.750000 0.500000
#
# Coordination Sequence:
#
# PCOD9279275 Si02
#       7
#     8   8   8   4   8   8   8
#     4  12  23  36  61  88 123 166 199 250 314 375
#     4  11  20  36  58  85 123 159 193 248 312 368
#     4  10  21  35  55  86 121 155 197 252 305 360
#     4  12  18  36  58  86 126 152 192 252 306 374
#     4  12  23  38  56  89 123 161 206 243 310 373
#     4  11  20  34  57  88 118 151 203 248 309 365
#     4  12  23  37  59  85 125 163 197 257 307 363
#
# _framework density 19.128523999999999
#
# number of rings (size 3 to 8) (size 9 to 14) (size 15 to 20)
#    0.000    0.615    7.692    1.846    0.000    1.231 
#    0.000    0.000    0.000    0.923    0.000    2.154 
#    0.000    0.000    0.000    0.000    0.000    0.000 
#
# Total GULP energy -145170.833081 kJ/mol
# GULP energy per Si atom -5583.493580 kJ/mol
# Density = 1.908499 g / cm^3
# Si number density = 19.128524 Si / 1000 Ang^3
#
#
#
# Elastic Constant Matrix: (Units=GPa)
#
#
# Indices 1 2 3 4 5 6 
#
# 1 159.0077 46.8020 25.1749 0.0012 11.2397 0.0054
# 2 46.8020 65.1649 18.8304 -0.0021 -3.0200 0.0098
# 3 25.1749 18.8304 79.6525 -0.0233 -20.7099 0.0051
# 4 0.0012 -0.0021 -0.0233 26.7309 -0.0035 -8.5681
# 5 11.2397 -3.0200 -20.7099 -0.0035 31.5929 0.0021
# 6 0.0054 0.0098 0.0051 -8.5681 0.0021 7.0226
#
#
#
# Elastic Compliance Matrix: (Units=1/GPa)
#
#
# Indices 1 2 3 4 5 6 
#
# 1 0.008840 -0.005775 -0.002881 -0.000004 -0.005585 0.000000
# 2 -0.005775 0.020280 -0.002328 -0.000012 0.002467 -0.000037
# 3 -0.002881 -0.002328 0.017146 0.000022 0.012042 0.000016
# 4 -0.000004 -0.000012 0.000022 0.061436 0.000016 0.074956
# 5 -0.005585 0.002467 0.012042 0.000016 0.041770 0.000000
# 6 0.000000 -0.000037 0.000016 0.074956 0.000000 0.233848
#
#
# Mechanical properties :
#
#
# Convention : Reuss Voigt Hill
#
# Bulk Modulus (GPa) = 41.15340 53.93774 47.54557
# Shear Modulus (GPa) = 12.09521 27.27048 19.68285
#
# Velocity S-wave (km/s) = 2.51731 3.77987 3.21125
# Velocity P-wave (km/s) = 5.47814 6.87813 6.21766
#
# Compressibility (1/GPa) = 0.02429933
#
# Stress axis : x y z
#
# Youngs Moduli (GPa) = 113.12498 49.30866 58.32152
#
# Poissons Ratio (x) = 0.28477 0.16801
# Poissons Ratio (y) = 0.65332 0.13575
# Poissons Ratio (z) = 0.32589 0.11477
#
# Static dielectric constant tensor:
#      x y z
#    x 1.711500 0.000000 0.010080 
#    y 0.000000 1.683320 -0.000020 
#    z 0.010080 -0.000020 1.758730 
# 
# From -- ./inp_files/245054.got.cif
#   From: 2010.05.17/outbox.cif.g08.bks.cpg/sg15_123_cif.got.tgz:245054.got - 2010.06.03 18:47:42.
