data_PCOD9279938
_publ_section_title
;
Structure prediction by ZEFSAII (Michael W. Deem and Ramdas Pophale) SiO2 
 PCOD9279938
Probable space group: C 2/C
;
_chemical_formula_sum "Si O2"
_cell_formula_units_Z 64
_cell_length_a 15.549586
_cell_length_b 12.375657
_cell_length_c 24.782464
_cell_angle_alpha 90.000000
_cell_angle_beta 141.866056
_cell_angle_gamma 90.000000
_cell_volume 2944.895777
_symmetry_space_group_name_H-M "C 2/C"
_symmetry_group_IT_number 15
_symmetry_cell_setting 'monoclinic'
loop_
_space_group_symop_operation_xyz
x,y,z
-x,y,1/2-z
-x,-y,-z
x,-y,1/2+z
1/2+x,1/2+y,z
1/2-x,1/2+y,1/2-z
1/2-x,1/2-y,-z
1/2+x,1/2-y,1/2+z
loop_
_atom_site_type_symbol
_atom_site_label
_atom_site_fract_x
_atom_site_fract_y
_atom_site_fract_z
Si Si1 0.031880 0.671527 0.907270
Si Si2 0.066813 0.934036 0.404870
Si Si3 0.970510 0.245755 0.540061
Si Si4 0.294604 0.254868 0.726067
Si Si5 0.666756 0.979514 0.034685
Si Si6 0.935942 0.885714 0.514575
Si Si7 0.123298 0.021271 0.269359
Si Si8 0.365696 0.889421 0.160801
O O1 0.869909 0.690487 0.811446
O O2 0.066744 0.576579 0.966383
O O3 0.091733 0.783639 0.959742
O O4 0.099401 0.643728 0.882840
O O5 0.106170 0.822719 0.452143
O O6 0.204336 0.980113 0.444047
O O7 0.946151 0.927270 0.300398
O O8 0.010876 0.015702 0.423288
O O9 0.908507 0.364206 0.502555
O O10 0.129676 0.251261 0.639464
O O11 0.974779 0.172775 0.487873
O O12 0.344627 0.377655 0.752728
O O13 0.351027 0.207518 0.696850
O O14 0.740495 0.997718 0.128505
O O15 0.791548 0.932097 0.418587
O O16 0.000000 0.052782 0.250000
O O17 0.500000 0.954329 0.250000
#
# Coordination Sequence:
#
# PCOD9279938 Si02
#       8
#     8   8   8   8   8   8   8   8
#     4  11  20  36  65  97 124 162 210 269 336 382
#     4  11  23  43  68  87 130 177 223 265 324 394
#     4  11  26  42  58  93 134 177 217 263 330 399
#     4  10  21  36  61  95 135 160 204 279 332 389
#     4  11  24  41  70  94 129 174 223 272 323 402
#     4  11  21  37  65  92 123 165 211 274 332 381
#     4  10  21  40  67  99 122 165 220 276 323 380
#     4   9  18  31  57  91 127 152 200 261 321 382
#
# _framework density 21.732517999999999
#
# number of rings (size 3 to 8) (size 9 to 14) (size 15 to 20)
#    0.000    1.500    2.500    3.750    1.750    4.000 
#    0.000    0.000    8.250    0.000    0.000    0.000 
#    0.000    0.000    0.000    0.000    0.000    0.000 
#
# Total GULP energy -178608.339255 kJ/mol
# GULP energy per Si atom -5581.510602 kJ/mol
# Density = 2.168305 g / cm^3
# Si number density = 21.732518 Si / 1000 Ang^3
#
#
#
# Elastic Constant Matrix: (Units=GPa)
#
#
# Indices 1 2 3 4 5 6 
#
# 1 41.2769 19.1904 27.6018 0.0000 -5.6942 0.0000
# 2 19.1904 97.6206 56.2241 0.0000 -8.0233 0.0000
# 3 27.6018 56.2241 155.0677 0.0000 -10.8067 0.0000
# 4 0.0000 0.0000 0.0000 20.2927 0.0000 6.3767
# 5 -5.6942 -8.0233 -10.8067 0.0000 19.3605 0.0000
# 6 0.0000 0.0000 0.0000 6.3767 0.0000 14.3913
#
#
#
# Elastic Compliance Matrix: (Units=1/GPa)
#
#
# Indices 1 2 3 4 5 6 
#
# 1 0.028830 -0.003154 -0.003629 0.000000 0.005146 0.000000
# 2 -0.003154 0.013446 -0.004152 0.000000 0.002327 0.000000
# 3 -0.003629 -0.004152 0.008746 0.000000 0.002094 0.000000
# 4 0.000000 0.000000 0.000000 0.057250 0.000000 -0.025367
# 5 0.005146 0.002327 0.002094 0.000000 0.055298 0.000000
# 6 0.000000 0.000000 0.000000 -0.025367 0.000000 0.080727
#
#
# Mechanical properties :
#
#
# Convention : Reuss Voigt Hill
#
# Bulk Modulus (GPa) = 34.30321 55.55531 44.92926
# Shear Modulus (GPa) = 18.12347 23.53881 20.83114
#
# Velocity S-wave (km/s) = 2.89092 3.29464 3.09936
# Velocity P-wave (km/s) = 5.19247 6.33179 5.79022
#
# Compressibility (1/GPa) = 0.02915179
#
# Stress axis : x y z
#
# Youngs Moduli (GPa) = 34.68610 74.37046 114.33722
#
# Poissons Ratio (x) = 0.23457 0.41498
# Poissons Ratio (y) = 0.10940 0.47469
# Poissons Ratio (z) = 0.12589 0.30876
#
# Static dielectric constant tensor:
#      x y z
#    x 1.829800 0.000000 0.018710 
#    y 0.000000 1.760710 0.000000 
#    z 0.018710 0.000000 1.830480 
# 
# From -- ./inp_files/274364.got.cif
#   From: 2010.05.17/outbox.cif.g08.bks.cpg/sg15_138_cif.got.tgz:274364.got - 2010.06.03 18:47:42.
