data_PCOD9279403
_publ_section_title
;
Structure prediction by ZEFSAII (Michael W. Deem and Ramdas Pophale) SiO2 
 PCOD9279403
Probable space group: C 2/C
;
_chemical_formula_sum "Si O2"
_cell_formula_units_Z 56
_cell_length_a 23.637095
_cell_length_b 8.486266
_cell_length_c 17.583135
_cell_angle_alpha 90.000000
_cell_angle_beta 125.764887
_cell_angle_gamma 90.000000
_cell_volume 2861.896417
_symmetry_space_group_name_H-M "C 2/C"
_symmetry_group_IT_number 15
_symmetry_cell_setting 'monoclinic'
loop_
_space_group_symop_operation_xyz
x,y,z
-x,y,1/2-z
-x,-y,-z
x,-y,1/2+z
1/2+x,1/2+y,z
1/2-x,1/2+y,1/2-z
1/2-x,1/2-y,-z
1/2+x,1/2-y,1/2+z
loop_
_atom_site_type_symbol
_atom_site_label
_atom_site_fract_x
_atom_site_fract_y
_atom_site_fract_z
Si Si1 0.795487 0.819616 0.425846
Si Si2 0.705203 0.676058 0.819890
Si Si3 0.090077 0.365152 0.558800
Si Si4 0.099519 0.638339 0.320202
Si Si5 0.007652 0.589082 0.383008
Si Si6 0.233192 0.496336 0.501086
Si Si7 0.723722 0.004724 0.245584
O O1 0.866509 0.784413 0.436626
O O2 0.778993 0.657264 0.456385
O O3 0.794071 0.952436 0.489715
O O4 0.736699 0.870949 0.319016
O O5 0.629428 0.717698 0.793564
O O6 0.750037 0.637210 0.929145
O O7 0.717961 0.533295 0.771944
O O8 0.730863 0.830584 0.795354
O O9 0.032697 0.330830 0.578308
O O10 0.149290 0.478914 0.644119
O O11 0.052907 0.453687 0.459495
O O12 0.052331 0.539224 0.224191
O O13 0.164954 0.537703 0.399736
O O14 0.057649 0.682644 0.363800
#
# Coordination Sequence:
#
# PCOD9279403 Si02
#       7
#     8   8   8   8   8   8   8
#     4  11  21  36  59  93 131 150 203 256 322 358
#     4  12  22  37  60  96 130 155 201 252 329 363
#     4  11  20  38  58  92 120 158 211 259 294 357
#     4  11  20  37  59  92 118 165 206 254 300 364
#     4  10  21  35  59  88 119 163 215 251 281 363
#     4  11  22  37  60  97 124 159 193 263 319 368
#     4  12  21  36  59  92 126 155 194 259 318 370
#
# _framework density 19.567443999999998
#
# number of rings (size 3 to 8) (size 9 to 14) (size 15 to 20)
#    0.000    0.857    7.143    0.429    0.000    0.000 
#    0.000    0.000    0.000    0.857   48.286    0.000 
#    0.000    0.000    0.000    0.000    0.000    0.000 
#
# Total GULP energy -155911.509627 kJ/mol
# GULP energy per Si atom -5568.268201 kJ/mol
# Density = 1.952291 g / cm^3
# Si number density = 19.567444 Si / 1000 Ang^3
#
#
#
# Elastic Constant Matrix: (Units=GPa)
#
#
# Indices 1 2 3 4 5 6 
#
# 1 170.9327 39.5365 29.4511 0.0000 -27.1348 0.0000
# 2 39.5365 45.3695 38.7636 0.0000 2.4156 0.0000
# 3 29.4511 38.7636 133.3875 0.0000 -0.6412 0.0000
# 4 0.0000 0.0000 0.0000 29.5001 0.0000 -22.1796
# 5 -27.1348 2.4156 -0.6412 0.0000 29.7496 0.0000
# 6 0.0000 0.0000 0.0000 -22.1796 0.0000 24.1475
#
#
#
# Elastic Compliance Matrix: (Units=1/GPa)
#
#
# Indices 1 2 3 4 5 6 
#
# 1 0.009335 -0.009187 0.000653 0.000000 0.009274 0.000000
# 2 -0.009187 0.038559 -0.009234 0.000000 -0.011709 0.000000
# 3 0.000653 -0.009234 0.010044 0.000000 0.001562 0.000000
# 4 0.000000 0.000000 0.000000 0.109553 0.000000 0.100625
# 5 0.009274 -0.011709 0.001562 0.000000 0.043057 0.000000
# 6 0.000000 0.000000 0.000000 0.100625 0.000000 0.133837
#
#
# Mechanical properties :
#
#
# Convention : Reuss Voigt Hill
#
# Bulk Modulus (GPa) = 44.63531 62.79914 53.71723
# Shear Modulus (GPa) = 12.90698 32.80866 22.85782
#
# Velocity S-wave (km/s) = 2.57108 4.09919 3.42154
# Velocity P-wave (km/s) = 5.62801 7.38701 6.56667
#
# Compressibility (1/GPa) = 0.02240379
#
# Stress axis : x y z
#
# Youngs Moduli (GPa) = 107.12604 25.93405 99.56562
#
# Poissons Ratio (x) = 0.23824 -0.06504
# Poissons Ratio (y) = 0.98412 0.91935
# Poissons Ratio (z) = -0.06998 0.23947
#
# Static dielectric constant tensor:
#      x y z
#    x 1.779210 0.000000 -0.024770 
#    y 0.000000 1.692960 0.000000 
#    z -0.024770 0.000000 1.716680 
# 
# From -- ./inp_files/218657.got.cif
#   From: 2010.05.17/outbox.cif.g08.bks.cpg/sg15_110_cif.got.tgz:218657.got - 2010.06.03 18:47:42.
