data_PCOD9279552
_publ_section_title
;
Structure prediction by ZEFSAII (Michael W. Deem and Ramdas Pophale) SiO2 
 PCOD9279552
Probable space group: C 2/C
;
_chemical_formula_sum "Si O2"
_cell_formula_units_Z 44
_cell_length_a 18.380086
_cell_length_b 29.158905
_cell_length_c 18.614173
_cell_angle_alpha 90.000000
_cell_angle_beta 164.188913
_cell_angle_gamma 90.000000
_cell_volume 2718.163062
_symmetry_space_group_name_H-M "C 2/C"
_symmetry_group_IT_number 15
_symmetry_cell_setting 'monoclinic'
loop_
_space_group_symop_operation_xyz
x,y,z
-x,y,1/2-z
-x,-y,-z
x,-y,1/2+z
1/2+x,1/2+y,z
1/2-x,1/2+y,1/2-z
1/2-x,1/2-y,-z
1/2+x,1/2-y,1/2+z
loop_
_atom_site_type_symbol
_atom_site_label
_atom_site_fract_x
_atom_site_fract_y
_atom_site_fract_z
Si Si1 0.790821 0.625963 0.199579
Si Si2 0.352172 0.216886 0.177902
Si Si3 0.644379 0.598125 0.824206
Si Si4 0.260751 0.059179 0.286714
Si Si5 0.198525 0.518250 0.795057
Si Si6 0.000000 0.525588 0.250000
O O1 0.773388 0.678974 0.161636
O O2 0.735398 0.609050 0.227285
O O3 0.097616 0.615968 0.471448
O O4 0.587178 0.596456 0.955774
O O5 0.500000 0.192211 0.250000
O O6 0.581249 0.254629 0.409828
O O7 0.500000 0.627366 0.750000
O O8 0.776621 0.556383 0.996107
O O9 0.490002 0.054015 0.563236
O O10 0.330881 0.026227 0.285032
O O11 0.991952 0.038472 0.063961
O O12 0.134724 0.504028 0.815337
#
# Coordination Sequence:
#
# PCOD9279552 Si02
#       6
#     8   8   8   8   8   4
#     4  12  22  35  54  70  97 135 172 210 250 299
#     4  10  21  36  50  73 100 127 160 207 261 300
#     4  12  21  31  48  75  93 124 178 211 239 285
#     4  10  21  36  48  72  94 137 164 214 249 293
#     4  10  22  33  51  67 105 125 173 211 253 287
#     4  12  24  34  50  76 100 136 176 220 250 288
#
# _framework density 16.187403
#
# number of rings (size 3 to 8) (size 9 to 14) (size 15 to 20)
#    0.000    1.091    3.636    3.273    7.636    1.455 
#    0.000    0.000    0.000    0.000    0.000    0.000 
#    0.000    0.000    0.000   16.364    0.000    0.000 
#
# Total GULP energy -122576.387288 kJ/mol
# GULP energy per Si atom -5571.653968 kJ/mol
# Density = 1.615056 g / cm^3
# Si number density = 16.187403 Si / 1000 Ang^3
#
#
#
# Elastic Constant Matrix: (Units=GPa)
#
#
# Indices 1 2 3 4 5 6 
#
# 1 74.4063 23.4657 10.0308 0.0028 4.2230 -0.0009
# 2 23.4657 44.5259 -0.4212 0.0003 -3.8885 -0.0044
# 3 10.0308 -0.4212 79.6267 0.0135 1.2516 -0.0106
# 4 0.0028 0.0003 0.0135 13.4656 0.0048 -3.5047
# 5 4.2230 -3.8885 1.2516 0.0048 18.0002 0.0022
# 6 -0.0009 -0.0044 -0.0106 -3.5047 0.0022 21.9166
#
#
#
# Elastic Compliance Matrix: (Units=1/GPa)
#
#
# Indices 1 2 3 4 5 6 
#
# 1 0.017065 -0.009530 -0.002107 0.000000 -0.005916 -0.000002
# 2 -0.009530 0.028213 0.001220 -0.000002 0.008246 0.000005
# 3 -0.002107 0.001220 0.012833 -0.000011 -0.000134 0.000005
# 4 0.000000 -0.000002 -0.000011 0.077488 -0.000022 0.012391
# 5 -0.005916 0.008246 -0.000134 -0.000022 0.058733 -0.000008
# 6 -0.000002 0.000005 0.000005 0.012391 -0.000008 0.047609
#
#
# Mechanical properties :
#
#
# Convention : Reuss Voigt Hill
#
# Bulk Modulus (GPa) = 26.82654 29.41216 28.11935
# Shear Modulus (GPa) = 18.16853 21.70873 19.93863
#
# Velocity S-wave (km/s) = 3.35384 3.66606 3.51342
# Velocity P-wave (km/s) = 5.62193 6.01076 5.81959
#
# Compressibility (1/GPa) = 0.03727652
#
# Stress axis : x y z
#
# Youngs Moduli (GPa) = 58.59916 35.44465 77.92641
#
# Poissons Ratio (x) = 0.33779 0.16420
# Poissons Ratio (y) = 0.55846 -0.09508
# Poissons Ratio (z) = 0.12348 -0.04325
#
# Static dielectric constant tensor:
#      x y z
#    x 1.560700 0.000000 -0.016970 
#    y 0.000000 1.590790 0.000000 
#    z -0.016970 0.000000 1.594330 
# 
# From -- ./inp_files/157572.got.cif
#   From: 2010.05.17/outbox.cif.g08.bks.cpg/sg15_79_cif.got.tgz:157572.got - 2010.06.03 18:47:42.
