data_PCOD9279228
_publ_section_title
;
Structure prediction by ZEFSAII (Michael W. Deem and Ramdas Pophale) SiO2 
 PCOD9279228
Probable space group: C 2/C
;
_chemical_formula_sum "Si O2"
_cell_formula_units_Z 56
_cell_length_a 14.679761
_cell_length_b 22.274582
_cell_length_c 17.638048
_cell_angle_alpha 90.000000
_cell_angle_beta 31.063279
_cell_angle_gamma 90.000000
_cell_volume 2975.881768
_symmetry_space_group_name_H-M "C 2/C"
_symmetry_group_IT_number 15
_symmetry_cell_setting 'monoclinic'
loop_
_space_group_symop_operation_xyz
x,y,z
-x,y,1/2-z
-x,-y,-z
x,-y,1/2+z
1/2+x,1/2+y,z
1/2-x,1/2+y,1/2-z
1/2-x,1/2-y,-z
1/2+x,1/2-y,1/2+z
loop_
_atom_site_type_symbol
_atom_site_label
_atom_site_fract_x
_atom_site_fract_y
_atom_site_fract_z
Si Si1 0.551267 0.911736 0.013572
Si Si2 0.109627 0.061314 0.435852
Si Si3 0.007197 0.455015 0.607754
Si Si4 0.540082 0.588130 0.319437
Si Si5 0.891853 0.046763 0.899618
Si Si6 0.118065 0.793844 0.547637
Si Si7 0.595798 0.813566 0.264454
O O1 0.468647 0.862013 0.128268
O O2 0.502263 0.976461 0.082211
O O3 0.485688 0.913434 0.972889
O O4 0.764367 0.910224 0.854982
O O5 0.321556 0.053542 0.282437
O O6 0.067099 0.097321 0.390378
O O7 0.061134 0.079771 0.555492
O O8 0.000000 0.000000 0.500000
O O9 0.184817 0.448568 0.529241
O O10 0.449533 0.523620 0.369538
O O11 0.419163 0.644089 0.383698
O O12 0.000000 0.068657 0.750000
O O13 0.250000 0.750000 0.500000
O O14 0.203714 0.809441 0.406194
O O15 0.947853 0.751940 0.670817
O O16 0.500000 0.825384 0.250000
#
# Coordination Sequence:
#
# PCOD9279228 Si02
#       7
#     8   8   8   8   8   8   8
#     4  10  21  36  54  76 109 152 193 232 290 339
#     4   9  21  36  53  76 108 149 192 232 283 349
#     4  10  21  35  53  79 112 145 193 238 283 352
#     4  10  21  38  54  76 114 154 185 237 287 333
#     4  11  21  32  54  82 110 150 186 235 286 335
#     4  10  22  36  51  78 108 144 194 232 272 337
#     4  10  22  34  53  76 105 148 188 237 273 333
#
# _framework density 18.817951999999998
#
# number of rings (size 3 to 8) (size 9 to 14) (size 15 to 20)
#    0.000    2.000    1.429    1.286   10.000    2.857 
#    0.000    0.000    0.000    0.000    0.000    1.000 
#    0.000    0.000    0.000    0.000    0.000    0.000 
#
# Total GULP energy -156002.733415 kJ/mol
# GULP energy per Si atom -5571.526193 kJ/mol
# Density = 1.877512 g / cm^3
# Si number density = 18.817952 Si / 1000 Ang^3
#
#
#
# Elastic Constant Matrix: (Units=GPa)
#
#
# Indices 1 2 3 4 5 6 
#
# 1 106.8889 8.3729 40.2394 0.0179 21.0135 -0.0178
# 2 8.3729 48.8456 30.1163 0.0083 11.3217 -0.0155
# 3 40.2394 30.1163 126.8709 0.0003 17.3838 -0.0168
# 4 0.0179 0.0083 0.0003 31.8358 -0.0112 5.5506
# 5 21.0135 11.3217 17.3838 -0.0112 40.4320 0.0150
# 6 -0.0178 -0.0155 -0.0168 5.5506 0.0150 10.4537
#
#
#
# Elastic Compliance Matrix: (Units=1/GPa)
#
#
# Indices 1 2 3 4 5 6 
#
# 1 0.011443 0.001166 -0.003237 -0.000014 -0.004882 0.000030
# 2 0.001166 0.024911 -0.005572 -0.000017 -0.005186 0.000046
# 3 -0.003237 -0.005572 0.010400 0.000002 -0.001229 0.000004
# 4 -0.000014 -0.000017 0.000002 0.034616 0.000027 -0.018380
# 5 -0.004882 -0.005186 -0.001229 0.000027 0.029250 -0.000074
# 6 0.000030 0.000046 0.000004 -0.018380 -0.000074 0.105419
#
#
# Mechanical properties :
#
#
# Convention : Reuss Voigt Hill
#
# Bulk Modulus (GPa) = 31.78066 48.89583 40.33825
# Shear Modulus (GPa) = 20.67708 30.13610 25.40659
#
# Velocity S-wave (km/s) = 3.31840 4.00616 3.67839
# Velocity P-wave (km/s) = 5.62206 6.88761 6.28676
#
# Compressibility (1/GPa) = 0.03146568
#
# Stress axis : x y z
#
# Youngs Moduli (GPa) = 87.39345 40.14369 96.15525
#
# Poissons Ratio (x) = -0.04681 0.31126
# Poissons Ratio (y) = -0.10190 0.53582
# Poissons Ratio (z) = 0.28290 0.22370
#
# Static dielectric constant tensor:
#      x y z
#    x 1.714730 -0.000020 -0.017900 
#    y -0.000020 1.647200 0.000010 
#    z -0.017900 0.000010 1.737080 
# 
# From -- ./inp_files/206924.got.cif
#   From: 2010.05.17/outbox.cif.g08.bks.cpg/sg15_104_cif.got.tgz:206924.got - 2010.06.03 18:47:42.
