data_PCOD9279443
_publ_section_title
;
Structure prediction by ZEFSAII (Michael W. Deem and Ramdas Pophale) SiO2 
 PCOD9279443
Probable space group: C 2/C
;
_chemical_formula_sum "Si O2"
_cell_formula_units_Z 56
_cell_length_a 20.725255
_cell_length_b 17.303353
_cell_length_c 14.666532
_cell_angle_alpha 90.000000
_cell_angle_beta 31.745286
_cell_angle_gamma 90.000000
_cell_volume 2767.337787
_symmetry_space_group_name_H-M "C 2/C"
_symmetry_group_IT_number 15
_symmetry_cell_setting 'monoclinic'
loop_
_space_group_symop_operation_xyz
x,y,z
-x,y,1/2-z
-x,-y,-z
x,-y,1/2+z
1/2+x,1/2+y,z
1/2-x,1/2+y,1/2-z
1/2-x,1/2-y,-z
1/2+x,1/2-y,1/2+z
loop_
_atom_site_type_symbol
_atom_site_label
_atom_site_fract_x
_atom_site_fract_y
_atom_site_fract_z
Si Si1 0.769105 0.355492 0.637174
Si Si2 0.437157 0.928757 0.729950
Si Si3 0.007116 0.623010 0.963056
Si Si4 0.606105 0.252517 0.194727
Si Si5 0.704932 0.067702 0.584177
Si Si6 0.881592 0.806400 0.953804
Si Si7 0.491202 0.698505 0.009238
O O1 0.866389 0.370919 0.599880
O O2 0.788173 0.414584 0.531248
O O3 0.799990 0.271104 0.556202
O O4 0.632095 0.351231 0.840321
O O5 0.500000 0.953357 0.750000
O O6 0.516204 0.931882 0.541122
O O7 0.417610 0.837744 0.758505
O O8 0.310955 0.976924 0.877075
O O9 0.083316 0.597772 0.782900
O O10 0.047871 0.710737 0.936643
O O11 0.500000 0.275115 0.250000
O O12 0.576127 0.303927 0.318813
O O13 0.750000 0.250000 0.000000
O O14 0.812403 0.118895 0.498694
O O15 0.000000 0.789209 0.750000
O O16 0.929720 0.820772 0.997327
#
# Coordination Sequence:
#
# PCOD9279443 Si02
#       7
#     8   8   8   8   8   8   8
#     4  11  20  35  61  92 127 160 207 256 312 375
#     4  10  23  41  61  90 123 159 215 259 311 366
#     4  10  21  35  60  89 121 161 206 255 304 359
#     4  10  24  43  69  94 118 160 217 279 322 366
#     4  12  21  36  59  88 129 169 197 252 310 382
#     4  11  21  34  55  90 130 166 203 245 313 380
#     4  10  21  36  61  90 123 158 206 257 309 372
#
# _framework density 20.236055
#
# number of rings (size 3 to 8) (size 9 to 14) (size 15 to 20)
#    0.000    1.429    2.857    3.857    6.000    1.143 
#    0.000    0.714    0.000    1.714    0.000    0.000 
#    0.000    0.000    0.000    0.000    0.000    0.000 
#
# Total GULP energy -156159.834082 kJ/mol
# GULP energy per Si atom -5577.136932 kJ/mol
# Density = 2.019000 g / cm^3
# Si number density = 20.236055 Si / 1000 Ang^3
#
#
#
# Elastic Constant Matrix: (Units=GPa)
#
#
# Indices 1 2 3 4 5 6 
#
# 1 73.7050 11.6333 39.0051 0.0000 18.1305 0.0001
# 2 11.6333 23.4550 -0.4470 0.0000 3.9396 0.0001
# 3 39.0051 -0.4470 121.7735 0.0001 12.3412 0.0001
# 4 0.0000 0.0000 0.0001 49.0851 0.0000 33.9093
# 5 18.1305 3.9396 12.3412 0.0000 25.9884 -0.0001
# 6 0.0001 0.0001 0.0001 33.9093 -0.0001 64.3749
#
#
#
# Elastic Compliance Matrix: (Units=1/GPa)
#
#
# Indices 1 2 3 4 5 6 
#
# 1 0.020352 -0.008469 -0.005506 0.000000 -0.010300 0.000000
# 2 -0.008469 0.047362 0.003168 0.000000 -0.002776 0.000000
# 3 -0.005506 0.003168 0.010134 0.000000 -0.001452 0.000000
# 4 0.000000 0.000000 0.000000 0.032027 0.000000 -0.016870
# 5 -0.010300 -0.002776 -0.001452 0.000000 0.046774 0.000000
# 6 0.000000 0.000000 0.000000 -0.016870 0.000000 0.024420
#
#
# Mechanical properties :
#
#
# Convention : Reuss Voigt Hill
#
# Bulk Modulus (GPa) = 17.78301 35.47958 26.63130
# Shear Modulus (GPa) = 22.58061 39.13914 30.85988
#
# Velocity S-wave (km/s) = 3.34407 4.40264 3.90935
# Velocity P-wave (km/s) = 4.87004 6.58903 5.79364
#
# Compressibility (1/GPa) = 0.05623344
#
# Stress axis : x y z
#
# Youngs Moduli (GPa) = 49.13586 21.11399 98.67433
#
# Poissons Ratio (x) = 0.17882 0.54331
# Poissons Ratio (y) = 0.41613 -0.31259
# Poissons Ratio (z) = 0.27055 -0.06689
#
# Static dielectric constant tensor:
#      x y z
#    x 1.873550 0.000000 -0.011580 
#    y 0.000000 1.738660 0.000000 
#    z -0.011580 0.000000 1.736960 
# 
# From -- ./inp_files/98403.got.cif
#   From: 2010.05.17/outbox.cif.g08.bks.cpg/sg15_50_cif.got.tgz:98403.got - 2010.06.03 18:47:42.
