data_PCOD9279608
_publ_section_title
;
Structure prediction by ZEFSAII (Michael W. Deem and Ramdas Pophale) SiO2 
 PCOD9279608
Probable space group: C 2/C
;
_chemical_formula_sum "Si O2"
_cell_formula_units_Z 60
_cell_length_a 8.913503
_cell_length_b 17.694176
_cell_length_c 18.070646
_cell_angle_alpha 90.000000
_cell_angle_beta 72.727018
_cell_angle_gamma 90.000000
_cell_volume 2721.515101
_symmetry_space_group_name_H-M "C 2/C"
_symmetry_group_IT_number 15
_symmetry_cell_setting 'monoclinic'
loop_
_space_group_symop_operation_xyz
x,y,z
-x,y,1/2-z
-x,-y,-z
x,-y,1/2+z
1/2+x,1/2+y,z
1/2-x,1/2+y,1/2-z
1/2-x,1/2-y,-z
1/2+x,1/2-y,1/2+z
loop_
_atom_site_type_symbol
_atom_site_label
_atom_site_fract_x
_atom_site_fract_y
_atom_site_fract_z
Si Si1 0.500000 0.868922 0.250000
Si Si2 0.638753 0.525297 0.175434
Si Si3 0.183714 0.419297 0.727366
Si Si4 0.819372 0.420010 0.938608
Si Si5 0.019910 0.932650 0.057981
Si Si6 0.682757 0.271085 0.719061
Si Si7 0.150696 0.347292 0.928299
Si Si8 0.830901 0.591454 0.921151
O O1 0.348262 0.814899 0.252433
O O2 0.556717 0.906762 0.166278
O O3 0.500000 0.551137 0.250000
O O4 0.767256 0.516135 0.221374
O O5 0.568764 0.463246 0.131418
O O6 0.719742 0.588262 0.111919
O O7 0.244495 0.427707 0.635776
O O8 0.229221 0.335095 0.747188
O O9 0.000000 0.423065 0.750000
O O10 0.851805 0.507721 0.954641
O O11 0.980009 0.372628 0.921743
O O12 0.674544 0.388366 0.007469
O O13 0.848179 0.897207 0.079592
O O14 0.000000 0.000000 0.000000
O O15 0.500000 0.295424 0.750000
O O16 0.771832 0.277276 0.627000
O O17 0.134572 0.348604 0.018940
#
# Coordination Sequence:
#
# PCOD9279608 Si02
#       8
#     4   8   8   8   8   8   8   8
#     4  10  26  46  64  88 122 174 226 260 314 370
#     4  11  20  33  53  91 130 162 202 245 310 373
#     4  11  20  33  64  95 120 162 209 271 317 365
#     4  11  22  36  61 103 132 158 200 263 332 397
#     4  10  21  36  54  88 134 167 192 245 310 401
#     4   9  22  41  63  89 118 162 229 276 293 360
#     4  11  20  37  65  97 125 163 211 264 316 372
#     4  11  24  39  65  91 134 168 206 255 327 404
#
# _framework density 22.046543
#
# number of rings (size 3 to 8) (size 9 to 14) (size 15 to 20)
#    0.400    1.067    5.333    3.600    2.800    1.600 
#    0.000    0.000    2.933    1.600    0.000    0.000 
#    0.000    0.000    0.000    0.000    0.000    0.000 
#
# Total GULP energy -167012.073835 kJ/mol
# GULP energy per Si atom -5567.069128 kJ/mol
# Density = 2.199636 g / cm^3
# Si number density = 22.046543 Si / 1000 Ang^3
#
#
#
# Elastic Constant Matrix: (Units=GPa)
#
#
# Indices 1 2 3 4 5 6 
#
# 1 126.0196 20.2208 42.4642 0.0000 -9.8274 0.0000
# 2 20.2208 30.7272 18.1880 0.0000 -7.3761 0.0000
# 3 42.4642 18.1880 137.3950 0.0000 -10.6438 0.0000
# 4 0.0000 0.0000 0.0000 5.0604 0.0000 -17.7334
# 5 -9.8274 -7.3761 -10.6438 0.0000 51.5101 0.0000
# 6 0.0000 0.0000 0.0000 -17.7334 0.0000 5.2102
#
#
#
# Elastic Compliance Matrix: (Units=1/GPa)
#
#
# Indices 1 2 3 4 5 6 
#
# 1 0.009512 -0.004764 -0.002258 0.000000 0.000666 0.000000
# 2 -0.004764 0.038595 -0.003332 0.000000 0.003929 0.000000
# 3 -0.002258 -0.003332 0.008483 0.000000 0.000845 0.000000
# 4 0.000000 0.000000 0.000000 -0.018084 0.000000 -0.061551
# 5 0.000666 0.003929 0.000845 0.000000 0.020278 0.000000
# 6 0.000000 0.000000 0.000000 -0.061551 0.000000 -0.017564
#
#
# Mechanical properties :
#
#
# Convention : Reuss Voigt Hill
#
# Bulk Modulus (GPa) = 27.86870 50.65422 39.26146
# Shear Modulus (GPa) = 67.66995 26.57406 47.12201
#
# Velocity S-wave (km/s) = 5.54624 3.47560 4.62820
# Velocity P-wave (km/s) = 7.32684 6.25558 6.81230
#
# Compressibility (1/GPa) = 0.03588254
#
# Stress axis : x y z
#
# Youngs Moduli (GPa) = 105.12643 25.91008 117.88734
#
# Poissons Ratio (x) = 0.12342 0.26616
# Poissons Ratio (y) = 0.50077 0.39285
# Poissons Ratio (z) = 0.23735 0.08634
#
# Static dielectric constant tensor:
#      x y z
#    x 1.915020 0.000000 0.035050 
#    y 0.000000 1.897940 0.000000 
#    z 0.035050 0.000000 1.892580 
# 
# From -- ./inp_files/192921.got.cif
#   From: 2010.05.17/outbox.cif.g08.bks.cpg/sg15_97_cif.got.tgz:192921.got - 2010.06.03 18:47:42.
