data_PCOD9279629
_publ_section_title
;
Structure prediction by ZEFSAII (Michael W. Deem and Ramdas Pophale) SiO2 
 PCOD9279629
Probable space group: C 2/C
;
_chemical_formula_sum "Si O2"
_cell_formula_units_Z 48
_cell_length_a 8.638896
_cell_length_b 8.235266
_cell_length_c 28.623049
_cell_angle_alpha 90.000000
_cell_angle_beta 93.494110
_cell_angle_gamma 90.000000
_cell_volume 2032.561506
_symmetry_space_group_name_H-M "C 2/C"
_symmetry_group_IT_number 15
_symmetry_cell_setting 'monoclinic'
loop_
_space_group_symop_operation_xyz
x,y,z
-x,y,1/2-z
-x,-y,-z
x,-y,1/2+z
1/2+x,1/2+y,z
1/2-x,1/2+y,1/2-z
1/2-x,1/2-y,-z
1/2+x,1/2-y,1/2+z
loop_
_atom_site_type_symbol
_atom_site_label
_atom_site_fract_x
_atom_site_fract_y
_atom_site_fract_z
Si Si1 0.314563 0.497325 0.489529
Si Si2 0.342327 0.354306 0.844815
Si Si3 0.317738 0.023007 0.738145
Si Si4 0.144864 0.186434 0.595133
Si Si5 0.694566 0.655942 0.319119
Si Si6 0.777355 0.188295 0.572630
O O1 0.500000 0.500000 0.500000
O O2 0.277778 0.347525 0.454284
O O3 0.272838 0.657549 0.459209
O O4 0.244270 0.531243 0.539536
O O5 0.225247 0.384023 0.800219
O O6 0.334733 0.517204 0.876204
O O7 0.513217 0.341052 0.827045
O O8 0.305552 0.207703 0.879280
O O9 0.500000 0.027945 0.750000
O O10 0.237183 0.991668 0.786223
O O11 0.266017 0.187904 0.712059
O O12 0.217138 0.321239 0.630278
O O13 0.961160 0.205874 0.584843
#
# Coordination Sequence:
#
# PCOD9279629 Si02
#       6
#     8   8   8   8   8   8
#     4   8  15  30  57  88 115 151 195 234 280 341
#     4  10  21  36  55  83 114 147 190 240 290 345
#     4  11  23  39  59  82 111 151 194 241 297 356
#     4   9  19  35  57  84 116 154 192 234 286 345
#     4  11  24  40  59  85 117 150 196 247 296 353
#     4   9  16  32  58  83 115 155 190 232 288 342
#
# _framework density 23.615521999999999
#
# number of rings (size 3 to 8) (size 9 to 14) (size 15 to 20)
#    0.000    2.333    0.000    2.500    0.000    5.333 
#    0.000    0.833    0.000   34.000    0.000    0.000 
#    0.000    0.000    0.000    0.000    0.000    0.000 
#
# Total GULP energy -134149.625147 kJ/mol
# GULP energy per Si atom -5589.567714 kJ/mol
# Density = 2.356177 g / cm^3
# Si number density = 23.615522 Si / 1000 Ang^3
#
#
#
# Elastic Constant Matrix: (Units=GPa)
#
#
# Indices 1 2 3 4 5 6 
#
# 1 42.1459 -3.4139 32.4192 0.0000 12.4521 0.0000
# 2 -3.4139 76.1448 45.3802 0.0000 6.3498 0.0000
# 3 32.4192 45.3802 169.5253 0.0000 8.0826 0.0000
# 4 0.0000 0.0000 0.0000 51.3691 0.0000 2.1989
# 5 12.4521 6.3498 8.0826 0.0000 50.2169 0.0000
# 6 0.0000 0.0000 0.0000 2.1989 0.0000 22.8975
#
#
#
# Elastic Compliance Matrix: (Units=1/GPa)
#
#
# Indices 1 2 3 4 5 6 
#
# 1 0.032362 0.006614 -0.007595 0.000000 -0.007639 0.000000
# 2 0.006614 0.017064 -0.005695 0.000000 -0.002881 0.000000
# 3 -0.007595 -0.005695 0.008819 0.000000 0.001184 0.000000
# 4 0.000000 0.000000 0.000000 0.019547 0.000000 -0.001877
# 5 -0.007639 -0.002881 0.001184 0.000000 0.021981 0.000000
# 6 0.000000 0.000000 0.000000 -0.001877 0.000000 0.043853
#
#
# Mechanical properties :
#
#
# Convention : Reuss Voigt Hill
#
# Bulk Modulus (GPa) = 22.27506 48.50967 35.39236
# Shear Modulus (GPa) = 29.07921 39.12542 34.10231
#
# Velocity S-wave (km/s) = 3.51288 4.07476 3.80421
# Velocity P-wave (km/s) = 5.08986 6.53638 5.85794
#
# Compressibility (1/GPa) = 0.04489326
#
# Stress axis : x y z
#
# Youngs Moduli (GPa) = 30.90037 58.60280 113.38573
#
# Poissons Ratio (x) = -0.38763 0.86119
# Poissons Ratio (y) = -0.20439 0.64578
# Poissons Ratio (z) = 0.23469 0.33377
#
# Static dielectric constant tensor:
#      x y z
#    x 1.800500 0.000000 -0.014130 
#    y 0.000000 1.938470 0.000000 
#    z -0.014130 0.000000 1.928870 
# 
# From -- ./inp_files/306656.got.cif
#   From: 2010.05.17/outbox.cif.g08.bks.cpg/sg15_154_cif.got.tgz:306656.got - 2010.06.03 18:47:42.
