data_PCOD9279457
_publ_section_title
;
Structure prediction by ZEFSAII (Michael W. Deem and Ramdas Pophale) SiO2 
 PCOD9279457
Probable space group: C 2/C
;
_chemical_formula_sum "Si O2"
_cell_formula_units_Z 48
_cell_length_a 19.452539
_cell_length_b 23.282688
_cell_length_c 5.193231
_cell_angle_alpha 90.000000
_cell_angle_beta 64.275909
_cell_angle_gamma 90.000000
_cell_volume 2118.951609
_symmetry_space_group_name_H-M "C 2/C"
_symmetry_group_IT_number 15
_symmetry_cell_setting 'monoclinic'
loop_
_space_group_symop_operation_xyz
x,y,z
-x,y,1/2-z
-x,-y,-z
x,-y,1/2+z
1/2+x,1/2+y,z
1/2-x,1/2+y,1/2-z
1/2-x,1/2-y,-z
1/2+x,1/2-y,1/2+z
loop_
_atom_site_type_symbol
_atom_site_label
_atom_site_fract_x
_atom_site_fract_y
_atom_site_fract_z
Si Si1 0.500000 0.459198 0.250000
Si Si2 0.783231 0.796553 0.146470
Si Si3 0.641773 0.197093 0.267589
Si Si4 0.728180 0.106770 0.441304
Si Si5 0.405469 0.037926 0.679228
Si Si6 0.500000 0.134108 0.250000
Si Si7 0.162974 0.961265 0.064037
O O1 0.500000 0.500000 0.500000
O O2 0.417870 0.429258 0.358460
O O3 0.715302 0.805650 0.460603
O O4 0.855740 0.763405 0.145195
O O5 0.750000 0.750000 0.000000
O O6 0.791461 0.857060 0.991908
O O7 0.664543 0.152612 0.454737
O O8 0.565517 0.173752 0.264638
O O9 0.681362 0.060915 0.682159
O O10 0.766673 0.077932 0.132254
O O11 0.459780 0.090850 0.517304
O O12 0.416040 0.990016 0.441981
O O13 0.164631 0.012324 0.846017
#
# Coordination Sequence:
#
# PCOD9279457 Si02
#       7
#     4   8   8   8   8   4   8
#     4   8  16  34  54  83 118 160 205 254 316 380
#     4   9  20  42  65  92 119 163 223 291 332 404
#     4  10  22  41  67  93 126 169 231 274 344 405
#     4  11  22  38  65  95 132 180 225 277 341 392
#     4  12  26  42  60  98 149 190 235 276 324 412
#     4  12  24  44  68  99 136 196 221 282 352 408
#     4  10  21  35  60  96 130 173 219 266 323 408
#
# _framework density 22.652711
#
# number of rings (size 3 to 8) (size 9 to 14) (size 15 to 20)
#    0.000    1.667    1.667    2.500    2.333    2.000 
#    0.000    0.000    0.000   11.000    0.000    0.000 
#    0.000    0.000    0.000    0.167    0.000    0.000 
#
# Total GULP energy -134097.479488 kJ/mol
# GULP energy per Si atom -5587.394979 kJ/mol
# Density = 2.260115 g / cm^3
# Si number density = 22.652711 Si / 1000 Ang^3
#
#
#
# Elastic Constant Matrix: (Units=GPa)
#
#
# Indices 1 2 3 4 5 6 
#
# 1 117.7569 53.9108 11.4226 0.0000 -11.8128 0.0000
# 2 53.9108 75.6640 17.0256 0.0000 -11.0574 0.0000
# 3 11.4226 17.0256 86.1350 0.0000 -1.8575 0.0000
# 4 0.0000 0.0000 0.0000 35.6170 0.0000 1.1718
# 5 -11.8128 -11.0574 -1.8575 0.0000 36.2009 0.0000
# 6 0.0000 0.0000 0.0000 1.1718 0.0000 40.5061
#
#
#
# Elastic Compliance Matrix: (Units=1/GPa)
#
#
# Indices 1 2 3 4 5 6 
#
# 1 0.012675 -0.008843 0.000098 0.000000 0.001440 0.000000
# 2 -0.008843 0.020633 -0.002835 0.000000 0.003271 0.000000
# 3 0.000098 -0.002835 0.012153 0.000000 -0.000210 0.000000
# 4 0.000000 0.000000 0.000000 0.028103 0.000000 -0.000813
# 5 0.001440 0.003271 -0.000210 0.000000 0.029082 0.000000
# 6 0.000000 0.000000 0.000000 -0.000813 0.000000 0.024711
#
#
# Mechanical properties :
#
#
# Convention : Reuss Voigt Hill
#
# Bulk Modulus (GPa) = 44.84114 49.36376 47.10245
# Shear Modulus (GPa) = 31.65545 35.61127 33.63336
#
# Velocity S-wave (km/s) = 3.74227 3.96921 3.85741
# Velocity P-wave (km/s) = 6.20571 6.54561 6.37793
#
# Compressibility (1/GPa) = 0.02230095
#
# Stress axis : x y z
#
# Youngs Moduli (GPa) = 78.89283 48.46633 82.28736
#
# Poissons Ratio (x) = 0.42858 -0.00807
# Poissons Ratio (y) = 0.69764 0.23329
# Poissons Ratio (z) = -0.00773 0.13741
#
# Static dielectric constant tensor:
#      x y z
#    x 1.910270 0.000000 0.028140 
#    y 0.000000 1.881430 0.000000 
#    z 0.028140 0.000000 1.873350 
# 
# From -- ./inp_files/13640.got.cif
#   From: 2010.05.17/outbox.cif.g08.bks.cpg/sg15_7_cif.got.tgz:13640.got - 2010.06.03 18:47:42.
