data_PCOD9279486
_publ_section_title
;
Structure prediction by ZEFSAII (Michael W. Deem and Ramdas Pophale) SiO2 
 PCOD9279486
Probable space group: C 2/C
;
_chemical_formula_sum "Si O2"
_cell_formula_units_Z 40
_cell_length_a 19.614522
_cell_length_b 9.765385
_cell_length_c 9.601764
_cell_angle_alpha 90.000000
_cell_angle_beta 64.190307
_cell_angle_gamma 90.000000
_cell_volume 1655.689544
_symmetry_space_group_name_H-M "C 2/C"
_symmetry_group_IT_number 15
_symmetry_cell_setting 'monoclinic'
loop_
_space_group_symop_operation_xyz
x,y,z
-x,y,1/2-z
-x,-y,-z
x,-y,1/2+z
1/2+x,1/2+y,z
1/2-x,1/2+y,1/2-z
1/2-x,1/2-y,-z
1/2+x,1/2-y,1/2+z
loop_
_atom_site_type_symbol
_atom_site_label
_atom_site_fract_x
_atom_site_fract_y
_atom_site_fract_z
Si Si1 0.534578 0.376158 0.372899
Si Si2 0.843811 0.077956 0.314673
Si Si3 0.755865 0.738492 0.287659
Si Si4 0.603180 0.793960 0.033109
Si Si5 0.805873 0.459545 0.978918
O O1 0.500000 0.350837 0.250000
O O2 0.500000 0.500000 0.500000
O O3 0.383796 0.437127 0.241826
O O4 0.542599 0.245214 0.467929
O O5 0.813990 0.146061 0.200693
O O6 0.900416 0.182006 0.341326
O O7 0.769868 0.049316 0.474158
O O8 0.816662 0.736018 0.112193
O O9 0.800678 0.661324 0.371764
O O10 0.716166 0.881681 0.358825
O O11 0.619463 0.946941 0.076591
#
# Coordination Sequence:
#
# PCOD9279486 Si02
#       5
#     8   8   8   8   8
#     4  12  25  44  69  94 131 181 237 279 324 397
#     4  11  22  37  61  97 132 167 222 269 346 391
#     4  10  21  36  64  97 138 162 209 283 344 407
#     4  11  23  38  62  95 132 177 221 275 335 404
#     4  10  21  35  62 100 132 170 207 274 350 403
#
# _framework density 24.159117999999999
#
# number of rings (size 3 to 8) (size 9 to 14) (size 15 to 20)
#    0.000    1.200    4.000    3.600    8.400    0.000 
#    0.000    0.000    0.000    6.000    0.000    0.000 
#    0.000    0.000    0.000    0.000    0.000    0.000 
#
# Total GULP energy -111560.572019 kJ/mol
# GULP energy per Si atom -5578.028601 kJ/mol
# Density = 2.410413 g / cm^3
# Si number density = 24.159118 Si / 1000 Ang^3
#
#
#
# Elastic Constant Matrix: (Units=GPa)
#
#
# Indices 1 2 3 4 5 6 
#
# 1 72.9421 25.5357 12.2149 0.0000 27.9335 0.0000
# 2 25.5357 98.7720 14.4951 0.0000 21.8947 0.0000
# 3 12.2149 14.4951 54.8412 0.0000 14.0522 0.0000
# 4 0.0000 0.0000 0.0000 36.8993 0.0000 13.8966
# 5 27.9335 21.8947 14.0522 0.0000 32.3551 0.0000
# 6 0.0000 0.0000 0.0000 13.8966 0.0000 34.5498
#
#
#
# Elastic Compliance Matrix: (Units=1/GPa)
#
#
# Indices 1 2 3 4 5 6 
#
# 1 0.020704 -0.001644 0.000133 0.000000 -0.016820 0.000000
# 2 -0.001644 0.012114 -0.001237 0.000000 -0.006242 0.000000
# 3 0.000133 -0.001237 0.020644 0.000000 -0.008244 0.000000
# 4 0.000000 0.000000 0.000000 0.031939 0.000000 -0.012846
# 5 -0.016820 -0.006242 -0.008244 0.000000 0.053233 0.000000
# 6 0.000000 0.000000 0.000000 -0.012846 0.000000 0.034111
#
#
# Mechanical properties :
#
#
# Convention : Reuss Voigt Hill
#
# Bulk Modulus (GPa) = 20.84734 36.78297 28.81516
# Shear Modulus (GPa) = 25.74289 32.38149 29.06219
#
# Velocity S-wave (km/s) = 3.26783 3.66504 3.47212
# Velocity P-wave (km/s) = 4.78395 5.75920 5.29408
#
# Compressibility (1/GPa) = 0.04796774
#
# Stress axis : x y z
#
# Youngs Moduli (GPa) = 48.29991 82.54705 48.44000
#
# Poissons Ratio (x) = 0.13568 -0.00644
# Poissons Ratio (y) = 0.07939 0.05990
# Poissons Ratio (z) = -0.00642 0.10207
#
# Static dielectric constant tensor:
#      x y z
#    x 1.997780 0.000000 0.029020 
#    y 0.000000 1.972930 0.000000 
#    z 0.029020 0.000000 1.998810 
# 
# From -- ./inp_files/102686.got.cif
#   From: 2010.05.17/outbox.cif.g08.bks.cpg/sg15_52_cif.got.tgz:102686.got - 2010.06.03 18:47:42.
