data_PCOD9279931
_publ_section_title
;
Structure prediction by ZEFSAII (Michael W. Deem and Ramdas Pophale) SiO2 
 PCOD9279931
Probable space group: C 2/C
;
_chemical_formula_sum "Si O2"
_cell_formula_units_Z 44
_cell_length_a 11.803910
_cell_length_b 26.333357
_cell_length_c 8.502301
_cell_angle_alpha 90.000000
_cell_angle_beta 49.747045
_cell_angle_gamma 90.000000
_cell_volume 2017.002644
_symmetry_space_group_name_H-M "C 2/C"
_symmetry_group_IT_number 15
_symmetry_cell_setting 'monoclinic'
loop_
_space_group_symop_operation_xyz
x,y,z
-x,y,1/2-z
-x,-y,-z
x,-y,1/2+z
1/2+x,1/2+y,z
1/2-x,1/2+y,1/2-z
1/2-x,1/2-y,-z
1/2+x,1/2-y,1/2+z
loop_
_atom_site_type_symbol
_atom_site_label
_atom_site_fract_x
_atom_site_fract_y
_atom_site_fract_z
Si Si1 0.788651 0.550425 0.605822
Si Si2 0.819418 0.711667 0.307305
Si Si3 0.524047 0.271388 0.907086
Si Si4 0.538877 0.625123 0.903054
Si Si5 0.852519 0.965091 0.607202
Si Si6 0.000000 0.381901 0.750000
O O1 0.684365 0.590789 0.787401
O O2 0.780796 0.495537 0.692219
O O3 0.698632 0.540265 0.525549
O O4 0.940483 0.579632 0.435786
O O5 0.750000 0.750000 0.500000
O O6 0.692867 0.713035 0.288868
O O7 0.864016 0.656050 0.330203
O O8 0.966692 0.731714 0.088352
O O9 0.500000 0.255397 0.750000
O O10 0.436389 0.322445 0.031549
O O11 0.500000 0.634163 0.750000
O O12 0.407401 0.591455 0.098876
O O13 0.000000 0.000000 0.500000
#
# Coordination Sequence:
#
# PCOD9279931 Si02
#       6
#     8   8   8   8   8   4
#     4  10  21  36  61  93 127 169 220 269 330 394
#     4  12  23  45  69  92 128 186 232 270 336 422
#     4  12  25  40  66 102 136 165 222 298 351 390
#     4   9  18  36  62  91 124 171 226 261 319 412
#     4   9  18  36  61  89 122 162 214 270 323 396
#     4  12  24  40  68  92 130 176 238 270 324 412
#
# _framework density 21.814547999999998
#
# number of rings (size 3 to 8) (size 9 to 14) (size 15 to 20)
#    0.000    1.455    1.818    6.545    0.000    3.636 
#    0.000    0.000    0.000    0.000    0.000    0.000 
#    0.000    0.000    0.000    0.000    0.000    0.000 
#
# Total GULP energy -122674.885433 kJ/mol
# GULP energy per Si atom -5576.131156 kJ/mol
# Density = 2.176490 g / cm^3
# Si number density = 21.814548 Si / 1000 Ang^3
#
#
#
# Elastic Constant Matrix: (Units=GPa)
#
#
# Indices 1 2 3 4 5 6 
#
# 1 65.9734 -5.3563 3.5831 0.0000 -8.7181 0.0000
# 2 -5.3563 83.5296 41.0408 0.0000 1.5671 0.0000
# 3 3.5831 41.0408 80.2057 0.0000 -8.6749 0.0000
# 4 0.0000 0.0000 0.0000 53.3409 0.0000 -9.8581
# 5 -8.7181 1.5671 -8.6749 0.0000 27.0863 0.0000
# 6 0.0000 0.0000 0.0000 -9.8581 0.0000 28.5739
#
#
#
# Elastic Compliance Matrix: (Units=1/GPa)
#
#
# Indices 1 2 3 4 5 6 
#
# 1 0.015948 0.001376 -0.000901 0.000000 0.004765 0.000000
# 2 0.001376 0.016472 -0.008852 0.000000 -0.003345 0.000000
# 3 -0.000901 -0.008852 0.017674 0.000000 0.005882 0.000000
# 4 0.000000 0.000000 0.000000 0.020024 0.000000 0.006908
# 5 0.004765 -0.003345 0.005882 0.000000 0.040530 0.000000
# 6 0.000000 0.000000 0.000000 0.006908 0.000000 0.037380
#
#
# Mechanical properties :
#
#
# Convention : Reuss Voigt Hill
#
# Bulk Modulus (GPa) = 29.99423 34.24932 32.12177
# Shear Modulus (GPa) = 28.42590 34.49630 31.46110
#
# Velocity S-wave (km/s) = 3.61372 3.98093 3.80176
# Velocity P-wave (km/s) = 5.58493 6.07163 5.83336
#
# Compressibility (1/GPa) = 0.03333975
#
# Stress axis : x y z
#
# Youngs Moduli (GPa) = 62.70400 60.70893 56.58055
#
# Poissons Ratio (x) = -0.08354 0.05099
# Poissons Ratio (y) = -0.08629 0.50085
# Poissons Ratio (z) = 0.05651 0.53739
#
# Static dielectric constant tensor:
#      x y z
#    x 1.847080 0.000000 -0.044940 
#    y 0.000000 1.824130 0.000000 
#    z -0.044940 0.000000 1.933940 
# 
# From -- ./inp_files/34028.got.cif
#   From: 2010.05.17/outbox.cif.g08.bks.cpg/sg15_18_cif.got.tgz:34028.got - 2010.06.03 18:47:42.
