data_PCOD9279716
_publ_section_title
;
Structure prediction by ZEFSAII (Michael W. Deem and Ramdas Pophale) SiO2 
 PCOD9279716
Probable space group: C 2/C
;
_chemical_formula_sum "Si O2"
_cell_formula_units_Z 48
_cell_length_a 28.002282
_cell_length_b 11.472011
_cell_length_c 20.163873
_cell_angle_alpha 90.000000
_cell_angle_beta 17.713257
_cell_angle_gamma 90.000000
_cell_volume 1970.799686
_symmetry_space_group_name_H-M "C 2/C"
_symmetry_group_IT_number 15
_symmetry_cell_setting 'monoclinic'
loop_
_space_group_symop_operation_xyz
x,y,z
-x,y,1/2-z
-x,-y,-z
x,-y,1/2+z
1/2+x,1/2+y,z
1/2-x,1/2+y,1/2-z
1/2-x,1/2-y,-z
1/2+x,1/2-y,1/2+z
loop_
_atom_site_type_symbol
_atom_site_label
_atom_site_fract_x
_atom_site_fract_y
_atom_site_fract_z
Si Si1 0.209448 0.961384 0.190128
Si Si2 0.059951 0.885303 0.774138
Si Si3 0.020995 0.326927 0.420756
Si Si4 0.115289 0.845274 0.893599
Si Si5 0.312529 0.714895 0.065946
Si Si6 0.785155 0.021848 0.558083
O O1 0.320227 0.849462 0.035218
O O2 0.046547 0.895687 0.422283
O O3 0.167888 0.039199 0.181426
O O4 0.239611 0.054270 0.209087
O O5 0.031001 0.758738 0.843966
O O6 0.149820 0.894636 0.585721
O O7 0.892735 0.946989 0.979826
O O8 0.140653 0.268682 0.316279
O O9 0.100977 0.451222 0.304266
O O10 0.849342 0.319363 0.679986
O O11 0.073294 0.809134 0.023464
O O12 0.319780 0.615254 0.000904
#
# Coordination Sequence:
#
# PCOD9279716 Si02
#       6
#     8   8   8   8   8   8
#     4   9  19  36  55  80 111 151 187 228 288 338
#     4  10  21  40  60  77 116 162 193 226 290 362
#     4  10  21  36  57  87 112 149 189 251 286 333
#     4   9  18  33  57  79 111 143 190 232 286 342
#     4  11  21  33  59  89 116 144 187 255 282 338
#     4  11  22  36  58  87 114 151 196 237 287 353
#
# _framework density 24.355595000000001
#
# number of rings (size 3 to 8) (size 9 to 14) (size 15 to 20)
#    0.000    2.000    1.667    3.000    2.333    0.667 
#    0.000    0.000    0.000    0.000    0.000    0.000 
#    0.000    0.000    0.000    0.000    0.000    0.000 
#
# Total GULP energy -133693.188371 kJ/mol
# GULP energy per Si atom -5570.549515 kJ/mol
# Density = 2.430016 g / cm^3
# Si number density = 24.355595 Si / 1000 Ang^3
#
#
#
# Elastic Constant Matrix: (Units=GPa)
#
#
# Indices 1 2 3 4 5 6 
#
# 1 70.1190 13.0422 -6.5364 0.0000 12.0469 0.0000
# 2 13.0422 67.6228 -20.7473 0.0000 -2.2201 0.0000
# 3 -6.5364 -20.7473 41.1128 -0.0001 6.4184 0.0001
# 4 0.0000 0.0000 -0.0001 15.6697 0.0001 5.7474
# 5 12.0469 -2.2201 6.4184 0.0001 19.7310 0.0000
# 6 0.0000 0.0000 0.0001 5.7474 0.0000 25.6452
#
#
#
# Elastic Compliance Matrix: (Units=1/GPa)
#
#
# Indices 1 2 3 4 5 6 
#
# 1 0.017084 -0.002703 0.003190 0.000000 -0.011773 0.000000
# 2 -0.002703 0.017942 0.008482 0.000000 0.000910 0.000000
# 3 0.003190 0.008482 0.030832 0.000000 -0.011023 0.000000
# 4 0.000000 0.000000 0.000000 0.069533 0.000000 -0.015583
# 5 -0.011773 0.000910 -0.011023 0.000000 0.061558 0.000000
# 6 0.000000 0.000000 0.000000 -0.015583 0.000000 0.042486
#
#
# Mechanical properties :
#
#
# Convention : Reuss Voigt Hill
#
# Bulk Modulus (GPa) = 11.93356 16.70795 14.32076
# Shear Modulus (GPa) = 20.04592 25.08224 22.56408
#
# Velocity S-wave (km/s) = 2.87200 3.21259 3.04706
# Velocity P-wave (km/s) = 3.98851 4.54267 4.27458
#
# Compressibility (1/GPa) = 0.08379730
#
# Stress axis : x y z
#
# Youngs Moduli (GPa) = 58.53363 55.73666 32.43388
#
# Poissons Ratio (x) = 0.15064 -0.10347
# Poissons Ratio (y) = 0.15820 -0.27512
# Poissons Ratio (z) = -0.18673 -0.47278
#
# Static dielectric constant tensor:
#      x y z
#    x 2.085310 0.000000 -0.039370 
#    y 0.000000 2.009230 0.000000 
#    z -0.039370 0.000000 2.047540 
# 
# From -- ./inp_files/103676.got.cif
#   From: 2010.05.17/outbox.cif.g08.bks.cpg/sg15_52_cif.got.tgz:103676.got - 2010.06.03 18:47:42.
