data_PCOD9279162
_publ_section_title
;
Structure prediction by ZEFSAII (Michael W. Deem and Ramdas Pophale) SiO2 
 PCOD9279162
Probable space group: C 2/C
;
_chemical_formula_sum "Si O2"
_cell_formula_units_Z 44
_cell_length_a 12.293226
_cell_length_b 15.574320
_cell_length_c 12.501315
_cell_angle_alpha 90.000000
_cell_angle_beta 50.035543
_cell_angle_gamma 90.000000
_cell_volume 1834.469709
_symmetry_space_group_name_H-M "C 2/C"
_symmetry_group_IT_number 15
_symmetry_cell_setting 'monoclinic'
loop_
_space_group_symop_operation_xyz
x,y,z
-x,y,1/2-z
-x,-y,-z
x,-y,1/2+z
1/2+x,1/2+y,z
1/2-x,1/2+y,1/2-z
1/2-x,1/2-y,-z
1/2+x,1/2-y,1/2+z
loop_
_atom_site_type_symbol
_atom_site_label
_atom_site_fract_x
_atom_site_fract_y
_atom_site_fract_z
Si Si1 0.730018 0.395291 0.225591
Si Si2 0.897142 0.211333 0.881500
Si Si3 0.000000 0.478705 0.250000
Si Si4 0.461765 0.830124 0.439492
Si Si5 0.208021 0.574654 0.278789
Si Si6 0.984355 0.851535 0.970639
O O1 0.636742 0.360410 0.186959
O O2 0.867329 0.336017 0.154381
O O3 0.786304 0.487590 0.155963
O O4 0.646304 0.403601 0.392532
O O5 0.000000 0.273120 0.750000
O O6 0.750000 0.250000 0.000000
O O7 0.959937 0.189009 0.954565
O O8 0.066900 0.408612 0.124369
O O9 0.882735 0.539120 0.265750
O O10 0.376758 0.854081 0.601048
O O11 0.433283 0.729519 0.431390
O O12 0.373875 0.601293 0.160126
#
# Coordination Sequence:
#
# PCOD9279162 Si02
#       6
#     8   8   4   8   8   8
#     4  10  21  41  59  93 133 171 213 269 325 385
#     4  10  21  34  60  93 129 162 211 268 329 370
#     4  10  24  44  68  94 134 174 214 266 326 386
#     4  11  23  43  67  95 130 173 220 262 321 396
#     4  11  25  41  69  93 133 171 219 265 326 387
#     4  11  23  39  65  94 130 167 218 275 319 379
#
# _framework density 23.985133999999999
#
# number of rings (size 3 to 8) (size 9 to 14) (size 15 to 20)
#    0.000    1.455    1.818    3.818    7.636    0.000 
#    0.000    8.182    6.000    0.000    0.000    0.000 
#    0.000    0.000    0.000    0.000    0.000    0.000 
#
# Total GULP energy -122545.803791 kJ/mol
# GULP energy per Si atom -5570.263809 kJ/mol
# Density = 2.393054 g / cm^3
# Si number density = 23.985134 Si / 1000 Ang^3
#
#
#
# Elastic Constant Matrix: (Units=GPa)
#
#
# Indices 1 2 3 4 5 6 
#
# 1 53.1200 10.6255 15.9548 0.0000 -6.2816 0.0000
# 2 10.6255 93.7586 -7.1827 0.0000 3.1950 0.0000
# 3 15.9548 -7.1827 82.1023 0.0000 -13.6912 0.0000
# 4 0.0000 0.0000 0.0000 39.9197 0.0000 -9.0325
# 5 -6.2816 3.1950 -13.6912 0.0000 31.2764 0.0000
# 6 0.0000 0.0000 0.0000 -9.0325 0.0000 11.4214
#
#
#
# Elastic Compliance Matrix: (Units=1/GPa)
#
#
# Indices 1 2 3 4 5 6 
#
# 1 0.020856 -0.002752 -0.003828 0.000000 0.002794 0.000000
# 2 -0.002752 0.011117 0.001322 0.000000 -0.001109 0.000000
# 3 -0.003828 0.001322 0.013904 0.000000 0.005182 0.000000
# 4 0.000000 0.000000 0.000000 0.030510 0.000000 0.024128
# 5 0.002794 -0.001109 0.005182 0.000000 0.034916 0.000000
# 6 0.000000 0.000000 0.000000 0.024128 0.000000 0.106636
#
#
# Mechanical properties :
#
#
# Convention : Reuss Voigt Hill
#
# Bulk Modulus (GPa) = 28.27939 29.75292 29.01615
# Shear Modulus (GPa) = 20.81248 30.49574 25.65411
#
# Velocity S-wave (km/s) = 2.94891 3.56960 3.27400
# Velocity P-wave (km/s) = 4.83847 5.42412 5.13964
#
# Compressibility (1/GPa) = 0.03536144
#
# Stress axis : x y z
#
# Youngs Moduli (GPa) = 47.94816 89.95493 71.92356
#
# Poissons Ratio (x) = 0.24756 0.27530
# Poissons Ratio (y) = 0.13195 -0.09511
# Poissons Ratio (z) = 0.18353 -0.11895
#
# Static dielectric constant tensor:
#      x y z
#    x 2.082940 0.000000 -0.221280 
#    y 0.000000 2.005350 0.000000 
#    z -0.221280 0.000000 2.226270 
# 
# From -- ./inp_files/154727.got.cif
#   From: 2010.05.17/outbox.cif.g08.bks.cpg/sg15_78_cif.got.tgz:154727.got - 2010.06.03 18:47:42.
