data_PCOD9279140
_publ_section_title
;
Structure prediction by ZEFSAII (Michael W. Deem and Ramdas Pophale) SiO2 
 PCOD9279140
Probable space group: C 2/C
;
_chemical_formula_sum "Si O2"
_cell_formula_units_Z 52
_cell_length_a 13.824594
_cell_length_b 14.641410
_cell_length_c 18.765217
_cell_angle_alpha 90.000000
_cell_angle_beta 30.324337
_cell_angle_gamma 90.000000
_cell_volume 1917.738378
_symmetry_space_group_name_H-M "C 2/C"
_symmetry_group_IT_number 15
_symmetry_cell_setting 'monoclinic'
loop_
_space_group_symop_operation_xyz
x,y,z
-x,y,1/2-z
-x,-y,-z
x,-y,1/2+z
1/2+x,1/2+y,z
1/2-x,1/2+y,1/2-z
1/2-x,1/2-y,-z
1/2+x,1/2-y,1/2+z
loop_
_atom_site_type_symbol
_atom_site_label
_atom_site_fract_x
_atom_site_fract_y
_atom_site_fract_z
Si Si1 0.800721 0.050405 0.131051
Si Si2 0.965132 0.848366 0.398276
Si Si3 0.197131 0.890091 0.603711
Si Si4 0.916919 0.821344 0.680725
Si Si5 0.000000 0.515501 0.250000
Si Si6 0.901404 0.626266 0.615441
Si Si7 0.907491 0.363626 0.944559
O O1 0.812247 0.100768 0.200840
O O2 0.686269 0.968666 0.157511
O O3 0.835401 0.130198 0.049629
O O4 0.000000 0.000000 0.000000
O O5 0.979677 0.739198 0.384969
O O6 0.819290 0.874298 0.427792
O O7 0.174359 0.894499 0.269765
O O8 0.190927 0.818479 0.673880
O O9 0.414730 0.926101 0.466056
O O10 0.000000 0.946124 0.750000
O O11 0.129693 0.848038 0.572346
O O12 0.917419 0.727352 0.638313
O O13 0.007214 0.577779 0.317831
O O14 0.932047 0.618048 0.511802
#
# Coordination Sequence:
#
# PCOD9279140 Si02
#       7
#     8   8   8   8   4   8   8
#     4  11  22  41  60  81 120 157 206 240 280 363
#     4  10  22  32  53  93 115 148 189 239 303 351
#     4   8  21  34  53  79 115 154 184 233 291 351
#     4   9  20  36  55  83 115 155 192 236 296 347
#     4  10  22  40  62  90 114 164 194 240 318 346
#     4  12  17  34  58  88 120 144 184 245 302 351
#     4  10  21  34  59  87 124 145 183 250 311 361
#
# _framework density 27.115273999999999
#
# number of rings (size 3 to 8) (size 9 to 14) (size 15 to 20)
#    0.923    0.923    1.538    3.692    4.308    0.000 
#    2.769    0.000   13.538    1.846    0.000    0.000 
#    0.000    0.000    0.000    0.000    0.000    0.000 
#
# Total GULP energy -144784.449765 kJ/mol
# GULP energy per Si atom -5568.632683 kJ/mol
# Density = 2.705356 g / cm^3
# Si number density = 27.115274 Si / 1000 Ang^3
#
#
#
# Elastic Constant Matrix: (Units=GPa)
#
#
# Indices 1 2 3 4 5 6 
#
# 1 241.8650 28.9775 79.2750 -0.0020 -41.5967 0.0000
# 2 28.9775 71.0527 17.7858 0.0118 31.0265 -0.0021
# 3 79.2750 17.7858 145.0494 0.0107 -8.4861 -0.0027
# 4 -0.0020 0.0118 0.0107 26.5645 -0.0001 13.3886
# 5 -41.5967 31.0265 -8.4861 -0.0001 72.3142 0.0005
# 6 0.0000 -0.0021 -0.0027 13.3886 0.0005 7.0195
#
#
#
# Elastic Compliance Matrix: (Units=1/GPa)
#
#
# Indices 1 2 3 4 5 6 
#
# 1 0.006407 -0.004200 -0.002684 0.000123 0.005172 -0.000237
# 2 -0.004200 0.021084 -0.000967 -0.000327 -0.011575 0.000631
# 3 -0.002684 -0.000967 0.008472 -0.000121 -0.000135 0.000234
# 4 0.000123 -0.000327 -0.000121 0.972762 0.000211 -1.855381
# 5 0.005172 -0.011575 -0.000135 0.000211 0.021754 -0.000407
# 6 -0.000237 0.000631 0.000234 -1.855381 -0.000407 3.681288
#
#
# Mechanical properties :
#
#
# Convention : Reuss Voigt Hill
#
# Bulk Modulus (GPa) = 49.35703 78.89374 64.12538
# Shear Modulus (GPa) = 1.05614 43.30823 22.18219
#
# Velocity S-wave (km/s) = 0.62478 4.00082 2.86329
# Velocity P-wave (km/s) = 4.33159 7.10640 5.88488
#
# Compressibility (1/GPa) = 0.02026054
#
# Stress axis : x y z
#
# Youngs Moduli (GPa) = 156.07845 47.43034 118.03754
#
# Poissons Ratio (x) = 0.19920 0.31683
# Poissons Ratio (y) = 0.65549 0.11415
# Poissons Ratio (z) = 0.41893 0.04587
#
# Static dielectric constant tensor:
#      x y z
#    x 2.046420 0.000010 0.147090 
#    y 0.000010 2.125990 -0.000010 
#    z 0.147090 -0.000010 1.991740 
# 
# From -- ./inp_files/245370.got.cif
#   From: 2010.05.17/outbox.cif.g08.bks.cpg/sg15_123_cif.got.tgz:245370.got - 2010.06.03 18:47:42.
