data_PCOD9279990
_publ_section_title
;
Structure prediction by ZEFSAII (Michael W. Deem and Ramdas Pophale) SiO2 
 PCOD9279990
Probable space group: C 2/C
;
_chemical_formula_sum "Si O2"
_cell_formula_units_Z 48
_cell_length_a 24.070012
_cell_length_b 5.093608
_cell_length_c 18.544717
_cell_angle_alpha 90.000000
_cell_angle_beta 114.185780
_cell_angle_gamma 90.000000
_cell_volume 2074.065629
_symmetry_space_group_name_H-M "C 2/C"
_symmetry_group_IT_number 15
_symmetry_cell_setting 'monoclinic'
loop_
_space_group_symop_operation_xyz
x,y,z
-x,y,1/2-z
-x,-y,-z
x,-y,1/2+z
1/2+x,1/2+y,z
1/2-x,1/2+y,1/2-z
1/2-x,1/2-y,-z
1/2+x,1/2-y,1/2+z
loop_
_atom_site_type_symbol
_atom_site_label
_atom_site_fract_x
_atom_site_fract_y
_atom_site_fract_z
Si Si1 0.440421 0.820379 0.986947
Si Si2 0.533520 0.566523 0.199623
Si Si3 0.351721 0.715889 0.678134
Si Si4 0.923943 0.202228 0.573131
Si Si5 0.609124 0.049554 0.670277
Si Si6 0.264294 0.123287 0.801609
O O1 0.411636 0.023330 0.028279
O O2 0.434163 0.535246 0.021024
O O3 0.407369 0.810575 0.891676
O O4 0.500000 0.000000 0.000000
O O5 0.500000 0.696499 0.250000
O O6 0.599973 0.477671 0.258842
O O7 0.487534 0.334928 0.151944
O O8 0.549092 0.774743 0.147146
O O9 0.371401 0.692534 0.605850
O O10 0.281328 0.654499 0.656061
O O11 0.367849 0.969442 0.737175
O O12 0.664523 0.189508 0.657720
O O13 0.238854 0.324904 0.728077
#
# Coordination Sequence:
#
# PCOD9279990 Si02
#       6
#     8   8   8   8   8   8
#     4  12  25  41  62  92 133 166 207 251 325 378
#     4  10  21  36  62  94 124 160 210 261 314 365
#     4  10  23  41  64  92 126 164 216 262 313 367
#     4  11  26  41  62  93 131 169 201 260 319 382
#     4  11  23  38  67  91 126 163 219 255 313 372
#     4  10  21  38  63  93 121 161 211 268 309 362
#
# _framework density 23.142949999999999
#
# number of rings (size 3 to 8) (size 9 to 14) (size 15 to 20)
#    0.000    1.333    3.333    1.500    7.000    0.667 
#    0.000    1.667    0.000    0.000    0.000    0.000 
#    0.000    0.000    0.000    0.000    0.000    0.000 
#
# Total GULP energy -133692.406473 kJ/mol
# GULP energy per Si atom -5570.516936 kJ/mol
# Density = 2.309028 g / cm^3
# Si number density = 23.142950 Si / 1000 Ang^3
#
#
#
# Elastic Constant Matrix: (Units=GPa)
#
#
# Indices 1 2 3 4 5 6 
#
# 1 148.2874 19.3373 20.0475 0.0000 -38.5421 0.0002
# 2 19.3373 67.9521 1.9974 -0.0001 -5.6483 0.0005
# 3 20.0475 1.9974 52.9209 0.0002 -20.1198 0.0002
# 4 0.0000 -0.0001 0.0002 38.3719 0.0000 -3.2803
# 5 -38.5421 -5.6483 -20.1198 0.0000 30.2287 -0.0001
# 6 0.0002 0.0005 0.0002 -3.2803 -0.0001 27.3132
#
#
#
# Elastic Compliance Matrix: (Units=1/GPa)
#
#
# Indices 1 2 3 4 5 6 
#
# 1 0.010391 -0.001848 0.001391 0.000000 0.013829 0.000000
# 2 -0.001848 0.015295 0.000420 0.000000 0.000780 0.000000
# 3 0.001391 0.000420 0.025514 0.000000 0.018834 0.000000
# 4 0.000000 0.000000 0.000000 0.026331 0.000000 0.003162
# 5 0.013829 0.000780 0.018834 0.000000 0.063395 0.000000
# 6 0.000000 0.000000 0.000000 0.003162 0.000000 0.036992
#
#
# Mechanical properties :
#
#
# Convention : Reuss Voigt Hill
#
# Bulk Modulus (GPa) = 19.56025 39.10276 29.33150
# Shear Modulus (GPa) = 25.63655 34.36798 30.00227
#
# Velocity S-wave (km/s) = 3.33190 3.85779 3.60445
# Velocity P-wave (km/s) = 4.82414 6.06434 5.47944
#
# Compressibility (1/GPa) = 0.05112410
#
# Stress axis : x y z
#
# Youngs Moduli (GPa) = 96.23634 65.38174 39.19492
#
# Poissons Ratio (x) = 0.12085 -0.05453
# Poissons Ratio (y) = 0.17788 -0.01645
# Poissons Ratio (z) = -0.13388 -0.02744
#
# Static dielectric constant tensor:
#      x y z
#    x 1.959480 0.000000 -0.030250 
#    y 0.000000 1.960620 0.000000 
#    z -0.030250 0.000000 1.947060 
# 
# From -- ./inp_files/217522.got.cif
#   From: 2010.05.17/outbox.cif.g08.bks.cpg/sg15_109_cif.got.tgz:217522.got - 2010.06.03 18:47:42.
