data_PCOD9279148
_publ_section_title
;
Structure prediction by ZEFSAII (Michael W. Deem and Ramdas Pophale) SiO2 
 PCOD9279148
Probable space group: C 2/C
;
_chemical_formula_sum "Si O2"
_cell_formula_units_Z 40
_cell_length_a 11.014397
_cell_length_b 22.585906
_cell_length_c 13.904063
_cell_angle_alpha 90.000000
_cell_angle_beta 34.735159
_cell_angle_gamma 90.000000
_cell_volume 1970.834498
_symmetry_space_group_name_H-M "C 2/C"
_symmetry_group_IT_number 15
_symmetry_cell_setting 'monoclinic'
loop_
_space_group_symop_operation_xyz
x,y,z
-x,y,1/2-z
-x,-y,-z
x,-y,1/2+z
1/2+x,1/2+y,z
1/2-x,1/2+y,1/2-z
1/2-x,1/2-y,-z
1/2+x,1/2-y,1/2+z
loop_
_atom_site_type_symbol
_atom_site_label
_atom_site_fract_x
_atom_site_fract_y
_atom_site_fract_z
Si Si1 0.451552 0.772583 0.665861
Si Si2 0.332902 0.456734 0.055074
Si Si3 0.547915 0.339077 0.974329
Si Si4 0.228826 0.875057 0.048206
Si Si5 0.931417 0.502163 0.434775
O O1 0.500000 0.765423 0.750000
O O2 0.446162 0.712522 0.607706
O O3 0.645780 0.815086 0.506041
O O4 0.228520 0.806087 0.795641
O O5 0.401643 0.387946 0.019112
O O6 0.279511 0.474443 0.979305
O O7 0.121240 0.470980 0.253614
O O8 0.500000 0.500000 0.000000
O O9 0.678697 0.375239 0.968443
O O10 0.000000 0.881999 0.250000
O O11 0.391906 0.928196 0.951768
O O12 0.000000 0.500000 0.500000
#
# Coordination Sequence:
#
# PCOD9279148 Si02
#       5
#     8   8   8   8   8
#     4  10  21  34  59  95 123 167 217 268 330 379
#     4  11  23  42  64  92 134 174 209 273 333 381
#     4  11  20  37  62  88 132 163 216 268 325 390
#     4  11  20  35  59  92 130 162 214 277 321 385
#     4  11  25  39  63  95 128 173 222 262 328 394
#
# _framework density 20.295971000000002
#
# number of rings (size 3 to 8) (size 9 to 14) (size 15 to 20)
#    0.000    1.200    2.000    6.600    5.600    0.000 
#    0.000    0.000    0.000   10.800    0.000    0.000 
#    0.000    0.000    0.000    0.000    0.000    0.000 
#
# Total GULP energy -111443.106321 kJ/mol
# GULP energy per Si atom -5572.155316 kJ/mol
# Density = 2.024978 g / cm^3
# Si number density = 20.295971 Si / 1000 Ang^3
#
#
#
# Elastic Constant Matrix: (Units=GPa)
#
#
# Indices 1 2 3 4 5 6 
#
# 1 131.8185 55.5590 21.4103 -0.0012 -0.4759 0.0008
# 2 55.5590 147.5645 45.4688 0.0017 -12.5328 0.0005
# 3 21.4103 45.4688 95.7762 0.0002 -12.4561 0.0010
# 4 -0.0012 0.0017 0.0002 8.4599 0.0025 -25.1398
# 5 -0.4759 -12.5328 -12.4561 0.0025 21.3118 -0.0007
# 6 0.0008 0.0005 0.0010 -25.1398 -0.0007 43.9796
#
#
#
# Elastic Compliance Matrix: (Units=1/GPa)
#
#
# Indices 1 2 3 4 5 6 
#
# 1 0.009129 -0.003406 -0.000712 -0.000003 -0.002215 -0.000002
# 2 -0.003406 0.009351 -0.003217 0.000004 0.003543 0.000003
# 3 -0.000712 -0.003217 0.012857 0.000003 0.005606 0.000001
# 4 -0.000003 0.000004 0.000003 -0.169188 0.000021 -0.096712
# 5 -0.002215 0.003543 0.005606 0.000021 0.052233 0.000013
# 6 -0.000002 0.000003 0.000001 -0.096712 0.000013 -0.032545
#
#
# Mechanical properties :
#
#
# Convention : Reuss Voigt Hill
#
# Bulk Modulus (GPa) = 59.99940 68.89281 64.44610
# Shear Modulus (GPa) = -51.05366 31.59834 -9.72766
#
# Velocity S-wave (km/s) = -5.02088 3.95001 -2.19164
# Velocity P-wave (km/s) = 1.99646 7.40413 5.04159
#
# Compressibility (1/GPa) = 0.01666683
#
# Stress axis : x y z
#
# Youngs Moduli (GPa) = 109.53603 106.93663 77.78062
#
# Poissons Ratio (x) = 0.36423 0.05538
# Poissons Ratio (y) = 0.37309 0.25024
# Poissons Ratio (z) = 0.07798 0.34405
#
# Static dielectric constant tensor:
#      x y z
#    x 1.776640 0.000000 0.008630 
#    y 0.000000 1.788830 0.000000 
#    z 0.008630 0.000000 1.833560 
# 
# From -- ./inp_files/147998.got.cif
#   From: 2010.05.17/outbox.cif.g08.bks.cpg/sg15_74_cif.got.tgz:147998.got - 2010.06.03 18:47:42.
