data_PCOD9279353
_publ_section_title
;
Structure prediction by ZEFSAII (Michael W. Deem and Ramdas Pophale) SiO2 
 PCOD9279353
Probable space group: C 2/C
;
_chemical_formula_sum "Si O2"
_cell_formula_units_Z 48
_cell_length_a 13.609360
_cell_length_b 16.130613
_cell_length_c 15.009896
_cell_angle_alpha 90.000000
_cell_angle_beta 130.032705
_cell_angle_gamma 90.000000
_cell_volume 2522.970025
_symmetry_space_group_name_H-M "C 2/C"
_symmetry_group_IT_number 15
_symmetry_cell_setting 'monoclinic'
loop_
_space_group_symop_operation_xyz
x,y,z
-x,y,1/2-z
-x,-y,-z
x,-y,1/2+z
1/2+x,1/2+y,z
1/2-x,1/2+y,1/2-z
1/2-x,1/2-y,-z
1/2+x,1/2-y,1/2+z
loop_
_atom_site_type_symbol
_atom_site_label
_atom_site_fract_x
_atom_site_fract_y
_atom_site_fract_z
Si Si1 0.628196 0.686679 0.765795
Si Si2 0.321275 0.047624 0.920105
Si Si3 0.399525 0.425784 0.751259
Si Si4 0.243858 0.865443 0.662404
Si Si5 0.016677 0.932929 0.430389
Si Si6 0.040623 0.502789 0.678252
O O1 0.500000 0.690893 0.750000
O O2 0.731024 0.626665 0.871297
O O3 0.690696 0.776510 0.796776
O O4 0.585471 0.640691 0.648469
O O5 0.229124 0.966518 0.864516
O O6 0.394728 0.052547 0.866779
O O7 0.419752 0.039147 0.058281
O O8 0.500000 0.375793 0.750000
O O9 0.349746 0.375449 0.807026
O O10 0.487553 0.504072 0.833384
O O11 0.152485 0.889432 0.526355
O O12 0.354184 0.934091 0.734995
O O13 0.000000 0.000000 0.500000
O O14 0.000000 0.542312 0.750000
#
# Coordination Sequence:
#
# PCOD9279353 Si02
#       6
#     8   8   8   8   8   8
#     4  11  23  37  57  85 116 152 182 242 305 336
#     4   9  20  38  55  83 118 145 200 238 275 359
#     4   9  18  37  61  81 105 156 195 237 286 333
#     4  10  22  35  55  86 118 143 193 240 286 358
#     4   9  19  36  58  82 109 147 195 233 273 349
#     4  10  21  35  58  84 114 156 186 238 295 336
#
# _framework density 19.025196000000001
#
# number of rings (size 3 to 8) (size 9 to 14) (size 15 to 20)
#    0.000    2.333    0.000    3.500    7.000    0.667 
#    0.000    0.833    0.000    4.000    0.000    0.000 
#    0.000    0.000    0.000    0.000    0.000    0.000 
#
# Total GULP energy -133611.629961 kJ/mol
# GULP energy per Si atom -5567.151248 kJ/mol
# Density = 1.898189 g / cm^3
# Si number density = 19.025196 Si / 1000 Ang^3
#
#
#
# Elastic Constant Matrix: (Units=GPa)
#
#
# Indices 1 2 3 4 5 6 
#
# 1 129.7547 24.2316 34.8287 0.0000 -4.6112 0.0000
# 2 24.2316 65.2169 17.3818 0.0000 5.4289 0.0000
# 3 34.8287 17.3818 128.6368 0.0000 14.0081 0.0000
# 4 0.0000 0.0000 0.0000 18.6191 0.0000 14.1485
# 5 -4.6112 5.4289 14.0081 0.0000 33.2809 0.0000
# 6 0.0000 0.0000 0.0000 14.1485 0.0000 22.1591
#
#
#
# Elastic Compliance Matrix: (Units=1/GPa)
#
#
# Indices 1 2 3 4 5 6 
#
# 1 0.008977 -0.002940 -0.002328 0.000000 0.002703 0.000000
# 2 -0.002940 0.016969 -0.001206 0.000000 -0.002668 0.000000
# 3 -0.002328 -0.001206 0.008993 0.000000 -0.003911 0.000000
# 4 0.000000 0.000000 0.000000 0.104326 0.000000 -0.066612
# 5 0.002703 -0.002668 -0.003911 0.000000 0.032503 0.000000
# 6 0.000000 0.000000 0.000000 -0.066612 0.000000 0.087659
#
#
# Mechanical properties :
#
#
# Convention : Reuss Voigt Hill
#
# Bulk Modulus (GPa) = 45.47303 52.94362 49.20833
# Shear Modulus (GPa) = 17.87593 31.28957 24.58275
#
# Velocity S-wave (km/s) = 3.06860 4.05981 3.59850
# Velocity P-wave (km/s) = 6.04222 7.06149 6.57165
#
# Compressibility (1/GPa) = 0.02199106
#
# Stress axis : x y z
#
# Youngs Moduli (GPa) = 111.39930 58.92949 111.19863
#
# Poissons Ratio (x) = 0.17325 0.25882
# Poissons Ratio (y) = 0.32751 0.13416
# Poissons Ratio (z) = 0.25929 0.07110
#
# Static dielectric constant tensor:
#      x y z
#    x 1.759330 0.000000 -0.032400 
#    y 0.000000 1.652940 0.000000 
#    z -0.032400 0.000000 1.692920 
# 
# From -- ./inp_files/154096.got.cif
#   From: 2010.05.17/outbox.cif.g08.bks.cpg/sg15_78_cif.got.tgz:154096.got - 2010.06.03 18:47:42.
