data_PCOD9279113
_publ_section_title
;
Structure prediction by ZEFSAII (Michael W. Deem and Ramdas Pophale) SiO2 
 PCOD9279113
Probable space group: C 2/C
;
_chemical_formula_sum "Si O2"
_cell_formula_units_Z 56
_cell_length_a 18.516366
_cell_length_b 20.986300
_cell_length_c 17.069441
_cell_angle_alpha 90.000000
_cell_angle_beta 23.741895
_cell_angle_gamma 90.000000
_cell_volume 2670.565682
_symmetry_space_group_name_H-M "C 2/C"
_symmetry_group_IT_number 15
_symmetry_cell_setting 'monoclinic'
loop_
_space_group_symop_operation_xyz
x,y,z
-x,y,1/2-z
-x,-y,-z
x,-y,1/2+z
1/2+x,1/2+y,z
1/2-x,1/2+y,1/2-z
1/2-x,1/2-y,-z
1/2+x,1/2-y,1/2+z
loop_
_atom_site_type_symbol
_atom_site_label
_atom_site_fract_x
_atom_site_fract_y
_atom_site_fract_z
Si Si1 0.639166 0.416326 0.793118
Si Si2 0.305876 0.562143 0.723212
Si Si3 0.952314 0.853997 0.212815
Si Si4 0.113399 0.299474 0.238883
Si Si5 0.580346 0.777739 0.583071
Si Si6 0.477923 0.152372 0.031282
Si Si7 0.221748 0.837889 0.572174
O O1 0.701050 0.486931 0.756380
O O2 0.652515 0.398652 0.688081
O O3 0.781506 0.368500 0.694928
O O4 0.432359 0.415637 0.025853
O O5 0.416496 0.592427 0.685527
O O6 0.107701 0.591344 0.914605
O O7 0.769903 0.812938 0.396924
O O8 0.000000 0.881252 0.250000
O O9 0.093032 0.797911 0.055096
O O10 0.092288 0.307216 0.352831
O O11 0.128471 0.226063 0.198021
O O12 0.926438 0.328719 0.396060
O O13 0.265092 0.334488 0.035288
O O14 0.500000 0.785823 0.750000
O O15 0.476030 0.809388 0.614184
#
# Coordination Sequence:
#
# PCOD9279113 Si02
#       7
#     8   8   8   8   8   8   8
#     4  10  22  39  60  80 120 159 193 244 289 344
#     4  10  23  39  57  87 113 157 206 232 290 354
#     4  10  21  36  58  82 122 146 192 250 289 358
#     4   9  19  34  56  91 113 150 187 245 308 345
#     4  10  21  34  57  92 113 152 191 237 311 349
#     4  10  22  37  63  84 118 152 196 244 298 353
#     4   9  19  35  57  84 121 146 194 242 295 361
#
# _framework density 20.969341
#
# number of rings (size 3 to 8) (size 9 to 14) (size 15 to 20)
#    0.000    2.286    0.000    2.143    8.000    2.286 
#    0.000    2.857   25.143    0.000    0.000    0.000 
#    0.000    0.000    0.000    0.000    0.000    0.000 
#
# Total GULP energy -156106.242970 kJ/mol
# GULP energy per Si atom -5575.222963 kJ/mol
# Density = 2.092161 g / cm^3
# Si number density = 20.969341 Si / 1000 Ang^3
#
#
#
# Elastic Constant Matrix: (Units=GPa)
#
#
# Indices 1 2 3 4 5 6 
#
# 1 82.3185 21.9981 40.1968 0.0136 20.7333 -0.0144
# 2 21.9981 41.3894 31.8348 0.0198 21.9067 -0.0277
# 3 40.1968 31.8348 85.6462 0.0002 24.1153 -0.0184
# 4 0.0136 0.0198 0.0002 30.3215 -0.0204 4.8660
# 5 20.7333 21.9067 24.1153 -0.0204 29.6358 0.0209
# 6 -0.0144 -0.0277 -0.0184 4.8660 0.0209 22.2260
#
#
#
# Elastic Compliance Matrix: (Units=1/GPa)
#
#
# Indices 1 2 3 4 5 6 
#
# 1 0.016824 -0.001304 -0.005667 -0.000013 -0.006195 0.000013
# 2 -0.001304 0.045098 -0.009108 -0.000059 -0.025013 0.000084
# 3 -0.005667 -0.009108 0.019081 0.000004 -0.004829 0.000004
# 4 -0.000013 -0.000059 0.000004 0.034181 0.000078 -0.007483
# 5 -0.006195 -0.025013 -0.004829 0.000078 0.060496 -0.000113
# 6 0.000013 0.000084 0.000004 -0.007483 -0.000113 0.046631
#
#
# Mechanical properties :
#
#
# Convention : Reuss Voigt Hill
#
# Bulk Modulus (GPa) = 20.47319 44.15706 32.31513
# Shear Modulus (GPa) = 18.46712 24.12497 21.29604
#
# Velocity S-wave (km/s) = 2.97083 3.39556 3.19027
# Velocity P-wave (km/s) = 4.64245 6.03960 5.38652
#
# Compressibility (1/GPa) = 0.04884437
#
# Stress axis : x y z
#
# Youngs Moduli (GPa) = 59.43905 22.17370 52.40818
#
# Poissons Ratio (x) = 0.02892 0.29700
# Poissons Ratio (y) = 0.07752 0.47734
# Poissons Ratio (z) = 0.33685 0.20196
#
# Static dielectric constant tensor:
#      x y z
#    x 1.824580 -0.000010 -0.004060 
#    y -0.000010 1.716700 0.000030 
#    z -0.004060 0.000030 1.823280 
# 
# From -- ./inp_files/216622.got.cif
#   From: 2010.05.17/outbox.cif.g08.bks.cpg/sg15_109_cif.got.tgz:216622.got - 2010.06.03 18:47:42.
