data_PCOD9279982
_publ_section_title
;
Structure prediction by ZEFSAII (Michael W. Deem and Ramdas Pophale) SiO2 
 PCOD9279982
Probable space group: C 2/C
;
_chemical_formula_sum "Si O2"
_cell_formula_units_Z 56
_cell_length_a 5.340355
_cell_length_b 28.534213
_cell_length_c 21.204872
_cell_angle_alpha 90.000000
_cell_angle_beta 113.047737
_cell_angle_gamma 90.000000
_cell_volume 2973.336036
_symmetry_space_group_name_H-M "C 2/C"
_symmetry_group_IT_number 15
_symmetry_cell_setting 'monoclinic'
loop_
_space_group_symop_operation_xyz
x,y,z
-x,y,1/2-z
-x,-y,-z
x,-y,1/2+z
1/2+x,1/2+y,z
1/2-x,1/2+y,1/2-z
1/2-x,1/2-y,-z
1/2+x,1/2-y,1/2+z
loop_
_atom_site_type_symbol
_atom_site_label
_atom_site_fract_x
_atom_site_fract_y
_atom_site_fract_z
Si Si1 0.042904 0.752065 0.562406
Si Si2 0.906021 0.977022 0.669357
Si Si3 0.565140 0.422476 0.500583
Si Si4 0.114697 0.123036 0.385654
Si Si5 0.811953 0.493311 0.096342
Si Si6 0.843875 0.330269 0.510608
Si Si7 0.178515 0.793804 0.705122
O O1 0.160235 0.702667 0.550907
O O2 0.191827 0.796980 0.546098
O O3 0.070662 0.759539 0.639304
O O4 0.750000 0.750000 0.500000
O O5 0.818637 0.922813 0.648735
O O6 0.000000 0.981602 0.750000
O O7 0.633900 0.007404 0.634954
O O8 0.140382 0.990959 0.641756
O O9 0.484913 0.398486 0.558492
O O10 0.311459 0.444575 0.439646
O O11 0.749582 0.467177 0.536780
O O12 0.714037 0.380155 0.481027
O O13 0.368853 0.156137 0.428634
O O14 0.891111 0.154206 0.328209
O O15 0.500000 0.788759 0.750000
O O16 0.000000 0.787086 0.750000
#
# Coordination Sequence:
#
# PCOD9279982 Si02
#       7
#     8   8   8   8   8   8   8
#     4  11  23  39  64  94 127 174 217 270 317 393
#     4  11  23  39  59  89 132 173 204 251 324 406
#     4  10  21  36  62  92 124 156 210 276 312 373
#     4  11  22  37  62  97 128 161 209 261 334 395
#     4  10  23  37  61  92 125 162 212 259 319 369
#     4  11  20  38  65  92 128 161 223 267 328 373
#     4  12  26  41  62  97 136 173 207 265 337 403
#
# _framework density 18.834064000000001
#
# number of rings (size 3 to 8) (size 9 to 14) (size 15 to 20)
#    0.000    1.143    4.286    1.714    4.000    4.000 
#    0.000    0.000    0.000    0.857    3.714    0.000 
#    0.000    0.000    0.000    0.000    0.000    0.000 
#
# Total GULP energy -156272.867398 kJ/mol
# GULP energy per Si atom -5581.173836 kJ/mol
# Density = 1.879120 g / cm^3
# Si number density = 18.834064 Si / 1000 Ang^3
#
#
#
# Elastic Constant Matrix: (Units=GPa)
#
#
# Indices 1 2 3 4 5 6 
#
# 1 64.4919 21.8603 30.5627 0.0000 3.0864 0.0000
# 2 21.8603 92.4860 39.6287 0.0000 -2.8733 0.0000
# 3 30.5627 39.6287 106.9353 0.0000 -4.7654 0.0000
# 4 0.0000 0.0000 0.0000 22.2864 0.0000 -6.9307
# 5 3.0864 -2.8733 -4.7654 0.0000 34.3363 0.0000
# 6 0.0000 0.0000 0.0000 -6.9307 0.0000 7.8816
#
#
#
# Elastic Compliance Matrix: (Units=1/GPa)
#
#
# Indices 1 2 3 4 5 6 
#
# 1 0.018618 -0.002557 -0.004486 0.000000 -0.002510 0.000000
# 2 -0.002557 0.013210 -0.004131 0.000000 0.000762 0.000000
# 3 -0.004486 -0.004131 0.012243 0.000000 0.001757 0.000000
# 4 0.000000 0.000000 0.000000 0.061759 0.000000 0.054308
# 5 -0.002510 0.000762 0.001757 0.000000 0.029657 0.000000
# 6 0.000000 0.000000 0.000000 0.054308 0.000000 0.174634
#
#
# Mechanical properties :
#
#
# Convention : Reuss Voigt Hill
#
# Bulk Modulus (GPa) = 46.03001 49.77959 47.90480
# Shear Modulus (GPa) = 14.71845 24.35830 19.53838
#
# Velocity S-wave (km/s) = 2.79853 3.60016 3.22436
# Velocity P-wave (km/s) = 5.91060 6.61586 6.27315
#
# Compressibility (1/GPa) = 0.02172496
#
# Stress axis : x y z
#
# Youngs Moduli (GPa) = 53.71066 75.69759 81.68195
#
# Poissons Ratio (x) = 0.19353 0.36639
# Poissons Ratio (y) = 0.13732 0.33742
# Poissons Ratio (z) = 0.24092 0.31270
#
# Static dielectric constant tensor:
#      x y z
#    x 1.510150 0.000000 -0.278570 
#    y 0.000000 1.661240 0.000000 
#    z -0.278570 0.000000 1.342440 
# 
# From -- ./inp_files/228537.got.cif
#   From: 2010.05.17/outbox.cif.g08.bks.cpg/sg15_115_cif.got.tgz:228537.got - 2010.06.03 18:47:42.
