data_PCOD9279400
_publ_section_title
;
Structure prediction by ZEFSAII (Michael W. Deem and Ramdas Pophale) SiO2 
 PCOD9279400
Probable space group: C 2/C
;
_chemical_formula_sum "Si O2"
_cell_formula_units_Z 36
_cell_length_a 13.651425
_cell_length_b 18.949709
_cell_length_c 8.479855
_cell_angle_alpha 90.000000
_cell_angle_beta 49.029869
_cell_angle_gamma 90.000000
_cell_volume 1656.324887
_symmetry_space_group_name_H-M "C 2/C"
_symmetry_group_IT_number 15
_symmetry_cell_setting 'monoclinic'
loop_
_space_group_symop_operation_xyz
x,y,z
-x,y,1/2-z
-x,-y,-z
x,-y,1/2+z
1/2+x,1/2+y,z
1/2-x,1/2+y,1/2-z
1/2-x,1/2-y,-z
1/2+x,1/2-y,1/2+z
loop_
_atom_site_type_symbol
_atom_site_label
_atom_site_fract_x
_atom_site_fract_y
_atom_site_fract_z
Si Si1 0.500000 0.024983 0.750000
Si Si2 0.282819 0.321626 0.308495
Si Si3 0.045204 0.401480 0.489203
Si Si4 0.241909 0.344024 0.688090
Si Si5 0.646662 0.313690 0.602629
O O1 0.419918 0.076542 0.724030
O O2 0.576898 0.970610 0.558775
O O3 0.128089 0.336259 0.459459
O O4 0.317612 0.354164 0.442021
O O5 0.303941 0.237935 0.279480
O O6 0.337105 0.350971 0.085555
O O7 0.891651 0.387726 0.660197
O O8 0.323900 0.352598 0.762356
O O9 0.500000 0.285481 0.750000
O O10 0.750000 0.250000 0.500000
#
# Coordination Sequence:
#
# PCOD9279400 Si02
#       5
#     4   8   8   8   8
#     4  10  22  34  66  84 140 164 216 280 306 360
#     4  10  21  35  59  86 130 163 198 263 319 385
#     4  11  20  40  58 102 124 169 218 264 325 371
#     4  10  21  35  59  86 130 163 198 263 319 385
#     4  10  23  36  53  85 123 169 206 244 312 383
#
# _framework density 21.734866
#
# number of rings (size 3 to 8) (size 9 to 14) (size 15 to 20)
#    0.000    1.778    2.222    1.333   12.444    0.889 
#    0.000    0.000    0.000    0.000    0.000   24.889 
#    0.000    0.000    0.000    0.000    0.000    0.000 
#
# Total GULP energy -100228.761293 kJ/mol
# GULP energy per Si atom -5568.264516 kJ/mol
# Density = 2.168540 g / cm^3
# Si number density = 21.734866 Si / 1000 Ang^3
#
#
#
# Elastic Constant Matrix: (Units=GPa)
#
#
# Indices 1 2 3 4 5 6 
#
# 1 121.2971 21.8745 77.8360 0.0000 29.9193 0.0000
# 2 21.8745 55.7661 6.7565 0.0000 -0.5982 0.0000
# 3 77.8360 6.7565 105.9268 0.0000 33.5182 0.0000
# 4 0.0000 0.0000 0.0000 0.7953 0.0000 12.6391
# 5 29.9193 -0.5982 33.5182 0.0000 62.9829 0.0000
# 6 0.0000 0.0000 0.0000 12.6391 0.0000 25.5665
#
#
#
# Elastic Compliance Matrix: (Units=1/GPa)
#
#
# Indices 1 2 3 4 5 6 
#
# 1 0.017177 -0.005349 -0.011643 0.000000 -0.002014 0.000000
# 2 -0.005349 0.019784 0.002170 0.000000 0.001574 0.000000
# 3 -0.011643 0.002170 0.019361 0.000000 -0.004752 0.000000
# 4 0.000000 0.000000 0.000000 -0.183384 0.000000 0.090658
# 5 -0.002014 0.001574 -0.004752 0.000000 0.019378 0.000000
# 6 0.000000 0.000000 0.000000 0.090658 0.000000 -0.005704
#
#
# Mechanical properties :
#
#
# Convention : Reuss Voigt Hill
#
# Bulk Modulus (GPa) = 37.48245 55.10265 46.29255
# Shear Modulus (GPa) = -66.79951 29.63714 -18.58118
#
# Velocity S-wave (km/s) = -5.54982 3.69667 -2.92704
# Velocity P-wave (km/s) = 4.87695 6.60513 3.14985
#
# Compressibility (1/GPa) = 0.02667915
#
# Stress axis : x y z
#
# Youngs Moduli (GPa) = 58.21668 50.54586 51.64899
#
# Poissons Ratio (x) = 0.27036 0.60137
# Poissons Ratio (y) = 0.31139 -0.11210
# Poissons Ratio (z) = 0.67784 -0.10971
#
# Static dielectric constant tensor:
#      x y z
#    x 1.850340 0.000000 0.103730 
#    y 0.000000 1.747810 0.000000 
#    z 0.103730 0.000000 1.896790 
# 
# From -- ./inp_files/30557.got.cif
#   From: 2010.05.17/outbox.cif.g08.bks.cpg/sg15_16_cif.got.tgz:30557.got - 2010.06.03 18:47:42.
