data_PCOD9279566
_publ_section_title
;
Structure prediction by ZEFSAII (Michael W. Deem and Ramdas Pophale) SiO2 
 PCOD9279566
Probable space group: C 2/C
;
_chemical_formula_sum "Si O2"
_cell_formula_units_Z 48
_cell_length_a 28.496577
_cell_length_b 6.777073
_cell_length_c 9.646131
_cell_angle_alpha 90.000000
_cell_angle_beta 88.425657
_cell_angle_gamma 90.000000
_cell_volume 1862.190239
_symmetry_space_group_name_H-M "C 2/C"
_symmetry_group_IT_number 15
_symmetry_cell_setting 'monoclinic'
loop_
_space_group_symop_operation_xyz
x,y,z
-x,y,1/2-z
-x,-y,-z
x,-y,1/2+z
1/2+x,1/2+y,z
1/2-x,1/2+y,1/2-z
1/2-x,1/2-y,-z
1/2+x,1/2-y,1/2+z
loop_
_atom_site_type_symbol
_atom_site_label
_atom_site_fract_x
_atom_site_fract_y
_atom_site_fract_z
Si Si1 0.794862 0.558078 0.111879
Si Si2 0.693955 0.268509 0.678928
Si Si3 0.593373 0.695731 0.204301
Si Si4 0.044096 0.258069 0.931095
Si Si5 0.942702 0.725910 0.511383
Si Si6 0.120878 0.334733 0.712358
O O1 0.741020 0.613027 0.143104
O O2 0.800667 0.338989 0.172928
O O3 0.830481 0.679369 0.209169
O O4 0.807601 0.611901 0.951830
O O5 0.645785 0.391285 0.688766
O O6 0.562069 0.666635 0.342092
O O7 0.607281 0.930873 0.211450
O O8 0.564630 0.660998 0.068135
O O9 0.048245 0.494597 0.957805
O O10 0.080658 0.230042 0.805569
O O11 0.989161 0.214709 0.923015
O O12 0.892281 0.734111 0.440333
#
# Coordination Sequence:
#
# PCOD9279566 Si02
#       6
#     8   8   8   8   8   8
#     4  10  21  36  53  74 101 133 169 208 251 297
#     4  10  21  36  53  74 101 133 169 208 251 297
#     4   9  16  26  40  62  91 127 157 195 242 287
#     4   9  14  24  37  58  89 127 157 191 234 291
#     4   9  16  22  37  60  91 123 161 191 230 297
#     4   9  16  26  40  62  91 127 157 195 242 287
#
# _framework density 25.7761
#
# number of rings (size 3 to 8) (size 9 to 14) (size 15 to 20)
#    0.000    2.667    1.667    1.000    7.000    4.667 
#    0.000    0.000    0.000    0.000    0.000    0.000 
#    0.000    8.000    0.000    0.000    0.000    0.000 
#
# Total GULP energy -134158.632946 kJ/mol
# GULP energy per Si atom -5589.943039 kJ/mol
# Density = 2.571743 g / cm^3
# Si number density = 25.776100 Si / 1000 Ang^3
#
#
#
# Elastic Constant Matrix: (Units=GPa)
#
#
# Indices 1 2 3 4 5 6 
#
# 1 161.6285 -5.7890 32.8135 0.0000 -10.5885 0.0000
# 2 -5.7890 71.2248 -23.4656 0.0000 5.5075 0.0000
# 3 32.8135 -23.4656 90.9308 0.0000 -3.8638 0.0000
# 4 0.0000 0.0000 0.0000 17.1341 0.0000 6.0876
# 5 -10.5885 5.5075 -3.8638 0.0000 46.4953 0.0000
# 6 0.0000 0.0000 0.0000 6.0876 0.0000 30.4699
#
#
#
# Elastic Compliance Matrix: (Units=1/GPa)
#
#
# Indices 1 2 3 4 5 6 
#
# 1 0.006767 -0.000374 -0.002480 0.000000 0.001379 0.000000
# 2 -0.000374 0.015469 0.004060 0.000000 -0.001580 0.000000
# 3 -0.002480 0.004060 0.012941 0.000000 0.000030 0.000000
# 4 0.000000 0.000000 0.000000 0.062823 0.000000 -0.012551
# 5 0.001379 -0.001580 0.000030 0.000000 0.022011 0.000000
# 6 0.000000 0.000000 0.000000 -0.012551 0.000000 0.035327
#
#
# Mechanical properties :
#
#
# Convention : Reuss Voigt Hill
#
# Bulk Modulus (GPa) = 26.60259 36.76686 31.68473
# Shear Modulus (GPa) = 30.21936 40.16819 35.19378
#
# Velocity S-wave (km/s) = 3.42772 3.95188 3.69909
# Velocity P-wave (km/s) = 5.09987 5.92605 5.52841
#
# Compressibility (1/GPa) = 0.03759032
#
# Stress axis : x y z
#
# Youngs Moduli (GPa) = 147.76553 64.64386 77.27255
#
# Poissons Ratio (x) = 0.02415 0.19163
# Poissons Ratio (y) = 0.05521 -0.31370
# Poissons Ratio (z) = 0.36645 -0.26244
#
# Static dielectric constant tensor:
#      x y z
#    x 1.960650 0.000000 -0.008730 
#    y 0.000000 2.222690 0.000000 
#    z -0.008730 0.000000 1.958670 
# 
# From -- ./inp_files/32008.got.cif
#   From: 2010.05.17/outbox.cif.g08.bks.cpg/sg15_17_cif.got.tgz:32008.got - 2010.06.03 18:47:42.
