data_PCOD9279883
_publ_section_title
;
Structure prediction by ZEFSAII (Michael W. Deem and Ramdas Pophale) SiO2 
 PCOD9279883
Probable space group: C 2/C
;
_chemical_formula_sum "Si O2"
_cell_formula_units_Z 60
_cell_length_a 11.970400
_cell_length_b 24.578104
_cell_length_c 21.199213
_cell_angle_alpha 90.000000
_cell_angle_beta 149.671902
_cell_angle_gamma 90.000000
_cell_volume 3149.386733
_symmetry_space_group_name_H-M "C 2/C"
_symmetry_group_IT_number 15
_symmetry_cell_setting 'monoclinic'
loop_
_space_group_symop_operation_xyz
x,y,z
-x,y,1/2-z
-x,-y,-z
x,-y,1/2+z
1/2+x,1/2+y,z
1/2-x,1/2+y,1/2-z
1/2-x,1/2-y,-z
1/2+x,1/2-y,1/2+z
loop_
_atom_site_type_symbol
_atom_site_label
_atom_site_fract_x
_atom_site_fract_y
_atom_site_fract_z
Si Si1 0.885695 0.602502 0.825366
Si Si2 0.284771 0.793825 0.186080
Si Si3 0.460994 0.787995 0.595988
Si Si4 0.919216 0.939374 0.085489
Si Si5 0.751240 0.869857 0.106684
Si Si6 0.500000 0.155024 0.250000
Si Si7 0.464019 0.622108 0.492653
Si Si8 0.698893 0.034320 0.897025
O O1 0.849888 0.655120 0.763016
O O2 0.682783 0.558654 0.723646
O O3 0.886135 0.621744 0.896980
O O4 0.095388 0.572249 0.900367
O O5 0.500000 0.778208 0.250000
O O6 0.168703 0.746529 0.169928
O O7 0.097904 0.821948 0.049956
O O8 0.250000 0.750000 0.500000
O O9 0.386458 0.831941 0.507367
O O10 0.491581 0.810393 0.681678
O O11 0.800481 0.926020 0.092966
O O12 0.908871 0.883713 0.039930
O O13 0.809345 0.984257 0.987626
O O14 0.000000 0.850085 0.250000
O O15 0.721771 0.120550 0.346100
O O16 0.617924 0.571781 0.547997
O O17 0.500000 0.021746 0.750000
#
# Coordination Sequence:
#
# PCOD9279883 Si02
#       8
#     8   8   8   8   8   4   8   8
#     4  10  21  40  64  84 128 168 208 263 313 381
#     4  11  21  42  65  93 130 167 220 263 318 393
#     4  12  24  40  66  97 125 170 218 263 331 381
#     4  10  21  36  60  96 119 163 210 260 313 374
#     4  10  22  42  64  90 130 168 213 264 320 380
#     4  12  26  40  66  96 130 160 210 282 310 382
#     4  11  21  41  60  93 129 158 208 267 321 363
#     4  12  22  37  67  94 125 171 214 259 326 384
#
# _framework density 19.051328000000002
#
# number of rings (size 3 to 8) (size 9 to 14) (size 15 to 20)
#    0.000    1.067    6.667    2.000    3.733    0.533 
#    2.400    1.333    0.000    0.000    0.000    0.000 
#    0.000    0.000    0.000    0.000    0.000    0.000 
#
# Total GULP energy -167112.987017 kJ/mol
# GULP energy per Si atom -5570.432901 kJ/mol
# Density = 1.900797 g / cm^3
# Si number density = 19.051328 Si / 1000 Ang^3
#
#
#
# Elastic Constant Matrix: (Units=GPa)
#
#
# Indices 1 2 3 4 5 6 
#
# 1 151.9579 47.8639 49.4515 0.0004 7.1519 -0.0004
# 2 47.8639 66.0841 43.0422 0.0019 6.7742 0.0024
# 3 49.4515 43.0422 93.9366 0.0065 3.9630 0.0068
# 4 0.0004 0.0019 0.0065 27.5077 0.0011 6.8378
# 5 7.1519 6.7742 3.9630 0.0011 31.4963 0.0004
# 6 -0.0004 0.0024 0.0068 6.8378 0.0004 23.0565
#
#
#
# Elastic Compliance Matrix: (Units=1/GPa)
#
#
# Indices 1 2 3 4 5 6 
#
# 1 0.008925 -0.004779 -0.002480 0.000001 -0.000687 0.000001
# 2 -0.004779 0.024500 -0.008579 0.000001 -0.003105 0.000000
# 3 -0.002480 -0.008579 0.015865 -0.000002 0.000412 -0.000003
# 4 0.000001 0.000001 -0.000002 0.039247 -0.000001 -0.011639
# 5 -0.000687 -0.003105 0.000412 -0.000001 0.032522 0.000000
# 6 0.000001 0.000000 -0.000003 -0.011639 0.000000 0.046824
#
#
# Mechanical properties :
#
#
# Convention : Reuss Voigt Hill
#
# Bulk Modulus (GPa) = 56.77386 65.85484 61.31435
# Shear Modulus (GPa) = 24.33938 27.85352 26.09645
#
# Velocity S-wave (km/s) = 3.57819 3.82779 3.70509
# Velocity P-wave (km/s) = 6.85101 7.36058 7.11036
#
# Compressibility (1/GPa) = 0.01761374
#
# Stress axis : x y z
#
# Youngs Moduli (GPa) = 112.03969 40.81709 63.03353
#
# Poissons Ratio (x) = 0.19506 0.15632
# Poissons Ratio (y) = 0.53543 0.54077
# Poissons Ratio (z) = 0.27785 0.35017
#
# Static dielectric constant tensor:
#      x y z
#    x 1.638120 0.000000 0.040410 
#    y 0.000000 1.683370 0.000000 
#    z 0.040410 0.000000 1.675480 
# 
# From -- ./inp_files/240870.got.cif
#   From: 2010.05.17/outbox.cif.g08.bks.cpg/sg15_121_cif.got.tgz:240870.got - 2010.06.03 18:47:42.
