data_PCOD9279349
_publ_section_title
;
Structure prediction by ZEFSAII (Michael W. Deem and Ramdas Pophale) SiO2 
 PCOD9279349
Probable space group: C 2/C
;
_chemical_formula_sum "Si O2"
_cell_formula_units_Z 56
_cell_length_a 11.682844
_cell_length_b 14.581720
_cell_length_c 29.074209
_cell_angle_alpha 90.000000
_cell_angle_beta 139.011828
_cell_angle_gamma 90.000000
_cell_volume 3248.665525
_symmetry_space_group_name_H-M "C 2/C"
_symmetry_group_IT_number 15
_symmetry_cell_setting 'monoclinic'
loop_
_space_group_symop_operation_xyz
x,y,z
-x,y,1/2-z
-x,-y,-z
x,-y,1/2+z
1/2+x,1/2+y,z
1/2-x,1/2+y,1/2-z
1/2-x,1/2-y,-z
1/2+x,1/2-y,1/2+z
loop_
_atom_site_type_symbol
_atom_site_label
_atom_site_fract_x
_atom_site_fract_y
_atom_site_fract_z
Si Si1 0.985945 0.518051 0.050205
Si Si2 0.790843 0.648337 0.845203
Si Si3 0.586498 0.658573 0.999447
Si Si4 0.061478 0.200161 0.446339
Si Si5 0.523947 0.805902 0.899803
Si Si6 0.466964 0.648104 0.816497
Si Si7 0.928591 0.010389 0.572206
O O1 0.059952 0.608850 0.098134
O O2 0.077841 0.433274 0.102544
O O3 0.778754 0.526198 0.992324
O O4 0.000000 0.500000 0.000000
O O5 0.648521 0.657212 0.843131
O O6 0.682922 0.630997 0.766144
O O7 0.911484 0.737443 0.878820
O O8 0.488076 0.688504 0.015148
O O9 0.796428 0.658625 0.069546
O O10 0.563247 0.733763 0.952392
O O11 0.511944 0.563895 0.955825
O O12 0.250000 0.250000 0.500000
O O13 0.051062 0.098373 0.422005
O O14 0.431860 0.742602 0.833653
O O15 0.492446 0.565175 0.860512
#
# Coordination Sequence:
#
# PCOD9279349 Si02
#       7
#     8   8   8   8   8   8   8
#     4  11  19  33  57  90 113 142 189 245 283 331
#     4  11  22  36  57  82 119 145 199 238 277 349
#     4   9  18  34  54  86 108 141 191 229 277 336
#     4  12  22  34  56  88 118 145 179 243 290 335
#     4   9  18  33  60  78 111 146 189 236 275 335
#     4  10  21  39  57  81 109 160 192 236 283 337
#     4  10  21  35  58  81 115 150 185 233 288 339
#
# _framework density 17.237846999999999
#
# number of rings (size 3 to 8) (size 9 to 14) (size 15 to 20)
#    0.000    1.714    4.286    2.143    0.000    1.143 
#    0.000    0.000    0.000    3.429    0.000    0.000 
#    0.000    0.000    0.000    0.000    0.000    0.000 
#
# Total GULP energy -155915.472740 kJ/mol
# GULP energy per Si atom -5568.409741 kJ/mol
# Density = 1.719861 g / cm^3
# Si number density = 17.237847 Si / 1000 Ang^3
#
#
#
# Elastic Constant Matrix: (Units=GPa)
#
#
# Indices 1 2 3 4 5 6 
#
# 1 73.2577 20.7486 32.1772 0.0000 -13.5043 0.0000
# 2 20.7486 129.1889 46.7285 0.0000 -13.5095 0.0000
# 3 32.1772 46.7285 99.2965 0.0000 -14.7446 0.0000
# 4 0.0000 0.0000 0.0000 26.2720 0.0000 -4.2252
# 5 -13.5043 -13.5095 -14.7446 0.0000 20.3893 0.0000
# 6 0.0000 0.0000 0.0000 -4.2252 0.0000 26.1389
#
#
#
# Elastic Compliance Matrix: (Units=1/GPa)
#
#
# Indices 1 2 3 4 5 6 
#
# 1 0.017068 -0.000400 -0.004149 0.000000 0.008039 0.000000
# 2 -0.000400 0.009549 -0.003881 0.000000 0.003256 0.000000
# 3 -0.004149 -0.003881 0.013950 0.000000 0.004768 0.000000
# 4 0.000000 0.000000 0.000000 0.039079 0.000000 0.006317
# 5 0.008039 0.003256 0.004768 0.000000 0.059975 0.000000
# 6 0.000000 0.000000 0.000000 0.006317 0.000000 0.039278
#
#
# Mechanical properties :
#
#
# Convention : Reuss Voigt Hill
#
# Bulk Modulus (GPa) = 42.18061 55.67242 48.92651
# Shear Modulus (GPa) = 24.55059 28.03264 26.29162
#
# Velocity S-wave (km/s) = 3.77799 4.03702 3.90965
# Velocity P-wave (km/s) = 6.59953 7.35505 6.98751
#
# Compressibility (1/GPa) = 0.02370758
#
# Stress axis : x y z
#
# Youngs Moduli (GPa) = 58.58910 104.72359 71.68643
#
# Poissons Ratio (x) = 0.04187 0.29743
# Poissons Ratio (y) = 0.02343 0.27819
# Poissons Ratio (z) = 0.24309 0.40640
#
# Static dielectric constant tensor:
#      x y z
#    x 1.608630 0.000000 -0.013700 
#    y 0.000000 1.640350 0.000000 
#    z -0.013700 0.000000 1.560230 
# 
# From -- ./inp_files/292911.got.cif
#   From: 2010.05.17/outbox.cif.g08.bks.cpg/sg15_147_cif.got.tgz:292911.got - 2010.06.03 18:47:42.
