data_PCOD9279119
_publ_section_title
;
Structure prediction by ZEFSAII (Michael W. Deem and Ramdas Pophale) SiO2 
 PCOD9279119
Probable space group: C 2/C
;
_chemical_formula_sum "Si O2"
_cell_formula_units_Z 52
_cell_length_a 9.734302
_cell_length_b 17.872194
_cell_length_c 21.524645
_cell_angle_alpha 90.000000
_cell_angle_beta 146.584285
_cell_angle_gamma 90.000000
_cell_volume 2062.250462
_symmetry_space_group_name_H-M "C 2/C"
_symmetry_group_IT_number 15
_symmetry_cell_setting 'monoclinic'
loop_
_space_group_symop_operation_xyz
x,y,z
-x,y,1/2-z
-x,-y,-z
x,-y,1/2+z
1/2+x,1/2+y,z
1/2-x,1/2+y,1/2-z
1/2-x,1/2-y,-z
1/2+x,1/2-y,1/2+z
loop_
_atom_site_type_symbol
_atom_site_label
_atom_site_fract_x
_atom_site_fract_y
_atom_site_fract_z
Si Si1 0.940794 0.342748 0.838230
Si Si2 0.926221 0.054143 0.873610
Si Si3 0.753014 0.681536 0.778490
Si Si4 0.044216 0.674901 0.509790
Si Si5 0.500000 0.059801 0.250000
Si Si6 0.920488 0.908380 0.613233
Si Si7 0.675072 0.663919 0.551462
O O1 0.872007 0.258872 0.790779
O O2 0.109964 0.342521 0.963481
O O3 0.675081 0.386640 0.745825
O O4 0.079934 0.385886 0.835687
O O5 0.885999 0.110386 0.802070
O O6 0.893487 0.100959 0.924393
O O7 0.702732 0.994369 0.797590
O O8 0.130648 0.992726 0.930874
O O9 0.029749 0.675026 0.851289
O O10 0.782902 0.676305 0.864105
O O11 0.820102 0.618911 0.441317
O O12 0.929096 0.757918 0.464386
O O13 0.937097 0.857416 0.557540
#
# Coordination Sequence:
#
# PCOD9279119 Si02
#       7
#     8   8   8   8   4   8   8
#     4  11  21  39  64  84 125 160 207 249 305 369
#     4  11  21  37  63  88 126 163 206 248 307 371
#     4  11  20  36  63  93 121 159 210 252 297 367
#     4  11  21  36  64  97 120 154 208 264 306 350
#     4  10  24  40  58  86 118 174 198 240 314 376
#     4  10  21  34  57  95 124 153 200 263 310 355
#     4  11  18  34  61  98 119 154 209 260 297 360
#
# _framework density 25.215171000000002
#
# number of rings (size 3 to 8) (size 9 to 14) (size 15 to 20)
#    0.000    1.231    6.154    1.846    0.000    0.000 
#    0.000    3.846   10.154    0.000    0.000    0.000 
#    0.000    0.000    0.000    0.000    0.000    0.000 
#
# Total GULP energy -145609.538400 kJ/mol
# GULP energy per Si atom -5600.366862 kJ/mol
# Density = 2.515778 g / cm^3
# Si number density = 25.215171 Si / 1000 Ang^3
#
#
#
# Elastic Constant Matrix: (Units=GPa)
#
#
# Indices 1 2 3 4 5 6 
#
# 1 94.8625 54.2093 60.0738 -0.0001 -30.8137 0.0009
# 2 54.2093 146.3016 35.6587 0.0004 -14.3924 0.0007
# 3 60.0738 35.6587 129.6004 -0.0002 -28.4818 0.0008
# 4 -0.0001 0.0004 -0.0002 30.1528 -0.0001 -19.8446
# 5 -30.8137 -14.3924 -28.4818 -0.0001 52.6934 0.0015
# 6 0.0009 0.0007 0.0008 -19.8446 0.0015 37.9218
#
#
#
# Elastic Compliance Matrix: (Units=1/GPa)
#
#
# Indices 1 2 3 4 5 6 
#
# 1 0.019531 -0.005070 -0.006188 0.000000 0.006692 -0.000001
# 2 -0.005070 0.008693 -0.000194 0.000000 -0.000696 0.000000
# 3 -0.006188 -0.000194 0.011156 0.000000 0.002359 0.000000
# 4 0.000000 0.000000 0.000000 0.050586 -0.000001 0.026472
# 5 0.006692 -0.000696 0.002359 -0.000001 0.023976 -0.000002
# 6 -0.000001 0.000000 0.000000 0.026472 -0.000002 0.040223
#
#
# Mechanical properties :
#
#
# Convention : Reuss Voigt Hill
#
# Bulk Modulus (GPa) = 60.69715 74.51644 67.60680
# Shear Modulus (GPa) = 27.38799 38.87513 33.13156
#
# Velocity S-wave (km/s) = 3.29929 3.93075 3.62878
# Velocity P-wave (km/s) = 6.21592 7.08643 6.66540
#
# Compressibility (1/GPa) = 0.01647524
#
# Stress axis : x y z
#
# Youngs Moduli (GPa) = 51.20005 115.03654 89.63804
#
# Poissons Ratio (x) = 0.58329 0.55464
# Poissons Ratio (y) = 0.25961 0.01742
# Poissons Ratio (z) = 0.31680 0.02236
#
# Static dielectric constant tensor:
#      x y z
#    x 2.264140 0.000000 -0.014280 
#    y 0.000000 1.928250 0.000000 
#    z -0.014280 0.000000 2.050570 
# 
# From -- ./inp_files/145051.got.cif
#   From: 2010.05.17/outbox.cif.g08.bks.cpg/sg15_73_cif.got.tgz:145051.got - 2010.06.03 18:47:42.
