data_PCOD9279458
_publ_section_title
;
Structure prediction by ZEFSAII (Michael W. Deem and Ramdas Pophale) SiO2 
 PCOD9279458
Probable space group: C 2/C
;
_chemical_formula_sum "Si O2"
_cell_formula_units_Z 56
_cell_length_a 21.131029
_cell_length_b 22.086763
_cell_length_c 7.709374
_cell_angle_alpha 90.000000
_cell_angle_beta 51.262321
_cell_angle_gamma 90.000000
_cell_volume 2806.577567
_symmetry_space_group_name_H-M "C 2/C"
_symmetry_group_IT_number 15
_symmetry_cell_setting 'monoclinic'
loop_
_space_group_symop_operation_xyz
x,y,z
-x,y,1/2-z
-x,-y,-z
x,-y,1/2+z
1/2+x,1/2+y,z
1/2-x,1/2+y,1/2-z
1/2-x,1/2-y,-z
1/2+x,1/2-y,1/2+z
loop_
_atom_site_type_symbol
_atom_site_label
_atom_site_fract_x
_atom_site_fract_y
_atom_site_fract_z
Si Si1 0.918588 0.059200 0.989169
Si Si2 0.120615 0.139476 0.137771
Si Si3 0.500000 0.256724 0.750000
Si Si4 0.338031 0.437943 0.271665
Si Si5 0.294926 0.100962 0.959875
Si Si6 0.968530 0.642135 0.629824
Si Si7 0.000000 0.558601 0.250000
Si Si8 0.322529 0.014066 0.585863
O O1 0.864793 0.081107 0.917819
O O2 0.000000 0.039767 0.750000
O O3 0.932465 0.107364 0.119232
O O4 0.876179 0.003685 0.160659
O O5 0.076775 0.201463 0.161416
O O6 0.129964 0.103267 0.940920
O O7 0.210871 0.134985 0.067000
O O8 0.507768 0.208837 0.577662
O O9 0.242096 0.448027 0.417563
O O10 0.371349 0.145116 0.814198
O O11 0.309337 0.048763 0.789906
O O12 0.299513 0.056869 0.118268
O O13 0.991682 0.602505 0.428305
O O14 0.000000 0.610235 0.750000
O O15 0.916517 0.521894 0.376093
#
# Coordination Sequence:
#
# PCOD9279458 Si02
#       8
#     8   8   4   8   8   8   4   8
#     4  12  22  33  57  87 120 163 194 229 297 359
#     4  11  23  40  58  86 122 156 194 250 287 346
#     4  10  24  45  60  80 113 158 218 250 280 330
#     4  11  21  37  55  88 129 155 185 237 294 365
#     4  10  21  36  63  88 126 153 188 235 304 360
#     4   9  23  42  61  86 115 157 206 249 290 336
#     4  10  22  39  66  88 123 150 188 252 304 354
#     4  10  21  35  60  97 125 150 186 230 308 380
#
# _framework density 19.953126999999999
#
# number of rings (size 3 to 8) (size 9 to 14) (size 15 to 20)
#    0.429    1.143    2.857    2.143    4.000    1.714 
#    3.857    0.000    0.000    2.571    0.000    0.000 
#    0.000    0.000    0.000    0.000    0.000    0.000 
#
# Total GULP energy -156066.174551 kJ/mol
# GULP energy per Si atom -5573.791948 kJ/mol
# Density = 1.990771 g / cm^3
# Si number density = 19.953127 Si / 1000 Ang^3
#
#
#
# Elastic Constant Matrix: (Units=GPa)
#
#
# Indices 1 2 3 4 5 6 
#
# 1 116.9612 47.1217 51.0786 0.0000 -3.6260 0.0000
# 2 47.1217 84.7328 25.9402 0.0000 2.0696 0.0000
# 3 51.0786 25.9402 82.7887 0.0000 -5.0661 0.0000
# 4 0.0000 0.0000 0.0000 12.1905 0.0000 -2.6028
# 5 -3.6260 2.0696 -5.0661 0.0000 42.8344 0.0000
# 6 0.0000 0.0000 0.0000 -2.6028 0.0000 36.0591
#
#
#
# Elastic Compliance Matrix: (Units=1/GPa)
#
#
# Indices 1 2 3 4 5 6 
#
# 1 0.013753 -0.005617 -0.006685 0.000000 0.000645 0.000000
# 2 -0.005617 0.015402 -0.001445 0.000000 -0.001391 0.000000
# 3 -0.006685 -0.001445 0.016747 0.000000 0.001485 0.000000
# 4 0.000000 0.000000 0.000000 0.083315 0.000000 0.006014
# 5 0.000645 -0.001391 0.001485 0.000000 0.023643 0.000000
# 6 0.000000 0.000000 0.000000 0.006014 0.000000 0.028166
#
#
# Mechanical properties :
#
#
# Convention : Reuss Voigt Hill
#
# Bulk Modulus (GPa) = 54.33005 59.19596 56.76300
# Shear Modulus (GPa) = 23.29289 28.90629 26.09959
#
# Velocity S-wave (km/s) = 3.42040 3.81032 3.62061
# Velocity P-wave (km/s) = 6.54880 7.00642 6.78147
#
# Compressibility (1/GPa) = 0.01840602
#
# Stress axis : x y z
#
# Youngs Moduli (GPa) = 72.71390 64.92636 59.71056
#
# Poissons Ratio (x) = 0.36470 0.39919
# Poissons Ratio (y) = 0.40844 0.08631
# Poissons Ratio (z) = 0.48613 0.09384
#
# Static dielectric constant tensor:
#      x y z
#    x 1.788640 0.000000 0.012270 
#    y 0.000000 1.696540 0.000000 
#    z 0.012270 0.000000 1.774150 
# 
# From -- ./inp_files/58444.got.cif
#   From: 2010.05.17/outbox.cif.g08.bks.cpg/sg15_30_cif.got.tgz:58444.got - 2010.06.03 18:47:42.
