data_PCOD9279960
_publ_section_title
;
Structure prediction by ZEFSAII (Michael W. Deem and Ramdas Pophale) SiO2 
 PCOD9279960
Probable space group: C 2/C
;
_chemical_formula_sum "Si O2"
_cell_formula_units_Z 40
_cell_length_a 11.524753
_cell_length_b 13.058176
_cell_length_c 14.355879
_cell_angle_alpha 90.000000
_cell_angle_beta 119.191956
_cell_angle_gamma 90.000000
_cell_volume 1886.051214
_symmetry_space_group_name_H-M "C 2/C"
_symmetry_group_IT_number 15
_symmetry_cell_setting 'monoclinic'
loop_
_space_group_symop_operation_xyz
x,y,z
-x,y,1/2-z
-x,-y,-z
x,-y,1/2+z
1/2+x,1/2+y,z
1/2-x,1/2+y,1/2-z
1/2-x,1/2-y,-z
1/2+x,1/2-y,1/2+z
loop_
_atom_site_type_symbol
_atom_site_label
_atom_site_fract_x
_atom_site_fract_y
_atom_site_fract_z
Si Si1 0.479037 0.866429 0.391063
Si Si2 0.338689 0.059077 0.001472
Si Si3 0.196002 0.699683 0.853633
Si Si4 0.840734 0.075550 0.205744
Si Si5 0.845680 0.004140 0.417687
O O1 0.408906 0.855904 0.463836
O O2 0.379813 0.849308 0.266122
O O3 0.599431 0.793825 0.406046
O O4 0.546015 0.979625 0.420316
O O5 0.236690 0.001221 0.892141
O O6 0.245729 0.077783 0.053912
O O7 0.226828 0.814151 0.835950
O O8 0.300527 0.612724 0.917185
O O9 0.000000 0.083292 0.250000
O O10 0.824929 0.037617 0.304100
O O11 0.000000 0.000000 0.500000
#
# Coordination Sequence:
#
# PCOD9279960 Si02
#       5
#     8   8   8   8   8
#     4   9  18  37  59  84 114 155 200 247 296 353
#     4  10  21  36  62  87 120 160 199 254 305 358
#     4  10  21  38  64  88 121 158 209 253 295 377
#     4  12  22  37  63  92 121 166 209 248 308 368
#     4  11  23  38  61  94 128 160 203 254 317 364
#
# _framework density 21.208331000000001
#
# number of rings (size 3 to 8) (size 9 to 14) (size 15 to 20)
#    0.000    1.600    6.000    0.000    0.000    4.800 
#    0.000    1.000    0.000   14.400    0.000    0.000 
#    0.000    0.000    0.000    0.000    0.000    0.000 
#
# Total GULP energy -111587.596804 kJ/mol
# GULP energy per Si atom -5579.379840 kJ/mol
# Density = 2.116006 g / cm^3
# Si number density = 21.208331 Si / 1000 Ang^3
#
#
#
# Elastic Constant Matrix: (Units=GPa)
#
#
# Indices 1 2 3 4 5 6 
#
# 1 100.7046 22.7660 20.9004 0.0000 -22.6036 0.0000
# 2 22.7660 52.6321 16.8041 0.0000 -11.2086 0.0000
# 3 20.9004 16.8041 93.4394 0.0000 -22.2739 0.0000
# 4 0.0000 0.0000 0.0000 19.0199 0.0000 -7.0575
# 5 -22.6036 -11.2086 -22.2739 0.0000 47.4274 0.0000
# 6 0.0000 0.0000 0.0000 -7.0575 0.0000 8.9055
#
#
#
# Elastic Compliance Matrix: (Units=1/GPa)
#
#
# Indices 1 2 3 4 5 6 
#
# 1 0.011995 -0.003965 -0.000935 0.000000 0.004340 0.000000
# 2 -0.003965 0.021981 -0.002566 0.000000 0.002100 0.000000
# 3 -0.000935 -0.002566 0.012524 0.000000 0.004830 0.000000
# 4 0.000000 0.000000 0.000000 0.074477 0.000000 0.059022
# 5 0.004340 0.002100 0.004830 0.000000 0.025918 0.000000
# 6 0.000000 0.000000 0.000000 0.059022 0.000000 0.159064
#
#
# Mechanical properties :
#
#
# Convention : Reuss Voigt Hill
#
# Bulk Modulus (GPa) = 31.67778 40.85744 36.26761
# Shear Modulus (GPa) = 15.08687 27.49095 21.28891
#
# Velocity S-wave (km/s) = 2.67004 3.60423 3.17172
# Velocity P-wave (km/s) = 4.94716 6.05205 5.52728
#
# Compressibility (1/GPa) = 0.03156787
#
# Stress axis : x y z
#
# Youngs Moduli (GPa) = 83.36967 45.49303 79.84672
#
# Poissons Ratio (x) = 0.18040 0.07467
# Poissons Ratio (y) = 0.33060 0.20485
# Poissons Ratio (z) = 0.07797 0.11671
#
# Static dielectric constant tensor:
#      x y z
#    x 1.836340 0.000000 0.007650 
#    y 0.000000 1.750960 0.000000 
#    z 0.007650 0.000000 1.791880 
# 
# From -- ./inp_files/142352.got.cif
#   From: 2010.05.17/outbox.cif.g08.bks.cpg/sg15_72_cif.got.tgz:142352.got - 2010.06.03 18:47:42.
