data_PCOD9279623
_publ_section_title
;
Structure prediction by ZEFSAII (Michael W. Deem and Ramdas Pophale) SiO2 
 PCOD9279623
Probable space group: C 2/C
;
_chemical_formula_sum "Si O2"
_cell_formula_units_Z 56
_cell_length_a 13.860941
_cell_length_b 11.791023
_cell_length_c 24.000380
_cell_angle_alpha 90.000000
_cell_angle_beta 34.361841
_cell_angle_gamma 90.000000
_cell_volume 2213.923839
_symmetry_space_group_name_H-M "C 2/C"
_symmetry_group_IT_number 15
_symmetry_cell_setting 'monoclinic'
loop_
_space_group_symop_operation_xyz
x,y,z
-x,y,1/2-z
-x,-y,-z
x,-y,1/2+z
1/2+x,1/2+y,z
1/2-x,1/2+y,1/2-z
1/2-x,1/2-y,-z
1/2+x,1/2-y,1/2+z
loop_
_atom_site_type_symbol
_atom_site_label
_atom_site_fract_x
_atom_site_fract_y
_atom_site_fract_z
Si Si1 0.927527 0.370657 0.670098
Si Si2 0.044877 0.133378 0.853081
Si Si3 0.247822 0.415761 0.908154
Si Si4 0.351854 0.586500 0.050218
Si Si5 0.097226 0.651433 0.967126
Si Si6 0.870950 0.570613 0.770438
Si Si7 0.914597 0.102568 0.212473
O O1 0.990345 0.249758 0.662643
O O2 0.958844 0.494069 0.680463
O O3 0.720529 0.358110 0.768698
O O4 0.004082 0.361442 0.571666
O O5 0.209986 0.135004 0.817916
O O6 0.090219 0.033018 0.790827
O O7 0.884145 0.096457 0.968292
O O8 0.235957 0.551940 0.905253
O O9 0.385044 0.371863 0.887561
O O10 0.330458 0.370076 0.811541
O O11 0.052238 0.378173 0.005854
O O12 0.356228 0.718473 0.064654
O O13 0.196443 0.525585 0.154525
O O14 0.500000 0.500000 0.000000
O O15 0.000000 0.637490 0.750000
#
# Coordination Sequence:
#
# PCOD9279623 Si02
#       7
#     8   8   8   8   8   8   8
#     4   9  19  36  54  76 107 143 176 220 271 317
#     4   9  19  37  55  74 110 146 174 220 276 319
#     4   9  18  32  53  84 106 137 179 219 271 320
#     4   9  19  36  54  73 107 148 176 215 272 323
#     4   9  18  34  54  79 109 142 175 224 270 323
#     4  10  21  36  55  82 107 139 186 227 264 327
#     4   9  18  33  53  80 108 137 177 222 264 322
#
# _framework density 25.294457999999999
#
# number of rings (size 3 to 8) (size 9 to 14) (size 15 to 20)
#    0.000    2.857    0.000    0.000    2.000    2.286 
#   10.286    2.857    0.000    2.571    0.000    0.000 
#    0.000    0.000    0.000    0.000    0.000    0.000 
#
# Total GULP energy -155960.214095 kJ/mol
# GULP energy per Si atom -5570.007646 kJ/mol
# Density = 2.523689 g / cm^3
# Si number density = 25.294458 Si / 1000 Ang^3
#
#
#
# Elastic Constant Matrix: (Units=GPa)
#
#
# Indices 1 2 3 4 5 6 
#
# 1 61.7849 1.8963 20.8836 0.0000 -25.1248 0.0000
# 2 1.8963 121.8050 21.6261 0.0000 7.1674 0.0000
# 3 20.8836 21.6261 55.2751 -0.0003 -4.2379 0.0000
# 4 0.0000 0.0000 -0.0003 20.3136 0.0000 5.7068
# 5 -25.1248 7.1674 -4.2379 0.0000 34.1982 0.0000
# 6 0.0000 0.0000 0.0000 5.7068 0.0000 15.4569
#
#
#
# Elastic Compliance Matrix: (Units=1/GPa)
#
#
# Indices 1 2 3 4 5 6 
#
# 1 0.026625 0.000035 -0.008656 0.000000 0.018481 0.000000
# 2 0.000035 0.009005 -0.003715 0.000000 -0.002322 0.000000
# 3 -0.008656 -0.003715 0.022602 0.000000 -0.002780 0.000000
# 4 0.000000 0.000000 0.000000 0.054925 0.000000 -0.020279
# 5 0.018481 -0.002322 -0.002780 0.000000 0.042961 0.000000
# 6 0.000000 0.000000 0.000000 -0.020279 0.000000 0.072183
#
#
# Mechanical properties :
#
#
# Convention : Reuss Voigt Hill
#
# Bulk Modulus (GPa) = 29.79645 36.40858 33.10251
# Shear Modulus (GPa) = 18.92788 26.95767 22.94278
#
# Velocity S-wave (km/s) = 2.73848 3.26813 3.01496
# Velocity P-wave (km/s) = 4.66952 5.35407 5.02347
#
# Compressibility (1/GPa) = 0.03356104
#
# Stress axis : x y z
#
# Youngs Moduli (GPa) = 37.55828 111.04388 44.24413
#
# Poissons Ratio (x) = -0.00387 0.38298
# Poissons Ratio (y) = -0.00131 0.16435
# Poissons Ratio (z) = 0.32511 0.41248
#
# Static dielectric constant tensor:
#      x y z
#    x 2.141000 0.000000 -0.076560 
#    y 0.000000 2.002440 0.000000 
#    z -0.076560 0.000000 2.035670 
# 
# From -- ./inp_files/313725.got.cif
#   From: 2010.05.17/outbox.cif.g08.bks.cpg/sg15_157_cif.got.tgz:313725.got - 2010.06.03 18:47:42.
