data_PCOD9279653
_publ_section_title
;
Structure prediction by ZEFSAII (Michael W. Deem and Ramdas Pophale) SiO2 
 PCOD9279653
Probable space group: C 2/C
;
_chemical_formula_sum "Si O2"
_cell_formula_units_Z 48
_cell_length_a 12.939882
_cell_length_b 12.978514
_cell_length_c 17.070520
_cell_angle_alpha 90.000000
_cell_angle_beta 68.056277
_cell_angle_gamma 90.000000
_cell_volume 2659.132634
_symmetry_space_group_name_H-M "C 2/C"
_symmetry_group_IT_number 15
_symmetry_cell_setting 'monoclinic'
loop_
_space_group_symop_operation_xyz
x,y,z
-x,y,1/2-z
-x,-y,-z
x,-y,1/2+z
1/2+x,1/2+y,z
1/2-x,1/2+y,1/2-z
1/2-x,1/2-y,-z
1/2+x,1/2-y,1/2+z
loop_
_atom_site_type_symbol
_atom_site_label
_atom_site_fract_x
_atom_site_fract_y
_atom_site_fract_z
Si Si1 0.617498 0.131542 0.672341
Si Si2 0.213555 0.134325 0.497306
Si Si3 0.115071 0.457764 0.001154
Si Si4 0.706078 0.636661 0.161179
Si Si5 0.968202 0.960999 0.343409
Si Si6 0.796131 0.041092 0.169330
O O1 0.500000 0.126518 0.750000
O O2 0.599472 0.103548 0.586444
O O3 0.668020 0.245752 0.665501
O O4 0.703997 0.047673 0.682525
O O5 0.250000 0.250000 0.500000
O O6 0.104135 0.109136 0.578960
O O7 0.199230 0.109791 0.409799
O O8 0.307192 0.055716 0.501850
O O9 0.184508 0.388280 0.920564
O O10 0.000000 0.500000 0.000000
O O11 0.607334 0.561579 0.156572
O O12 0.726955 0.604860 0.245185
O O13 0.000000 0.913026 0.250000
O O14 0.082333 0.992056 0.352551
#
# Coordination Sequence:
#
# PCOD9279653 Si02
#       6
#     8   8   8   8   8   8
#     4  11  22  37  58  85 115 151 190 232 283 339
#     4  10  22  37  56  82 113 147 182 226 286 340
#     4  10  22  39  58  85 119 148 187 239 287 339
#     4  10  21  38  60  83 110 151 193 230 279 340
#     4   9  19  37  57  80 108 142 188 233 271 330
#     4  10  21  36  56  83 112 143 185 234 276 328
#
# _framework density 18.050999000000001
#
# number of rings (size 3 to 8) (size 9 to 14) (size 15 to 20)
#    0.000    2.000    0.000    3.500    0.000    8.000 
#    0.000    3.333    0.000    0.000    0.000    0.000 
#    0.000    0.000    0.000    0.000    0.000    0.000 
#
# Total GULP energy -134041.151853 kJ/mol
# GULP energy per Si atom -5585.047994 kJ/mol
# Density = 1.800991 g / cm^3
# Si number density = 18.050999 Si / 1000 Ang^3
#
#
#
# Elastic Constant Matrix: (Units=GPa)
#
#
# Indices 1 2 3 4 5 6 
#
# 1 136.0057 54.6181 105.6379 0.0000 2.0200 0.0000
# 2 54.6181 134.0320 110.8879 0.0000 4.3125 0.0000
# 3 105.6379 110.8879 207.8543 0.0000 -9.5371 0.0000
# 4 0.0000 0.0000 0.0000 11.2345 0.0000 0.4849
# 5 2.0200 4.3125 -9.5371 0.0000 33.9046 0.0000
# 6 0.0000 0.0000 0.0000 0.4849 0.0000 12.0043
#
#
#
# Elastic Compliance Matrix: (Units=1/GPa)
#
#
# Indices 1 2 3 4 5 6 
#
# 1 0.012388 0.000629 -0.006756 0.000000 -0.002719 0.000000
# 2 0.000629 0.013876 -0.007907 0.000000 -0.004027 0.000000
# 3 -0.006756 -0.007907 0.012692 0.000000 0.004978 0.000000
# 4 0.000000 0.000000 0.000000 0.089167 0.000000 -0.003601
# 5 -0.002719 -0.004027 0.004978 0.000000 0.031569 0.000000
# 6 0.000000 0.000000 0.000000 -0.003601 0.000000 0.083449
#
#
# Mechanical properties :
#
#
# Convention : Reuss Voigt Hill
#
# Bulk Modulus (GPa) = 91.85436 113.35333 102.60384
# Shear Modulus (GPa) = 18.19254 25.21190 21.70222
#
# Velocity S-wave (km/s) = 3.17810 3.74130 3.47114
# Velocity P-wave (km/s) = 8.02892 9.03303 8.54574
#
# Compressibility (1/GPa) = 0.01088680
#
# Stress axis : x y z
#
# Youngs Moduli (GPa) = 80.72206 72.06788 78.79257
#
# Poissons Ratio (x) = -0.04533 0.53235
# Poissons Ratio (y) = -0.05077 0.62301
# Poissons Ratio (z) = 0.54539 0.56984
#
# Static dielectric constant tensor:
#      x y z
#    x 1.598070 0.000000 0.002700 
#    y 0.000000 1.578080 0.000000 
#    z 0.002700 0.000000 1.625180 
# 
# From -- ./inp_files/196494.got.cif
#   From: 2010.05.17/outbox.cif.g08.bks.cpg/sg15_99_cif.got.tgz:196494.got - 2010.06.03 18:47:42.
