data_PCOD9279722
_publ_section_title
;
Structure prediction by ZEFSAII (Michael W. Deem and Ramdas Pophale) SiO2 
 PCOD9279722
Probable space group: C 2/C
;
_chemical_formula_sum "Si O2"
_cell_formula_units_Z 56
_cell_length_a 15.150159
_cell_length_b 18.888036
_cell_length_c 12.680147
_cell_angle_alpha 90.000000
_cell_angle_beta 56.292897
_cell_angle_gamma 90.000000
_cell_volume 3018.503942
_symmetry_space_group_name_H-M "C 2/C"
_symmetry_group_IT_number 15
_symmetry_cell_setting 'monoclinic'
loop_
_space_group_symop_operation_xyz
x,y,z
-x,y,1/2-z
-x,-y,-z
x,-y,1/2+z
1/2+x,1/2+y,z
1/2-x,1/2+y,1/2-z
1/2-x,1/2-y,-z
1/2+x,1/2-y,1/2+z
loop_
_atom_site_type_symbol
_atom_site_label
_atom_site_fract_x
_atom_site_fract_y
_atom_site_fract_z
Si Si1 0.307767 0.854523 0.678384
Si Si2 0.599470 0.300954 0.891796
Si Si3 0.612018 0.008352 0.866379
Si Si4 0.940216 0.770294 0.177930
Si Si5 0.780414 0.342906 0.228330
Si Si6 0.500000 0.056435 0.750000
Si Si7 0.500000 0.291264 0.750000
Si Si8 0.340781 0.829663 0.423540
O O1 0.211753 0.839529 0.821581
O O2 0.324209 0.937439 0.656247
O O3 0.405227 0.807441 0.657780
O O4 0.286411 0.826266 0.573330
O O5 0.632202 0.218315 0.852048
O O6 0.544436 0.330113 0.822306
O O7 0.522096 0.304103 0.040893
O O8 0.674940 0.081987 0.842582
O O9 0.579355 0.011149 0.765602
O O10 0.500000 0.000000 0.000000
O O11 0.830650 0.815957 0.246636
O O12 0.000000 0.766188 0.250000
O O13 0.773998 0.345042 0.361402
O O14 0.569930 0.108561 0.631220
O O15 0.591872 0.240740 0.642277
#
# Coordination Sequence:
#
# PCOD9279722 Si02
#       8
#     8   8   8   8   8   4   4   8
#     4  11  22  34  59  90 115 145 197 250 287 345
#     4  10  21  36  57  88 109 152 193 241 286 349
#     4  11  20  37  58  87 117 147 189 238 301 341
#     4  11  24  42  57  80 122 165 196 232 292 357
#     4   9  22  38  60  83 118 155 191 243 295 352
#     4   9  18  32  54  82 118 151 166 232 306 353
#     4   9  16  30  60  78 116 137 180 230 302 335
#     4   9  16  33  55  89 112 137 182 239 301 336
#
# _framework density 18.552237999999999
#
# number of rings (size 3 to 8) (size 9 to 14) (size 15 to 20)
#    0.000    2.000    2.857    1.714    3.000    4.000 
#    2.571    0.714    1.571    0.000    0.000    0.000 
#    0.000    0.000    0.000    0.000    0.000    0.000 
#
# Total GULP energy -156052.882287 kJ/mol
# GULP energy per Si atom -5573.317225 kJ/mol
# Density = 1.851001 g / cm^3
# Si number density = 18.552238 Si / 1000 Ang^3
#
#
#
# Elastic Constant Matrix: (Units=GPa)
#
#
# Indices 1 2 3 4 5 6 
#
# 1 88.8996 21.1510 28.8864 0.0000 6.5503 0.0000
# 2 21.1510 87.4657 13.0721 0.0000 -10.7066 0.0000
# 3 28.8864 13.0721 73.3905 0.0000 -6.5799 0.0000
# 4 0.0000 0.0000 0.0000 16.8055 0.0000 -1.3266
# 5 6.5503 -10.7066 -6.5799 0.0000 28.1838 0.0000
# 6 0.0000 0.0000 0.0000 -1.3266 0.0000 11.4959
#
#
#
# Elastic Compliance Matrix: (Units=1/GPa)
#
#
# Indices 1 2 3 4 5 6 
#
# 1 0.014283 -0.003344 -0.005554 0.000000 -0.005887 0.000000
# 2 -0.003344 0.013002 -0.000497 0.000000 0.005600 0.000000
# 3 -0.005554 -0.000497 0.016341 0.000000 0.004917 0.000000
# 4 0.000000 0.000000 0.000000 0.060051 0.000000 0.006930
# 5 -0.005887 0.005600 0.004917 0.000000 0.040125 0.000000
# 6 0.000000 0.000000 0.000000 0.006930 0.000000 0.087787
#
#
# Mechanical properties :
#
#
# Convention : Reuss Voigt Hill
#
# Bulk Modulus (GPa) = 40.26660 41.77498 41.02079
# Shear Modulus (GPa) = 19.33054 23.74013 21.53534
#
# Velocity S-wave (km/s) = 3.23143 3.58108 3.41074
# Velocity P-wave (km/s) = 5.97281 6.29803 6.13758
#
# Compressibility (1/GPa) = 0.02483448
#
# Stress axis : x y z
#
# Youngs Moduli (GPa) = 70.01504 76.91336 61.19542
#
# Poissons Ratio (x) = 0.25723 0.33986
# Poissons Ratio (y) = 0.23416 0.03044
# Poissons Ratio (z) = 0.38884 0.03825
#
# Static dielectric constant tensor:
#      x y z
#    x 1.676990 0.000000 0.005430 
#    y 0.000000 1.643290 0.000000 
#    z 0.005430 0.000000 1.677420 
# 
# From -- ./inp_files/106662.got.cif
#   From: 2010.05.17/outbox.cif.g08.bks.cpg/sg15_54_cif.got.tgz:106662.got - 2010.06.03 18:47:42.
