data_PCOD9279336
_publ_section_title
;
Structure prediction by ZEFSAII (Michael W. Deem and Ramdas Pophale) SiO2 
 PCOD9279336
Probable space group: C 2/C
;
_chemical_formula_sum "Si O2"
_cell_formula_units_Z 56
_cell_length_a 5.172684
_cell_length_b 20.339018
_cell_length_c 25.864002
_cell_angle_alpha 90.000000
_cell_angle_beta 95.781723
_cell_angle_gamma 90.000000
_cell_volume 2707.239722
_symmetry_space_group_name_H-M "C 2/C"
_symmetry_group_IT_number 15
_symmetry_cell_setting 'monoclinic'
loop_
_space_group_symop_operation_xyz
x,y,z
-x,y,1/2-z
-x,-y,-z
x,-y,1/2+z
1/2+x,1/2+y,z
1/2-x,1/2+y,1/2-z
1/2-x,1/2-y,-z
1/2+x,1/2-y,1/2+z
loop_
_atom_site_type_symbol
_atom_site_label
_atom_site_fract_x
_atom_site_fract_y
_atom_site_fract_z
Si Si1 0.494544 0.878929 0.941141
Si Si2 0.766133 0.803179 0.283229
Si Si3 0.828107 0.765220 0.401278
Si Si4 0.709542 0.993140 0.050788
Si Si5 0.269736 0.461577 0.283415
Si Si6 0.830300 0.694165 0.959943
Si Si7 0.243389 0.000543 0.599966
O O1 0.416215 0.809216 0.916252
O O2 0.694376 0.924659 0.913682
O O3 0.252853 0.928429 0.937429
O O4 0.602338 0.866214 0.001283
O O5 0.500000 0.785755 0.250000
O O6 0.773796 0.772431 0.340007
O O7 0.775364 0.882367 0.289727
O O8 0.000000 0.783855 0.250000
O O9 0.580708 0.784388 0.431777
O O10 0.074870 0.811366 0.420036
O O11 0.520910 0.964845 0.091786
O O12 0.005783 0.970290 0.060814
O O13 0.500000 0.000000 0.000000
O O14 0.500000 0.481183 0.250000
O O15 0.307223 0.491247 0.340903
O O16 0.000000 0.479201 0.250000
O O17 0.750000 0.750000 0.000000
#
# Coordination Sequence:
#
# PCOD9279336 Si02
#       7
#     8   8   8   8   8   8   8
#     4   9  23  35  59  81 129 149 195 236 294 349
#     4  10  22  41  63  87 115 150 199 261 309 351
#     4  11  22  37  62  86 118 158 201 243 301 366
#     4  10  22  36  56  83 121 159 190 234 294 354
#     4  10  21  40  64  85 114 152 205 257 303 363
#     4  10  21  35  57  88 118 162 194 232 291 365
#     4  10  22  37  60  84 118 159 192 246 302 344
#
# _framework density 20.685274
#
# number of rings (size 3 to 8) (size 9 to 14) (size 15 to 20)
#    0.857    1.143    0.000    3.857    6.000    2.286 
#    0.000    0.714    0.000    0.000    0.000    0.000 
#    0.000    0.000    0.000    0.000    0.000    0.000 
#
# Total GULP energy -156013.695645 kJ/mol
# GULP energy per Si atom -5571.917702 kJ/mol
# Density = 2.063819 g / cm^3
# Si number density = 20.685274 Si / 1000 Ang^3
#
#
#
# Elastic Constant Matrix: (Units=GPa)
#
#
# Indices 1 2 3 4 5 6 
#
# 1 168.6413 25.0556 66.2028 0.0000 6.1672 0.0000
# 2 25.0556 45.0601 22.8661 0.0000 2.5245 0.0000
# 3 66.2028 22.8661 159.3583 0.0000 -4.5380 0.0000
# 4 0.0000 0.0000 0.0000 23.0384 0.0000 -5.3883
# 5 6.1672 2.5245 -4.5380 0.0000 31.2063 0.0000
# 6 0.0000 0.0000 0.0000 -5.3883 0.0000 7.0738
#
#
#
# Elastic Compliance Matrix: (Units=1/GPa)
#
#
# Indices 1 2 3 4 5 6 
#
# 1 0.007473 -0.002656 -0.002771 0.000000 -0.001665 0.000000
# 2 -0.002656 0.025067 -0.002547 0.000000 -0.001873 0.000000
# 3 -0.002771 -0.002547 0.007846 0.000000 0.001895 0.000000
# 4 0.000000 0.000000 0.000000 0.052815 0.000000 0.040230
# 5 -0.001665 -0.001873 0.001895 0.000000 0.032801 0.000000
# 6 0.000000 0.000000 0.000000 0.040230 0.000000 0.172010
#
#
# Mechanical properties :
#
#
# Convention : Reuss Voigt Hill
#
# Bulk Modulus (GPa) = 40.91949 66.81209 53.86579
# Shear Modulus (GPa) = 15.52289 29.52604 22.52447
#
# Velocity S-wave (km/s) = 2.74237 3.78219 3.30345
# Velocity P-wave (km/s) = 5.46373 7.17236 6.37554
#
# Compressibility (1/GPa) = 0.02443823
#
# Stress axis : x y z
#
# Youngs Moduli (GPa) = 133.81547 39.89347 127.45922
#
# Poissons Ratio (x) = 0.10596 0.35317
# Poissons Ratio (y) = 0.35541 0.32461
# Poissons Ratio (z) = 0.37078 0.10160
#
# Static dielectric constant tensor:
#      x y z
#    x 1.753230 0.000000 0.011540 
#    y 0.000000 1.799510 0.000000 
#    z 0.011540 0.000000 1.854580 
# 
# From -- ./inp_files/261405.got.cif
#   From: 2010.05.17/outbox.cif.g08.bks.cpg/sg15_131_cif.got.tgz:261405.got - 2010.06.03 18:47:42.
