data_PCOD9279858
_publ_section_title
;
Structure prediction by ZEFSAII (Michael W. Deem and Ramdas Pophale) SiO2 
 PCOD9279858
Probable space group: C 2/C
;
_chemical_formula_sum "Si O2"
_cell_formula_units_Z 60
_cell_length_a 35.865443
_cell_length_b 14.506358
_cell_length_c 5.232170
_cell_angle_alpha 90.000000
_cell_angle_beta 84.935472
_cell_angle_gamma 90.000000
_cell_volume 2711.549853
_symmetry_space_group_name_H-M "C 2/C"
_symmetry_group_IT_number 15
_symmetry_cell_setting 'monoclinic'
loop_
_space_group_symop_operation_xyz
x,y,z
-x,y,1/2-z
-x,-y,-z
x,-y,1/2+z
1/2+x,1/2+y,z
1/2-x,1/2+y,1/2-z
1/2-x,1/2-y,-z
1/2+x,1/2-y,1/2+z
loop_
_atom_site_type_symbol
_atom_site_label
_atom_site_fract_x
_atom_site_fract_y
_atom_site_fract_z
Si Si1 0.516239 0.396838 0.991704
Si Si2 0.000000 0.564605 0.250000
Si Si3 0.623739 0.137203 0.595790
Si Si4 0.137925 0.144631 0.066576
Si Si5 0.294657 0.056809 0.950842
Si Si6 0.401868 0.632382 0.910574
Si Si7 0.284382 0.562464 0.617016
Si Si8 0.919091 0.648080 0.375522
O O1 0.500000 0.349665 0.750000
O O2 0.500000 0.348001 0.250000
O O3 0.500000 0.500000 0.000000
O O4 0.560122 0.407090 0.996511
O O5 0.038066 0.624078 0.208011
O O6 0.000000 0.500000 0.500000
O O7 0.628279 0.247607 0.579618
O O8 0.665337 0.101534 0.620573
O O9 0.606683 0.107746 0.335138
O O10 0.595450 0.113414 0.841560
O O11 0.129874 0.112434 0.359703
O O12 0.110855 0.102593 0.863797
O O13 0.180028 0.126201 0.954029
O O14 0.256207 0.109287 0.903496
O O15 0.293008 0.972464 0.748487
O O16 0.411279 0.741812 0.887021
O O17 0.286070 0.483104 0.396308
#
# Coordination Sequence:
#
# PCOD9279858 Si02
#       8
#     8   4   8   8   8   8   8   8
#     4  10  21  38  54  81 114 141 188 253 279 334
#     4  12  26  42  60  88 118 154 190 238 290 358
#     4  10  21  39  62  89 114 149 196 242 284 342
#     4  10  21  39  59  84 117 152 196 238 285 346
#     4  10  21  36  60  88 120 152 190 234 292 343
#     4  10  21  40  60  83 113 154 194 240 291 342
#     4  10  21  39  56  86 122 157 193 234 284 348
#     4  10  23  40  60  85 117 150 192 237 292 350
#
# _framework density 22.127566000000002
#
# number of rings (size 3 to 8) (size 9 to 14) (size 15 to 20)
#    0.000    1.867    0.000    3.200    0.933    3.733 
#   15.600    0.000    0.000    9.600    0.000    0.000 
#    0.000    0.000    0.000    0.000    0.000    0.000 
#
# Total GULP energy -167595.402152 kJ/mol
# GULP energy per Si atom -5586.513405 kJ/mol
# Density = 2.207720 g / cm^3
# Si number density = 22.127566 Si / 1000 Ang^3
#
#
#
# Elastic Constant Matrix: (Units=GPa)
#
#
# Indices 1 2 3 4 5 6 
#
# 1 153.5788 9.0545 35.3454 0.0000 -3.7213 0.0000
# 2 9.0545 42.5643 9.1011 0.0000 1.9271 0.0000
# 3 35.3454 9.1011 149.8891 0.0000 2.0306 0.0000
# 4 0.0000 0.0000 0.0000 3.5364 0.0000 -4.4504
# 5 -3.7213 1.9271 2.0306 0.0000 41.0217 0.0000
# 6 0.0000 0.0000 0.0000 -4.4504 0.0000 24.1746
#
#
#
# Elastic Compliance Matrix: (Units=1/GPa)
#
#
# Indices 1 2 3 4 5 6 
#
# 1 0.006963 -0.001178 -0.001581 0.000000 0.000765 0.000000
# 2 -0.001178 0.024047 -0.001166 0.000000 -0.001179 0.000000
# 3 -0.001581 -0.001166 0.007121 0.000000 -0.000441 0.000000
# 4 0.000000 0.000000 0.000000 0.368032 0.000000 0.067752
# 5 0.000765 -0.001179 -0.000441 0.000000 0.024524 0.000000
# 6 0.000000 0.000000 0.000000 0.067752 0.000000 0.053838
#
#
# Mechanical properties :
#
#
# Convention : Reuss Voigt Hill
#
# Bulk Modulus (GPa) = 33.02369 50.33716 41.68043
# Shear Modulus (GPa) = 9.95085 33.24863 21.59974
#
# Velocity S-wave (km/s) = 2.12292 3.88053 3.12772
# Velocity P-wave (km/s) = 4.57883 6.54798 5.64985
#
# Compressibility (1/GPa) = 0.03028129
#
# Stress axis : x y z
#
# Youngs Moduli (GPa) = 143.61381 41.58492 140.42631
#
# Poissons Ratio (x) = 0.04898 0.22199
# Poissons Ratio (y) = 0.16916 0.16379
# Poissons Ratio (z) = 0.22703 0.04850
#
# Static dielectric constant tensor:
#      x y z
#    x 1.814440 0.000000 -0.011370 
#    y 0.000000 1.810870 0.000000 
#    z -0.011370 0.000000 1.831110 
# 
# From -- ./inp_files/17193.got.cif
#   From: 2010.05.17/outbox.cif.g08.bks.cpg/sg15_9_cif.got.tgz:17193.got - 2010.06.03 18:47:42.
