data_PCOD9279406
_publ_section_title
;
Structure prediction by ZEFSAII (Michael W. Deem and Ramdas Pophale) SiO2 
 PCOD9279406
Probable space group: C 2/C
;
_chemical_formula_sum "Si O2"
_cell_formula_units_Z 40
_cell_length_a 13.968531
_cell_length_b 5.064223
_cell_length_c 27.387767
_cell_angle_alpha 90.000000
_cell_angle_beta 77.340607
_cell_angle_gamma 90.000000
_cell_volume 1890.305876
_symmetry_space_group_name_H-M "C 2/C"
_symmetry_group_IT_number 15
_symmetry_cell_setting 'monoclinic'
loop_
_space_group_symop_operation_xyz
x,y,z
-x,y,1/2-z
-x,-y,-z
x,-y,1/2+z
1/2+x,1/2+y,z
1/2-x,1/2+y,1/2-z
1/2-x,1/2-y,-z
1/2+x,1/2-y,1/2+z
loop_
_atom_site_type_symbol
_atom_site_label
_atom_site_fract_x
_atom_site_fract_y
_atom_site_fract_z
Si Si1 0.506989 0.562243 0.133731
Si Si2 0.648193 0.075540 0.505910
Si Si3 0.175809 0.399510 0.109784
Si Si4 0.983605 0.439369 0.808633
Si Si5 0.386272 0.455960 0.551597
O O1 0.477660 0.293874 0.162214
O O2 0.462406 0.598719 0.085742
O O3 0.625439 0.609387 0.117252
O O4 0.473302 0.791312 0.174529
O O5 0.750000 0.250000 0.500000
O O6 0.582081 0.297192 0.486485
O O7 0.628229 0.993495 0.564084
O O8 0.646623 0.807952 0.474210
O O9 0.290095 0.431577 0.090705
O O10 0.130867 0.536038 0.162480
O O11 0.000000 0.403311 0.750000
#
# Coordination Sequence:
#
# PCOD9279406 Si02
#       5
#     8   8   8   8   8
#     4  10  23  38  60  89 117 151 204 242 299 357
#     4  10  21  35  59  88 124 159 194 232 295 362
#     4   9  23  37  62  84 120 160 194 234 303 349
#     4  10  22  42  61  83 116 154 199 253 304 345
#     4  11  22  38  59  89 125 154 193 247 285 364
#
# _framework density 21.160596999999999
#
# number of rings (size 3 to 8) (size 9 to 14) (size 15 to 20)
#    1.200    0.800    0.000    4.200    8.400    1.600 
#    0.000    2.000    0.000    0.000    0.000    0.000 
#    0.000    0.000    0.000    0.000    0.000    0.000 
#
# Total GULP energy -111369.425981 kJ/mol
# GULP energy per Si atom -5568.471299 kJ/mol
# Density = 2.111243 g / cm^3
# Si number density = 21.160597 Si / 1000 Ang^3
#
#
#
# Elastic Constant Matrix: (Units=GPa)
#
#
# Indices 1 2 3 4 5 6 
#
# 1 58.5200 9.0573 25.7907 -0.0002 -3.2915 0.0001
# 2 9.0573 73.2409 5.4782 -0.0011 -6.1566 0.0019
# 3 25.7907 5.4782 147.3306 -0.0006 -14.0921 0.0002
# 4 -0.0002 -0.0011 -0.0006 22.0001 -0.0003 15.2388
# 5 -3.2915 -6.1566 -14.0921 -0.0003 18.7337 0.0000
# 6 0.0001 0.0019 0.0002 15.2388 0.0000 17.4398
#
#
#
# Elastic Compliance Matrix: (Units=1/GPa)
#
#
# Indices 1 2 3 4 5 6 
#
# 1 0.018831 -0.002071 -0.003198 0.000000 0.000222 0.000000
# 2 -0.002071 0.014270 0.000265 0.000005 0.004525 -0.000005
# 3 -0.003198 0.000265 0.007857 0.000001 0.005436 -0.000001
# 4 0.000000 0.000005 0.000001 0.115147 0.000004 -0.100615
# 5 0.000222 0.004525 0.005436 0.000004 0.058995 -0.000004
# 6 0.000000 -0.000005 -0.000001 -0.100615 -0.000004 0.145257
#
#
# Mechanical properties :
#
#
# Convention : Reuss Voigt Hill
#
# Bulk Modulus (GPa) = 32.31033 39.97153 36.14093
# Shear Modulus (GPa) = 13.13435 27.55241 20.34338
#
# Velocity S-wave (km/s) = 2.49408 3.61232 3.10398
# Velocity P-wave (km/s) = 4.85759 6.02737 5.47382
#
# Compressibility (1/GPa) = 0.03094986
#
# Stress axis : x y z
#
# Youngs Moduli (GPa) = 53.10498 70.07596 127.26911
#
# Poissons Ratio (x) = 0.14511 0.40702
# Poissons Ratio (y) = 0.10997 -0.03369
# Poissons Ratio (z) = 0.16983 -0.01855
#
# Static dielectric constant tensor:
#      x y z
#    x 1.846420 0.000000 -0.051570 
#    y 0.000000 1.819030 0.000000 
#    z -0.051570 0.000000 1.752310 
# 
# From -- ./inp_files/275460.got.cif
#   From: 2010.05.17/outbox.cif.g08.bks.cpg/sg15_138_cif.got.tgz:275460.got - 2010.06.03 18:47:42.
