data_PCOD9279796
_publ_section_title
;
Structure prediction by ZEFSAII (Michael W. Deem and Ramdas Pophale) SiO2 
 PCOD9279796
Probable space group: C 2/C
;
_chemical_formula_sum "Si O2"
_cell_formula_units_Z 48
_cell_length_a 18.346452
_cell_length_b 13.863893
_cell_length_c 9.714509
_cell_angle_alpha 90.000000
_cell_angle_beta 96.436231
_cell_angle_gamma 90.000000
_cell_volume 2455.343298
_symmetry_space_group_name_H-M "C 2/C"
_symmetry_group_IT_number 15
_symmetry_cell_setting 'monoclinic'
loop_
_space_group_symop_operation_xyz
x,y,z
-x,y,1/2-z
-x,-y,-z
x,-y,1/2+z
1/2+x,1/2+y,z
1/2-x,1/2+y,1/2-z
1/2-x,1/2-y,-z
1/2+x,1/2-y,1/2+z
loop_
_atom_site_type_symbol
_atom_site_label
_atom_site_fract_x
_atom_site_fract_y
_atom_site_fract_z
Si Si1 0.855690 0.811276 0.505647
Si Si2 0.638989 0.425537 0.242547
Si Si3 0.427527 0.760783 0.298098
Si Si4 0.703698 0.099274 0.028282
Si Si5 0.187934 0.576850 0.716170
Si Si6 0.930810 0.072212 0.470428
O O1 0.893655 0.850502 0.376360
O O2 0.897085 0.793457 0.655921
O O3 0.791340 0.887523 0.530034
O O4 0.822937 0.707987 0.455909
O O5 0.725123 0.400125 0.278576
O O6 0.623591 0.524671 0.155862
O O7 0.603175 0.423809 0.384360
O O8 0.500000 0.810965 0.250000
O O9 0.366265 0.836230 0.337253
O O10 0.446174 0.679011 0.414362
O O11 0.679316 0.022690 0.134564
O O12 0.674435 0.064581 0.875136
O O13 0.000000 0.000000 0.500000
#
# Coordination Sequence:
#
# PCOD9279796 Si02
#       6
#     8   8   8   8   8   8
#     4   9  19  36  58  84 117 156 193 242 298 351
#     4  11  21  35  59  89 117 152 198 247 301 361
#     4  11  23  40  58  82 121 160 197 246 305 360
#     4   9  18  35  58  85 117 151 196 246 295 348
#     4  10  21  36  59  86 115 155 199 246 296 354
#     4  12  24  38  61  90 122 157 196 248 311 370
#
# _framework density 19.549202000000001
#
# number of rings (size 3 to 8) (size 9 to 14) (size 15 to 20)
#    0.000    1.667    0.000    7.500    0.000    2.000 
#    0.000    3.333    0.000    2.000    0.000    0.000 
#    0.000    0.000    0.000    0.000    0.000    0.000 
#
# Total GULP energy -133794.161071 kJ/mol
# GULP energy per Si atom -5574.756711 kJ/mol
# Density = 1.950471 g / cm^3
# Si number density = 19.549202 Si / 1000 Ang^3
#
#
#
# Elastic Constant Matrix: (Units=GPa)
#
#
# Indices 1 2 3 4 5 6 
#
# 1 85.8933 45.0898 29.7133 0.0000 -8.5254 0.0000
# 2 45.0898 111.4116 52.8213 0.0000 -9.6476 0.0000
# 3 29.7133 52.8213 80.5280 0.0000 -15.3743 0.0000
# 4 0.0000 0.0000 0.0000 45.7725 0.0000 -3.3142
# 5 -8.5254 -9.6476 -15.3743 0.0000 27.9885 0.0000
# 6 0.0000 0.0000 0.0000 -3.3142 0.0000 35.4260
#
#
#
# Elastic Compliance Matrix: (Units=1/GPa)
#
#
# Indices 1 2 3 4 5 6 
#
# 1 0.015144 -0.005061 -0.001922 0.000000 0.001813 0.000000
# 2 -0.005061 0.014719 -0.007947 0.000000 -0.000833 0.000000
# 3 -0.001922 -0.007947 0.019779 0.000000 0.007540 0.000000
# 4 0.000000 0.000000 0.000000 0.021996 0.000000 0.002058
# 5 0.001813 -0.000833 0.007540 0.000000 0.040136 0.000000
# 6 0.000000 0.000000 0.000000 0.002058 0.000000 0.028420
#
#
# Mechanical properties :
#
#
# Convention : Reuss Voigt Hill
#
# Bulk Modulus (GPa) = 50.54744 59.23129 54.88936
# Shear Modulus (GPa) = 28.30478 31.85129 30.07804
#
# Velocity S-wave (km/s) = 3.80922 4.04082 3.92673
# Velocity P-wave (km/s) = 6.72752 7.22048 6.97836
#
# Compressibility (1/GPa) = 0.01978340
#
# Stress axis : x y z
#
# Youngs Moduli (GPa) = 66.03365 67.93817 50.55750
#
# Poissons Ratio (x) = 0.34380 0.09719
# Poissons Ratio (y) = 0.33417 0.40176
# Poissons Ratio (z) = 0.12694 0.53988
#
# Static dielectric constant tensor:
#      x y z
#    x 1.776000 0.000000 0.032320 
#    y 0.000000 1.707210 0.000000 
#    z 0.032320 0.000000 1.673260 
# 
# From -- ./inp_files/47437.got.cif
#   From: 2010.05.17/outbox.cif.g08.bks.cpg/sg15_24_cif.got.tgz:47437.got - 2010.06.03 18:47:42.
