data_PCOD9280162
_publ_section_title
;
Structure prediction by ZEFSAII (Michael W. Deem and Ramdas Pophale) SiO2 
 PCOD9280162
Probable space group: C 2/C
;
_chemical_formula_sum "Si O2"
_cell_formula_units_Z 56
_cell_length_a 19.464142
_cell_length_b 18.108735
_cell_length_c 12.446222
_cell_angle_alpha 90.000000
_cell_angle_beta 44.911918
_cell_angle_gamma 90.000000
_cell_volume 3097.257017
_symmetry_space_group_name_H-M "C 2/C"
_symmetry_group_IT_number 15
_symmetry_cell_setting 'monoclinic'
loop_
_space_group_symop_operation_xyz
x,y,z
-x,y,1/2-z
-x,-y,-z
x,-y,1/2+z
1/2+x,1/2+y,z
1/2-x,1/2+y,1/2-z
1/2-x,1/2-y,-z
1/2+x,1/2-y,1/2+z
loop_
_atom_site_type_symbol
_atom_site_label
_atom_site_fract_x
_atom_site_fract_y
_atom_site_fract_z
Si Si1 0.892354 0.079325 0.402934
Si Si2 0.750236 0.795773 0.389181
Si Si3 0.615945 0.911441 0.621769
Si Si4 0.754659 0.454432 0.608770
Si Si5 0.275798 0.855732 0.783896
Si Si6 0.382234 0.417902 0.157494
Si Si7 0.067037 0.089042 0.584271
O O1 0.869506 0.104645 0.548351
O O2 0.000000 0.105797 0.250000
O O3 0.806699 0.090352 0.412511
O O4 0.901376 0.989949 0.402616
O O5 0.750000 0.750000 0.500000
O O6 0.652833 0.845880 0.500287
O O7 0.776004 0.732876 0.274480
O O8 0.832781 0.857395 0.288442
O O9 0.500000 0.917867 0.750000
O O10 0.668576 0.987999 0.528335
O O11 0.657166 0.886584 0.693132
O O12 0.797356 0.400085 0.651329
O O13 0.675633 0.506692 0.756441
O O14 0.164045 0.870973 0.942079
O O15 0.494340 0.424053 0.065742
O O16 0.000000 0.126187 0.750000
#
# Coordination Sequence:
#
# PCOD9280162 Si02
#       7
#     8   8   8   8   8   8   8
#     4  11  19  30  52  86 114 134 170 215 275 340
#     4   9  21  37  54  79 107 142 182 223 279 332
#     4  10  21  37  55  75 105 138 186 232 269 314
#     4  11  19  34  54  79 108 141 179 228 267 325
#     4  11  21  35  53  79 108 142 179 220 276 324
#     4  11  19  33  54  81 113 143 172 223 279 331
#     4  11  17  29  54  83 113 131 166 214 276 328
#
# _framework density 18.080514999999998
#
# number of rings (size 3 to 8) (size 9 to 14) (size 15 to 20)
#    0.000    1.429    5.714    3.000    0.000    3.429 
#    0.000    0.714    0.000    0.857    0.000    0.000 
#    0.000    0.000    0.000    0.000    0.000    0.000 
#
# Total GULP energy -156077.386999 kJ/mol
# GULP energy per Si atom -5574.192393 kJ/mol
# Density = 1.803936 g / cm^3
# Si number density = 18.080515 Si / 1000 Ang^3
#
#
#
# Elastic Constant Matrix: (Units=GPa)
#
#
# Indices 1 2 3 4 5 6 
#
# 1 117.2099 26.2772 41.9630 0.0000 -2.2001 0.0000
# 2 26.2772 51.0194 7.2299 0.0000 2.4422 0.0000
# 3 41.9630 7.2299 66.9019 0.0000 -5.5857 0.0000
# 4 0.0000 0.0000 0.0000 21.7957 0.0000 6.4506
# 5 -2.2001 2.4422 -5.5857 0.0000 38.8005 0.0000
# 6 0.0000 0.0000 0.0000 6.4506 0.0000 13.1058
#
#
#
# Elastic Compliance Matrix: (Units=1/GPa)
#
#
# Indices 1 2 3 4 5 6 
#
# 1 0.012273 -0.005312 -0.007124 0.000000 0.000005 0.000000
# 2 -0.005312 0.022301 0.000789 0.000000 -0.001591 0.000000
# 3 -0.007124 0.000789 0.019527 0.000000 0.002358 0.000000
# 4 0.000000 0.000000 0.000000 0.053704 0.000000 -0.026433
# 5 0.000005 -0.001591 0.002358 0.000000 0.026213 0.000000
# 6 0.000000 0.000000 0.000000 -0.026433 0.000000 0.089312
#
#
# Mechanical properties :
#
#
# Convention : Reuss Voigt Hill
#
# Bulk Modulus (GPa) = 32.45951 42.89679 37.67815
# Shear Modulus (GPa) = 19.46348 25.38448 22.42398
#
# Velocity S-wave (km/s) = 3.28455 3.75102 3.52551
# Velocity P-wave (km/s) = 5.69000 6.52205 6.12018
#
# Compressibility (1/GPa) = 0.03080761
#
# Stress axis : x y z
#
# Youngs Moduli (GPa) = 81.47957 44.84181 51.21118
#
# Poissons Ratio (x) = 0.23819 0.36481
# Poissons Ratio (y) = 0.43281 -0.04040
# Poissons Ratio (z) = 0.58043 -0.03538
#
# Static dielectric constant tensor:
#      x y z
#    x 1.648060 0.000000 0.034200 
#    y 0.000000 1.633940 0.000000 
#    z 0.034200 0.000000 1.662910 
# 
# From -- ./inp_files/107269.got.cif
#   From: 2010.05.17/outbox.cif.g08.bks.cpg/sg15_54_cif.got.tgz:107269.got - 2010.06.03 18:47:42.
