data_PCOD9280921
_publ_section_title
;
Structure prediction by ZEFSAII (Michael W. Deem and Ramdas Pophale) SiO2 
 PCOD9280921
Probable space group: C 2/C
;
_chemical_formula_sum "Si O2"
_cell_formula_units_Z 64
_cell_length_a 19.475833
_cell_length_b 18.004968
_cell_length_c 18.691301
_cell_angle_alpha 90.000000
_cell_angle_beta 152.133726
_cell_angle_gamma 90.000000
_cell_volume 3063.553599
_symmetry_space_group_name_H-M "C 2/C"
_symmetry_group_IT_number 15
_symmetry_cell_setting 'monoclinic'
loop_
_space_group_symop_operation_xyz
x,y,z
-x,y,1/2-z
-x,-y,-z
x,-y,1/2+z
1/2+x,1/2+y,z
1/2-x,1/2+y,1/2-z
1/2-x,1/2-y,-z
1/2+x,1/2-y,1/2+z
loop_
_atom_site_type_symbol
_atom_site_label
_atom_site_fract_x
_atom_site_fract_y
_atom_site_fract_z
Si Si1 0.825556 0.674694 0.094242
Si Si2 0.282183 0.481477 0.347854
Si Si3 0.005522 0.149127 0.061402
Si Si4 0.894829 0.140646 0.495963
Si Si5 0.515243 0.909071 0.182795
Si Si6 0.759390 0.543992 0.340818
Si Si7 0.094184 0.240888 0.397569
Si Si8 0.618549 0.417624 0.304464
O O1 0.759492 0.664895 0.112547
O O2 0.000000 0.674463 0.250000
O O3 0.750000 0.750000 0.000000
O O4 0.752501 0.613561 0.974657
O O5 0.403141 0.419316 0.443208
O O6 0.364909 0.553006 0.455507
O O7 0.205068 0.513103 0.205418
O O8 0.168338 0.440577 0.294874
O O9 0.917053 0.198202 0.037379
O O10 0.060290 0.181510 0.035883
O O11 0.150437 0.114149 0.231501
O O12 0.025488 0.144568 0.674900
O O13 0.500000 0.937308 0.250000
O O14 0.485809 0.820202 0.161270
O O15 0.394681 0.936488 0.015555
O O16 0.673825 0.478319 0.301020
O O17 0.250000 0.250000 0.500000
O O18 0.000000 0.199020 0.250000
O O19 0.500000 0.450849 0.250000
#
# Coordination Sequence:
#
# PCOD9280921 Si02
#       8
#     8   8   8   8   8   8   8   8
#     4  11  25  46  66  95 136 176 217 278 328 394
#     4  11  22  41  65  95 137 165 217 280 335 396
#     4  11  21  42  71  91 130 178 219 271 339 402
#     4  10  21  42  65 100 128 172 221 267 333 407
#     4  11  26  40  61  93 134 176 219 279 340 395
#     4  11  22  40  63  98 130 168 218 275 337 395
#     4  11  24  45  62  93 131 171 226 277 325 401
#     4  10  21  37  66  94 130 164 221 267 326 399
#
# _framework density 20.890772999999999
#
# number of rings (size 3 to 8) (size 9 to 14) (size 15 to 20)
#    0.000    1.250    2.500    4.500    5.250    1.500 
#    2.250    3.750    0.000    0.000    0.000    0.000 
#    0.000    0.000    0.000    0.000    0.000    0.000 
#
# Total GULP energy -178589.002633 kJ/mol
# GULP energy per Si atom -5580.906332 kJ/mol
# Density = 2.084322 g / cm^3
# Si number density = 20.890773 Si / 1000 Ang^3
#
#
#
# Elastic Constant Matrix: (Units=GPa)
#
#
# Indices 1 2 3 4 5 6 
#
# 1 168.5186 39.2121 40.1868 -0.0011 9.8014 0.0003
# 2 39.2121 46.0831 1.9973 0.0000 3.9584 0.0005
# 3 40.1868 1.9973 111.3837 -0.0039 6.9201 -0.0004
# 4 -0.0011 0.0000 -0.0039 9.7120 -0.0016 0.0119
# 5 9.8014 3.9584 6.9201 -0.0016 35.6508 -0.0005
# 6 0.0003 0.0005 -0.0004 0.0119 -0.0005 27.5174
#
#
#
# Elastic Compliance Matrix: (Units=1/GPa)
#
#
# Indices 1 2 3 4 5 6 
#
# 1 0.008240 -0.006807 -0.002791 0.000000 -0.000968 0.000000
# 2 -0.006807 0.027539 0.002061 0.000000 -0.001586 0.000000
# 3 -0.002791 0.002061 0.010035 0.000003 -0.001410 0.000000
# 4 0.000000 0.000000 0.000003 0.102966 0.000004 -0.000045
# 5 -0.000968 -0.001586 -0.001410 0.000004 0.028766 0.000001
# 6 0.000000 0.000000 0.000000 -0.000045 0.000001 0.036341
#
#
# Mechanical properties :
#
#
# Convention : Reuss Voigt Hill
#
# Bulk Modulus (GPa) = 32.53083 54.30866 43.41974
# Shear Modulus (GPa) = 20.90235 30.88196 25.89215
#
# Velocity S-wave (km/s) = 3.16659 3.84898 3.52434
# Velocity P-wave (km/s) = 5.38288 6.76800 6.11478
#
# Compressibility (1/GPa) = 0.03074007
#
# Stress axis : x y z
#
# Youngs Moduli (GPa) = 121.36233 36.31205 99.64659
#
# Poissons Ratio (x) = 0.24718 0.27808
# Poissons Ratio (y) = 0.82613 -0.20534
# Poissons Ratio (z) = 0.33868 -0.07483
#
# Static dielectric constant tensor:
#      x y z
#    x 1.429390 -0.000010 -0.220440 
#    y -0.000010 1.785310 0.000000 
#    z -0.220440 0.000000 1.670800 
# 
# From -- ./inp_files/211985.got.cif
#   From: 2010.05.17/outbox.cif.g08.bks.cpg/sg15_106_cif.got.tgz:211985.got - 2010.06.03 18:47:42.
