data_PCOD9280741
_publ_section_title
;
Structure prediction by ZEFSAII (Michael W. Deem and Ramdas Pophale) SiO2 
 PCOD9280741
Probable space group: C 2/C
;
_chemical_formula_sum "Si O2"
_cell_formula_units_Z 52
_cell_length_a 19.840856
_cell_length_b 10.736418
_cell_length_c 16.023609
_cell_angle_alpha 90.000000
_cell_angle_beta 134.946550
_cell_angle_gamma 90.000000
_cell_volume 2415.849770
_symmetry_space_group_name_H-M "C 2/C"
_symmetry_group_IT_number 15
_symmetry_cell_setting 'monoclinic'
loop_
_space_group_symop_operation_xyz
x,y,z
-x,y,1/2-z
-x,-y,-z
x,-y,1/2+z
1/2+x,1/2+y,z
1/2-x,1/2+y,1/2-z
1/2-x,1/2-y,-z
1/2+x,1/2-y,1/2+z
loop_
_atom_site_type_symbol
_atom_site_label
_atom_site_fract_x
_atom_site_fract_y
_atom_site_fract_z
Si Si1 0.222370 0.895297 0.565858
Si Si2 0.896533 0.234242 0.668164
Si Si3 0.192717 0.278935 0.194186
Si Si4 0.291052 0.831623 0.109369
Si Si5 0.500000 0.787920 0.250000
Si Si6 0.627493 0.581284 0.683042
Si Si7 0.989555 0.176331 0.421217
O O1 0.130225 0.852295 0.433794
O O2 0.314425 0.836590 0.601632
O O3 0.219072 0.829942 0.652833
O O4 0.234704 0.041474 0.574527
O O5 0.894822 0.150885 0.749866
O O6 0.000000 0.291196 0.750000
O O7 0.215237 0.254640 0.310546
O O8 0.258323 0.397270 0.226872
O O9 0.077838 0.283904 0.096904
O O10 0.401968 0.858707 0.185192
O O11 0.250000 0.750000 0.000000
O O12 0.517561 0.710006 0.350964
O O13 0.575468 0.648453 0.559317
O O14 0.578760 0.445899 0.642169
#
# Coordination Sequence:
#
# PCOD9280741 Si02
#       7
#     8   8   8   8   4   8   8
#     4  10  23  42  62  97 129 168 219 263 318 392
#     4  10  22  38  65  92 129 171 209 262 325 380
#     4  10  21  39  62  90 126 166 206 262 318 371
#     4  11  24  42  67  95 131 169 217 266 323 383
#     4  10  24  38  62  92 126 168 206 262 334 374
#     4  10  21  37  63  89 121 169 210 260 319 372
#     4  10  21  38  60  92 125 160 215 263 308 388
#
# _framework density 21.524516999999999
#
# number of rings (size 3 to 8) (size 9 to 14) (size 15 to 20)
#    0.000    1.846    0.000    2.769    6.462    2.462 
#    2.769    0.000    0.000    6.462    0.000    0.000 
#    0.000    0.000    0.000    0.000    0.000    0.000 
#
# Total GULP energy -145117.363351 kJ/mol
# GULP energy per Si atom -5581.437052 kJ/mol
# Density = 2.147553 g / cm^3
# Si number density = 21.524517 Si / 1000 Ang^3
#
#
#
# Elastic Constant Matrix: (Units=GPa)
#
#
# Indices 1 2 3 4 5 6 
#
# 1 96.6400 17.0861 27.0554 0.0000 -1.1523 0.0000
# 2 17.0861 62.6594 39.9131 0.0000 -13.9159 0.0000
# 3 27.0554 39.9131 89.1965 0.0000 -11.0847 0.0000
# 4 0.0000 0.0000 0.0000 24.7412 0.0000 -3.7413
# 5 -1.1523 -13.9159 -11.0847 0.0000 46.4428 0.0000
# 6 0.0000 0.0000 0.0000 -3.7413 0.0000 14.4314
#
#
#
# Elastic Compliance Matrix: (Units=1/GPa)
#
#
# Indices 1 2 3 4 5 6 
#
# 1 0.011410 -0.001437 -0.002923 0.000000 -0.000845 0.000000
# 2 -0.001437 0.023426 -0.009459 0.000000 0.004726 0.000000
# 3 -0.002923 -0.009459 0.016458 0.000000 0.001021 0.000000
# 4 0.000000 0.000000 0.000000 0.042068 0.000000 0.010906
# 5 -0.000845 0.004726 0.001021 0.000000 0.023171 0.000000
# 6 0.000000 0.000000 0.000000 0.010906 0.000000 0.072121
#
#
# Mechanical properties :
#
#
# Convention : Reuss Voigt Hill
#
# Bulk Modulus (GPa) = 42.27453 46.28944 44.28199
# Shear Modulus (GPa) = 22.30385 28.08583 25.19484
#
# Velocity S-wave (km/s) = 3.22251 3.61616 3.42500
# Velocity P-wave (km/s) = 5.79041 6.24401 6.02148
#
# Compressibility (1/GPa) = 0.02365490
#
# Stress axis : x y z
#
# Youngs Moduli (GPa) = 87.64258 42.68704 60.76249
#
# Poissons Ratio (x) = 0.06135 0.17760
# Poissons Ratio (y) = 0.12596 0.57478
# Poissons Ratio (z) = 0.25617 0.40380
#
# Static dielectric constant tensor:
#      x y z
#    x 1.829370 0.000000 0.029460 
#    y 0.000000 1.781470 0.000000 
#    z 0.029460 0.000000 1.777610 
# 
# From -- ./inp_files/215107.got.cif
#   From: 2010.05.17/outbox.cif.g08.bks.cpg/sg15_108_cif.got.tgz:215107.got - 2010.06.03 18:47:42.
