data_PCOD9280044
_publ_section_title
;
Structure prediction by ZEFSAII (Michael W. Deem and Ramdas Pophale) SiO2 
 PCOD9280044
Probable space group: C 2/C
;
_chemical_formula_sum "Si O2"
_cell_formula_units_Z 52
_cell_length_a 11.408199
_cell_length_b 27.646830
_cell_length_c 8.505730
_cell_angle_alpha 90.000000
_cell_angle_beta 108.380497
_cell_angle_gamma 90.000000
_cell_volume 2545.848988
_symmetry_space_group_name_H-M "C 2/C"
_symmetry_group_IT_number 15
_symmetry_cell_setting 'monoclinic'
loop_
_space_group_symop_operation_xyz
x,y,z
-x,y,1/2-z
-x,-y,-z
x,-y,1/2+z
1/2+x,1/2+y,z
1/2-x,1/2+y,1/2-z
1/2-x,1/2-y,-z
1/2+x,1/2-y,1/2+z
loop_
_atom_site_type_symbol
_atom_site_label
_atom_site_fract_x
_atom_site_fract_y
_atom_site_fract_z
Si Si1 0.640565 0.747167 0.577439
Si Si2 0.500000 0.791806 0.250000
Si Si3 0.276267 0.482853 0.524620
Si Si4 0.351315 0.832141 0.676936
Si Si5 0.140980 0.439803 0.746822
Si Si6 0.238512 0.336365 0.209401
Si Si7 0.622833 0.433764 0.217619
O O1 0.750000 0.750000 0.500000
O O2 0.523738 0.760027 0.417760
O O3 0.673559 0.788809 0.715277
O O4 0.650842 0.696263 0.672011
O O5 0.618589 0.824971 0.265049
O O6 0.172918 0.453911 0.580731
O O7 0.208327 0.519803 0.379105
O O8 0.368665 0.449547 0.461434
O O9 0.348653 0.517663 0.673464
O O10 0.500000 0.835142 0.750000
O O11 0.307258 0.885708 0.706155
O O12 0.298501 0.821678 0.482639
O O13 0.000000 0.440138 0.750000
O O14 0.273914 0.392444 0.222206
O O15 0.500000 0.414123 0.250000
#
# Coordination Sequence:
#
# PCOD9280044 Si02
#       7
#     8   4   8   8   8   8   8
#     4  10  23  40  64  92 130 170 211 261 327 396
#     4  10  22  44  66  98 130 170 206 268 348 390
#     4  10  22  41  63  89 133 172 218 271 325 379
#     4  11  21  39  65  93 131 171 210 261 327 390
#     4  10  21  36  63  99 132 166 212 266 328 398
#     4  11  23  42  69  97 130 168 220 269 324 399
#     4  11  24  44  65  93 125 175 227 271 321 385
#
# _framework density 20.425405999999999
#
# number of rings (size 3 to 8) (size 9 to 14) (size 15 to 20)
#    0.000    1.538    3.077    1.385    4.308    0.615 
#   11.077    0.000    1.692    0.000    0.000    0.000 
#    0.000    0.000    0.000    0.000    0.000    0.000 
#
# Total GULP energy -144934.318199 kJ/mol
# GULP energy per Si atom -5574.396854 kJ/mol
# Density = 2.037892 g / cm^3
# Si number density = 20.425406 Si / 1000 Ang^3
#
#
#
# Elastic Constant Matrix: (Units=GPa)
#
#
# Indices 1 2 3 4 5 6 
#
# 1 65.6434 22.9354 17.9880 0.0000 -13.0002 0.0000
# 2 22.9354 73.3880 41.5116 0.0000 -16.5523 0.0000
# 3 17.9880 41.5116 114.3890 0.0000 -16.7228 0.0000
# 4 0.0000 0.0000 0.0000 23.7541 0.0000 2.1572
# 5 -13.0002 -16.5523 -16.7228 0.0000 28.7034 0.0000
# 6 0.0000 0.0000 0.0000 2.1572 0.0000 30.5557
#
#
#
# Elastic Compliance Matrix: (Units=1/GPa)
#
#
# Indices 1 2 3 4 5 6 
#
# 1 0.017876 -0.004051 -0.000545 0.000000 0.005443 0.000000
# 2 -0.004051 0.019389 -0.005502 0.000000 0.006141 0.000000
# 3 -0.000545 -0.005502 0.011286 0.000000 0.003156 0.000000
# 4 0.000000 0.000000 0.000000 0.042370 0.000000 -0.002991
# 5 0.005443 0.006141 0.003156 0.000000 0.042684 0.000000
# 6 0.000000 0.000000 0.000000 -0.002991 0.000000 0.032938
#
#
# Mechanical properties :
#
#
# Convention : Reuss Voigt Hill
#
# Bulk Modulus (GPa) = 35.26581 46.47672 40.87126
# Shear Modulus (GPa) = 25.48540 28.00166 26.74353
#
# Velocity S-wave (km/s) = 3.53615 3.70661 3.62239
# Velocity P-wave (km/s) = 5.82886 6.41268 6.12773
#
# Compressibility (1/GPa) = 0.02835607
#
# Stress axis : x y z
#
# Youngs Moduli (GPa) = 55.93940 51.57515 88.60784
#
# Poissons Ratio (x) = 0.20891 0.04833
# Poissons Ratio (y) = 0.22659 0.48748
# Poissons Ratio (z) = 0.03051 0.28374
#
# Static dielectric constant tensor:
#      x y z
#    x 1.765670 0.000000 0.007750 
#    y 0.000000 1.726910 0.000000 
#    z 0.007750 0.000000 1.725910 
# 
# From -- ./inp_files/33647.got.cif
#   From: 2010.05.17/outbox.cif.g08.bks.cpg/sg15_17_cif.got.tgz:33647.got - 2010.06.03 18:47:42.
