data_PCOD9280154
_publ_section_title
;
Structure prediction by ZEFSAII (Michael W. Deem and Ramdas Pophale) SiO2 
 PCOD9280154
Probable space group: C 2/C
;
_chemical_formula_sum "Si O2"
_cell_formula_units_Z 64
_cell_length_a 13.780636
_cell_length_b 19.178702
_cell_length_c 13.719379
_cell_angle_alpha 90.000000
_cell_angle_beta 66.184495
_cell_angle_gamma 90.000000
_cell_volume 3317.210433
_symmetry_space_group_name_H-M "C 2/C"
_symmetry_group_IT_number 15
_symmetry_cell_setting 'monoclinic'
loop_
_space_group_symop_operation_xyz
x,y,z
-x,y,1/2-z
-x,-y,-z
x,-y,1/2+z
1/2+x,1/2+y,z
1/2-x,1/2+y,1/2-z
1/2-x,1/2-y,-z
1/2+x,1/2-y,1/2+z
loop_
_atom_site_type_symbol
_atom_site_label
_atom_site_fract_x
_atom_site_fract_y
_atom_site_fract_z
Si Si1 0.498003 0.459882 0.101391
Si Si2 0.790080 0.298781 0.292364
Si Si3 0.444313 0.174275 0.551656
Si Si4 0.387517 0.968587 0.011072
Si Si5 0.906400 0.413088 0.363594
Si Si6 0.886970 0.838271 0.850098
Si Si7 0.174336 0.989982 0.677696
Si Si8 0.439704 0.688608 0.555564
O O1 0.394153 0.487603 0.201111
O O2 0.602244 0.478839 0.120273
O O3 0.493098 0.378036 0.082773
O O4 0.500000 0.500000 0.000000
O O5 0.852756 0.305211 0.165683
O O6 0.820950 0.367191 0.341907
O O7 0.832980 0.231816 0.333291
O O8 0.664591 0.294200 0.339902
O O9 0.403749 0.113893 0.495852
O O10 0.537889 0.137483 0.578384
O O11 0.488218 0.243332 0.484268
O O12 0.293000 0.980851 0.126208
O O13 0.500000 0.000000 0.000000
O O14 0.360960 0.016895 0.929516
O O15 0.000000 0.431024 0.250000
O O16 0.000000 0.844144 0.750000
O O17 0.823695 0.907099 0.843215
O O18 0.905116 0.832267 0.958629
#
# Coordination Sequence:
#
# PCOD9280154 Si02
#       8
#     8   8   8   8   8   8   8   8
#     4  11  23  41  62  94 123 161 210 257 309 377
#     4  11  21  33  59  91 122 151 190 255 327 362
#     4  10  21  37  54  85 120 153 198 249 301 366
#     4  10  22  39  60  87 125 165 205 247 305 378
#     4   9  18  35  57  85 120 157 191 247 310 368
#     4  12  19  35  59  94 126 147 194 262 320 367
#     4  11  23  41  65  90 127 165 206 259 314 362
#     4  12  22  35  60  89 121 157 200 248 310 375
#
# _framework density 19.293320000000001
#
# number of rings (size 3 to 8) (size 9 to 14) (size 15 to 20)
#    0.000    1.250    5.000    2.250    3.500    0.000 
#    0.000    0.625    2.750    0.000    0.000    0.000 
#    0.000    0.000    0.000    0.000    0.000    0.000 
#
# Total GULP energy -178777.864385 kJ/mol
# GULP energy per Si atom -5586.808262 kJ/mol
# Density = 1.924941 g / cm^3
# Si number density = 19.293320 Si / 1000 Ang^3
#
#
#
# Elastic Constant Matrix: (Units=GPa)
#
#
# Indices 1 2 3 4 5 6 
#
# 1 43.2636 27.2099 42.8838 0.0000 -24.4934 0.0000
# 2 27.2099 156.5857 57.8882 0.0000 -2.4273 0.0000
# 3 42.8838 57.8882 83.7678 0.0000 -12.3537 0.0000
# 4 0.0000 0.0000 0.0000 33.8046 0.0000 1.3103
# 5 -24.4934 -2.4273 -12.3537 0.0000 25.4108 0.0000
# 6 0.0000 0.0000 0.0000 1.3103 0.0000 11.6753
#
#
#
# Elastic Compliance Matrix: (Units=1/GPa)
#
#
# Indices 1 2 3 4 5 6 
#
# 1 0.137551 -0.002728 -0.052803 0.000000 0.106653 0.000000
# 2 -0.002728 0.008750 -0.005294 0.000000 -0.004368 0.000000
# 3 -0.052803 -0.005294 0.037754 0.000000 -0.033048 0.000000
# 4 0.000000 0.000000 0.000000 0.029711 0.000000 -0.003334
# 5 0.106653 -0.004368 -0.033048 0.000000 0.125673 0.000000
# 6 0.000000 0.000000 0.000000 -0.003334 0.000000 0.086025
#
#
# Mechanical properties :
#
#
# Convention : Reuss Voigt Hill
#
# Bulk Modulus (GPa) = 16.02461 59.95344 37.98903
# Shear Modulus (GPa) = 8.80412 24.55382 16.67897
#
# Velocity S-wave (km/s) = 2.13851 3.57130 2.94342
# Velocity P-wave (km/s) = 3.79755 6.93886 5.59326
#
# Compressibility (1/GPa) = 0.06240402
#
# Stress axis : x y z
#
# Youngs Moduli (GPa) = 7.27004 114.28819 26.48693
#
# Poissons Ratio (x) = 0.31179 1.39860
# Poissons Ratio (y) = 0.01983 0.14022
# Poissons Ratio (z) = 0.38388 0.60505
#
# Static dielectric constant tensor:
#      x y z
#    x 1.671260 0.000000 -0.001190 
#    y 0.000000 1.700150 0.000000 
#    z -0.001190 0.000000 1.684730 
# 
# From -- ./inp_files/155177.got.cif
#   From: 2010.05.17/outbox.cif.g08.bks.cpg/sg15_78_cif.got.tgz:155177.got - 2010.06.03 18:47:42.
