data_PCOD9280078
_publ_section_title
;
Structure prediction by ZEFSAII (Michael W. Deem and Ramdas Pophale) SiO2 
 PCOD9280078
Probable space group: C 2/C
;
_chemical_formula_sum "Si O2"
_cell_formula_units_Z 56
_cell_length_a 25.326280
_cell_length_b 10.083984
_cell_length_c 14.390518
_cell_angle_alpha 90.000000
_cell_angle_beta 38.877254
_cell_angle_gamma 90.000000
_cell_volume 2306.748864
_symmetry_space_group_name_H-M "C 2/C"
_symmetry_group_IT_number 15
_symmetry_cell_setting 'monoclinic'
loop_
_space_group_symop_operation_xyz
x,y,z
-x,y,1/2-z
-x,-y,-z
x,-y,1/2+z
1/2+x,1/2+y,z
1/2-x,1/2+y,1/2-z
1/2-x,1/2-y,-z
1/2+x,1/2-y,1/2+z
loop_
_atom_site_type_symbol
_atom_site_label
_atom_site_fract_x
_atom_site_fract_y
_atom_site_fract_z
Si Si1 0.653542 0.397060 0.963708
Si Si2 0.216632 0.636110 0.377844
Si Si3 0.283869 0.946920 0.417487
Si Si4 0.466032 0.794072 0.563947
Si Si5 0.940703 0.156765 0.420611
Si Si6 0.347950 0.216613 0.377250
Si Si7 0.122170 0.563889 0.890012
O O1 0.712578 0.345306 0.799200
O O2 0.708879 0.479938 0.964677
O O3 0.587303 0.506041 0.023172
O O4 0.620599 0.277349 0.070913
O O5 0.242037 0.623911 0.451472
O O6 0.142943 0.748433 0.473901
O O7 0.180453 0.491784 0.392114
O O8 0.329460 0.879480 0.267024
O O9 0.350147 0.058478 0.362789
O O10 0.489693 0.708712 0.443125
O O11 0.398587 0.723634 0.721600
O O12 0.545567 0.839374 0.513525
O O13 0.421013 0.925994 0.585401
O O14 0.000000 0.167608 0.250000
O O15 0.250000 0.250000 0.500000
#
# Coordination Sequence:
#
# PCOD9280078 Si02
#       7
#     8   8   8   8   8   8   8
#     4  10  23  37  60  92 122 159 226 250 305 401
#     4  10  21  36  65  90 123 166 208 268 322 368
#     4   9  18  35  62  88 120 152 204 274 312 359
#     4   9  17  33  61  79 122 161 194 257 323 364
#     4  11  23  39  61  90 129 171 205 257 327 388
#     4   9  18  35  59  83 113 162 213 255 306 372
#     4   8  16  33  54  98 117 145 207 259 311 385
#
# _framework density 24.276591
#
# number of rings (size 3 to 8) (size 9 to 14) (size 15 to 20)
#    0.000    2.571    0.000    3.429    6.000    1.714 
#    0.000    2.143    0.000    0.000    0.000    0.000 
#    0.000    0.000    0.000    0.000    0.000    0.000 
#
# Total GULP energy -156321.501515 kJ/mol
# GULP energy per Si atom -5582.910768 kJ/mol
# Density = 2.422134 g / cm^3
# Si number density = 24.276591 Si / 1000 Ang^3
#
#
#
# Elastic Constant Matrix: (Units=GPa)
#
#
# Indices 1 2 3 4 5 6 
#
# 1 87.9468 24.9048 34.1070 0.0001 34.0203 -0.0001
# 2 24.9048 77.1299 35.4359 0.0005 15.1560 -0.0003
# 3 34.1070 35.4359 152.9040 0.0002 23.2605 -0.0001
# 4 0.0001 0.0005 0.0002 34.3392 -0.0001 13.1230
# 5 34.0203 15.1560 23.2605 -0.0001 30.5013 0.0000
# 6 -0.0001 -0.0003 -0.0001 13.1230 0.0000 32.8862
#
#
#
# Elastic Compliance Matrix: (Units=1/GPa)
#
#
# Indices 1 2 3 4 5 6 
#
# 1 0.020470 -0.002053 -0.000874 0.000000 -0.021146 0.000000
# 2 -0.002053 0.015501 -0.002614 0.000000 -0.003418 0.000000
# 3 -0.000874 -0.002614 0.007913 0.000000 -0.003761 0.000000
# 4 0.000000 0.000000 0.000000 0.034361 0.000000 -0.013712
# 5 -0.021146 -0.003418 -0.003761 0.000000 0.060938 0.000000
# 6 0.000000 0.000000 0.000000 -0.013712 0.000000 0.035879
#
#
# Mechanical properties :
#
#
# Convention : Reuss Voigt Hill
#
# Bulk Modulus (GPa) = 30.48595 56.31956 43.40275
# Shear Modulus (GPa) = 25.37051 34.44753 29.90902
#
# Velocity S-wave (km/s) = 3.23625 3.77100 3.51381
# Velocity P-wave (km/s) = 5.15261 6.49693 5.86342
#
# Compressibility (1/GPa) = 0.03280200
#
# Stress axis : x y z
#
# Youngs Moduli (GPa) = 48.85081 64.51204 126.37529
#
# Poissons Ratio (x) = 0.13247 0.11039
# Poissons Ratio (y) = 0.10031 0.33039
# Poissons Ratio (z) = 0.04267 0.16866
#
# Static dielectric constant tensor:
#      x y z
#    x 2.003120 -0.000010 -0.035600 
#    y -0.000010 6.773310 0.000000 
#    z -0.035600 0.000000 1.934320 
# 
# From -- ./inp_files/181545.got.cif
#   From: 2010.05.17/outbox.cif.g08.bks.cpg/sg15_91_cif.got.tgz:181545.got - 2010.06.03 18:47:42.
