data_PCOD9280367
_publ_section_title
;
Structure prediction by ZEFSAII (Michael W. Deem and Ramdas Pophale) SiO2 
 PCOD9280367
Probable space group: C 2/C
;
_chemical_formula_sum "Si O2"
_cell_formula_units_Z 64
_cell_length_a 11.290206
_cell_length_b 18.836733
_cell_length_c 22.295858
_cell_angle_alpha 90.000000
_cell_angle_beta 41.060826
_cell_angle_gamma 90.000000
_cell_volume 3114.614975
_symmetry_space_group_name_H-M "C 2/C"
_symmetry_group_IT_number 15
_symmetry_cell_setting 'monoclinic'
loop_
_space_group_symop_operation_xyz
x,y,z
-x,y,1/2-z
-x,-y,-z
x,-y,1/2+z
1/2+x,1/2+y,z
1/2-x,1/2+y,1/2-z
1/2-x,1/2-y,-z
1/2+x,1/2-y,1/2+z
loop_
_atom_site_type_symbol
_atom_site_label
_atom_site_fract_x
_atom_site_fract_y
_atom_site_fract_z
Si Si1 0.616620 0.900659 0.972497
Si Si2 0.584632 0.200656 0.583461
Si Si3 0.692423 0.650696 0.890263
Si Si4 0.336749 0.277491 0.764311
Si Si5 0.735393 0.005949 0.708088
Si Si6 0.455021 0.037117 0.419110
Si Si7 0.476727 0.577201 0.192400
Si Si8 0.641035 0.566084 0.450807
O O1 0.525186 0.841407 0.047541
O O2 0.591573 0.972158 0.019530
O O3 0.544549 0.908853 0.932818
O O4 0.831235 0.887226 0.893865
O O5 0.750000 0.250000 0.500000
O O6 0.670541 0.155019 0.605613
O O7 0.414324 0.239789 0.676208
O O8 0.698095 0.724779 0.850830
O O9 0.756952 0.584838 0.823120
O O10 0.495219 0.631987 0.991726
O O11 0.500000 0.278394 0.750000
O O12 0.326817 0.360362 0.750183
O O13 0.586668 0.992071 0.816096
O O14 0.922680 0.985155 0.669026
O O15 0.732961 0.948542 0.655036
O O16 0.274369 0.063848 0.456119
O O17 0.500000 0.546950 0.250000
O O18 0.500000 0.500000 0.500000
#
# Coordination Sequence:
#
# PCOD9280367 Si02
#       8
#     8   8   8   8   8   8   8   8
#     4  11  21  36  57  90 134 161 206 254 330 393
#     4  11  20  35  62  93 124 159 204 272 323 379
#     4  10  21  37  60  93 123 164 216 271 314 379
#     4   9  20  35  61  93 121 157 214 267 324 368
#     4  11  21  37  63  89 128 166 212 268 324 386
#     4  11  23  36  57  93 129 167 202 266 324 388
#     4  11  20  37  60  95 124 165 203 265 332 389
#     4  10  21  37  59  85 121 166 214 264 314 376
#
# _framework density 20.548286999999998
#
# number of rings (size 3 to 8) (size 9 to 14) (size 15 to 20)
#    0.000    1.500    2.500    4.875    0.000    4.000 
#    0.000    0.000    0.000    3.000    0.000    0.000 
#    0.000    0.000    0.000    0.000    0.000    0.000 
#
# Total GULP energy -178404.257328 kJ/mol
# GULP energy per Si atom -5575.133042 kJ/mol
# Density = 2.050152 g / cm^3
# Si number density = 20.548287 Si / 1000 Ang^3
#
#
#
# Elastic Constant Matrix: (Units=GPa)
#
#
# Indices 1 2 3 4 5 6 
#
# 1 105.4425 36.1174 34.4216 0.0007 18.5893 -0.0006
# 2 36.1174 72.6323 26.9104 0.0007 12.8058 -0.0005
# 3 34.4216 26.9104 91.7285 0.0006 19.2739 -0.0003
# 4 0.0007 0.0007 0.0006 44.9080 -0.0005 10.8240
# 5 18.5893 12.8058 19.2739 -0.0005 31.5173 0.0006
# 6 -0.0006 -0.0005 -0.0003 10.8240 0.0006 21.1971
#
#
#
# Elastic Compliance Matrix: (Units=1/GPa)
#
#
# Indices 1 2 3 4 5 6 
#
# 1 0.012599 -0.004621 -0.002530 0.000000 -0.004006 0.000000
# 2 -0.004621 0.017599 -0.002868 0.000000 -0.002671 0.000001
# 3 -0.002530 -0.002868 0.013923 0.000000 -0.005857 0.000000
# 4 0.000000 0.000000 0.000000 0.025393 0.000001 -0.012967
# 5 -0.004006 -0.002671 -0.005857 0.000001 0.038759 -0.000002
# 6 0.000000 0.000001 0.000000 -0.012967 -0.000002 0.053797
#
#
# Mechanical properties :
#
#
# Convention : Reuss Voigt Hill
#
# Bulk Modulus (GPa) = 41.52289 51.63355 46.57822
# Shear Modulus (GPa) = 26.29683 31.01473 28.65578
#
# Velocity S-wave (km/s) = 3.58125 3.88926 3.73843
# Velocity P-wave (km/s) = 6.11161 6.73431 6.43050
#
# Compressibility (1/GPa) = 0.02408310
#
# Stress axis : x y z
#
# Youngs Moduli (GPa) = 79.37097 56.81999 71.82250
#
# Poissons Ratio (x) = 0.26258 0.18174
# Poissons Ratio (y) = 0.36679 0.20596
# Poissons Ratio (z) = 0.20084 0.16294
#
# Static dielectric constant tensor:
#      x y z
#    x 1.728830 0.000000 0.009490 
#    y 0.000000 1.822350 0.000000 
#    z 0.009490 0.000000 1.827220 
# 
# From -- ./inp_files/270831.got.cif
#   From: 2010.05.17/outbox.cif.g08.bks.cpg/sg15_136_cif.got.tgz:270831.got - 2010.06.03 18:47:42.
