data_PCOD9280981
_publ_section_title
;
Structure prediction by ZEFSAII (Michael W. Deem and Ramdas Pophale) SiO2 
 PCOD9280981
Probable space group: C 2/C
;
_chemical_formula_sum "Si O2"
_cell_formula_units_Z 48
_cell_length_a 18.373028
_cell_length_b 6.270194
_cell_length_c 16.655580
_cell_angle_alpha 90.000000
_cell_angle_beta 85.895365
_cell_angle_gamma 90.000000
_cell_volume 1913.841984
_symmetry_space_group_name_H-M "C 2/C"
_symmetry_group_IT_number 15
_symmetry_cell_setting 'monoclinic'
loop_
_space_group_symop_operation_xyz
x,y,z
-x,y,1/2-z
-x,-y,-z
x,-y,1/2+z
1/2+x,1/2+y,z
1/2-x,1/2+y,1/2-z
1/2-x,1/2-y,-z
1/2+x,1/2-y,1/2+z
loop_
_atom_site_type_symbol
_atom_site_label
_atom_site_fract_x
_atom_site_fract_y
_atom_site_fract_z
Si Si1 0.624343 0.099436 0.516184
Si Si2 0.852261 0.693375 0.238103
Si Si3 0.826248 0.790854 0.571595
Si Si4 0.948864 0.101096 0.603892
Si Si5 0.217456 0.379036 0.155516
Si Si6 0.110311 0.835238 0.096187
O O1 0.667110 0.960946 0.444181
O O2 0.587543 0.909551 0.571370
O O3 0.573518 0.259372 0.472298
O O4 0.677477 0.201440 0.578797
O O5 0.921776 0.753300 0.179758
O O6 0.840974 0.456598 0.273883
O O7 0.779778 0.745494 0.193346
O O8 0.858772 0.839524 0.317238
O O9 0.832177 0.876314 0.479214
O O10 0.899149 0.889200 0.605552
O O11 0.760356 0.907136 0.620967
O O12 0.033372 0.047851 0.600485
#
# Coordination Sequence:
#
# PCOD9280981 Si02
#       6
#     8   8   8   8   8   8
#     4   9  21  35  59  81 109 144 181 236 261 325
#     4  10  23  34  59  79 115 148 173 236 274 328
#     4   9  21  35  58  80 108 145 183 229 265 324
#     4  11  20  37  59  84 107 148 189 216 281 327
#     4  10  21  38  52  87 108 145 191 214 291 317
#     4   9  20  38  56  81 115 144 180 232 272 318
#
# _framework density 25.080439999999999
#
# number of rings (size 3 to 8) (size 9 to 14) (size 15 to 20)
#    1.000    1.333    0.000    2.000    2.333    4.000 
#    0.000    0.000    0.000    2.000    0.000    0.000 
#    0.000    0.000    0.000    0.000    0.000    0.000 
#
# Total GULP energy -133993.383435 kJ/mol
# GULP energy per Si atom -5583.057643 kJ/mol
# Density = 2.502336 g / cm^3
# Si number density = 25.080440 Si / 1000 Ang^3
#
#
#
# Elastic Constant Matrix: (Units=GPa)
#
#
# Indices 1 2 3 4 5 6 
#
# 1 79.5477 3.7846 44.7932 0.0000 4.5115 0.0000
# 2 3.7846 42.5103 33.0788 0.0000 1.0143 0.0000
# 3 44.7932 33.0788 128.9623 0.0000 -1.8280 0.0000
# 4 0.0000 0.0000 0.0000 35.1096 0.0000 -4.3407
# 5 4.5115 1.0143 -1.8280 0.0000 48.2127 0.0000
# 6 0.0000 0.0000 0.0000 -4.3407 0.0000 21.8354
#
#
#
# Elastic Compliance Matrix: (Units=1/GPa)
#
#
# Indices 1 2 3 4 5 6 
#
# 1 0.016228 0.003755 -0.006626 0.000000 -0.001849 0.000000
# 2 0.003755 0.030298 -0.009095 0.000000 -0.001334 0.000000
# 3 -0.006626 -0.009095 0.012407 0.000000 0.001282 0.000000
# 4 0.000000 0.000000 0.000000 0.029200 0.000000 0.005805
# 5 -0.001849 -0.001334 0.001282 0.000000 0.020991 0.000000
# 6 0.000000 0.000000 0.000000 0.005805 0.000000 0.046951
#
#
# Mechanical properties :
#
#
# Convention : Reuss Voigt Hill
#
# Bulk Modulus (GPa) = 28.56960 46.03706 37.30333
# Shear Modulus (GPa) = 26.08597 32.32247 29.20422
#
# Velocity S-wave (km/s) = 3.22854 3.59381 3.41607
# Velocity P-wave (km/s) = 5.03129 5.96794 5.51952
#
# Compressibility (1/GPa) = 0.03500223
#
# Stress axis : x y z
#
# Youngs Moduli (GPa) = 61.62015 33.00526 80.60159
#
# Poissons Ratio (x) = -0.12395 0.53408
# Poissons Ratio (y) = -0.23141 0.73305
# Poissons Ratio (z) = 0.40831 0.30018
#
# Static dielectric constant tensor:
#      x y z
#    x 1.928880 0.000000 0.017160 
#    y 0.000000 2.101170 0.000000 
#    z 0.017160 0.000000 1.988820 
# 
# From -- ./inp_files/208688.got.cif
#   From: 2010.05.17/outbox.cif.g08.bks.cpg/sg15_105_cif.got.tgz:208688.got - 2010.06.03 18:47:42.
