data_PCOD9280045
_publ_section_title
;
Structure prediction by ZEFSAII (Michael W. Deem and Ramdas Pophale) SiO2 
 PCOD9280045
Probable space group: C 2/C
;
_chemical_formula_sum "Si O2"
_cell_formula_units_Z 48
_cell_length_a 12.073393
_cell_length_b 22.807611
_cell_length_c 10.635278
_cell_angle_alpha 90.000000
_cell_angle_beta 54.946896
_cell_angle_gamma 90.000000
_cell_volume 2397.399300
_symmetry_space_group_name_H-M "C 2/C"
_symmetry_group_IT_number 15
_symmetry_cell_setting 'monoclinic'
loop_
_space_group_symop_operation_xyz
x,y,z
-x,y,1/2-z
-x,-y,-z
x,-y,1/2+z
1/2+x,1/2+y,z
1/2-x,1/2+y,1/2-z
1/2-x,1/2-y,-z
1/2+x,1/2-y,1/2+z
loop_
_atom_site_type_symbol
_atom_site_label
_atom_site_fract_x
_atom_site_fract_y
_atom_site_fract_z
Si Si1 0.585668 0.488721 0.321727
Si Si2 0.092387 0.236724 0.063999
Si Si3 0.430859 0.961102 0.929529
Si Si4 0.525948 0.859715 0.428178
Si Si5 0.741250 0.062224 0.431376
Si Si6 0.813129 0.124826 0.619981
O O1 0.500000 0.489908 0.250000
O O2 0.500000 0.500000 0.500000
O O3 0.690648 0.543534 0.242602
O O4 0.647856 0.424149 0.303722
O O5 0.000000 0.224240 0.250000
O O6 0.025347 0.293451 0.042333
O O7 0.250000 0.250000 0.000000
O O8 0.105097 0.184663 0.953152
O O9 0.500000 0.964821 0.750000
O O10 0.423489 0.894421 0.980801
O O11 0.500000 0.000000 0.000000
O O12 0.294869 0.997354 0.995817
O O13 0.392318 0.898053 0.485467
O O14 0.653172 0.863647 0.250325
O O15 0.832598 0.094838 0.471354
#
# Coordination Sequence:
#
# PCOD9280045 Si02
#       6
#     8   8   8   8   8   8
#     4  12  27  43  62  98 139 184 222 274 359 425
#     4  12  24  42  69 100 140 185 241 288 341 413
#     4  10  21  36  64 102 138 170 219 283 348 410
#     4  11  22  41  66 106 132 179 233 287 348 411
#     4  11  21  38  68  98 136 170 217 286 350 414
#     4  12  24  43  70  99 142 174 233 298 343 417
#
# _framework density 20.021697
#
# number of rings (size 3 to 8) (size 9 to 14) (size 15 to 20)
#    0.000    0.667    6.667    2.500    4.667    0.667 
#    0.000    0.833    0.000    2.000    0.000    0.000 
#    0.000    0.000    0.000    0.000    0.000    0.000 
#
# Total GULP energy -133614.691638 kJ/mol
# GULP energy per Si atom -5567.278818 kJ/mol
# Density = 1.997613 g / cm^3
# Si number density = 20.021697 Si / 1000 Ang^3
#
#
#
# Elastic Constant Matrix: (Units=GPa)
#
#
# Indices 1 2 3 4 5 6 
#
# 1 44.2350 46.7015 30.7077 0.0000 -9.6116 0.0000
# 2 46.7015 155.7973 56.3257 0.0000 -2.8439 0.0000
# 3 30.7077 56.3257 157.8876 0.0000 -10.6542 0.0000
# 4 0.0000 0.0000 0.0000 39.4451 0.0000 -5.3520
# 5 -9.6116 -2.8439 -10.6542 0.0000 28.5291 0.0000
# 6 0.0000 0.0000 0.0000 -5.3520 0.0000 39.9719
#
#
#
# Elastic Compliance Matrix: (Units=1/GPa)
#
#
# Indices 1 2 3 4 5 6 
#
# 1 0.037505 -0.009954 -0.003034 0.000000 0.010510 0.000000
# 2 -0.009954 0.010012 -0.001841 0.000000 -0.003043 0.000000
# 3 -0.003034 -0.001841 0.007693 0.000000 0.001667 0.000000
# 4 0.000000 0.000000 0.000000 0.025821 0.000000 0.003457
# 5 0.010510 -0.003043 0.001667 0.000000 0.038912 0.000000
# 6 0.000000 0.000000 0.000000 0.003457 0.000000 0.025480
#
#
# Mechanical properties :
#
#
# Convention : Reuss Voigt Hill
#
# Bulk Modulus (GPa) = 39.13533 69.48772 54.31152
# Shear Modulus (GPa) = 27.23305 36.53490 31.88397
#
# Velocity S-wave (km/s) = 3.69206 4.27636 3.99491
# Velocity P-wave (km/s) = 6.14524 7.69185 6.96163
#
# Compressibility (1/GPa) = 0.02555236
#
# Stress axis : x y z
#
# Youngs Moduli (GPa) = 26.66285 99.87564 129.98582
#
# Poissons Ratio (x) = 0.99413 0.39441
# Poissons Ratio (y) = 0.26539 0.23935
# Poissons Ratio (z) = 0.08090 0.18390
#
# Static dielectric constant tensor:
#      x y z
#    x 1.856450 0.000000 -0.059190 
#    y 0.000000 1.742830 0.000000 
#    z -0.059190 0.000000 1.861070 
# 
# From -- ./inp_files/99295.got.cif
#   From: 2010.05.17/outbox.cif.g08.bks.cpg/sg15_50_cif.got.tgz:99295.got - 2010.06.03 18:47:42.
