data_PCOD9280991
_publ_section_title
;
Structure prediction by ZEFSAII (Michael W. Deem and Ramdas Pophale) SiO2 
 PCOD9280991
Probable space group: C 2/C
;
_chemical_formula_sum "Si O2"
_cell_formula_units_Z 56
_cell_length_a 15.140094
_cell_length_b 32.207860
_cell_length_c 5.147603
_cell_angle_alpha 90.000000
_cell_angle_beta 99.715908
_cell_angle_gamma 90.000000
_cell_volume 2474.122183
_symmetry_space_group_name_H-M "C 2/C"
_symmetry_group_IT_number 15
_symmetry_cell_setting 'monoclinic'
loop_
_space_group_symop_operation_xyz
x,y,z
-x,y,1/2-z
-x,-y,-z
x,-y,1/2+z
1/2+x,1/2+y,z
1/2-x,1/2+y,1/2-z
1/2-x,1/2-y,-z
1/2+x,1/2-y,1/2+z
loop_
_atom_site_type_symbol
_atom_site_label
_atom_site_fract_x
_atom_site_fract_y
_atom_site_fract_z
Si Si1 0.256357 0.587562 0.573881
Si Si2 0.168816 0.271096 0.613840
Si Si3 0.404336 0.702720 0.552376
Si Si4 0.500000 0.902394 0.250000
Si Si5 0.185076 0.366505 0.539790
Si Si6 0.606336 0.972634 0.023691
Si Si7 0.936315 0.889363 0.972225
Si Si8 0.000000 0.259606 0.250000
O O1 0.247475 0.617448 0.826793
O O2 0.205899 0.545335 0.616297
O O3 0.354571 0.580533 0.501276
O O4 0.201931 0.606796 0.305201
O O5 0.250000 0.250000 0.500000
O O6 0.157038 0.234772 0.823598
O O7 0.200994 0.319080 0.636923
O O8 0.062353 0.281503 0.489474
O O9 0.500000 0.700713 0.750000
O O10 0.386781 0.655740 0.462462
O O11 0.423708 0.728656 0.307385
O O12 0.583601 0.875561 0.393443
O O13 0.542897 0.933726 0.060608
O O14 0.594308 0.008073 0.234700
O O15 0.000000 0.892820 0.750000
O O16 0.000000 0.891270 0.250000
#
# Coordination Sequence:
#
# PCOD9280991 Si02
#       8
#     8   8   8   4   8   8   8   4
#     4  11  25  43  65 100 133 165 217 274 337 398
#     4  11  24  38  60  86 121 179 224 275 343 392
#     4   9  20  37  57  85 115 159 226 273 323 381
#     4  10  23  44  68 102 136 176 226 258 332 394
#     4  11  25  42  61  94 139 175 217 281 331 391
#     4  11  23  42  71 100 133 172 212 264 322 411
#     4  11  22  40  69  93 125 171 221 281 331 388
#     4  10  21  38  54  80 116 154 226 276 316 382
#
# _framework density 22.634291999999999
#
# number of rings (size 3 to 8) (size 9 to 14) (size 15 to 20)
#    0.000    1.429    0.714    4.286    4.000    5.143 
#    7.714    0.000    0.000    2.571    0.000    0.000 
#    0.000    0.000    0.000    0.000    0.000    0.000 
#
# Total GULP energy -155944.548597 kJ/mol
# GULP energy per Si atom -5569.448164 kJ/mol
# Density = 2.258277 g / cm^3
# Si number density = 22.634292 Si / 1000 Ang^3
#
#
#
# Elastic Constant Matrix: (Units=GPa)
#
#
# Indices 1 2 3 4 5 6 
#
# 1 134.7130 31.8508 25.0010 0.0000 -20.3591 0.0000
# 2 31.8508 69.3216 4.5798 0.0000 -18.3396 0.0000
# 3 25.0010 4.5798 89.2378 0.0000 -30.1507 0.0000
# 4 0.0000 0.0000 0.0000 -1.8514 0.0000 -54.1091
# 5 -20.3591 -18.3396 -30.1507 0.0000 39.5345 0.0000
# 6 0.0000 0.0000 0.0000 -54.1091 0.0000 -211.7238
#
#
#
# Elastic Compliance Matrix: (Units=1/GPa)
#
#
# Indices 1 2 3 4 5 6 
#
# 1 0.008819 -0.003522 -0.001761 0.000000 0.001565 0.000000
# 2 -0.003522 0.018219 0.003091 0.000000 0.008995 0.000000
# 3 -0.001761 0.003091 0.015787 0.000000 0.012566 0.000000
# 4 0.000000 0.000000 0.000000 0.083494 0.000000 -0.021338
# 5 0.001565 0.008995 0.012566 0.000000 0.039857 0.000000
# 6 0.000000 0.000000 0.000000 -0.021338 0.000000 0.000730
#
#
# Mechanical properties :
#
#
# Convention : Reuss Voigt Hill
#
# Bulk Modulus (GPa) = 26.01437 46.23731 36.12584
# Shear Modulus (GPa) = 27.15862 -19.35211 3.90325
#
# Velocity S-wave (km/s) = 3.46770 -2.92719 1.31462
# Velocity P-wave (km/s) = 5.24896 3.00794 4.27781
#
# Compressibility (1/GPa) = 0.03844030
#
# Stress axis : x y z
#
# Youngs Moduli (GPa) = 113.38870 54.88700 63.34476
#
# Poissons Ratio (x) = 0.19330 0.11158
# Poissons Ratio (y) = 0.39933 -0.19579
# Poissons Ratio (z) = 0.19973 -0.16965
#
# Static dielectric constant tensor:
#      x y z
#    x 1.490350 0.000000 -0.184010 
#    y 0.000000 1.843100 0.000000 
#    z -0.184010 0.000000 2.172430 
# 
# From -- ./inp_files/9082.got.cif
#   From: 2010.05.17/outbox.cif.g08.bks.cpg/sg15_5_cif.got.tgz:9082.got - 2010.06.03 18:47:42.
