data_PCOD9280305
_publ_section_title
;
Structure prediction by ZEFSAII (Michael W. Deem and Ramdas Pophale) SiO2 
 PCOD9280305
Probable space group: C 2/C
;
_chemical_formula_sum "Si O2"
_cell_formula_units_Z 48
_cell_length_a 12.310989
_cell_length_b 6.803705
_cell_length_c 27.852982
_cell_angle_alpha 90.000000
_cell_angle_beta 102.415016
_cell_angle_gamma 90.000000
_cell_volume 2278.420803
_symmetry_space_group_name_H-M "C 2/C"
_symmetry_group_IT_number 15
_symmetry_cell_setting 'monoclinic'
loop_
_space_group_symop_operation_xyz
x,y,z
-x,y,1/2-z
-x,-y,-z
x,-y,1/2+z
1/2+x,1/2+y,z
1/2-x,1/2+y,1/2-z
1/2-x,1/2-y,-z
1/2+x,1/2-y,1/2+z
loop_
_atom_site_type_symbol
_atom_site_label
_atom_site_fract_x
_atom_site_fract_y
_atom_site_fract_z
Si Si1 0.407722 0.191844 0.781373
Si Si2 0.966551 0.190074 0.467066
Si Si3 0.632909 0.067732 0.133664
Si Si4 0.754210 0.201420 0.387540
Si Si5 0.578766 0.056219 0.448463
Si Si6 0.288335 0.449643 0.302747
O O1 0.500000 0.163669 0.750000
O O2 0.389491 0.420188 0.792258
O O3 0.292605 0.114125 0.747529
O O4 0.425972 0.070306 0.831763
O O5 0.877988 0.141636 0.417386
O O6 0.906866 0.336449 0.499395
O O7 0.067683 0.321468 0.455795
O O8 0.000000 0.000000 0.500000
O O9 0.542032 0.113427 0.084619
O O10 0.674896 0.259450 0.164401
O O11 0.731877 0.933862 0.121197
O O12 0.669455 0.131424 0.419811
O O13 0.728583 0.093546 0.335237
#
# Coordination Sequence:
#
# PCOD9280305 Si02
#       6
#     8   8   8   8   8   8
#     4  11  23  39  60  86 116 155 200 249 306 364
#     4  10  21  37  58  86 121 152 200 246 291 361
#     4  10  22  39  58  84 120 151 197 253 294 361
#     4  10  22  37  59  86 118 155 199 246 297 363
#     4  10  21  38  58  86 117 158 195 243 305 349
#     4  11  22  40  59  86 119 152 201 251 300 366
#
# _framework density 21.067222000000001
#
# number of rings (size 3 to 8) (size 9 to 14) (size 15 to 20)
#    0.000    1.667    1.667    2.500    0.000    4.000 
#    0.000    0.000    0.000    0.000    0.000    0.000 
#    0.000    0.000    0.000    0.000    0.000    0.000 
#
# Total GULP energy -134065.545936 kJ/mol
# GULP energy per Si atom -5586.064414 kJ/mol
# Density = 2.101927 g / cm^3
# Si number density = 21.067222 Si / 1000 Ang^3
#
#
#
# Elastic Constant Matrix: (Units=GPa)
#
#
# Indices 1 2 3 4 5 6 
#
# 1 38.1367 21.8571 8.0502 0.0000 -23.2338 0.0000
# 2 21.8571 85.4343 8.0204 0.0000 -0.2082 0.0000
# 3 8.0502 8.0204 85.7223 0.0000 -5.3567 0.0000
# 4 0.0000 0.0000 0.0000 52.7064 0.0000 -1.9535
# 5 -23.2338 -0.2082 -5.3567 0.0000 44.1409 0.0000
# 6 0.0000 0.0000 0.0000 -1.9535 0.0000 13.1873
#
#
#
# Elastic Compliance Matrix: (Units=1/GPa)
#
#
# Indices 1 2 3 4 5 6 
#
# 1 0.049382 -0.012395 -0.001871 0.000000 0.025707 0.000000
# 2 -0.012395 0.014920 -0.000640 0.000000 -0.006532 0.000000
# 3 -0.001871 -0.000640 0.011930 0.000000 0.000460 0.000000
# 4 0.000000 0.000000 0.000000 0.019078 0.000000 0.002826
# 5 0.025707 -0.006532 0.000460 0.000000 0.036211 0.000000
# 6 0.000000 0.000000 0.000000 0.002826 0.000000 0.076249
#
#
# Mechanical properties :
#
#
# Convention : Reuss Voigt Hill
#
# Bulk Modulus (GPa) = 21.54319 31.68320 26.61319
# Shear Modulus (GPa) = 19.75853 33.43130 26.59492
#
# Velocity S-wave (km/s) = 3.06581 3.98790 3.55686
# Velocity P-wave (km/s) = 4.77288 6.02297 5.43399
#
# Compressibility (1/GPa) = 0.04641838
#
# Stress axis : x y z
#
# Youngs Moduli (GPa) = 20.25049 67.02319 83.82277
#
# Poissons Ratio (x) = 0.83077 0.15686
# Poissons Ratio (y) = 0.25101 0.05365
# Poissons Ratio (z) = 0.03790 0.04290
#
# Static dielectric constant tensor:
#      x y z
#    x 1.734460 0.000000 -0.011020 
#    y 0.000000 1.778660 0.000000 
#    z -0.011020 0.000000 1.733730 
# 
# From -- ./inp_files/294432.got.cif
#   From: 2010.05.17/outbox.cif.g08.bks.cpg/sg15_148_cif.got.tgz:294432.got - 2010.06.03 18:47:42.
