data_PCOD9280783
_publ_section_title
;
Structure prediction by ZEFSAII (Michael W. Deem and Ramdas Pophale) SiO2 
 PCOD9280783
Probable space group: C 2/C
;
_chemical_formula_sum "Si O2"
_cell_formula_units_Z 48
_cell_length_a 12.159587
_cell_length_b 7.841759
_cell_length_c 20.882246
_cell_angle_alpha 90.000000
_cell_angle_beta 59.368954
_cell_angle_gamma 90.000000
_cell_volume 1713.338898
_symmetry_space_group_name_H-M "C 2/C"
_symmetry_group_IT_number 15
_symmetry_cell_setting 'monoclinic'
loop_
_space_group_symop_operation_xyz
x,y,z
-x,y,1/2-z
-x,-y,-z
x,-y,1/2+z
1/2+x,1/2+y,z
1/2-x,1/2+y,1/2-z
1/2-x,1/2-y,-z
1/2+x,1/2-y,1/2+z
loop_
_atom_site_type_symbol
_atom_site_label
_atom_site_fract_x
_atom_site_fract_y
_atom_site_fract_z
Si Si1 0.500000 0.245643 0.750000
Si Si2 0.605702 0.595278 0.114342
Si Si3 0.219475 0.437194 0.534399
Si Si4 0.612315 0.527818 0.897681
Si Si5 0.274123 0.783453 0.725611
Si Si6 0.500000 0.316037 0.250000
Si Si7 0.455213 0.095763 0.076315
O O1 0.397925 0.241311 0.839403
O O2 0.620762 0.283775 0.765873
O O3 0.500242 0.594736 0.090324
O O4 0.562964 0.442402 0.176995
O O5 0.735111 0.560138 0.037344
O O6 0.250000 0.250000 0.500000
O O7 0.299283 0.460697 0.573963
O O8 0.953688 0.203755 0.561709
O O9 0.069981 0.440597 0.590711
O O10 0.692496 0.593088 0.812672
O O11 0.379368 0.785209 0.753307
O O12 0.326704 0.919834 0.656478
O O13 0.500000 0.000000 0.000000
#
# Coordination Sequence:
#
# PCOD9280783 Si02
#       7
#     4   8   8   8   8   4   8
#     4  11  22  40  66  91 132 179 225 274 344 409
#     4  10  21  37  63  95 127 172 225 281 336 416
#     4  12  21  38  68  98 127 176 225 284 358 410
#     4   9  22  42  60  97 140 165 232 291 338 426
#     4   9  21  43  63  95 133 179 229 284 347 413
#     4   9  18  42  62  87 134 175 225 282 322 433
#     4  10  22  41  63  94 139 172 225 291 357 410
#
# _framework density 28.015471999999999
#
# number of rings (size 3 to 8) (size 9 to 14) (size 15 to 20)
#    1.000    1.000    1.667    1.500    0.000    3.333 
#    0.000    5.000    0.000    2.000    0.000    0.000 
#    0.000    0.000    0.000    0.000    0.000    0.000 
#
# Total GULP energy -133701.842701 kJ/mol
# GULP energy per Si atom -5570.910113 kJ/mol
# Density = 2.795171 g / cm^3
# Si number density = 28.015472 Si / 1000 Ang^3
#
#
#
# Elastic Constant Matrix: (Units=GPa)
#
#
# Indices 1 2 3 4 5 6 
#
# 1 238.7717 37.5467 39.0099 0.0000 -9.8363 0.0000
# 2 37.5467 65.1689 15.3213 0.0000 17.3635 0.0000
# 3 39.0099 15.3213 96.6128 0.0000 -9.2181 0.0000
# 4 0.0000 0.0000 0.0000 33.8491 0.0000 14.4337
# 5 -9.8363 17.3635 -9.2181 0.0000 57.4239 0.0000
# 6 0.0000 0.0000 0.0000 14.4337 0.0000 41.3466
#
#
#
# Elastic Compliance Matrix: (Units=1/GPa)
#
#
# Indices 1 2 3 4 5 6 
#
# 1 0.004936 -0.002919 -0.001386 0.000000 0.001505 0.000000
# 2 -0.002919 0.019434 -0.002551 0.000000 -0.006786 0.000000
# 3 -0.001386 -0.002551 0.011543 0.000000 0.002387 0.000000
# 4 0.000000 0.000000 0.000000 0.034710 0.000000 -0.012117
# 5 0.001505 -0.006786 0.002387 0.000000 0.020107 0.000000
# 6 0.000000 0.000000 0.000000 -0.012117 0.000000 0.028416
#
#
# Mechanical properties :
#
#
# Convention : Reuss Voigt Hill
#
# Bulk Modulus (GPa) = 45.04443 64.92322 54.98382
# Shear Modulus (GPa) = 35.64886 47.10228 41.37557
#
# Velocity S-wave (km/s) = 3.57104 4.10481 3.84719
# Velocity P-wave (km/s) = 5.75469 6.75946 6.27721
#
# Compressibility (1/GPa) = 0.02220030
#
# Stress axis : x y z
#
# Youngs Moduli (GPa) = 202.60980 51.45593 86.63542
#
# Poissons Ratio (x) = 0.15019 0.12011
# Poissons Ratio (y) = 0.59138 0.22100
# Poissons Ratio (z) = 0.28089 0.13126
#
# Static dielectric constant tensor:
#      x y z
#    x 2.161160 0.000000 -0.002290 
#    y 0.000000 2.353540 0.000000 
#    z -0.002290 0.000000 2.355460 
# 
# From -- ./inp_files/268400.got.cif
#   From: 2010.05.17/outbox.cif.g08.bks.cpg/sg15_135_cif.got.tgz:268400.got - 2010.06.03 18:47:42.
