data_PCOD9280985
_publ_section_title
;
Structure prediction by ZEFSAII (Michael W. Deem and Ramdas Pophale) SiO2 
 PCOD9280985
Probable space group: C 2/C
;
_chemical_formula_sum "Si O2"
_cell_formula_units_Z 40
_cell_length_a 11.518582
_cell_length_b 30.973214
_cell_length_c 5.287551
_cell_angle_alpha 90.000000
_cell_angle_beta 81.951581
_cell_angle_gamma 90.000000
_cell_volume 1867.845276
_symmetry_space_group_name_H-M "C 2/C"
_symmetry_group_IT_number 15
_symmetry_cell_setting 'monoclinic'
loop_
_space_group_symop_operation_xyz
x,y,z
-x,y,1/2-z
-x,-y,-z
x,-y,1/2+z
1/2+x,1/2+y,z
1/2-x,1/2+y,1/2-z
1/2-x,1/2-y,-z
1/2+x,1/2-y,1/2+z
loop_
_atom_site_type_symbol
_atom_site_label
_atom_site_fract_x
_atom_site_fract_y
_atom_site_fract_z
Si Si1 0.136974 0.019035 0.759322
Si Si2 0.826864 0.723317 0.278176
Si Si3 0.719355 0.611481 0.876602
Si Si4 0.869008 0.627049 0.341670
Si Si5 0.894437 0.196753 0.477549
O O1 0.150506 0.066891 0.865486
O O2 0.000000 0.009517 0.750000
O O3 0.188837 0.011739 0.463058
O O4 0.750000 0.750000 0.500000
O O5 0.878739 0.679359 0.370919
O O6 0.730377 0.705523 0.113746
O O7 0.909585 0.758134 0.118316
O O8 0.812970 0.611924 0.621030
O O9 0.784741 0.615533 0.128508
O O10 0.631703 0.652489 0.866356
O O11 0.000000 0.610570 0.250000
O O12 0.000000 0.190516 0.250000
#
# Coordination Sequence:
#
# PCOD9280985 Si02
#       5
#     8   8   8   8   8
#     4  10  22  41  69  99 129 165 200 249 332 404
#     4  10  21  38  53  83 122 165 220 258 307 368
#     4  11  23  43  63  96 129 160 216 268 314 386
#     4  11  24  40  66  88 127 176 220 265 316 370
#     4  10  23  36  57  85 123 166 209 264 317 368
#
# _framework density 21.415047999999999
#
# number of rings (size 3 to 8) (size 9 to 14) (size 15 to 20)
#    0.000    1.600    2.000    1.800    2.800    5.600 
#    0.000    0.000    0.000   12.000    0.000    0.000 
#    0.000    0.000    0.000    0.000    0.000    0.000 
#
# Total GULP energy -111565.353504 kJ/mol
# GULP energy per Si atom -5578.267675 kJ/mol
# Density = 2.136631 g / cm^3
# Si number density = 21.415048 Si / 1000 Ang^3
#
#
#
# Elastic Constant Matrix: (Units=GPa)
#
#
# Indices 1 2 3 4 5 6 
#
# 1 43.5188 -4.2870 11.0017 0.0000 -0.9821 0.0000
# 2 -4.2870 81.5583 22.0977 0.0000 18.1307 0.0000
# 3 11.0017 22.0977 105.2554 0.0000 -3.5557 0.0000
# 4 0.0000 0.0000 0.0000 10.3119 0.0000 -28.2903
# 5 -0.9821 18.1307 -3.5557 0.0000 38.1455 0.0000
# 6 0.0000 0.0000 0.0000 -28.2903 0.0000 -31.3513
#
#
#
# Elastic Compliance Matrix: (Units=1/GPa)
#
#
# Indices 1 2 3 4 5 6 
#
# 1 0.023939 0.002231 -0.002995 0.000000 -0.000723 0.000000
# 2 0.002231 0.015012 -0.003635 0.000000 -0.007417 0.000000
# 3 -0.002995 -0.003635 0.010666 0.000000 0.002645 0.000000
# 4 0.000000 0.000000 0.000000 0.027902 0.000000 -0.025178
# 5 -0.000723 -0.007417 0.002645 0.000000 0.029969 0.000000
# 6 0.000000 0.000000 0.000000 -0.025178 0.000000 -0.009177
#
#
# Mechanical properties :
#
#
# Convention : Reuss Voigt Hill
#
# Bulk Modulus (GPa) = 24.49900 31.99524 28.24712
# Shear Modulus (GPa) = 41.41948 16.85592 29.13770
#
# Velocity S-wave (km/s) = 4.40265 2.80858 3.69266
# Velocity P-wave (km/s) = 6.10813 5.04881 5.60356
#
# Compressibility (1/GPa) = 0.04081799
#
# Stress axis : x y z
#
# Youngs Moduli (GPa) = 41.77269 66.61257 93.75304
#
# Poissons Ratio (x) = -0.14858 0.28078
# Poissons Ratio (y) = -0.09317 0.34083
# Poissons Ratio (z) = 0.12511 0.24216
#
# Static dielectric constant tensor:
#      x y z
#    x 1.765750 0.000000 0.007520 
#    y 0.000000 1.656810 0.000000 
#    z 0.007520 0.000000 1.840620 
# 
# From -- ./inp_files/4917.got.cif
#   From: 2010.05.17/outbox.cif.g08.bks.cpg/sg15_3_cif.got.tgz:4917.got - 2010.06.03 18:47:42.
