data_PCOD9280863
_publ_section_title
;
Structure prediction by ZEFSAII (Michael W. Deem and Ramdas Pophale) SiO2 
 PCOD9280863
Probable space group: C 2/C
;
_chemical_formula_sum "Si O2"
_cell_formula_units_Z 56
_cell_length_a 19.352195
_cell_length_b 13.340168
_cell_length_c 19.630880
_cell_angle_alpha 90.000000
_cell_angle_beta 151.603252
_cell_angle_gamma 90.000000
_cell_volume 2410.181002
_symmetry_space_group_name_H-M "C 2/C"
_symmetry_group_IT_number 15
_symmetry_cell_setting 'monoclinic'
loop_
_space_group_symop_operation_xyz
x,y,z
-x,y,1/2-z
-x,-y,-z
x,-y,1/2+z
1/2+x,1/2+y,z
1/2-x,1/2+y,1/2-z
1/2-x,1/2-y,-z
1/2+x,1/2-y,1/2+z
loop_
_atom_site_type_symbol
_atom_site_label
_atom_site_fract_x
_atom_site_fract_y
_atom_site_fract_z
Si Si1 0.792547 0.623338 0.472687
Si Si2 0.607596 0.303677 0.405565
Si Si3 0.555817 0.271699 0.699602
Si Si4 0.602316 0.470656 0.906555
Si Si5 0.236916 0.842069 0.227659
Si Si6 0.508073 0.217075 0.452764
Si Si7 0.337114 0.042732 0.358938
O O1 0.657728 0.700727 0.351432
O O2 0.757636 0.558393 0.508415
O O3 0.791065 0.565007 0.397648
O O4 0.938531 0.685051 0.603302
O O5 0.500000 0.314500 0.250000
O O6 0.750000 0.250000 0.500000
O O7 0.618646 0.416023 0.447481
O O8 0.535868 0.232108 0.398578
O O9 0.467932 0.378069 0.611142
O O10 0.673724 0.221177 0.750893
O O11 0.500000 0.476967 0.750000
O O12 0.338563 0.814861 0.381732
O O13 0.067456 0.815120 0.081401
O O14 0.246020 0.962585 0.237883
O O15 0.371542 0.144049 0.349012
O O16 0.500000 0.000000 0.500000
#
# Coordination Sequence:
#
# PCOD9280863 Si02
#       7
#     8   8   8   8   8   8   8
#     4  11  21  40  65  92 124 163 214 249 314 370
#     4  11  25  44  64  89 123 167 211 256 306 374
#     4  11  20  40  61  97 124 160 206 259 309 369
#     4   9  23  39  65  88 123 173 208 248 310 383
#     4  11  22  39  65  93 124 163 205 256 310 373
#     4  11  23  40  64  93 122 162 207 256 306 366
#     4  10  21  37  65  91 121 168 206 246 310 379
#
# _framework density 23.234770000000001
#
# number of rings (size 3 to 8) (size 9 to 14) (size 15 to 20)
#    0.000    1.429    4.286    1.286   10.000    0.000 
#    0.000    8.571    0.000    0.857    0.000    0.000 
#    0.000    0.000    0.000    0.000    0.000    0.000 
#
# Total GULP energy -156030.720190 kJ/mol
# GULP energy per Si atom -5572.525721 kJ/mol
# Density = 2.318189 g / cm^3
# Si number density = 23.234770 Si / 1000 Ang^3
#
#
#
# Elastic Constant Matrix: (Units=GPa)
#
#
# Indices 1 2 3 4 5 6 
#
# 1 105.7682 18.5820 5.7861 0.0006 14.1370 0.0002
# 2 18.5820 52.7520 11.1074 0.0011 -2.6213 0.0002
# 3 5.7861 11.1074 42.9260 0.0009 24.5049 0.0002
# 4 0.0006 0.0011 0.0009 34.6517 0.0003 -1.6543
# 5 14.1370 -2.6213 24.5049 0.0003 34.8283 0.0000
# 6 0.0002 0.0002 0.0002 -1.6543 0.0000 29.5055
#
#
#
# Elastic Compliance Matrix: (Units=1/GPa)
#
#
# Indices 1 2 3 4 5 6 
#
# 1 0.011225 -0.005304 0.004493 0.000000 -0.008117 0.000000
# 2 -0.005304 0.024234 -0.013079 0.000000 0.013179 0.000000
# 3 0.004493 -0.013079 0.046257 -0.000001 -0.035354 0.000000
# 4 0.000000 0.000000 -0.000001 0.028936 0.000000 0.001622
# 5 -0.008117 0.013179 -0.035354 0.000000 0.057873 0.000000
# 6 0.000000 0.000000 0.000000 0.001622 0.000000 0.033983
#
#
# Mechanical properties :
#
#
# Convention : Reuss Voigt Hill
#
# Bulk Modulus (GPa) = 18.54043 30.26635 24.40339
# Shear Modulus (GPa) = 20.13963 30.86183 25.50073
#
# Velocity S-wave (km/s) = 2.94732 3.64848 3.31648
# Velocity P-wave (km/s) = 4.42484 5.55006 5.01908
#
# Compressibility (1/GPa) = 0.05393618
#
# Stress axis : x y z
#
# Youngs Moduli (GPa) = 89.08291 41.26502 21.61843
#
# Poissons Ratio (x) = 0.21885 -0.09713
# Poissons Ratio (y) = 0.47245 0.28275
# Poissons Ratio (z) = -0.40023 0.53971
#
# Static dielectric constant tensor:
#      x y z
#    x 1.965330 0.000000 0.004170 
#    y 0.000000 2.240610 0.000000 
#    z 0.004170 0.000000 1.859060 
# 
# From -- ./inp_files/280004.got.cif
#   From: 2010.05.17/outbox.cif.g08.bks.cpg/sg15_141_cif.got.tgz:280004.got - 2010.06.03 18:47:42.
