data_PCOD9280243
_publ_section_title
;
Structure prediction by ZEFSAII (Michael W. Deem and Ramdas Pophale) SiO2 
 PCOD9280243
Probable space group: C 2/C
;
_chemical_formula_sum "Si O2"
_cell_formula_units_Z 32
_cell_length_a 4.814817
_cell_length_b 25.267283
_cell_length_c 10.256194
_cell_angle_alpha 90.000000
_cell_angle_beta 76.424136
_cell_angle_gamma 90.000000
_cell_volume 1212.879387
_symmetry_space_group_name_H-M "C 2/C"
_symmetry_group_IT_number 15
_symmetry_cell_setting 'monoclinic'
loop_
_space_group_symop_operation_xyz
x,y,z
-x,y,1/2-z
-x,-y,-z
x,-y,1/2+z
1/2+x,1/2+y,z
1/2-x,1/2+y,1/2-z
1/2-x,1/2-y,-z
1/2+x,1/2-y,1/2+z
loop_
_atom_site_type_symbol
_atom_site_label
_atom_site_fract_x
_atom_site_fract_y
_atom_site_fract_z
Si Si1 0.620482 0.792791 0.873970
Si Si2 0.029537 0.817276 0.049826
Si Si3 0.744453 0.542791 0.126030
Si Si4 0.829365 0.067275 0.950174
O O1 0.500000 0.813074 0.750000
O O2 0.355929 0.799439 0.000577
O O3 0.886320 0.818724 0.919712
O O4 0.652540 0.728838 0.860259
O O5 0.073019 0.875000 0.103959
O O6 0.500000 0.563075 0.250000
O O7 0.606507 0.549439 0.999423
O O8 0.056033 0.568724 0.080288
O O9 0.762798 0.478838 0.139741
#
# Coordination Sequence:
#
# PCOD9280243 Si02
#       4
#     8   8   8   8
#     4  10  21  37  57  83 115 150 192 241 292 353
#     4  10  21  37  57  83 115 150 192 241 292 353
#     4  10  21  37  57  83 115 150 192 241 292 353
#     4  10  21  37  57  83 115 150 192 241 292 353
#
# _framework density 26.383500000000002
#
# number of rings (size 3 to 8) (size 9 to 14) (size 15 to 20)
#    0.000    2.000    0.000    3.000    0.000    5.000 
#    0.000    0.000    0.000   18.000    0.000    0.000 
#    0.000    0.000    0.000    0.000    0.000    0.000 
#
# Total GULP energy -89265.970553 kJ/mol
# GULP energy per Si atom -5579.123160 kJ/mol
# Density = 2.632345 g / cm^3
# Si number density = 26.383500 Si / 1000 Ang^3
#
#
#
# Elastic Constant Matrix: (Units=GPa)
#
#
# Indices 1 2 3 4 5 6 
#
# 1 189.6162 18.8496 35.4383 0.0000 3.0435 0.0000
# 2 18.8496 155.9890 16.9090 0.0000 0.0741 0.0000
# 3 35.4383 16.9090 71.0663 0.0000 1.4431 0.0000
# 4 0.0000 0.0000 0.0000 1.2419 0.0000 0.9731
# 5 3.0435 0.0741 1.4431 0.0000 36.9366 0.0000
# 6 0.0000 0.0000 0.0000 0.9731 0.0000 26.9502
#
#
#
# Elastic Compliance Matrix: (Units=1/GPa)
#
#
# Indices 1 2 3 4 5 6 
#
# 1 0.005845 -0.000401 -0.002812 0.000000 -0.000371 0.000000
# 2 -0.000401 0.006608 -0.001374 0.000000 0.000073 0.000000
# 3 -0.002812 -0.001374 0.015808 0.000000 -0.000383 0.000000
# 4 0.000000 0.000000 0.000000 0.828697 0.000000 -0.029922
# 5 -0.000371 0.000073 -0.000383 0.000000 0.027119 0.000000
# 6 0.000000 0.000000 0.000000 -0.029922 0.000000 0.038186
#
#
# Mechanical properties :
#
#
# Convention : Reuss Voigt Hill
#
# Bulk Modulus (GPa) = 52.38928 62.11835 57.25381
# Shear Modulus (GPa) = 5.33163 36.05737 20.69450
#
# Velocity S-wave (km/s) = 1.42310 3.70085 2.80370
# Velocity P-wave (km/s) = 4.75397 6.46972 5.67704
#
# Compressibility (1/GPa) = 0.01908788
#
# Stress axis : x y z
#
# Youngs Moduli (GPa) = 171.08152 151.33008 63.25868
#
# Poissons Ratio (x) = 0.06074 0.17787
# Poissons Ratio (y) = 0.06867 0.08689
# Poissons Ratio (z) = 0.48104 0.20787
#
# Static dielectric constant tensor:
#      x y z
#    x 1.967090 0.000000 -0.008470 
#    y 0.000000 2.391530 0.000000 
#    z -0.008470 0.000000 2.190880 
# 
# From -- ./inp_files/72268.got.cif
#   From: 2010.05.17/outbox.cif.g08.bks.cpg/sg15_37_cif.got.tgz:72268.got - 2010.06.03 18:47:42.
