data_PCOD9280051
_publ_section_title
;
Structure prediction by ZEFSAII (Michael W. Deem and Ramdas Pophale) SiO2 
 PCOD9280051
Probable space group: C 2/C
;
_chemical_formula_sum "Si O2"
_cell_formula_units_Z 40
_cell_length_a 20.730415
_cell_length_b 8.482573
_cell_length_c 9.645593
_cell_angle_alpha 90.000000
_cell_angle_beta 63.120269
_cell_angle_gamma 90.000000
_cell_volume 1512.894729
_symmetry_space_group_name_H-M "C 2/C"
_symmetry_group_IT_number 15
_symmetry_cell_setting 'monoclinic'
loop_
_space_group_symop_operation_xyz
x,y,z
-x,y,1/2-z
-x,-y,-z
x,-y,1/2+z
1/2+x,1/2+y,z
1/2-x,1/2+y,1/2-z
1/2-x,1/2-y,-z
1/2+x,1/2-y,1/2+z
loop_
_atom_site_type_symbol
_atom_site_label
_atom_site_fract_x
_atom_site_fract_y
_atom_site_fract_z
Si Si1 0.919198 0.655478 0.640957
Si Si2 0.787429 0.009100 0.034588
Si Si3 0.226256 0.651898 0.838720
Si Si4 0.053899 0.678184 0.321325
Si Si5 0.085404 0.000743 0.386471
O O1 0.860493 0.632034 0.575519
O O2 0.912868 0.494979 0.733967
O O3 0.902233 0.833710 0.707074
O O4 0.001597 0.662414 0.506780
O O5 0.756335 0.174289 0.125557
O O6 0.868817 0.007802 0.015949
O O7 0.748444 0.872442 0.158154
O O8 0.765670 0.022664 0.896128
O O9 0.000000 0.716836 0.250000
O O10 0.102070 0.832109 0.299934
O O11 0.000000 0.000000 0.500000
#
# Coordination Sequence:
#
# PCOD9280051 Si02
#       5
#     8   8   8   8   8
#     4   9  21  40  56  90 126 156 208 261 310 376
#     4  10  23  41  63  94 128 170 212 264 320 381
#     4  10  23  41  63  91 132 165 213 264 319 385
#     4  10  21  36  64  89 117 165 209 255 320 371
#     4   9  20  40  60  87 125 163 207 263 316 369
#
# _framework density 26.439381000000001
#
# number of rings (size 3 to 8) (size 9 to 14) (size 15 to 20)
#    0.000    2.400    0.000    0.000    5.600    6.400 
#    0.000    4.000    0.000    0.000    0.000    0.000 
#    0.000    0.000    0.000    0.000    0.000    0.000 
#
# Total GULP energy -111749.909929 kJ/mol
# GULP energy per Si atom -5587.495496 kJ/mol
# Density = 2.637920 g / cm^3
# Si number density = 26.439381 Si / 1000 Ang^3
#
#
#
# Elastic Constant Matrix: (Units=GPa)
#
#
# Indices 1 2 3 4 5 6 
#
# 1 114.3245 55.1669 10.5357 0.0000 -4.2890 0.0000
# 2 55.1669 217.6542 35.0229 0.0000 18.4138 0.0000
# 3 10.5357 35.0229 47.1675 0.0000 7.4198 0.0000
# 4 0.0000 0.0000 0.0000 26.3737 0.0000 2.8406
# 5 -4.2890 18.4138 7.4198 0.0000 38.8153 0.0000
# 6 0.0000 0.0000 0.0000 2.8406 0.0000 50.7671
#
#
#
# Elastic Compliance Matrix: (Units=1/GPa)
#
#
# Indices 1 2 3 4 5 6 
#
# 1 0.010203 -0.002691 -0.000679 0.000000 0.002534 0.000000
# 2 -0.002691 0.006051 -0.003499 0.000000 -0.002499 0.000000
# 3 -0.000679 -0.003499 0.024436 0.000000 -0.003086 0.000000
# 4 0.000000 0.000000 0.000000 0.038146 0.000000 -0.002134
# 5 0.002534 -0.002499 -0.003086 0.000000 0.027819 0.000000
# 6 0.000000 0.000000 0.000000 -0.002134 0.000000 0.019817
#
#
# Mechanical properties :
#
#
# Convention : Reuss Voigt Hill
#
# Bulk Modulus (GPa) = 37.10331 64.51080 50.80705
# Shear Modulus (GPa) = 33.51310 41.75261 37.63286
#
# Velocity S-wave (km/s) = 3.56412 3.97820 3.77684
# Velocity P-wave (km/s) = 5.56786 6.74937 6.18688
#
# Compressibility (1/GPa) = 0.02695178
#
# Stress axis : x y z
#
# Youngs Moduli (GPa) = 98.00709 165.26279 40.92293
#
# Poissons Ratio (x) = 0.44476 0.02780
# Poissons Ratio (y) = 0.26376 0.14318
# Poissons Ratio (z) = 0.06659 0.57821
#
# Static dielectric constant tensor:
#      x y z
#    x 2.038000 0.000000 -0.057660 
#    y 0.000000 2.096400 0.000000 
#    z -0.057660 0.000000 2.094270 
# 
# From -- ./inp_files/109547.got.cif
#   From: 2010.05.17/outbox.cif.g08.bks.cpg/sg15_55_cif.got.tgz:109547.got - 2010.06.03 18:47:42.
