data_PCOD9280725
_publ_section_title
;
Structure prediction by ZEFSAII (Michael W. Deem and Ramdas Pophale) SiO2 
 PCOD9280725
Probable space group: C 2/C
;
_chemical_formula_sum "Si O2"
_cell_formula_units_Z 40
_cell_length_a 21.271359
_cell_length_b 14.251894
_cell_length_c 15.539317
_cell_angle_alpha 90.000000
_cell_angle_beta 159.975519
_cell_angle_gamma 90.000000
_cell_volume 1613.098631
_symmetry_space_group_name_H-M "C 2/C"
_symmetry_group_IT_number 15
_symmetry_cell_setting 'monoclinic'
loop_
_space_group_symop_operation_xyz
x,y,z
-x,y,1/2-z
-x,-y,-z
x,-y,1/2+z
1/2+x,1/2+y,z
1/2-x,1/2+y,1/2-z
1/2-x,1/2-y,-z
1/2+x,1/2-y,1/2+z
loop_
_atom_site_type_symbol
_atom_site_label
_atom_site_fract_x
_atom_site_fract_y
_atom_site_fract_z
Si Si1 0.022141 0.806893 0.181826
Si Si2 0.362048 0.342220 0.680579
Si Si3 0.100553 0.690558 0.967697
Si Si4 0.109177 0.639159 0.162983
Si Si5 0.331782 0.965869 0.601694
O O1 0.000000 0.763904 0.250000
O O2 0.053652 0.728811 0.150062
O O3 0.189636 0.880740 0.398662
O O4 0.826680 0.857300 0.922687
O O5 0.250000 0.250000 0.500000
O O6 0.305053 0.340486 0.707172
O O7 0.566910 0.302969 0.931023
O O8 0.298042 0.441562 0.563555
O O9 0.000000 0.657306 0.750000
O O10 0.028500 0.648537 0.963636
O O11 0.081279 0.554177 0.192632
O O12 0.500000 0.967462 0.750000
#
# Coordination Sequence:
#
# PCOD9280725 Si02
#       5
#     8   8   8   8   8
#     4  10  21  37  63 100 135 167 215 276 333 394
#     4  10  22  42  63  87 127 173 215 270 326 382
#     4  10  22  42  64  89 129 173 219 268 320 387
#     4  11  21  39  66  97 130 176 218 266 334 398
#     4  11  22  40  66  99 134 169 217 278 333 393
#
# _framework density 24.796996
#
# number of rings (size 3 to 8) (size 9 to 14) (size 15 to 20)
#    0.000    1.600    0.000    7.200    0.000    7.200 
#    0.000   17.000    0.000    0.000    0.000    0.000 
#    0.000    0.000    0.000    0.000    0.000    0.000 
#
# Total GULP energy -111462.830618 kJ/mol
# GULP energy per Si atom -5573.141531 kJ/mol
# Density = 2.474056 g / cm^3
# Si number density = 24.796996 Si / 1000 Ang^3
#
#
#
# Elastic Constant Matrix: (Units=GPa)
#
#
# Indices 1 2 3 4 5 6 
#
# 1 218.0725 71.0680 46.9182 -0.0001 -21.7509 -0.0001
# 2 71.0680 163.6132 25.5114 0.0000 -4.4577 0.0000
# 3 46.9182 25.5114 63.3783 -0.0001 2.8153 -0.0001
# 4 -0.0001 0.0000 -0.0001 24.5007 -0.0001 5.6919
# 5 -21.7509 -4.4577 2.8153 -0.0001 52.2482 -0.0001
# 6 -0.0001 0.0000 -0.0001 5.6919 -0.0001 14.5171
#
#
#
# Elastic Compliance Matrix: (Units=1/GPa)
#
#
# Indices 1 2 3 4 5 6 
#
# 1 0.006397 -0.002078 -0.004019 0.000000 0.002702 0.000000
# 2 -0.002078 0.007222 -0.001361 0.000000 -0.000176 0.000000
# 3 -0.004019 -0.001361 0.019427 0.000000 -0.002836 0.000000
# 4 0.000000 0.000000 0.000000 0.044905 0.000000 -0.017607
# 5 0.002702 -0.000176 -0.002836 0.000000 0.020402 0.000000
# 6 0.000000 0.000000 0.000000 -0.017607 0.000000 0.075788
#
#
# Mechanical properties :
#
#
# Convention : Reuss Voigt Hill
#
# Bulk Modulus (GPa) = 55.15687 81.33990 68.24838
# Shear Modulus (GPa) = 25.62760 38.35762 31.99261
#
# Velocity S-wave (km/s) = 3.21829 3.93729 3.59581
# Velocity P-wave (km/s) = 6.00845 7.31732 6.69495
#
# Compressibility (1/GPa) = 0.01813011
#
# Stress axis : x y z
#
# Youngs Moduli (GPa) = 156.31723 138.46299 51.47385
#
# Poissons Ratio (x) = 0.28778 0.20689
# Poissons Ratio (y) = 0.32489 0.07004
# Poissons Ratio (z) = 0.62827 0.18840
#
# Static dielectric constant tensor:
#      x y z
#    x 2.102260 0.000000 0.121990 
#    y 0.000000 2.008860 0.000000 
#    z 0.121990 0.000000 2.472650 
# 
# From -- ./inp_files/219635.got.cif
#   From: 2010.05.17/outbox.cif.g08.bks.cpg/sg15_110_cif.got.tgz:219635.got - 2010.06.03 18:47:42.
