data_PCOD9280103
_publ_section_title
;
Structure prediction by ZEFSAII (Michael W. Deem and Ramdas Pophale) SiO2 
 PCOD9280103
Probable space group: C 2/C
;
_chemical_formula_sum "Si O2"
_cell_formula_units_Z 48
_cell_length_a 7.126309
_cell_length_b 18.475284
_cell_length_c 19.312998
_cell_angle_alpha 90.000000
_cell_angle_beta 112.351677
_cell_angle_gamma 90.000000
_cell_volume 2351.715588
_symmetry_space_group_name_H-M "C 2/C"
_symmetry_group_IT_number 15
_symmetry_cell_setting 'monoclinic'
loop_
_space_group_symop_operation_xyz
x,y,z
-x,y,1/2-z
-x,-y,-z
x,-y,1/2+z
1/2+x,1/2+y,z
1/2-x,1/2+y,1/2-z
1/2-x,1/2-y,-z
1/2+x,1/2-y,1/2+z
loop_
_atom_site_type_symbol
_atom_site_label
_atom_site_fract_x
_atom_site_fract_y
_atom_site_fract_z
Si Si1 0.722276 0.244210 0.783156
Si Si2 0.037234 0.635671 0.337480
Si Si3 0.953321 0.527212 0.661120
Si Si4 0.389758 0.629422 0.898250
Si Si5 0.608147 0.716090 0.040089
Si Si6 0.288861 0.841577 0.359507
O O1 0.500000 0.277863 0.750000
O O2 0.722258 0.177644 0.835624
O O3 0.771428 0.207151 0.715990
O O4 0.878394 0.302168 0.835333
O O5 0.009292 0.554323 0.359933
O O6 0.254416 0.665216 0.391739
O O7 0.000000 0.632361 0.250000
O O8 0.720648 0.552148 0.614457
O O9 0.000000 0.528550 0.750000
O O10 0.102207 0.584950 0.646930
O O11 0.590401 0.637675 0.877672
O O12 0.444952 0.666735 0.978589
O O13 0.561403 0.788160 0.076965
O O14 0.750000 0.750000 0.000000
#
# Coordination Sequence:
#
# PCOD9280103 Si02
#       6
#     8   8   8   8   8   8
#     4  12  20  38  67  93 117 163 218 256 296 370
#     4  11  22  42  61  89 128 157 203 263 305 358
#     4  11  24  39  60  94 126 157 206 255 307 367
#     4  11  21  39  65  92 123 157 212 247 300 379
#     4  10  21  36  67  90 116 168 207 246 305 365
#     4  11  20  39  64  91 117 167 199 253 310 345
#
# _framework density 20.410629
#
# number of rings (size 3 to 8) (size 9 to 14) (size 15 to 20)
#    0.000    1.000    8.333    0.500    0.000    1.333 
#    6.000    3.333    0.000    0.000    0.000    0.000 
#    0.000    0.000    0.000    0.000    0.000    0.000 
#
# Total GULP energy -133845.620686 kJ/mol
# GULP energy per Si atom -5576.900862 kJ/mol
# Density = 2.036417 g / cm^3
# Si number density = 20.410629 Si / 1000 Ang^3
#
#
#
# Elastic Constant Matrix: (Units=GPa)
#
#
# Indices 1 2 3 4 5 6 
#
# 1 59.4704 13.8787 -3.7279 0.0000 3.2882 0.0000
# 2 13.8787 123.3649 2.7498 0.0000 -5.3195 0.0000
# 3 -3.7279 2.7498 71.8187 0.0000 6.6661 0.0000
# 4 0.0000 0.0000 0.0000 -35.8498 0.0000 10.3510
# 5 3.2882 -5.3195 6.6661 0.0000 24.9619 0.0000
# 6 0.0000 0.0000 0.0000 10.3510 0.0000 19.8085
#
#
#
# Elastic Compliance Matrix: (Units=1/GPa)
#
#
# Indices 1 2 3 4 5 6 
#
# 1 0.017567 -0.002139 0.001283 0.000000 -0.003112 0.000000
# 2 -0.002139 0.008458 -0.000644 0.000000 0.002256 0.000000
# 3 0.001283 -0.000644 0.014401 0.000000 -0.004152 0.000000
# 4 0.000000 0.000000 0.000000 -0.024237 0.000000 0.012665
# 5 -0.003112 0.002256 -0.004152 0.000000 0.042061 0.000000
# 6 0.000000 0.000000 0.000000 0.012665 0.000000 0.043865
#
#
# Mechanical properties :
#
#
# Convention : Reuss Voigt Hill
#
# Bulk Modulus (GPa) = 26.72071 31.16170 28.94120
# Shear Modulus (GPa) = 42.52049 17.90102 30.21075
#
# Velocity S-wave (km/s) = 4.56922 2.96471 3.85144
# Velocity P-wave (km/s) = 6.39976 5.19806 5.82996
#
# Compressibility (1/GPa) = 0.03742415
#
# Stress axis : x y z
#
# Youngs Moduli (GPa) = 56.92565 118.22651 69.44165
#
# Poissons Ratio (x) = 0.25290 -0.08907
# Poissons Ratio (y) = 0.12177 0.04474
# Poissons Ratio (z) = -0.07301 0.07618
#
# Static dielectric constant tensor:
#      x y z
#    x 1.791670 0.000000 -0.016060 
#    y 0.000000 1.718360 0.000000 
#    z -0.016060 0.000000 1.749280 
# 
# From -- ./inp_files/232317.got.cif
#   From: 2010.05.17/outbox.cif.g08.bks.cpg/sg15_117_cif.got.tgz:232317.got - 2010.06.03 18:47:42.
