data_PCOD9280355
_publ_section_title
;
Structure prediction by ZEFSAII (Michael W. Deem and Ramdas Pophale) SiO2 
 PCOD9280355
Probable space group: C 2/C
;
_chemical_formula_sum "Si O2"
_cell_formula_units_Z 64
_cell_length_a 16.208315
_cell_length_b 19.701765
_cell_length_c 10.220376
_cell_angle_alpha 90.000000
_cell_angle_beta 117.225216
_cell_angle_gamma 90.000000
_cell_volume 2902.129006
_symmetry_space_group_name_H-M "C 2/C"
_symmetry_group_IT_number 15
_symmetry_cell_setting 'monoclinic'
loop_
_space_group_symop_operation_xyz
x,y,z
-x,y,1/2-z
-x,-y,-z
x,-y,1/2+z
1/2+x,1/2+y,z
1/2-x,1/2+y,1/2-z
1/2-x,1/2-y,-z
1/2+x,1/2-y,1/2+z
loop_
_atom_site_type_symbol
_atom_site_label
_atom_site_fract_x
_atom_site_fract_y
_atom_site_fract_z
Si Si1 0.205482 0.044136 0.724780
Si Si2 0.397063 0.198835 0.901754
Si Si3 0.299911 0.298145 0.301897
Si Si4 0.902221 0.660713 0.442773
Si Si5 0.342126 0.560329 0.518971
Si Si6 0.139711 0.608532 0.368402
Si Si7 0.907355 0.194994 0.616588
Si Si8 0.894352 0.508381 0.475292
O O1 0.179201 0.121442 0.666409
O O2 0.154618 0.995265 0.588187
O O3 0.316316 0.025826 0.821727
O O4 0.173549 0.030163 0.849355
O O5 0.496612 0.176098 0.925461
O O6 0.374313 0.151633 0.010838
O O7 0.398668 0.271467 0.970612
O O8 0.309142 0.201022 0.745647
O O9 0.346600 0.232262 0.402953
O O10 0.327239 0.290421 0.166063
O O11 0.909868 0.639164 0.293706
O O12 0.868789 0.588020 0.475013
O O13 0.249196 0.604436 0.418942
O O14 0.419867 0.616010 0.594563
O O15 0.110859 0.533438 0.393299
O O16 0.000000 0.222480 0.750000
O O17 0.000000 0.500000 0.500000
#
# Coordination Sequence:
#
# PCOD9280355 Si02
#       8
#     8   8   8   8   8   8   8   8
#     4  10  21  39  57  86 120 161 194 254 294 357
#     4  12  19  31  53  87 120 150 189 249 312 346
#     4  11  21  35  53  84 118 151 193 247 300 353
#     4  12  22  33  58  83 115 155 191 246 304 359
#     4  10  21  37  59  83 121 157 201 242 306 347
#     4  11  19  33  52  83 118 148 184 243 292 355
#     4  11  19  32  54  87 119 145 195 255 305 348
#     4  11  21  32  50  86 118 150 191 237 305 362
#
# _framework density 22.052776999999999
#
# number of rings (size 3 to 8) (size 9 to 14) (size 15 to 20)
#    0.000    1.000    8.750    1.500    0.000    0.000 
#    0.000    2.500    0.000    3.000    3.250    0.000 
#    0.000    0.000    0.000    0.000    0.000    0.000 
#
# Total GULP energy -178407.504605 kJ/mol
# GULP energy per Si atom -5575.234519 kJ/mol
# Density = 2.200258 g / cm^3
# Si number density = 22.052777 Si / 1000 Ang^3
#
#
#
# Elastic Constant Matrix: (Units=GPa)
#
#
# Indices 1 2 3 4 5 6 
#
# 1 17.4444 32.7395 7.2934 0.0000 8.6871 0.0000
# 2 32.7395 131.0203 35.9195 0.0000 3.4228 0.0000
# 3 7.2934 35.9195 44.7537 0.0000 2.4041 0.0000
# 4 0.0000 0.0000 0.0000 31.5135 0.0000 -2.2853
# 5 8.6871 3.4228 2.4041 0.0000 15.8864 0.0000
# 6 0.0000 0.0000 0.0000 -2.2853 0.0000 26.7000
#
#
#
# Elastic Compliance Matrix: (Units=1/GPa)
#
#
# Indices 1 2 3 4 5 6 
#
# 1 0.191803 -0.049055 0.013288 0.000000 -0.096325 0.000000
# 2 -0.049055 0.022345 -0.011213 0.000000 0.023707 0.000000
# 3 0.013288 -0.011213 0.029681 0.000000 -0.009342 0.000000
# 4 0.000000 0.000000 0.000000 0.031931 0.000000 0.002733
# 5 -0.096325 0.023707 -0.009342 0.000000 0.111926 0.000000
# 6 0.000000 0.000000 0.000000 0.002733 0.000000 0.037687
#
#
# Mechanical properties :
#
#
# Convention : Reuss Voigt Hill
#
# Bulk Modulus (GPa) = 6.67249 38.34703 22.50976
# Shear Modulus (GPa) = 8.78289 22.63770 15.71030
#
# Velocity S-wave (km/s) = 1.99783 3.20742 2.67197
# Velocity P-wave (km/s) = 2.89033 5.58061 4.44394
#
# Compressibility (1/GPa) = 0.14986904
#
# Stress axis : x y z
#
# Youngs Moduli (GPa) = 5.21368 44.75260 33.69179
#
# Poissons Ratio (x) = 2.19532 -0.44770
# Poissons Ratio (y) = 0.25575 0.37780
# Poissons Ratio (z) = -0.06928 0.50183
#
# Static dielectric constant tensor:
#      x y z
#    x 1.954560 0.000000 0.042910 
#    y 0.000000 1.891120 0.000000 
#    z 0.042910 0.000000 1.843530 
# 
# From -- ./inp_files/107330.got.cif
#   From: 2010.05.17/outbox.cif.g08.bks.cpg/sg15_54_cif.got.tgz:107330.got - 2010.06.03 18:47:42.
