data_PCOD9280067
_publ_section_title
;
Structure prediction by ZEFSAII (Michael W. Deem and Ramdas Pophale) SiO2 
 PCOD9280067
Probable space group: C 2/C
;
_chemical_formula_sum "Si O2"
_cell_formula_units_Z 36
_cell_length_a 15.616331
_cell_length_b 18.470210
_cell_length_c 5.531350
_cell_angle_alpha 90.000000
_cell_angle_beta 117.058022
_cell_angle_gamma 90.000000
_cell_volume 1420.818140
_symmetry_space_group_name_H-M "C 2/C"
_symmetry_group_IT_number 15
_symmetry_cell_setting 'monoclinic'
loop_
_space_group_symop_operation_xyz
x,y,z
-x,y,1/2-z
-x,-y,-z
x,-y,1/2+z
1/2+x,1/2+y,z
1/2-x,1/2+y,1/2-z
1/2-x,1/2-y,-z
1/2+x,1/2-y,1/2+z
loop_
_atom_site_type_symbol
_atom_site_label
_atom_site_fract_x
_atom_site_fract_y
_atom_site_fract_z
Si Si1 0.500000 0.663524 0.250000
Si Si2 0.172915 0.518643 0.238361
Si Si3 0.360441 0.775208 0.185416
Si Si4 0.117347 0.036885 0.538452
Si Si5 0.177431 0.319055 0.864122
O O1 0.429128 0.708334 0.328812
O O2 0.573416 0.615858 0.501003
O O3 0.121588 0.492847 0.416478
O O4 0.267737 0.468424 0.333675
O O5 0.211450 0.601365 0.320687
O O6 0.365755 0.827194 0.422568
O O7 0.250000 0.750000 0.000000
O O8 0.389488 0.799714 0.951811
O O9 0.088225 0.991939 0.736196
O O10 0.250000 0.250000 0.000000
#
# Coordination Sequence:
#
# PCOD9280067 Si02
#       5
#     4   8   8   8   8
#     4  12  26  44  66 102 140 180 218 280 338 414
#     4  10  21  36  64  94 134 170 222 268 336 399
#     4  10  25  40  65  89 134 181 223 268 324 398
#     4  10  24  37  60  94 141 174 208 260 343 417
#     4  10  22  39  64  90 134 179 228 264 322 400
#
# _framework density 25.337515
#
# number of rings (size 3 to 8) (size 9 to 14) (size 15 to 20)
#    0.000    1.778    0.000    2.000   24.889    2.667 
#    0.000    0.000    0.000    0.000    0.000   15.556 
#    0.000    0.000    0.000    0.000    0.000    0.000 
#
# Total GULP energy -100396.725255 kJ/mol
# GULP energy per Si atom -5577.595848 kJ/mol
# Density = 2.527985 g / cm^3
# Si number density = 25.337515 Si / 1000 Ang^3
#
#
#
# Elastic Constant Matrix: (Units=GPa)
#
#
# Indices 1 2 3 4 5 6 
#
# 1 74.1705 32.4608 32.0084 0.0000 -6.3131 0.0000
# 2 32.4608 112.7039 20.5436 0.0000 0.0122 0.0000
# 3 32.0084 20.5436 184.0541 0.0000 -65.0343 0.0000
# 4 0.0000 0.0000 0.0000 30.4786 0.0000 -4.9835
# 5 -6.3131 0.0122 -65.0343 0.0000 40.3582 0.0000
# 6 0.0000 0.0000 0.0000 -4.9835 0.0000 44.3378
#
#
#
# Elastic Compliance Matrix: (Units=1/GPa)
#
#
# Indices 1 2 3 4 5 6 
#
# 1 0.016535 -0.004127 -0.003485 0.000000 -0.003028 0.000000
# 2 -0.004127 0.010344 -0.001547 0.000000 -0.003141 0.000000
# 3 -0.003485 -0.001547 0.013979 0.000000 0.021981 0.000000
# 4 0.000000 0.000000 0.000000 0.033424 0.000000 0.003757
# 5 -0.003028 -0.003141 0.021981 0.000000 0.059726 0.000000
# 6 0.000000 0.000000 0.000000 0.003757 0.000000 0.022976
#
#
# Mechanical properties :
#
#
# Convention : Reuss Voigt Hill
#
# Bulk Modulus (GPa) = 44.36428 60.10600 52.23514
# Shear Modulus (GPa) = 27.35021 42.09595 34.72308
#
# Velocity S-wave (km/s) = 3.28904 4.08046 3.70594
# Velocity P-wave (km/s) = 5.65430 6.78040 6.24279
#
# Compressibility (1/GPa) = 0.02254066
#
# Stress axis : x y z
#
# Youngs Moduli (GPa) = 60.47899 96.67743 71.53742
#
# Poissons Ratio (x) = 0.39897 0.24928
# Poissons Ratio (y) = 0.24958 0.11065
# Poissons Ratio (z) = 0.21075 0.14954
#
# Static dielectric constant tensor:
#      x y z
#    x 2.118700 0.000000 -0.108200 
#    y 0.000000 2.047910 0.000000 
#    z -0.108200 0.000000 2.121540 
# 
# From -- ./inp_files/9934.got.cif
#   From: 2010.05.17/outbox.cif.g08.bks.cpg/sg15_5_cif.got.tgz:9934.got - 2010.06.03 18:47:42.
