data_PCOD9280454
_publ_section_title
;
Structure prediction by ZEFSAII (Michael W. Deem and Ramdas Pophale) SiO2 
 PCOD9280454
Probable space group: C 2/C
;
_chemical_formula_sum "Si O2"
_cell_formula_units_Z 56
_cell_length_a 12.419319
_cell_length_b 23.354711
_cell_length_c 14.368032
_cell_angle_alpha 90.000000
_cell_angle_beta 41.402681
_cell_angle_gamma 90.000000
_cell_volume 2756.125129
_symmetry_space_group_name_H-M "C 2/C"
_symmetry_group_IT_number 15
_symmetry_cell_setting 'monoclinic'
loop_
_space_group_symop_operation_xyz
x,y,z
-x,y,1/2-z
-x,-y,-z
x,-y,1/2+z
1/2+x,1/2+y,z
1/2-x,1/2+y,1/2-z
1/2-x,1/2-y,-z
1/2+x,1/2-y,1/2+z
loop_
_atom_site_type_symbol
_atom_site_label
_atom_site_fract_x
_atom_site_fract_y
_atom_site_fract_z
Si Si1 0.091289 0.664064 0.548595
Si Si2 0.691519 0.921393 0.630197
Si Si3 0.906841 0.975435 0.971414
Si Si4 0.237843 0.638175 0.650123
Si Si5 0.191949 0.705812 0.112283
Si Si6 0.170686 0.106987 0.250733
Si Si7 0.519684 0.710966 0.439151
O O1 0.177770 0.667608 0.593021
O O2 0.196685 0.624006 0.411941
O O3 0.913198 0.637619 0.682810
O O4 0.058887 0.728403 0.533892
O O5 0.500000 0.934861 0.750000
O O6 0.720590 0.859934 0.564539
O O7 0.745185 0.908786 0.703663
O O8 0.794529 0.971586 0.515129
O O9 0.043964 0.945106 0.819281
O O10 0.793944 0.924448 0.083166
O O11 0.000000 0.000000 0.000000
O O12 0.391535 0.675195 0.585047
O O13 0.304755 0.718523 0.127861
O O14 0.000000 0.711478 0.250000
O O15 0.250000 0.750000 0.000000
O O16 0.060627 0.164661 0.332267
#
# Coordination Sequence:
#
# PCOD9280454 Si02
#       7
#     8   8   8   8   8   8   8
#     4  11  22  35  61  91 130 157 205 253 313 365
#     4   9  19  36  65  88 116 162 202 242 312 364
#     4   9  19  40  63  81 115 164 204 248 306 362
#     4  10  23  38  60  91 121 167 203 254 311 364
#     4  10  23  39  63  92 124 160 202 254 309 363
#     4   9  20  38  60  89 121 161 200 257 301 364
#     4  10  21  37  60  87 128 164 205 247 312 374
#
# _framework density 20.318380999999999
#
# number of rings (size 3 to 8) (size 9 to 14) (size 15 to 20)
#    0.000    2.286    0.000    2.143   10.000    3.429 
#    0.000    2.857    6.286    0.000    0.000    0.000 
#    0.000    0.000    0.000    0.000    0.000    0.000 
#
# Total GULP energy -156116.539301 kJ/mol
# GULP energy per Si atom -5575.590689 kJ/mol
# Density = 2.027214 g / cm^3
# Si number density = 20.318381 Si / 1000 Ang^3
#
#
#
# Elastic Constant Matrix: (Units=GPa)
#
#
# Indices 1 2 3 4 5 6 
#
# 1 47.1880 43.1433 32.7666 0.0006 -12.9768 -0.0002
# 2 43.1433 157.0207 83.2209 0.0005 -16.5336 -0.0004
# 3 32.7666 83.2209 162.5316 0.0026 -16.9592 -0.0012
# 4 0.0006 0.0005 0.0026 24.9079 -0.0014 -18.2549
# 5 -12.9768 -16.5336 -16.9592 -0.0014 26.5060 0.0006
# 6 -0.0002 -0.0004 -0.0012 -18.2549 0.0006 14.8429
#
#
#
# Elastic Compliance Matrix: (Units=1/GPa)
#
#
# Indices 1 2 3 4 5 6 
#
# 1 0.031226 -0.006510 -0.001919 -0.000001 0.009999 -0.000002
# 2 -0.006510 0.010292 -0.003879 0.000003 0.000751 0.000003
# 3 -0.001919 -0.003879 0.008760 -0.000003 0.002246 -0.000003
# 4 -0.000001 0.000003 -0.000003 0.407052 0.000008 0.500622
# 5 0.009999 0.000751 0.002246 0.000008 0.044528 0.000008
# 6 -0.000002 0.000003 -0.000003 0.500622 0.000008 0.683073
#
#
# Mechanical properties :
#
#
# Convention : Reuss Voigt Hill
#
# Bulk Modulus (GPa) = 38.96686 76.11133 57.53910
# Shear Modulus (GPa) = 4.10475 27.09198 15.59837
#
# Velocity S-wave (km/s) = 1.42288 3.65550 2.77374
# Velocity P-wave (km/s) = 4.68180 7.44027 6.21598
#
# Compressibility (1/GPa) = 0.02566283
#
# Stress axis : x y z
#
# Youngs Moduli (GPa) = 32.02473 97.15988 114.15485
#
# Poissons Ratio (x) = 0.63251 0.21901
# Poissons Ratio (y) = 0.20848 0.44283
# Poissons Ratio (z) = 0.06144 0.37690
#
# Static dielectric constant tensor:
#      x y z
#    x 1.795310 0.000000 -0.008860 
#    y 0.000000 1.768270 0.000000 
#    z -0.008860 0.000000 1.740530 
# 
# From -- ./inp_files/206922.got.cif
#   From: 2010.05.17/outbox.cif.g08.bks.cpg/sg15_104_cif.got.tgz:206922.got - 2010.06.03 18:47:42.
