data_PCOD9280089
_publ_section_title
;
Structure prediction by ZEFSAII (Michael W. Deem and Ramdas Pophale) SiO2 
 PCOD9280089
Probable space group: C 2/C
;
_chemical_formula_sum "Si O2"
_cell_formula_units_Z 56
_cell_length_a 15.961858
_cell_length_b 8.468242
_cell_length_c 29.751521
_cell_angle_alpha 90.000000
_cell_angle_beta 141.147756
_cell_angle_gamma 90.000000
_cell_volume 2522.731194
_symmetry_space_group_name_H-M "C 2/C"
_symmetry_group_IT_number 15
_symmetry_cell_setting 'monoclinic'
loop_
_space_group_symop_operation_xyz
x,y,z
-x,y,1/2-z
-x,-y,-z
x,-y,1/2+z
1/2+x,1/2+y,z
1/2-x,1/2+y,1/2-z
1/2-x,1/2-y,-z
1/2+x,1/2-y,1/2+z
loop_
_atom_site_type_symbol
_atom_site_label
_atom_site_fract_x
_atom_site_fract_y
_atom_site_fract_z
Si Si1 0.229322 0.870548 0.173750
Si Si2 0.339235 0.126461 0.285539
Si Si3 0.028262 0.618284 0.908278
Si Si4 0.807124 0.584086 0.612629
Si Si5 0.260297 0.404432 0.037063
Si Si6 0.567572 0.256616 0.323857
Si Si7 0.459569 0.455826 0.553572
O O1 0.248510 0.734432 0.218679
O O2 0.298166 0.824290 0.155657
O O3 0.279784 0.032347 0.218430
O O4 0.075485 0.914987 0.097677
O O5 0.453794 0.242885 0.314472
O O6 0.405635 0.991171 0.343629
O O7 0.110791 0.649148 0.895893
O O8 0.991169 0.776976 0.918688
O O9 0.128563 0.508673 0.978864
O O10 0.879479 0.422162 0.656835
O O11 0.657352 0.545030 0.532639
O O12 0.307730 0.354211 0.105753
O O13 0.378728 0.504426 0.064857
O O14 0.250000 0.250000 0.000000
O O15 0.500000 0.310426 0.250000
#
# Coordination Sequence:
#
# PCOD9280089 Si02
#       7
#     8   8   8   8   8   8   8
#     4  12  23  40  62  88 128 160 205 246 318 371
#     4  11  23  40  61  88 123 168 199 253 310 377
#     4  10  22  40  66  88 120 160 212 252 309 358
#     4  10  21  36  66  89 115 160 210 252 293 375
#     4  11  17  35  66  92 115 157 210 255 296 361
#     4  11  20  38  63  93 118 159 214 250 299 370
#     4  11  21  39  62  93 123 161 201 258 312 369
#
# _framework density 22.198163999999998
#
# number of rings (size 3 to 8) (size 9 to 14) (size 15 to 20)
#    0.000    1.143    7.143    3.000    0.000    0.000 
#    0.000    3.571    0.000    0.000    0.000    0.000 
#    0.000    0.000    0.000    0.000    0.000    0.000 
#
# Total GULP energy -156368.535435 kJ/mol
# GULP energy per Si atom -5584.590551 kJ/mol
# Density = 2.214764 g / cm^3
# Si number density = 22.198164 Si / 1000 Ang^3
#
#
#
# Elastic Constant Matrix: (Units=GPa)
#
#
# Indices 1 2 3 4 5 6 
#
# 1 25.7022 4.9526 16.6728 0.0000 -15.3670 0.0000
# 2 4.9526 49.4578 18.9601 0.0000 -9.0981 0.0000
# 3 16.6728 18.9601 99.5782 0.0000 -20.1827 0.0000
# 4 0.0000 0.0000 0.0000 13.4640 0.0000 3.7601
# 5 -15.3670 -9.0981 -20.1827 0.0000 27.3952 0.0000
# 6 0.0000 0.0000 0.0000 3.7601 0.0000 16.9202
#
#
#
# Elastic Compliance Matrix: (Units=1/GPa)
#
#
# Indices 1 2 3 4 5 6 
#
# 1 0.059791 0.001239 -0.003957 0.000000 0.031035 0.000000
# 2 0.001239 0.022416 -0.003322 0.000000 0.005692 0.000000
# 3 -0.003957 -0.003322 0.012536 0.000000 0.005913 0.000000
# 4 0.000000 0.000000 0.000000 0.079187 0.000000 -0.017597
# 5 0.031035 0.005692 0.005913 0.000000 0.060158 0.000000
# 6 0.000000 0.000000 0.000000 -0.017597 0.000000 0.063012
#
#
# Mechanical properties :
#
#
# Convention : Reuss Voigt Hill
#
# Bulk Modulus (GPa) = 12.09734 28.43435 20.26585
# Shear Modulus (GPa) = 14.84861 20.49939 17.67400
#
# Velocity S-wave (km/s) = 2.58914 3.04217 2.82475
# Velocity P-wave (km/s) = 3.79470 5.01765 4.44840
#
# Compressibility (1/GPa) = 0.08266281
#
# Stress axis : x y z
#
# Youngs Moduli (GPa) = 16.72503 44.61153 79.77201
#
# Poissons Ratio (x) = -0.05526 0.31562
# Poissons Ratio (y) = -0.02072 0.26499
# Poissons Ratio (z) = 0.06617 0.14819
#
# Static dielectric constant tensor:
#      x y z
#    x 1.868140 0.000000 -0.005250 
#    y 0.000000 1.840460 0.000000 
#    z -0.005250 0.000000 1.854130 
# 
# From -- ./inp_files/315549.got.cif
#   From: 2010.05.17/outbox.cif.g08.bks.cpg/sg15_158_cif.got.tgz:315549.got - 2010.06.03 18:47:42.
