data_PCOD9280424
_publ_section_title
;
Structure prediction by ZEFSAII (Michael W. Deem and Ramdas Pophale) SiO2 
 PCOD9280424
Probable space group: C 2/C
;
_chemical_formula_sum "Si O2"
_cell_formula_units_Z 64
_cell_length_a 11.627216
_cell_length_b 23.640227
_cell_length_c 12.273340
_cell_angle_alpha 90.000000
_cell_angle_beta 118.729522
_cell_angle_gamma 90.000000
_cell_volume 2958.281717
_symmetry_space_group_name_H-M "C 2/C"
_symmetry_group_IT_number 15
_symmetry_cell_setting 'monoclinic'
loop_
_space_group_symop_operation_xyz
x,y,z
-x,y,1/2-z
-x,-y,-z
x,-y,1/2+z
1/2+x,1/2+y,z
1/2-x,1/2+y,1/2-z
1/2-x,1/2-y,-z
1/2+x,1/2-y,1/2+z
loop_
_atom_site_type_symbol
_atom_site_label
_atom_site_fract_x
_atom_site_fract_y
_atom_site_fract_z
Si Si1 0.888835 0.700367 0.472805
Si Si2 0.925480 0.456053 0.886403
Si Si3 0.750532 0.292234 0.687594
Si Si4 0.740634 0.396145 0.968359
Si Si5 0.352079 0.941626 0.216159
Si Si6 0.042471 0.826902 0.993276
Si Si7 0.876686 0.644452 0.049609
Si Si8 0.788724 0.843020 0.217006
O O1 0.785948 0.692944 0.327366
O O2 0.838473 0.657013 0.540205
O O3 0.895785 0.765434 0.506259
O O4 0.027372 0.681129 0.485355
O O5 0.856645 0.496851 0.770065
O O6 0.037777 0.412573 0.897396
O O7 0.809035 0.422375 0.893910
O O8 0.000000 0.500000 0.000000
O O9 0.610493 0.316279 0.589630
O O10 0.850280 0.321001 0.647708
O O11 0.760459 0.224110 0.692393
O O12 0.761901 0.442797 0.069774
O O13 0.598775 0.370540 0.929241
O O14 0.500000 0.929836 0.250000
O O15 0.304710 0.889520 0.268297
O O16 0.089756 0.842464 0.139145
O O17 0.738530 0.637483 0.921271
#
# Coordination Sequence:
#
# PCOD9280424 Si02
#       8
#     8   8   8   8   8   8   8   8
#     4  10  21  39  59  95 130 170 217 260 324 382
#     4  11  21  38  63  98 119 157 216 280 330 362
#     4  11  23  38  59  95 137 174 210 255 324 400
#     4  10  22  39  59  91 127 158 212 264 322 387
#     4  11  20  36  62  95 121 158 209 275 326 364
#     4  10  22  37  60  92 131 178 210 252 324 400
#     4  11  21  39  63  93 132 166 213 273 322 380
#     4  10  21  37  59  94 131 169 215 258 316 395
#
# _framework density 21.634180000000001
#
# number of rings (size 3 to 8) (size 9 to 14) (size 15 to 20)
#    0.000    1.500    3.750    1.875    0.000    3.000 
#    0.000    0.000    0.000    0.750   13.000    0.000 
#    0.000    0.000    0.000    0.000    0.000    0.000 
#
# Total GULP energy -178275.793753 kJ/mol
# GULP energy per Si atom -5571.118555 kJ/mol
# Density = 2.158494 g / cm^3
# Si number density = 21.634180 Si / 1000 Ang^3
#
#
#
# Elastic Constant Matrix: (Units=GPa)
#
#
# Indices 1 2 3 4 5 6 
#
# 1 89.5689 43.4455 25.9578 0.0000 10.0267 0.0000
# 2 43.4455 134.4276 34.7672 0.0000 -6.0351 0.0000
# 3 25.9578 34.7672 70.8039 0.0000 10.7972 0.0000
# 4 0.0000 0.0000 0.0000 40.4233 0.0000 -3.2398
# 5 10.0267 -6.0351 10.7972 0.0000 22.3232 0.0000
# 6 0.0000 0.0000 0.0000 -3.2398 0.0000 37.5317
#
#
#
# Elastic Compliance Matrix: (Units=1/GPa)
#
#
# Indices 1 2 3 4 5 6 
#
# 1 0.014738 -0.004512 -0.002151 0.000000 -0.006799 0.000000
# 2 -0.004512 0.010379 -0.004512 0.000000 0.007015 0.000000
# 3 -0.002151 -0.004512 0.018533 0.000000 -0.009218 0.000000
# 4 0.000000 0.000000 0.000000 0.024911 0.000000 0.002150
# 5 -0.006799 0.007015 -0.009218 0.000000 0.054206 0.000000
# 6 0.000000 0.000000 0.000000 0.002150 0.000000 0.026830
#
#
# Mechanical properties :
#
#
# Convention : Reuss Voigt Hill
#
# Bulk Modulus (GPa) = 46.94737 55.90460 51.42599
# Shear Modulus (GPa) = 27.92588 32.76428 30.34508
#
# Velocity S-wave (km/s) = 3.59670 3.89584 3.74925
# Velocity P-wave (km/s) = 6.24468 6.79218 6.52417
#
# Compressibility (1/GPa) = 0.02130045
#
# Stress axis : x y z
#
# Youngs Moduli (GPa) = 67.85384 96.34746 53.95709
#
# Poissons Ratio (x) = 0.43472 0.11604
# Poissons Ratio (y) = 0.30616 0.24346
# Poissons Ratio (z) = 0.14593 0.43473
#
# Static dielectric constant tensor:
#      x y z
#    x 1.814530 0.000000 -0.006420 
#    y 0.000000 1.795530 0.000000 
#    z -0.006420 0.000000 1.892890 
# 
# From -- ./inp_files/91287.got.cif
#   From: 2010.05.17/outbox.cif.g08.bks.cpg/sg15_46_cif.got.tgz:91287.got - 2010.06.03 18:47:42.
