data_PCOD9280983
_publ_section_title
;
Structure prediction by ZEFSAII (Michael W. Deem and Ramdas Pophale) SiO2 
 PCOD9280983
Probable space group: C 2/C
;
_chemical_formula_sum "Si O2"
_cell_formula_units_Z 56
_cell_length_a 28.603057
_cell_length_b 5.549801
_cell_length_c 22.138939
_cell_angle_alpha 90.000000
_cell_angle_beta 139.789647
_cell_angle_gamma 90.000000
_cell_volume 2268.857859
_symmetry_space_group_name_H-M "C 2/C"
_symmetry_group_IT_number 15
_symmetry_cell_setting 'monoclinic'
loop_
_space_group_symop_operation_xyz
x,y,z
-x,y,1/2-z
-x,-y,-z
x,-y,1/2+z
1/2+x,1/2+y,z
1/2-x,1/2+y,1/2-z
1/2-x,1/2-y,-z
1/2+x,1/2-y,1/2+z
loop_
_atom_site_type_symbol
_atom_site_label
_atom_site_fract_x
_atom_site_fract_y
_atom_site_fract_z
Si Si1 0.827167 0.490697 0.346015
Si Si2 0.880183 0.705183 0.174870
Si Si3 0.918211 0.786605 0.694446
Si Si4 0.123012 0.850454 0.012286
Si Si5 0.463381 0.298400 0.003778
Si Si6 0.991544 0.538244 0.858867
Si Si7 0.742069 0.853246 0.846085
O O1 0.858715 0.738376 0.403664
O O2 0.892026 0.304085 0.402579
O O3 0.779243 0.384015 0.353872
O O4 0.788007 0.520994 0.244220
O O5 0.872158 0.451043 0.132444
O O6 0.821026 0.707568 0.169488
O O7 0.960917 0.663717 0.282821
O O8 0.881947 0.960848 0.144304
O O9 0.000000 0.777834 0.750000
O O10 0.934159 0.746684 0.782706
O O11 0.067825 0.069068 0.967650
O O12 0.197739 0.969989 0.065032
O O13 0.072569 0.644567 0.932956
O O14 0.500000 0.500000 0.000000
O O15 0.510847 0.080408 0.077500
#
# Coordination Sequence:
#
# PCOD9280983 Si02
#       7
#     8   8   8   8   8   8   8
#     4  10  22  34  53  79 121 181 217 262 303 360
#     4  10  24  37  70  97 125 161 212 271 325 391
#     4  10  22  44  71 100 124 153 207 280 348 390
#     4  10  21  38  53  82 125 175 213 260 309 368
#     4  10  22  34  55  85 125 171 222 262 308 374
#     4   9  22  38  62  93 121 167 212 263 331 375
#     4  11  22  36  56  84 127 173 225 255 313 371
#
# _framework density 24.682020999999999
#
# number of rings (size 3 to 8) (size 9 to 14) (size 15 to 20)
#    0.857    1.143    1.429    1.286    6.000    1.143 
#    0.000    0.000    0.000    1.714    0.000    0.000 
#    0.000    0.000    0.000    0.000    0.000    0.000 
#
# Total GULP energy -156151.620318 kJ/mol
# GULP energy per Si atom -5576.843583 kJ/mol
# Density = 2.462584 g / cm^3
# Si number density = 24.682021 Si / 1000 Ang^3
#
#
#
# Elastic Constant Matrix: (Units=GPa)
#
#
# Indices 1 2 3 4 5 6 
#
# 1 100.0774 41.2195 13.4372 0.0013 24.0205 0.0012
# 2 41.2195 139.4740 18.4084 0.0010 22.0948 0.0037
# 3 13.4372 18.4084 69.3240 -0.0001 -7.7357 0.0008
# 4 0.0013 0.0010 -0.0001 22.9836 0.0000 18.2101
# 5 24.0205 22.0948 -7.7357 0.0000 30.4722 0.0004
# 6 0.0012 0.0037 0.0008 18.2101 0.0004 19.4575
#
#
#
# Elastic Compliance Matrix: (Units=1/GPa)
#
#
# Indices 1 2 3 4 5 6 
#
# 1 0.013697 -0.002007 -0.003256 -0.000002 -0.010168 0.000002
# 2 -0.002007 0.008998 -0.002626 0.000003 -0.005609 -0.000004
# 3 -0.003256 -0.002626 0.016726 0.000002 0.008717 -0.000002
# 4 -0.000002 0.000003 0.000002 0.168323 0.000002 -0.157532
# 5 -0.010168 -0.005609 0.008717 0.000002 0.047112 -0.000002
# 6 0.000002 -0.000004 -0.000002 -0.157532 -0.000002 0.198827
#
#
# Mechanical properties :
#
#
# Convention : Reuss Voigt Hill
#
# Bulk Modulus (GPa) = 42.29875 50.55619 46.42747
# Shear Modulus (GPa) = 10.47463 30.30335 20.38899
#
# Velocity S-wave (km/s) = 2.06229 3.50773 2.87726
# Velocity P-wave (km/s) = 4.77969 6.07725 5.46710
#
# Compressibility (1/GPa) = 0.02364136
#
# Stress axis : x y z
#
# Youngs Moduli (GPa) = 73.00977 111.13398 59.78597
#
# Poissons Ratio (x) = 0.22308 0.19469
# Poissons Ratio (y) = 0.14655 0.15701
# Poissons Ratio (z) = 0.23776 0.29186
#
# Static dielectric constant tensor:
#      x y z
#    x 1.999620 0.000000 -0.029500 
#    y 0.000000 2.073750 0.000000 
#    z -0.029500 0.000000 1.944840 
# 
# From -- ./inp_files/319185.got.cif
#   From: 2010.05.17/outbox.cif.g08.bks.cpg/sg15_160_cif.got.tgz:319185.got - 2010.06.03 18:47:42.
