data_PCOD9280027
_publ_section_title
;
Structure prediction by ZEFSAII (Michael W. Deem and Ramdas Pophale) SiO2 
 PCOD9280027
Probable space group: C 2/C
;
_chemical_formula_sum "Si O2"
_cell_formula_units_Z 40
_cell_length_a 16.201446
_cell_length_b 6.147571
_cell_length_c 31.075700
_cell_angle_alpha 90.000000
_cell_angle_beta 145.048464
_cell_angle_gamma 90.000000
_cell_volume 1773.145803
_symmetry_space_group_name_H-M "C 2/C"
_symmetry_group_IT_number 15
_symmetry_cell_setting 'monoclinic'
loop_
_space_group_symop_operation_xyz
x,y,z
-x,y,1/2-z
-x,-y,-z
x,-y,1/2+z
1/2+x,1/2+y,z
1/2-x,1/2+y,1/2-z
1/2-x,1/2-y,-z
1/2+x,1/2-y,1/2+z
loop_
_atom_site_type_symbol
_atom_site_label
_atom_site_fract_x
_atom_site_fract_y
_atom_site_fract_z
Si Si1 0.746138 0.525943 0.614098
Si Si2 0.982797 0.781959 0.364754
Si Si3 0.687648 0.042935 0.766804
Si Si4 0.462383 0.800051 0.516214
Si Si5 0.970266 0.097602 0.188499
O O1 0.821321 0.441164 0.689543
O O2 0.603289 0.652438 0.568509
O O3 0.680451 0.329404 0.559060
O O4 0.851532 0.707384 0.638873
O O5 0.907068 0.589217 0.306644
O O6 0.049433 0.680713 0.436861
O O7 0.852715 0.939398 0.324100
O O8 0.064993 0.925061 0.363875
O O9 0.620671 0.282088 0.742244
O O10 0.500000 0.000000 0.500000
O O11 0.000000 0.015610 0.250000
#
# Coordination Sequence:
#
# PCOD9280027 Si02
#       5
#     8   8   8   8   8
#     4   9  22  41  60  88 131 174 208 271 332 387
#     4  11  22  37  65  95 124 169 216 269 322 395
#     4  10  21  36  63  93 123 164 212 267 324 389
#     4  10  23  40  63  91 128 176 217 262 332 396
#     4  10  22  40  61  94 130 163 219 273 329 384
#
# _framework density 22.558775000000001
#
# number of rings (size 3 to 8) (size 9 to 14) (size 15 to 20)
#    0.000    2.000    2.000    0.000    2.800    6.400 
#    0.000    2.000    0.000    0.000    0.000    0.000 
#    0.000    0.000    0.000    0.000    0.000    0.000 
#
# Total GULP energy -111520.006431 kJ/mol
# GULP energy per Si atom -5576.000322 kJ/mol
# Density = 2.250743 g / cm^3
# Si number density = 22.558775 Si / 1000 Ang^3
#
#
#
# Elastic Constant Matrix: (Units=GPa)
#
#
# Indices 1 2 3 4 5 6 
#
# 1 117.5170 54.8030 60.7352 -0.0013 -20.9087 0.0008
# 2 54.8030 78.6716 62.1936 -0.0045 -36.8296 0.0006
# 3 60.7352 62.1936 148.3101 -0.0012 -60.8272 0.0003
# 4 -0.0013 -0.0045 -0.0012 36.5196 -0.0002 -4.9783
# 5 -20.9087 -36.8296 -60.8272 -0.0002 53.7030 -0.0004
# 6 0.0008 0.0006 0.0003 -4.9783 -0.0004 32.4419
#
#
#
# Elastic Compliance Matrix: (Units=1/GPa)
#
#
# Indices 1 2 3 4 5 6 
#
# 1 0.013843 -0.008889 -0.004167 -0.000001 -0.005426 0.000000
# 2 -0.008889 0.026484 -0.002682 0.000003 0.011664 0.000000
# 3 -0.004167 -0.002682 0.015228 0.000000 0.013787 0.000000
# 4 -0.000001 0.000003 0.000000 0.027968 0.000002 0.004292
# 5 -0.005426 0.011664 0.013787 0.000002 0.040123 0.000001
# 6 0.000000 0.000000 0.000000 0.004292 0.000001 0.031483
#
#
# Mechanical properties :
#
#
# Convention : Reuss Voigt Hill
#
# Bulk Modulus (GPa) = 41.52913 77.77358 59.65136
# Shear Modulus (GPa) = 25.68975 35.65070 30.67023
#
# Velocity S-wave (km/s) = 3.37826 3.97967 3.69123
# Velocity P-wave (km/s) = 5.80225 7.46109 6.68334
#
# Compressibility (1/GPa) = 0.02407948
#
# Stress axis : x y z
#
# Youngs Moduli (GPa) = 72.23981 37.75861 65.66915
#
# Poissons Ratio (x) = 0.33565 0.27361
# Poissons Ratio (y) = 0.64216 0.17611
# Poissons Ratio (z) = 0.30099 0.10126
#
# Static dielectric constant tensor:
#      x y z
#    x 1.927960 0.000000 -0.041480 
#    y 0.000000 1.852050 0.000000 
#    z -0.041480 0.000000 1.862810 
# 
# From -- ./inp_files/246302.got.cif
#   From: 2010.05.17/outbox.cif.g08.bks.cpg/sg15_124_cif.got.tgz:246302.got - 2010.06.03 18:47:42.
