data_PCOD9280480
_publ_section_title
;
Structure prediction by ZEFSAII (Michael W. Deem and Ramdas Pophale) SiO2 
 PCOD9280480
Probable space group: C 2/C
;
_chemical_formula_sum "Si O2"
_cell_formula_units_Z 56
_cell_length_a 9.305095
_cell_length_b 16.328037
_cell_length_c 28.631646
_cell_angle_alpha 90.000000
_cell_angle_beta 140.860487
_cell_angle_gamma 90.000000
_cell_volume 2745.842067
_symmetry_space_group_name_H-M "C 2/C"
_symmetry_group_IT_number 15
_symmetry_cell_setting 'monoclinic'
loop_
_space_group_symop_operation_xyz
x,y,z
-x,y,1/2-z
-x,-y,-z
x,-y,1/2+z
1/2+x,1/2+y,z
1/2-x,1/2+y,1/2-z
1/2-x,1/2-y,-z
1/2+x,1/2-y,1/2+z
loop_
_atom_site_type_symbol
_atom_site_label
_atom_site_fract_x
_atom_site_fract_y
_atom_site_fract_z
Si Si1 0.290953 0.803461 0.927994
Si Si2 0.833631 0.447969 0.013604
Si Si3 0.505723 0.641288 0.011870
Si Si4 0.120763 0.247544 0.859665
Si Si5 0.101791 0.721114 0.724863
Si Si6 0.757294 0.631427 0.979860
Si Si7 0.755568 0.613884 0.821247
O O1 0.505911 0.822570 0.948357
O O2 0.067218 0.784560 0.842806
O O3 0.295370 0.877786 0.965400
O O4 0.343681 0.721067 0.970235
O O5 0.813200 0.536736 0.985517
O O6 0.068249 0.435686 0.101831
O O7 0.630394 0.431923 0.999309
O O8 0.731627 0.671304 0.095557
O O9 0.581275 0.630985 0.977659
O O10 0.208739 0.199679 0.836318
O O11 0.852516 0.259409 0.791206
O O12 0.169834 0.182446 0.913726
O O13 0.133313 0.640613 0.699976
O O14 0.000000 0.701239 0.750000
O O15 0.500000 0.577521 0.750000
#
# Coordination Sequence:
#
# PCOD9280480 Si02
#       7
#     8   8   8   8   8   8   8
#     4  11  21  38  66  89 117 163 214 254 294 370
#     4  12  22  39  63  94 125 164 207 251 314 371
#     4  11  20  37  60  90 119 160 210 250 294 364
#     4  10  21  38  62  87 122 160 210 252 306 360
#     4  11  21  37  62  92 119 157 214 259 305 355
#     4  11  23  37  61  93 130 157 197 260 313 361
#     4  10  21  37  60  90 119 163 201 255 304 369
#
# _framework density 20.394473000000001
#
# number of rings (size 3 to 8) (size 9 to 14) (size 15 to 20)
#    0.000    1.143    4.286    5.571    0.000    0.000 
#    0.000    2.143    0.000    1.714    0.000    0.000 
#    0.000    0.000    0.000    0.000    0.000    0.000 
#
# Total GULP energy -156420.557130 kJ/mol
# GULP energy per Si atom -5586.448469 kJ/mol
# Density = 2.034805 g / cm^3
# Si number density = 20.394473 Si / 1000 Ang^3
#
#
#
# Elastic Constant Matrix: (Units=GPa)
#
#
# Indices 1 2 3 4 5 6 
#
# 1 113.8430 11.5872 34.9942 0.0000 -1.4873 0.0000
# 2 11.5872 71.1044 35.9998 0.0000 7.4458 0.0000
# 3 34.9942 35.9998 146.3514 0.0000 21.7972 0.0000
# 4 0.0000 0.0000 0.0000 11.3121 0.0000 1.9390
# 5 -1.4873 7.4458 21.7972 0.0000 28.0831 0.0000
# 6 0.0000 0.0000 0.0000 1.9390 0.0000 27.0762
#
#
#
# Elastic Compliance Matrix: (Units=1/GPa)
#
#
# Indices 1 2 3 4 5 6 
#
# 1 0.009665 -0.000551 -0.002571 0.000000 0.002653 0.000000
# 2 -0.000551 0.016141 -0.003615 0.000000 -0.001503 0.000000
# 3 -0.002571 -0.003615 0.009288 0.000000 -0.006387 0.000000
# 4 0.000000 0.000000 0.000000 0.089499 0.000000 -0.006409
# 5 0.002653 -0.001503 -0.006387 0.000000 0.041105 0.000000
# 6 0.000000 0.000000 0.000000 -0.006409 0.000000 0.037392
#
#
# Mechanical properties :
#
#
# Convention : Reuss Voigt Hill
#
# Bulk Modulus (GPa) = 46.25186 55.16238 50.70712
# Shear Modulus (GPa) = 22.34436 29.87545 26.10991
#
# Velocity S-wave (km/s) = 3.31359 3.83153 3.58193
# Velocity P-wave (km/s) = 6.11291 6.83232 6.48260
#
# Compressibility (1/GPa) = 0.02162075
#
# Stress axis : x y z
#
# Youngs Moduli (GPa) = 103.46643 61.95327 107.66703
#
# Poissons Ratio (x) = 0.03416 0.27676
# Poissons Ratio (y) = 0.05705 0.38919
# Poissons Ratio (z) = 0.26596 0.22394
#
# Static dielectric constant tensor:
#      x y z
#    x 1.811260 0.000000 0.000100 
#    y 0.000000 1.699390 0.000000 
#    z 0.000100 0.000000 1.752660 
# 
# From -- ./inp_files/265465.got.cif
#   From: 2010.05.17/outbox.cif.g08.bks.cpg/sg15_133_cif.got.tgz:265465.got - 2010.06.03 18:47:42.
