data_PCOD9280163
_publ_section_title
;
Structure prediction by ZEFSAII (Michael W. Deem and Ramdas Pophale) SiO2 
 PCOD9280163
Probable space group: C 2/C
;
_chemical_formula_sum "Si O2"
_cell_formula_units_Z 64
_cell_length_a 8.945369
_cell_length_b 28.820209
_cell_length_c 14.425978
_cell_angle_alpha 90.000000
_cell_angle_beta 90.000000
_cell_angle_gamma 90.000000
_cell_volume 3719.123941
_symmetry_space_group_name_H-M "C 2/C"
_symmetry_group_IT_number 15
_symmetry_cell_setting 'monoclinic'
loop_
_space_group_symop_operation_xyz
x,y,z
-x,y,1/2-z
-x,-y,-z
x,-y,1/2+z
1/2+x,1/2+y,z
1/2-x,1/2+y,1/2-z
1/2-x,1/2-y,-z
1/2+x,1/2-y,1/2+z
loop_
_atom_site_type_symbol
_atom_site_label
_atom_site_fract_x
_atom_site_fract_y
_atom_site_fract_z
Si Si1 0.320547 0.875066 0.902839
Si Si2 0.678214 0.802459 0.250000
Si Si3 0.320908 0.629008 0.604188
Si Si4 0.320546 0.124934 0.097161
Si Si5 0.679092 0.629008 0.604188
Si Si6 0.822058 0.702247 0.250000
Si Si7 0.678507 0.449637 0.250000
Si Si8 0.820087 0.550475 0.250000
O O1 0.500000 0.877149 0.917305
O O2 0.290477 0.829925 0.839378
O O3 0.276073 0.919389 0.840213
O O4 0.237645 0.873290 0.000053
O O5 0.500000 0.805944 0.250000
O O6 0.745407 0.829211 0.161070
O O7 0.745407 0.829211 0.338930
O O8 0.731091 0.749466 0.250000
O O9 0.262355 0.626710 0.500053
O O10 0.500000 0.634485 0.607429
O O11 0.282700 0.582050 0.660969
O O12 0.290476 0.170075 0.160622
O O13 0.276073 0.080611 0.159787
O O14 0.717300 0.582050 0.660969
O O15 0.000000 0.712366 0.250000
O O16 0.500000 0.456155 0.250000
O O17 0.755624 0.499204 0.250000
O O18 0.000000 0.548696 0.250000
#
# Coordination Sequence:
#
# PCOD9280163 Si02
#       8
#     8   8   8   8   8   8   8   8
#     4   9  19  36  56  79 106 138 176 216 260 310
#     4  11  22  36  56  80 105 136 176 218 261 312
#     4  10  21  37  55  77 107 141 176 216 262 310
#     4   9  19  36  56  79 106 138 176 216 260 310
#     4  10  21  37  55  77 107 141 176 216 262 310
#     4   9  19  37  57  77 107 140 172 216 263 309
#     4   9  20  36  52  74 105 140 176 214 261 314
#     4   9  19  35  55  79 107 138 174 218 263 307
#
# _framework density 17.208355000000001
#
# number of rings (size 3 to 8) (size 9 to 14) (size 15 to 20)
#    0.000    2.500    0.000    4.125    0.000    7.000 
#    0.000    7.500    0.000    0.000    0.000    0.000 
#    0.000    0.000    0.000    0.000    0.000    0.000 
#
# Total GULP energy -178570.457379 kJ/mol
# GULP energy per Si atom -5580.326793 kJ/mol
# Density = 1.716919 g / cm^3
# Si number density = 17.208355 Si / 1000 Ang^3
#
#
#
# Elastic Constant Matrix: (Units=GPa)
#
#
# Indices 1 2 3 4 5 6 
#
# 1 74.9554 76.7684 75.8072 0.0000 -5.9683 0.0000
# 2 76.7684 154.0321 81.9726 0.0000 -0.4664 0.0000
# 3 75.8072 81.9726 172.2021 0.0000 -2.7495 0.0000
# 4 0.0000 0.0000 0.0000 4.4232 0.0000 2.8108
# 5 -5.9683 -0.4664 -2.7495 0.0000 32.5729 0.0000
# 6 0.0000 0.0000 0.0000 2.8108 0.0000 35.7764
#
#
#
# Elastic Compliance Matrix: (Units=1/GPa)
#
#
# Indices 1 2 3 4 5 6 
#
# 1 0.037868 -0.013438 -0.010180 0.000000 0.005887 0.000000
# 2 -0.013438 0.013465 -0.000531 0.000000 -0.002314 0.000000
# 3 -0.010180 -0.000531 0.010525 0.000000 -0.000984 0.000000
# 4 0.000000 0.000000 0.000000 0.237962 0.000000 -0.018696
# 5 0.005887 -0.002314 -0.000984 0.000000 0.031663 0.000000
# 6 0.000000 0.000000 0.000000 -0.018696 0.000000 0.029420
#
#
# Mechanical properties :
#
#
# Convention : Reuss Voigt Hill
#
# Bulk Modulus (GPa) = 73.73740 96.69843 85.21791
# Shear Modulus (GPa) = 12.08542 25.66393 18.87468
#
# Velocity S-wave (km/s) = 2.65297 3.86601 3.31544
# Velocity P-wave (km/s) = 7.23375 8.73171 8.01779
#
# Compressibility (1/GPa) = 0.01356164
#
# Stress axis : x y z
#
# Youngs Moduli (GPa) = 26.40719 74.26566 95.00771
#
# Poissons Ratio (x) = 0.99799 0.96714
# Poissons Ratio (y) = 0.35486 0.05044
# Poissons Ratio (z) = 0.26882 0.03943
#
# Static dielectric constant tensor:
#      x y z
#    x 1.572950 0.000000 0.000920 
#    y 0.000000 1.561650 0.000000 
#    z 0.000920 0.000000 1.562650 
# 
# From -- ./inp_files/138627.got.cif
#   From: 2010.05.17/outbox.cif.g08.bks.cpg/sg15_70_cif.got.tgz:138627.got - 2010.06.03 18:47:42.
