data_PCOD9280659
_publ_section_title
;
Structure prediction by ZEFSAII (Michael W. Deem and Ramdas Pophale) SiO2 
 PCOD9280659
Probable space group: C 2/C
;
_chemical_formula_sum "Si O2"
_cell_formula_units_Z 56
_cell_length_a 21.191281
_cell_length_b 14.164393
_cell_length_c 8.628185
_cell_angle_alpha 90.000000
_cell_angle_beta 68.686447
_cell_angle_gamma 90.000000
_cell_volume 2412.718012
_symmetry_space_group_name_H-M "C 2/C"
_symmetry_group_IT_number 15
_symmetry_cell_setting 'monoclinic'
loop_
_space_group_symop_operation_xyz
x,y,z
-x,y,1/2-z
-x,-y,-z
x,-y,1/2+z
1/2+x,1/2+y,z
1/2-x,1/2+y,1/2-z
1/2-x,1/2-y,-z
1/2+x,1/2-y,1/2+z
loop_
_atom_site_type_symbol
_atom_site_label
_atom_site_fract_x
_atom_site_fract_y
_atom_site_fract_z
Si Si1 0.783860 0.856091 0.093826
Si Si2 0.575345 0.605414 0.623119
Si Si3 0.529723 0.700942 0.375527
Si Si4 0.131203 0.366278 0.277034
Si Si5 0.149723 0.561747 0.102308
Si Si6 0.296784 0.492420 0.368501
Si Si7 0.605927 0.235340 0.334885
O O1 0.707204 0.826091 0.194630
O O2 0.795209 0.946912 0.199284
O O3 0.838486 0.780413 0.100045
O O4 0.787407 0.897443 0.916920
O O5 0.500000 0.584082 0.750000
O O6 0.568036 0.627236 0.449553
O O7 0.631031 0.531480 0.622454
O O8 0.601959 0.700668 0.683265
O O9 0.500000 0.653519 0.250000
O O10 0.578280 0.786028 0.286004
O O11 0.467716 0.748228 0.525594
O O12 0.127128 0.456583 0.168255
O O13 0.121850 0.403080 0.461818
O O14 0.126635 0.632200 0.258789
O O15 0.231306 0.557474 0.007675
#
# Coordination Sequence:
#
# PCOD9280659 Si02
#       7
#     8   8   8   8   8   8   8
#     4   9  20  38  63  88 119 150 195 240 291 348
#     4   9  19  38  61  85 116 157 199 235 287 354
#     4  11  24  39  54  86 122 152 197 245 290 343
#     4  10  22  39  60  87 120 153 195 239 294 347
#     4  10  21  37  62  89 116 154 198 239 289 347
#     4   9  19  36  62  90 118 148 194 242 292 349
#     4  10  21  39  60  86 116 157 199 238 284 354
#
# _framework density 23.210339000000001
#
# number of rings (size 3 to 8) (size 9 to 14) (size 15 to 20)
#    0.000    2.286    1.429    0.000    4.000    3.429 
#    0.000    7.857    0.000    0.000    0.000    0.000 
#    0.000    0.000    0.000    0.000    0.000    0.000 
#
# Total GULP energy -156618.778228 kJ/mol
# GULP energy per Si atom -5593.527794 kJ/mol
# Density = 2.315751 g / cm^3
# Si number density = 23.210339 Si / 1000 Ang^3
#
#
#
# Elastic Constant Matrix: (Units=GPa)
#
#
# Indices 1 2 3 4 5 6 
#
# 1 59.2210 10.2227 9.6980 0.0000 20.0772 0.0000
# 2 10.2227 47.6383 17.7765 0.0000 2.5213 0.0000
# 3 9.6980 17.7765 56.6448 0.0000 8.6928 0.0000
# 4 0.0000 0.0000 0.0000 9.1182 0.0000 4.4610
# 5 20.0772 2.5213 8.6928 0.0000 24.6688 0.0000
# 6 0.0000 0.0000 0.0000 4.4610 0.0000 25.7869
#
#
#
# Elastic Compliance Matrix: (Units=1/GPa)
#
#
# Indices 1 2 3 4 5 6 
#
# 1 0.024114 -0.004211 0.000147 0.000000 -0.019247 0.000000
# 2 -0.004211 0.024512 -0.007520 0.000000 0.003571 0.000000
# 3 0.000147 -0.007520 0.021026 0.000000 -0.006760 0.000000
# 4 0.000000 0.000000 0.000000 0.119810 0.000000 -0.020726
# 5 -0.019247 0.003571 -0.006760 0.000000 0.058218 0.000000
# 6 0.000000 0.000000 0.000000 -0.020726 0.000000 0.042365
#
#
# Mechanical properties :
#
#
# Convention : Reuss Voigt Hill
#
# Bulk Modulus (GPa) = 21.51256 26.54430 24.02843
# Shear Modulus (GPa) = 15.21108 20.30192 17.75650
#
# Velocity S-wave (km/s) = 2.56277 2.96073 2.76891
# Velocity P-wave (km/s) = 4.24803 4.81135 4.53844
#
# Compressibility (1/GPa) = 0.04648447
#
# Stress axis : x y z
#
# Youngs Moduli (GPa) = 41.47001 40.79629 47.56017
#
# Poissons Ratio (x) = 0.17178 -0.00697
# Poissons Ratio (y) = 0.17462 0.35764
# Poissons Ratio (z) = -0.00608 0.30677
#
# Static dielectric constant tensor:
#      x y z
#    x 1.826870 0.000000 0.033510 
#    y 0.000000 1.841300 0.000000 
#    z 0.033510 0.000000 1.906850 
# 
# From -- ./inp_files/56491.got.cif
#   From: 2010.05.17/outbox.cif.g08.bks.cpg/sg15_29_cif.got.tgz:56491.got - 2010.06.03 18:47:42.
