data_PCOD9280915
_publ_section_title
;
Structure prediction by ZEFSAII (Michael W. Deem and Ramdas Pophale) SiO2 
 PCOD9280915
Probable space group: C 2/C
;
_chemical_formula_sum "Si O2"
_cell_formula_units_Z 60
_cell_length_a 26.768567
_cell_length_b 6.993528
_cell_length_c 14.868437
_cell_angle_alpha 90.000000
_cell_angle_beta 107.181496
_cell_angle_gamma 90.000000
_cell_volume 2659.255651
_symmetry_space_group_name_H-M "C 2/C"
_symmetry_group_IT_number 15
_symmetry_cell_setting 'monoclinic'
loop_
_space_group_symop_operation_xyz
x,y,z
-x,y,1/2-z
-x,-y,-z
x,-y,1/2+z
1/2+x,1/2+y,z
1/2-x,1/2+y,1/2-z
1/2-x,1/2-y,-z
1/2+x,1/2-y,1/2+z
loop_
_atom_site_type_symbol
_atom_site_label
_atom_site_fract_x
_atom_site_fract_y
_atom_site_fract_z
Si Si1 0.611769 0.473690 0.359054
Si Si2 0.250667 0.842424 0.123433
Si Si3 0.472013 0.836250 0.396003
Si Si4 0.835357 0.654743 0.547010
Si Si5 0.000000 0.933131 0.750000
Si Si6 0.106320 0.911834 0.554034
Si Si7 0.582275 0.862692 0.543196
Si Si8 0.316056 0.527739 0.256128
O O1 0.624939 0.701743 0.380044
O O2 0.549646 0.450623 0.313145
O O3 0.626225 0.386646 0.463315
O O4 0.645680 0.412632 0.291068
O O5 0.297080 0.954818 0.095550
O O6 0.280567 0.654411 0.172613
O O7 0.222972 0.924096 0.196466
O O8 0.205067 0.789329 0.029704
O O9 0.474849 0.704903 0.310974
O O10 0.446624 0.703818 0.459602
O O11 0.531059 0.883416 0.453940
O O12 0.434764 0.022002 0.377244
O O13 0.869064 0.553736 0.487438
O O14 0.145980 0.857877 0.655007
O O15 0.094491 0.138666 0.561842
#
# Coordination Sequence:
#
# PCOD9280915 Si02
#       8
#     8   8   8   8   4   8   8   8
#     4  10  21  37  66  92 128 170 211 256 329 386
#     4  10  21  38  63  87 117 162 221 267 317 381
#     4  11  23  37  65  99 126 169 214 255 316 395
#     4   9  18  40  63  78 123 175 200 259 331 366
#     4  12  20  38  64 102 128 166 220 256 310 406
#     4  11  21  43  65  89 135 174 205 268 322 382
#     4  10  21  40  63  92 127 169 210 257 324 380
#     4  11  22  40  62  94 119 167 221 265 328 382
#
# _framework density 22.562702999999999
#
# number of rings (size 3 to 8) (size 9 to 14) (size 15 to 20)
#    0.000    1.600    6.667    0.400    0.000    1.067 
#    2.400    4.000    0.000    0.000    0.000    0.000 
#    0.000    0.000    0.000    0.000    0.000    0.000 
#
# Total GULP energy -167263.130554 kJ/mol
# GULP energy per Si atom -5575.437685 kJ/mol
# Density = 2.251135 g / cm^3
# Si number density = 22.562703 Si / 1000 Ang^3
#
#
#
# Elastic Constant Matrix: (Units=GPa)
#
#
# Indices 1 2 3 4 5 6 
#
# 1 153.3331 12.0404 35.6791 0.0000 -17.3987 0.0000
# 2 12.0404 32.4918 -3.9797 0.0000 4.8532 0.0000
# 3 35.6791 -3.9797 89.1203 0.0000 -10.3252 0.0000
# 4 0.0000 0.0000 0.0000 18.1032 0.0000 -7.8678
# 5 -17.3987 4.8532 -10.3252 0.0000 43.6085 0.0000
# 6 0.0000 0.0000 0.0000 -7.8678 0.0000 19.1328
#
#
#
# Elastic Compliance Matrix: (Units=1/GPa)
#
#
# Indices 1 2 3 4 5 6 
#
# 1 0.007823 -0.003685 -0.002969 0.000000 0.002828 0.000000
# 2 -0.003685 0.033124 0.002423 0.000000 -0.004583 0.000000
# 3 -0.002969 0.002423 0.012697 0.000000 0.001552 0.000000
# 4 0.000000 0.000000 0.000000 0.067259 0.000000 0.027658
# 5 0.002828 -0.004583 0.001552 0.000000 0.024937 0.000000
# 6 0.000000 0.000000 0.000000 0.027658 0.000000 0.063640
#
#
# Mechanical properties :
#
#
# Convention : Reuss Voigt Hill
#
# Bulk Modulus (GPa) = 22.13188 40.26940 31.20064
# Shear Modulus (GPa) = 21.45905 31.58260 26.52082
#
# Velocity S-wave (km/s) = 3.08731 3.74541 3.43217
# Velocity P-wave (km/s) = 4.74753 6.04902 5.43735
#
# Compressibility (1/GPa) = 0.04518370
#
# Stress axis : x y z
#
# Youngs Moduli (GPa) = 127.83104 30.18969 78.75654
#
# Poissons Ratio (x) = 0.11125 0.23381
# Poissons Ratio (y) = 0.47105 -0.19087
# Poissons Ratio (z) = 0.37949 -0.07316
#
# Static dielectric constant tensor:
#      x y z
#    x 1.895210 0.000000 -0.052520 
#    y 0.000000 1.888320 0.000000 
#    z -0.052520 0.000000 1.868890 
# 
# From -- ./inp_files/176215.got.cif
#   From: 2010.05.17/outbox.cif.g08.bks.cpg/sg15_89_cif.got.tgz:176215.got - 2010.06.03 18:47:42.
