data_PCOD9280476
_publ_section_title
;
Structure prediction by ZEFSAII (Michael W. Deem and Ramdas Pophale) SiO2 
 PCOD9280476
Probable space group: C 2/C
;
_chemical_formula_sum "Si O2"
_cell_formula_units_Z 56
_cell_length_a 23.304848
_cell_length_b 24.312724
_cell_length_c 14.259180
_cell_angle_alpha 90.000000
_cell_angle_beta 20.540922
_cell_angle_gamma 90.000000
_cell_volume 2834.839415
_symmetry_space_group_name_H-M "C 2/C"
_symmetry_group_IT_number 15
_symmetry_cell_setting 'monoclinic'
loop_
_space_group_symop_operation_xyz
x,y,z
-x,y,1/2-z
-x,-y,-z
x,-y,1/2+z
1/2+x,1/2+y,z
1/2-x,1/2+y,1/2-z
1/2-x,1/2-y,-z
1/2+x,1/2-y,1/2+z
loop_
_atom_site_type_symbol
_atom_site_label
_atom_site_fract_x
_atom_site_fract_y
_atom_site_fract_z
Si Si1 0.697017 0.539984 0.958104
Si Si2 0.194408 0.433647 0.820241
Si Si3 0.042087 0.843036 0.886988
Si Si4 0.628921 0.135794 0.724774
Si Si5 0.878455 0.043488 0.225897
Si Si6 0.441149 0.233905 0.948226
Si Si7 0.606341 0.673727 0.498823
O O1 0.500000 0.540484 0.250000
O O2 0.715627 0.523579 0.038919
O O3 0.779676 0.492422 0.769716
O O4 0.778244 0.601310 0.835428
O O5 0.251004 0.441159 0.840289
O O6 0.319432 0.386746 0.590745
O O7 0.018054 0.404773 0.081507
O O8 0.232943 0.849286 0.563815
O O9 0.998824 0.906133 0.936212
O O10 0.016874 0.831142 0.035274
O O11 0.965304 0.796695 0.940450
O O12 0.545139 0.195510 0.861495
O O13 0.000000 0.000000 0.000000
O O14 0.500000 0.225787 0.750000
O O15 0.257423 0.213591 0.244161
O O16 0.500000 0.692035 0.750000
#
# Coordination Sequence:
#
# PCOD9280476 Si02
#       7
#     8   8   8   8   8   8   8
#     4  11  21  35  59  93 128 167 208 267 327 377
#     4  10  21  39  62  88 130 168 217 264 322 383
#     4  10  22  38  62  93 121 162 216 261 316 373
#     4  10  22  38  61  95 124 164 215 265 313 380
#     4  10  21  37  60  89 125 160 213 260 316 385
#     4  11  22  41  66  92 129 168 212 267 322 381
#     4  10  22  38  63  90 123 169 215 260 316 386
#
# _framework density 19.754206
#
# number of rings (size 3 to 8) (size 9 to 14) (size 15 to 20)
#    0.000    1.714    2.857    1.286    4.000    2.857 
#    0.000    0.000    0.000    0.000    3.714    0.000 
#    0.000    0.000    0.000    0.000    0.000    0.000 
#
# Total GULP energy -155887.293584 kJ/mol
# GULP energy per Si atom -5567.403342 kJ/mol
# Density = 1.970924 g / cm^3
# Si number density = 19.754206 Si / 1000 Ang^3
#
#
#
# Elastic Constant Matrix: (Units=GPa)
#
#
# Indices 1 2 3 4 5 6 
#
# 1 61.6825 25.8536 20.8144 0.0019 17.9402 -0.0059
# 2 25.8536 94.5033 0.2469 -0.0072 4.0381 -0.0059
# 3 20.8144 0.2469 54.0516 -0.0147 14.9000 -0.0149
# 4 0.0019 -0.0072 -0.0147 13.6816 -0.0067 4.2609
# 5 17.9402 4.0381 14.9000 -0.0067 30.9681 0.0095
# 6 -0.0059 -0.0059 -0.0149 4.2609 0.0095 35.2058
#
#
#
# Elastic Compliance Matrix: (Units=1/GPa)
#
#
# Indices 1 2 3 4 5 6 
#
# 1 0.023802 -0.006071 -0.006405 -0.000020 -0.009915 0.000005
# 2 -0.006071 0.012196 0.002019 0.000010 0.000955 0.000000
# 3 -0.006405 0.002019 0.023067 0.000020 -0.007652 0.000009
# 4 -0.000020 0.000010 0.000020 0.075954 0.000020 -0.009192
# 5 -0.009915 0.000955 -0.007652 0.000020 0.041592 -0.000018
# 6 0.000005 0.000000 0.000009 -0.009192 -0.000018 0.029517
#
#
# Mechanical properties :
#
#
# Convention : Reuss Voigt Hill
#
# Bulk Modulus (GPa) = 26.21125 33.78525 29.99825
# Shear Modulus (GPa) = 20.85424 26.85927 23.85676
#
# Velocity S-wave (km/s) = 3.25266 3.69138 3.47894
# Velocity P-wave (km/s) = 5.23487 5.94208 5.59965
#
# Compressibility (1/GPa) = 0.03815155
#
# Stress axis : x y z
#
# Youngs Moduli (GPa) = 42.01364 81.99114 43.35164
#
# Poissons Ratio (x) = 0.49778 0.27765
# Poissons Ratio (y) = 0.25507 -0.08752
# Poissons Ratio (z) = 0.26908 -0.16553
#
# Static dielectric constant tensor:
#      x y z
#    x 1.765930 -0.000010 0.037770 
#    y -0.000010 1.772180 -0.000020 
#    z 0.037770 -0.000020 1.829830 
# 
# From -- ./inp_files/174737.got.cif
#   From: 2010.05.17/outbox.cif.g08.bks.cpg/sg15_88_cif.got.tgz:174737.got - 2010.06.03 18:47:42.
