data_PCOD9280238
_publ_section_title
;
Structure prediction by ZEFSAII (Michael W. Deem and Ramdas Pophale) SiO2 
 PCOD9280238
Probable space group: C 2/C
;
_chemical_formula_sum "Si O2"
_cell_formula_units_Z 64
_cell_length_a 22.281749
_cell_length_b 18.709450
_cell_length_c 19.927860
_cell_angle_alpha 90.000000
_cell_angle_beta 25.090357
_cell_angle_gamma 90.000000
_cell_volume 3522.775480
_symmetry_space_group_name_H-M "C 2/C"
_symmetry_group_IT_number 15
_symmetry_cell_setting 'monoclinic'
loop_
_space_group_symop_operation_xyz
x,y,z
-x,y,1/2-z
-x,-y,-z
x,-y,1/2+z
1/2+x,1/2+y,z
1/2-x,1/2+y,1/2-z
1/2-x,1/2-y,-z
1/2+x,1/2-y,1/2+z
loop_
_atom_site_type_symbol
_atom_site_label
_atom_site_fract_x
_atom_site_fract_y
_atom_site_fract_z
Si Si1 0.133284 0.140247 0.155447
Si Si2 0.573238 0.986148 0.029173
Si Si3 0.419867 0.596708 0.035353
Si Si4 0.909895 0.389570 0.621579
Si Si5 0.109055 0.612780 0.693806
Si Si6 0.053234 0.230895 0.956131
Si Si7 0.807390 0.744056 0.801580
Si Si8 0.902712 0.024451 0.200312
O O1 0.219970 0.199673 0.110628
O O2 0.068541 0.082627 0.272011
O O3 0.000000 0.172448 0.250000
O O4 0.244600 0.101246 0.993925
O O5 0.475999 0.952323 0.185898
O O6 0.501716 0.058628 0.075379
O O7 0.577823 0.927427 0.964115
O O8 0.738644 0.997694 0.877505
O O9 0.254710 0.612293 0.189569
O O10 0.416555 0.560913 0.112952
O O11 0.520124 0.666111 0.939823
O O12 0.489261 0.541208 0.913410
O O13 0.961434 0.308356 0.563026
O O14 0.148138 0.669873 0.710797
O O15 0.000000 0.644031 0.750000
O O16 0.195214 0.232038 0.856249
O O17 0.937866 0.222503 0.130738
#
# Coordination Sequence:
#
# PCOD9280238 Si02
#       8
#     8   8   8   8   8   8   8   8
#     4  12  24  39  54  83 119 161 203 232 275 340
#     4  10  21  37  57  82 108 151 195 245 283 336
#     4  10  22  36  59  79 114 148 189 242 297 337
#     4  10  21  37  57  82 112 145 196 238 293 343
#     4  12  23  37  58  80 116 160 199 235 277 333
#     4  12  21  37  59  85 117 152 191 240 290 345
#     4  12  23  37  54  81 122 160 198 228 272 344
#     4  10  21  39  54  81 111 150 196 241 284 340
#
# _framework density 18.167493
#
# number of rings (size 3 to 8) (size 9 to 14) (size 15 to 20)
#    0.000    1.000    5.000    3.000    3.500    1.000 
#    0.000    0.000    0.000    0.000    0.000    1.750 
#    0.000    0.000    0.000    0.000    0.000    0.000 
#
# Total GULP energy -178536.501281 kJ/mol
# GULP energy per Si atom -5579.265665 kJ/mol
# Density = 1.812614 g / cm^3
# Si number density = 18.167493 Si / 1000 Ang^3
#
#
#
# Elastic Constant Matrix: (Units=GPa)
#
#
# Indices 1 2 3 4 5 6 
#
# 1 34.1927 23.4029 13.3959 0.0001 -14.7744 -0.0001
# 2 23.4029 98.4596 27.2252 -0.0012 -0.7765 0.0002
# 3 13.3959 27.2252 86.6178 -0.0012 -2.3888 0.0011
# 4 0.0001 -0.0012 -0.0012 22.2841 0.0009 2.1045
# 5 -14.7744 -0.7765 -2.3888 0.0009 33.4774 -0.0003
# 6 -0.0001 0.0002 0.0011 2.1045 -0.0003 21.1921
#
#
#
# Elastic Compliance Matrix: (Units=1/GPa)
#
#
# Indices 1 2 3 4 5 6 
#
# 1 0.045834 -0.009779 -0.003470 -0.000002 0.019753 0.000001
# 2 -0.009779 0.013210 -0.002756 0.000001 -0.004206 0.000000
# 3 -0.003470 -0.002756 0.012929 0.000001 -0.000673 -0.000001
# 4 -0.000002 0.000001 0.000001 0.045300 -0.000002 -0.004499
# 5 0.019753 -0.004206 -0.000673 -0.000002 0.038443 0.000001
# 6 0.000001 0.000000 -0.000001 -0.004499 0.000001 0.047634
#
#
# Mechanical properties :
#
#
# Convention : Reuss Voigt Hill
#
# Bulk Modulus (GPa) = 25.02286 38.59089 31.80687
# Shear Modulus (GPa) = 20.10618 25.74047 22.92333
#
# Velocity S-wave (km/s) = 3.33034 3.76818 3.55600
# Velocity P-wave (km/s) = 5.34710 6.34193 5.86565
#
# Compressibility (1/GPa) = 0.03996346
#
# Stress axis : x y z
#
# Youngs Moduli (GPa) = 21.81799 75.70266 77.34441
#
# Poissons Ratio (x) = 0.74029 0.26839
# Poissons Ratio (y) = 0.21336 0.21313
# Poissons Ratio (z) = 0.07571 0.20860
#
# Static dielectric constant tensor:
#      x y z
#    x 1.629570 0.000000 0.003190 
#    y 0.000000 1.635880 0.000000 
#    z 0.003190 0.000000 1.643960 
# 
# From -- ./inp_files/255989.got.cif
#   From: 2010.05.17/outbox.cif.g08.bks.cpg/sg15_128_cif.got.tgz:255989.got - 2010.06.03 18:47:42.
