data_PCOD9280332
_publ_section_title
;
Structure prediction by ZEFSAII (Michael W. Deem and Ramdas Pophale) SiO2 
 PCOD9280332
Probable space group: C 2/C
;
_chemical_formula_sum "Si O2"
_cell_formula_units_Z 48
_cell_length_a 12.034114
_cell_length_b 19.767773
_cell_length_c 13.549606
_cell_angle_alpha 90.000000
_cell_angle_beta 45.598149
_cell_angle_gamma 90.000000
_cell_volume 2302.875292
_symmetry_space_group_name_H-M "C 2/C"
_symmetry_group_IT_number 15
_symmetry_cell_setting 'monoclinic'
loop_
_space_group_symop_operation_xyz
x,y,z
-x,y,1/2-z
-x,-y,-z
x,-y,1/2+z
1/2+x,1/2+y,z
1/2-x,1/2+y,1/2-z
1/2-x,1/2-y,-z
1/2+x,1/2-y,1/2+z
loop_
_atom_site_type_symbol
_atom_site_label
_atom_site_fract_x
_atom_site_fract_y
_atom_site_fract_z
Si Si1 0.817104 0.760870 0.350391
Si Si2 0.666774 0.225344 0.651812
Si Si3 0.331551 0.410629 0.302166
Si Si4 0.308472 0.347508 0.723460
Si Si5 0.810323 0.049808 0.385555
Si Si6 0.626250 0.603937 0.943024
O O1 0.750000 0.750000 0.500000
O O2 0.759051 0.835809 0.353543
O O3 0.782880 0.698097 0.298831
O O4 0.000000 0.764584 0.250000
O O5 0.500000 0.188338 0.750000
O O6 0.750000 0.250000 0.500000
O O7 0.626534 0.289526 0.744252
O O8 0.795894 0.177310 0.618389
O O9 0.500000 0.405308 0.250000
O O10 0.252046 0.473679 0.405544
O O11 0.353646 0.431836 0.174115
O O12 0.238977 0.400616 0.846224
O O13 0.445649 0.385232 0.580032
O O14 0.794104 0.073157 0.508702
O O15 0.000000 0.051792 0.250000
#
# Coordination Sequence:
#
# PCOD9280332 Si02
#       6
#     8   8   8   8   8   8
#     4  11  24  39  60  91 123 165 206 249 305 369
#     4  12  21  35  60  93 123 153 200 260 311 357
#     4  10  21  37  58  89 124 162 203 253 307 364
#     4  11  20  36  62  91 120 155 207 255 305 362
#     4   9  20  35  60  92 119 157 204 260 307 356
#     4  11  21  38  61  92 123 157 205 256 312 358
#
# _framework density 20.843508
#
# number of rings (size 3 to 8) (size 9 to 14) (size 15 to 20)
#    0.000    1.333    5.000    2.500    0.000    7.333 
#    0.000    0.000    0.000    6.000    0.000    0.000 
#    0.000    0.000    0.000    0.000    0.000    0.000 
#
# Total GULP energy -133743.125561 kJ/mol
# GULP energy per Si atom -5572.630232 kJ/mol
# Density = 2.079607 g / cm^3
# Si number density = 20.843508 Si / 1000 Ang^3
#
#
#
# Elastic Constant Matrix: (Units=GPa)
#
#
# Indices 1 2 3 4 5 6 
#
# 1 48.9182 35.8421 23.7145 -0.0003 28.1379 0.0000
# 2 35.8421 115.9838 28.0902 -0.0003 28.8967 0.0001
# 3 23.7145 28.0902 93.7089 -0.0008 31.7189 0.0003
# 4 -0.0003 -0.0003 -0.0008 17.0616 0.0005 -4.0039
# 5 28.1379 28.8967 31.7189 0.0005 37.7152 -0.0001
# 6 0.0000 0.0001 0.0003 -4.0039 -0.0001 24.4033
#
#
#
# Elastic Compliance Matrix: (Units=1/GPa)
#
#
# Indices 1 2 3 4 5 6 
#
# 1 0.038839 -0.005924 0.000306 0.000001 -0.024695 0.000000
# 2 -0.005924 0.011584 -0.000650 0.000000 -0.003909 0.000000
# 3 0.000306 -0.000650 0.014955 0.000001 -0.012307 0.000000
# 4 0.000001 0.000000 0.000001 0.060958 -0.000003 0.010001
# 5 -0.024695 -0.003909 -0.012307 -0.000003 0.058284 0.000000
# 6 0.000000 0.000000 0.000000 0.010001 0.000000 0.042619
#
#
# Mechanical properties :
#
#
# Convention : Reuss Voigt Hill
#
# Bulk Modulus (GPa) = 18.92474 48.21160 33.56817
# Shear Modulus (GPa) = 19.42591 27.23362 23.32976
#
# Velocity S-wave (km/s) = 3.05616 3.61858 3.34920
# Velocity P-wave (km/s) = 4.64248 6.37490 5.57638
#
# Compressibility (1/GPa) = 0.05284090
#
# Stress axis : x y z
#
# Youngs Moduli (GPa) = 25.74744 86.32692 66.86921
#
# Poissons Ratio (x) = 0.51138 -0.02044
# Poissons Ratio (y) = 0.15252 0.04347
# Poissons Ratio (z) = -0.00787 0.05612
#
# Static dielectric constant tensor:
#      x y z
#    x 1.769150 0.000000 0.026390 
#    y 0.000000 1.804270 0.000000 
#    z 0.026390 0.000000 1.748150 
# 
# From -- ./inp_files/89416.got.cif
#   From: 2010.05.17/outbox.cif.g08.bks.cpg/sg15_45_cif.got.tgz:89416.got - 2010.06.03 18:47:42.
