data_PCOD9280493
_publ_section_title
;
Structure prediction by ZEFSAII (Michael W. Deem and Ramdas Pophale) SiO2 
 PCOD9280493
Probable space group: C 2/C
;
_chemical_formula_sum "Si O2"
_cell_formula_units_Z 44
_cell_length_a 22.758002
_cell_length_b 11.565001
_cell_length_c 7.852572
_cell_angle_alpha 90.000000
_cell_angle_beta 95.340920
_cell_angle_gamma 90.000000
_cell_volume 2057.795094
_symmetry_space_group_name_H-M "C 2/C"
_symmetry_group_IT_number 15
_symmetry_cell_setting 'monoclinic'
loop_
_space_group_symop_operation_xyz
x,y,z
-x,y,1/2-z
-x,-y,-z
x,-y,1/2+z
1/2+x,1/2+y,z
1/2-x,1/2+y,1/2-z
1/2-x,1/2-y,-z
1/2+x,1/2-y,1/2+z
loop_
_atom_site_type_symbol
_atom_site_label
_atom_site_fract_x
_atom_site_fract_y
_atom_site_fract_z
Si Si1 0.000000 0.702778 0.750000
Si Si2 0.017710 0.871475 0.059560
Si Si3 0.652618 0.651302 0.495857
Si Si4 0.631504 0.121136 0.819661
Si Si5 0.195798 0.418141 0.008730
Si Si6 0.783577 0.956848 0.778919
O O1 0.060900 0.634310 0.795360
O O2 0.008981 0.782830 0.585602
O O3 0.087786 0.863439 0.052852
O O4 0.000000 0.848902 0.250000
O O5 0.000000 0.000000 0.000000
O O6 0.659231 0.787169 0.461131
O O7 0.695131 0.576177 0.627124
O O8 0.662247 0.596330 0.310498
O O9 0.658834 0.149001 0.640862
O O10 0.650599 0.993801 0.884238
O O11 0.234601 0.505968 0.131394
O O12 0.247765 0.372870 0.897771
#
# Coordination Sequence:
#
# PCOD9280493 Si02
#       6
#     4   8   8   8   8   8
#     4  10  24  42  62  96 122 164 220 256 312 380
#     4  11  21  38  63  91 132 168 199 257 319 380
#     4  10  21  37  60  91 127 157 200 256 308 387
#     4  10  22  42  61  88 124 163 214 262 308 365
#     4   9  20  39  60  84 120 165 208 260 298 359
#     4   9  19  36  60  92 121 157 202 244 323 374
#
# _framework density 21.382110999999998
#
# number of rings (size 3 to 8) (size 9 to 14) (size 15 to 20)
#    0.000    2.182    0.909    1.091    2.545    8.000 
#   13.091    0.000    0.000    0.000    0.000    0.000 
#    0.000    0.000    0.000    0.000    0.000    0.000 
#
# Total GULP energy -122561.655659 kJ/mol
# GULP energy per Si atom -5570.984348 kJ/mol
# Density = 2.133344 g / cm^3
# Si number density = 21.382111 Si / 1000 Ang^3
#
#
#
# Elastic Constant Matrix: (Units=GPa)
#
#
# Indices 1 2 3 4 5 6 
#
# 1 118.9689 37.6497 56.1698 0.0000 -25.9593 0.0000
# 2 37.6497 33.9094 22.5448 0.0000 -2.4528 0.0000
# 3 56.1698 22.5448 112.0295 0.0000 -24.1252 0.0000
# 4 0.0000 0.0000 0.0000 15.7068 0.0000 -7.1485
# 5 -25.9593 -2.4528 -24.1252 0.0000 48.5890 0.0000
# 6 0.0000 0.0000 0.0000 -7.1485 0.0000 26.2663
#
#
#
# Elastic Compliance Matrix: (Units=1/GPa)
#
#
# Indices 1 2 3 4 5 6 
#
# 1 0.016330 -0.015143 -0.003836 0.000000 0.006056 0.000000
# 2 -0.015143 0.048242 -0.003733 0.000000 -0.007508 0.000000
# 3 -0.003836 -0.003733 0.012450 0.000000 0.003944 0.000000
# 4 0.000000 0.000000 0.000000 0.072667 0.000000 0.019777
# 5 0.006056 -0.007508 0.003944 0.000000 0.025395 0.000000
# 6 0.000000 0.000000 0.000000 0.019777 0.000000 0.043454
#
#
# Mechanical properties :
#
#
# Convention : Reuss Voigt Hill
#
# Bulk Modulus (GPa) = 31.64698 55.29291 43.46995
# Shear Modulus (GPa) = 18.21515 28.01532 23.11523
#
# Velocity S-wave (km/s) = 2.92188 3.62363 3.29151
# Velocity P-wave (km/s) = 5.12015 6.58962 5.90081
#
# Compressibility (1/GPa) = 0.03159860
#
# Stress axis : x y z
#
# Youngs Moduli (GPa) = 61.23513 20.72865 80.32036
#
# Poissons Ratio (x) = 0.31390 0.30814
# Poissons Ratio (y) = 0.92729 0.29981
# Poissons Ratio (z) = 0.23492 0.07737
#
# Static dielectric constant tensor:
#      x y z
#    x 1.791580 0.000000 -0.044110 
#    y 0.000000 1.791630 0.000000 
#    z -0.044110 0.000000 1.838220 
# 
# From -- ./inp_files/54464.got.cif
#   From: 2010.05.17/outbox.cif.g08.bks.cpg/sg15_28_cif.got.tgz:54464.got - 2010.06.03 18:47:42.
