data_PCOD9280550
_publ_section_title
;
Structure prediction by ZEFSAII (Michael W. Deem and Ramdas Pophale) SiO2 
 PCOD9280550
Probable space group: C 2/C
;
_chemical_formula_sum "Si O2"
_cell_formula_units_Z 52
_cell_length_a 14.940362
_cell_length_b 6.429029
_cell_length_c 26.727648
_cell_angle_alpha 90.000000
_cell_angle_beta 113.097614
_cell_angle_gamma 90.000000
_cell_volume 2361.448710
_symmetry_space_group_name_H-M "C 2/C"
_symmetry_group_IT_number 15
_symmetry_cell_setting 'monoclinic'
loop_
_space_group_symop_operation_xyz
x,y,z
-x,y,1/2-z
-x,-y,-z
x,-y,1/2+z
1/2+x,1/2+y,z
1/2-x,1/2+y,1/2-z
1/2-x,1/2-y,-z
1/2+x,1/2-y,1/2+z
loop_
_atom_site_type_symbol
_atom_site_label
_atom_site_fract_x
_atom_site_fract_y
_atom_site_fract_z
Si Si1 0.811997 0.299252 0.323648
Si Si2 0.314405 0.289217 0.063193
Si Si3 0.366717 0.969473 0.431023
Si Si4 0.147307 0.516472 0.338408
Si Si5 0.986226 0.808606 0.033914
Si Si6 0.000000 0.776149 0.250000
Si Si7 0.844210 0.127244 0.224464
O O1 0.885101 0.330953 0.385634
O O2 0.733491 0.124434 0.324003
O O3 0.850879 0.246825 0.278000
O O4 0.760008 0.522730 0.306869
O O5 0.248253 0.446566 0.081643
O O6 0.326705 0.081273 0.099389
O O7 0.420060 0.362138 0.067488
O O8 0.250000 0.250000 0.000000
O O9 0.422687 0.861584 0.489280
O O10 0.411274 0.196814 0.432727
O O11 0.135639 0.282265 0.316915
O O12 0.046887 0.633263 0.302784
O O13 0.000000 0.000000 0.000000
O O14 0.914927 0.932266 0.246120
#
# Coordination Sequence:
#
# PCOD9280550 Si02
#       7
#     8   8   8   8   8   4   8
#     4  10  21  37  61  87 116 159 200 247 309 362
#     4   9  20  40  62  84 121 165 203 258 315 369
#     4   9  21  39  57  86 124 150 202 256 305 379
#     4  10  21  40  59  88 125 158 203 255 304 381
#     4  10  21  38  60  90 115 158 209 254 312 373
#     4  10  24  36  56  88 124 158 198 248 318 368
#     4  11  21  39  60  86 118 159 202 250 305 372
#
# _framework density 22.020379999999999
#
# number of rings (size 3 to 8) (size 9 to 14) (size 15 to 20)
#    0.000    2.154    1.538    0.462    0.000    8.000 
#    0.000   10.769    0.000    0.000    0.000    0.000 
#    0.000    0.000    0.000    0.000    0.000    0.000 
#
# Total GULP energy -145048.177798 kJ/mol
# GULP energy per Si atom -5578.776069 kJ/mol
# Density = 2.197026 g / cm^3
# Si number density = 22.020380 Si / 1000 Ang^3
#
#
#
# Elastic Constant Matrix: (Units=GPa)
#
#
# Indices 1 2 3 4 5 6 
#
# 1 66.3727 20.9475 -7.1085 0.0000 -12.8614 0.0000
# 2 20.9475 62.6905 -7.8083 0.0000 1.2516 0.0000
# 3 -7.1085 -7.8083 83.9170 0.0000 -7.5649 0.0000
# 4 0.0000 0.0000 0.0000 29.1771 0.0000 9.4190
# 5 -12.8614 1.2516 -7.5649 0.0000 26.9758 0.0000
# 6 0.0000 0.0000 0.0000 9.4190 0.0000 19.7799
#
#
#
# Elastic Compliance Matrix: (Units=1/GPa)
#
#
# Indices 1 2 3 4 5 6 
#
# 1 0.019227 -0.006383 0.001937 0.000000 0.010006 0.000000
# 2 -0.006383 0.018261 0.000829 0.000000 -0.003658 0.000000
# 3 0.001937 0.000829 0.012555 0.000000 0.004406 0.000000
# 4 0.000000 0.000000 0.000000 0.040499 0.000000 -0.019285
# 5 0.010006 -0.003658 0.004406 0.000000 0.043246 0.000000
# 6 0.000000 0.000000 0.000000 -0.019285 0.000000 0.059740
#
#
# Mechanical properties :
#
#
# Convention : Reuss Voigt Hill
#
# Bulk Modulus (GPa) = 23.36051 25.00462 24.18257
# Shear Modulus (GPa) = 23.25228 28.98321 26.11774
#
# Velocity S-wave (km/s) = 3.25305 3.63188 3.44767
# Velocity P-wave (km/s) = 4.97408 5.38213 5.18212
#
# Compressibility (1/GPa) = 0.04280728
#
# Stress axis : x y z
#
# Youngs Moduli (GPa) = 52.00900 54.76293 79.65041
#
# Poissons Ratio (x) = 0.34956 -0.15427
# Poissons Ratio (y) = 0.33199 -0.06600
# Poissons Ratio (z) = -0.10073 -0.04538
#
# Static dielectric constant tensor:
#      x y z
#    x 1.890340 0.000000 0.017380 
#    y 0.000000 1.802800 0.000000 
#    z 0.017380 0.000000 1.916130 
# 
# From -- ./inp_files/297827.got.cif
#   From: 2010.05.17/outbox.cif.g08.bks.cpg/sg15_149_cif.got.tgz:297827.got - 2010.06.03 18:47:42.
