data_PCOD9280995
_publ_section_title
;
Structure prediction by ZEFSAII (Michael W. Deem and Ramdas Pophale) SiO2 
 PCOD9280995
Probable space group: C 2/C
;
_chemical_formula_sum "Si O2"
_cell_formula_units_Z 48
_cell_length_a 12.036118
_cell_length_b 16.014356
_cell_length_c 14.254264
_cell_angle_alpha 90.000000
_cell_angle_beta 85.536978
_cell_angle_gamma 90.000000
_cell_volume 2739.187928
_symmetry_space_group_name_H-M "C 2/C"
_symmetry_group_IT_number 15
_symmetry_cell_setting 'monoclinic'
loop_
_space_group_symop_operation_xyz
x,y,z
-x,y,1/2-z
-x,-y,-z
x,-y,1/2+z
1/2+x,1/2+y,z
1/2-x,1/2+y,1/2-z
1/2-x,1/2-y,-z
1/2+x,1/2-y,1/2+z
loop_
_atom_site_type_symbol
_atom_site_label
_atom_site_fract_x
_atom_site_fract_y
_atom_site_fract_z
Si Si1 0.132584 0.654188 0.762015
Si Si2 0.283011 0.122757 0.424753
Si Si3 0.867579 0.461424 0.735763
Si Si4 0.847279 0.286246 0.430944
Si Si5 0.125385 0.464808 0.981567
Si Si6 0.902840 0.253889 0.045362
O O1 0.169975 0.558325 0.753267
O O2 0.181122 0.712697 0.677423
O O3 0.145150 0.691992 0.864093
O O4 0.000000 0.652901 0.750000
O O5 0.306372 0.095479 0.316366
O O6 0.165885 0.168403 0.449314
O O7 0.374037 0.190341 0.456171
O O8 0.297752 0.039126 0.485222
O O9 0.852742 0.440469 0.627443
O O10 0.000000 0.458154 0.750000
O O11 0.750000 0.250000 0.500000
O O12 0.864767 0.383306 0.455860
O O13 0.965997 0.243816 0.445811
O O14 0.000000 0.500000 0.000000
#
# Coordination Sequence:
#
# PCOD9280995 Si02
#       6
#     8   8   8   8   8   8
#     4   9  17  33  56  78 110 145 186 232 279 335
#     4  11  21  34  58  83 114 152 186 236 289 345
#     4  11  18  30  56  84 107 143 193 238 272 334
#     4  11  22  36  57  86 114 145 189 242 281 336
#     4  12  19  36  57  85 112 144 196 236 281 336
#     4  10  21  38  54  84 119 153 185 230 304 341
#
# _framework density 17.523440999999998
#
# number of rings (size 3 to 8) (size 9 to 14) (size 15 to 20)
#    0.000    1.333    6.667    1.000    2.333    0.000 
#    0.000    0.833    0.000    0.000    0.000    0.000 
#    0.000    0.000    0.000    0.000    0.000    0.000 
#
# Total GULP energy -133914.727608 kJ/mol
# GULP energy per Si atom -5579.780317 kJ/mol
# Density = 1.748356 g / cm^3
# Si number density = 17.523441 Si / 1000 Ang^3
#
#
#
# Elastic Constant Matrix: (Units=GPa)
#
#
# Indices 1 2 3 4 5 6 
#
# 1 57.3479 32.6808 14.8333 0.0000 -7.8097 0.0000
# 2 32.6808 73.3399 17.9673 0.0000 -4.2733 0.0000
# 3 14.8333 17.9673 122.0094 0.0000 -4.4648 0.0000
# 4 0.0000 0.0000 0.0000 35.1069 0.0000 -1.6843
# 5 -7.8097 -4.2733 -4.4648 0.0000 21.6356 0.0000
# 6 0.0000 0.0000 0.0000 -1.6843 0.0000 24.7303
#
#
#
# Elastic Compliance Matrix: (Units=1/GPa)
#
#
# Indices 1 2 3 4 5 6 
#
# 1 0.024475 -0.010222 -0.001230 0.000000 0.006562 0.000000
# 2 -0.010222 0.018538 -0.001500 0.000000 -0.000338 0.000000
# 3 -0.001230 -0.001500 0.008604 0.000000 0.001035 0.000000
# 4 0.000000 0.000000 0.000000 0.028578 0.000000 0.001946
# 5 0.006562 -0.000338 0.001035 0.000000 0.048736 0.000000
# 6 0.000000 0.000000 0.000000 0.001946 0.000000 0.040569
#
#
# Mechanical properties :
#
#
# Convention : Reuss Voigt Hill
#
# Bulk Modulus (GPa) = 38.89075 42.62889 40.75982
# Shear Modulus (GPa) = 24.51294 28.77561 26.64427
#
# Velocity S-wave (km/s) = 3.74420 4.05671 3.90358
# Velocity P-wave (km/s) = 6.39795 6.80603 6.60514
#
# Compressibility (1/GPa) = 0.02571306
#
# Stress axis : x y z
#
# Youngs Moduli (GPa) = 40.85875 53.94325 116.22038
#
# Poissons Ratio (x) = 0.55143 0.14295
# Poissons Ratio (y) = 0.41767 0.17427
# Poissons Ratio (z) = 0.05026 0.08089
#
# Static dielectric constant tensor:
#      x y z
#    x 1.583850 0.000000 0.015060 
#    y 0.000000 1.586670 0.000000 
#    z 0.015060 0.000000 1.625360 
# 
# From -- ./inp_files/143445.got.cif
#   From: 2010.05.17/outbox.cif.g08.bks.cpg/sg15_72_cif.got.tgz:143445.got - 2010.06.03 18:47:42.
