data_PCOD9280462
_publ_section_title
;
Structure prediction by ZEFSAII (Michael W. Deem and Ramdas Pophale) SiO2 
 PCOD9280462
Probable space group: C 2/C
;
_chemical_formula_sum "Si O2"
_cell_formula_units_Z 52
_cell_length_a 5.264236
_cell_length_b 24.545749
_cell_length_c 21.186476
_cell_angle_alpha 90.000000
_cell_angle_beta 64.827149
_cell_angle_gamma 90.000000
_cell_volume 2477.608702
_symmetry_space_group_name_H-M "C 2/C"
_symmetry_group_IT_number 15
_symmetry_cell_setting 'monoclinic'
loop_
_space_group_symop_operation_xyz
x,y,z
-x,y,1/2-z
-x,-y,-z
x,-y,1/2+z
1/2+x,1/2+y,z
1/2-x,1/2+y,1/2-z
1/2-x,1/2-y,-z
1/2+x,1/2-y,1/2+z
loop_
_atom_site_type_symbol
_atom_site_label
_atom_site_fract_x
_atom_site_fract_y
_atom_site_fract_z
Si Si1 0.362271 0.664031 0.398572
Si Si2 0.409836 0.802644 0.457295
Si Si3 0.526810 0.137860 0.671404
Si Si4 0.500000 0.689021 0.750000
Si Si5 0.358278 0.547581 0.334237
Si Si6 0.086069 0.263502 0.628508
Si Si7 0.354162 0.985176 0.334777
O O1 0.213006 0.652796 0.482055
O O2 0.382316 0.608032 0.358838
O O3 0.662731 0.695327 0.373902
O O4 0.139737 0.702543 0.386050
O O5 0.250000 0.750000 0.500000
O O6 0.346623 0.819567 0.391818
O O7 0.732188 0.782717 0.427337
O O8 0.500000 0.148681 0.750000
O O9 0.199089 0.146962 0.691959
O O10 0.636341 0.077990 0.647381
O O11 0.431048 0.732331 0.702035
O O12 0.500000 0.547475 0.250000
O O13 0.544862 0.508194 0.358071
O O14 0.047181 0.523500 0.357874
O O15 0.500000 0.985856 0.250000
#
# Coordination Sequence:
#
# PCOD9280462 Si02
#       7
#     8   8   8   4   8   8   8
#     4  11  22  40  61  86 126 169 199 244 315 368
#     4   9  21  42  59  91 126 165 198 250 307 374
#     4  10  22  39  66  90 120 162 208 256 308 358
#     4  10  24  34  60  94 120 154 212 258 294 362
#     4  10  21  37  60  88 121 157 205 254 306 358
#     4  10  23  37  60  88 127 161 205 246 301 366
#     4   9  20  38  60  87 119 153 205 262 302 348
#
# _framework density 20.987977999999998
#
# number of rings (size 3 to 8) (size 9 to 14) (size 15 to 20)
#    0.000    2.154    0.000    1.385   14.000    0.000 
#    2.769    1.538    0.000    0.000    0.000    0.000 
#    0.000    0.000    0.000    0.000    0.000    0.000 
#
# Total GULP energy -144739.605194 kJ/mol
# GULP energy per Si atom -5566.907892 kJ/mol
# Density = 2.094021 g / cm^3
# Si number density = 20.987978 Si / 1000 Ang^3
#
#
#
# Elastic Constant Matrix: (Units=GPa)
#
#
# Indices 1 2 3 4 5 6 
#
# 1 108.0618 53.6270 21.5096 0.0000 6.9784 0.0000
# 2 53.6270 121.2391 35.2221 0.0000 7.0918 0.0000
# 3 21.5096 35.2221 55.8948 0.0000 9.9355 0.0000
# 4 0.0000 0.0000 0.0000 25.0335 0.0000 10.0597
# 5 6.9784 7.0918 9.9355 0.0000 20.1672 0.0000
# 6 0.0000 0.0000 0.0000 10.0597 0.0000 30.8880
#
#
#
# Elastic Compliance Matrix: (Units=1/GPa)
#
#
# Indices 1 2 3 4 5 6 
#
# 1 0.012028 -0.004851 -0.001244 0.000000 -0.001843 0.000000
# 2 -0.004851 0.012057 -0.005782 0.000000 0.000287 0.000000
# 3 -0.001244 -0.005782 0.023646 0.000000 -0.009186 0.000000
# 4 0.000000 0.000000 0.000000 0.045962 0.000000 -0.014969
# 5 -0.001843 0.000287 -0.009186 0.000000 0.054648 0.000000
# 6 0.000000 0.000000 0.000000 -0.014969 0.000000 0.037250
#
#
# Mechanical properties :
#
#
# Convention : Reuss Voigt Hill
#
# Bulk Modulus (GPa) = 41.70752 56.21256 48.96004
# Shear Modulus (GPa) = 23.00579 26.87353 24.93966
#
# Velocity S-wave (km/s) = 3.31439 3.58218 3.45089
# Velocity P-wave (km/s) = 5.87896 6.62954 6.26550
#
# Compressibility (1/GPa) = 0.02397649
#
# Stress axis : x y z
#
# Youngs Moduli (GPa) = 83.13927 82.94056 42.29086
#
# Poissons Ratio (x) = 0.40235 0.05262
# Poissons Ratio (y) = 0.40331 0.24452
# Poissons Ratio (z) = 0.10344 0.47955
#
# Static dielectric constant tensor:
#      x y z
#    x 1.975390 0.000000 0.001250 
#    y 0.000000 1.759230 0.000000 
#    z 0.001250 0.000000 1.849370 
# 
# From -- ./inp_files/261314.got.cif
#   From: 2010.05.17/outbox.cif.g08.bks.cpg/sg15_131_cif.got.tgz:261314.got - 2010.06.03 18:47:42.
