data_PCOD9280342
_publ_section_title
;
Structure prediction by ZEFSAII (Michael W. Deem and Ramdas Pophale) SiO2 
 PCOD9280342
Probable space group: C 2/C
;
_chemical_formula_sum "Si O2"
_cell_formula_units_Z 60
_cell_length_a 17.908962
_cell_length_b 23.180734
_cell_length_c 8.792043
_cell_angle_alpha 90.000000
_cell_angle_beta 60.279428
_cell_angle_gamma 90.000000
_cell_volume 3169.815640
_symmetry_space_group_name_H-M "C 2/C"
_symmetry_group_IT_number 15
_symmetry_cell_setting 'monoclinic'
loop_
_space_group_symop_operation_xyz
x,y,z
-x,y,1/2-z
-x,-y,-z
x,-y,1/2+z
1/2+x,1/2+y,z
1/2-x,1/2+y,1/2-z
1/2-x,1/2-y,-z
1/2+x,1/2-y,1/2+z
loop_
_atom_site_type_symbol
_atom_site_label
_atom_site_fract_x
_atom_site_fract_y
_atom_site_fract_z
Si Si1 0.533996 0.443582 0.045912
Si Si2 0.770544 0.063287 0.229497
Si Si3 0.372054 0.751987 0.502627
Si Si4 0.485132 0.313958 0.445713
Si Si5 0.437760 0.948445 0.117030
Si Si6 0.196374 0.192945 0.226847
Si Si7 0.326895 0.020785 0.456322
Si Si8 0.000000 0.346863 0.250000
O O1 0.500000 0.444311 0.250000
O O2 0.507062 0.380915 0.008662
O O3 0.500000 0.500000 0.000000
O O4 0.636092 0.447277 0.933479
O O5 0.774381 0.126657 0.295479
O O6 0.706242 0.057662 0.152127
O O7 0.744655 0.015831 0.380689
O O8 0.444218 0.723470 0.536689
O O9 0.283136 0.771198 0.672106
O O10 0.340248 0.709235 0.401933
O O11 0.419444 0.806135 0.373238
O O12 0.500000 0.311132 0.250000
O O13 0.386219 0.297128 0.581744
O O14 0.480520 0.889297 0.127811
O O15 0.388571 0.973535 0.314316
O O16 0.374556 0.942139 0.037062
O O17 0.500000 0.000000 0.000000
#
# Coordination Sequence:
#
# PCOD9280342 Si02
#       8
#     8   8   8   8   8   8   8   4
#     4  10  21  37  62  90 120 160 202 253 315 376
#     4  10  21  38  60  90 132 161 208 259 312 384
#     4  11  23  42  67  89 123 170 220 260 313 380
#     4  10  22  43  63  92 130 159 207 273 320 376
#     4  11  21  38  61  88 127 164 203 257 308 376
#     4  10  22  42  64  91 121 170 215 263 312 376
#     4  10  21  37  58  91 127 166 201 252 321 370
#     4  12  22  40  66  92 126 164 224 254 314 394
#
# _framework density 18.928546000000001
#
# number of rings (size 3 to 8) (size 9 to 14) (size 15 to 20)
#    0.000    1.600    2.667    1.600    1.867    3.733 
#    2.400   12.000    0.000    0.000    0.000    0.000 
#    0.000    0.000    0.000    0.000    0.000    0.000 
#
# Total GULP energy -167367.771555 kJ/mol
# GULP energy per Si atom -5578.925719 kJ/mol
# Density = 1.888546 g / cm^3
# Si number density = 18.928546 Si / 1000 Ang^3
#
#
#
# Elastic Constant Matrix: (Units=GPa)
#
#
# Indices 1 2 3 4 5 6 
#
# 1 93.4899 71.8279 27.1092 0.0000 -2.8230 0.0000
# 2 71.8279 103.1313 44.6943 0.0000 4.9016 0.0000
# 3 27.1092 44.6943 91.1852 0.0000 -18.0769 0.0000
# 4 0.0000 0.0000 0.0000 25.2839 0.0000 2.5843
# 5 -2.8230 4.9016 -18.0769 0.0000 34.6379 0.0000
# 6 0.0000 0.0000 0.0000 2.5843 0.0000 29.5041
#
#
#
# Elastic Compliance Matrix: (Units=1/GPa)
#
#
# Indices 1 2 3 4 5 6 
#
# 1 0.024184 -0.018481 0.003098 0.000000 0.006203 0.000000
# 2 -0.018481 0.027434 -0.010062 0.000000 -0.010639 0.000000
# 3 0.003098 -0.010062 0.017076 0.000000 0.010588 0.000000
# 4 0.000000 0.000000 0.000000 0.039908 0.000000 -0.003496
# 5 0.006203 -0.010639 0.010588 0.000000 0.036407 0.000000
# 6 0.000000 0.000000 0.000000 -0.003496 0.000000 0.034200
#
#
# Mechanical properties :
#
#
# Convention : Reuss Voigt Hill
#
# Bulk Modulus (GPa) = 56.16141 63.89656 60.02899
# Shear Modulus (GPa) = 21.18343 27.49686 24.34014
#
# Velocity S-wave (km/s) = 3.34896 3.81552 3.58983
# Velocity P-wave (km/s) = 6.68496 7.29664 6.99749
#
# Compressibility (1/GPa) = 0.01780582
#
# Stress axis : x y z
#
# Youngs Moduli (GPa) = 41.34914 36.45099 58.56094
#
# Poissons Ratio (x) = 0.67366 -0.18144
# Poissons Ratio (y) = 0.76418 0.58921
# Poissons Ratio (z) = -0.12812 0.36675
#
# Static dielectric constant tensor:
#      x y z
#    x 1.690930 0.000000 -0.027300 
#    y 0.000000 1.660770 0.000000 
#    z -0.027300 0.000000 1.652960 
# 
# From -- ./inp_files/50629.got.cif
#   From: 2010.05.17/outbox.cif.g08.bks.cpg/sg15_26_cif.got.tgz:50629.got - 2010.06.03 18:47:42.
