data_PCOD9280008
_publ_section_title
;
Structure prediction by ZEFSAII (Michael W. Deem and Ramdas Pophale) SiO2 
 PCOD9280008
Probable space group: C 2/C
;
_chemical_formula_sum "Si O2"
_cell_formula_units_Z 56
_cell_length_a 13.787697
_cell_length_b 8.818767
_cell_length_c 26.587477
_cell_angle_alpha 90.000000
_cell_angle_beta 59.743825
_cell_angle_gamma 90.000000
_cell_volume 2792.418310
_symmetry_space_group_name_H-M "C 2/C"
_symmetry_group_IT_number 15
_symmetry_cell_setting 'monoclinic'
loop_
_space_group_symop_operation_xyz
x,y,z
-x,y,1/2-z
-x,-y,-z
x,-y,1/2+z
1/2+x,1/2+y,z
1/2-x,1/2+y,1/2-z
1/2-x,1/2-y,-z
1/2+x,1/2-y,1/2+z
loop_
_atom_site_type_symbol
_atom_site_label
_atom_site_fract_x
_atom_site_fract_y
_atom_site_fract_z
Si Si1 0.770552 0.035855 0.617593
Si Si2 0.565590 0.103746 0.924828
Si Si3 0.264867 0.243719 0.436698
Si Si4 0.366691 0.461825 0.879909
Si Si5 0.611321 0.321382 0.831795
Si Si6 0.633272 0.287051 0.713961
Si Si7 0.863084 0.313340 0.540386
O O1 0.690338 0.151085 0.668415
O O2 0.854995 0.144709 0.564377
O O3 0.715408 0.921775 0.591698
O O4 0.826248 0.930249 0.645307
O O5 0.651546 0.189469 0.940412
O O6 0.598557 0.157782 0.861128
O O7 0.581457 0.927322 0.932921
O O8 0.442036 0.162123 0.971850
O O9 0.250000 0.250000 0.500000
O O10 0.359854 0.363479 0.396153
O O11 0.486408 0.389208 0.858963
O O12 0.344593 0.434421 0.826332
O O13 0.263648 0.375167 0.934332
O O14 0.667966 0.309073 0.762498
O O15 0.500000 0.259839 0.750000
#
# Coordination Sequence:
#
# PCOD9280008 Si02
#       7
#     8   8   8   8   8   8   8
#     4  10  22  37  60  86 112 150 195 239 288 342
#     4   9  20  37  55  83 119 149 195 233 288 349
#     4  10  22  37  55  86 121 150 185 240 291 351
#     4   9  20  39  57  80 118 151 190 229 293 345
#     4  10  21  36  63  84 111 155 186 242 290 341
#     4   9  20  43  57  80 112 150 192 234 279 344
#     4   9  19  38  54  82 120 149 189 240 283 348
#
# _framework density 20.054302
#
# number of rings (size 3 to 8) (size 9 to 14) (size 15 to 20)
#    0.000    2.571    0.000    0.000    4.000    6.286 
#   20.571    3.571    0.000    0.000    0.000    0.000 
#    0.000    0.000    0.000    0.000    0.000    0.000 
#
# Total GULP energy -156204.940815 kJ/mol
# GULP energy per Si atom -5578.747886 kJ/mol
# Density = 2.000866 g / cm^3
# Si number density = 20.054302 Si / 1000 Ang^3
#
#
#
# Elastic Constant Matrix: (Units=GPa)
#
#
# Indices 1 2 3 4 5 6 
#
# 1 28.8338 -1.0903 20.4014 0.0000 6.5779 0.0000
# 2 -1.0903 101.8410 33.1446 0.0000 26.0044 0.0000
# 3 20.4014 33.1446 81.0786 0.0000 24.3419 0.0000
# 4 0.0000 0.0000 0.0000 28.4470 0.0000 -0.6107
# 5 6.5779 26.0044 24.3419 0.0000 35.0471 0.0000
# 6 0.0000 0.0000 0.0000 -0.6107 0.0000 13.0743
#
#
#
# Elastic Compliance Matrix: (Units=1/GPa)
#
#
# Indices 1 2 3 4 5 6 
#
# 1 0.044437 0.005452 -0.012245 0.000000 -0.003881 0.000000
# 2 0.005452 0.013327 -0.004478 0.000000 -0.007802 0.000000
# 3 -0.012245 -0.004478 0.019657 0.000000 -0.008032 0.000000
# 4 0.000000 0.000000 0.000000 0.035188 0.000000 0.001644
# 5 -0.003881 -0.007802 -0.008032 0.000000 0.040629 0.000000
# 6 0.000000 0.000000 0.000000 0.001644 0.000000 0.076563
#
#
# Mechanical properties :
#
#
# Convention : Reuss Voigt Hill
#
# Bulk Modulus (GPa) = 18.22186 35.18499 26.70342
# Shear Modulus (GPa) = 18.47506 25.93354 22.20430
#
# Velocity S-wave (km/s) = 3.03851 3.59996 3.33108
# Velocity P-wave (km/s) = 4.62774 5.90445 5.30465
#
# Compressibility (1/GPa) = 0.05487914
#
# Stress axis : x y z
#
# Youngs Moduli (GPa) = 22.50377 75.03591 50.87320
#
# Poissons Ratio (x) = -0.40909 0.62295
# Poissons Ratio (y) = -0.12269 0.22779
# Poissons Ratio (z) = 0.27556 0.33598
#
# Static dielectric constant tensor:
#      x y z
#    x 1.741930 0.000000 0.016560 
#    y 0.000000 1.729590 0.000000 
#    z 0.016560 0.000000 1.720460 
# 
# From -- ./inp_files/295056.got.cif
#   From: 2010.05.17/outbox.cif.g08.bks.cpg/sg15_148_cif.got.tgz:295056.got - 2010.06.03 18:47:42.
