data_PCOD9280185
_publ_section_title
;
Structure prediction by ZEFSAII (Michael W. Deem and Ramdas Pophale) SiO2 
 PCOD9280185
Probable space group: C 2/C
;
_chemical_formula_sum "Si O2"
_cell_formula_units_Z 48
_cell_length_a 13.472425
_cell_length_b 30.659111
_cell_length_c 6.042996
_cell_angle_alpha 90.000000
_cell_angle_beta 73.377419
_cell_angle_gamma 90.000000
_cell_volume 2391.763840
_symmetry_space_group_name_H-M "C 2/C"
_symmetry_group_IT_number 15
_symmetry_cell_setting 'monoclinic'
loop_
_space_group_symop_operation_xyz
x,y,z
-x,y,1/2-z
-x,-y,-z
x,-y,1/2+z
1/2+x,1/2+y,z
1/2-x,1/2+y,1/2-z
1/2-x,1/2-y,-z
1/2+x,1/2-y,1/2+z
loop_
_atom_site_type_symbol
_atom_site_label
_atom_site_fract_x
_atom_site_fract_y
_atom_site_fract_z
Si Si1 0.680064 0.614345 0.130462
Si Si2 0.776379 0.330004 0.953491
Si Si3 0.121141 0.985236 0.682339
Si Si4 0.855071 0.729138 0.029132
Si Si5 0.611222 0.137747 0.735886
Si Si6 0.915485 0.183615 0.621731
O O1 0.710750 0.638768 0.335577
O O2 0.634373 0.566794 0.187223
O O3 0.789932 0.613167 0.929475
O O4 0.603466 0.645995 0.043970
O O5 0.827184 0.291533 0.783162
O O6 0.865428 0.356668 0.021096
O O7 0.694669 0.312683 0.183072
O O8 0.000000 0.998401 0.750000
O O9 0.161101 0.998086 0.403564
O O10 0.934582 0.768856 0.005217
O O11 0.750000 0.750000 0.000000
O O12 0.886599 0.687003 0.866705
O O13 0.500000 0.118440 0.750000
O O14 0.000000 0.172559 0.750000
#
# Coordination Sequence:
#
# PCOD9280185 Si02
#       6
#     8   8   8   8   8   8
#     4  10  23  41  60  91 122 156 208 256 314 386
#     4  10  21  37  56  75 118 162 200 270 295 365
#     4  10  24  43  71 102 132 166 201 250 325 407
#     4  11  20  37  49  79 117 160 219 255 307 354
#     4  10  23  38  59  84 117 166 216 260 312 366
#     4  11  24  33  54  85 118 165 210 255 313 363
#
# _framework density 20.068871999999999
#
# number of rings (size 3 to 8) (size 9 to 14) (size 15 to 20)
#    0.000    1.667    5.000    0.500    9.333    2.667 
#    0.000    0.000    0.000    1.000    0.000    0.000 
#    0.000    0.000    0.000    0.000    0.000    0.000 
#
# Total GULP energy -133884.672159 kJ/mol
# GULP energy per Si atom -5578.528007 kJ/mol
# Density = 2.002319 g / cm^3
# Si number density = 20.068872 Si / 1000 Ang^3
#
#
#
# Elastic Constant Matrix: (Units=GPa)
#
#
# Indices 1 2 3 4 5 6 
#
# 1 76.7876 -11.8371 22.2502 0.0000 16.9431 0.0000
# 2 -11.8371 80.1634 31.0936 0.0000 13.3696 0.0000
# 3 22.2502 31.0936 106.2418 0.0000 24.1221 0.0000
# 4 0.0000 0.0000 0.0000 9.7206 0.0000 -8.1380
# 5 16.9431 13.3696 24.1221 0.0000 33.1346 0.0000
# 6 0.0000 0.0000 0.0000 -8.1380 0.0000 12.4623
#
#
#
# Elastic Compliance Matrix: (Units=1/GPa)
#
#
# Indices 1 2 3 4 5 6 
#
# 1 0.016490 0.004988 -0.003045 0.000000 -0.008228 0.000000
# 2 0.004988 0.015872 -0.004381 0.000000 -0.005766 0.000000
# 3 -0.003045 -0.004381 0.012672 0.000000 -0.005901 0.000000
# 4 0.000000 0.000000 0.000000 0.226943 0.000000 0.148197
# 5 -0.008228 -0.005766 -0.005901 0.000000 0.041009 0.000000
# 6 0.000000 0.000000 0.000000 0.148197 0.000000 0.177016
#
#
# Mechanical properties :
#
#
# Convention : Reuss Voigt Hill
#
# Bulk Modulus (GPa) = 24.90155 38.46737 31.68446
# Shear Modulus (GPa) = 9.83741 25.84258 17.84000
#
# Velocity S-wave (km/s) = 2.21641 3.59234 2.98474
# Velocity P-wave (km/s) = 4.35717 6.03455 5.26312
#
# Compressibility (1/GPa) = 0.04015815
#
# Stress axis : x y z
#
# Youngs Moduli (GPa) = 60.64387 63.00436 78.91348
#
# Poissons Ratio (x) = -0.31428 0.24031
# Poissons Ratio (y) = -0.30251 0.34571
# Poissons Ratio (z) = 0.18468 0.27601
#
# Static dielectric constant tensor:
#      x y z
#    x 1.771860 0.000000 -0.014190 
#    y 0.000000 1.672560 0.000000 
#    z -0.014190 0.000000 1.797610 
# 
# From -- ./inp_files/8717.got.cif
#   From: 2010.05.17/outbox.cif.g08.bks.cpg/sg15_5_cif.got.tgz:8717.got - 2010.06.03 18:47:42.
