data_PCOD9280409
_publ_section_title
;
Structure prediction by ZEFSAII (Michael W. Deem and Ramdas Pophale) SiO2 
 PCOD9280409
Probable space group: C 2/C
;
_chemical_formula_sum "Si O2"
_cell_formula_units_Z 64
_cell_length_a 20.727423
_cell_length_b 18.846101
_cell_length_c 19.860980
_cell_angle_alpha 90.000000
_cell_angle_beta 24.458050
_cell_angle_gamma 90.000000
_cell_volume 3212.151692
_symmetry_space_group_name_H-M "C 2/C"
_symmetry_group_IT_number 15
_symmetry_cell_setting 'monoclinic'
loop_
_space_group_symop_operation_xyz
x,y,z
-x,y,1/2-z
-x,-y,-z
x,-y,1/2+z
1/2+x,1/2+y,z
1/2-x,1/2+y,1/2-z
1/2-x,1/2-y,-z
1/2+x,1/2-y,1/2+z
loop_
_atom_site_type_symbol
_atom_site_label
_atom_site_fract_x
_atom_site_fract_y
_atom_site_fract_z
Si Si1 0.622034 0.682714 0.285818
Si Si2 0.108785 0.670399 0.942063
Si Si3 0.932580 0.386375 0.475875
Si Si4 0.611545 0.195603 0.699757
Si Si5 0.535323 0.031542 0.392397
Si Si6 0.975673 0.184503 0.573397
Si Si7 0.602981 0.408581 0.585602
Si Si8 0.097227 0.029735 0.473824
O O1 0.687672 0.749717 0.181296
O O2 0.547322 0.692377 0.430027
O O3 0.490529 0.651236 0.364683
O O4 0.755597 0.623754 0.164578
O O5 0.036743 0.740673 0.044117
O O6 0.289311 0.682382 0.754392
O O7 0.028398 0.646167 0.947992
O O8 0.064079 0.601191 0.027933
O O9 0.978284 0.339165 0.370782
O O10 0.977639 0.463942 0.406815
O O11 0.500000 0.231831 0.750000
O O12 0.730937 0.133306 0.561848
O O13 0.719780 0.040719 0.215105
O O14 0.500000 0.000000 0.500000
O O15 0.031263 0.108871 0.549649
O O16 0.500000 0.426050 0.750000
O O17 0.600016 0.474750 0.534654
O O18 0.000000 0.000000 0.500000
#
# Coordination Sequence:
#
# PCOD9280409 Si02
#       8
#     8   8   8   8   8   8   8   8
#     4  12  24  37  64  89 132 176 233 271 327 386
#     4  11  23  37  59  92 134 163 214 269 349 402
#     4  11  21  37  59  87 126 173 218 272 320 391
#     4  12  25  44  62  87 132 188 231 271 318 398
#     4  10  21  37  59  89 128 171 214 278 340 396
#     4  12  23  38  62  98 130 174 212 279 340 400
#     4  12  27  45  63  95 134 182 232 283 333 402
#     4  12  23  41  68  95 129 173 226 283 343 402
#
# _framework density 19.924339
#
# number of rings (size 3 to 8) (size 9 to 14) (size 15 to 20)
#    0.000    0.500    3.750    7.125    1.750    1.500 
#    0.000    0.000    0.000    0.000    0.000    4.375 
#    0.000    0.000    0.000    0.000    0.000    0.000 
#
# Total GULP energy -178237.476965 kJ/mol
# GULP energy per Si atom -5569.921155 kJ/mol
# Density = 1.987899 g / cm^3
# Si number density = 19.924339 Si / 1000 Ang^3
#
#
#
# Elastic Constant Matrix: (Units=GPa)
#
#
# Indices 1 2 3 4 5 6 
#
# 1 27.5226 5.2410 4.4244 0.0226 -2.1421 -0.0503
# 2 5.2410 122.8355 19.3012 0.0223 -13.8849 -0.0819
# 3 4.4244 19.3012 114.9201 -0.0387 -23.5920 0.0652
# 4 0.0226 0.0223 -0.0387 0.5131 0.0488 91.2146
# 5 -2.1421 -13.8849 -23.5920 0.0488 25.4141 -0.1070
# 6 -0.0503 -0.0819 0.0652 91.2146 -0.1070 -215.2477
#
#
#
# Elastic Compliance Matrix: (Units=1/GPa)
#
#
# Indices 1 2 3 4 5 6 
#
# 1 0.036838 -0.001252 -0.000878 -0.000002 0.001605 -0.000010
# 2 -0.001252 0.008753 -0.000571 0.000002 0.004147 -0.000004
# 3 -0.000878 -0.000571 0.010813 0.000002 0.009652 0.000000
# 4 -0.000002 0.000002 0.000002 0.025532 -0.000001 0.010820
# 5 0.001605 0.004147 0.009652 -0.000001 0.050709 -0.000024
# 6 -0.000010 -0.000004 0.000000 0.010820 -0.000024 -0.000061
#
#
# Mechanical properties :
#
#
# Convention : Reuss Voigt Hill
#
# Bulk Modulus (GPa) = 19.60726 35.91238 27.75982
# Shear Modulus (GPa) = 32.26087 -22.10999 5.07544
#
# Velocity S-wave (km/s) = 4.02825 -3.33483 1.59778
# Velocity P-wave (km/s) = 5.61231 1.79873 4.16734
#
# Compressibility (1/GPa) = 0.05100151
#
# Stress axis : x y z
#
# Youngs Moduli (GPa) = 27.14564 114.24931 92.48339
#
# Poissons Ratio (x) = 0.14307 0.08123
# Poissons Ratio (y) = 0.03399 0.05277
# Poissons Ratio (z) = 0.02384 0.06518
#
# Static dielectric constant tensor:
#      x y z
#    x 1.297720 0.000030 0.136440 
#    y 0.000030 2.195290 -0.000010 
#    z 0.136440 -0.000010 1.679210 
# 
# From -- ./inp_files/282232.got.cif
#   From: 2010.05.17/outbox.cif.g08.bks.cpg/sg15_142_cif.got.tgz:282232.got - 2010.06.03 18:47:42.
