data_PCOD9280497
_publ_section_title
;
Structure prediction by ZEFSAII (Michael W. Deem and Ramdas Pophale) SiO2 
 PCOD9280497
Probable space group: C 2/C
;
_chemical_formula_sum "Si O2"
_cell_formula_units_Z 24
_cell_length_a 12.022215
_cell_length_b 17.212894
_cell_length_c 5.624503
_cell_angle_alpha 90.000000
_cell_angle_beta 133.828345
_cell_angle_gamma 90.000000
_cell_volume 839.671374
_symmetry_space_group_name_H-M "C 2/C"
_symmetry_group_IT_number 15
_symmetry_cell_setting 'monoclinic'
loop_
_space_group_symop_operation_xyz
x,y,z
-x,y,1/2-z
-x,-y,-z
x,-y,1/2+z
1/2+x,1/2+y,z
1/2-x,1/2+y,1/2-z
1/2-x,1/2-y,-z
1/2+x,1/2-y,1/2+z
loop_
_atom_site_type_symbol
_atom_site_label
_atom_site_fract_x
_atom_site_fract_y
_atom_site_fract_z
Si Si1 0.026654 0.348611 0.536101
Si Si2 0.142379 0.189821 0.127815
Si Si3 0.825579 0.972053 0.687869
O O1 0.198190 0.313572 0.779423
O O2 0.000000 0.387040 0.750000
O O3 0.910484 0.273628 0.357385
O O4 0.000000 0.392798 0.250000
O O5 0.162199 0.119915 0.343929
O O6 0.000000 0.165600 0.750000
O O7 0.756634 0.012705 0.351390
O O8 0.000000 0.000000 0.000000
#
# Coordination Sequence:
#
# PCOD9280497 Si02
#       3
#     8   8   8
#     4  11  25  41  62  99 127 167 200 261 321 371
#     4  11  22  41  68  95 128 160 213 260 314 369
#     4  10  21  37  60  92 117 161 211 256 291 362
#
# _framework density 28.582609999999999
#
# number of rings (size 3 to 8) (size 9 to 14) (size 15 to 20)
#    0.000    1.333    3.333    5.000    4.667    2.667 
#    0.000    0.000    0.000    6.000    0.000    0.000 
#    0.000    0.000    0.000    0.000    0.000    0.000 
#
# Total GULP energy -67199.548320 kJ/mol
# GULP energy per Si atom -5599.962360 kJ/mol
# Density = 2.851755 g / cm^3
# Si number density = 28.582610 Si / 1000 Ang^3
#
#
#
# Elastic Constant Matrix: (Units=GPa)
#
#
# Indices 1 2 3 4 5 6 
#
# 1 204.5605 9.1235 88.0577 0.0000 -11.7139 0.0000
# 2 9.1235 117.3753 41.3491 0.0000 -3.1720 0.0000
# 3 88.0577 41.3491 186.1742 0.0000 -32.4468 0.0000
# 4 0.0000 0.0000 0.0000 55.0141 0.0000 -2.6369
# 5 -11.7139 -3.1720 -32.4468 0.0000 81.4098 0.0000
# 6 0.0000 0.0000 0.0000 -2.6369 0.0000 11.3493
#
#
#
# Elastic Compliance Matrix: (Units=1/GPa)
#
#
# Indices 1 2 3 4 5 6 
#
# 1 0.006185 0.000609 -0.003118 0.000000 -0.000329 0.000000
# 2 0.000609 0.009321 -0.002450 0.000000 -0.000526 0.000000
# 3 -0.003118 -0.002450 0.007840 0.000000 0.002581 0.000000
# 4 0.000000 0.000000 0.000000 0.018382 0.000000 0.004271
# 5 -0.000329 -0.000526 0.002581 0.000000 0.013244 0.000000
# 6 0.000000 0.000000 0.000000 0.004271 0.000000 0.089104
#
#
# Mechanical properties :
#
#
# Convention : Reuss Voigt Hill
#
# Bulk Modulus (GPa) = 74.47116 87.24117 80.85616
# Shear Modulus (GPa) = 31.55189 54.19329 42.87259
#
# Velocity S-wave (km/s) = 3.32608 4.35906 3.87713
# Velocity P-wave (km/s) = 6.39231 7.47823 6.95649
#
# Compressibility (1/GPa) = 0.01342802
#
# Stress axis : x y z
#
# Youngs Moduli (GPa) = 161.69026 107.28285 127.55400
#
# Poissons Ratio (x) = -0.06531 0.39769
# Poissons Ratio (y) = -0.09842 0.31247
# Poissons Ratio (z) = 0.50412 0.26281
#
# Static dielectric constant tensor:
#      x y z
#    x 2.343660 0.000000 -0.034330 
#    y 0.000000 2.174800 0.000000 
#    z -0.034330 0.000000 2.275690 
# 
# From -- ./inp_files/3926.got.cif
#   From: 2010.05.17/outbox.cif.g08.bks.cpg/sg15_2_cif.got.tgz:3926.got - 2010.06.03 18:47:42.
