data_PCOD9280065
_publ_section_title
;
Structure prediction by ZEFSAII (Michael W. Deem and Ramdas Pophale) SiO2 
 PCOD9280065
Probable space group: C 2/C
;
_chemical_formula_sum "Si O2"
_cell_formula_units_Z 44
_cell_length_a 5.532047
_cell_length_b 18.193463
_cell_length_c 18.099361
_cell_angle_alpha 90.000000
_cell_angle_beta 74.845914
_cell_angle_gamma 90.000000
_cell_volume 1758.302598
_symmetry_space_group_name_H-M "C 2/C"
_symmetry_group_IT_number 15
_symmetry_cell_setting 'monoclinic'
loop_
_space_group_symop_operation_xyz
x,y,z
-x,y,1/2-z
-x,-y,-z
x,-y,1/2+z
1/2+x,1/2+y,z
1/2-x,1/2+y,1/2-z
1/2-x,1/2-y,-z
1/2+x,1/2-y,1/2+z
loop_
_atom_site_type_symbol
_atom_site_label
_atom_site_fract_x
_atom_site_fract_y
_atom_site_fract_z
Si Si1 0.623739 0.940695 0.872306
Si Si2 0.793487 0.178105 0.705790
Si Si3 0.466782 0.199852 0.953433
Si Si4 0.909404 0.706120 0.394003
Si Si5 0.500000 0.536790 0.750000
Si Si6 0.757273 0.948619 0.017434
O O1 0.483246 0.870449 0.850400
O O2 0.785406 0.916215 0.931059
O O3 0.787719 0.986507 0.802434
O O4 0.442266 0.994657 0.931859
O O5 0.500000 0.180379 0.750000
O O6 0.865534 0.235720 0.636416
O O7 0.000000 0.205286 0.750000
O O8 0.882504 0.092253 0.697800
O O9 0.662387 0.248575 0.892385
O O10 0.623740 0.181474 0.016914
O O11 0.345649 0.125070 0.933412
O O12 0.250000 0.250000 0.000000
O O13 0.000000 0.000000 0.000000
#
# Coordination Sequence:
#
# PCOD9280065 Si02
#       6
#     8   8   8   8   4   8
#     4  10  22  41  63  95 136 174 235 290 361 427
#     4  10  25  45  68  95 134 186 232 286 352 429
#     4  10  21  36  64  94 130 175 227 291 355 425
#     4  10  22  40  62  95 131 176 235 289 357 426
#     4  10  24  42  66 100 136 188 234 292 370 434
#     4  10  21  39  63  95 134 180 228 290 355 430
#
# _framework density 25.024132000000002
#
# number of rings (size 3 to 8) (size 9 to 14) (size 15 to 20)
#    0.545    1.455    0.000    2.182    3.818    5.818 
#    0.000    0.909    0.000    0.000    0.000    0.000 
#    0.000    0.000    0.000    0.000    0.000    0.000 
#
# Total GULP energy -122498.043047 kJ/mol
# GULP energy per Si atom -5568.092866 kJ/mol
# Density = 2.496718 g / cm^3
# Si number density = 25.024132 Si / 1000 Ang^3
#
#
#
# Elastic Constant Matrix: (Units=GPa)
#
#
# Indices 1 2 3 4 5 6 
#
# 1 89.6943 57.7457 38.6416 0.0000 -30.3312 0.0000
# 2 57.7457 234.7602 77.0055 0.0000 -35.7659 0.0000
# 3 38.6416 77.0055 104.3634 0.0000 -39.1924 0.0000
# 4 0.0000 0.0000 0.0000 45.3630 0.0000 -21.2143
# 5 -30.3312 -35.7659 -39.1924 0.0000 56.4790 0.0000
# 6 0.0000 0.0000 0.0000 -21.2143 0.0000 44.6559
#
#
#
# Elastic Compliance Matrix: (Units=1/GPa)
#
#
# Indices 1 2 3 4 5 6 
#
# 1 0.015295 -0.002304 -0.001929 0.000000 0.005416 0.000000
# 2 -0.002304 0.006003 -0.003534 0.000000 0.000111 0.000000
# 3 -0.001929 -0.003534 0.015789 0.000000 0.007682 0.000000
# 4 0.000000 0.000000 0.000000 0.028341 0.000000 0.013464
# 5 0.005416 0.000111 0.007682 0.000000 0.026016 0.000000
# 6 0.000000 0.000000 0.000000 0.013464 0.000000 0.028789
#
#
# Mechanical properties :
#
#
# Convention : Reuss Voigt Hill
#
# Bulk Modulus (GPa) = 46.39962 86.17815 66.28888
# Shear Modulus (GPa) = 34.97691 46.32794 40.65243
#
# Velocity S-wave (km/s) = 3.74268 4.30738 4.03492
# Velocity P-wave (km/s) = 6.10402 7.69745 6.94657
#
# Compressibility (1/GPa) = 0.02155190
#
# Stress axis : x y z
#
# Youngs Moduli (GPa) = 65.38047 166.59156 63.33597
#
# Poissons Ratio (x) = 0.38389 0.12217
# Poissons Ratio (y) = 0.15066 0.22384
# Poissons Ratio (z) = 0.12611 0.58876
#
# Static dielectric constant tensor:
#      x y z
#    x 1.940810 0.000000 0.038500 
#    y 0.000000 1.770290 0.000000 
#    z 0.038500 0.000000 1.965570 
# 
# From -- ./inp_files/260827.got.cif
#   From: 2010.05.17/outbox.cif.g08.bks.cpg/sg15_131_cif.got.tgz:260827.got - 2010.06.03 18:47:42.
