data_PCOD9280604
_publ_section_title
;
Structure prediction by ZEFSAII (Michael W. Deem and Ramdas Pophale) SiO2 
 PCOD9280604
Probable space group: C 2/C
;
_chemical_formula_sum "Si O2"
_cell_formula_units_Z 64
_cell_length_a 9.221899
_cell_length_b 21.680685
_cell_length_c 22.548463
_cell_angle_alpha 90.000000
_cell_angle_beta 48.698394
_cell_angle_gamma 90.000000
_cell_volume 3386.821168
_symmetry_space_group_name_H-M "C 2/C"
_symmetry_group_IT_number 15
_symmetry_cell_setting 'monoclinic'
loop_
_space_group_symop_operation_xyz
x,y,z
-x,y,1/2-z
-x,-y,-z
x,-y,1/2+z
1/2+x,1/2+y,z
1/2-x,1/2+y,1/2-z
1/2-x,1/2-y,-z
1/2+x,1/2-y,1/2+z
loop_
_atom_site_type_symbol
_atom_site_label
_atom_site_fract_x
_atom_site_fract_y
_atom_site_fract_z
Si Si1 0.359522 0.391567 0.344994
Si Si2 0.192934 0.313759 0.985916
Si Si3 0.501278 0.373438 0.818023
Si Si4 0.153528 0.525078 0.155546
Si Si5 0.287226 0.770692 0.057280
Si Si6 0.421616 0.936942 0.433691
Si Si7 0.931095 0.993790 0.899199
Si Si8 0.188082 0.338267 0.669268
O O1 0.500000 0.391997 0.250000
O O2 0.347015 0.323224 0.376677
O O3 0.436443 0.437393 0.374426
O O4 0.145778 0.420836 0.387887
O O5 0.340120 0.336494 0.897067
O O6 0.250000 0.250000 0.000000
O O7 0.173325 0.368576 0.039461
O O8 0.993303 0.303052 0.006551
O O9 0.500000 0.356567 0.750000
O O10 0.461341 0.446015 0.837041
O O11 0.687989 0.358909 0.807180
O O12 0.092825 0.477979 0.120939
O O13 0.380707 0.515477 0.109910
O O14 0.138984 0.598671 0.147075
O O15 0.000000 0.514924 0.250000
O O16 0.285312 0.710691 0.099996
O O17 0.250000 0.750000 0.000000
O O18 0.277059 0.974767 0.517021
O O19 0.000000 0.309664 0.750000
#
# Coordination Sequence:
#
# PCOD9280604 Si02
#       8
#     8   8   8   8   8   8   8   8
#     4  11  23  41  61  88 127 162 199 257 309 366
#     4  10  21  42  61  85 121 158 203 257 298 363
#     4  10  21  38  63  90 116 157 204 248 311 362
#     4  10  21  38  61  93 122 161 204 254 311 359
#     4  11  25  40  61  88 121 164 208 248 309 373
#     4  10  22  38  63  89 123 161 201 255 306 366
#     4  10  21  37  61  94 122 156 203 253 306 372
#     4  10  22  39  60  88 124 156 199 258 298 362
#
# _framework density 18.896775999999999
#
# number of rings (size 3 to 8) (size 9 to 14) (size 15 to 20)
#    0.000    1.750    1.250    2.250    3.500    3.000 
#    0.000    0.625    0.000    0.000    0.000    0.000 
#    0.000    0.000    0.000    0.000    0.000    0.000 
#
# Total GULP energy -178300.573836 kJ/mol
# GULP energy per Si atom -5571.892932 kJ/mol
# Density = 1.885377 g / cm^3
# Si number density = 18.896776 Si / 1000 Ang^3
#
#
#
# Elastic Constant Matrix: (Units=GPa)
#
#
# Indices 1 2 3 4 5 6 
#
# 1 50.2657 25.8389 29.7573 0.0000 2.4126 0.0000
# 2 25.8389 99.4832 21.7509 0.0000 14.8127 0.0000
# 3 29.7573 21.7509 79.7654 0.0000 -10.0780 0.0000
# 4 0.0000 0.0000 0.0000 2.5891 0.0000 6.1912
# 5 2.4126 14.8127 -10.0780 0.0000 25.7814 0.0000
# 6 0.0000 0.0000 0.0000 6.1912 0.0000 26.1651
#
#
#
# Elastic Compliance Matrix: (Units=1/GPa)
#
#
# Indices 1 2 3 4 5 6 
#
# 1 0.028229 -0.004638 -0.009745 0.000000 -0.003786 0.000000
# 2 -0.004638 0.013112 -0.002885 0.000000 -0.008227 0.000000
# 3 -0.009745 -0.002885 0.018181 0.000000 0.009677 0.000000
# 4 0.000000 0.000000 0.000000 0.889577 0.000000 -0.210493
# 5 -0.003786 -0.008227 0.009677 0.000000 0.047651 0.000000
# 6 0.000000 0.000000 0.000000 -0.210493 0.000000 0.088026
#
#
# Mechanical properties :
#
#
# Convention : Reuss Voigt Hill
#
# Bulk Modulus (GPa) = 40.01936 42.68983 41.35460
# Shear Modulus (GPa) = 4.43403 21.05162 12.74283
#
# Velocity S-wave (km/s) = 1.53347 3.34133 2.59962
# Velocity P-wave (km/s) = 4.93551 6.12586 5.56261
#
# Compressibility (1/GPa) = 0.02498790
#
# Stress axis : x y z
#
# Youngs Moduli (GPa) = 35.42475 76.26467 55.00121
#
# Poissons Ratio (x) = 0.35368 0.53598
# Poissons Ratio (y) = 0.16428 0.15867
# Poissons Ratio (z) = 0.34521 0.22002
#
# Static dielectric constant tensor:
#      x y z
#    x 1.626380 0.000000 -0.017120 
#    y 0.000000 1.651000 0.000000 
#    z -0.017120 0.000000 1.670840 
# 
# From -- ./inp_files/266097.got.cif
#   From: 2010.05.17/outbox.cif.g08.bks.cpg/sg15_134_cif.got.tgz:266097.got - 2010.06.03 18:47:42.
