data_PCOD9280622
_publ_section_title
;
Structure prediction by ZEFSAII (Michael W. Deem and Ramdas Pophale) SiO2 
 PCOD9280622
Probable space group: C 2/C
;
_chemical_formula_sum "Si O2"
_cell_formula_units_Z 24
_cell_length_a 20.640789
_cell_length_b 5.304025
_cell_length_c 18.086014
_cell_angle_alpha 90.000000
_cell_angle_beta 152.909587
_cell_angle_gamma 90.000000
_cell_volume 901.703758
_symmetry_space_group_name_H-M "C 2/C"
_symmetry_group_IT_number 15
_symmetry_cell_setting 'monoclinic'
loop_
_space_group_symop_operation_xyz
x,y,z
-x,y,1/2-z
-x,-y,-z
x,-y,1/2+z
1/2+x,1/2+y,z
1/2-x,1/2+y,1/2-z
1/2-x,1/2-y,-z
1/2+x,1/2-y,1/2+z
loop_
_atom_site_type_symbol
_atom_site_label
_atom_site_fract_x
_atom_site_fract_y
_atom_site_fract_z
Si Si1 0.162521 0.472176 0.638692
Si Si2 0.706965 0.690948 0.371558
Si Si3 0.882707 0.693051 0.188302
O O1 0.251058 0.729888 0.742041
O O2 0.172978 0.414802 0.560722
O O3 0.000000 0.500000 0.500000
O O4 0.750000 0.750000 0.500000
O O5 0.587968 0.469660 0.248416
O O6 0.655647 0.968229 0.295872
O O7 0.000000 0.608760 0.250000
O O8 0.750000 0.750000 0.000000
#
# Coordination Sequence:
#
# PCOD9280622 Si02
#       3
#     8   8   8
#     4  12  28  50  77 112 157 207 258 319 394 469
#     4  10  23  43  71 103 141 190 248 309 371 449
#     4  10  21  37  61  97 133 171 226 296 359 420
#
# _framework density 26.61628
#
# number of rings (size 3 to 8) (size 9 to 14) (size 15 to 20)
#    0.000    1.333    0.000    4.000    0.000   16.000 
#    0.000    0.000    0.000    0.000    0.000    0.000 
#    0.000    0.000    0.000    0.000    0.000    0.000 
#
# Total GULP energy -67104.476593 kJ/mol
# GULP energy per Si atom -5592.039716 kJ/mol
# Density = 2.655570 g / cm^3
# Si number density = 26.616280 Si / 1000 Ang^3
#
#
#
# Elastic Constant Matrix: (Units=GPa)
#
#
# Indices 1 2 3 4 5 6 
#
# 1 206.0636 71.0582 78.7815 0.0002 31.7246 0.0000
# 2 71.0582 290.7919 51.2167 0.0007 19.1587 0.0003
# 3 78.7815 51.2167 136.8199 0.0001 22.1126 0.0001
# 4 0.0002 0.0007 0.0001 28.5276 0.0000 1.3528
# 5 31.7246 19.1587 22.1126 0.0000 55.3615 0.0000
# 6 0.0000 0.0003 0.0001 1.3528 0.0000 61.5374
#
#
#
# Elastic Compliance Matrix: (Units=1/GPa)
#
#
# Indices 1 2 3 4 5 6 
#
# 1 0.006734 -0.000940 -0.003159 0.000000 -0.002272 0.000000
# 2 -0.000940 0.003844 -0.000823 0.000000 -0.000463 0.000000
# 3 -0.003159 -0.000823 0.009725 0.000000 -0.001789 0.000000
# 4 0.000000 0.000000 0.000000 0.035090 0.000000 -0.000771
# 5 -0.002272 -0.000463 -0.001789 0.000000 0.020240 0.000000
# 6 0.000000 0.000000 0.000000 -0.000771 0.000000 0.016267
#
#
# Mechanical properties :
#
#
# Convention : Reuss Voigt Hill
#
# Bulk Modulus (GPa) = 95.59705 115.08759 105.34232
# Shear Modulus (GPa) = 47.51469 57.92657 52.72063
#
# Velocity S-wave (km/s) = 4.22972 4.67021 4.45541
# Velocity P-wave (km/s) = 7.73620 8.50967 8.13214
#
# Compressibility (1/GPa) = 0.01046057
#
# Stress axis : x y z
#
# Youngs Moduli (GPa) = 148.49334 260.14862 102.82792
#
# Poissons Ratio (x) = 0.24443 0.32480
# Poissons Ratio (y) = 0.13952 0.08464
# Poissons Ratio (z) = 0.46904 0.21413
#
# Static dielectric constant tensor:
#      x y z
#    x 2.337020 0.000000 -0.125570 
#    y 0.000000 2.597360 0.000000 
#    z -0.125570 0.000000 2.096530 
# 
# From -- ./inp_files/59451.got.cif
#   From: 2010.05.17/outbox.cif.g08.bks.cpg/sg15_30_cif.got.tgz:59451.got - 2010.06.03 18:47:42.
