data_PCOD9280525
_publ_section_title
;
Structure prediction by ZEFSAII (Michael W. Deem and Ramdas Pophale) SiO2 
 PCOD9280525
Probable space group: C 2/C
;
_chemical_formula_sum "Si O2"
_cell_formula_units_Z 48
_cell_length_a 11.878591
_cell_length_b 26.431877
_cell_length_c 14.820038
_cell_angle_alpha 90.000000
_cell_angle_beta 28.956122
_cell_angle_gamma 90.000000
_cell_volume 2252.749648
_symmetry_space_group_name_H-M "C 2/C"
_symmetry_group_IT_number 15
_symmetry_cell_setting 'monoclinic'
loop_
_space_group_symop_operation_xyz
x,y,z
-x,y,1/2-z
-x,-y,-z
x,-y,1/2+z
1/2+x,1/2+y,z
1/2-x,1/2+y,1/2-z
1/2-x,1/2-y,-z
1/2+x,1/2-y,1/2+z
loop_
_atom_site_type_symbol
_atom_site_label
_atom_site_fract_x
_atom_site_fract_y
_atom_site_fract_z
Si Si1 0.182854 0.381919 0.539642
Si Si2 0.949620 0.178347 0.630921
Si Si3 0.632011 0.208029 0.291836
Si Si4 0.637630 0.636269 0.244219
Si Si5 0.287046 0.888918 0.328725
Si Si6 0.939675 0.441650 0.051824
O O1 0.443813 0.368546 0.388173
O O2 0.162564 0.421385 0.472070
O O3 0.000000 0.395422 0.750000
O O4 0.090230 0.327333 0.568409
O O5 0.171124 0.189784 0.413842
O O6 0.898625 0.233208 0.706059
O O7 0.732801 0.160183 0.722933
O O8 0.738890 0.188397 0.310932
O O9 0.500000 0.645063 0.250000
O O10 0.451665 0.614819 0.447421
O O11 0.832740 0.593637 0.095716
O O12 0.500000 0.889456 0.250000
O O13 0.303136 0.932884 0.242223
O O14 0.000000 0.500000 0.000000
#
# Coordination Sequence:
#
# PCOD9280525 Si02
#       6
#     8   8   8   8   8   8
#     4   9  20  42  62  91 136 167 212 275 330 396
#     4  10  21  37  60  97 130 174 213 266 325 391
#     4   9  20  34  62  93 127 174 213 258 329 395
#     4  10  21  43  66  92 135 172 216 275 324 391
#     4  11  24  43  65  95 131 171 221 273 324 394
#     4  11  25  45  70  97 124 174 222 280 343 383
#
# _framework density 21.307293999999999
#
# number of rings (size 3 to 8) (size 9 to 14) (size 15 to 20)
#    0.000    2.000    1.667    1.500    4.667    2.667 
#    3.000    3.333    0.000    0.000    0.000    0.000 
#    0.000    0.000    0.000    0.000    0.000    0.000 
#
# Total GULP energy -133809.783156 kJ/mol
# GULP energy per Si atom -5575.407632 kJ/mol
# Density = 2.125880 g / cm^3
# Si number density = 21.307294 Si / 1000 Ang^3
#
#
#
# Elastic Constant Matrix: (Units=GPa)
#
#
# Indices 1 2 3 4 5 6 
#
# 1 160.6119 55.4691 27.7981 -0.0028 6.1271 0.0011
# 2 55.4691 98.6919 18.0178 -0.0007 4.2115 -0.0001
# 3 27.7981 18.0178 76.1389 -0.0030 14.3866 0.0020
# 4 -0.0028 -0.0007 -0.0030 22.4637 0.0018 3.3274
# 5 6.1271 4.2115 14.3866 0.0018 30.7578 -0.0009
# 6 0.0011 -0.0001 0.0020 3.3274 -0.0009 13.2688
#
#
#
# Elastic Compliance Matrix: (Units=1/GPa)
#
#
# Indices 1 2 3 4 5 6 
#
# 1 0.007991 -0.004136 -0.001914 0.000001 -0.000130 -0.000001
# 2 -0.004136 0.012734 -0.001458 0.000000 -0.000237 0.000001
# 3 -0.001914 -0.001458 0.015432 0.000003 -0.006637 -0.000003
# 4 0.000001 0.000000 0.000003 0.046234 -0.000004 -0.011594
# 5 -0.000130 -0.000237 -0.006637 -0.000004 0.035675 0.000005
# 6 -0.000001 0.000001 -0.000003 -0.011594 0.000005 0.078272
#
#
# Mechanical properties :
#
#
# Convention : Reuss Voigt Hill
#
# Bulk Modulus (GPa) = 47.30538 59.77919 53.54229
# Shear Modulus (GPa) = 22.89370 28.90859 25.90114
#
# Velocity S-wave (km/s) = 3.28144 3.68740 3.49033
# Velocity P-wave (km/s) = 6.05036 6.80043 6.43633
#
# Compressibility (1/GPa) = 0.02113924
#
# Stress axis : x y z
#
# Youngs Moduli (GPa) = 125.14189 78.53189 64.80075
#
# Poissons Ratio (x) = 0.32483 0.12403
# Poissons Ratio (y) = 0.51762 0.09450
# Poissons Ratio (z) = 0.23953 0.11453
#
# Static dielectric constant tensor:
#      x y z
#    x 1.863680 0.000000 0.031020 
#    y 0.000000 1.781540 0.000000 
#    z 0.031020 0.000000 1.841160 
# 
# From -- ./inp_files/148688.got.cif
#   From: 2010.05.17/outbox.cif.g08.bks.cpg/sg15_75_cif.got.tgz:148688.got - 2010.06.03 18:47:42.
