data_PCOD9280590
_publ_section_title
;
Structure prediction by ZEFSAII (Michael W. Deem and Ramdas Pophale) SiO2 
 PCOD9280590
Probable space group: C 2/C
;
_chemical_formula_sum "Si O2"
_cell_formula_units_Z 52
_cell_length_a 30.560034
_cell_length_b 7.306051
_cell_length_c 24.178059
_cell_angle_alpha 90.000000
_cell_angle_beta 152.829530
_cell_angle_gamma 90.000000
_cell_volume 2465.082214
_symmetry_space_group_name_H-M "C 2/C"
_symmetry_group_IT_number 15
_symmetry_cell_setting 'monoclinic'
loop_
_space_group_symop_operation_xyz
x,y,z
-x,y,1/2-z
-x,-y,-z
x,-y,1/2+z
1/2+x,1/2+y,z
1/2-x,1/2+y,1/2-z
1/2-x,1/2-y,-z
1/2+x,1/2-y,1/2+z
loop_
_atom_site_type_symbol
_atom_site_label
_atom_site_fract_x
_atom_site_fract_y
_atom_site_fract_z
Si Si1 0.415713 0.918802 0.761633
Si Si2 0.608028 0.070847 0.955049
Si Si3 0.404835 0.288907 0.365623
Si Si4 0.000000 0.361141 0.750000
Si Si5 0.587896 0.284117 0.623772
Si Si6 0.310894 0.250990 0.878019
Si Si7 0.247447 0.907410 0.117866
O O1 0.416215 0.817235 0.820826
O O2 0.453993 0.785416 0.755169
O O3 0.309483 0.002906 0.637963
O O4 0.497668 0.077078 0.852653
O O5 0.660883 0.924545 0.053922
O O6 0.670607 0.250786 0.020266
O O7 0.587665 0.981457 0.872387
O O8 0.478306 0.218926 0.494721
O O9 0.417643 0.503036 0.366774
O O10 0.297033 0.268484 0.265526
O O11 0.621401 0.275528 0.597728
O O12 0.667099 0.178222 0.748013
O O13 0.306931 0.429589 0.911852
#
# Coordination Sequence:
#
# PCOD9280590 Si02
#       7
#     8   8   8   4   8   8   8
#     4   9  21  42  63  91 125 159 216 263 320 370
#     4  10  21  45  64  91 128 163 214 272 306 377
#     4  10  21  37  61  91 126 169 212 246 307 380
#     4   8  20  44  72  82 126 170 200 284 328 354
#     4  11  21  37  59  92 133 170 204 254 306 373
#     4  11  22  40  61  93 131 171 212 248 309 388
#     4  11  24  36  65  97 126 172 206 261 314 378
#
# _framework density 21.094631
#
# number of rings (size 3 to 8) (size 9 to 14) (size 15 to 20)
#    0.923    0.923    3.077    0.923    0.000    6.769 
#    0.000    3.846    3.385    0.000    0.000    0.000 
#    0.000    0.000    0.000    0.000    0.000    0.000 
#
# Total GULP energy -144848.941417 kJ/mol
# GULP energy per Si atom -5571.113131 kJ/mol
# Density = 2.104662 g / cm^3
# Si number density = 21.094631 Si / 1000 Ang^3
#
#
#
# Elastic Constant Matrix: (Units=GPa)
#
#
# Indices 1 2 3 4 5 6 
#
# 1 50.0227 -3.2358 4.9959 0.0000 4.5798 0.0000
# 2 -3.2358 40.8261 -18.5764 0.0000 3.4494 0.0000
# 3 4.9959 -18.5764 45.8312 0.0000 20.4409 0.0000
# 4 0.0000 0.0000 0.0000 17.0294 0.0000 0.6471
# 5 4.5798 3.4494 20.4409 0.0000 21.5695 0.0000
# 6 0.0000 0.0000 0.0000 0.6471 0.0000 -3.2121
#
#
#
# Elastic Compliance Matrix: (Units=1/GPa)
#
#
# Indices 1 2 3 4 5 6 
#
# 1 0.020616 0.003177 0.002112 0.000000 -0.006887 0.000000
# 2 0.003177 0.045456 0.037450 0.000000 -0.043434 0.000000
# 3 0.002112 0.037450 0.068659 0.000000 -0.071504 0.000000
# 4 0.000000 0.000000 0.000000 0.058276 0.000000 0.011740
# 5 -0.006887 -0.043434 -0.071504 0.000000 0.122532 0.000000
# 6 0.000000 0.000000 0.000000 0.011740 0.000000 -0.308957
#
#
# Mechanical properties :
#
#
# Convention : Reuss Voigt Hill
#
# Bulk Modulus (GPa) = 4.54118 11.44971 7.99544
# Shear Modulus (GPa) = -910.51941 17.31043 -446.60449
#
# Velocity S-wave (km/s) = -20.79838 2.86773 -14.56621
# Velocity P-wave (km/s) = 23.97094 4.05028 16.70631
#
# Compressibility (1/GPa) = 0.22020704
#
# Stress axis : x y z
#
# Youngs Moduli (GPa) = 48.50598 21.99945 14.56468
#
# Poissons Ratio (x) = -0.06989 -0.03076
# Poissons Ratio (y) = -0.15409 -0.54544
# Poissons Ratio (z) = -0.10243 -0.82387
#
# Static dielectric constant tensor:
#      x y z
#    x 1.770890 0.000000 0.009100 
#    y 0.000000 1.770120 0.000000 
#    z 0.009100 0.000000 1.793750 
# 
# From -- ./inp_files/284219.got.cif
#   From: 2010.05.17/outbox.cif.g08.bks.cpg/sg15_143_cif.got.tgz:284219.got - 2010.06.03 18:47:42.
