data_PCOD9280197
_publ_section_title
;
Structure prediction by ZEFSAII (Michael W. Deem and Ramdas Pophale) SiO2 
 PCOD9280197
Probable space group: C 2/C
;
_chemical_formula_sum "Si O2"
_cell_formula_units_Z 32
_cell_length_a 4.852095
_cell_length_b 25.028089
_cell_length_c 10.618077
_cell_angle_alpha 90.000000
_cell_angle_beta 76.792221
_cell_angle_gamma 90.000000
_cell_volume 1255.336559
_symmetry_space_group_name_H-M "C 2/C"
_symmetry_group_IT_number 15
_symmetry_cell_setting 'monoclinic'
loop_
_space_group_symop_operation_xyz
x,y,z
-x,y,1/2-z
-x,-y,-z
x,-y,1/2+z
1/2+x,1/2+y,z
1/2-x,1/2+y,1/2-z
1/2-x,1/2-y,-z
1/2+x,1/2-y,1/2+z
loop_
_atom_site_type_symbol
_atom_site_label
_atom_site_fract_x
_atom_site_fract_y
_atom_site_fract_z
Si Si1 0.982494 0.322264 0.045718
Si Si2 0.278212 0.427736 0.454282
Si Si3 0.077848 0.797343 0.880645
Si Si4 0.791507 0.047343 0.380645
O O1 0.320589 0.317060 0.997738
O O2 0.819306 0.375000 0.111387
O O3 0.861007 0.317472 0.916028
O O4 0.896909 0.267069 0.121012
O O5 0.267921 0.482931 0.378988
O O6 0.568326 0.432940 0.502262
O O7 0.027035 0.432528 0.583972
O O8 0.000000 0.814907 0.750000
O O9 0.000000 0.064907 0.250000
#
# Coordination Sequence:
#
# PCOD9280197 Si02
#       4
#     8   8   8   8
#     4  10  21  37  56  81 112 144 183 229 275 329
#     4  10  21  37  56  81 112 144 183 229 275 329
#     4  10  21  37  56  81 112 144 183 229 275 329
#     4  10  21  37  56  81 112 144 183 229 275 329
#
# _framework density 25.491174000000001
#
# number of rings (size 3 to 8) (size 9 to 14) (size 15 to 20)
#    0.000    2.000    0.000    3.000    0.000    6.000 
#    0.000   15.000    0.000    0.000    0.000    0.000 
#    0.000    0.000    0.000    0.000    0.000    0.000 
#
# Total GULP energy -89403.164190 kJ/mol
# GULP energy per Si atom -5587.697762 kJ/mol
# Density = 2.543315 g / cm^3
# Si number density = 25.491174 Si / 1000 Ang^3
#
#
#
# Elastic Constant Matrix: (Units=GPa)
#
#
# Indices 1 2 3 4 5 6 
#
# 1 105.4667 15.3509 -5.2066 0.0000 -2.4601 0.0000
# 2 15.3509 237.0517 -7.5730 0.0000 -1.0544 0.0000
# 3 -5.2066 -7.5730 34.0554 0.0000 -0.8245 0.0000
# 4 0.0000 0.0000 0.0000 -14.9823 0.0000 -2.3651
# 5 -2.4601 -1.0544 -0.8245 0.0000 28.6685 0.0000
# 6 0.0000 0.0000 0.0000 -2.3651 0.0000 36.4395
#
#
#
# Elastic Compliance Matrix: (Units=1/GPa)
#
#
# Indices 1 2 3 4 5 6 
#
# 1 0.009653 -0.000578 0.001368 0.000000 0.000846 0.000000
# 2 -0.000578 0.004284 0.000868 0.000000 0.000133 0.000000
# 3 0.001368 0.000868 0.029790 0.000000 0.001006 0.000000
# 4 0.000000 0.000000 0.000000 -0.066068 0.000000 -0.004288
# 5 0.000846 0.000133 0.001006 0.000000 0.034988 0.000000
# 6 0.000000 0.000000 0.000000 -0.004288 0.000000 0.027164
#
#
# Mechanical properties :
#
#
# Convention : Reuss Voigt Hill
#
# Bulk Modulus (GPa) = 21.25708 42.41294 31.83501
# Shear Modulus (GPa) = 95.82761 34.95863 65.39312
#
# Velocity S-wave (km/s) = 6.13792 3.70726 5.07040
# Velocity P-wave (km/s) = 7.65436 5.91603 6.84064
#
# Compressibility (1/GPa) = 0.04704315
#
# Stress axis : x y z
#
# Youngs Moduli (GPa) = 103.59461 233.41556 33.56792
#
# Poissons Ratio (x) = 0.13483 -0.04592
# Poissons Ratio (y) = 0.05984 -0.02912
# Poissons Ratio (z) = -0.14170 -0.20251
#
# Static dielectric constant tensor:
#      x y z
#    x 1.908910 0.000000 0.006620 
#    y 0.000000 2.118500 0.000000 
#    z 0.006620 0.000000 2.052830 
# 
# From -- ./inp_files/12505.got.cif
#   From: 2010.05.17/outbox.cif.g08.bks.cpg/sg15_7_cif.got.tgz:12505.got - 2010.06.03 18:47:42.
