data_PCOD9280356
_publ_section_title
;
Structure prediction by ZEFSAII (Michael W. Deem and Ramdas Pophale) SiO2 
 PCOD9280356
Probable space group: C 2/C
;
_chemical_formula_sum "Si O2"
_cell_formula_units_Z 48
_cell_length_a 16.303332
_cell_length_b 15.711351
_cell_length_c 17.082414
_cell_angle_alpha 90.000000
_cell_angle_beta 153.224853
_cell_angle_gamma 90.000000
_cell_volume 1971.172421
_symmetry_space_group_name_H-M "C 2/C"
_symmetry_group_IT_number 15
_symmetry_cell_setting 'monoclinic'
loop_
_space_group_symop_operation_xyz
x,y,z
-x,y,1/2-z
-x,-y,-z
x,-y,1/2+z
1/2+x,1/2+y,z
1/2-x,1/2+y,1/2-z
1/2-x,1/2-y,-z
1/2+x,1/2-y,1/2+z
loop_
_atom_site_type_symbol
_atom_site_label
_atom_site_fract_x
_atom_site_fract_y
_atom_site_fract_z
Si Si1 0.547733 0.301489 0.882209
Si Si2 0.958679 0.976661 0.807255
Si Si3 0.139199 0.635537 0.750042
Si Si4 0.180482 0.218182 0.025075
Si Si5 0.354732 0.954842 0.696412
Si Si6 0.702937 0.362035 0.280019
O O1 0.500000 0.297763 0.750000
O O2 0.424821 0.380637 0.807056
O O3 0.511152 0.209141 0.886489
O O4 0.748399 0.335973 0.076064
O O5 0.000000 0.977297 0.750000
O O6 0.799865 0.040963 0.694674
O O7 0.148874 0.010458 0.005183
O O8 0.073800 0.537867 0.694957
O O9 0.277574 0.643244 0.795778
O O10 0.986262 0.174716 0.849230
O O11 0.250000 0.250000 0.000000
O O12 0.309859 0.144829 0.173287
O O13 0.156028 0.299408 0.059643
O O14 0.500000 0.951353 0.750000
#
# Coordination Sequence:
#
# PCOD9280356 Si02
#       6
#     8   8   8   8   8   8
#     4  10  21  39  59  80 109 153 198 233 276 340
#     4   9  20  37  59  81 108 148 192 233 276 339
#     4  11  23  37  58  86 118 152 187 238 293 345
#     4  11  22  39  63  87 115 153 198 241 285 343
#     4  10  21  37  59  84 113 149 192 238 287 340
#     4  11  22  37  58  87 119 149 187 238 297 345
#
# _framework density 24.350992000000002
#
# number of rings (size 3 to 8) (size 9 to 14) (size 15 to 20)
#    0.000    1.667    0.000    5.500    0.000   10.000 
#    0.000    0.000    0.000    8.000    0.000    0.000 
#    0.000    0.000    0.000    0.000    0.000    0.000 
#
# Total GULP energy -133863.444813 kJ/mol
# GULP energy per Si atom -5577.643534 kJ/mol
# Density = 2.429557 g / cm^3
# Si number density = 24.350992 Si / 1000 Ang^3
#
#
#
# Elastic Constant Matrix: (Units=GPa)
#
#
# Indices 1 2 3 4 5 6 
#
# 1 57.0230 -0.4454 6.3098 0.0092 -5.9049 0.0174
# 2 -0.4454 182.1215 36.6444 0.0301 7.8763 0.0477
# 3 6.3098 36.6444 58.0656 0.0080 -5.0129 0.0120
# 4 0.0092 0.0301 0.0080 56.5272 0.0005 53.6555
# 5 -5.9049 7.8763 -5.0129 0.0005 20.3237 -0.0039
# 6 0.0174 0.0477 0.0120 53.6555 -0.0039 84.1900
#
#
#
# Elastic Compliance Matrix: (Units=1/GPa)
#
#
# Indices 1 2 3 4 5 6 
#
# 1 0.018222 0.000173 -0.001674 0.000001 0.004814 -0.000004
# 2 0.000173 0.006543 -0.004458 0.000001 -0.003585 -0.000004
# 3 -0.001674 -0.004458 0.020766 -0.000001 0.006363 0.000001
# 4 0.000001 0.000001 -0.000001 0.044779 -0.000007 -0.028539
# 5 0.004814 -0.003585 0.006363 -0.000007 0.053561 0.000007
# 6 -0.000004 -0.000004 0.000001 -0.028539 0.000007 0.030066
#
#
# Mechanical properties :
#
#
# Convention : Reuss Voigt Hill
#
# Bulk Modulus (GPa) = 29.74875 42.46976 36.10925
# Shear Modulus (GPa) = 25.37306 49.18826 37.28066
#
# Velocity S-wave (km/s) = 3.23146 4.49928 3.91701
# Velocity P-wave (km/s) = 5.11530 6.66858 5.94290
#
# Compressibility (1/GPa) = 0.03361486
#
# Stress axis : x y z
#
# Youngs Moduli (GPa) = 54.87909 152.82980 48.15493
#
# Poissons Ratio (x) = -0.02646 0.08060
# Poissons Ratio (y) = -0.00950 0.21466
# Poissons Ratio (z) = 0.09185 0.68126
#
# Static dielectric constant tensor:
#      x y z
#    x 1.931670 -0.000010 0.005100 
#    y -0.000010 2.058760 -0.000010 
#    z 0.005100 -0.000010 2.069490 
# 
# From -- ./inp_files/211440.got.cif
#   From: 2010.05.17/outbox.cif.g08.bks.cpg/sg15_106_cif.got.tgz:211440.got - 2010.06.03 18:47:42.
