data_PCOD9280720
_publ_section_title
;
Structure prediction by ZEFSAII (Michael W. Deem and Ramdas Pophale) SiO2 
 PCOD9280720
Probable space group: C 2/C
;
_chemical_formula_sum "Si O2"
_cell_formula_units_Z 40
_cell_length_a 9.520937
_cell_length_b 15.071908
_cell_length_c 23.533370
_cell_angle_alpha 90.000000
_cell_angle_beta 32.699922
_cell_angle_gamma 90.000000
_cell_volume 1824.391845
_symmetry_space_group_name_H-M "C 2/C"
_symmetry_group_IT_number 15
_symmetry_cell_setting 'monoclinic'
loop_
_space_group_symop_operation_xyz
x,y,z
-x,y,1/2-z
-x,-y,-z
x,-y,1/2+z
1/2+x,1/2+y,z
1/2-x,1/2+y,1/2-z
1/2-x,1/2-y,-z
1/2+x,1/2-y,1/2+z
loop_
_atom_site_type_symbol
_atom_site_label
_atom_site_fract_x
_atom_site_fract_y
_atom_site_fract_z
Si Si1 0.500000 0.499722 0.750000
Si Si2 0.738815 0.662808 0.370340
Si Si3 0.094759 0.844666 0.042927
Si Si4 0.672203 0.868313 0.422642
Si Si5 0.500000 0.791004 0.250000
Si Si6 0.060645 0.858329 0.638938
O O1 0.741677 0.562624 0.653949
O O2 0.440339 0.437100 0.716952
O O3 0.688673 0.622594 0.449471
O O4 0.750840 0.769138 0.376955
O O5 0.515972 0.644899 0.400364
O O6 0.000000 0.633495 0.250000
O O7 0.181619 0.896383 0.069275
O O8 0.781880 0.836788 0.148691
O O9 0.250000 0.750000 0.000000
O O10 0.369229 0.866610 0.538542
O O11 0.523236 0.729946 0.298548
#
# Coordination Sequence:
#
# PCOD9280720 Si02
#       6
#     4   8   8   8   4   8
#     4  11  26  40  64  90 135 170 212 255 330 392
#     4  11  22  39  69  96 126 163 221 271 315 372
#     4  10  21  37  62  99 126 159 212 276 315 368
#     4  11  22  42  64  94 127 168 216 266 316 388
#     4  11  20  34  64  96 129 154 210 269 322 366
#     4  11  23  39  63  93 125 174 210 260 321 385
#
# _framework density 21.925115000000002
#
# number of rings (size 3 to 8) (size 9 to 14) (size 15 to 20)
#    0.000    1.200    5.000    3.600    2.800    0.000 
#    0.000    1.000    2.200    0.000    0.000    0.000 
#    0.000    0.000    0.000    0.000    0.000    0.000 
#
# Total GULP energy -111759.960703 kJ/mol
# GULP energy per Si atom -5587.998035 kJ/mol
# Density = 2.187521 g / cm^3
# Si number density = 21.925115 Si / 1000 Ang^3
#
#
#
# Elastic Constant Matrix: (Units=GPa)
#
#
# Indices 1 2 3 4 5 6 
#
# 1 113.0897 15.3034 36.8408 -0.0071 11.3343 -0.0037
# 2 15.3034 8.2707 15.5994 -0.0106 7.0282 0.0013
# 3 36.8408 15.5994 156.4224 -0.0065 5.7236 0.0058
# 4 -0.0071 -0.0106 -0.0065 1.8525 -0.0056 6.0690
# 5 11.3343 7.0282 5.7236 -0.0056 36.3279 -0.0039
# 6 -0.0037 0.0013 0.0058 6.0690 -0.0039 8.6480
#
#
#
# Elastic Compliance Matrix: (Units=1/GPa)
#
#
# Indices 1 2 3 4 5 6 
#
# 1 0.011873 -0.021019 -0.000718 0.000082 0.000475 -0.000048
# 2 -0.021019 0.217049 -0.015488 -0.000897 -0.032993 0.000583
# 3 -0.000718 -0.015488 0.008035 0.000038 0.001954 -0.000029
# 4 0.000082 -0.000897 0.000038 -0.415520 0.000109 0.291604
# 5 0.000475 -0.032993 0.001954 0.000109 0.033454 -0.000058
# 6 -0.000048 0.000583 -0.000029 0.291604 -0.000058 -0.089008
#
#
# Mechanical properties :
#
#
# Convention : Reuss Voigt Hill
#
# Bulk Modulus (GPa) = 6.15355 45.91889 26.03622
# Shear Modulus (GPa) = -47.39393 23.36830 -12.01281
#
# Velocity S-wave (km/s) = -4.65437 3.26824 -2.34327
# Velocity P-wave (km/s) = 5.10603 5.93555 2.14001
#
# Compressibility (1/GPa) = 0.16250788
#
# Stress axis : x y z
#
# Youngs Moduli (GPa) = 84.22461 4.60725 124.45569
#
# Poissons Ratio (x) = 0.09684 0.08930
# Poissons Ratio (y) = 1.77033 1.92755
# Poissons Ratio (z) = 0.06044 0.07136
#
# Static dielectric constant tensor:
#      x y z
#    x 1.820890 0.000000 0.009560 
#    y 0.000000 1.823150 0.000000 
#    z 0.009560 0.000000 1.858390 
# 
# From -- ./inp_files/76854.got.cif
#   From: 2010.05.17/outbox.cif.g08.bks.cpg/sg15_39_cif.got.tgz:76854.got - 2010.06.03 18:47:42.
