data_PCOD9280880
_publ_section_title
;
Structure prediction by ZEFSAII (Michael W. Deem and Ramdas Pophale) SiO2 
 PCOD9280880
Probable space group: C 2/C
;
_chemical_formula_sum "Si O2"
_cell_formula_units_Z 48
_cell_length_a 13.969774
_cell_length_b 9.921940
_cell_length_c 24.786041
_cell_angle_alpha 90.000000
_cell_angle_beta 39.616029
_cell_angle_gamma 90.000000
_cell_volume 2190.626659
_symmetry_space_group_name_H-M "C 2/C"
_symmetry_group_IT_number 15
_symmetry_cell_setting 'monoclinic'
loop_
_space_group_symop_operation_xyz
x,y,z
-x,y,1/2-z
-x,-y,-z
x,-y,1/2+z
1/2+x,1/2+y,z
1/2-x,1/2+y,1/2-z
1/2-x,1/2-y,-z
1/2+x,1/2-y,1/2+z
loop_
_atom_site_type_symbol
_atom_site_label
_atom_site_fract_x
_atom_site_fract_y
_atom_site_fract_z
Si Si1 0.668618 0.477391 0.447494
Si Si2 0.824127 0.230408 0.765319
Si Si3 0.669062 0.263201 0.113807
Si Si4 0.319153 0.275932 0.835060
Si Si5 0.689918 0.453868 0.763594
Si Si6 0.666933 0.461664 0.571099
O O1 0.500000 0.500000 0.500000
O O2 0.744859 0.623293 0.420773
O O3 0.750212 0.371705 0.372814
O O4 0.679280 0.418853 0.503891
O O5 0.829980 0.185444 0.824723
O O6 0.734263 0.367162 0.795801
O O7 0.995234 0.260259 0.673714
O O8 0.750126 0.105570 0.765834
O O9 0.731156 0.387029 0.051755
O O10 0.500000 0.265416 0.750000
O O11 0.263948 0.361511 0.807411
O O12 0.277714 0.360847 0.906812
O O13 0.511200 0.472612 0.839468
#
# Coordination Sequence:
#
# PCOD9280880 Si02
#       6
#     8   8   8   8   8   8
#     4  12  26  40  66  97 132 163 215 269 318 379
#     4  10  21  37  65  95 126 161 216 264 314 371
#     4  10  22  40  63  91 127 170 206 257 324 382
#     4  10  23  43  67  93 126 171 216 259 316 384
#     4  10  21  38  68  96 125 163 217 269 311 376
#     4  10  21  45  63  88 131 174 205 256 330 379
#
# _framework density 21.911539999999999
#
# number of rings (size 3 to 8) (size 9 to 14) (size 15 to 20)
#    0.000    1.667    1.667    2.000    9.333    1.333 
#    0.000    2.500    0.000    0.000    0.000    0.000 
#    0.000    0.000    0.000    0.000    0.000    0.000 
#
# Total GULP energy -134035.370041 kJ/mol
# GULP energy per Si atom -5584.807085 kJ/mol
# Density = 2.186167 g / cm^3
# Si number density = 21.911540 Si / 1000 Ang^3
#
#
#
# Elastic Constant Matrix: (Units=GPa)
#
#
# Indices 1 2 3 4 5 6 
#
# 1 67.5028 35.9767 10.6058 0.0000 9.3979 0.0000
# 2 35.9767 154.7738 31.4346 0.0000 -11.0911 0.0000
# 3 10.6058 31.4346 46.7504 0.0000 15.5385 0.0000
# 4 0.0000 0.0000 0.0000 32.3203 0.0000 8.0303
# 5 9.3979 -11.0911 15.5385 0.0000 30.9300 0.0000
# 6 0.0000 0.0000 0.0000 8.0303 0.0000 36.8123
#
#
#
# Elastic Compliance Matrix: (Units=1/GPa)
#
#
# Indices 1 2 3 4 5 6 
#
# 1 0.018551 -0.005415 0.002343 0.000000 -0.008756 0.000000
# 2 -0.005415 0.010229 -0.008902 0.000000 0.009786 0.000000
# 3 0.002343 -0.008902 0.033783 0.000000 -0.020876 0.000000
# 4 0.000000 0.000000 0.000000 0.032713 0.000000 -0.007136
# 5 -0.008756 0.009786 -0.020876 0.000000 0.048988 0.000000
# 6 0.000000 0.000000 0.000000 -0.007136 0.000000 0.028722
#
#
# Mechanical properties :
#
#
# Convention : Reuss Voigt Hill
#
# Bulk Modulus (GPa) = 25.89714 47.22900 36.56307
# Shear Modulus (GPa) = 23.83154 32.74651 28.28902
#
# Velocity S-wave (km/s) = 3.30149 3.87005 3.59702
# Velocity P-wave (km/s) = 5.13593 6.44755 5.82875
#
# Compressibility (1/GPa) = 0.03861430
#
# Stress axis : x y z
#
# Youngs Moduli (GPa) = 53.90442 97.76082 29.60098
#
# Poissons Ratio (x) = 0.52942 -0.06935
# Poissons Ratio (y) = 0.29192 0.26350
# Poissons Ratio (z) = -0.12629 0.87025
#
# Static dielectric constant tensor:
#      x y z
#    x 1.793130 0.000000 0.054180 
#    y 0.000000 1.817570 0.000000 
#    z 0.054180 0.000000 1.802350 
# 
# From -- ./inp_files/295387.got.cif
#   From: 2010.05.17/outbox.cif.g08.bks.cpg/sg15_148_cif.got.tgz:295387.got - 2010.06.03 18:47:42.
