data_PCOD9280821
_publ_section_title
;
Structure prediction by ZEFSAII (Michael W. Deem and Ramdas Pophale) SiO2 
 PCOD9280821
Probable space group: C 2/C
;
_chemical_formula_sum "Si O2"
_cell_formula_units_Z 44
_cell_length_a 5.450926
_cell_length_b 13.255643
_cell_length_c 23.591271
_cell_angle_alpha 90.000000
_cell_angle_beta 84.509621
_cell_angle_gamma 90.000000
_cell_volume 1696.779539
_symmetry_space_group_name_H-M "C 2/C"
_symmetry_group_IT_number 15
_symmetry_cell_setting 'monoclinic'
loop_
_space_group_symop_operation_xyz
x,y,z
-x,y,1/2-z
-x,-y,-z
x,-y,1/2+z
1/2+x,1/2+y,z
1/2-x,1/2+y,1/2-z
1/2-x,1/2-y,-z
1/2+x,1/2-y,1/2+z
loop_
_atom_site_type_symbol
_atom_site_label
_atom_site_fract_x
_atom_site_fract_y
_atom_site_fract_z
Si Si1 0.812757 0.036861 0.437794
Si Si2 0.500000 0.435260 0.750000
Si Si3 0.772409 0.871857 0.216146
Si Si4 0.709344 0.329100 0.915972
Si Si5 0.140740 0.678469 0.338285
Si Si6 0.488895 0.152475 0.524314
O O1 0.706872 0.097029 0.385787
O O2 0.725184 0.090505 0.498343
O O3 0.099218 0.060096 0.424912
O O4 0.704371 0.925645 0.443690
O O5 0.630796 0.513256 0.791377
O O6 0.714719 0.369120 0.717789
O O7 0.500000 0.873524 0.250000
O O8 0.772081 0.795116 0.163929
O O9 0.000000 0.829366 0.250000
O O10 0.498428 0.247285 0.934723
O O11 0.846597 0.314485 0.854058
O O12 0.889439 0.311609 0.965042
#
# Coordination Sequence:
#
# PCOD9280821 Si02
#       6
#     8   4   8   8   8   8
#     4  10  21  37  64  92 134 172 224 274 341 406
#     4  10  26  46  68  92 140 178 226 292 354 410
#     4  10  25  47  72  96 134 182 228 288 354 412
#     4  10  21  37  64  92 134 176 218 281 333 411
#     4  11  24  43  66 103 127 178 232 284 343 421
#     4   9  20  39  58  95 134 173 224 268 342 405
#
# _framework density 25.931476
#
# number of rings (size 3 to 8) (size 9 to 14) (size 15 to 20)
#    0.545    1.455    0.909    1.091    5.091    2.182 
#    0.000    0.000    0.000    0.000    0.000    0.000 
#    0.000    0.000    0.000    0.000    0.000    0.000 
#
# Total GULP energy -122672.283671 kJ/mol
# GULP energy per Si atom -5576.012894 kJ/mol
# Density = 2.587245 g / cm^3
# Si number density = 25.931476 Si / 1000 Ang^3
#
#
#
# Elastic Constant Matrix: (Units=GPa)
#
#
# Indices 1 2 3 4 5 6 
#
# 1 63.1987 10.1488 24.1403 0.0000 -14.6863 0.0000
# 2 10.1488 113.3238 41.0914 0.0000 -26.3176 0.0000
# 3 24.1403 41.0914 97.8348 0.0000 -20.2925 0.0000
# 4 0.0000 0.0000 0.0000 15.4695 0.0000 -5.9522
# 5 -14.6863 -26.3176 -20.2925 0.0000 46.9198 0.0000
# 6 0.0000 0.0000 0.0000 -5.9522 0.0000 18.6044
#
#
#
# Elastic Compliance Matrix: (Units=1/GPa)
#
#
# Indices 1 2 3 4 5 6 
#
# 1 0.018226 0.000827 -0.003916 0.000000 0.004475 0.000000
# 2 0.000827 0.011318 -0.003941 0.000000 0.004903 0.000000
# 3 -0.003916 -0.003941 0.013325 0.000000 0.002327 0.000000
# 4 0.000000 0.000000 0.000000 0.073718 0.000000 0.023585
# 5 0.004475 0.004903 0.002327 0.000000 0.026470 0.000000
# 6 0.000000 0.000000 0.000000 0.023585 0.000000 0.061296
#
#
# Mechanical properties :
#
#
# Convention : Reuss Voigt Hill
#
# Bulk Modulus (GPa) = 34.71107 47.23537 40.97322
# Shear Modulus (GPa) = 21.92816 29.46385 25.69600
#
# Velocity S-wave (km/s) = 2.91111 3.37444 3.15130
# Velocity P-wave (km/s) = 4.97133 5.78252 5.39220
#
# Compressibility (1/GPa) = 0.02880926
#
# Stress axis : x y z
#
# Youngs Moduli (GPa) = 54.86612 88.35735 75.04442
#
# Poissons Ratio (x) = -0.07308 0.29391
# Poissons Ratio (y) = -0.04538 0.29573
# Poissons Ratio (z) = 0.21488 0.34819
#
# Static dielectric constant tensor:
#      x y z
#    x 2.257330 0.000000 0.043940 
#    y 0.000000 2.026130 0.000000 
#    z 0.043940 0.000000 2.042420 
# 
# From -- ./inp_files/285390.got.cif
#   From: 2010.05.17/outbox.cif.g08.bks.cpg/sg15_143_cif.got.tgz:285390.got - 2010.06.03 18:47:42.
