data_PCOD9280335
_publ_section_title
;
Structure prediction by ZEFSAII (Michael W. Deem and Ramdas Pophale) SiO2 
 PCOD9280335
Probable space group: C 2/C
;
_chemical_formula_sum "Si O2"
_cell_formula_units_Z 44
_cell_length_a 13.976630
_cell_length_b 5.536806
_cell_length_c 30.020558
_cell_angle_alpha 90.000000
_cell_angle_beta 137.884406
_cell_angle_gamma 90.000000
_cell_volume 1557.982461
_symmetry_space_group_name_H-M "C 2/C"
_symmetry_group_IT_number 15
_symmetry_cell_setting 'monoclinic'
loop_
_space_group_symop_operation_xyz
x,y,z
-x,y,1/2-z
-x,-y,-z
x,-y,1/2+z
1/2+x,1/2+y,z
1/2-x,1/2+y,1/2-z
1/2-x,1/2-y,-z
1/2+x,1/2-y,1/2+z
loop_
_atom_site_type_symbol
_atom_site_label
_atom_site_fract_x
_atom_site_fract_y
_atom_site_fract_z
Si Si1 0.659730 0.538102 0.417702
Si Si2 0.000000 0.536453 0.250000
Si Si3 0.600463 0.978983 0.629475
Si Si4 0.015031 0.975585 0.557946
Si Si5 0.831172 0.451544 0.603797
Si Si6 0.089256 0.074461 0.237449
O O1 0.623443 0.542043 0.457003
O O2 0.726818 0.776792 0.419826
O O3 0.506630 0.522580 0.338469
O O4 0.744902 0.294929 0.437174
O O5 0.884024 0.600097 0.171915
O O6 0.907387 0.356440 0.250159
O O7 0.583510 0.214315 0.592812
O O8 0.466585 0.972036 0.616905
O O9 0.750816 0.015751 0.706752
O O10 0.593702 0.719398 0.602702
O O11 0.000000 0.000000 0.500000
O O12 0.000000 0.970473 0.250000
#
# Coordination Sequence:
#
# PCOD9280335 Si02
#       6
#     8   4   8   8   8   8
#     4   9  19  33  53  82 112 149 184 234 293 343
#     4   8  18  32  54  82 122 158 182 222 298 360
#     4  10  21  37  58  90 115 154 195 244 296 353
#     4  10  21  38  61  84 112 152 205 250 286 340
#     4   9  18  31  51  79 113 152 186 227 281 351
#     4   9  20  37  56  88 125 154 186 237 301 360
#
# _framework density 28.24165
#
# number of rings (size 3 to 8) (size 9 to 14) (size 15 to 20)
#    0.545    2.182    0.000    0.545    1.273   11.636 
#    0.000    0.000    0.000    2.182    0.000    0.000 
#    0.000    0.000    0.000    0.000    0.000    0.000 
#
# Total GULP energy -123003.029882 kJ/mol
# GULP energy per Si atom -5591.046813 kJ/mol
# Density = 2.817737 g / cm^3
# Si number density = 28.241650 Si / 1000 Ang^3
#
#
#
# Elastic Constant Matrix: (Units=GPa)
#
#
# Indices 1 2 3 4 5 6 
#
# 1 138.7026 19.2202 15.6679 0.0004 -16.3642 -0.0007
# 2 19.2202 198.1447 62.5828 0.0025 -14.2076 -0.0014
# 3 15.6679 62.5828 139.0870 0.0006 -27.0697 0.0001
# 4 0.0004 0.0025 0.0006 48.7298 -0.0001 -5.2016
# 5 -16.3642 -14.2076 -27.0697 -0.0001 47.0825 0.0003
# 6 -0.0007 -0.0014 0.0001 -5.2016 0.0003 11.1919
#
#
#
# Elastic Compliance Matrix: (Units=1/GPa)
#
#
# Indices 1 2 3 4 5 6 
#
# 1 0.007581 -0.000514 -0.000158 0.000000 0.002389 0.000000
# 2 -0.000514 0.005921 -0.002582 0.000000 0.000123 0.000001
# 3 -0.000158 -0.002582 0.009241 0.000000 0.004479 -0.000001
# 4 0.000000 0.000000 0.000000 0.021593 0.000000 0.010036
# 5 0.002389 0.000123 0.004479 0.000000 0.024682 -0.000001
# 6 0.000000 0.000001 -0.000001 0.010036 -0.000001 0.094014
#
#
# Mechanical properties :
#
#
# Convention : Reuss Voigt Hill
#
# Bulk Modulus (GPa) = 61.59691 74.54178 68.06935
# Shear Modulus (GPa) = 28.57931 46.63174 37.60552
#
# Velocity S-wave (km/s) = 3.18458 4.06787 3.65302
# Velocity P-wave (km/s) = 5.94811 6.96527 6.47669
#
# Compressibility (1/GPa) = 0.01623458
#
# Stress axis : x y z
#
# Youngs Moduli (GPa) = 131.91596 168.88606 108.21141
#
# Poissons Ratio (x) = 0.08685 0.01705
# Poissons Ratio (y) = 0.06784 0.27944
# Poissons Ratio (z) = 0.02079 0.43612
#
# Static dielectric constant tensor:
#      x y z
#    x 2.185480 0.000000 0.088770 
#    y 0.000000 2.514990 0.000000 
#    z 0.088770 0.000000 2.181400 
# 
# From -- ./inp_files/314942.got.cif
#   From: 2010.05.17/outbox.cif.g08.bks.cpg/sg15_158_cif.got.tgz:314942.got - 2010.06.03 18:47:42.
