data_PCOD9280778
_publ_section_title
;
Structure prediction by ZEFSAII (Michael W. Deem and Ramdas Pophale) SiO2 
 PCOD9280778
Probable space group: C 2/C
;
_chemical_formula_sum "Si O2"
_cell_formula_units_Z 64
_cell_length_a 23.354072
_cell_length_b 22.391714
_cell_length_c 17.420616
_cell_angle_alpha 90.000000
_cell_angle_beta 21.182147
_cell_angle_gamma 90.000000
_cell_volume 3291.715902
_symmetry_space_group_name_H-M "C 2/C"
_symmetry_group_IT_number 15
_symmetry_cell_setting 'monoclinic'
loop_
_space_group_symop_operation_xyz
x,y,z
-x,y,1/2-z
-x,-y,-z
x,-y,1/2+z
1/2+x,1/2+y,z
1/2-x,1/2+y,1/2-z
1/2-x,1/2-y,-z
1/2+x,1/2-y,1/2+z
loop_
_atom_site_type_symbol
_atom_site_label
_atom_site_fract_x
_atom_site_fract_y
_atom_site_fract_z
Si Si1 0.813347 0.287711 0.992869
Si Si2 0.379610 0.375350 0.064566
Si Si3 0.329481 0.293811 0.794071
Si Si4 0.406636 0.835801 0.170650
Si Si5 0.731308 0.304955 0.812301
Si Si6 0.938100 0.887999 0.171008
Si Si7 0.543921 0.517827 0.281744
Si Si8 0.347773 0.897762 0.399069
O O1 0.000000 0.297709 0.750000
O O2 0.750000 0.250000 0.000000
O O3 0.783530 0.250055 0.109234
O O4 0.711539 0.348128 0.117284
O O5 0.206545 0.352961 0.258395
O O6 0.422716 0.386728 0.098449
O O7 0.504969 0.323467 0.885657
O O8 0.413810 0.436804 0.978009
O O9 0.339012 0.223756 0.797151
O O10 0.310180 0.293203 0.725445
O O11 0.199993 0.336922 0.994655
O O12 0.391066 0.884214 0.257180
O O13 0.585641 0.825365 0.918755
O O14 0.598741 0.354674 0.998677
O O15 0.938551 0.955956 0.196448
O O16 0.500000 0.503647 0.250000
O O17 0.702536 0.557221 0.086368
O O18 0.500000 0.924001 0.250000
#
# Coordination Sequence:
#
# PCOD9280778 Si02
#       8
#     8   8   8   8   8   8   8   8
#     4  12  26  44  68 100 135 167 217 279 330 396
#     4  10  23  41  65  98 129 175 225 270 314 393
#     4  10  21  37  63  94 140 176 210 255 334 396
#     4  12  21  38  65 100 138 169 216 265 327 402
#     4  11  23  42  64 100 133 171 203 272 336 394
#     4  11  25  45  71  93 128 178 219 264 339 393
#     4  11  24  46  68  90 129 178 227 275 321 380
#     4  11  23  41  62  97 136 176 218 269 317 380
#
# _framework density 19.442748000000002
#
# number of rings (size 3 to 8) (size 9 to 14) (size 15 to 20)
#    0.000    1.000    3.750    3.750    3.500    0.500 
#    0.000    1.875    0.000    0.000    0.000    0.000 
#    0.000    0.000    0.000    0.000    0.000    0.000 
#
# Total GULP energy -178691.191561 kJ/mol
# GULP energy per Si atom -5584.099736 kJ/mol
# Density = 1.939850 g / cm^3
# Si number density = 19.442748 Si / 1000 Ang^3
#
#
#
# Elastic Constant Matrix: (Units=GPa)
#
#
# Indices 1 2 3 4 5 6 
#
# 1 63.9598 15.1141 -0.2328 -0.0311 -11.6957 -0.0121
# 2 15.1141 91.4387 18.7474 -0.0337 -6.7952 -0.0109
# 3 -0.2328 18.7474 87.1044 -0.0721 -23.3338 -0.0146
# 4 -0.0311 -0.0337 -0.0721 -6.2973 0.0154 1.6514
# 5 -11.6957 -6.7952 -23.3338 0.0154 31.8943 0.0068
# 6 -0.0121 -0.0109 -0.0146 1.6514 0.0068 23.0608
#
#
#
# Elastic Compliance Matrix: (Units=1/GPa)
#
#
# Indices 1 2 3 4 5 6 
#
# 1 0.017791 -0.002925 0.002808 -0.000081 0.007955 0.000013
# 2 -0.002925 0.011938 -0.002715 -0.000019 -0.000516 0.000004
# 3 0.002808 -0.002715 0.015165 -0.000140 0.011546 0.000016
# 4 -0.000081 -0.000019 -0.000140 -0.155869 -0.000064 0.011162
# 5 0.007955 -0.000516 0.011546 -0.000064 0.042608 0.000003
# 6 0.000013 0.000004 0.000016 0.011162 0.000003 0.042564
#
#
# Mechanical properties :
#
#
# Convention : Reuss Voigt Hill
#
# Bulk Modulus (GPa) = 25.49111 34.41781 29.95446
# Shear Modulus (GPa) = -708.14474 23.65650 -342.24412
#
# Velocity S-wave (km/s) = -19.10527 3.49194 -13.28190
# Velocity P-wave (km/s) = 21.76103 5.83085 14.82470
#
# Compressibility (1/GPa) = 0.03922936
#
# Stress axis : x y z
#
# Youngs Moduli (GPa) = 56.20832 83.76455 65.93965
#
# Poissons Ratio (x) = 0.24504 -0.18517
# Poissons Ratio (y) = 0.16443 0.17906
# Poissons Ratio (z) = -0.15784 0.22746
#
# Static dielectric constant tensor:
#      x y z
#    x 1.711960 -0.000030 0.044770 
#    y -0.000030 1.682150 -0.000010 
#    z 0.044770 -0.000010 1.708590 
# 
# From -- ./inp_files/220263.got.cif
#   From: 2010.05.17/outbox.cif.g08.bks.cpg/sg15_111_cif.got.tgz:220263.got - 2010.06.03 18:47:42.
