data_PCOD9280951
_publ_section_title
;
Structure prediction by ZEFSAII (Michael W. Deem and Ramdas Pophale) SiO2 
 PCOD9280951
Probable space group: C 2/C
;
_chemical_formula_sum "Si O2"
_cell_formula_units_Z 48
_cell_length_a 16.894254
_cell_length_b 13.555819
_cell_length_c 13.928316
_cell_angle_alpha 90.000000
_cell_angle_beta 35.199782
_cell_angle_gamma 90.000000
_cell_volume 1838.693624
_symmetry_space_group_name_H-M "C 2/C"
_symmetry_group_IT_number 15
_symmetry_cell_setting 'monoclinic'
loop_
_space_group_symop_operation_xyz
x,y,z
-x,y,1/2-z
-x,-y,-z
x,-y,1/2+z
1/2+x,1/2+y,z
1/2-x,1/2+y,1/2-z
1/2-x,1/2-y,-z
1/2+x,1/2-y,1/2+z
loop_
_atom_site_type_symbol
_atom_site_label
_atom_site_fract_x
_atom_site_fract_y
_atom_site_fract_z
Si Si1 0.943888 0.790949 0.711330
Si Si2 0.358926 0.983859 0.586248
Si Si3 0.198710 0.006587 0.073160
Si Si4 0.875949 0.945421 0.063937
Si Si5 0.047196 0.811421 0.301318
Si Si6 0.719198 0.715739 0.301607
O O1 0.849337 0.737434 0.727626
O O2 0.000000 0.735638 0.750000
O O3 0.867029 0.888242 0.829933
O O4 0.065368 0.841202 0.529952
O O5 0.330003 0.740434 0.764343
O O6 0.500000 0.000000 0.500000
O O7 0.342960 0.995980 0.487301
O O8 0.249248 0.059221 0.739580
O O9 0.184973 0.004622 0.972326
O O10 0.107582 0.916985 0.205495
O O11 0.704200 0.120595 0.319053
O O12 0.000000 0.000000 0.000000
O O13 0.000000 0.758585 0.250000
O O14 0.913593 0.811263 0.501645
#
# Coordination Sequence:
#
# PCOD9280951 Si02
#       6
#     8   8   8   8   8   8
#     4   9  18  38  68  94 114 155 220 275 307 367
#     4  11  24  40  62  92 132 164 216 275 317 369
#     4  10  21  37  68  94 124 163 217 264 320 379
#     4  11  18  35  64  96 120 159 211 270 315 371
#     4  12  25  40  64  96 136 177 210 255 327 400
#     4  11  24  43  59  95 130 174 216 260 323 389
#
# _framework density 26.105491000000001
#
# number of rings (size 3 to 8) (size 9 to 14) (size 15 to 20)
#    0.000    1.333    3.333    5.000    2.333    0.667 
#    0.000    0.833    0.000    0.000    0.000    0.000 
#    0.000    0.000    0.000    0.000    0.000    0.000 
#
# Total GULP energy -134222.962238 kJ/mol
# GULP energy per Si atom -5592.623427 kJ/mol
# Density = 2.604607 g / cm^3
# Si number density = 26.105491 Si / 1000 Ang^3
#
#
#
# Elastic Constant Matrix: (Units=GPa)
#
#
# Indices 1 2 3 4 5 6 
#
# 1 354.8557 55.3184 88.0568 0.0000 43.6075 0.0000
# 2 55.3184 55.0963 1.4028 0.0000 15.4024 0.0000
# 3 88.0568 1.4028 78.4567 0.0000 16.8581 0.0000
# 4 0.0000 0.0000 0.0000 9.4022 0.0000 1.5634
# 5 43.6075 15.4024 16.8581 0.0000 63.0670 0.0000
# 6 0.0000 0.0000 0.0000 1.5634 0.0000 44.2467
#
#
#
# Elastic Compliance Matrix: (Units=1/GPa)
#
#
# Indices 1 2 3 4 5 6 
#
# 1 0.004956 -0.004592 -0.005288 0.000000 -0.000892 0.000000
# 2 -0.004592 0.023773 0.005617 0.000000 -0.004132 0.000000
# 3 -0.005288 0.005617 0.019192 0.000000 -0.002845 0.000000
# 4 0.000000 0.000000 0.000000 0.106987 0.000000 -0.003780
# 5 -0.000892 -0.004132 -0.002845 0.000000 0.018242 0.000000
# 6 0.000000 0.000000 0.000000 -0.003780 0.000000 0.022734
#
#
# Mechanical properties :
#
#
# Convention : Reuss Voigt Hill
#
# Bulk Modulus (GPa) = 25.38516 86.44053 55.91285
# Shear Modulus (GPa) = 22.98400 46.25189 34.61795
#
# Velocity S-wave (km/s) = 2.97042 4.21376 3.64549
# Velocity P-wave (km/s) = 4.63786 7.54044 6.25971
#
# Compressibility (1/GPa) = 0.03939310
#
# Stress axis : x y z
#
# Youngs Moduli (GPa) = 201.78548 42.06535 52.10396
#
# Poissons Ratio (x) = 0.19316 0.27555
# Poissons Ratio (y) = 0.92657 -0.29264
# Poissons Ratio (z) = 1.06714 -0.23626
#
# Static dielectric constant tensor:
#      x y z
#    x 2.078440 0.000000 0.016600 
#    y 0.000000 2.159240 0.000000 
#    z 0.016600 0.000000 2.074130 
# 
# From -- ./inp_files/151864.got.cif
#   From: 2010.05.17/outbox.cif.g08.bks.cpg/sg15_76_cif.got.tgz:151864.got - 2010.06.03 18:47:42.
