data_PCOD9280846
_publ_section_title
;
Structure prediction by ZEFSAII (Michael W. Deem and Ramdas Pophale) SiO2 
 PCOD9280846
Probable space group: C 2/C
;
_chemical_formula_sum "Si O2"
_cell_formula_units_Z 48
_cell_length_a 16.770700
_cell_length_b 7.175579
_cell_length_c 20.485253
_cell_angle_alpha 90.000000
_cell_angle_beta 74.856645
_cell_angle_gamma 90.000000
_cell_volume 2379.581786
_symmetry_space_group_name_H-M "C 2/C"
_symmetry_group_IT_number 15
_symmetry_cell_setting 'monoclinic'
loop_
_space_group_symop_operation_xyz
x,y,z
-x,y,1/2-z
-x,-y,-z
x,-y,1/2+z
1/2+x,1/2+y,z
1/2-x,1/2+y,1/2-z
1/2-x,1/2-y,-z
1/2+x,1/2-y,1/2+z
loop_
_atom_site_type_symbol
_atom_site_label
_atom_site_fract_x
_atom_site_fract_y
_atom_site_fract_z
Si Si1 0.011918 0.884307 0.355096
Si Si2 0.116471 0.793928 0.591297
Si Si3 0.735153 0.936229 0.860350
Si Si4 0.429333 0.857000 0.537506
Si Si5 0.577332 0.035902 0.194994
Si Si6 0.820609 0.793887 0.242642
O O1 0.034801 0.795338 0.420114
O O2 0.097571 0.907448 0.297090
O O3 0.958462 0.724615 0.330285
O O4 0.958677 0.069066 0.373778
O O5 0.200505 0.893023 0.596040
O O6 0.109160 0.743587 0.517145
O O7 0.108824 0.604314 0.634106
O O8 0.643944 0.963195 0.908632
O O9 0.728399 0.762132 0.811746
O O10 0.769086 0.102206 0.808590
O O11 0.500000 0.000000 0.500000
O O12 0.500000 0.948384 0.250000
O O13 0.644294 0.104032 0.232872
#
# Coordination Sequence:
#
# PCOD9280846 Si02
#       6
#     8   8   8   8   8   8
#     4  10  22  42  66  95 127 168 213 265 314 389
#     4  12  23  40  70  93 127 173 213 262 327 377
#     4  11  24  40  66  95 132 165 213 270 319 376
#     4  11  24  45  63  92 131 173 217 263 316 390
#     4  10  21  37  64  99 128 161 214 262 312 384
#     4  10  22  42  62  98 137 159 214 272 322 384
#
# _framework density 20.171612
#
# number of rings (size 3 to 8) (size 9 to 14) (size 15 to 20)
#    0.000    1.333    3.333    2.000    2.333    1.333 
#    0.000    5.000    0.000    0.000    0.000    0.000 
#    0.000    0.000    0.000    0.000    0.000    0.000 
#
# Total GULP energy -134150.196059 kJ/mol
# GULP energy per Si atom -5589.591502 kJ/mol
# Density = 2.012570 g / cm^3
# Si number density = 20.171612 Si / 1000 Ang^3
#
#
#
# Elastic Constant Matrix: (Units=GPa)
#
#
# Indices 1 2 3 4 5 6 
#
# 1 100.9823 29.7523 48.5172 0.0000 8.5665 0.0000
# 2 29.7523 41.9712 28.5933 0.0000 -17.4192 0.0000
# 3 48.5172 28.5933 107.0837 0.0000 0.6810 0.0000
# 4 0.0000 0.0000 0.0000 33.4272 0.0000 -0.8373
# 5 8.5665 -17.4192 0.6810 0.0000 44.1624 0.0000
# 6 0.0000 0.0000 0.0000 -0.8373 0.0000 18.4519
#
#
#
# Elastic Compliance Matrix: (Units=1/GPa)
#
#
# Indices 1 2 3 4 5 6 
#
# 1 0.015953 -0.011730 -0.004047 0.000000 -0.007659 0.000000
# 2 -0.011730 0.045228 -0.006891 0.000000 0.020221 0.000000
# 3 -0.004047 -0.006891 0.013026 0.000000 -0.002134 0.000000
# 4 0.000000 0.000000 0.000000 0.029950 0.000000 0.001359
# 5 -0.007659 0.020221 -0.002134 0.000000 0.032138 0.000000
# 6 0.000000 0.000000 0.000000 0.001359 0.000000 0.054256
#
#
# Mechanical properties :
#
#
# Convention : Reuss Voigt Hill
#
# Bulk Modulus (GPa) = 34.63721 51.52923 43.08322
# Shear Modulus (GPa) = 20.36578 28.75327 24.55952
#
# Velocity S-wave (km/s) = 3.18091 3.77959 3.49310
# Velocity P-wave (km/s) = 5.54071 6.68191 6.13789
#
# Compressibility (1/GPa) = 0.02887068
#
# Stress axis : x y z
#
# Youngs Moduli (GPa) = 62.68450 22.11029 76.77206
#
# Poissons Ratio (x) = 0.25936 0.31070
# Poissons Ratio (y) = 0.73530 0.52900
# Poissons Ratio (z) = 0.25368 0.15235
#
# Static dielectric constant tensor:
#      x y z
#    x 1.740640 0.000000 0.014190 
#    y 0.000000 1.687380 0.000000 
#    z 0.014190 0.000000 1.703920 
# 
# From -- ./inp_files/275854.got.cif
#   From: 2010.05.17/outbox.cif.g08.bks.cpg/sg15_138_cif.got.tgz:275854.got - 2010.06.03 18:47:42.
