data_PCOD9280426
_publ_section_title
;
Structure prediction by ZEFSAII (Michael W. Deem and Ramdas Pophale) SiO2 
 PCOD9280426
Probable space group: C 2/C
;
_chemical_formula_sum "Si O2"
_cell_formula_units_Z 48
_cell_length_a 13.179163
_cell_length_b 18.424366
_cell_length_c 8.499177
_cell_angle_alpha 90.000000
_cell_angle_beta 105.814862
_cell_angle_gamma 90.000000
_cell_volume 1985.632334
_symmetry_space_group_name_H-M "C 2/C"
_symmetry_group_IT_number 15
_symmetry_cell_setting 'monoclinic'
loop_
_space_group_symop_operation_xyz
x,y,z
-x,y,1/2-z
-x,-y,-z
x,-y,1/2+z
1/2+x,1/2+y,z
1/2-x,1/2+y,1/2-z
1/2-x,1/2-y,-z
1/2+x,1/2-y,1/2+z
loop_
_atom_site_type_symbol
_atom_site_label
_atom_site_fract_x
_atom_site_fract_y
_atom_site_fract_z
Si Si1 0.070351 0.859179 0.427265
Si Si2 0.118765 0.065475 0.242575
Si Si3 0.351811 0.325489 0.482347
Si Si4 0.217698 0.445627 0.240334
Si Si5 0.614547 0.927726 0.879113
Si Si6 0.628299 0.225882 0.273167
O O1 0.119011 0.920323 0.556068
O O2 0.147053 0.795755 0.395249
O O3 0.000000 0.884937 0.250000
O O4 0.977683 0.829052 0.500634
O O5 0.154377 0.138727 0.348556
O O6 0.000000 0.049664 0.250000
O O7 0.195923 0.998429 0.303219
O O8 0.280685 0.380634 0.348990
O O9 0.333304 0.248193 0.386786
O O10 0.163355 0.496691 0.344929
O O11 0.131734 0.422447 0.073675
O O12 0.500000 0.929043 0.750000
O O13 0.665316 0.853822 0.832535
O O14 0.500000 0.222466 0.250000
#
# Coordination Sequence:
#
# PCOD9280426 Si02
#       6
#     8   8   8   8   8   8
#     4   8  17  33  62  93 128 163 196 245 318 384
#     4  10  21  37  59  97 138 163 194 256 325 394
#     4   9  19  36  58  93 130 157 204 254 317 389
#     4  12  24  40  63  95 126 171 216 258 319 375
#     4  11  25  46  66  87 124 170 227 271 305 356
#     4   8  18  39  66  91 119 166 213 262 315 373
#
# _framework density 24.173659000000001
#
# number of rings (size 3 to 8) (size 9 to 14) (size 15 to 20)
#    0.000    2.667    1.667    0.500    4.667    6.000 
#    0.000    2.500    0.000    8.000    0.000    0.000 
#    0.000    0.000    0.000    0.000    0.000    0.000 
#
# Total GULP energy -133756.507261 kJ/mol
# GULP energy per Si atom -5573.187803 kJ/mol
# Density = 2.411864 g / cm^3
# Si number density = 24.173659 Si / 1000 Ang^3
#
#
#
# Elastic Constant Matrix: (Units=GPa)
#
#
# Indices 1 2 3 4 5 6 
#
# 1 49.4677 -6.6558 -0.0017 0.0000 25.8919 0.0000
# 2 -6.6558 74.8407 22.6230 0.0000 12.0130 0.0000
# 3 -0.0017 22.6230 121.6793 0.0000 14.2730 0.0000
# 4 0.0000 0.0000 0.0000 -12.5853 0.0000 13.0141
# 5 25.8919 12.0130 14.2730 0.0000 35.0779 0.0000
# 6 0.0000 0.0000 0.0000 13.0141 0.0000 27.8786
#
#
#
# Elastic Compliance Matrix: (Units=1/GPa)
#
#
# Indices 1 2 3 4 5 6 
#
# 1 0.037660 0.007702 0.002246 0.000000 -0.031350 0.000000
# 2 0.007702 0.016279 -0.001791 0.000000 -0.010531 0.000000
# 3 0.002246 -0.001791 0.009109 0.000000 -0.004751 0.000000
# 4 0.000000 0.000000 0.000000 -0.053589 0.000000 0.025016
# 5 -0.031350 -0.010531 -0.004751 0.000000 0.057187 0.000000
# 6 0.000000 0.000000 0.000000 0.025016 0.000000 0.024192
#
#
# Mechanical properties :
#
#
# Convention : Reuss Voigt Hill
#
# Bulk Modulus (GPa) = 12.60056 30.87987 21.74022
# Shear Modulus (GPa) = 49.51604 25.40905 37.46254
#
# Velocity S-wave (km/s) = 4.53078 3.24559 3.94093
# Velocity P-wave (km/s) = 5.70915 5.18142 5.45167
#
# Compressibility (1/GPa) = 0.07936158
#
# Stress axis : x y z
#
# Youngs Moduli (GPa) = 26.55320 61.43044 109.78630
#
# Poissons Ratio (x) = -0.47316 -0.24656
# Poissons Ratio (y) = -0.20452 0.19664
# Poissons Ratio (z) = -0.05963 0.11003
#
# Static dielectric constant tensor:
#      x y z
#    x 2.040480 0.000000 0.033120 
#    y 0.000000 1.978970 0.000000 
#    z 0.033120 0.000000 1.990100 
# 
# From -- ./inp_files/40934.got.cif
#   From: 2010.05.17/outbox.cif.g08.bks.cpg/sg15_21_cif.got.tgz:40934.got - 2010.06.03 18:47:42.
