data_PCOD9280173
_publ_section_title
;
Structure prediction by ZEFSAII (Michael W. Deem and Ramdas Pophale) SiO2 
 PCOD9280173
Probable space group: C 2/C
;
_chemical_formula_sum "Si O2"
_cell_formula_units_Z 52
_cell_length_a 24.957769
_cell_length_b 13.161187
_cell_length_c 14.882769
_cell_angle_alpha 90.000000
_cell_angle_beta 28.706059
_cell_angle_gamma 90.000000
_cell_volume 2348.074346
_symmetry_space_group_name_H-M "C 2/C"
_symmetry_group_IT_number 15
_symmetry_cell_setting 'monoclinic'
loop_
_space_group_symop_operation_xyz
x,y,z
-x,y,1/2-z
-x,-y,-z
x,-y,1/2+z
1/2+x,1/2+y,z
1/2-x,1/2+y,1/2-z
1/2-x,1/2-y,-z
1/2+x,1/2-y,1/2+z
loop_
_atom_site_type_symbol
_atom_site_label
_atom_site_fract_x
_atom_site_fract_y
_atom_site_fract_z
Si Si1 0.296396 0.574590 0.977772
Si Si2 0.500000 0.562233 0.250000
Si Si3 0.969473 0.892196 0.088458
Si Si4 0.022971 0.751658 0.583994
Si Si5 0.696577 0.117917 0.581385
Si Si6 0.750047 0.764972 0.839708
Si Si7 0.395481 0.283157 0.464210
O O1 0.392394 0.502777 0.880540
O O2 0.344615 0.604301 0.810104
O O3 0.193084 0.500198 0.112711
O O4 0.302571 0.671538 0.033262
O O5 0.482346 0.640639 0.357030
O O6 0.981043 0.791533 0.011297
O O7 0.047898 0.872777 0.059363
O O8 0.000000 0.000000 0.000000
O O9 0.137936 0.707352 0.451544
O O10 0.922056 0.674908 0.752751
O O11 0.766289 0.140480 0.386628
O O12 0.755034 0.176222 0.578650
O O13 0.832462 0.728042 0.638914
O O14 0.500000 0.242116 0.250000
#
# Coordination Sequence:
#
# PCOD9280173 Si02
#       7
#     8   4   8   8   8   8   8
#     4  11  20  34  55  86 119 151 194 244 299 358
#     4  12  16  30  52  82 114 140 176 236 298 340
#     4  11  19  31  55  85 117 147 190 246 301 353
#     4  12  21  34  57  91 118 148 196 247 301 358
#     4  11  21  35  58  89 123 153 196 248 310 353
#     4  11  21  36  58  87 119 155 195 251 302 355
#     4  10  21  37  55  82 119 157 197 247 300 357
#
# _framework density 22.145804999999999
#
# number of rings (size 3 to 8) (size 9 to 14) (size 15 to 20)
#    0.000    0.923    8.462    1.846    0.000    0.000 
#    0.000    3.846    0.000    0.000    0.000    0.000 
#    0.000    0.000    0.000    0.000    0.000    0.000 
#
# Total GULP energy -144738.451402 kJ/mol
# GULP energy per Si atom -5566.863515 kJ/mol
# Density = 2.209540 g / cm^3
# Si number density = 22.145805 Si / 1000 Ang^3
#
#
#
# Elastic Constant Matrix: (Units=GPa)
#
#
# Indices 1 2 3 4 5 6 
#
# 1 69.5691 2.6955 42.3104 0.0000 15.7753 0.0000
# 2 2.6955 18.1395 9.1150 0.0000 7.5858 0.0000
# 3 42.3104 9.1150 95.6058 0.0000 21.0824 0.0000
# 4 0.0000 0.0000 0.0000 15.7673 0.0000 2.4965
# 5 15.7753 7.5858 21.0824 0.0000 38.0630 0.0000
# 6 0.0000 0.0000 0.0000 2.4965 0.0000 17.9196
#
#
#
# Elastic Compliance Matrix: (Units=1/GPa)
#
#
# Indices 1 2 3 4 5 6 
#
# 1 0.020307 0.003000 -0.008299 0.000000 -0.004418 0.000000
# 2 0.003000 0.061643 -0.004809 0.000000 -0.010865 0.000000
# 3 -0.008299 -0.004809 0.015516 0.000000 -0.004196 0.000000
# 4 0.000000 0.000000 0.000000 0.064853 0.000000 -0.009035
# 5 -0.004418 -0.010865 -0.004196 0.000000 0.032593 0.000000
# 6 0.000000 0.000000 0.000000 -0.009035 0.000000 0.057063
#
#
# Mechanical properties :
#
#
# Convention : Reuss Voigt Hill
#
# Bulk Modulus (GPa) = 12.94491 32.39513 22.67002
# Shear Modulus (GPa) = 16.78195 22.96288 19.87242
#
# Velocity S-wave (km/s) = 2.75579 3.22358 2.99882
# Velocity P-wave (km/s) = 3.99798 5.33996 4.71694
#
# Compressibility (1/GPa) = 0.07725041
#
# Stress axis : x y z
#
# Youngs Moduli (GPa) = 49.24477 16.22257 64.44981
#
# Poissons Ratio (x) = -0.04867 0.53484
# Poissons Ratio (y) = -0.14773 0.30992
# Poissons Ratio (z) = 0.40866 0.07801
#
# Static dielectric constant tensor:
#      x y z
#    x 1.931260 0.000000 -0.002340 
#    y 0.000000 1.881410 0.000000 
#    z -0.002340 0.000000 1.960770 
# 
# From -- ./inp_files/178334.got.cif
#   From: 2010.05.17/outbox.cif.g08.bks.cpg/sg15_90_cif.got.tgz:178334.got - 2010.06.03 18:47:42.
