data_PCOD9280533
_publ_section_title
;
Structure prediction by ZEFSAII (Michael W. Deem and Ramdas Pophale) SiO2 
 PCOD9280533
Probable space group: C 2/C
;
_chemical_formula_sum "Si O2"
_cell_formula_units_Z 56
_cell_length_a 9.620875
_cell_length_b 18.966454
_cell_length_c 13.651857
_cell_angle_alpha 90.000000
_cell_angle_beta 88.761707
_cell_angle_gamma 90.000000
_cell_volume 2490.525594
_symmetry_space_group_name_H-M "C 2/C"
_symmetry_group_IT_number 15
_symmetry_cell_setting 'monoclinic'
loop_
_space_group_symop_operation_xyz
x,y,z
-x,y,1/2-z
-x,-y,-z
x,-y,1/2+z
1/2+x,1/2+y,z
1/2-x,1/2+y,1/2-z
1/2-x,1/2-y,-z
1/2+x,1/2-y,1/2+z
loop_
_atom_site_type_symbol
_atom_site_label
_atom_site_fract_x
_atom_site_fract_y
_atom_site_fract_z
Si Si1 0.238535 0.345640 0.616789
Si Si2 0.994355 0.741722 0.133432
Si Si3 0.576598 0.946445 0.352568
Si Si4 0.643287 0.601937 0.196842
Si Si5 0.479208 0.629316 0.501405
Si Si6 0.028891 0.405833 0.949247
Si Si7 0.112734 0.939058 0.172694
O O1 0.156012 0.273126 0.602851
O O2 0.247979 0.362412 0.732082
O O3 0.383630 0.348212 0.560696
O O4 0.136030 0.405764 0.575917
O O5 0.938045 0.807921 0.075195
O O6 0.000000 0.747905 0.250000
O O7 0.925992 0.669051 0.095569
O O8 0.500000 0.950520 0.250000
O O9 0.475778 0.909184 0.433520
O O10 0.729441 0.910473 0.340496
O O11 0.593996 0.025488 0.398037
O O12 0.500000 0.627388 0.250000
O O13 0.641582 0.517860 0.209708
O O14 0.632971 0.614306 0.080838
O O15 0.532507 0.566321 0.570580
O O16 0.000000 0.907355 0.250000
#
# Coordination Sequence:
#
# PCOD9280533 Si02
#       7
#     8   8   8   8   8   8   8
#     4   9  19  38  61  82 112 167 206 251 310 377
#     4  10  21  37  61  83 115 163 210 250 317 377
#     4  11  21  39  65  95 126 159 217 266 306 369
#     4   9  20  34  57  84 114 156 207 245 302 378
#     4  11  20  39  57  87 124 160 206 258 316 377
#     4   9  21  38  63  89 118 168 205 254 313 364
#     4  11  22  38  60  92 131 167 197 262 328 372
#
# _framework density 22.485212000000001
#
# number of rings (size 3 to 8) (size 9 to 14) (size 15 to 20)
#    0.857    1.143    1.429    2.571    2.000    0.000 
#    5.143    4.286    0.000    0.000    0.000    0.000 
#    0.000    0.000    0.000    0.000    0.000    0.000 
#
# Total GULP energy -155997.769448 kJ/mol
# GULP energy per Si atom -5571.348909 kJ/mol
# Density = 2.243403 g / cm^3
# Si number density = 22.485212 Si / 1000 Ang^3
#
#
#
# Elastic Constant Matrix: (Units=GPa)
#
#
# Indices 1 2 3 4 5 6 
#
# 1 47.6765 -3.8146 26.9356 0.0000 -4.5112 0.0000
# 2 -3.8146 51.7295 11.3241 0.0000 3.0038 0.0000
# 3 26.9356 11.3241 159.3028 0.0000 7.5563 0.0000
# 4 0.0000 0.0000 0.0000 21.1239 0.0000 4.0723
# 5 -4.5112 3.0038 7.5563 0.0000 42.5452 0.0000
# 6 0.0000 0.0000 0.0000 4.0723 0.0000 5.7294
#
#
#
# Elastic Compliance Matrix: (Units=1/GPa)
#
#
# Indices 1 2 3 4 5 6 
#
# 1 0.023949 0.002542 -0.004379 0.000000 0.003138 0.000000
# 2 0.002542 0.019963 -0.001810 0.000000 -0.000818 0.000000
# 3 -0.004379 -0.001810 0.007223 0.000000 -0.001619 0.000000
# 4 0.000000 0.000000 0.000000 0.054857 0.000000 -0.038991
# 5 0.003138 -0.000818 -0.001619 0.000000 0.024182 0.000000
# 6 0.000000 0.000000 0.000000 -0.038991 0.000000 0.202253
#
#
# Mechanical properties :
#
#
# Convention : Reuss Voigt Hill
#
# Bulk Modulus (GPa) = 22.80946 36.39990 29.60468
# Shear Modulus (GPa) = 14.11098 28.83060 21.47079
#
# Velocity S-wave (km/s) = 2.50785 3.58467 3.09347
# Velocity P-wave (km/s) = 4.30720 5.77552 5.09454
#
# Compressibility (1/GPa) = 0.04384147
#
# Stress axis : x y z
#
# Youngs Moduli (GPa) = 41.75551 50.09375 138.44179
#
# Poissons Ratio (x) = -0.12736 0.60623
# Poissons Ratio (y) = -0.10616 0.25060
# Poissons Ratio (z) = 0.18285 0.09068
#
# Static dielectric constant tensor:
#      x y z
#    x 1.922190 0.000000 -0.059170 
#    y 0.000000 1.843990 0.000000 
#    z -0.059170 0.000000 1.875710 
# 
# From -- ./inp_files/88914.got.cif
#   From: 2010.05.17/outbox.cif.g08.bks.cpg/sg15_45_cif.got.tgz:88914.got - 2010.06.03 18:47:42.
