data_PCOD9280028
_publ_section_title
;
Structure prediction by ZEFSAII (Michael W. Deem and Ramdas Pophale) SiO2 
 PCOD9280028
Probable space group: C 2/C
;
_chemical_formula_sum "Si O2"
_cell_formula_units_Z 64
_cell_length_a 20.538335
_cell_length_b 5.166600
_cell_length_c 25.768376
_cell_angle_alpha 90.000000
_cell_angle_beta 85.661836
_cell_angle_gamma 90.000000
_cell_volume 2726.534951
_symmetry_space_group_name_H-M "C 2/C"
_symmetry_group_IT_number 15
_symmetry_cell_setting 'monoclinic'
loop_
_space_group_symop_operation_xyz
x,y,z
-x,y,1/2-z
-x,-y,-z
x,-y,1/2+z
1/2+x,1/2+y,z
1/2-x,1/2+y,1/2-z
1/2-x,1/2-y,-z
1/2+x,1/2-y,1/2+z
loop_
_atom_site_type_symbol
_atom_site_label
_atom_site_fract_x
_atom_site_fract_y
_atom_site_fract_z
Si Si1 0.095484 0.585477 0.980473
Si Si2 0.826583 0.920915 0.010700
Si Si3 0.308966 0.508194 0.123766
Si Si4 0.932017 0.471063 0.408400
Si Si5 0.847312 0.037509 0.899969
Si Si6 0.570327 0.890379 0.869209
Si Si7 0.841614 0.392621 0.211774
Si Si8 0.283932 0.345264 0.806090
O O1 0.155452 0.379278 0.982904
O O2 0.052113 0.478739 0.030843
O O3 0.110334 0.885809 0.991452
O O4 0.079636 0.565766 0.920663
O O5 0.803854 0.961080 0.953084
O O6 0.791389 0.026479 0.064250
O O7 0.377377 0.341773 0.122874
O O8 0.323741 0.752815 0.158602
O O9 0.249220 0.371396 0.156155
O O10 0.904345 0.186749 0.395646
O O11 0.991946 0.602856 0.374194
O O12 0.874127 0.676393 0.406237
O O13 0.810931 0.036382 0.847650
O O14 0.592734 0.973059 0.810221
O O15 0.778353 0.570854 0.224578
O O16 0.841404 0.221258 0.262734
#
# Coordination Sequence:
#
# PCOD9280028 Si02
#       8
#     8   8   8   8   8   8   8   8
#     4   9  17  33  58  91 125 163 199 250 296 366
#     4   9  18  36  57  92 127 158 202 244 315 366
#     4  10  21  38  63  91 122 155 211 267 301 358
#     4  10  22  39  63  93 130 167 203 238 314 379
#     4  10  24  41  63  91 131 170 198 247 308 395
#     4  10  21  36  63  93 124 159 205 260 307 354
#     4  11  22  40  65  89 114 156 216 270 304 356
#     4  11  24  41  65  88 117 165 212 260 317 358
#
# _framework density 23.473016000000001
#
# number of rings (size 3 to 8) (size 9 to 14) (size 15 to 20)
#    0.000    2.000    2.500    0.375    3.500    0.500 
#    0.000    6.250    0.000    0.000    0.000    0.000 
#    0.000    0.000    0.000    0.000    0.000    0.000 
#
# Total GULP energy -178173.612182 kJ/mol
# GULP energy per Si atom -5567.925381 kJ/mol
# Density = 2.341959 g / cm^3
# Si number density = 23.473016 Si / 1000 Ang^3
#
#
#
# Elastic Constant Matrix: (Units=GPa)
#
#
# Indices 1 2 3 4 5 6 
#
# 1 43.9490 10.4775 13.6140 0.0000 -16.5793 0.0000
# 2 10.4775 68.1333 -2.1777 0.0000 -5.5829 0.0000
# 3 13.6140 -2.1777 128.1675 0.0000 -19.9434 0.0000
# 4 0.0000 0.0000 0.0000 17.6873 0.0000 -0.3993
# 5 -16.5793 -5.5829 -19.9434 0.0000 36.4406 0.0000
# 6 0.0000 0.0000 0.0000 -0.3993 0.0000 2.7380
#
#
#
# Elastic Compliance Matrix: (Units=1/GPa)
#
#
# Indices 1 2 3 4 5 6 
#
# 1 0.028375 -0.003445 -0.001253 0.000000 0.011697 0.000000
# 2 -0.003445 0.015334 0.000818 0.000000 0.001229 0.000000
# 3 -0.001253 0.000818 0.008614 0.000000 0.004270 0.000000
# 4 0.000000 0.000000 0.000000 0.056725 0.000000 0.008273
# 5 0.011697 0.001229 0.004270 0.000000 0.035288 0.000000
# 6 0.000000 0.000000 0.000000 0.008273 0.000000 0.366433
#
#
# Mechanical properties :
#
#
# Convention : Reuss Voigt Hill
#
# Bulk Modulus (GPa) = 22.44019 31.56415 27.00217
# Shear Modulus (GPa) = 9.37413 25.92893 17.65153
#
# Velocity S-wave (km/s) = 2.00056 3.32720 2.74522
# Velocity P-wave (km/s) = 3.86226 5.31380 4.64508
#
# Compressibility (1/GPa) = 0.04456289
#
# Stress axis : x y z
#
# Youngs Moduli (GPa) = 35.24186 65.21553 116.09573
#
# Poissons Ratio (x) = 0.22468 0.14541
# Poissons Ratio (y) = 0.12141 -0.09494
# Poissons Ratio (z) = 0.04414 -0.05333
#
# Static dielectric constant tensor:
#      x y z
#    x 2.005400 0.000000 -0.010130 
#    y 0.000000 1.957180 0.000000 
#    z -0.010130 0.000000 1.927390 
# 
# From -- ./inp_files/280977.got.cif
#   From: 2010.05.17/outbox.cif.g08.bks.cpg/sg15_141_cif.got.tgz:280977.got - 2010.06.03 18:47:42.
