data_PCOD9280073
_publ_section_title
;
Structure prediction by ZEFSAII (Michael W. Deem and Ramdas Pophale) SiO2 
 PCOD9280073
Probable space group: C 2/C
;
_chemical_formula_sum "Si O2"
_cell_formula_units_Z 52
_cell_length_a 26.669820
_cell_length_b 10.087475
_cell_length_c 11.108425
_cell_angle_alpha 90.000000
_cell_angle_beta 50.005600
_cell_angle_gamma 90.000000
_cell_volume 2289.520960
_symmetry_space_group_name_H-M "C 2/C"
_symmetry_group_IT_number 15
_symmetry_cell_setting 'monoclinic'
loop_
_space_group_symop_operation_xyz
x,y,z
-x,y,1/2-z
-x,-y,-z
x,-y,1/2+z
1/2+x,1/2+y,z
1/2-x,1/2+y,1/2-z
1/2-x,1/2-y,-z
1/2+x,1/2-y,1/2+z
loop_
_atom_site_type_symbol
_atom_site_label
_atom_site_fract_x
_atom_site_fract_y
_atom_site_fract_z
Si Si1 0.143119 0.521865 0.019423
Si Si2 0.355969 0.750286 0.158905
Si Si3 0.958994 0.408133 0.151832
Si Si4 0.274044 0.615330 0.906861
Si Si5 0.298152 0.239979 0.128222
Si Si6 0.625434 0.420928 0.667922
Si Si7 0.500000 0.324120 0.750000
O O1 0.136942 0.670304 0.976963
O O2 0.208866 0.525779 0.999513
O O3 0.164732 0.398412 0.899704
O O4 0.074827 0.485131 0.185771
O O5 0.278389 0.724122 0.282971
O O6 0.385303 0.617089 0.174476
O O7 0.395134 0.855516 0.180432
O O8 0.999434 0.281064 0.139300
O O9 0.000000 0.500000 0.000000
O O10 0.300251 0.654649 0.734044
O O11 0.329861 0.549082 0.900313
O O12 0.250000 0.750000 0.000000
O O13 0.332886 0.303538 0.959064
O O14 0.560625 0.417191 0.688895
#
# Coordination Sequence:
#
# PCOD9280073 Si02
#       7
#     8   8   8   8   8   8   4
#     4  11  22  39  66 104 143 176 233 296 355 425
#     4  10  21  36  64  97 137 177 222 287 353 405
#     4  11  22  37  65 100 143 185 244 281 337 420
#     4  11  27  39  68 104 136 174 232 302 365 413
#     4  11  22  39  69  96 135 177 225 289 362 425
#     4  11  22  43  65  98 140 186 230 281 352 421
#     4  10  22  40  66  98 130 202 232 268 346 420
#
# _framework density 22.712174999999998
#
# number of rings (size 3 to 8) (size 9 to 14) (size 15 to 20)
#    0.000    1.231    4.615    2.308    6.462    0.000 
#    0.000    0.769    0.000    4.615    0.000    0.000 
#    0.000    0.000    0.000    0.000    0.000    0.000 
#
# Total GULP energy -144891.793538 kJ/mol
# GULP energy per Si atom -5572.761290 kJ/mol
# Density = 2.266048 g / cm^3
# Si number density = 22.712175 Si / 1000 Ang^3
#
#
#
# Elastic Constant Matrix: (Units=GPa)
#
#
# Indices 1 2 3 4 5 6 
#
# 1 129.7827 42.1852 35.9656 0.0000 -25.2139 0.0000
# 2 42.1852 88.3116 28.5540 0.0000 -17.4228 0.0000
# 3 35.9656 28.5540 80.1722 0.0000 -20.5020 0.0000
# 4 0.0000 0.0000 0.0000 23.6873 0.0000 1.1584
# 5 -25.2139 -17.4228 -20.5020 0.0000 22.9710 0.0000
# 6 0.0000 0.0000 0.0000 1.1584 0.0000 24.8725
#
#
#
# Elastic Compliance Matrix: (Units=1/GPa)
#
#
# Indices 1 2 3 4 5 6 
#
# 1 0.010693 -0.002990 -0.001698 0.000000 0.007954 0.000000
# 2 -0.002990 0.014655 -0.002430 0.000000 0.005665 0.000000
# 3 -0.001698 -0.002430 0.017042 0.000000 0.011504 0.000000
# 4 0.000000 0.000000 0.000000 0.042313 0.000000 -0.001971
# 5 0.007954 0.005665 0.011504 0.000000 0.066828 0.000000
# 6 0.000000 0.000000 0.000000 -0.001971 0.000000 0.040297
#
#
# Mechanical properties :
#
#
# Convention : Reuss Voigt Hill
#
# Bulk Modulus (GPa) = 35.51745 56.85291 46.18518
# Shear Modulus (GPa) = 23.20760 27.07693 25.14226
#
# Velocity S-wave (km/s) = 3.20005 3.45654 3.33076
# Velocity P-wave (km/s) = 5.41533 6.40441 5.93052
#
# Compressibility (1/GPa) = 0.02815517
#
# Stress axis : x y z
#
# Youngs Moduli (GPa) = 93.52145 68.23667 58.67866
#
# Poissons Ratio (x) = 0.20400 0.09964
# Poissons Ratio (y) = 0.27959 0.14256
# Poissons Ratio (z) = 0.15881 0.16578
#
# Static dielectric constant tensor:
#      x y z
#    x 1.960730 0.000000 0.158760 
#    y 0.000000 1.926380 0.000000 
#    z 0.158760 0.000000 2.104360 
# 
# From -- ./inp_files/176488.got.cif
#   From: 2010.05.17/outbox.cif.g08.bks.cpg/sg15_89_cif.got.tgz:176488.got - 2010.06.03 18:47:42.
