data_PCOD9280423
_publ_section_title
;
Structure prediction by ZEFSAII (Michael W. Deem and Ramdas Pophale) SiO2 
 PCOD9280423
Probable space group: C 2/C
;
_chemical_formula_sum "Si O2"
_cell_formula_units_Z 48
_cell_length_a 24.827347
_cell_length_b 10.373732
_cell_length_c 28.843433
_cell_angle_alpha 90.000000
_cell_angle_beta 161.873852
_cell_angle_gamma 90.000000
_cell_volume 2311.141383
_symmetry_space_group_name_H-M "C 2/C"
_symmetry_group_IT_number 15
_symmetry_cell_setting 'monoclinic'
loop_
_space_group_symop_operation_xyz
x,y,z
-x,y,1/2-z
-x,-y,-z
x,-y,1/2+z
1/2+x,1/2+y,z
1/2-x,1/2+y,1/2-z
1/2-x,1/2-y,-z
1/2+x,1/2-y,1/2+z
loop_
_atom_site_type_symbol
_atom_site_label
_atom_site_fract_x
_atom_site_fract_y
_atom_site_fract_z
Si Si1 0.373444 0.869377 0.330075
Si Si2 0.153414 0.148444 0.339072
Si Si3 0.141720 0.983224 0.576413
Si Si4 0.346332 0.726588 0.764458
Si Si5 0.360522 0.925470 0.473260
Si Si6 0.443426 0.649786 0.071892
O O1 0.228618 0.838256 0.249844
O O2 0.474543 0.739110 0.401548
O O3 0.287638 0.915210 0.211826
O O4 0.508039 0.986011 0.450469
O O5 0.265402 0.277494 0.438884
O O6 0.000000 0.136160 0.250000
O O7 0.068368 0.148358 0.218213
O O8 0.286746 0.027707 0.449899
O O9 0.217284 0.843191 0.646036
O O10 0.086765 0.015368 0.479305
O O11 0.000000 0.000000 0.500000
O O12 0.304409 0.625849 0.689848
O O13 0.526543 0.803671 0.916899
#
# Coordination Sequence:
#
# PCOD9280423 Si02
#       6
#     8   8   8   8   8   8
#     4  10  21  37  59  94 128 168 205 248 301 394
#     4  11  25  46  69  90 119 165 226 281 318 354
#     4  11  21  34  58  94 131 167 203 240 313 390
#     4  11  22  38  60  91 138 170 201 247 314 389
#     4  10  25  39  63  92 129 169 221 252 316 372
#     4  11  22  41  66  93 127 160 210 267 318 370
#
# _framework density 20.768958000000001
#
# number of rings (size 3 to 8) (size 9 to 14) (size 15 to 20)
#    0.000    1.333    3.333    2.000    4.667    0.000 
#    0.000    0.833    0.000    0.000    0.000    0.000 
#    0.000    0.000    0.000    0.000    0.000    0.000 
#
# Total GULP energy -133936.115876 kJ/mol
# GULP energy per Si atom -5580.671495 kJ/mol
# Density = 2.072169 g / cm^3
# Si number density = 20.768958 Si / 1000 Ang^3
#
#
#
# Elastic Constant Matrix: (Units=GPa)
#
#
# Indices 1 2 3 4 5 6 
#
# 1 38.2932 17.1411 15.2112 -0.0013 20.1569 0.0019
# 2 17.1411 78.1491 31.6926 -0.0155 -1.2163 -0.0020
# 3 15.2112 31.6926 99.6663 -0.0096 -0.2876 -0.0042
# 4 -0.0013 -0.0155 -0.0096 50.6756 -0.0051 -1.1426
# 5 20.1569 -1.2163 -0.2876 -0.0051 35.4899 -0.0023
# 6 0.0019 -0.0020 -0.0042 -1.1426 -0.0023 13.7375
#
#
#
# Elastic Compliance Matrix: (Units=1/GPa)
#
#
# Indices 1 2 3 4 5 6 
#
# 1 0.045433 -0.008644 -0.004261 -0.000005 -0.026135 -0.000014
# 2 -0.008644 0.016343 -0.003862 0.000005 0.005438 0.000004
# 3 -0.004261 -0.003862 0.011919 0.000001 0.002384 0.000004
# 4 -0.000005 0.000005 0.000001 0.019770 0.000006 0.001644
# 5 -0.026135 0.005438 0.002384 0.000006 0.043227 0.000013
# 6 -0.000014 0.000004 0.000004 0.001644 0.000013 0.072930
#
#
# Mechanical properties :
#
#
# Convention : Reuss Voigt Hill
#
# Bulk Modulus (GPa) = 24.89961 38.24427 31.57194
# Shear Modulus (GPa) = 19.48994 30.11818 24.80406
#
# Velocity S-wave (km/s) = 3.06668 3.81222 3.45959
# Velocity P-wave (km/s) = 4.95523 6.15073 5.58506
#
# Compressibility (1/GPa) = 0.04016127
#
# Stress axis : x y z
#
# Youngs Moduli (GPa) = 22.01027 61.18899 83.90208
#
# Poissons Ratio (x) = 0.52893 0.35749
# Poissons Ratio (y) = 0.19026 0.32401
# Poissons Ratio (z) = 0.09378 0.23630
#
# Static dielectric constant tensor:
#      x y z
#    x 1.689250 0.000000 -0.011990 
#    y 0.000000 1.776900 -0.000010 
#    z -0.011990 -0.000010 1.846920 
# 
# From -- ./inp_files/302235.got.cif
#   From: 2010.05.17/outbox.cif.g08.bks.cpg/sg15_152_cif.got.tgz:302235.got - 2010.06.03 18:47:42.
