data_PCOD9280072
_publ_section_title
;
Structure prediction by ZEFSAII (Michael W. Deem and Ramdas Pophale) SiO2 
 PCOD9280072
Probable space group: C 2/C
;
_chemical_formula_sum "Si O2"
_cell_formula_units_Z 56
_cell_length_a 7.795866
_cell_length_b 19.314731
_cell_length_c 18.703349
_cell_angle_alpha 90.000000
_cell_angle_beta 62.521558
_cell_angle_gamma 90.000000
_cell_volume 2498.540287
_symmetry_space_group_name_H-M "C 2/C"
_symmetry_group_IT_number 15
_symmetry_cell_setting 'monoclinic'
loop_
_space_group_symop_operation_xyz
x,y,z
-x,y,1/2-z
-x,-y,-z
x,-y,1/2+z
1/2+x,1/2+y,z
1/2-x,1/2+y,1/2-z
1/2-x,1/2-y,-z
1/2+x,1/2-y,1/2+z
loop_
_atom_site_type_symbol
_atom_site_label
_atom_site_fract_x
_atom_site_fract_y
_atom_site_fract_z
Si Si1 0.111260 0.000563 0.585760
Si Si2 0.706211 0.042604 0.585094
Si Si3 0.500000 0.023887 0.250000
Si Si4 0.107485 0.143208 0.654648
Si Si5 0.703354 0.307285 0.405219
Si Si6 0.131271 0.242343 0.449360
Si Si7 0.500000 0.271903 0.750000
Si Si8 0.137882 0.876380 0.834322
O O1 0.277221 0.994881 0.494054
O O2 0.053570 0.925018 0.627142
O O3 0.155919 0.062749 0.631010
O O4 0.909039 0.021784 0.585288
O O5 0.717151 0.124274 0.572460
O O6 0.536253 0.021713 0.672066
O O7 0.685039 0.073154 0.215587
O O8 0.289145 0.194875 0.613676
O O9 0.000000 0.150797 0.750000
O O10 0.955658 0.166592 0.622417
O O11 0.588456 0.258230 0.481682
O O12 0.870585 0.271411 0.328805
O O13 0.250000 0.250000 0.500000
O O14 0.160225 0.168705 0.402929
O O15 0.630906 0.320863 0.773247
#
# Coordination Sequence:
#
# PCOD9280072 Si02
#       8
#     8   8   4   8   8   8   4   8
#     4   9  19  36  62  85 128 167 207 263 331 391
#     4   9  17  37  61  92 111 160 213 264 316 386
#     4  10  23  34  72  91 122 156 230 274 308 395
#     4  10  21  36  64  97 131 168 225 280 322 385
#     4  10  21  40  62  91 126 172 216 263 334 403
#     4  10  22  38  67  97 128 172 223 280 332 392
#     4  12  27  38  64  89 138 170 210 266 340 405
#     4  11  24  42  61  96 130 174 213 274 334 395
#
# _framework density 22.413087000000001
#
# number of rings (size 3 to 8) (size 9 to 14) (size 15 to 20)
#    0.000    2.000    1.429    1.286   12.000    0.571 
#    0.000    0.000    0.000    1.714    0.000    0.000 
#    0.000    0.000    0.000    0.000    0.000    0.000 
#
# Total GULP energy -156434.934935 kJ/mol
# GULP energy per Si atom -5586.961962 kJ/mol
# Density = 2.236207 g / cm^3
# Si number density = 22.413087 Si / 1000 Ang^3
#
#
#
# Elastic Constant Matrix: (Units=GPa)
#
#
# Indices 1 2 3 4 5 6 
#
# 1 49.6742 21.0202 23.8593 0.0000 -1.0056 0.0000
# 2 21.0202 123.6065 74.2189 0.0000 -11.8404 0.0000
# 3 23.8593 74.2189 199.7586 0.0000 -24.4428 0.0000
# 4 0.0000 0.0000 0.0000 70.6126 0.0000 -27.6518
# 5 -1.0056 -11.8404 -24.4428 0.0000 22.6506 0.0000
# 6 0.0000 0.0000 0.0000 -27.6518 0.0000 10.8921
#
#
#
# Elastic Compliance Matrix: (Units=1/GPa)
#
#
# Indices 1 2 3 4 5 6 
#
# 1 0.022210 -0.002885 -0.001895 0.000000 -0.002567 0.000000
# 2 -0.002885 0.010830 -0.003459 0.000000 0.001801 0.000000
# 3 -0.001895 -0.003459 0.007242 0.000000 0.005923 0.000000
# 4 0.000000 0.000000 0.000000 2.423008 0.000000 6.151314
# 5 -0.002567 0.001801 0.005923 0.000000 0.051368 0.000000
# 6 0.000000 0.000000 0.000000 6.151314 0.000000 15.708211
#
#
# Mechanical properties :
#
#
# Convention : Reuss Voigt Hill
#
# Bulk Modulus (GPa) = 42.00853 67.91514 54.96184
# Shear Modulus (GPa) = 0.27401 37.76046 19.01724
#
# Velocity S-wave (km/s) = 0.35003 4.10902 2.91604
# Velocity P-wave (km/s) = 4.35280 7.27183 5.99276
#
# Compressibility (1/GPa) = 0.02380469
#
# Stress axis : x y z
#
# Youngs Moduli (GPa) = 45.02426 92.33418 138.07792
#
# Poissons Ratio (x) = 0.26639 0.26165
# Poissons Ratio (y) = 0.12990 0.47761
# Poissons Ratio (z) = 0.08532 0.31938
#
# Static dielectric constant tensor:
#      x y z
#    x 1.863180 0.000000 0.011120 
#    y 0.000000 1.835580 0.000000 
#    z 0.011120 0.000000 1.815920 
# 
# From -- ./inp_files/233792.got.cif
#   From: 2010.05.17/outbox.cif.g08.bks.cpg/sg15_117_cif.got.tgz:233792.got - 2010.06.03 18:47:42.
