data_PCOD9280088
_publ_section_title
;
Structure prediction by ZEFSAII (Michael W. Deem and Ramdas Pophale) SiO2 
 PCOD9280088
Probable space group: C 2/C
;
_chemical_formula_sum "Si O2"
_cell_formula_units_Z 56
_cell_length_a 6.701817
_cell_length_b 22.429755
_cell_length_c 19.011997
_cell_angle_alpha 90.000000
_cell_angle_beta 50.768079
_cell_angle_gamma 90.000000
_cell_volume 2213.695989
_symmetry_space_group_name_H-M "C 2/C"
_symmetry_group_IT_number 15
_symmetry_cell_setting 'monoclinic'
loop_
_space_group_symop_operation_xyz
x,y,z
-x,y,1/2-z
-x,-y,-z
x,-y,1/2+z
1/2+x,1/2+y,z
1/2-x,1/2+y,1/2-z
1/2-x,1/2-y,-z
1/2+x,1/2-y,1/2+z
loop_
_atom_site_type_symbol
_atom_site_label
_atom_site_fract_x
_atom_site_fract_y
_atom_site_fract_z
Si Si1 0.164155 0.194312 0.083404
Si Si2 0.129358 0.325563 0.110147
Si Si3 0.000000 0.414610 0.250000
Si Si4 0.000000 0.630481 0.250000
Si Si5 0.466795 0.470373 0.428603
Si Si6 0.018541 0.073261 0.166284
Si Si7 0.871121 0.278251 0.880140
Si Si8 0.170637 0.156984 0.553395
O O1 0.159310 0.256571 0.125994
O O2 0.152467 0.136698 0.132728
O O3 0.898596 0.204385 0.097679
O O4 0.372455 0.179702 0.974444
O O5 0.407201 0.351174 0.067244
O O6 0.944495 0.368567 0.196374
O O7 0.749254 0.452721 0.330172
O O8 0.755938 0.587925 0.309110
O O9 0.061984 0.677909 0.297575
O O10 0.500000 0.500000 0.500000
O O11 0.350927 0.523986 0.409448
O O12 0.280176 0.413246 0.453538
O O13 0.000000 0.052721 0.250000
O O14 0.903050 0.206788 0.871026
O O15 0.856006 0.304330 0.962035
#
# Coordination Sequence:
#
# PCOD9280088 Si02
#       8
#     8   8   4   4   8   8   8   8
#     4   9  19  36  57  86 126 158 196 260 332 387
#     4   9  18  33  58  91 116 155 199 263 326 381
#     4  10  21  36  66  88 111 166 222 260 316 396
#     4  10  21  38  62  86 119 158 196 264 316 378
#     4  11  22  41  64  86 129 179 215 271 333 396
#     4  11  24  39  61  90 122 168 214 258 316 391
#     4   9  18  34  56  89 112 150 198 248 325 372
#     4   9  19  35  58  83 113 157 200 249 311 383
#
# _framework density 25.297059999999998
#
# number of rings (size 3 to 8) (size 9 to 14) (size 15 to 20)
#    0.000    2.286    0.000    3.857    3.000    3.429 
#    3.857    0.000    0.000    5.143    0.000    0.000 
#    0.000    0.000    0.000    0.000    0.000    0.000 
#
# Total GULP energy -155918.368892 kJ/mol
# GULP energy per Si atom -5568.513175 kJ/mol
# Density = 2.523948 g / cm^3
# Si number density = 25.297060 Si / 1000 Ang^3
#
#
#
# Elastic Constant Matrix: (Units=GPa)
#
#
# Indices 1 2 3 4 5 6 
#
# 1 37.1680 9.0607 12.2483 0.0000 7.3257 0.0000
# 2 9.0607 169.3438 53.1334 0.0000 9.6958 0.0000
# 3 12.2483 53.1334 98.0962 0.0000 15.6449 0.0000
# 4 0.0000 0.0000 0.0000 64.3957 0.0000 18.1638
# 5 7.3257 9.6958 15.6449 0.0000 43.7217 0.0000
# 6 0.0000 0.0000 0.0000 18.1638 0.0000 56.1154
#
#
#
# Elastic Compliance Matrix: (Units=1/GPa)
#
#
# Indices 1 2 3 4 5 6 
#
# 1 0.028652 -0.000462 -0.002734 0.000000 -0.003720 0.000000
# 2 -0.000462 0.007123 -0.003777 0.000000 -0.000151 0.000000
# 3 -0.002734 -0.003777 0.013123 0.000000 -0.003400 0.000000
# 4 0.000000 0.000000 0.000000 0.017089 0.000000 -0.005532
# 5 -0.003720 -0.000151 -0.003400 0.000000 0.024745 0.000000
# 6 0.000000 0.000000 0.000000 -0.005532 0.000000 0.019611
#
#
# Mechanical properties :
#
#
# Convention : Reuss Voigt Hill
#
# Bulk Modulus (GPa) = 28.60976 50.38808 39.49892
# Shear Modulus (GPa) = 36.78083 48.19094 42.48589
#
# Velocity S-wave (km/s) = 3.81722 4.36937 4.10259
# Velocity P-wave (km/s) = 5.54637 6.73921 6.17168
#
# Compressibility (1/GPa) = 0.03495311
#
# Stress axis : x y z
#
# Youngs Moduli (GPa) = 34.90200 140.38096 76.20029
#
# Poissons Ratio (x) = 0.06489 0.20831
# Poissons Ratio (y) = 0.01613 0.28778
# Poissons Ratio (z) = 0.09541 0.53017
#
# Static dielectric constant tensor:
#      x y z
#    x 2.172860 0.000000 0.008080 
#    y 0.000000 2.032520 0.000000 
#    z 0.008080 0.000000 2.192510 
# 
# From -- ./inp_files/233790.got.cif
#   From: 2010.05.17/outbox.cif.g08.bks.cpg/sg15_117_cif.got.tgz:233790.got - 2010.06.03 18:47:42.
