data_PCOD9280665
_publ_section_title
;
Structure prediction by ZEFSAII (Michael W. Deem and Ramdas Pophale) SiO2 
 PCOD9280665
Probable space group: C 2/C
;
_chemical_formula_sum "Si O2"
_cell_formula_units_Z 56
_cell_length_a 9.503185
_cell_length_b 35.453320
_cell_length_c 8.734858
_cell_angle_alpha 90.000000
_cell_angle_beta 131.749407
_cell_angle_gamma 90.000000
_cell_volume 2195.625082
_symmetry_space_group_name_H-M "C 2/C"
_symmetry_group_IT_number 15
_symmetry_cell_setting 'monoclinic'
loop_
_space_group_symop_operation_xyz
x,y,z
-x,y,1/2-z
-x,-y,-z
x,-y,1/2+z
1/2+x,1/2+y,z
1/2-x,1/2+y,1/2-z
1/2-x,1/2-y,-z
1/2+x,1/2-y,1/2+z
loop_
_atom_site_type_symbol
_atom_site_label
_atom_site_fract_x
_atom_site_fract_y
_atom_site_fract_z
Si Si1 0.828013 0.968956 0.245780
Si Si2 0.646660 0.310447 0.693028
Si Si3 0.297481 0.038546 0.521889
Si Si4 0.679430 0.186592 0.487715
Si Si5 0.287630 0.875692 0.021934
Si Si6 0.317009 0.614290 0.725914
Si Si7 0.013948 0.262151 0.431318
O O1 0.853480 0.968814 0.448665
O O2 0.731107 0.927778 0.153050
O O3 0.000000 0.967078 0.250000
O O4 0.721942 0.006670 0.119263
O O5 0.655008 0.315718 0.516052
O O6 0.465356 0.283114 0.571257
O O7 0.708555 0.346048 0.840778
O O8 0.803688 0.280062 0.859336
O O9 0.500000 0.034761 0.750000
O O10 0.280481 0.081500 0.453660
O O11 0.500000 0.187256 0.250000
O O12 0.679711 0.147338 0.575412
O O13 0.653268 0.221714 0.581122
O O14 0.500000 0.869859 0.250000
O O15 0.150234 0.876691 0.071357
O O16 0.500000 0.614653 0.750000
O O17 0.000000 0.277832 0.250000
#
# Coordination Sequence:
#
# PCOD9280665 Si02
#       7
#     8   8   8   8   8   8   8
#     4  10  21  38  59  88 127 161 193 244 304 350
#     4  11  23  39  60  86 115 151 197 249 300 355
#     4  10  21  37  62  90 118 158 205 247 288 349
#     4  10  22  39  59  85 118 158 200 249 301 353
#     4  10  21  41  63  86 121 162 201 246 299 356
#     4  10  22  39  60  89 124 160 199 247 300 353
#     4  11  23  39  59  84 114 152 197 246 303 360
#
# _framework density 25.505265000000001
#
# number of rings (size 3 to 8) (size 9 to 14) (size 15 to 20)
#    0.000    1.714    0.000    4.714    0.000    4.000 
#    0.000    0.714    0.000    0.000    0.000    0.000 
#    0.000    0.000    0.000    0.000    0.000    0.000 
#
# Total GULP energy -156406.434737 kJ/mol
# GULP energy per Si atom -5585.944098 kJ/mol
# Density = 2.544721 g / cm^3
# Si number density = 25.505265 Si / 1000 Ang^3
#
#
#
# Elastic Constant Matrix: (Units=GPa)
#
#
# Indices 1 2 3 4 5 6 
#
# 1 112.8967 31.3346 18.4191 0.0000 -28.1575 0.0000
# 2 31.3346 242.1601 97.9941 0.0000 -20.0907 0.0000
# 3 18.4191 97.9941 104.6995 0.0000 -14.6704 0.0000
# 4 0.0000 0.0000 0.0000 48.6792 0.0000 -9.5976
# 5 -28.1575 -20.0907 -14.6704 0.0000 39.1349 0.0000
# 6 0.0000 0.0000 0.0000 -9.5976 0.0000 30.2292
#
#
#
# Elastic Compliance Matrix: (Units=1/GPa)
#
#
# Indices 1 2 3 4 5 6 
#
# 1 0.010943 -0.000711 -0.000219 0.000000 0.007426 0.000000
# 2 -0.000711 0.006742 -0.006092 0.000000 0.000666 0.000000
# 3 -0.000219 -0.006092 0.015653 0.000000 0.002583 0.000000
# 4 0.000000 0.000000 0.000000 0.021914 0.000000 0.006958
# 5 0.007426 0.000666 0.002583 0.000000 0.032206 0.000000
# 6 0.000000 0.000000 0.000000 0.006958 0.000000 0.035290
#
#
# Mechanical properties :
#
#
# Convention : Reuss Voigt Hill
#
# Bulk Modulus (GPa) = 51.82858 83.91686 67.87272
# Shear Modulus (GPa) = 34.91057 44.40921 39.65989
#
# Velocity S-wave (km/s) = 3.70369 4.17727 3.94759
# Velocity P-wave (km/s) = 6.21728 7.49929 6.88818
#
# Compressibility (1/GPa) = 0.01929437
#
# Stress axis : x y z
#
# Youngs Moduli (GPa) = 91.38297 148.32692 63.88505
#
# Poissons Ratio (x) = 0.10551 0.01398
# Poissons Ratio (y) = 0.06500 0.38917
# Poissons Ratio (z) = 0.01999 0.90356
#
# Static dielectric constant tensor:
#      x y z
#    x 2.452320 0.000000 -0.020450 
#    y 0.000000 2.033170 0.000000 
#    z -0.020450 0.000000 1.973260 
# 
# From -- ./inp_files/35802.got.cif
#   From: 2010.05.17/outbox.cif.g08.bks.cpg/sg15_18_cif.got.tgz:35802.got - 2010.06.03 18:47:42.
