data_PCOD9280982
_publ_section_title
;
Structure prediction by ZEFSAII (Michael W. Deem and Ramdas Pophale) SiO2 
 PCOD9280982
Probable space group: C 2/C
;
_chemical_formula_sum "Si O2"
_cell_formula_units_Z 44
_cell_length_a 14.085792
_cell_length_b 31.329491
_cell_length_c 13.793483
_cell_angle_alpha 90.000000
_cell_angle_beta 159.156764
_cell_angle_gamma 90.000000
_cell_volume 2165.855606
_symmetry_space_group_name_H-M "C 2/C"
_symmetry_group_IT_number 15
_symmetry_cell_setting 'monoclinic'
loop_
_space_group_symop_operation_xyz
x,y,z
-x,y,1/2-z
-x,-y,-z
x,-y,1/2+z
1/2+x,1/2+y,z
1/2-x,1/2+y,1/2-z
1/2-x,1/2-y,-z
1/2+x,1/2-y,1/2+z
loop_
_atom_site_type_symbol
_atom_site_label
_atom_site_fract_x
_atom_site_fract_y
_atom_site_fract_z
Si Si1 0.430904 0.148634 0.519978
Si Si2 0.000000 0.421755 0.250000
Si Si3 0.000000 0.125510 0.750000
Si Si4 0.439332 0.466276 0.025696
Si Si5 0.000000 0.564157 0.250000
Si Si6 0.030046 0.132565 0.567729
Si Si7 0.000000 0.719193 0.750000
Si Si8 0.000000 0.020728 0.250000
O O1 0.436585 0.107831 0.597139
O O2 0.670572 0.143764 0.673731
O O3 0.488407 0.188415 0.645229
O O4 0.160584 0.149347 0.199854
O O5 0.262572 0.450048 0.483885
O O6 0.737902 0.095748 0.512815
O O7 0.038078 0.148803 0.888931
O O8 0.152701 0.460444 0.807511
O O9 0.500000 0.500000 0.000000
O O10 0.500439 0.418961 0.046260
O O11 0.607908 0.488589 0.272072
O O12 0.750000 0.750000 0.500000
#
# Coordination Sequence:
#
# PCOD9280982 Si02
#       8
#     8   4   4   8   4   8   4   4
#     4  11  23  40  66  93 124 161 203 253 315 388
#     4  11  23  40  54  81 122 162 210 271 328 378
#     4  10  21  38  60  84 121 159 208 272 311 355
#     4  11  22  37  56  79 115 166 220 275 325 368
#     4  10  21  38  53  78 112 155 216 282 332 373
#     4  11  22  38  58  89 121 163 215 262 309 365
#     4  11  24  45  73 106 135 158 188 240 311 395
#     4  12  25  37  54  79 118 170 222 275 324 361
#
# _framework density 20.315297000000001
#
# number of rings (size 3 to 8) (size 9 to 14) (size 15 to 20)
#    0.000    1.091    0.000    9.273    0.000    4.364 
#    0.000   15.455    0.000    0.000    0.000   12.727 
#    0.000    0.000    0.000    0.000    0.000    0.000 
#
# Total GULP energy -122773.173289 kJ/mol
# GULP energy per Si atom -5580.598786 kJ/mol
# Density = 2.026906 g / cm^3
# Si number density = 20.315297 Si / 1000 Ang^3
#
#
#
# Elastic Constant Matrix: (Units=GPa)
#
#
# Indices 1 2 3 4 5 6 
#
# 1 97.6993 18.6041 -15.3305 0.0001 -9.2913 -0.0007
# 2 18.6041 79.0535 11.2881 -0.0003 3.0772 -0.0002
# 3 -15.3305 11.2881 83.9942 -0.0003 5.3577 -0.0010
# 4 0.0001 -0.0003 -0.0003 13.5444 0.0002 4.4236
# 5 -9.2913 3.0772 5.3577 0.0002 46.1011 -0.0002
# 6 -0.0007 -0.0002 -0.0010 4.4236 -0.0002 11.2694
#
#
#
# Elastic Compliance Matrix: (Units=1/GPa)
#
#
# Indices 1 2 3 4 5 6 
#
# 1 0.011410 -0.003109 0.002358 0.000000 0.002233 0.000001
# 2 -0.003109 0.013764 -0.002336 0.000000 -0.001274 0.000000
# 3 0.002358 -0.002336 0.012704 0.000000 -0.000845 0.000001
# 4 0.000000 0.000000 0.000000 0.084688 -0.000001 -0.033243
# 5 0.002233 -0.001274 -0.000845 -0.000001 0.022325 0.000001
# 6 0.000001 0.000000 0.000001 -0.033243 0.000001 0.101785
#
#
# Mechanical properties :
#
#
# Convention : Reuss Voigt Hill
#
# Bulk Modulus (GPa) = 31.54147 32.20781 31.87464
# Shear Modulus (GPa) = 18.98128 30.59535 24.78832
#
# Velocity S-wave (km/s) = 3.06000 3.88496 3.49690
# Velocity P-wave (km/s) = 5.29571 6.00103 5.65937
#
# Compressibility (1/GPa) = 0.03170429
#
# Stress axis : x y z
#
# Youngs Moduli (GPa) = 87.64396 72.65121 78.71672
#
# Poissons Ratio (x) = 0.22585 -0.18560
# Poissons Ratio (y) = 0.27246 0.18388
# Poissons Ratio (z) = -0.20665 0.16971
#
# Static dielectric constant tensor:
#      x y z
#    x 1.828410 0.000000 -0.115910 
#    y 0.000000 1.731450 0.000000 
#    z -0.115910 0.000000 1.866590 
# 
# From -- ./inp_files/8009.got.cif
#   From: 2010.05.17/outbox.cif.g08.bks.cpg/sg15_5_cif.got.tgz:8009.got - 2010.06.03 18:47:42.
