data_PCOD9280012
_publ_section_title
;
Structure prediction by ZEFSAII (Michael W. Deem and Ramdas Pophale) SiO2 
 PCOD9280012
Probable space group: C 2/C
;
_chemical_formula_sum "Si O2"
_cell_formula_units_Z 64
_cell_length_a 12.400028
_cell_length_b 25.292378
_cell_length_c 11.949534
_cell_angle_alpha 90.000000
_cell_angle_beta 110.855917
_cell_angle_gamma 90.000000
_cell_volume 3502.133455
_symmetry_space_group_name_H-M "C 2/C"
_symmetry_group_IT_number 15
_symmetry_cell_setting 'monoclinic'
loop_
_space_group_symop_operation_xyz
x,y,z
-x,y,1/2-z
-x,-y,-z
x,-y,1/2+z
1/2+x,1/2+y,z
1/2-x,1/2+y,1/2-z
1/2-x,1/2-y,-z
1/2+x,1/2-y,1/2+z
loop_
_atom_site_type_symbol
_atom_site_label
_atom_site_fract_x
_atom_site_fract_y
_atom_site_fract_z
Si Si1 0.900699 0.726736 0.447233
Si Si2 0.982793 0.438087 0.002576
Si Si3 0.671530 0.317897 0.527474
Si Si4 0.773120 0.376281 0.996090
Si Si5 0.389162 0.865514 0.268967
Si Si6 0.033384 0.829529 0.891670
Si Si7 0.931846 0.650509 0.112040
Si Si8 0.781382 0.781337 0.188252
O O1 0.819023 0.680841 0.467431
O O2 0.924476 0.772879 0.544417
O O3 0.847608 0.755915 0.318302
O O4 0.014063 0.693693 0.452969
O O5 0.052736 0.410618 0.132172
O O6 0.032950 0.407212 0.915353
O O7 0.000000 0.500000 0.000000
O O8 0.848939 0.420154 0.960783
O O9 0.571592 0.344268 0.563590
O O10 0.794870 0.346859 0.570664
O O11 0.705132 0.264842 0.606100
O O12 0.642119 0.303178 0.387674
O O13 0.636824 0.371741 0.935783
O O14 0.810713 0.384748 0.137852
O O15 0.500000 0.838026 0.250000
O O16 0.305436 0.826747 0.304163
O O17 0.000000 0.823871 0.750000
O O18 0.000000 0.662698 0.250000
#
# Coordination Sequence:
#
# PCOD9280012 Si02
#       8
#     8   8   8   8   8   8   8   8
#     4  11  22  35  57  88 128 174 212 254 304 367
#     4  10  23  43  69  93 113 152 211 283 334 365
#     4  11  24  34  55  84 128 172 210 246 306 383
#     4  10  23  39  58  91 128 160 211 264 315 374
#     4  10  21  36  63  89 126 154 207 262 317 377
#     4  12  26  35  55  87 131 178 212 241 304 386
#     4  11  22  38  56  87 123 156 206 262 311 370
#     4  11  20  36  54  87 129 174 212 252 303 381
#
# _framework density 18.274574999999999
#
# number of rings (size 3 to 8) (size 9 to 14) (size 15 to 20)
#    0.000    1.250    3.750    2.625    7.000    1.500 
#    0.000    0.000    0.000    0.750    0.000    0.000 
#    0.000    0.000    0.000    0.000    0.000    0.000 
#
# Total GULP energy -178606.897128 kJ/mol
# GULP energy per Si atom -5581.465535 kJ/mol
# Density = 1.823298 g / cm^3
# Si number density = 18.274575 Si / 1000 Ang^3
#
#
#
# Elastic Constant Matrix: (Units=GPa)
#
#
# Indices 1 2 3 4 5 6 
#
# 1 138.1163 47.0159 16.7625 0.0000 -2.3388 0.0000
# 2 47.0159 90.5756 7.2197 0.0000 0.3438 0.0000
# 3 16.7625 7.2197 72.9384 0.0000 5.0455 0.0000
# 4 0.0000 0.0000 0.0000 15.2125 0.0000 1.1099
# 5 -2.3388 0.3438 5.0455 0.0000 23.1373 0.0000
# 6 0.0000 0.0000 0.0000 1.1099 0.0000 8.6020
#
#
#
# Elastic Compliance Matrix: (Units=1/GPa)
#
#
# Indices 1 2 3 4 5 6 
#
# 1 0.009021 -0.004551 -0.001716 0.000000 0.001354 0.000000
# 2 -0.004551 0.013424 -0.000241 0.000000 -0.000607 0.000000
# 3 -0.001716 -0.000241 0.014357 0.000000 -0.003301 0.000000
# 4 0.000000 0.000000 0.000000 0.066360 0.000000 -0.008562
# 5 0.001354 -0.000607 -0.003301 0.000000 0.044086 0.000000
# 6 0.000000 0.000000 0.000000 -0.008562 0.000000 0.117356
#
#
# Mechanical properties :
#
#
# Convention : Reuss Voigt Hill
#
# Bulk Modulus (GPa) = 42.04212 49.29182 45.66697
# Shear Modulus (GPa) = 17.51017 24.76584 21.13801
#
# Velocity S-wave (km/s) = 3.09879 3.68531 3.40470
# Velocity P-wave (km/s) = 5.98825 6.71864 6.36393
#
# Compressibility (1/GPa) = 0.02378567
#
# Stress axis : x y z
#
# Youngs Moduli (GPa) = 110.85724 74.49226 69.65334
#
# Poissons Ratio (x) = 0.33900 0.11955
# Poissons Ratio (y) = 0.50448 0.01678
# Poissons Ratio (z) = 0.19026 0.01795
#
# Static dielectric constant tensor:
#      x y z
#    x 1.702900 0.000000 -0.009580 
#    y 0.000000 1.589840 0.000000 
#    z -0.009580 0.000000 1.699890 
# 
# From -- ./inp_files/91288.got.cif
#   From: 2010.05.17/outbox.cif.g08.bks.cpg/sg15_46_cif.got.tgz:91288.got - 2010.06.03 18:47:42.
