data_PCOD9280662
_publ_section_title
;
Structure prediction by ZEFSAII (Michael W. Deem and Ramdas Pophale) SiO2 
 PCOD9280662
Probable space group: C 2/C
;
_chemical_formula_sum "Si O2"
_cell_formula_units_Z 48
_cell_length_a 9.413305
_cell_length_b 9.844958
_cell_length_c 23.010639
_cell_angle_alpha 90.000000
_cell_angle_beta 95.003861
_cell_angle_gamma 90.000000
_cell_volume 2124.351325
_symmetry_space_group_name_H-M "C 2/C"
_symmetry_group_IT_number 15
_symmetry_cell_setting 'monoclinic'
loop_
_space_group_symop_operation_xyz
x,y,z
-x,y,1/2-z
-x,-y,-z
x,-y,1/2+z
1/2+x,1/2+y,z
1/2-x,1/2+y,1/2-z
1/2-x,1/2-y,-z
1/2+x,1/2-y,1/2+z
loop_
_atom_site_type_symbol
_atom_site_label
_atom_site_fract_x
_atom_site_fract_y
_atom_site_fract_z
Si Si1 0.331156 0.154249 0.255247
Si Si2 0.640990 0.202535 0.946074
Si Si3 0.869871 0.632862 0.791255
Si Si4 0.920962 0.997948 0.560327
Si Si5 0.596566 0.012365 0.578546
Si Si6 0.617524 0.708250 0.622874
O O1 0.500000 0.145476 0.250000
O O2 0.231752 0.236393 0.208055
O O3 0.329604 0.244527 0.313082
O O4 0.285160 0.999377 0.263620
O O5 0.571357 0.341072 0.920176
O O6 0.523821 0.095692 0.959364
O O7 0.745372 0.141221 0.902310
O O8 0.750000 0.250000 0.000000
O O9 0.911628 0.581938 0.857166
O O10 0.000000 0.659339 0.750000
O O11 0.752318 0.031338 0.555360
O O12 0.993227 0.101572 0.607595
O O13 0.000000 0.000000 0.500000
O O14 0.577151 0.851622 0.590150
#
# Coordination Sequence:
#
# PCOD9280662 Si02
#       6
#     8   8   8   8   8   8
#     4  10  21  37  62  89 123 155 195 246 298 362
#     4  11  23  42  59  87 119 158 204 250 303 356
#     4  10  21  39  61  93 120 156 199 242 305 364
#     4  11  23  41  59  89 119 157 210 245 300 363
#     4  10  24  40  63  87 124 160 201 254 305 360
#     4  10  22  41  60  88 123 157 200 251 300 363
#
# _framework density 22.595132
#
# number of rings (size 3 to 8) (size 9 to 14) (size 15 to 20)
#    0.000    1.667    1.667    2.000    0.000    6.667 
#    0.000    0.000    0.000    0.000    0.000    0.000 
#    0.000    0.000    0.000    0.000    0.000    0.000 
#
# Total GULP energy -133972.670187 kJ/mol
# GULP energy per Si atom -5582.194591 kJ/mol
# Density = 2.254370 g / cm^3
# Si number density = 22.595132 Si / 1000 Ang^3
#
#
#
# Elastic Constant Matrix: (Units=GPa)
#
#
# Indices 1 2 3 4 5 6 
#
# 1 106.6391 54.1357 -2.2923 0.0000 -9.4870 0.0000
# 2 54.1357 98.9122 -6.8971 0.0000 26.8682 0.0000
# 3 -2.2923 -6.8971 39.0192 0.0000 -7.8720 0.0000
# 4 0.0000 0.0000 0.0000 33.7620 0.0000 8.3476
# 5 -9.4870 26.8682 -7.8720 0.0000 29.9029 0.0000
# 6 0.0000 0.0000 0.0000 8.3476 0.0000 35.5269
#
#
#
# Elastic Compliance Matrix: (Units=1/GPa)
#
#
# Indices 1 2 3 4 5 6 
#
# 1 0.019818 -0.016614 0.002648 0.000000 0.021913 0.000000
# 2 -0.016614 0.027303 -0.002284 0.000000 -0.030405 0.000000
# 3 0.002648 -0.002284 0.027420 0.000000 0.010111 0.000000
# 4 0.000000 0.000000 0.000000 0.031446 0.000000 -0.007389
# 5 0.021913 -0.030405 0.010111 0.000000 0.070374 0.000000
# 6 0.000000 0.000000 0.000000 -0.007389 0.000000 0.029884
#
#
# Mechanical properties :
#
#
# Convention : Reuss Voigt Hill
#
# Bulk Modulus (GPa) = 23.78617 37.16257 30.47437
# Shear Modulus (GPa) = 19.78166 33.14663 26.46415
#
# Velocity S-wave (km/s) = 2.96207 3.83427 3.42604
# Velocity P-wave (km/s) = 4.71682 6.00709 5.40063
#
# Compressibility (1/GPa) = 0.04204124
#
# Stress axis : x y z
#
# Youngs Moduli (GPa) = 50.45859 36.62601 36.46953
#
# Poissons Ratio (x) = 0.60852 -0.09659
# Poissons Ratio (y) = 0.83834 0.08330
# Poissons Ratio (z) = -0.13363 0.08365
#
# Static dielectric constant tensor:
#      x y z
#    x 1.864740 0.000000 0.012860 
#    y 0.000000 1.810410 0.000000 
#    z 0.012860 0.000000 1.922720 
# 
# From -- ./inp_files/306666.got.cif
#   From: 2010.05.17/outbox.cif.g08.bks.cpg/sg15_154_cif.got.tgz:306666.got - 2010.06.03 18:47:42.
