data_PCOD9280562
_publ_section_title
;
Structure prediction by ZEFSAII (Michael W. Deem and Ramdas Pophale) SiO2 
 PCOD9280562
Probable space group: C 2/C
;
_chemical_formula_sum "Si O2"
_cell_formula_units_Z 56
_cell_length_a 23.682573
_cell_length_b 9.895308
_cell_length_c 11.900982
_cell_angle_alpha 90.000000
_cell_angle_beta 72.154006
_cell_angle_gamma 90.000000
_cell_volume 2654.757675
_symmetry_space_group_name_H-M "C 2/C"
_symmetry_group_IT_number 15
_symmetry_cell_setting 'monoclinic'
loop_
_space_group_symop_operation_xyz
x,y,z
-x,y,1/2-z
-x,-y,-z
x,-y,1/2+z
1/2+x,1/2+y,z
1/2-x,1/2+y,1/2-z
1/2-x,1/2-y,-z
1/2+x,1/2-y,1/2+z
loop_
_atom_site_type_symbol
_atom_site_label
_atom_site_fract_x
_atom_site_fract_y
_atom_site_fract_z
Si Si1 0.611815 0.341665 0.141189
Si Si2 0.068854 0.139188 0.182521
Si Si3 0.127540 0.651642 0.807833
Si Si4 0.828168 0.625530 0.238642
Si Si5 0.963285 0.621215 0.435156
Si Si6 0.287509 0.698759 0.084691
Si Si7 0.920678 0.344529 0.508226
O O1 0.583532 0.482890 0.190738
O O2 0.647563 0.260253 0.215062
O O3 0.563619 0.233936 0.127864
O O4 0.656618 0.371941 0.009506
O O5 0.111582 0.227357 0.235417
O O6 0.000000 0.163211 0.250000
O O7 0.077573 0.201571 0.053536
O O8 0.143402 0.513867 0.734192
O O9 0.071331 0.635809 0.924649
O O10 0.182485 0.686788 0.856389
O O11 0.758459 0.620756 0.307420
O O12 0.855074 0.629136 0.096625
O O13 0.945521 0.467249 0.414834
O O14 0.032008 0.647916 0.418225
O O15 0.250000 0.750000 0.000000
#
# Coordination Sequence:
#
# PCOD9280562 Si02
#       7
#     8   8   8   8   8   8   8
#     4  10  23  39  60  88 129 166 207 251 318 371
#     4  12  25  39  57  95 135 169 202 257 317 378
#     4  10  21  41  66  89 124 166 207 259 310 367
#     4  10  22  40  66  93 116 167 213 261 304 376
#     4   9  19  39  60  86 116 165 204 260 302 367
#     4   9  21  43  65  90 122 159 207 262 312 367
#     4  10  21  37  61  88 122 156 217 252 307 364
#
# _framework density 21.094203
#
# number of rings (size 3 to 8) (size 9 to 14) (size 15 to 20)
#    0.000    2.000    1.429    0.857    2.000    7.429 
#    0.000    1.429    0.000    0.000    0.000    0.000 
#    0.000    0.000    0.000    0.000    0.000    0.000 
#
# Total GULP energy -156143.149962 kJ/mol
# GULP energy per Si atom -5576.541070 kJ/mol
# Density = 2.104619 g / cm^3
# Si number density = 21.094203 Si / 1000 Ang^3
#
#
#
# Elastic Constant Matrix: (Units=GPa)
#
#
# Indices 1 2 3 4 5 6 
#
# 1 79.4895 20.4100 24.1015 0.0000 -2.6176 0.0000
# 2 20.4100 117.0037 13.9203 0.0000 5.7806 0.0000
# 3 24.1015 13.9203 44.5905 0.0000 -14.8844 0.0000
# 4 0.0000 0.0000 0.0000 29.3873 0.0000 0.1258
# 5 -2.6176 5.7806 -14.8844 0.0000 29.8538 0.0000
# 6 0.0000 0.0000 0.0000 0.1258 0.0000 28.1683
#
#
#
# Elastic Compliance Matrix: (Units=1/GPa)
#
#
# Indices 1 2 3 4 5 6 
#
# 1 0.015567 -0.001525 -0.008858 0.000000 -0.002756 0.000000
# 2 -0.001525 0.009384 -0.003306 0.000000 -0.003599 0.000000
# 3 -0.008858 -0.003306 0.033831 0.000000 0.016731 0.000000
# 4 0.000000 0.000000 0.000000 0.034029 0.000000 -0.000152
# 5 -0.002756 -0.003599 0.016731 0.000000 0.042293 0.000000
# 6 0.000000 0.000000 0.000000 -0.000152 0.000000 0.035502
#
#
# Mechanical properties :
#
#
# Convention : Reuss Voigt Hill
#
# Bulk Modulus (GPa) = 31.84452 39.77191 35.80822
# Shear Modulus (GPa) = 23.98625 29.65868 26.82246
#
# Velocity S-wave (km/s) = 3.37575 3.75375 3.56976
# Velocity P-wave (km/s) = 5.50667 6.13864 5.83122
#
# Compressibility (1/GPa) = 0.03140257
#
# Stress axis : x y z
#
# Youngs Moduli (GPa) = 64.23875 106.56393 29.55873
#
# Poissons Ratio (x) = 0.16256 0.26182
# Poissons Ratio (y) = 0.09799 0.09773
# Poissons Ratio (z) = 0.56901 0.35235
#
# Static dielectric constant tensor:
#      x y z
#    x 1.770080 0.000000 0.000370 
#    y 0.000000 1.757930 0.000000 
#    z 0.000370 0.000000 1.798490 
# 
# From -- ./inp_files/121902.got.cif
#   From: 2010.05.17/outbox.cif.g08.bks.cpg/sg15_61_cif.got.tgz:121902.got - 2010.06.03 18:47:42.
