data_PCOD9280798
_publ_section_title
;
Structure prediction by ZEFSAII (Michael W. Deem and Ramdas Pophale) SiO2 
 PCOD9280798
Probable space group: C 2/C
;
_chemical_formula_sum "Si O2"
_cell_formula_units_Z 44
_cell_length_a 24.158049
_cell_length_b 8.544842
_cell_length_c 29.521598
_cell_angle_alpha 90.000000
_cell_angle_beta 20.739776
_cell_angle_gamma 90.000000
_cell_volume 2158.049090
_symmetry_space_group_name_H-M "C 2/C"
_symmetry_group_IT_number 15
_symmetry_cell_setting 'monoclinic'
loop_
_space_group_symop_operation_xyz
x,y,z
-x,y,1/2-z
-x,-y,-z
x,-y,1/2+z
1/2+x,1/2+y,z
1/2-x,1/2+y,1/2-z
1/2-x,1/2-y,-z
1/2+x,1/2-y,1/2+z
loop_
_atom_site_type_symbol
_atom_site_label
_atom_site_fract_x
_atom_site_fract_y
_atom_site_fract_z
Si Si1 0.559441 0.526302 0.752437
Si Si2 0.466839 0.462654 0.576942
Si Si3 0.661390 0.868941 0.336520
Si Si4 0.000000 0.664557 0.250000
Si Si5 0.395738 0.898387 0.012837
Si Si6 0.660833 0.577931 0.498333
O O1 0.500000 0.458461 0.750000
O O2 0.534634 0.714794 0.764332
O O3 0.742037 0.497604 0.619646
O O4 0.452647 0.501481 0.877536
O O5 0.500000 0.500000 0.500000
O O6 0.388060 0.296536 0.645501
O O7 0.341089 0.588042 0.691383
O O8 0.630890 0.476119 0.476877
O O9 0.628975 0.852738 0.415292
O O10 0.554265 0.001374 0.394372
O O11 0.837573 0.577392 0.380856
O O12 0.384275 0.754374 0.985572
#
# Coordination Sequence:
#
# PCOD9280798 Si02
#       6
#     8   8   8   4   8   8
#     4   9  19  34  60  89 114 157 205 255 300 349
#     4  12  25  39  62  92 128 164 205 247 313 368
#     4  11  24  40  60  93 125 164 200 250 307 377
#     4   8  20  30  56  88 112 152 200 254 300 340
#     4  10  21  37  64  85 124 159 200 254 310 355
#     4  11  19  38  60  90 121 154 209 258 297 364
#
# _framework density 20.388784999999999
#
# number of rings (size 3 to 8) (size 9 to 14) (size 15 to 20)
#    0.545    1.091    3.636    1.636    2.545    0.000 
#    0.000    0.000    2.000    1.091    0.000    0.000 
#    0.000    0.000    0.000    0.000    0.000    0.000 
#
# Total GULP energy -122518.603121 kJ/mol
# GULP energy per Si atom -5569.027415 kJ/mol
# Density = 2.034238 g / cm^3
# Si number density = 20.388785 Si / 1000 Ang^3
#
#
#
# Elastic Constant Matrix: (Units=GPa)
#
#
# Indices 1 2 3 4 5 6 
#
# 1 75.1617 -9.2045 17.5550 0.0019 -5.7010 0.0020
# 2 -9.2045 41.3294 -0.0234 -0.0103 -2.1824 -0.0004
# 3 17.5550 -0.0234 78.5557 -0.0304 -17.7508 -0.0022
# 4 0.0019 -0.0103 -0.0304 7.8892 0.0013 -4.8419
# 5 -5.7010 -2.1824 -17.7508 0.0013 44.0359 0.0009
# 6 0.0020 -0.0004 -0.0022 -4.8419 0.0009 19.2380
#
#
#
# Elastic Compliance Matrix: (Units=1/GPa)
#
#
# Indices 1 2 3 4 5 6 
#
# 1 0.014479 0.003265 -0.003053 -0.000014 0.000806 -0.000005
# 2 0.003265 0.025003 -0.000381 0.000036 0.001508 0.000009
# 3 -0.003053 -0.000381 0.014653 0.000067 0.005492 0.000019
# 4 -0.000014 0.000036 0.000067 0.149913 0.000022 0.037731
# 5 0.000806 0.001508 0.005492 0.000022 0.025102 0.000005
# 6 -0.000005 0.000009 0.000019 0.037731 0.000005 0.061477
#
#
# Mechanical properties :
#
#
# Convention : Reuss Voigt Hill
#
# Bulk Modulus (GPa) = 18.58844 23.52233 21.05538
# Shear Modulus (GPa) = 16.18669 26.68059 21.43364
#
# Velocity S-wave (km/s) = 2.82068 3.62137 3.24581
# Velocity P-wave (km/s) = 4.44355 5.38959 4.93927
#
# Compressibility (1/GPa) = 0.05379687
#
# Stress axis : x y z
#
# Youngs Moduli (GPa) = 69.06737 39.99599 68.24542
#
# Poissons Ratio (x) = -0.13060 0.20832
# Poissons Ratio (y) = -0.22553 0.02603
# Poissons Ratio (z) = 0.21083 0.01526
#
# Static dielectric constant tensor:
#      x y z
#    x 1.722200 0.000000 -0.002750 
#    y 0.000000 1.763790 0.000000 
#    z -0.002750 0.000000 1.726320 
# 
# From -- ./inp_files/116213.got.cif
#   From: 2010.05.17/outbox.cif.g08.bks.cpg/sg15_59_cif.got.tgz:116213.got - 2010.06.03 18:47:42.
