data_PCOD9280249
_publ_section_title
;
Structure prediction by ZEFSAII (Michael W. Deem and Ramdas Pophale) SiO2 
 PCOD9280249
Probable space group: C 2/C
;
_chemical_formula_sum "Si O2"
_cell_formula_units_Z 32
_cell_length_a 4.876707
_cell_length_b 24.283116
_cell_length_c 13.729694
_cell_angle_alpha 90.000000
_cell_angle_beta 72.738231
_cell_angle_gamma 90.000000
_cell_volume 1552.661082
_symmetry_space_group_name_H-M "C 2/C"
_symmetry_group_IT_number 15
_symmetry_cell_setting 'monoclinic'
loop_
_space_group_symop_operation_xyz
x,y,z
-x,y,1/2-z
-x,-y,-z
x,-y,1/2+z
1/2+x,1/2+y,z
1/2-x,1/2+y,1/2-z
1/2-x,1/2-y,-z
1/2+x,1/2-y,1/2+z
loop_
_atom_site_type_symbol
_atom_site_label
_atom_site_fract_x
_atom_site_fract_y
_atom_site_fract_z
Si Si1 0.807399 0.049917 0.979503
Si Si2 0.676279 0.810379 0.972456
Si Si3 0.397571 0.094300 0.871073
Si Si4 0.288861 0.144005 0.363676
O O1 0.560591 0.048361 0.922366
O O2 0.057499 0.085518 0.903040
O O3 0.692281 0.085475 0.082302
O O4 0.000000 0.000000 0.000000
O O5 0.423045 0.810732 0.921300
O O6 0.952942 0.840123 0.891985
O O7 0.750000 0.750000 0.000000
O O8 0.571753 0.848974 0.072437
O O9 0.500000 0.094179 0.750000
O O10 0.500000 0.142041 0.250000
#
# Coordination Sequence:
#
# PCOD9280249 Si02
#       4
#     8   8   8   8
#     4  10  21  38  58  82 114 150 192 241 290 345
#     4  10  21  38  58  85 118 152 192 238 289 350
#     4  10  21  37  57  84 116 150 192 240 289 346
#     4  10  21  37  58  85 116 150 193 241 289 347
#
# _framework density 20.609780000000001
#
# number of rings (size 3 to 8) (size 9 to 14) (size 15 to 20)
#    0.000    2.000    0.000    3.000    0.000    3.000 
#    0.000    7.500    0.000    0.000    0.000    0.000 
#    0.000    0.000    0.000    0.000    0.000    0.000 
#
# Total GULP energy -89173.247858 kJ/mol
# GULP energy per Si atom -5573.327991 kJ/mol
# Density = 2.056287 g / cm^3
# Si number density = 20.609780 Si / 1000 Ang^3
#
#
#
# Elastic Constant Matrix: (Units=GPa)
#
#
# Indices 1 2 3 4 5 6 
#
# 1 108.5786 4.8492 17.8249 0.0000 7.9960 0.0000
# 2 4.8492 77.4215 32.5245 0.0000 4.8232 0.0000
# 3 17.8249 32.5245 127.9024 0.0000 -10.3064 0.0000
# 4 0.0000 0.0000 0.0000 5.2402 0.0000 -1.4628
# 5 7.9960 4.8232 -10.3064 0.0000 20.1150 0.0000
# 6 0.0000 0.0000 0.0000 -1.4628 0.0000 37.1994
#
#
#
# Elastic Compliance Matrix: (Units=1/GPa)
#
#
# Indices 1 2 3 4 5 6 
#
# 1 0.009870 0.000495 -0.001906 0.000000 -0.005019 0.000000
# 2 0.000495 0.015113 -0.004402 0.000000 -0.006076 0.000000
# 3 -0.001906 -0.004402 0.009752 0.000000 0.006810 0.000000
# 4 0.000000 0.000000 0.000000 0.192951 0.000000 0.007587
# 5 -0.005019 -0.006076 0.006810 0.000000 0.056655 0.000000
# 6 0.000000 0.000000 0.000000 0.007587 0.000000 0.027181
#
#
# Mechanical properties :
#
#
# Convention : Reuss Voigt Hill
#
# Bulk Modulus (GPa) = 43.27054 47.14442 45.20748
# Shear Modulus (GPa) = 15.11255 29.75784 22.43520
#
# Velocity S-wave (km/s) = 2.71084 3.80395 3.30293
# Velocity P-wave (km/s) = 5.55328 6.49753 6.04387
#
# Compressibility (1/GPa) = 0.02311041
#
# Stress axis : x y z
#
# Youngs Moduli (GPa) = 101.31426 66.16840 102.54180
#
# Poissons Ratio (x) = -0.03276 0.19543
# Poissons Ratio (y) = -0.05016 0.45136
# Poissons Ratio (z) = 0.19309 0.29125
#
# Static dielectric constant tensor:
#      x y z
#    x 1.743040 0.000000 0.021050 
#    y 0.000000 3.333430 0.000000 
#    z 0.021050 0.000000 1.728650 
# 
# From -- ./inp_files/71886.got.cif
#   From: 2010.05.17/outbox.cif.g08.bks.cpg/sg15_36_cif.got.tgz:71886.got - 2010.06.03 18:47:42.
