data_PCOD9280416
_publ_section_title
;
Structure prediction by ZEFSAII (Michael W. Deem and Ramdas Pophale) SiO2 
 PCOD9280416
Probable space group: C 2/C
;
_chemical_formula_sum "Si O2"
_cell_formula_units_Z 40
_cell_length_a 12.902618
_cell_length_b 14.760008
_cell_length_c 10.366074
_cell_angle_alpha 90.000000
_cell_angle_beta 106.885911
_cell_angle_gamma 90.000000
_cell_volume 1889.028462
_symmetry_space_group_name_H-M "C 2/C"
_symmetry_group_IT_number 15
_symmetry_cell_setting 'monoclinic'
loop_
_space_group_symop_operation_xyz
x,y,z
-x,y,1/2-z
-x,-y,-z
x,-y,1/2+z
1/2+x,1/2+y,z
1/2-x,1/2+y,1/2-z
1/2-x,1/2-y,-z
1/2+x,1/2-y,1/2+z
loop_
_atom_site_type_symbol
_atom_site_label
_atom_site_fract_x
_atom_site_fract_y
_atom_site_fract_z
Si Si1 0.823609 0.625999 0.436666
Si Si2 0.469709 0.652353 0.587176
Si Si3 0.451621 0.139928 0.089308
Si Si4 0.264794 0.438657 0.080989
Si Si5 0.207378 0.825671 0.150702
O O1 0.750071 0.540542 0.374620
O O2 0.800498 0.716640 0.345444
O O3 0.793143 0.649687 0.572487
O O4 0.950564 0.606485 0.465788
O O5 0.500000 0.648530 0.750000
O O6 0.429599 0.754585 0.547269
O O7 0.372610 0.581752 0.537512
O O8 0.586615 0.641842 0.563065
O O9 0.500000 0.136156 0.250000
O O10 0.342361 0.084178 0.038031
O O11 0.266523 0.371735 0.204495
#
# Coordination Sequence:
#
# PCOD9280416 Si02
#       5
#     8   8   8   8   8
#     4  10  22  39  61  88 125 163 197 261 307 351
#     4   8  17  36  59  85 121 156 195 250 300 358
#     4  10  21  37  59  91 123 156 206 254 297 362
#     4  11  21  36  66  90 116 167 207 240 311 371
#     4   9  21  42  60  85 131 156 200 258 308 361
#
# _framework density 21.174907000000001
#
# number of rings (size 3 to 8) (size 9 to 14) (size 15 to 20)
#    0.000    2.400    0.000    2.400    2.800    1.600 
#    0.000    0.000   17.600    0.000    0.000    0.000 
#    0.000    0.000    0.000    0.000    0.000    0.000 
#
# Total GULP energy -111638.040106 kJ/mol
# GULP energy per Si atom -5581.902005 kJ/mol
# Density = 2.112671 g / cm^3
# Si number density = 21.174907 Si / 1000 Ang^3
#
#
#
# Elastic Constant Matrix: (Units=GPa)
#
#
# Indices 1 2 3 4 5 6 
#
# 1 149.1512 47.5811 14.0118 0.0000 5.0192 0.0000
# 2 47.5811 113.1628 23.9023 0.0000 18.4342 0.0000
# 3 14.0118 23.9023 38.7797 0.0000 6.9464 0.0000
# 4 0.0000 0.0000 0.0000 14.1660 0.0000 -1.0697
# 5 5.0192 18.4342 6.9464 0.0000 20.0423 0.0000
# 6 0.0000 0.0000 0.0000 -1.0697 0.0000 33.0656
#
#
#
# Elastic Compliance Matrix: (Units=1/GPa)
#
#
# Indices 1 2 3 4 5 6 
#
# 1 0.007806 -0.003295 -0.001047 0.000000 0.001439 0.000000
# 2 -0.003295 0.012784 -0.005044 0.000000 -0.009185 0.000000
# 3 -0.001047 -0.005044 0.030275 0.000000 -0.005592 0.000000
# 4 0.000000 0.000000 0.000000 0.070764 0.000000 0.002289
# 5 0.001439 -0.009185 -0.005592 0.000000 0.059920 0.000000
# 6 0.000000 0.000000 0.000000 0.002289 0.000000 0.030317
#
#
# Mechanical properties :
#
#
# Convention : Reuss Voigt Hill
#
# Bulk Modulus (GPa) = 31.15935 52.45379 41.80657
# Shear Modulus (GPa) = 20.71799 27.82802 24.27301
#
# Velocity S-wave (km/s) = 3.13137 3.62912 3.38939
# Velocity P-wave (km/s) = 5.27457 6.51046 5.92483
#
# Compressibility (1/GPa) = 0.03209310
#
# Stress axis : x y z
#
# Youngs Moduli (GPa) = 128.10992 78.22314 33.03021
#
# Poissons Ratio (x) = 0.25777 0.03458
# Poissons Ratio (y) = 0.42217 0.16659
# Poissons Ratio (z) = 0.13413 0.39453
#
# Static dielectric constant tensor:
#      x y z
#    x 1.795480 0.000000 -0.004110 
#    y 0.000000 1.797150 0.000000 
#    z -0.004110 0.000000 1.728740 
# 
# From -- ./inp_files/85509.got.cif
#   From: 2010.05.17/outbox.cif.g08.bks.cpg/sg15_43_cif.got.tgz:85509.got - 2010.06.03 18:47:42.
