data_PCOD9280952
_publ_section_title
;
Structure prediction by ZEFSAII (Michael W. Deem and Ramdas Pophale) SiO2 
 PCOD9280952
Probable space group: C 2/C
;
_chemical_formula_sum "Si O2"
_cell_formula_units_Z 36
_cell_length_a 11.898237
_cell_length_b 6.607938
_cell_length_c 17.889216
_cell_angle_alpha 90.000000
_cell_angle_beta 66.387332
_cell_angle_gamma 90.000000
_cell_volume 1288.740083
_symmetry_space_group_name_H-M "C 2/C"
_symmetry_group_IT_number 15
_symmetry_cell_setting 'monoclinic'
loop_
_space_group_symop_operation_xyz
x,y,z
-x,y,1/2-z
-x,-y,-z
x,-y,1/2+z
1/2+x,1/2+y,z
1/2-x,1/2+y,1/2-z
1/2-x,1/2-y,-z
1/2+x,1/2-y,1/2+z
loop_
_atom_site_type_symbol
_atom_site_label
_atom_site_fract_x
_atom_site_fract_y
_atom_site_fract_z
Si Si1 0.066377 0.355773 0.821027
Si Si2 0.060988 0.273191 0.428640
Si Si3 0.244068 0.544011 0.665172
Si Si4 0.250000 0.250000 0.000000
Si Si5 0.618020 0.568841 0.569563
O O1 0.045972 0.512358 0.894482
O O2 0.118034 0.487793 0.738553
O O3 0.180930 0.215423 0.812343
O O4 0.953988 0.191343 0.847939
O O5 0.086563 0.201973 0.506115
O O6 0.165833 0.148834 0.358150
O O7 0.929675 0.158606 0.444760
O O8 0.232876 0.616524 0.583204
O O9 0.250521 0.020561 0.049953
#
# Coordination Sequence:
#
# PCOD9280952 Si02
#       5
#     8   8   8   4   8
#     4  11  19  37  69  96 121 181 235 286 325 432
#     4   9  18  37  62  95 124 169 224 283 332 423
#     4  10  21  37  68  94 132 172 236 280 351 400
#     4  10  22  44  60  96 144 182 206 298 356 414
#     4   9  20  36  64  93 131 174 225 273 355 409
#
# _framework density 27.934258
#
# number of rings (size 3 to 8) (size 9 to 14) (size 15 to 20)
#    0.000    2.222    2.222    2.000    0.000    0.000 
#    0.000   11.111    4.889    2.667    0.000    0.000 
#    0.000    0.000    0.000    0.000    0.000    0.000 
#
# Total GULP energy -100302.343007 kJ/mol
# GULP energy per Si atom -5572.352389 kJ/mol
# Density = 2.787068 g / cm^3
# Si number density = 27.934258 Si / 1000 Ang^3
#
#
#
# Elastic Constant Matrix: (Units=GPa)
#
#
# Indices 1 2 3 4 5 6 
#
# 1 82.4424 54.2561 29.7071 0.0000 -20.5044 0.0000
# 2 54.2561 219.0204 89.5676 0.0000 -24.2056 0.0000
# 3 29.7071 89.5676 153.4763 0.0000 -16.9173 0.0000
# 4 0.0000 0.0000 0.0000 37.8326 0.0000 -7.0937
# 5 -20.5044 -24.2056 -16.9173 0.0000 18.6854 0.0000
# 6 0.0000 0.0000 0.0000 -7.0937 0.0000 34.6821
#
#
#
# Elastic Compliance Matrix: (Units=1/GPa)
#
#
# Indices 1 2 3 4 5 6 
#
# 1 0.017907 -0.002577 -0.000182 0.000000 0.016147 0.000000
# 2 -0.002577 0.006842 -0.003142 0.000000 0.003190 0.000000
# 3 -0.000182 -0.003142 0.008791 0.000000 0.003689 0.000000
# 4 0.000000 0.000000 0.000000 0.027486 0.000000 0.005622
# 5 0.016147 0.003190 0.003689 0.000000 0.078709 0.000000
# 6 0.000000 0.000000 0.000000 0.005622 0.000000 0.029983
#
#
# Mechanical properties :
#
#
# Convention : Reuss Voigt Hill
#
# Bulk Modulus (GPa) = 46.00438 89.11118 67.55778
# Shear Modulus (GPa) = 26.48756 37.00059 31.74408
#
# Velocity S-wave (km/s) = 3.08264 3.64340 3.37469
# Velocity P-wave (km/s) = 5.40137 7.04760 6.27868
#
# Compressibility (1/GPa) = 0.02173706
#
# Stress axis : x y z
#
# Youngs Moduli (GPa) = 55.84331 146.16105 113.74722
#
# Poissons Ratio (x) = 0.37664 0.02075
# Poissons Ratio (y) = 0.14390 0.35744
# Poissons Ratio (z) = 0.01019 0.45929
#
# Static dielectric constant tensor:
#      x y z
#    x 0.810700 0.000000 0.302530 
#    y 0.000000 2.263190 0.000000 
#    z 0.302530 0.000000 2.284660 
# 
# From -- ./inp_files/246170.got.cif
#   From: 2010.05.17/outbox.cif.g08.bks.cpg/sg15_124_cif.got.tgz:246170.got - 2010.06.03 18:47:42.
