data_PCOD9280703
_publ_section_title
;
Structure prediction by ZEFSAII (Michael W. Deem and Ramdas Pophale) SiO2 
 PCOD9280703
Probable space group: C 2/C
;
_chemical_formula_sum "Si O2"
_cell_formula_units_Z 40
_cell_length_a 14.003642
_cell_length_b 14.351388
_cell_length_c 17.116832
_cell_angle_alpha 90.000000
_cell_angle_beta 150.084987
_cell_angle_gamma 90.000000
_cell_volume 1715.578573
_symmetry_space_group_name_H-M "C 2/C"
_symmetry_group_IT_number 15
_symmetry_cell_setting 'monoclinic'
loop_
_space_group_symop_operation_xyz
x,y,z
-x,y,1/2-z
-x,-y,-z
x,-y,1/2+z
1/2+x,1/2+y,z
1/2-x,1/2+y,1/2-z
1/2-x,1/2-y,-z
1/2+x,1/2-y,1/2+z
loop_
_atom_site_type_symbol
_atom_site_label
_atom_site_fract_x
_atom_site_fract_y
_atom_site_fract_z
Si Si1 0.802397 0.691205 0.925899
Si Si2 0.548718 0.195744 0.867455
Si Si3 0.210747 0.389226 0.908707
Si Si4 0.435812 0.477651 0.294814
Si Si5 0.202060 0.345016 0.637497
O O1 0.737013 0.797803 0.874318
O O2 0.675964 0.620535 0.785173
O O3 0.768899 0.652211 0.989268
O O4 0.024839 0.684945 0.064166
O O5 0.500000 0.149226 0.750000
O O6 0.372116 0.267907 0.756239
O O7 0.750000 0.250000 0.000000
O O8 0.598642 0.138070 0.979823
O O9 0.000000 0.427315 0.750000
O O10 0.376343 0.464474 0.020009
O O11 0.500000 0.500699 0.250000
O O12 0.301238 0.558776 0.229896
#
# Coordination Sequence:
#
# PCOD9280703 Si02
#       5
#     8   8   8   8   8
#     4  10  21  37  62  95 127 168 214 262 320 389
#     4   9  20  39  60  88 126 170 210 259 324 391
#     4  10  21  39  64  91 132 168 214 260 329 378
#     4  10  21  40  63  89 129 175 208 266 327 384
#     4  11  22  38  65  94 127 168 222 261 321 382
#
# _framework density 23.315750000000001
#
# number of rings (size 3 to 8) (size 9 to 14) (size 15 to 20)
#    0.000    2.000    0.000    5.400    5.600    0.000 
#    0.000   16.000    0.000    0.000    0.000    4.200 
#    0.000    0.000    0.000    0.000    0.000    0.000 
#
# Total GULP energy -111817.279474 kJ/mol
# GULP energy per Si atom -5590.863974 kJ/mol
# Density = 2.326268 g / cm^3
# Si number density = 23.315750 Si / 1000 Ang^3
#
#
#
# Elastic Constant Matrix: (Units=GPa)
#
#
# Indices 1 2 3 4 5 6 
#
# 1 54.1918 18.8969 20.9701 0.0033 34.4846 -0.0002
# 2 18.8969 83.0736 61.6405 -0.0019 15.6892 -0.0030
# 3 20.9701 61.6405 171.9140 0.0117 29.3474 0.0041
# 4 0.0033 -0.0019 0.0117 25.9901 0.0014 -2.3967
# 5 34.4846 15.6892 29.3474 0.0014 46.1916 -0.0006
# 6 -0.0002 -0.0030 0.0041 -2.3967 -0.0006 -15.8836
#
#
#
# Elastic Compliance Matrix: (Units=1/GPa)
#
#
# Indices 1 2 3 4 5 6 
#
# 1 0.036352 -0.004520 0.001747 -0.000004 -0.026713 0.000002
# 2 -0.004520 0.017139 -0.005806 0.000004 0.001242 -0.000005
# 3 0.001747 -0.005806 0.008493 -0.000004 -0.004728 0.000004
# 4 -0.000004 0.000004 -0.000004 0.037948 0.000003 -0.005726
# 5 -0.026713 0.001242 -0.004728 0.000003 0.044174 -0.000003
# 6 0.000002 -0.000005 0.000004 -0.005726 -0.000003 -0.062094
#
#
# Mechanical properties :
#
#
# Convention : Reuss Voigt Hill
#
# Bulk Modulus (GPa) = 22.30881 56.91049 39.60965
# Shear Modulus (GPa) = 43.81631 25.10439 34.46035
#
# Velocity S-wave (km/s) = 4.33974 3.28489 3.84863
# Velocity P-wave (km/s) = 5.89068 6.23289 6.06420
#
# Compressibility (1/GPa) = 0.04482533
#
# Stress axis : x y z
#
# Youngs Moduli (GPa) = 27.50863 58.34573 117.74918
#
# Poissons Ratio (x) = 0.26373 -0.20567
# Poissons Ratio (y) = 0.12434 0.68365
# Poissons Ratio (z) = -0.04805 0.33875
#
# Static dielectric constant tensor:
#      x y z
#    x 1.939060 0.000000 -0.039880 
#    y 0.000000 1.849410 0.000000 
#    z -0.039880 0.000000 1.871180 
# 
# From -- ./inp_files/205815.got.cif
#   From: 2010.05.17/outbox.cif.g08.bks.cpg/sg15_103_cif.got.tgz:205815.got - 2010.06.03 18:47:42.
