data_PCOD9280503
_publ_section_title
;
Structure prediction by ZEFSAII (Michael W. Deem and Ramdas Pophale) SiO2 
 PCOD9280503
Probable space group: C 2/C
;
_chemical_formula_sum "Si O2"
_cell_formula_units_Z 48
_cell_length_a 8.031680
_cell_length_b 29.595049
_cell_length_c 10.033536
_cell_angle_alpha 90.000000
_cell_angle_beta 102.023581
_cell_angle_gamma 90.000000
_cell_volume 2332.629891
_symmetry_space_group_name_H-M "C 2/C"
_symmetry_group_IT_number 15
_symmetry_cell_setting 'monoclinic'
loop_
_space_group_symop_operation_xyz
x,y,z
-x,y,1/2-z
-x,-y,-z
x,-y,1/2+z
1/2+x,1/2+y,z
1/2-x,1/2+y,1/2-z
1/2-x,1/2-y,-z
1/2+x,1/2-y,1/2+z
loop_
_atom_site_type_symbol
_atom_site_label
_atom_site_fract_x
_atom_site_fract_y
_atom_site_fract_z
Si Si1 0.328860 0.765219 0.800487
Si Si2 0.585766 0.336010 0.628656
Si Si3 0.240879 0.089028 0.671783
Si Si4 0.886230 0.507149 0.110549
Si Si5 0.339645 0.414959 0.037526
Si Si6 0.274152 0.183802 0.556737
O O1 0.500000 0.754099 0.750000
O O2 0.206911 0.795615 0.690303
O O3 0.225395 0.720841 0.827367
O O4 0.363058 0.795009 0.940844
O O5 0.500000 0.355206 0.750000
O O6 0.688770 0.373505 0.566514
O O7 0.426254 0.318994 0.516438
O O8 0.243546 0.093217 0.832073
O O9 0.317951 0.133464 0.613173
O O10 0.042817 0.084360 0.595594
O O11 0.325195 0.042072 0.646063
O O12 0.000000 0.526834 0.250000
O O13 0.733308 0.540024 0.042249
O O14 0.000000 0.500000 0.000000
#
# Coordination Sequence:
#
# PCOD9280503 Si02
#       6
#     8   8   8   8   8   8
#     4  10  21  37  60  93 122 162 204 256 316 361
#     4   9  20  39  61  89 121 160 210 254 305 361
#     4  10  22  44  65  92 120 168 219 249 309 379
#     4  12  25  43  63  94 133 160 200 267 329 377
#     4  10  22  41  68  90 120 170 214 255 303 379
#     4   9  21  41  61  86 127 160 209 260 295 372
#
# _framework density 20.577631
#
# number of rings (size 3 to 8) (size 9 to 14) (size 15 to 20)
#    0.000    2.000    1.667    0.500    4.667    6.667 
#    3.000    2.500    0.000    0.000    0.000    0.000 
#    0.000    0.000    0.000    0.000    0.000    0.000 
#
# Total GULP energy -134085.965206 kJ/mol
# GULP energy per Si atom -5586.915217 kJ/mol
# Density = 2.053080 g / cm^3
# Si number density = 20.577631 Si / 1000 Ang^3
#
#
#
# Elastic Constant Matrix: (Units=GPa)
#
#
# Indices 1 2 3 4 5 6 
#
# 1 35.2791 14.1995 20.9889 0.0000 -5.1854 0.0000
# 2 14.1995 116.9546 38.7904 0.0000 9.1495 0.0000
# 3 20.9889 38.7904 74.9564 0.0000 9.0018 0.0000
# 4 0.0000 0.0000 0.0000 40.9051 0.0000 -3.6826
# 5 -5.1854 9.1495 9.0018 0.0000 20.8068 0.0000
# 6 0.0000 0.0000 0.0000 -3.6826 0.0000 13.8746
#
#
#
# Elastic Compliance Matrix: (Units=1/GPa)
#
#
# Indices 1 2 3 4 5 6 
#
# 1 0.038283 -0.002034 -0.011519 0.000000 0.015419 0.000000
# 2 -0.002034 0.010540 -0.004502 0.000000 -0.003194 0.000000
# 3 -0.011519 -0.004502 0.020045 0.000000 -0.009563 0.000000
# 4 0.000000 0.000000 0.000000 0.025045 0.000000 0.006648
# 5 0.015419 -0.003194 -0.009563 0.000000 0.057446 0.000000
# 6 0.000000 0.000000 0.000000 0.006648 0.000000 0.073839
#
#
# Mechanical properties :
#
#
# Convention : Reuss Voigt Hill
#
# Bulk Modulus (GPa) = 30.52551 41.68308 36.10429
# Shear Modulus (GPa) = 18.36707 25.33139 21.84923
#
# Velocity S-wave (km/s) = 2.99084 3.51239 3.26205
# Velocity P-wave (km/s) = 5.17623 6.06215 5.63662
#
# Compressibility (1/GPa) = 0.03275949
#
# Stress axis : x y z
#
# Youngs Moduli (GPa) = 26.12102 94.87525 49.88853
#
# Poissons Ratio (x) = 0.19294 0.57467
# Poissons Ratio (y) = 0.05312 0.22458
# Poissons Ratio (z) = 0.30089 0.42709
#
# Static dielectric constant tensor:
#      x y z
#    x 1.723510 0.000000 0.023280 
#    y 0.000000 1.718520 0.000000 
#    z 0.023280 0.000000 1.751020 
# 
# From -- ./inp_files/26116.got.cif
#   From: 2010.05.17/outbox.cif.g08.bks.cpg/sg15_14_cif.got.tgz:26116.got - 2010.06.03 18:47:42.
