data_PCOD9280054
_publ_section_title
;
Structure prediction by ZEFSAII (Michael W. Deem and Ramdas Pophale) SiO2 
 PCOD9280054
Probable space group: C 2/C
;
_chemical_formula_sum "Si O2"
_cell_formula_units_Z 48
_cell_length_a 8.233938
_cell_length_b 15.787318
_cell_length_c 18.589630
_cell_angle_alpha 90.000000
_cell_angle_beta 76.710209
_cell_angle_gamma 90.000000
_cell_volume 2351.785198
_symmetry_space_group_name_H-M "C 2/C"
_symmetry_group_IT_number 15
_symmetry_cell_setting 'monoclinic'
loop_
_space_group_symop_operation_xyz
x,y,z
-x,y,1/2-z
-x,-y,-z
x,-y,1/2+z
1/2+x,1/2+y,z
1/2-x,1/2+y,1/2-z
1/2-x,1/2-y,-z
1/2+x,1/2-y,1/2+z
loop_
_atom_site_type_symbol
_atom_site_label
_atom_site_fract_x
_atom_site_fract_y
_atom_site_fract_z
Si Si1 0.136671 0.552022 0.030938
Si Si2 0.000000 0.990110 0.750000
Si Si3 0.044737 0.705333 0.129662
Si Si4 0.249837 0.657964 0.244692
Si Si5 0.026235 0.556629 0.668630
Si Si6 0.500000 0.209439 0.750000
Si Si7 0.825432 0.898784 0.379669
O O1 0.075984 0.646910 0.057202
O O2 0.139289 0.497230 0.103770
O O3 0.292635 0.563628 0.962350
O O4 0.000000 0.500000 0.000000
O O5 0.157130 0.928479 0.746427
O O6 0.037705 0.049272 0.678516
O O7 0.142921 0.659293 0.184215
O O8 0.113667 0.801235 0.120340
O O9 0.855900 0.692805 0.176759
O O10 0.388032 0.729080 0.215500
O O11 0.101043 0.645788 0.688207
O O12 0.849604 0.583303 0.647562
O O13 0.000000 0.513181 0.750000
#
# Coordination Sequence:
#
# PCOD9280054 Si02
#       7
#     8   4   8   8   8   4   8
#     4  10  22  37  60  93 127 161 203 256 304 357
#     4  11  24  40  61  92 128 154 203 256 314 357
#     4  11  21  39  64  92 118 164 212 243 306 365
#     4  10  21  36  64  92 118 160 207 255 299 367
#     4   9  19  35  63  90 122 160 206 248 311 368
#     4   9  18  36  59  92 124 154 203 258 304 361
#     4  11  22  39  62  89 124 162 202 259 304 364
#
# _framework density 20.410026999999999
#
# number of rings (size 3 to 8) (size 9 to 14) (size 15 to 20)
#    0.500    1.333    1.667    3.500    4.667    0.000 
#    0.000    0.833    3.667    4.000    0.000    0.000 
#    0.000    0.000    0.000    0.000    0.000    0.000 
#
# Total GULP energy -133649.822768 kJ/mol
# GULP energy per Si atom -5568.742615 kJ/mol
# Density = 2.036357 g / cm^3
# Si number density = 20.410027 Si / 1000 Ang^3
#
#
#
# Elastic Constant Matrix: (Units=GPa)
#
#
# Indices 1 2 3 4 5 6 
#
# 1 37.2772 31.7035 13.5452 0.0000 -6.0255 0.0000
# 2 31.7035 173.5131 74.3037 0.0000 -14.2298 0.0000
# 3 13.5452 74.3037 145.4124 0.0000 -17.6785 0.0000
# 4 0.0000 0.0000 0.0000 -3.8663 0.0000 8.0816
# 5 -6.0255 -14.2298 -17.6785 0.0000 24.8469 0.0000
# 6 0.0000 0.0000 0.0000 8.0816 0.0000 25.1504
#
#
#
# Elastic Compliance Matrix: (Units=1/GPa)
#
#
# Indices 1 2 3 4 5 6 
#
# 1 0.032298 -0.005716 0.000511 0.000000 0.004922 0.000000
# 2 -0.005716 0.008455 -0.003687 0.000000 0.000833 0.000000
# 3 0.000511 -0.003687 0.009274 0.000000 0.004611 0.000000
# 4 0.000000 0.000000 0.000000 -0.154723 0.000000 0.049717
# 5 0.004922 0.000833 0.004611 0.000000 0.045198 0.000000
# 6 0.000000 0.000000 0.000000 0.049717 0.000000 0.023785
#
#
# Mechanical properties :
#
#
# Convention : Reuss Voigt Hill
#
# Bulk Modulus (GPa) = 31.01539 66.14528 48.58034
# Shear Modulus (GPa) = -696.14961 25.00289 -335.57336
#
# Velocity S-wave (km/s) = -18.48845 3.50384 -12.83639
# Velocity P-wave (km/s) = 20.98891 6.98912 13.99440
#
# Compressibility (1/GPa) = 0.03224205
#
# Stress axis : x y z
#
# Youngs Moduli (GPa) = 30.96197 118.27744 107.83155
#
# Poissons Ratio (x) = 0.67612 -0.05509
# Poissons Ratio (y) = 0.17699 0.39752
# Poissons Ratio (z) = -0.01582 0.43603
#
# Static dielectric constant tensor:
#      x y z
#    x 1.795840 0.000000 -0.004300 
#    y 0.000000 1.747630 0.000000 
#    z -0.004300 0.000000 1.764860 
# 
# From -- ./inp_files/231106.got.cif
#   From: 2010.05.17/outbox.cif.g08.bks.cpg/sg15_116_cif.got.tgz:231106.got - 2010.06.03 18:47:42.
