data_PCOD9280657
_publ_section_title
;
Structure prediction by ZEFSAII (Michael W. Deem and Ramdas Pophale) SiO2 
 PCOD9280657
Probable space group: C 2/C
;
_chemical_formula_sum "Si O2"
_cell_formula_units_Z 36
_cell_length_a 16.767561
_cell_length_b 7.390840
_cell_length_c 12.492864
_cell_angle_alpha 90.000000
_cell_angle_beta 73.985021
_cell_angle_gamma 90.000000
_cell_volume 1488.109098
_symmetry_space_group_name_H-M "C 2/C"
_symmetry_group_IT_number 15
_symmetry_cell_setting 'monoclinic'
loop_
_space_group_symop_operation_xyz
x,y,z
-x,y,1/2-z
-x,-y,-z
x,-y,1/2+z
1/2+x,1/2+y,z
1/2-x,1/2+y,1/2-z
1/2-x,1/2-y,-z
1/2+x,1/2-y,1/2+z
loop_
_atom_site_type_symbol
_atom_site_label
_atom_site_fract_x
_atom_site_fract_y
_atom_site_fract_z
Si Si1 0.997517 0.357248 0.372771
Si Si2 0.332140 0.694238 0.532123
Si Si3 0.672420 0.375401 0.225991
Si Si4 0.000000 0.711069 0.250000
Si Si5 0.835914 0.189409 0.115807
O O1 0.078623 0.295492 0.406176
O O2 0.000000 0.281096 0.250000
O O3 0.912735 0.289081 0.454975
O O4 0.000866 0.571884 0.349553
O O5 0.250000 0.750000 0.500000
O O6 0.325721 0.732566 0.660870
O O7 0.340439 0.475039 0.529849
O O8 0.583624 0.324695 0.211575
O O9 0.754566 0.312262 0.134058
O O10 0.672764 0.580393 0.267755
#
# Coordination Sequence:
#
# PCOD9280657 Si02
#       5
#     8   8   8   4   8
#     4  10  21  38  65  86 125 161 203 252 307 352
#     4  10  21  37  64  91 124 159 206 247 309 363
#     4  10  22  37  62  89 126 158 206 244 308 361
#     4  10  22  38  60  90 124 158 208 252 302 358
#     4  10  21  37  62  88 123 160 203 245 307 361
#
# _framework density 24.191773999999999
#
# number of rings (size 3 to 8) (size 9 to 14) (size 15 to 20)
#    2.000    0.000    0.000    4.667    1.556    0.889 
#    0.000    0.000    0.000    6.667    0.000    0.000 
#    0.000    0.000    0.000    0.000    0.000    0.000 
#
# Total GULP energy -100617.870845 kJ/mol
# GULP energy per Si atom -5589.881714 kJ/mol
# Density = 2.413671 g / cm^3
# Si number density = 24.191774 Si / 1000 Ang^3
#
#
#
# Elastic Constant Matrix: (Units=GPa)
#
#
# Indices 1 2 3 4 5 6 
#
# 1 237.8714 55.5565 44.0557 0.0000 -13.1623 0.0000
# 2 55.5565 70.6925 18.9868 0.0000 3.4853 0.0000
# 3 44.0557 18.9868 77.7183 0.0000 -17.0264 0.0000
# 4 0.0000 0.0000 0.0000 45.4124 0.0000 8.6244
# 5 -13.1623 3.4853 -17.0264 0.0000 39.8364 0.0000
# 6 0.0000 0.0000 0.0000 8.6244 0.0000 52.3283
#
#
#
# Elastic Compliance Matrix: (Units=1/GPa)
#
#
# Indices 1 2 3 4 5 6 
#
# 1 0.005544 -0.003918 -0.001886 0.000000 0.001369 0.000000
# 2 -0.003918 0.018288 -0.003179 0.000000 -0.004253 0.000000
# 3 -0.001886 -0.003179 0.016149 0.000000 0.006557 0.000000
# 4 0.000000 0.000000 0.000000 0.022732 0.000000 -0.003747
# 5 0.001369 -0.004253 0.006557 0.000000 0.028730 0.000000
# 6 0.000000 0.000000 0.000000 -0.003747 0.000000 0.019728
#
#
# Mechanical properties :
#
#
# Convention : Reuss Voigt Hill
#
# Bulk Modulus (GPa) = 45.42026 69.27558 57.34792
# Shear Modulus (GPa) = 36.63699 45.36097 40.99898
#
# Velocity S-wave (km/s) = 3.89580 4.33489 4.12120
# Velocity P-wave (km/s) = 6.24918 7.33166 6.81195
#
# Compressibility (1/GPa) = 0.02201660
#
# Stress axis : x y z
#
# Youngs Moduli (GPa) = 180.37523 54.67978 61.92320
#
# Poissons Ratio (x) = 0.21423 0.11677
# Poissons Ratio (y) = 0.70671 0.19683
# Poissons Ratio (z) = 0.34013 0.17381
#
# Static dielectric constant tensor:
#      x y z
#    x 1.815080 0.000000 0.054100 
#    y 0.000000 1.914930 0.000000 
#    z 0.054100 0.000000 2.016480 
# 
# From -- ./inp_files/158430.got.cif
#   From: 2010.05.17/outbox.cif.g08.bks.cpg/sg15_80_cif.got.tgz:158430.got - 2010.06.03 18:47:42.
