data_PCOD9280784
_publ_section_title
;
Structure prediction by ZEFSAII (Michael W. Deem and Ramdas Pophale) SiO2 
 PCOD9280784
Probable space group: C 2/C
;
_chemical_formula_sum "Si O2"
_cell_formula_units_Z 48
_cell_length_a 14.057230
_cell_length_b 17.223637
_cell_length_c 15.626918
_cell_angle_alpha 90.000000
_cell_angle_beta 141.347565
_cell_angle_gamma 90.000000
_cell_volume 2363.176402
_symmetry_space_group_name_H-M "C 2/C"
_symmetry_group_IT_number 15
_symmetry_cell_setting 'monoclinic'
loop_
_space_group_symop_operation_xyz
x,y,z
-x,y,1/2-z
-x,-y,-z
x,-y,1/2+z
1/2+x,1/2+y,z
1/2-x,1/2+y,1/2-z
1/2-x,1/2-y,-z
1/2+x,1/2-y,1/2+z
loop_
_atom_site_type_symbol
_atom_site_label
_atom_site_fract_x
_atom_site_fract_y
_atom_site_fract_z
Si Si1 0.069520 0.074497 0.208293
Si Si2 0.858478 0.081276 0.819222
Si Si3 0.965993 0.770734 0.325557
Si Si4 0.159574 0.332153 0.530719
Si Si5 0.279589 0.655450 0.936710
Si Si6 0.147070 0.318279 0.084261
O O1 0.234625 0.110118 0.341346
O O2 0.000000 0.045509 0.250000
O O3 0.080140 0.004099 0.149555
O O4 0.949303 0.138695 0.092637
O O5 0.984436 0.148809 0.891729
O O6 0.774758 0.102987 0.848729
O O7 0.739786 0.101262 0.658584
O O8 0.783063 0.758189 0.203835
O O9 0.000000 0.781689 0.250000
O O10 0.071570 0.706347 0.442297
O O11 0.168037 0.359113 0.437946
O O12 0.233348 0.246555 0.591091
O O13 0.991041 0.322910 0.447337
#
# Coordination Sequence:
#
# PCOD9280784 Si02
#       6
#     8   8   8   8   8   8
#     4  10  22  40  62  91 129 173 210 263 322 382
#     4  10  22  36  62  90 125 168 213 255 319 369
#     4  10  21  39  61  92 126 171 219 258 309 379
#     4  10  21  38  62  92 129 159 218 259 318 369
#     4  10  21  37  63  96 122 172 212 261 307 391
#     4  10  22  37  63  92 125 170 210 267 313 367
#
# _framework density 20.311644999999999
#
# number of rings (size 3 to 8) (size 9 to 14) (size 15 to 20)
#    1.000    1.000    1.667    1.500    4.667    1.333 
#    0.000    0.000    3.667    0.000    0.000    0.000 
#    0.000    0.000    0.000    0.000    0.000    0.000 
#
# Total GULP energy -133686.294235 kJ/mol
# GULP energy per Si atom -5570.262260 kJ/mol
# Density = 2.026541 g / cm^3
# Si number density = 20.311645 Si / 1000 Ang^3
#
#
#
# Elastic Constant Matrix: (Units=GPa)
#
#
# Indices 1 2 3 4 5 6 
#
# 1 58.8033 21.5619 16.1545 -0.0003 -14.7190 -0.0001
# 2 21.5619 51.1265 8.9508 -0.0001 -14.9508 0.0000
# 3 16.1545 8.9508 58.6412 -0.0002 -5.1328 0.0000
# 4 -0.0003 -0.0001 -0.0002 19.4253 -0.0002 1.0341
# 5 -14.7190 -14.9508 -5.1328 -0.0002 34.9662 0.0000
# 6 -0.0001 0.0000 0.0000 1.0341 0.0000 18.9644
#
#
#
# Elastic Compliance Matrix: (Units=1/GPa)
#
#
# Indices 1 2 3 4 5 6 
#
# 1 0.022225 -0.006896 -0.004568 0.000000 0.005737 0.000000
# 2 -0.006896 0.024895 -0.001239 0.000000 0.007560 0.000000
# 3 -0.004568 -0.001239 0.018524 0.000000 0.000267 0.000000
# 4 0.000000 0.000000 0.000000 0.051629 0.000000 -0.002815
# 5 0.005737 0.007560 0.000267 0.000000 0.034285 0.000000
# 6 0.000000 0.000000 0.000000 -0.002815 0.000000 0.052884
#
#
# Mechanical properties :
#
#
# Convention : Reuss Voigt Hill
#
# Bulk Modulus (GPa) = 24.85133 29.10061 26.97597
# Shear Modulus (GPa) = 20.55410 22.79810 21.67610
#
# Velocity S-wave (km/s) = 3.18455 3.35388 3.27031
# Velocity P-wave (km/s) = 5.07773 5.41813 5.25069
#
# Compressibility (1/GPa) = 0.04023929
#
# Stress axis : x y z
#
# Youngs Moduli (GPa) = 44.99382 40.16845 53.98508
#
# Poissons Ratio (x) = 0.27700 0.24660
# Poissons Ratio (y) = 0.31027 0.06686
# Poissons Ratio (z) = 0.20553 0.04975
#
# Static dielectric constant tensor:
#      x y z
#    x 1.733510 0.000000 -0.022750 
#    y 0.000000 1.691310 0.000000 
#    z -0.022750 0.000000 1.772190 
# 
# From -- ./inp_files/154116.got.cif
#   From: 2010.05.17/outbox.cif.g08.bks.cpg/sg15_78_cif.got.tgz:154116.got - 2010.06.03 18:47:42.
