data_PCOD9280733
_publ_section_title
;
Structure prediction by ZEFSAII (Michael W. Deem and Ramdas Pophale) SiO2 
 PCOD9280733
Probable space group: C 2/C
;
_chemical_formula_sum "Si O2"
_cell_formula_units_Z 56
_cell_length_a 19.601609
_cell_length_b 20.590135
_cell_length_c 15.159486
_cell_angle_alpha 90.000000
_cell_angle_beta 29.761951
_cell_angle_gamma 90.000000
_cell_volume 3037.141686
_symmetry_space_group_name_H-M "C 2/C"
_symmetry_group_IT_number 15
_symmetry_cell_setting 'monoclinic'
loop_
_space_group_symop_operation_xyz
x,y,z
-x,y,1/2-z
-x,-y,-z
x,-y,1/2+z
1/2+x,1/2+y,z
1/2-x,1/2+y,1/2-z
1/2-x,1/2-y,-z
1/2+x,1/2-y,1/2+z
loop_
_atom_site_type_symbol
_atom_site_label
_atom_site_fract_x
_atom_site_fract_y
_atom_site_fract_z
Si Si1 0.388702 0.795589 0.108641
Si Si2 0.623568 0.049626 0.881722
Si Si3 0.899111 0.248296 0.494858
Si Si4 0.843783 0.707604 0.458025
Si Si5 0.339892 0.058188 0.459789
Si Si6 0.500000 0.142462 0.750000
Si Si7 0.738604 0.943085 0.067814
Si Si8 0.500000 0.355727 0.750000
O O1 0.413597 0.873431 0.075639
O O2 0.256347 0.776407 0.316614
O O3 0.523675 0.764865 0.000829
O O4 0.350642 0.773002 0.053004
O O5 0.729994 0.044488 0.681929
O O6 0.672773 0.034695 0.925214
O O7 0.500000 0.000000 0.000000
O O8 0.982802 0.191145 0.352985
O O9 0.916123 0.310615 0.411123
O O10 0.750000 0.750000 0.500000
O O11 0.795542 0.632834 0.506323
O O12 0.000000 0.709962 0.250000
O O13 0.500000 0.055847 0.250000
O O14 0.261072 0.010770 0.483459
O O15 0.397292 0.097007 0.809724
O O16 0.866595 0.899962 0.897019
#
# Coordination Sequence:
#
# PCOD9280733 Si02
#       8
#     8   8   8   8   8   4   8   4
#     4  11  22  37  64  89 126 153 204 251 300 364
#     4  11  20  37  63  89 116 156 206 255 296 355
#     4  11  21  38  57  98 123 164 195 245 304 373
#     4  10  22  42  62  87 116 158 201 260 309 349
#     4  10  21  37  63  88 114 151 208 255 293 357
#     4  11  20  34  66  88 125 162 206 236 299 374
#     4  12  21  41  60  92 123 167 200 256 303 365
#     4  11  24  38  60  86 139 160 190 242 323 364
#
# _framework density 18.438389000000001
#
# number of rings (size 3 to 8) (size 9 to 14) (size 15 to 20)
#    0.000    1.143    5.000    1.714    0.000    2.286 
#    1.286    0.714    0.000    0.000    0.000    0.000 
#    0.000    0.000    0.000    0.000    0.000    0.000 
#
# Total GULP energy -156337.935011 kJ/mol
# GULP energy per Si atom -5583.497679 kJ/mol
# Density = 1.839642 g / cm^3
# Si number density = 18.438389 Si / 1000 Ang^3
#
#
#
# Elastic Constant Matrix: (Units=GPa)
#
#
# Indices 1 2 3 4 5 6 
#
# 1 94.3957 37.4607 8.1871 0.0007 16.3882 -0.0003
# 2 37.4607 69.0870 10.9068 0.0002 -1.6129 -0.0001
# 3 8.1871 10.9068 60.0552 -0.0007 6.9351 -0.0001
# 4 0.0007 0.0002 -0.0007 13.8228 0.0005 -0.1141
# 5 16.3882 -1.6129 6.9351 0.0005 29.0561 0.0002
# 6 -0.0003 -0.0001 -0.0001 -0.1141 0.0002 30.9168
#
#
#
# Elastic Compliance Matrix: (Units=1/GPa)
#
#
# Indices 1 2 3 4 5 6 
#
# 1 0.015688 -0.008815 0.000556 0.000000 -0.009470 0.000000
# 2 -0.008815 0.019920 -0.003206 0.000000 0.006843 0.000000
# 3 0.000556 -0.003206 0.017703 0.000001 -0.004717 0.000000
# 4 0.000000 0.000000 0.000001 0.072347 -0.000001 0.000267
# 5 -0.009470 0.006843 -0.004717 -0.000001 0.041263 0.000000
# 6 0.000000 0.000000 0.000000 0.000267 0.000000 0.032346
#
#
# Mechanical properties :
#
#
# Convention : Reuss Voigt Hill
#
# Bulk Modulus (GPa) = 32.91684 37.40524 35.16104
# Shear Modulus (GPa) = 21.52164 25.89137 23.70650
#
# Velocity S-wave (km/s) = 3.42017 3.75134 3.58958
# Velocity P-wave (km/s) = 5.78687 6.25253 6.02420
#
# Compressibility (1/GPa) = 0.03037958
#
# Stress axis : x y z
#
# Youngs Moduli (GPa) = 63.74312 50.20009 56.48905
#
# Poissons Ratio (x) = 0.44253 -0.03140
# Poissons Ratio (y) = 0.56191 0.18112
# Poissons Ratio (z) = -0.03544 0.16095
#
# Static dielectric constant tensor:
#      x y z
#    x 1.605120 0.000000 0.038700 
#    y 0.000000 1.632420 0.000000 
#    z 0.038700 0.000000 1.625510 
# 
# From -- ./inp_files/50147.got.cif
#   From: 2010.05.17/outbox.cif.g08.bks.cpg/sg15_26_cif.got.tgz:50147.got - 2010.06.03 18:47:42.
