data_PCOD9280226
_publ_section_title
;
Structure prediction by ZEFSAII (Michael W. Deem and Ramdas Pophale) SiO2 
 PCOD9280226
Probable space group: C 2/C
;
_chemical_formula_sum "Si O2"
_cell_formula_units_Z 56
_cell_length_a 9.501272
_cell_length_b 27.697212
_cell_length_c 21.947067
_cell_angle_alpha 90.000000
_cell_angle_beta 149.177407
_cell_angle_gamma 90.000000
_cell_volume 2959.291616
_symmetry_space_group_name_H-M "C 2/C"
_symmetry_group_IT_number 15
_symmetry_cell_setting 'monoclinic'
loop_
_space_group_symop_operation_xyz
x,y,z
-x,y,1/2-z
-x,-y,-z
x,-y,1/2+z
1/2+x,1/2+y,z
1/2-x,1/2+y,1/2-z
1/2-x,1/2-y,-z
1/2+x,1/2-y,1/2+z
loop_
_atom_site_type_symbol
_atom_site_label
_atom_site_fract_x
_atom_site_fract_y
_atom_site_fract_z
Si Si1 0.182861 0.968440 0.756092
Si Si2 0.932002 0.703545 0.653848
Si Si3 0.626669 0.974639 0.487868
Si Si4 0.310661 0.876569 0.733401
Si Si5 0.923224 0.728324 0.318443
Si Si6 0.664157 0.863288 0.485384
Si Si7 0.971486 0.724454 0.997926
O O1 0.295382 0.915321 0.782034
O O2 0.000000 0.966976 0.750000
O O3 0.958140 0.981540 0.619558
O O4 0.446155 0.002620 0.865874
O O5 0.956593 0.656036 0.622899
O O6 0.635625 0.728171 0.537193
O O7 0.000000 0.695345 0.750000
O O8 0.136055 0.744638 0.704839
O O9 0.575728 0.917175 0.469939
O O10 0.500000 0.000000 0.500000
O O11 0.500000 0.897141 0.750000
O O12 0.435079 0.824882 0.796330
O O13 0.992898 0.866345 0.599852
O O14 0.965955 0.721441 0.406808
O O15 0.152254 0.763198 0.375400
O O16 0.575659 0.822973 0.501916
#
# Coordination Sequence:
#
# PCOD9280226 Si02
#       7
#     8   8   8   8   8   8   8
#     4   9  20  40  65  88 121 158 208 267 321 375
#     4  10  21  38  55  82 127 163 200 246 305 376
#     4   9  20  40  62  93 118 154 214 268 314 372
#     4  11  23  36  62  91 119 162 212 250 309 379
#     4  10  22  35  55  87 125 160 201 250 299 365
#     4  11  22  38  65  86 121 169 203 256 323 367
#     4  10  21  37  56  89 123 162 207 245 299 377
#
# _framework density 18.923448
#
# number of rings (size 3 to 8) (size 9 to 14) (size 15 to 20)
#    0.000    2.000    1.429    1.286    8.000    0.000 
#    7.714    6.429    0.000    0.000    0.000    0.000 
#    0.000    0.000    0.000    0.000    0.000    0.000 
#
# Total GULP energy -156101.759704 kJ/mol
# GULP energy per Si atom -5575.062847 kJ/mol
# Density = 1.888038 g / cm^3
# Si number density = 18.923448 Si / 1000 Ang^3
#
#
#
# Elastic Constant Matrix: (Units=GPa)
#
#
# Indices 1 2 3 4 5 6 
#
# 1 70.3595 30.8451 29.7830 -0.0002 8.0082 -0.0009
# 2 30.8451 115.4535 41.5160 -0.0004 -9.9286 -0.0008
# 3 29.7830 41.5160 68.7015 0.0041 -5.7636 -0.0034
# 4 -0.0002 -0.0004 0.0041 14.1871 -0.0015 -11.9203
# 5 8.0082 -9.9286 -5.7636 -0.0015 20.7551 0.0000
# 6 -0.0009 -0.0008 -0.0034 -11.9203 0.0000 21.9345
#
#
#
# Elastic Compliance Matrix: (Units=1/GPa)
#
#
# Indices 1 2 3 4 5 6 
#
# 1 0.020393 -0.003738 -0.007568 0.000001 -0.011759 0.000000
# 2 -0.003738 0.012008 -0.005153 0.000003 0.005756 0.000001
# 3 -0.007568 -0.005153 0.021490 -0.000006 0.006423 0.000000
# 4 0.000001 0.000003 -0.000006 0.129719 0.000009 0.070496
# 5 -0.011759 0.005756 0.006423 0.000009 0.057255 0.000005
# 6 0.000000 0.000001 0.000000 0.070496 0.000005 0.083902
#
#
# Mechanical properties :
#
#
# Convention : Reuss Voigt Hill
#
# Bulk Modulus (GPa) = 47.68262 50.97808 49.33035
# Shear Modulus (GPa) = 13.71077 21.53336 17.62207
#
# Velocity S-wave (km/s) = 2.69465 3.37697 3.05492
# Velocity P-wave (km/s) = 5.91048 6.49637 6.21034
#
# Compressibility (1/GPa) = 0.02097200
#
# Stress axis : x y z
#
# Youngs Moduli (GPa) = 49.03529 83.27672 46.53423
#
# Poissons Ratio (x) = 0.31130 0.35219
# Poissons Ratio (y) = 0.18330 0.23980
# Poissons Ratio (z) = 0.37112 0.42913
#
# Static dielectric constant tensor:
#      x y z
#    x 1.677210 0.000000 -0.023140 
#    y 0.000000 1.617400 0.000000 
#    z -0.023140 0.000000 1.701940 
# 
# From -- ./inp_files/234947.got.cif
#   From: 2010.05.17/outbox.cif.g08.bks.cpg/sg15_118_cif.got.tgz:234947.got - 2010.06.03 18:47:42.
