data_PCOD9280481
_publ_section_title
;
Structure prediction by ZEFSAII (Michael W. Deem and Ramdas Pophale) SiO2 
 PCOD9280481
Probable space group: C 2/C
;
_chemical_formula_sum "Si O2"
_cell_formula_units_Z 32
_cell_length_a 13.220071
_cell_length_b 19.910018
_cell_length_c 8.596184
_cell_angle_alpha 90.000000
_cell_angle_beta 129.926981
_cell_angle_gamma 90.000000
_cell_volume 1735.117657
_symmetry_space_group_name_H-M "C 2/C"
_symmetry_group_IT_number 15
_symmetry_cell_setting 'monoclinic'
loop_
_space_group_symop_operation_xyz
x,y,z
-x,y,1/2-z
-x,-y,-z
x,-y,1/2+z
1/2+x,1/2+y,z
1/2-x,1/2+y,1/2-z
1/2-x,1/2-y,-z
1/2+x,1/2-y,1/2+z
loop_
_atom_site_type_symbol
_atom_site_label
_atom_site_fract_x
_atom_site_fract_y
_atom_site_fract_z
Si Si1 0.278324 0.096135 0.809130
Si Si2 0.345013 0.965296 0.053658
Si Si3 0.953189 0.340491 0.024949
Si Si4 0.631064 0.722794 0.776206
O O1 0.271152 0.063986 0.630313
O O2 0.418674 0.135354 0.943904
O O3 0.170223 0.150595 0.746190
O O4 0.286018 0.033587 0.932499
O O5 0.500000 0.977694 0.250000
O O6 0.355926 0.904685 0.939768
O O7 0.000000 0.327648 0.250000
O O8 0.891510 0.276137 0.884258
O O9 0.500000 0.718965 0.750000
O O10 0.750000 0.750000 0.000000
#
# Coordination Sequence:
#
# PCOD9280481 Si02
#       4
#     8   8   8   8
#     4  10  21  37  60  90 120 157 207 245 312 341
#     4   9  19  34  64  89 120 154 208 253 293 356
#     4   9  20  39  62  94 119 159 207 255 299 355
#     4  12  25  40  63  92 126 161 204 252 306 366
#
# _framework density 18.442553
#
# number of rings (size 3 to 8) (size 9 to 14) (size 15 to 20)
#    0.000    2.500    2.500    3.000    7.000    4.000 
#    0.000    1.250    0.000    0.000    0.000    0.000 
#    0.000    0.000    0.000    0.000    0.000    0.000 
#
# Total GULP energy -89287.399257 kJ/mol
# GULP energy per Si atom -5580.462454 kJ/mol
# Density = 1.840058 g / cm^3
# Si number density = 18.442553 Si / 1000 Ang^3
#
#
#
# Elastic Constant Matrix: (Units=GPa)
#
#
# Indices 1 2 3 4 5 6 
#
# 1 85.6488 63.8555 37.4037 0.0000 2.3481 0.0000
# 2 63.8555 190.2576 70.3084 0.0000 -5.9789 0.0000
# 3 37.4037 70.3084 57.5397 0.0000 -2.0847 0.0000
# 4 0.0000 0.0000 0.0000 43.5751 0.0000 7.6688
# 5 2.3481 -5.9789 -2.0847 0.0000 11.0707 0.0000
# 6 0.0000 0.0000 0.0000 7.6688 0.0000 23.9725
#
#
#
# Elastic Compliance Matrix: (Units=1/GPa)
#
#
# Indices 1 2 3 4 5 6 
#
# 1 0.017706 -0.003310 -0.007719 0.000000 -0.006997 0.000000
# 2 -0.003310 0.010302 -0.010279 0.000000 0.004330 0.000000
# 3 -0.007719 -0.010279 0.035054 0.000000 0.002687 0.000000
# 4 0.000000 0.000000 0.000000 0.024318 0.000000 -0.007779
# 5 -0.006997 0.004330 0.002687 0.000000 0.094657 0.000000
# 6 0.000000 0.000000 0.000000 -0.007779 0.000000 0.044203
#
#
# Mechanical properties :
#
#
# Convention : Reuss Voigt Hill
#
# Bulk Modulus (GPa) = 48.90856 75.17569 62.04213
# Shear Modulus (GPa) = 18.13754 26.51556 22.32655
#
# Velocity S-wave (km/s) = 3.13942 3.79587 3.48314
# Velocity P-wave (km/s) = 6.30224 7.74997 7.06330
#
# Compressibility (1/GPa) = 0.02044632
#
# Stress axis : x y z
#
# Youngs Moduli (GPa) = 56.47775 97.07203 28.52721
#
# Poissons Ratio (x) = 0.32132 0.22019
# Poissons Ratio (y) = 0.18695 0.29323
# Poissons Ratio (z) = 0.43593 0.99781
#
# Static dielectric constant tensor:
#      x y z
#    x 1.632710 0.000000 -0.022320 
#    y 0.000000 1.633860 0.000000 
#    z -0.022320 0.000000 1.655870 
# 
# From -- ./inp_files/28862.got.cif
#   From: 2010.05.17/outbox.cif.g08.bks.cpg/sg15_15_cif.got.tgz:28862.got - 2010.06.03 18:47:42.
