data_PCOD9280678
_publ_section_title
;
Structure prediction by ZEFSAII (Michael W. Deem and Ramdas Pophale) SiO2 
 PCOD9280678
Probable space group: C 2/C
;
_chemical_formula_sum "Si O2"
_cell_formula_units_Z 48
_cell_length_a 11.215288
_cell_length_b 19.883446
_cell_length_c 12.386754
_cell_angle_alpha 90.000000
_cell_angle_beta 112.213105
_cell_angle_gamma 90.000000
_cell_volume 2557.227305
_symmetry_space_group_name_H-M "C 2/C"
_symmetry_group_IT_number 15
_symmetry_cell_setting 'monoclinic'
loop_
_space_group_symop_operation_xyz
x,y,z
-x,y,1/2-z
-x,-y,-z
x,-y,1/2+z
1/2+x,1/2+y,z
1/2-x,1/2+y,1/2-z
1/2-x,1/2-y,-z
1/2+x,1/2-y,1/2+z
loop_
_atom_site_type_symbol
_atom_site_label
_atom_site_fract_x
_atom_site_fract_y
_atom_site_fract_z
Si Si1 0.046531 0.236444 0.385101
Si Si2 0.036304 0.927411 0.383103
Si Si3 0.294942 0.143214 0.453751
Si Si4 0.791262 0.030663 0.924280
Si Si5 0.148416 0.589192 0.266885
Si Si6 0.820658 0.189177 0.465987
O O1 0.152385 0.177169 0.405032
O O2 0.112435 0.297714 0.472030
O O3 0.000000 0.257255 0.250000
O O4 0.926161 0.211801 0.414377
O O5 0.105684 0.856298 0.420910
O O6 0.000000 0.944673 0.250000
O O7 0.903460 0.928209 0.403432
O O8 0.132029 0.982250 0.466849
O O9 0.295486 0.081815 0.538319
O O10 0.331480 0.114795 0.348535
O O11 0.716410 0.982327 0.815675
O O12 0.218889 0.642655 0.368677
O O13 0.000000 0.584972 0.250000
O O14 0.750000 0.250000 0.500000
#
# Coordination Sequence:
#
# PCOD9280678 Si02
#       6
#     8   8   8   8   8   8
#     4  11  23  41  66  96 126 172 216 259 320 383
#     4  10  21  37  62  92 121 163 213 263 316 373
#     4  11  23  41  68  93 131 169 214 266 319 389
#     4  10  22  40  63  93 125 166 217 260 315 384
#     4  11  24  42  65  93 130 172 209 271 330 372
#     4  11  23  40  63  93 128 166 214 266 319 382
#
# _framework density 18.770329
#
# number of rings (size 3 to 8) (size 9 to 14) (size 15 to 20)
#    0.000    1.333    3.333    2.000    0.000    5.333 
#    0.000    0.000    0.000    0.000    0.000    0.000 
#    0.000    0.000    0.000    0.000    0.000    0.000 
#
# Total GULP energy -134084.442499 kJ/mol
# GULP energy per Si atom -5586.851771 kJ/mol
# Density = 1.872761 g / cm^3
# Si number density = 18.770329 Si / 1000 Ang^3
#
#
#
# Elastic Constant Matrix: (Units=GPa)
#
#
# Indices 1 2 3 4 5 6 
#
# 1 91.4622 38.5173 18.4662 0.0000 12.7565 0.0000
# 2 38.5173 75.4937 19.7985 0.0000 -0.5110 0.0000
# 3 18.4662 19.7985 86.4975 0.0000 -0.2387 0.0000
# 4 0.0000 0.0000 0.0000 15.2663 0.0000 -18.6033
# 5 12.7565 -0.5110 -0.2387 0.0000 24.7873 0.0000
# 6 0.0000 0.0000 0.0000 -18.6033 0.0000 14.6539
#
#
#
# Elastic Compliance Matrix: (Units=1/GPa)
#
#
# Indices 1 2 3 4 5 6 
#
# 1 0.015600 -0.007591 -0.001616 0.000000 -0.008201 0.000000
# 2 -0.007591 0.017788 -0.002439 0.000000 0.004250 0.000000
# 3 -0.001616 -0.002439 0.012467 0.000000 0.000901 0.000000
# 4 0.000000 0.000000 0.000000 -0.119747 0.000000 -0.152021
# 5 -0.008201 0.004250 0.000901 0.000000 0.044660 0.000000
# 6 0.000000 0.000000 0.000000 -0.152021 0.000000 -0.124751
#
#
# Mechanical properties :
#
#
# Convention : Reuss Voigt Hill
#
# Bulk Modulus (GPa) = 44.32036 45.22416 44.77226
# Shear Modulus (GPa) = -40.59384 22.71959 -8.93713
#
# Velocity S-wave (km/s) = -4.65549 3.48285 -2.18441
# Velocity P-wave (km/s) = 2.28799 6.34976 4.18835
#
# Compressibility (1/GPa) = 0.02256299
#
# Stress axis : x y z
#
# Youngs Moduli (GPa) = 64.10151 56.21888 80.21372
#
# Poissons Ratio (x) = 0.42677 0.12959
# Poissons Ratio (y) = 0.48661 0.19565
# Poissons Ratio (z) = 0.10356 0.13712
#
# Static dielectric constant tensor:
#      x y z
#    x 1.630510 0.000000 0.005730 
#    y 0.000000 1.635950 0.000000 
#    z 0.005730 0.000000 1.626390 
# 
# From -- ./inp_files/87877.got.cif
#   From: 2010.05.17/outbox.cif.g08.bks.cpg/sg15_44_cif.got.tgz:87877.got - 2010.06.03 18:47:42.
