data_PCOD9280616
_publ_section_title
;
Structure prediction by ZEFSAII (Michael W. Deem and Ramdas Pophale) SiO2 
 PCOD9280616
Probable space group: C 2/C
;
_chemical_formula_sum "Si O2"
_cell_formula_units_Z 48
_cell_length_a 8.500281
_cell_length_b 16.451496
_cell_length_c 15.922630
_cell_angle_alpha 90.000000
_cell_angle_beta 84.018836
_cell_angle_gamma 90.000000
_cell_volume 2214.536352
_symmetry_space_group_name_H-M "C 2/C"
_symmetry_group_IT_number 15
_symmetry_cell_setting 'monoclinic'
loop_
_space_group_symop_operation_xyz
x,y,z
-x,y,1/2-z
-x,-y,-z
x,-y,1/2+z
1/2+x,1/2+y,z
1/2-x,1/2+y,1/2-z
1/2-x,1/2-y,-z
1/2+x,1/2-y,1/2+z
loop_
_atom_site_type_symbol
_atom_site_label
_atom_site_fract_x
_atom_site_fract_y
_atom_site_fract_z
Si Si1 0.323242 0.775285 0.107294
Si Si2 0.094354 0.169850 0.099659
Si Si3 0.957587 0.579634 0.908068
Si Si4 0.741238 0.506010 0.067777
Si Si5 0.241643 0.318252 0.197777
Si Si6 0.520397 0.651933 0.571697
O O1 0.408120 0.689685 0.117971
O O2 0.455883 0.837531 0.062660
O O3 0.284652 0.806892 0.203005
O O4 0.159329 0.781860 0.067993
O O5 0.152306 0.080256 0.116570
O O6 0.185510 0.236948 0.149667
O O7 0.101310 0.170691 0.997159
O O8 0.865827 0.609426 0.832066
O O9 0.110177 0.523858 0.885830
O O10 0.833486 0.537628 0.978683
O O11 0.615529 0.433389 0.057713
O O12 0.417919 0.340660 0.160793
#
# Coordination Sequence:
#
# PCOD9280616 Si02
#       6
#     8   8   8   8   8   8
#     4  10  23  40  61  87 125 169 204 248 308 373
#     4  11  21  38  62  93 118 156 206 257 304 352
#     4   9  19  37  61  85 120 154 196 245 304 368
#     4  10  21  37  61  96 118 147 204 262 302 353
#     4  11  22  40  64  85 126 166 206 246 315 370
#     4  11  22  39  64  94 118 162 211 256 298 369
#
# _framework density 21.674966999999999
#
# number of rings (size 3 to 8) (size 9 to 14) (size 15 to 20)
#    0.000    1.667    1.667    4.000    2.333    0.000 
#    3.000    6.667    7.333    0.000    0.000    0.000 
#    0.000    0.000    0.000    0.000    0.000    0.000 
#
# Total GULP energy -133819.614237 kJ/mol
# GULP energy per Si atom -5575.817260 kJ/mol
# Density = 2.162563 g / cm^3
# Si number density = 21.674967 Si / 1000 Ang^3
#
#
#
# Elastic Constant Matrix: (Units=GPa)
#
#
# Indices 1 2 3 4 5 6 
#
# 1 92.7972 55.4492 2.3817 0.0000 -6.4269 0.0000
# 2 55.4492 110.5333 34.3075 0.0000 -8.0588 0.0000
# 3 2.3817 34.3075 48.9430 0.0000 -7.9632 0.0000
# 4 0.0000 0.0000 0.0000 21.5136 0.0000 -8.7335
# 5 -6.4269 -8.0588 -7.9632 0.0000 33.1188 0.0000
# 6 0.0000 0.0000 0.0000 -8.7335 0.0000 44.7389
#
#
#
# Elastic Compliance Matrix: (Units=1/GPa)
#
#
# Indices 1 2 3 4 5 6 
#
# 1 0.017064 -0.010542 0.006953 0.000000 0.002418 0.000000
# 2 -0.010542 0.018101 -0.012272 0.000000 -0.000592 0.000000
# 3 0.006953 -0.012272 0.029587 0.000000 0.005477 0.000000
# 4 0.000000 0.000000 0.000000 0.050483 0.000000 0.009855
# 5 0.002418 -0.000592 0.005477 0.000000 0.031836 0.000000
# 6 0.000000 0.000000 0.000000 0.009855 0.000000 0.024276
#
#
# Mechanical properties :
#
#
# Convention : Reuss Voigt Hill
#
# Bulk Modulus (GPa) = 30.27526 48.50559 39.39042
# Shear Modulus (GPa) = 23.35580 30.54994 26.95287
#
# Velocity S-wave (km/s) = 3.28616 3.75835 3.53016
# Velocity P-wave (km/s) = 5.32885 6.42345 5.90159
#
# Compressibility (1/GPa) = 0.03303027
#
# Stress axis : x y z
#
# Youngs Moduli (GPa) = 58.60146 55.24479 33.79886
#
# Poissons Ratio (x) = 0.58239 -0.23499
# Poissons Ratio (y) = 0.61778 0.41477
# Poissons Ratio (z) = -0.40744 0.67795
#
# Static dielectric constant tensor:
#      x y z
#    x 1.811120 0.000000 -0.008260 
#    y 0.000000 1.852060 0.000000 
#    z -0.008260 0.000000 1.840310 
# 
# From -- ./inp_files/189742.got.cif
#   From: 2010.05.17/outbox.cif.g08.bks.cpg/sg15_95_cif.got.tgz:189742.got - 2010.06.03 18:47:42.
