data_PCOD9280160
_publ_section_title
;
Structure prediction by ZEFSAII (Michael W. Deem and Ramdas Pophale) SiO2 
 PCOD9280160
Probable space group: C 2/C
;
_chemical_formula_sum "Si O2"
_cell_formula_units_Z 60
_cell_length_a 17.431896
_cell_length_b 19.977490
_cell_length_c 16.916818
_cell_angle_alpha 90.000000
_cell_angle_beta 149.988351
_cell_angle_gamma 90.000000
_cell_volume 2946.640339
_symmetry_space_group_name_H-M "C 2/C"
_symmetry_group_IT_number 15
_symmetry_cell_setting 'monoclinic'
loop_
_space_group_symop_operation_xyz
x,y,z
-x,y,1/2-z
-x,-y,-z
x,-y,1/2+z
1/2+x,1/2+y,z
1/2-x,1/2+y,1/2-z
1/2-x,1/2-y,-z
1/2+x,1/2-y,1/2+z
loop_
_atom_site_type_symbol
_atom_site_label
_atom_site_fract_x
_atom_site_fract_y
_atom_site_fract_z
Si Si1 0.053768 0.154524 0.568535
Si Si2 0.000000 0.571981 0.750000
Si Si3 0.711243 0.438196 0.088193
Si Si4 0.870604 0.553286 0.325644
Si Si5 0.184566 0.733550 0.609717
Si Si6 0.496670 0.552564 0.833611
Si Si7 0.929692 0.329799 0.771653
Si Si8 0.331460 0.986391 0.948883
O O1 0.094855 0.112010 0.527420
O O2 0.210652 0.190593 0.737695
O O3 0.003434 0.104202 0.594046
O O4 0.921655 0.210498 0.442703
O O5 0.850805 0.598886 0.666095
O O6 0.911158 0.532734 0.601633
O O7 0.785663 0.485679 0.222362
O O8 0.621617 0.493332 0.955440
O O9 0.843540 0.608723 0.235828
O O10 0.826875 0.570233 0.376350
O O11 0.052037 0.540322 0.483753
O O12 0.307196 0.769977 0.661679
O O13 0.067312 0.691234 0.452546
O O14 0.500000 0.586295 0.750000
O O15 0.334125 0.515779 0.690275
O O16 0.000000 0.346786 0.750000
#
# Coordination Sequence:
#
# PCOD9280160 Si02
#       8
#     8   4   8   8   8   8   8   8
#     4  11  24  44  65  89 129 167 220 266 314 372
#     4  10  22  38  60  92 134 162 202 246 328 402
#     4  11  23  39  65  96 132 163 203 269 336 390
#     4  10  22  36  61  92 120 166 205 258 327 393
#     4  10  25  42  59  88 119 182 223 259 298 371
#     4  12  23  38  62 102 135 166 203 261 327 393
#     4  11  23  38  61  88 129 168 217 258 309 373
#     4  10  21  37  54  91 132 158 201 245 320 394
#
# _framework density 20.362172999999999
#
# number of rings (size 3 to 8) (size 9 to 14) (size 15 to 20)
#    0.000    1.333    2.667    2.400    9.333    5.333 
#    0.000    0.000    0.000    0.800    0.000    0.000 
#    0.000    0.000    0.000    0.000    0.000    0.000 
#
# Total GULP energy -167342.714529 kJ/mol
# GULP energy per Si atom -5578.090484 kJ/mol
# Density = 2.031583 g / cm^3
# Si number density = 20.362173 Si / 1000 Ang^3
#
#
#
# Elastic Constant Matrix: (Units=GPa)
#
#
# Indices 1 2 3 4 5 6 
#
# 1 106.3787 30.3657 16.5125 -0.0002 -2.7319 0.0003
# 2 30.3657 57.2573 9.1470 -0.0001 0.0789 0.0000
# 3 16.5125 9.1470 80.7783 0.0011 21.5503 -0.0001
# 4 -0.0002 -0.0001 0.0011 24.9703 0.0005 4.2340
# 5 -2.7319 0.0789 21.5503 0.0005 27.4907 0.0000
# 6 0.0003 0.0000 -0.0001 4.2340 0.0000 29.0891
#
#
#
# Elastic Compliance Matrix: (Units=1/GPa)
#
#
# Indices 1 2 3 4 5 6 
#
# 1 0.011504 -0.005698 -0.002549 0.000000 0.003157 0.000000
# 2 -0.005698 0.020691 -0.001279 0.000000 0.000377 0.000000
# 3 -0.002549 -0.001279 0.016579 0.000000 -0.013246 0.000000
# 4 0.000000 0.000000 0.000000 0.041061 0.000000 -0.005976
# 5 0.003157 0.000377 -0.013246 0.000000 0.047073 0.000000
# 6 0.000000 0.000000 0.000000 -0.005976 0.000000 0.035247
#
#
# Mechanical properties :
#
#
# Convention : Reuss Voigt Hill
#
# Bulk Modulus (GPa) = 33.64418 39.60717 36.62568
# Shear Modulus (GPa) = 24.86174 28.86928 26.86551
#
# Velocity S-wave (km/s) = 3.49804 3.76944 3.63627
# Velocity P-wave (km/s) = 5.73357 6.19988 5.97128
#
# Compressibility (1/GPa) = 0.02972282
#
# Stress axis : x y z
#
# Youngs Moduli (GPa) = 86.92956 48.33111 60.31640
#
# Poissons Ratio (x) = 0.27539 0.15373
# Poissons Ratio (y) = 0.49532 0.07712
# Poissons Ratio (z) = 0.22155 0.06180
#
# Static dielectric constant tensor:
#      x y z
#    x 1.778000 0.000000 -0.013440 
#    y 0.000000 1.758260 0.000000 
#    z -0.013440 0.000000 1.756620 
# 
# From -- ./inp_files/211760.got.cif
#   From: 2010.05.17/outbox.cif.g08.bks.cpg/sg15_106_cif.got.tgz:211760.got - 2010.06.03 18:47:42.
