data_PCOD9280189
_publ_section_title
;
Structure prediction by ZEFSAII (Michael W. Deem and Ramdas Pophale) SiO2 
 PCOD9280189
Probable space group: C 2/C
;
_chemical_formula_sum "Si O2"
_cell_formula_units_Z 52
_cell_length_a 17.831325
_cell_length_b 28.312269
_cell_length_c 7.763514
_cell_angle_alpha 90.000000
_cell_angle_beta 45.070308
_cell_angle_gamma 90.000000
_cell_volume 2774.814187
_symmetry_space_group_name_H-M "C 2/C"
_symmetry_group_IT_number 15
_symmetry_cell_setting 'monoclinic'
loop_
_space_group_symop_operation_xyz
x,y,z
-x,y,1/2-z
-x,-y,-z
x,-y,1/2+z
1/2+x,1/2+y,z
1/2-x,1/2+y,1/2-z
1/2-x,1/2-y,-z
1/2+x,1/2-y,1/2+z
loop_
_atom_site_type_symbol
_atom_site_label
_atom_site_fract_x
_atom_site_fract_y
_atom_site_fract_z
Si Si1 0.888542 0.702618 0.342372
Si Si2 0.236839 0.388818 0.521907
Si Si3 0.769586 0.653116 0.091931
Si Si4 0.000000 0.384346 0.250000
Si Si5 0.621484 0.357806 0.521269
Si Si6 0.809880 0.752423 0.140563
Si Si7 0.553027 0.951257 0.847418
O O1 0.854304 0.648086 0.390952
O O2 0.882184 0.724409 0.162352
O O3 0.796672 0.728973 0.595427
O O4 0.000000 0.709035 0.250000
O O5 0.265966 0.368520 0.664944
O O6 0.179841 0.440142 0.620845
O O7 0.329755 0.380622 0.232131
O O8 0.699445 0.630958 0.054580
O O9 0.768338 0.710120 0.086915
O O10 0.893739 0.642678 0.874565
O O11 0.975640 0.415614 0.454745
O O12 0.500000 0.371576 0.750000
O O13 0.628798 0.300443 0.502113
O O14 0.500000 0.941899 0.750000
O O15 0.500000 0.000000 0.000000
#
# Coordination Sequence:
#
# PCOD9280189 Si02
#       7
#     8   8   8   4   8   8   8
#     4   9  17  32  53  71 108 153 191 236 296 337
#     4   9  21  39  53  81 115 153 190 234 299 355
#     4  10  21  37  56  79 118 154 199 245 293 352
#     4  10  22  38  60  90 120 158 182 230 322 358
#     4  11  23  36  54  82 114 158 211 244 282 331
#     4   9  20  32  46  81 104 149 208 245 283 324
#     4  11  20  35  60  92 124 143 178 233 302 379
#
# _framework density 18.739992999999998
#
# number of rings (size 3 to 8) (size 9 to 14) (size 15 to 20)
#    0.000    2.154    0.769    2.769    3.231    6.769 
#    0.000    0.000    0.000    0.000    0.000    4.308 
#    0.000    0.154    0.000    0.000    0.000    0.000 
#
# Total GULP energy -144863.677837 kJ/mol
# GULP energy per Si atom -5571.679917 kJ/mol
# Density = 1.869734 g / cm^3
# Si number density = 18.739993 Si / 1000 Ang^3
#
#
#
# Elastic Constant Matrix: (Units=GPa)
#
#
# Indices 1 2 3 4 5 6 
#
# 1 83.5448 -0.5603 51.5160 0.0000 -13.6812 0.0000
# 2 -0.5603 56.9619 26.5691 0.0000 -8.7893 0.0000
# 3 51.5160 26.5691 118.9651 0.0000 -4.7823 0.0000
# 4 0.0000 0.0000 0.0000 9.5929 0.0000 -8.2300
# 5 -13.6812 -8.7893 -4.7823 0.0000 24.2045 0.0000
# 6 0.0000 0.0000 0.0000 -8.2300 0.0000 10.9838
#
#
#
# Elastic Compliance Matrix: (Units=1/GPa)
#
#
# Indices 1 2 3 4 5 6 
#
# 1 0.019809 0.006447 -0.009550 0.000000 0.011651 0.000000
# 2 0.006447 0.022697 -0.007442 0.000000 0.010416 0.000000
# 3 -0.009550 -0.007442 0.013989 0.000000 -0.005336 0.000000
# 4 0.000000 0.000000 0.000000 0.291866 0.000000 0.218691
# 5 0.011651 0.010416 -0.005336 0.000000 0.050628 0.000000
# 6 0.000000 0.000000 0.000000 0.218691 0.000000 0.254905
#
#
# Mechanical properties :
#
#
# Convention : Reuss Voigt Hill
#
# Bulk Modulus (GPa) = 28.24393 46.05792 37.15092
# Shear Modulus (GPa) = 7.28029 21.08604 14.18316
#
# Velocity S-wave (km/s) = 1.97315 3.35802 2.75406
# Velocity P-wave (km/s) = 4.50503 6.29808 5.47545
#
# Compressibility (1/GPa) = 0.03540584
#
# Stress axis : x y z
#
# Youngs Moduli (GPa) = 50.48113 44.05781 71.48621
#
# Poissons Ratio (x) = -0.28404 0.68266
# Poissons Ratio (y) = -0.32545 0.53201
# Poissons Ratio (z) = 0.48207 0.32789
#
# Static dielectric constant tensor:
#      x y z
#    x 1.678400 0.000000 0.063030 
#    y 0.000000 1.708970 0.000000 
#    z 0.063030 0.000000 2.071310 
# 
# From -- ./inp_files/52126.got.cif
#   From: 2010.05.17/outbox.cif.g08.bks.cpg/sg15_27_cif.got.tgz:52126.got - 2010.06.03 18:47:42.
