data_PCOD9280854
_publ_section_title
;
Structure prediction by ZEFSAII (Michael W. Deem and Ramdas Pophale) SiO2 
 PCOD9280854
Probable space group: C 2/C
;
_chemical_formula_sum "Si O2"
_cell_formula_units_Z 32
_cell_length_a 10.804460
_cell_length_b 13.866836
_cell_length_c 13.161004
_cell_angle_alpha 90.000000
_cell_angle_beta 40.800930
_cell_angle_gamma 90.000000
_cell_volume 1288.458568
_symmetry_space_group_name_H-M "C 2/C"
_symmetry_group_IT_number 15
_symmetry_cell_setting 'monoclinic'
loop_
_space_group_symop_operation_xyz
x,y,z
-x,y,1/2-z
-x,-y,-z
x,-y,1/2+z
1/2+x,1/2+y,z
1/2-x,1/2+y,1/2-z
1/2-x,1/2-y,-z
1/2+x,1/2-y,1/2+z
loop_
_atom_site_type_symbol
_atom_site_label
_atom_site_fract_x
_atom_site_fract_y
_atom_site_fract_z
Si Si1 0.219545 0.823242 0.113237
Si Si2 0.543876 0.061321 0.333830
Si Si3 0.055224 0.083342 0.332650
Si Si4 0.199329 0.888806 0.328271
O O1 0.248528 0.806685 0.216270
O O2 0.000000 0.840324 0.250000
O O3 0.250000 0.750000 0.000000
O O4 0.352937 0.916149 0.011823
O O5 0.500000 0.103290 0.250000
O O6 0.725388 0.106208 0.277429
O O7 0.388416 0.047859 0.725251
O O8 0.000000 0.095647 0.250000
O O9 0.907484 0.135083 0.501050
O O10 0.056252 0.969410 0.366059
#
# Coordination Sequence:
#
# PCOD9280854 Si02
#       4
#     8   8   8   8
#     4  12  25  41  61  97 145 190 236 288 355 438
#     4  10  21  37  65 107 141 175 232 303 367 408
#     4   9  19  37  66 104 146 172 218 304 383 416
#     4   9  21  36  64  98 149 167 231 298 372 405
#
# _framework density 24.835878000000001
#
# number of rings (size 3 to 8) (size 9 to 14) (size 15 to 20)
#    1.500    0.500    0.000    3.750    3.500    0.000 
#    0.000    0.000    0.000    0.000    0.000   66.500 
#    0.000    0.000    0.000    0.000    0.000    0.000 
#
# Total GULP energy -89087.144871 kJ/mol
# GULP energy per Si atom -5567.946554 kJ/mol
# Density = 2.477935 g / cm^3
# Si number density = 24.835878 Si / 1000 Ang^3
#
#
#
# Elastic Constant Matrix: (Units=GPa)
#
#
# Indices 1 2 3 4 5 6 
#
# 1 177.2614 43.2687 103.8008 -0.0001 10.4194 0.0001
# 2 43.2687 58.8955 41.5834 0.0000 -6.6003 0.0000
# 3 103.8008 41.5834 232.6225 0.0000 15.1406 0.0001
# 4 -0.0001 0.0000 0.0000 19.8382 0.0001 -2.5985
# 5 10.4194 -6.6003 15.1406 0.0001 63.6558 -0.0001
# 6 0.0001 0.0000 0.0001 -2.5985 -0.0001 -5.8804
#
#
#
# Elastic Compliance Matrix: (Units=1/GPa)
#
#
# Indices 1 2 3 4 5 6 
#
# 1 0.008475 -0.004274 -0.002944 0.000000 -0.001130 0.000000
# 2 -0.004274 0.022124 -0.002278 0.000000 0.003535 0.000000
# 3 -0.002944 -0.002278 0.006098 0.000000 -0.001205 0.000000
# 4 0.000000 0.000000 0.000000 0.047650 0.000000 -0.021056
# 5 -0.001130 0.003535 -0.001205 0.000000 0.016548 0.000000
# 6 0.000000 0.000000 0.000000 -0.021056 0.000000 -0.160753
#
#
# Mechanical properties :
#
#
# Convention : Reuss Voigt Hill
#
# Bulk Modulus (GPa) = 56.48193 94.00945 75.24569
# Shear Modulus (GPa) = -143.00261 34.19783 -54.40239
#
# Velocity S-wave (km/s) = -7.59632 3.71476 -4.68533
# Velocity P-wave (km/s) = 7.35848 7.50558 1.04556
#
# Compressibility (1/GPa) = 0.01770478
#
# Stress axis : x y z
#
# Youngs Moduli (GPa) = 117.99095 45.20021 163.98523
#
# Poissons Ratio (x) = 0.19320 0.48280
# Poissons Ratio (y) = 0.50434 0.37349
# Poissons Ratio (z) = 0.34739 0.10295
#
# Static dielectric constant tensor:
#      x y z
#    x 2.075380 0.000000 0.081230 
#    y 0.000000 2.041650 0.000000 
#    z 0.081230 0.000000 2.042900 
# 
# From -- ./inp_files/22995.got.cif
#   From: 2010.05.17/outbox.cif.g08.bks.cpg/sg15_12_cif.got.tgz:22995.got - 2010.06.03 18:47:42.
