data_PCOD9280116
_publ_section_title
;
Structure prediction by ZEFSAII (Michael W. Deem and Ramdas Pophale) SiO2 
 PCOD9280116
Probable space group: C 2/C
;
_chemical_formula_sum "Si O2"
_cell_formula_units_Z 56
_cell_length_a 17.264018
_cell_length_b 8.770373
_cell_length_c 20.131766
_cell_angle_alpha 90.000000
_cell_angle_beta 47.836585
_cell_angle_gamma 90.000000
_cell_volume 2259.418986
_symmetry_space_group_name_H-M "C 2/C"
_symmetry_group_IT_number 15
_symmetry_cell_setting 'monoclinic'
loop_
_space_group_symop_operation_xyz
x,y,z
-x,y,1/2-z
-x,-y,-z
x,-y,1/2+z
1/2+x,1/2+y,z
1/2-x,1/2+y,1/2-z
1/2-x,1/2-y,-z
1/2+x,1/2-y,1/2+z
loop_
_atom_site_type_symbol
_atom_site_label
_atom_site_fract_x
_atom_site_fract_y
_atom_site_fract_z
Si Si1 0.780620 0.931127 0.192665
Si Si2 0.051240 0.604387 0.790509
Si Si3 0.302193 0.238008 0.633995
Si Si4 0.606569 0.274940 0.148199
Si Si5 0.600506 0.375145 0.611119
Si Si6 0.581190 0.073867 0.035669
Si Si7 0.298098 0.767227 0.570838
O O1 0.672390 0.925988 0.214922
O O2 0.748168 0.879772 0.284329
O O3 0.835198 0.792762 0.121477
O O4 0.823461 0.100355 0.157803
O O5 0.004827 0.773923 0.830704
O O6 0.000000 0.562597 0.750000
O O7 0.019817 0.501814 0.872489
O O8 0.209344 0.248253 0.633492
O O9 0.405727 0.178215 0.536866
O O10 0.500000 0.242556 0.250000
O O11 0.590479 0.449390 0.134181
O O12 0.620905 0.172086 0.075012
O O13 0.659240 0.353560 0.507405
O O14 0.677013 0.299764 0.622061
O O15 0.650881 0.928365 0.977066
#
# Coordination Sequence:
#
# PCOD9280116 Si02
#       7
#     8   8   8   8   8   8   8
#     4  12  26  45  68  96 138 176 229 271 337 401
#     4  11  22  41  69 100 131 172 222 285 331 390
#     4  12  27  43  66  95 134 185 221 274 337 401
#     4  12  25  41  67 103 136 168 226 283 326 391
#     4  10  21  36  68  99 128 165 216 272 331 382
#     4  11  23  42  68  99 135 172 225 273 338 395
#     4  10  21  39  67  99 128 172 219 274 330 395
#
# _framework density 24.785132999999998
#
# number of rings (size 3 to 8) (size 9 to 14) (size 15 to 20)
#    0.000    0.857    2.857    4.714    4.000    0.571 
#    0.000    2.857    0.000    8.571    0.000    0.000 
#    0.000    0.000    0.000    0.000    0.000    0.000 
#
# Total GULP energy -156570.482595 kJ/mol
# GULP energy per Si atom -5591.802950 kJ/mol
# Density = 2.472872 g / cm^3
# Si number density = 24.785133 Si / 1000 Ang^3
#
#
#
# Elastic Constant Matrix: (Units=GPa)
#
#
# Indices 1 2 3 4 5 6 
#
# 1 32.5747 11.4522 5.3410 0.0000 10.3015 0.0000
# 2 11.4522 159.9613 52.0807 0.0000 19.1344 0.0000
# 3 5.3410 52.0807 110.2839 0.0000 25.5972 0.0000
# 4 0.0000 0.0000 0.0000 52.0074 0.0000 15.0848
# 5 10.3015 19.1344 25.5972 0.0000 41.0396 0.0000
# 6 0.0000 0.0000 0.0000 15.0848 0.0000 11.8496
#
#
#
# Elastic Compliance Matrix: (Units=1/GPa)
#
#
# Indices 1 2 3 4 5 6 
#
# 1 0.033785 -0.001793 0.001152 0.000000 -0.008363 0.000000
# 2 -0.001793 0.007561 -0.003239 0.000000 -0.001055 0.000000
# 3 0.001152 -0.003239 0.011994 0.000000 -0.006260 0.000000
# 4 0.000000 0.000000 0.000000 0.030484 0.000000 -0.038807
# 5 -0.008363 -0.001055 -0.006260 0.000000 0.030862 0.000000
# 6 0.000000 0.000000 0.000000 -0.038807 0.000000 0.133793
#
#
# Mechanical properties :
#
#
# Convention : Reuss Voigt Hill
#
# Bulk Modulus (GPa) = 21.94004 48.95198 35.44601
# Shear Modulus (GPa) = 18.42078 36.57570 27.49824
#
# Velocity S-wave (km/s) = 2.72916 3.84567 3.33448
# Velocity P-wave (km/s) = 4.33617 6.28588 5.39975
#
# Compressibility (1/GPa) = 0.04557878
#
# Stress axis : x y z
#
# Youngs Moduli (GPa) = 29.59897 132.26518 83.37378
#
# Poissons Ratio (x) = 0.23721 -0.09602
# Poissons Ratio (y) = 0.05308 0.27003
# Poissons Ratio (z) = -0.03409 0.42837
#
# Static dielectric constant tensor:
#      x y z
#    x 1.950950 0.000000 -0.001530 
#    y 0.000000 2.045980 0.000000 
#    z -0.001530 0.000000 2.028070 
# 
# From -- ./inp_files/251814.got.cif
#   From: 2010.05.17/outbox.cif.g08.bks.cpg/sg15_126_cif.got.tgz:251814.got - 2010.06.03 18:47:42.
