data_PCOD9280182
_publ_section_title
;
Structure prediction by ZEFSAII (Michael W. Deem and Ramdas Pophale) SiO2 
 PCOD9280182
Probable space group: C 2/C
;
_chemical_formula_sum "Si O2"
_cell_formula_units_Z 44
_cell_length_a 10.181949
_cell_length_b 28.435396
_cell_length_c 7.681808
_cell_angle_alpha 90.000000
_cell_angle_beta 67.847176
_cell_angle_gamma 90.000000
_cell_volume 2059.916850
_symmetry_space_group_name_H-M "C 2/C"
_symmetry_group_IT_number 15
_symmetry_cell_setting 'monoclinic'
loop_
_space_group_symop_operation_xyz
x,y,z
-x,y,1/2-z
-x,-y,-z
x,-y,1/2+z
1/2+x,1/2+y,z
1/2-x,1/2+y,1/2-z
1/2-x,1/2-y,-z
1/2+x,1/2-y,1/2+z
loop_
_atom_site_type_symbol
_atom_site_label
_atom_site_fract_x
_atom_site_fract_y
_atom_site_fract_z
Si Si1 0.375092 0.566823 0.517402
Si Si2 0.161402 0.196093 0.704132
Si Si3 0.500000 0.506227 0.750000
Si Si4 0.729063 0.796991 0.742004
Si Si5 0.000000 0.152484 0.250000
Si Si6 0.373478 0.112901 0.677076
Si Si7 0.500000 0.870830 0.750000
O O1 0.476011 0.540834 0.602749
O O2 0.373278 0.530575 0.355983
O O3 0.445959 0.615861 0.424003
O O4 0.226533 0.573695 0.686542
O O5 0.218732 0.204645 0.482212
O O6 0.167940 0.245010 0.808522
O O7 0.270591 0.158329 0.723879
O O8 0.000000 0.180518 0.750000
O O9 0.865225 0.815079 0.777375
O O10 0.608152 0.836597 0.799736
O O11 0.500000 0.120876 0.750000
O O12 0.422401 0.103565 0.451782
#
# Coordination Sequence:
#
# PCOD9280182 Si02
#       7
#     8   8   4   8   4   8   4
#     4  10  22  43  68 101 128 161 220 265 350 399
#     4  10  21  38  59  87 130 186 232 266 318 371
#     4   9  22  44  73  98 126 162 204 287 328 425
#     4  10  21  37  55  90 132 175 226 274 314 372
#     4  11  22  36  68 102 131 169 224 280 322 401
#     4  11  24  41  65  98 134 176 226 274 329 398
#     4  10  22  40  59  86 133 183 214 275 322 374
#
# _framework density 21.360084000000001
#
# number of rings (size 3 to 8) (size 9 to 14) (size 15 to 20)
#    0.000    1.818    0.909    2.182    7.636    0.000 
#    3.273    3.636    0.000    0.000    0.000    0.000 
#    0.000    0.000    0.000    0.000    0.000    0.000 
#
# Total GULP energy -122667.262154 kJ/mol
# GULP energy per Si atom -5575.784643 kJ/mol
# Density = 2.131147 g / cm^3
# Si number density = 21.360084 Si / 1000 Ang^3
#
#
#
# Elastic Constant Matrix: (Units=GPa)
#
#
# Indices 1 2 3 4 5 6 
#
# 1 107.8985 35.6367 8.1839 0.0000 -8.2689 0.0000
# 2 35.6367 57.4761 36.9808 0.0000 8.9657 0.0000
# 3 8.1839 36.9808 123.8121 0.0000 -8.9979 0.0000
# 4 0.0000 0.0000 0.0000 12.7930 0.0000 -25.8130
# 5 -8.2689 8.9657 -8.9979 0.0000 29.6028 0.0000
# 6 0.0000 0.0000 0.0000 -25.8130 0.0000 -27.0551
#
#
#
# Elastic Compliance Matrix: (Units=1/GPa)
#
#
# Indices 1 2 3 4 5 6 
#
# 1 0.013553 -0.011780 0.003229 0.000000 0.008335 0.000000
# 2 -0.011780 0.034198 -0.010663 0.000000 -0.016889 0.000000
# 3 0.003229 -0.010663 0.011605 0.000000 0.007659 0.000000
# 4 0.000000 0.000000 0.000000 0.026723 0.000000 -0.025496
# 5 0.008335 -0.016889 0.007659 0.000000 0.043552 0.000000
# 6 0.000000 0.000000 0.000000 -0.025496 0.000000 -0.012636
#
#
# Mechanical properties :
#
#
# Convention : Reuss Voigt Hill
#
# Bulk Modulus (GPa) = 47.78867 50.08773 48.93820
# Shear Modulus (GPa) = 30.78821 16.96049 23.87435
#
# Velocity S-wave (km/s) = 3.80068 2.82091 3.34684
# Velocity P-wave (km/s) = 6.45614 5.84039 6.15597
#
# Compressibility (1/GPa) = 0.02092546
#
# Stress axis : x y z
#
# Youngs Moduli (GPa) = 73.78600 29.24139 86.17085
#
# Poissons Ratio (x) = 0.34448 -0.27821
# Poissons Ratio (y) = 0.86924 0.91885
# Poissons Ratio (z) = -0.23822 0.31181
#
# Static dielectric constant tensor:
#      x y z
#    x 1.767860 0.000000 0.011410 
#    y 0.000000 1.808820 0.000000 
#    z 0.011410 0.000000 1.907760 
# 
# From -- ./inp_files/25755.got.cif
#   From: 2010.05.17/outbox.cif.g08.bks.cpg/sg15_13_cif.got.tgz:25755.got - 2010.06.03 18:47:42.
