data_PCOD9280679
_publ_section_title
;
Structure prediction by ZEFSAII (Michael W. Deem and Ramdas Pophale) SiO2 
 PCOD9280679
Probable space group: C 2/C
;
_chemical_formula_sum "Si O2"
_cell_formula_units_Z 56
_cell_length_a 24.710616
_cell_length_b 5.456434
_cell_length_c 19.693219
_cell_angle_alpha 90.000000
_cell_angle_beta 66.726253
_cell_angle_gamma 90.000000
_cell_volume 2439.206916
_symmetry_space_group_name_H-M "C 2/C"
_symmetry_group_IT_number 15
_symmetry_cell_setting 'monoclinic'
loop_
_space_group_symop_operation_xyz
x,y,z
-x,y,1/2-z
-x,-y,-z
x,-y,1/2+z
1/2+x,1/2+y,z
1/2-x,1/2+y,1/2-z
1/2-x,1/2-y,-z
1/2+x,1/2-y,1/2+z
loop_
_atom_site_type_symbol
_atom_site_label
_atom_site_fract_x
_atom_site_fract_y
_atom_site_fract_z
Si Si1 0.694708 0.411636 0.827595
Si Si2 0.435113 0.760053 0.309925
Si Si3 0.994890 0.303354 0.060005
Si Si4 0.099279 0.996596 0.472999
Si Si5 0.686690 0.690484 0.695721
Si Si6 0.607863 0.926291 0.301073
Si Si7 0.610022 0.723973 0.608737
O O1 0.706272 0.501851 0.745043
O O2 0.756625 0.367577 0.832394
O O3 0.653421 0.172791 0.834644
O O4 0.654313 0.573334 0.898517
O O5 0.500000 0.809874 0.250000
O O6 0.394263 0.745683 0.262704
O O7 0.434405 0.492203 0.344617
O O8 0.411444 0.002102 0.361338
O O9 0.958294 0.430152 0.137859
O O10 0.949402 0.097655 0.056084
O O11 0.060980 0.204906 0.031774
O O12 0.000000 0.500000 0.000000
O O13 0.117459 0.184891 0.524049
O O14 0.666820 0.656525 0.627608
O O15 0.630943 0.821774 0.759378
#
# Coordination Sequence:
#
# PCOD9280679 Si02
#       7
#     8   8   8   8   8   8   8
#     4  11  21  41  64  91 124 170 229 270 331 388
#     4  11  23  40  64  94 134 175 217 270 338 398
#     4  10  21  39  64  89 131 171 216 263 334 404
#     4  10  24  39  61  95 131 171 218 271 335 400
#     4  11  22  40  68  91 128 170 230 277 330 389
#     4  10  21  37  62  92 121 169 219 270 320 396
#     4  11  25  42  64  97 137 172 220 283 334 400
#
# _framework density 22.958283000000002
#
# number of rings (size 3 to 8) (size 9 to 14) (size 15 to 20)
#    0.000    1.429    2.857    2.143    4.000    0.571 
#    0.000    0.000    0.000    3.429    0.000    0.000 
#    0.000    0.000    0.000    0.000    0.000    0.000 
#
# Total GULP energy -155989.829981 kJ/mol
# GULP energy per Si atom -5571.065356 kJ/mol
# Density = 2.290603 g / cm^3
# Si number density = 22.958283 Si / 1000 Ang^3
#
#
#
# Elastic Constant Matrix: (Units=GPa)
#
#
# Indices 1 2 3 4 5 6 
#
# 1 91.4603 3.0128 43.6262 0.0026 7.7623 -0.0002
# 2 3.0128 50.0965 8.1972 0.0028 -5.5604 -0.0008
# 3 43.6262 8.1972 78.8908 0.0029 -4.0702 0.0010
# 4 0.0026 0.0028 0.0029 30.5258 -0.0005 7.8838
# 5 7.7623 -5.5604 -4.0702 -0.0005 34.6055 0.0027
# 6 -0.0002 -0.0008 0.0010 7.8838 0.0027 27.5174
#
#
#
# Elastic Compliance Matrix: (Units=1/GPa)
#
#
# Indices 1 2 3 4 5 6 
#
# 1 0.015523 0.000008 -0.008818 -0.000001 -0.004518 0.000001
# 2 0.000008 0.020628 -0.001989 -0.000002 0.003079 0.000001
# 3 -0.008818 -0.001989 0.017953 0.000000 0.003770 -0.000001
# 4 -0.000001 -0.000002 0.000000 0.035377 0.000001 -0.010136
# 5 -0.004518 0.003079 0.003770 0.000001 0.030849 -0.000003
# 6 0.000001 0.000001 -0.000001 -0.010136 -0.000003 0.039245
#
#
# Mechanical properties :
#
#
# Convention : Reuss Voigt Hill
#
# Bulk Modulus (GPa) = 30.76324 36.67998 33.72161
# Shear Modulus (GPa) = 26.04057 29.57051 27.80554
#
# Velocity S-wave (km/s) = 3.37153 3.59278 3.48391
# Velocity P-wave (km/s) = 5.34649 5.76387 5.55910
#
# Compressibility (1/GPa) = 0.03250633
#
# Stress axis : x y z
#
# Youngs Moduli (GPa) = 64.42027 48.47737 55.70023
#
# Poissons Ratio (x) = -0.00038 0.49117
# Poissons Ratio (y) = -0.00051 0.11078
# Poissons Ratio (z) = 0.56806 0.09642
#
# Static dielectric constant tensor:
#      x y z
#    x 2.033900 -0.000010 0.091250 
#    y -0.000010 1.920570 0.000000 
#    z 0.091250 0.000000 1.919430 
# 
# From -- ./inp_files/256493.got.cif
#   From: 2010.05.17/outbox.cif.g08.bks.cpg/sg15_129_cif.got.tgz:256493.got - 2010.06.03 18:47:42.
