data_PCOD9280919
_publ_section_title
;
Structure prediction by ZEFSAII (Michael W. Deem and Ramdas Pophale) SiO2 
 PCOD9280919
Probable space group: C 2/C
;
_chemical_formula_sum "Si O2"
_cell_formula_units_Z 60
_cell_length_a 11.685807
_cell_length_b 17.869065
_cell_length_c 14.941649
_cell_angle_alpha 90.000000
_cell_angle_beta 119.308244
_cell_angle_gamma 90.000000
_cell_volume 2720.664435
_symmetry_space_group_name_H-M "C 2/C"
_symmetry_group_IT_number 15
_symmetry_cell_setting 'monoclinic'
loop_
_space_group_symop_operation_xyz
x,y,z
-x,y,1/2-z
-x,-y,-z
x,-y,1/2+z
1/2+x,1/2+y,z
1/2-x,1/2+y,1/2-z
1/2-x,1/2-y,-z
1/2+x,1/2-y,1/2+z
loop_
_atom_site_type_symbol
_atom_site_label
_atom_site_fract_x
_atom_site_fract_y
_atom_site_fract_z
Si Si1 0.518176 0.549429 0.413994
Si Si2 0.234572 0.650142 0.453750
Si Si3 0.719184 0.938442 0.782644
Si Si4 0.564461 0.798521 0.647411
Si Si5 0.670912 0.304618 0.036000
Si Si6 0.258927 0.896615 0.237823
Si Si7 0.263936 0.712811 0.645432
Si Si8 0.500000 0.550834 0.750000
O O1 0.500000 0.500000 0.500000
O O2 0.373005 0.567454 0.322204
O O3 0.589843 0.628040 0.458242
O O4 0.574762 0.498584 0.355170
O O5 0.217489 0.576264 0.389554
O O6 0.302342 0.661908 0.574596
O O7 0.301328 0.711296 0.414887
O O8 0.087782 0.682048 0.407091
O O9 0.639059 0.876226 0.698359
O O10 0.678044 0.022558 0.746422
O O11 0.593916 0.754826 0.568308
O O12 0.622117 0.744064 0.746589
O O13 0.749091 0.354518 0.139944
O O14 0.750000 0.250000 0.000000
O O15 0.328514 0.839451 0.331347
O O16 0.114167 0.909720 0.231540
#
# Coordination Sequence:
#
# PCOD9280919 Si02
#       8
#     8   8   8   8   8   8   8   4
#     4  11  23  41  66 105 131 180 236 293 360 416
#     4  10  21  37  66  94 123 168 212 279 332 401
#     4  10  21  40  62  94 135 162 223 282 344 407
#     4  10  23  41  63  94 130 171 220 274 347 410
#     4  11  25  42  65  94 143 176 224 289 363 420
#     4  10  22  38  64  93 124 172 220 281 340 405
#     4   9  20  34  61  94 121 152 214 265 330 385
#     4  10  22  36  68  98 130 166 228 298 346 392
#
# _framework density 22.053436999999999
#
# number of rings (size 3 to 8) (size 9 to 14) (size 15 to 20)
#    0.000    1.867    2.667    1.600   14.933    0.000 
#    0.000    0.667    2.933    0.000    0.000    0.000 
#    0.000    0.000    0.000    0.000    0.000    0.000 
#
# Total GULP energy -167064.900918 kJ/mol
# GULP energy per Si atom -5568.830031 kJ/mol
# Density = 2.200324 g / cm^3
# Si number density = 22.053437 Si / 1000 Ang^3
#
#
#
# Elastic Constant Matrix: (Units=GPa)
#
#
# Indices 1 2 3 4 5 6 
#
# 1 54.6668 40.6400 32.7362 0.0000 -8.3218 0.0000
# 2 40.6400 178.6593 52.0838 0.0000 -11.7576 0.0000
# 3 32.7362 52.0838 94.5443 0.0000 -17.6704 0.0000
# 4 0.0000 0.0000 0.0000 43.2912 0.0000 -15.8258
# 5 -8.3218 -11.7576 -17.6704 0.0000 30.3652 0.0000
# 6 0.0000 0.0000 0.0000 -15.8258 0.0000 41.1596
#
#
#
# Elastic Compliance Matrix: (Units=1/GPa)
#
#
# Indices 1 2 3 4 5 6 
#
# 1 0.025131 -0.003764 -0.006298 0.000000 0.001765 0.000000
# 2 -0.003764 0.007239 -0.002640 0.000000 0.000235 0.000000
# 3 -0.006298 -0.002640 0.015370 0.000000 0.006196 0.000000
# 4 0.000000 0.000000 0.000000 0.026877 0.000000 0.010334
# 5 0.001765 0.000235 0.006196 0.000000 0.037113 0.000000
# 6 0.000000 0.000000 0.000000 0.010334 0.000000 0.028269
#
#
# Mechanical properties :
#
#
# Convention : Reuss Voigt Hill
#
# Bulk Modulus (GPa) = 44.77394 64.31004 54.54199
# Shear Modulus (GPa) = 28.92673 36.45724 32.69198
#
# Velocity S-wave (km/s) = 3.62562 4.07028 3.85437
# Velocity P-wave (km/s) = 6.15414 7.16337 6.67785
#
# Compressibility (1/GPa) = 0.02233442
#
# Stress axis : x y z
#
# Youngs Moduli (GPa) = 39.79092 138.14512 65.05986
#
# Poissons Ratio (x) = 0.52004 0.40976
# Poissons Ratio (y) = 0.14979 0.17179
# Poissons Ratio (z) = 0.25061 0.36477
#
# Static dielectric constant tensor:
#      x y z
#    x 1.865510 0.000000 -0.033120 
#    y 0.000000 1.904040 0.000000 
#    z -0.033120 0.000000 1.900120 
# 
# From -- ./inp_files/146119.got.cif
#   From: 2010.05.17/outbox.cif.g08.bks.cpg/sg15_74_cif.got.tgz:146119.got - 2010.06.03 18:47:42.
