data_PCOD9280696
_publ_section_title
;
Structure prediction by ZEFSAII (Michael W. Deem and Ramdas Pophale) SiO2 
 PCOD9280696
Probable space group: C 2/C
;
_chemical_formula_sum "Si O2"
_cell_formula_units_Z 44
_cell_length_a 7.808644
_cell_length_b 27.933713
_cell_length_c 9.419610
_cell_angle_alpha 90.000000
_cell_angle_beta 109.573532
_cell_angle_gamma 90.000000
_cell_volume 1935.913681
_symmetry_space_group_name_H-M "C 2/C"
_symmetry_group_IT_number 15
_symmetry_cell_setting 'monoclinic'
loop_
_space_group_symop_operation_xyz
x,y,z
-x,y,1/2-z
-x,-y,-z
x,-y,1/2+z
1/2+x,1/2+y,z
1/2-x,1/2+y,1/2-z
1/2-x,1/2-y,-z
1/2+x,1/2-y,1/2+z
loop_
_atom_site_type_symbol
_atom_site_label
_atom_site_fract_x
_atom_site_fract_y
_atom_site_fract_z
Si Si1 0.706998 0.944456 0.308545
Si Si2 0.684559 0.901482 0.016994
Si Si3 0.013595 0.777547 0.586452
Si Si4 0.500000 0.037556 0.250000
Si Si5 0.913358 0.695914 0.082679
Si Si6 0.033085 0.114106 0.424339
O O1 0.500000 0.924791 0.250000
O O2 0.823270 0.921185 0.464022
O O3 0.672019 0.001337 0.302309
O O4 0.772942 0.928450 0.173096
O O5 0.522774 0.931287 0.897892
O O6 0.622580 0.847670 0.033812
O O7 0.840536 0.894976 0.944571
O O8 0.962951 0.735322 0.462480
O O9 0.223294 0.784664 0.594162
O O10 0.920722 0.829442 0.539655
O O11 0.000000 0.765446 0.750000
O O12 0.000000 0.675227 0.250000
O O13 0.000000 0.106806 0.250000
#
# Coordination Sequence:
#
# PCOD9280696 Si02
#       6
#     8   8   8   4   8   8
#     4  10  25  41  66  99 127 172 226 272 325 390
#     4  11  22  41  68  92 137 170 220 271 334 388
#     4   9  21  39  60  92 132 170 217 263 316 390
#     4  10  24  42  68  96 132 172 220 278 332 392
#     4  10  21  37  62  94 125 177 214 263 326 386
#     4  10  23  42  67  97 135 179 217 269 327 391
#
# _framework density 22.728287999999999
#
# number of rings (size 3 to 8) (size 9 to 14) (size 15 to 20)
#    0.545    1.455    0.909    1.091    2.545    8.000 
#    0.000    0.000    0.000    0.000    0.000    0.000 
#    0.000    0.000    0.000    0.000    0.000    0.000 
#
# Total GULP energy -122752.123586 kJ/mol
# GULP energy per Si atom -5579.641981 kJ/mol
# Density = 2.267656 g / cm^3
# Si number density = 22.728288 Si / 1000 Ang^3
#
#
#
# Elastic Constant Matrix: (Units=GPa)
#
#
# Indices 1 2 3 4 5 6 
#
# 1 39.3981 26.4058 19.4402 0.0000 4.9487 0.0000
# 2 26.4058 102.1968 69.1866 0.0000 -6.4135 0.0000
# 3 19.4402 69.1866 103.5080 0.0000 -6.3191 0.0000
# 4 0.0000 0.0000 0.0000 123.3891 0.0000 70.4238
# 5 4.9487 -6.4135 -6.3191 0.0000 38.1698 0.0000
# 6 0.0000 0.0000 0.0000 70.4238 0.0000 56.2713
#
#
#
# Elastic Compliance Matrix: (Units=1/GPa)
#
#
# Indices 1 2 3 4 5 6 
#
# 1 0.031892 -0.007865 -0.001077 0.000000 -0.005635 0.000000
# 2 -0.007865 0.019853 -0.011645 0.000000 0.002428 0.000000
# 3 -0.001077 -0.011645 0.017715 0.000000 0.001116 0.000000
# 4 0.000000 0.000000 0.000000 0.028366 0.000000 -0.035500
# 5 -0.005635 0.002428 0.001116 0.000000 0.027522 0.000000
# 6 0.000000 0.000000 0.000000 -0.035500 0.000000 0.062200
#
#
# Mechanical properties :
#
#
# Convention : Reuss Voigt Hill
#
# Bulk Modulus (GPa) = 35.35145 52.79647 44.07396
# Shear Modulus (GPa) = 20.99515 52.23738 36.61627
#
# Velocity S-wave (km/s) = 3.04261 4.79930 4.01814
# Velocity P-wave (km/s) = 5.28498 7.34785 6.40008
#
# Compressibility (1/GPa) = 0.02828738
#
# Stress axis : x y z
#
# Youngs Moduli (GPa) = 31.35544 50.37018 56.44946
#
# Poissons Ratio (x) = 0.39617 0.06077
# Poissons Ratio (y) = 0.24662 0.65734
# Poissons Ratio (z) = 0.03376 0.58655
#
# Static dielectric constant tensor:
#      x y z
#    x 1.898920 0.000000 -0.050730 
#    y 0.000000 1.861540 0.000000 
#    z -0.050730 0.000000 1.898080 
# 
# From -- ./inp_files/25665.got.cif
#   From: 2010.05.17/outbox.cif.g08.bks.cpg/sg15_13_cif.got.tgz:25665.got - 2010.06.03 18:47:42.
