data_PCOD9280030
_publ_section_title
;
Structure prediction by ZEFSAII (Michael W. Deem and Ramdas Pophale) SiO2 
 PCOD9280030
Probable space group: C 2/C
;
_chemical_formula_sum "Si O2"
_cell_formula_units_Z 52
_cell_length_a 5.635613
_cell_length_b 13.992980
_cell_length_c 26.490933
_cell_angle_alpha 90.000000
_cell_angle_beta 108.816684
_cell_angle_gamma 90.000000
_cell_volume 1977.400583
_symmetry_space_group_name_H-M "C 2/C"
_symmetry_group_IT_number 15
_symmetry_cell_setting 'monoclinic'
loop_
_space_group_symop_operation_xyz
x,y,z
-x,y,1/2-z
-x,-y,-z
x,-y,1/2+z
1/2+x,1/2+y,z
1/2-x,1/2+y,1/2-z
1/2-x,1/2-y,-z
1/2+x,1/2-y,1/2+z
loop_
_atom_site_type_symbol
_atom_site_label
_atom_site_fract_x
_atom_site_fract_y
_atom_site_fract_z
Si Si1 0.000000 0.173904 0.250000
Si Si2 0.073698 0.833705 0.311151
Si Si3 0.017757 0.241147 0.362150
Si Si4 0.413341 0.154030 0.457352
Si Si5 0.519035 0.374678 0.495241
Si Si6 0.283807 0.572429 0.882778
Si Si7 0.098818 0.487144 0.703138
O O1 0.986324 0.234750 0.198544
O O2 0.761938 0.104387 0.227814
O O3 0.220088 0.748311 0.350471
O O4 0.229197 0.929295 0.307291
O O5 0.000000 0.798398 0.250000
O O6 0.891542 0.876668 0.340372
O O7 0.215956 0.166361 0.397355
O O8 0.099080 0.343907 0.389578
O O9 0.484902 0.261663 0.480268
O O10 0.224964 0.108951 0.485957
O O11 0.690911 0.110397 0.467220
O O12 0.481475 0.433971 0.440871
O O13 0.132774 0.481833 0.851693
O O14 0.000000 0.522581 0.750000
#
# Coordination Sequence:
#
# PCOD9280030 Si02
#       7
#     4   8   8   8   8   8   8
#     4  12  24  42  60  94 130 174 206 262 328 406
#     4  11  20  37  60  87 125 160 210 267 310 389
#     4  10  24  35  60  93 129 163 207 257 338 378
#     4   9  19  36  54  92 130 163 205 271 322 391
#     4   9  19  33  61  88 127 163 216 262 326 374
#     4  10  21  36  63  94 119 168 212 268 313 382
#     4  11  22  40  58  86 123 168 215 254 316 381
#
# _framework density 26.297149999999998
#
# number of rings (size 3 to 8) (size 9 to 14) (size 15 to 20)
#    0.000    1.846    2.308    0.923   15.077    1.846 
#    0.000    0.000    0.000    1.846    0.000    0.000 
#    0.000    0.000    0.000    0.000    0.000    0.000 
#
# Total GULP energy -145037.887869 kJ/mol
# GULP energy per Si atom -5578.380303 kJ/mol
# Density = 2.623730 g / cm^3
# Si number density = 26.297150 Si / 1000 Ang^3
#
#
#
# Elastic Constant Matrix: (Units=GPa)
#
#
# Indices 1 2 3 4 5 6 
#
# 1 128.3480 29.4219 55.4025 0.0000 24.2729 0.0000
# 2 29.4219 88.4716 25.7466 0.0000 15.0467 0.0000
# 3 55.4025 25.7466 143.6715 0.0000 30.0088 0.0000
# 4 0.0000 0.0000 0.0000 -49.1423 0.0000 66.0438
# 5 24.2729 15.0467 30.0088 0.0000 35.5400 0.0000
# 6 0.0000 0.0000 0.0000 66.0438 0.0000 -11.4966
#
#
#
# Elastic Compliance Matrix: (Units=1/GPa)
#
#
# Indices 1 2 3 4 5 6 
#
# 1 0.010145 -0.001924 -0.002781 0.000000 -0.003766 0.000000
# 2 -0.001924 0.012762 -0.000839 0.000000 -0.003381 0.000000
# 3 -0.002781 -0.000839 0.009363 0.000000 -0.005652 0.000000
# 4 0.000000 0.000000 0.000000 0.003028 0.000000 0.017395
# 5 -0.003766 -0.003381 -0.005652 0.000000 0.036913 0.000000
# 6 0.000000 0.000000 0.000000 0.017395 0.000000 0.012943
#
#
# Mechanical properties :
#
#
# Convention : Reuss Voigt Hill
#
# Bulk Modulus (GPa) = 47.20715 64.62589 55.91652
# Shear Modulus (GPa) = 48.40139 11.64156 30.02148
#
# Velocity S-wave (km/s) = 4.29483 2.10631 3.38246
# Velocity P-wave (km/s) = 6.52567 5.52666 6.04683
#
# Compressibility (1/GPa) = 0.02118323
#
# Stress axis : x y z
#
# Youngs Moduli (GPa) = 98.57150 78.35753 106.79826
#
# Poissons Ratio (x) = 0.15076 0.29696
# Poissons Ratio (y) = 0.18965 0.08960
# Poissons Ratio (z) = 0.27409 0.06574
#
# Static dielectric constant tensor:
#      x y z
#    x 2.291530 0.000000 0.049550 
#    y 0.000000 2.065120 0.000000 
#    z 0.049550 0.000000 2.129980 
# 
# From -- ./inp_files/285904.got.cif
#   From: 2010.05.17/outbox.cif.g08.bks.cpg/sg15_143_cif.got.tgz:285904.got - 2010.06.03 18:47:42.
