data_PCOD9280188
_publ_section_title
;
Structure prediction by ZEFSAII (Michael W. Deem and Ramdas Pophale) SiO2 
 PCOD9280188
Probable space group: C 2/C
;
_chemical_formula_sum "Si O2"
_cell_formula_units_Z 56
_cell_length_a 8.346036
_cell_length_b 27.991132
_cell_length_c 16.056387
_cell_angle_alpha 90.000000
_cell_angle_beta 134.505719
_cell_angle_gamma 90.000000
_cell_volume 2675.149106
_symmetry_space_group_name_H-M "C 2/C"
_symmetry_group_IT_number 15
_symmetry_cell_setting 'monoclinic'
loop_
_space_group_symop_operation_xyz
x,y,z
-x,y,1/2-z
-x,-y,-z
x,-y,1/2+z
1/2+x,1/2+y,z
1/2-x,1/2+y,1/2-z
1/2-x,1/2-y,-z
1/2+x,1/2-y,1/2+z
loop_
_atom_site_type_symbol
_atom_site_label
_atom_site_fract_x
_atom_site_fract_y
_atom_site_fract_z
Si Si1 0.227847 0.737949 0.890632
Si Si2 0.073836 0.422903 0.949684
Si Si3 0.677257 0.865302 0.416272
Si Si4 0.033905 0.944257 0.528502
Si Si5 0.806919 0.015554 0.247477
Si Si6 0.762889 0.660979 0.368951
Si Si7 0.765126 0.909136 0.201097
O O1 0.276339 0.681430 0.906472
O O2 0.350966 0.784221 0.896185
O O3 0.000000 0.739620 0.750000
O O4 0.250000 0.750000 0.000000
O O5 0.292182 0.421907 0.972532
O O6 0.933218 0.469712 0.875408
O O7 0.917060 0.376846 0.877856
O O8 0.139907 0.424313 0.070303
O O9 0.720988 0.854199 0.529145
O O10 0.408317 0.875146 0.313132
O O11 0.809391 0.913468 0.445210
O O12 0.142077 0.948267 0.659352
O O13 0.000000 0.000000 0.500000
O O14 0.000000 0.023229 0.250000
O O15 0.810654 0.958697 0.266523
O O16 0.500000 0.658402 0.250000
O O17 0.000000 0.888636 0.250000
#
# Coordination Sequence:
#
# PCOD9280188 Si02
#       7
#     8   8   8   8   8   8   8
#     4   9  19  36  62  90 116 153 201 250 304 366
#     4  11  21  35  55  82 113 150 199 251 297 349
#     4  10  21  37  58  83 114 155 197 243 303 366
#     4  12  24  36  53  85 122 155 195 248 300 354
#     4  11  21  36  56  79 112 159 202 242 295 359
#     4   9  18  37  62  84 109 147 195 246 303 367
#     4  10  21  37  56  79 112 157 204 244 289 355
#
# _framework density 20.933413000000002
#
# number of rings (size 3 to 8) (size 9 to 14) (size 15 to 20)
#    0.000    1.714    0.000    6.429    0.000    2.286 
#    0.000    0.714    0.000    8.571    0.000    0.000 
#    0.000    0.000    0.000    0.000    0.000    0.000 
#
# Total GULP energy -156026.113720 kJ/mol
# GULP energy per Si atom -5572.361204 kJ/mol
# Density = 2.088577 g / cm^3
# Si number density = 20.933413 Si / 1000 Ang^3
#
#
#
# Elastic Constant Matrix: (Units=GPa)
#
#
# Indices 1 2 3 4 5 6 
#
# 1 70.4108 52.3388 9.3160 0.0000 15.6643 0.0000
# 2 52.3388 148.8005 19.2455 0.0000 12.9548 0.0000
# 3 9.3160 19.2455 84.0729 0.0000 -1.8941 0.0000
# 4 0.0000 0.0000 0.0000 64.8251 0.0000 -29.4836
# 5 15.6643 12.9548 -1.8941 0.0000 36.1752 0.0000
# 6 0.0000 0.0000 0.0000 -29.4836 0.0000 24.5236
#
#
#
# Elastic Compliance Matrix: (Units=1/GPa)
#
#
# Indices 1 2 3 4 5 6 
#
# 1 0.020698 -0.006580 -0.000937 0.000000 -0.006655 0.000000
# 2 -0.006580 0.009263 -0.001404 0.000000 -0.000542 0.000000
# 3 -0.000937 -0.001404 0.012355 0.000000 0.001555 0.000000
# 4 0.000000 0.000000 0.000000 0.034039 0.000000 0.040923
# 5 -0.006655 -0.000542 0.001555 0.000000 0.030800 0.000000
# 6 0.000000 0.000000 0.000000 0.040923 0.000000 0.089977
#
#
# Mechanical properties :
#
#
# Convention : Reuss Voigt Hill
#
# Bulk Modulus (GPa) = 40.85828 51.67610 46.26719
# Shear Modulus (GPa) = 22.40828 39.93037 31.16933
#
# Velocity S-wave (km/s) = 3.27533 4.37223 3.86291
# Velocity P-wave (km/s) = 5.81930 7.08717 6.48430
#
# Compressibility (1/GPa) = 0.02447485
#
# Stress axis : x y z
#
# Youngs Moduli (GPa) = 48.31435 107.95162 80.94111
#
# Poissons Ratio (x) = 0.71027 0.07586
# Poissons Ratio (y) = 0.31789 0.11361
# Poissons Ratio (z) = 0.04528 0.15153
#
# Static dielectric constant tensor:
#      x y z
#    x 1.599340 0.000000 -0.049490 
#    y 0.000000 1.775840 0.000000 
#    z -0.049490 0.000000 1.870180 
# 
# From -- ./inp_files/193889.got.cif
#   From: 2010.05.17/outbox.cif.g08.bks.cpg/sg15_97_cif.got.tgz:193889.got - 2010.06.03 18:47:42.
