data_PCOD9280716
_publ_section_title
;
Structure prediction by ZEFSAII (Michael W. Deem and Ramdas Pophale) SiO2 
 PCOD9280716
Probable space group: C 2/C
;
_chemical_formula_sum "Si O2"
_cell_formula_units_Z 24
_cell_length_a 8.890273
_cell_length_b 5.346080
_cell_length_c 21.978519
_cell_angle_alpha 90.000000
_cell_angle_beta 125.563709
_cell_angle_gamma 90.000000
_cell_volume 849.747997
_symmetry_space_group_name_H-M "C 2/C"
_symmetry_group_IT_number 15
_symmetry_cell_setting 'monoclinic'
loop_
_space_group_symop_operation_xyz
x,y,z
-x,y,1/2-z
-x,-y,-z
x,-y,1/2+z
1/2+x,1/2+y,z
1/2-x,1/2+y,1/2-z
1/2-x,1/2-y,-z
1/2+x,1/2-y,1/2+z
loop_
_atom_site_type_symbol
_atom_site_label
_atom_site_fract_x
_atom_site_fract_y
_atom_site_fract_z
Si Si1 0.185999 0.833660 0.051509
Si Si2 0.932625 0.714355 0.084326
Si Si3 0.871191 0.957186 0.777651
O O1 0.105472 0.637860 0.081790
O O2 0.355809 0.006970 0.113131
O O3 0.250000 0.750000 0.000000
O O4 0.000000 0.000000 0.000000
O O5 0.001256 0.958083 0.135579
O O6 0.750000 0.750000 0.000000
O O7 0.746472 0.207223 0.739129
O O8 0.000000 0.920324 0.750000
#
# Coordination Sequence:
#
# PCOD9280716 Si02
#       3
#     8   8   8
#     4  10  21  37  62  97 133 170 223 290 347 403
#     4  10  23  43  70 102 137 185 240 295 351 426
#     4  12  28  50  74 107 150 195 240 299 370 437
#
# _framework density 28.243668
#
# number of rings (size 3 to 8) (size 9 to 14) (size 15 to 20)
#    0.000    1.333    0.000    4.000    0.000   16.000 
#    0.000    0.000    0.000    0.000    0.000    0.000 
#    0.000    0.000    0.000    0.000    0.000    0.000 
#
# Total GULP energy -67194.100856 kJ/mol
# GULP energy per Si atom -5599.508405 kJ/mol
# Density = 2.817938 g / cm^3
# Si number density = 28.243668 Si / 1000 Ang^3
#
#
#
# Elastic Constant Matrix: (Units=GPa)
#
#
# Indices 1 2 3 4 5 6 
#
# 1 285.2493 63.1734 27.3775 0.0000 12.4349 0.0000
# 2 63.1734 142.9645 24.8102 0.0000 27.5754 0.0000
# 3 27.3775 24.8102 162.3496 0.0000 13.6895 0.0000
# 4 0.0000 0.0000 0.0000 62.6828 0.0000 19.3479
# 5 12.4349 27.5754 13.6895 0.0000 39.5624 0.0000
# 6 0.0000 0.0000 0.0000 19.3479 0.0000 71.4463
#
#
#
# Elastic Compliance Matrix: (Units=1/GPa)
#
#
# Indices 1 2 3 4 5 6 
#
# 1 0.003912 -0.001673 -0.000411 0.000000 0.000078 0.000000
# 2 -0.001673 0.008894 -0.000617 0.000000 -0.005460 0.000000
# 3 -0.000411 -0.000617 0.006465 0.000000 -0.001678 0.000000
# 4 0.000000 0.000000 0.000000 0.017408 0.000000 -0.004714
# 5 0.000078 -0.005460 -0.001678 0.000000 0.029638 0.000000
# 6 0.000000 0.000000 0.000000 -0.004714 0.000000 0.015273
#
#
# Mechanical properties :
#
#
# Convention : Reuss Voigt Hill
#
# Bulk Modulus (GPa) = 72.09434 91.25398 81.67416
# Shear Modulus (GPa) = 54.57676 66.41844 60.49760
#
# Velocity S-wave (km/s) = 4.40062 4.85461 4.63318
# Velocity P-wave (km/s) = 7.16951 7.98766 7.58962
#
# Compressibility (1/GPa) = 0.01387071
#
# Stress axis : x y z
#
# Youngs Moduli (GPa) = 255.61582 112.43554 154.69008
#
# Poissons Ratio (x) = 0.18805 0.06353
# Poissons Ratio (y) = 0.42752 0.09540
# Poissons Ratio (z) = 0.10499 0.06934
#
# Static dielectric constant tensor:
#      x y z
#    x 2.265860 0.000000 -0.064520 
#    y 0.000000 2.900990 0.000000 
#    z -0.064520 0.000000 2.344060 
# 
# From -- ./inp_files/286862.got.cif
#   From: 2010.05.17/outbox.cif.g08.bks.cpg/sg15_144_cif.got.tgz:286862.got - 2010.06.03 18:47:42.
