data_PCOD9280447
_publ_section_title
;
Structure prediction by ZEFSAII (Michael W. Deem and Ramdas Pophale) SiO2 
 PCOD9280447
Probable space group: C 2/C
;
_chemical_formula_sum "Si O2"
_cell_formula_units_Z 64
_cell_length_a 33.355268
_cell_length_b 5.287910
_cell_length_c 14.672214
_cell_angle_alpha 90.000000
_cell_angle_beta 88.555918
_cell_angle_gamma 90.000000
_cell_volume 2587.058126
_symmetry_space_group_name_H-M "C 2/C"
_symmetry_group_IT_number 15
_symmetry_cell_setting 'monoclinic'
loop_
_space_group_symop_operation_xyz
x,y,z
-x,y,1/2-z
-x,-y,-z
x,-y,1/2+z
1/2+x,1/2+y,z
1/2-x,1/2+y,1/2-z
1/2-x,1/2-y,-z
1/2+x,1/2-y,1/2+z
loop_
_atom_site_type_symbol
_atom_site_label
_atom_site_fract_x
_atom_site_fract_y
_atom_site_fract_z
Si Si1 0.043338 0.384887 0.986048
Si Si2 0.244317 0.651147 0.153106
Si Si3 0.952538 0.591189 0.231689
Si Si4 0.908696 0.913630 0.722988
Si Si5 0.667442 0.532112 0.023141
Si Si6 0.682907 0.531123 0.726777
Si Si7 0.421017 0.387898 0.504288
Si Si8 0.710608 0.006772 0.971804
O O1 0.051250 0.382456 0.877584
O O2 0.046619 0.101509 0.022742
O O3 0.071894 0.601106 0.026478
O O4 0.000000 0.500000 0.000000
O O5 0.281007 0.571400 0.213568
O O6 0.236797 0.486428 0.062883
O O7 0.201306 0.688551 0.204387
O O8 0.259797 0.918715 0.110681
O O9 0.933876 0.856399 0.265860
O O10 0.000000 0.559296 0.250000
O O11 0.925197 0.351746 0.261838
O O12 0.918192 0.886910 0.614679
O O13 0.861474 0.985576 0.731611
O O14 0.679681 0.584547 0.126147
O O15 0.684613 0.262184 0.989210
O O16 0.682766 0.765307 0.961937
O O17 0.620282 0.502820 0.026514
#
# Coordination Sequence:
#
# PCOD9280447 Si02
#       8
#     8   8   8   8   8   8   8   8
#     4  10  21  37  60  87 115 153 199 245 298 369
#     4  10  23  41  63  91 128 170 214 263 314 369
#     4  10  22  41  64  90 122 159 199 248 316 381
#     4  10  23  40  61  91 125 163 202 251 312 375
#     4  11  23  40  63  91 120 160 213 262 308 364
#     4  11  24  39  63  96 129 164 215 268 313 362
#     4  10  21  38  58  84 120 158 197 245 307 370
#     4  10  23  42  64  87 120 169 213 253 312 372
#
# _framework density 24.738527000000001
#
# number of rings (size 3 to 8) (size 9 to 14) (size 15 to 20)
#    0.000    1.750    0.000    3.000    0.000   13.500 
#    0.000    0.000    0.000    0.000    0.000    0.000 
#    0.000    0.000    0.000    0.000    0.000    0.000 
#
# Total GULP energy -178904.532594 kJ/mol
# GULP energy per Si atom -5590.766644 kJ/mol
# Density = 2.468222 g / cm^3
# Si number density = 24.738527 Si / 1000 Ang^3
#
#
#
# Elastic Constant Matrix: (Units=GPa)
#
#
# Indices 1 2 3 4 5 6 
#
# 1 111.3798 39.2853 -13.4389 0.0000 11.5062 0.0000
# 2 39.2853 123.9448 28.2401 0.0000 0.2401 0.0000
# 3 -13.4389 28.2401 46.6333 0.0000 16.4150 0.0000
# 4 0.0000 0.0000 0.0000 21.8544 0.0000 -1.3850
# 5 11.5062 0.2401 16.4150 0.0000 35.8675 0.0000
# 6 0.0000 0.0000 0.0000 -1.3850 0.0000 40.1894
#
#
#
# Elastic Compliance Matrix: (Units=1/GPa)
#
#
# Indices 1 2 3 4 5 6 
#
# 1 0.013887 -0.007051 0.011709 0.000000 -0.009767 0.000000
# 2 -0.007051 0.013221 -0.012878 0.000000 0.008067 0.000000
# 3 0.011709 -0.012878 0.040420 0.000000 -0.022169 0.000000
# 4 0.000000 0.000000 0.000000 0.045858 0.000000 0.001580
# 5 -0.009767 0.008067 -0.022169 0.000000 0.041105 0.000000
# 6 0.000000 0.000000 0.000000 0.001580 0.000000 0.024937
#
#
# Mechanical properties :
#
#
# Convention : Reuss Voigt Hill
#
# Bulk Modulus (GPa) = 19.57310 43.34790 31.46050
# Shear Modulus (GPa) = 23.48558 34.77368 29.12963
#
# Velocity S-wave (km/s) = 3.08450 3.75327 3.43520
# Velocity P-wave (km/s) = 4.54034 6.02853 5.33656
#
# Compressibility (1/GPa) = 0.05109052
#
# Stress axis : x y z
#
# Youngs Moduli (GPa) = 72.01017 75.63490 24.73994
#
# Poissons Ratio (x) = 0.53327 -0.28969
# Poissons Ratio (y) = 0.50771 0.31860
# Poissons Ratio (z) = -0.84320 0.97403
#
# Static dielectric constant tensor:
#      x y z
#    x 1.953350 0.000000 -0.041510 
#    y 0.000000 2.103860 0.000000 
#    z -0.041510 0.000000 2.052330 
# 
# From -- ./inp_files/223901.got.cif
#   From: 2010.05.17/outbox.cif.g08.bks.cpg/sg15_112_cif.got.tgz:223901.got - 2010.06.03 18:47:42.
