data_PCOD9280796
_publ_section_title
;
Structure prediction by ZEFSAII (Michael W. Deem and Ramdas Pophale) SiO2 
 PCOD9280796
Probable space group: C 2/C
;
_chemical_formula_sum "Si O2"
_cell_formula_units_Z 48
_cell_length_a 11.941057
_cell_length_b 20.846950
_cell_length_c 11.218143
_cell_angle_alpha 90.000000
_cell_angle_beta 51.321123
_cell_angle_gamma 90.000000
_cell_volume 2180.061140
_symmetry_space_group_name_H-M "C 2/C"
_symmetry_group_IT_number 15
_symmetry_cell_setting 'monoclinic'
loop_
_space_group_symop_operation_xyz
x,y,z
-x,y,1/2-z
-x,-y,-z
x,-y,1/2+z
1/2+x,1/2+y,z
1/2-x,1/2+y,1/2-z
1/2-x,1/2-y,-z
1/2+x,1/2-y,1/2+z
loop_
_atom_site_type_symbol
_atom_site_label
_atom_site_fract_x
_atom_site_fract_y
_atom_site_fract_z
Si Si1 0.162515 0.080651 0.096505
Si Si2 0.576417 0.988840 0.576925
Si Si3 0.644373 0.845287 0.503348
Si Si4 0.655768 0.286051 0.709815
Si Si5 0.794016 0.844087 0.165379
Si Si6 0.917145 0.791848 0.462844
O O1 0.215812 0.145298 0.128328
O O2 0.000000 0.069124 0.250000
O O3 0.172673 0.101507 0.951919
O O4 0.268910 0.022008 0.041422
O O5 0.500000 0.014314 0.750000
O O6 0.594752 0.912956 0.583343
O O7 0.500000 0.000000 0.500000
O O8 0.672090 0.856039 0.343749
O O9 0.790543 0.820973 0.468763
O O10 0.546381 0.782737 0.586719
O O11 0.500000 0.278580 0.750000
O O12 0.751671 0.222785 0.628055
O O13 0.631975 0.291724 0.867031
O O14 0.939574 0.832066 0.139889
#
# Coordination Sequence:
#
# PCOD9280796 Si02
#       6
#     8   8   8   8   8   8
#     4  11  24  44  69 102 137 184 236 283 348 413
#     4  12  30  50  72 102 143 193 240 291 350 419
#     4  10  25  42  65  97 139 178 228 284 349 417
#     4  10  21  37  64 101 137 177 225 287 348 405
#     4  11  21  39  69 100 134 176 231 288 346 410
#     4  10  21  40  66 100 132 175 223 285 349 414
#
# _framework density 22.017731000000001
#
# number of rings (size 3 to 8) (size 9 to 14) (size 15 to 20)
#    0.000    1.333    3.333    2.000    4.667    6.000 
#    0.000    2.500    0.000    0.000    0.000    0.000 
#    0.000    0.000    0.000    0.000    0.000    0.000 
#
# Total GULP energy -134106.736710 kJ/mol
# GULP energy per Si atom -5587.780696 kJ/mol
# Density = 2.196762 g / cm^3
# Si number density = 22.017731 Si / 1000 Ang^3
#
#
#
# Elastic Constant Matrix: (Units=GPa)
#
#
# Indices 1 2 3 4 5 6 
#
# 1 70.0753 37.1719 24.7491 0.0000 18.9713 0.0000
# 2 37.1719 97.3302 27.9214 0.0000 1.0384 0.0000
# 3 24.7491 27.9214 123.2344 0.0000 23.1818 0.0000
# 4 0.0000 0.0000 0.0000 12.9755 0.0000 5.9227
# 5 18.9713 1.0384 23.1818 0.0000 26.5771 0.0000
# 6 0.0000 0.0000 0.0000 5.9227 0.0000 26.5184
#
#
#
# Elastic Compliance Matrix: (Units=1/GPa)
#
#
# Indices 1 2 3 4 5 6 
#
# 1 0.023336 -0.008868 0.000468 0.000000 -0.016719 0.000000
# 2 -0.008868 0.014456 -0.003085 0.000000 0.008456 0.000000
# 3 0.000468 -0.003085 0.010479 0.000000 -0.009354 0.000000
# 4 0.000000 0.000000 0.000000 0.085817 0.000000 -0.019167
# 5 -0.016719 0.008456 -0.009354 0.000000 0.057389 0.000000
# 6 0.000000 0.000000 0.000000 -0.019167 0.000000 0.041990
#
#
# Mechanical properties :
#
#
# Convention : Reuss Voigt Hill
#
# Bulk Modulus (GPa) = 39.52551 52.25831 45.89191
# Shear Modulus (GPa) = 18.87710 26.60069 22.73889
#
# Velocity S-wave (km/s) = 2.93125 3.47961 3.21714
# Velocity P-wave (km/s) = 5.42650 6.31900 5.88968
#
# Compressibility (1/GPa) = 0.02530012
#
# Stress axis : x y z
#
# Youngs Moduli (GPa) = 42.85309 69.17565 95.42686
#
# Poissons Ratio (x) = 0.61345 -0.04464
# Poissons Ratio (y) = 0.38002 0.29440
# Poissons Ratio (z) = -0.02005 0.21341
#
# Static dielectric constant tensor:
#      x y z
#    x 1.799300 0.000000 0.047460 
#    y 0.000000 1.784620 0.000000 
#    z 0.047460 0.000000 1.900190 
# 
# From -- ./inp_files/89385.got.cif
#   From: 2010.05.17/outbox.cif.g08.bks.cpg/sg15_45_cif.got.tgz:89385.got - 2010.06.03 18:47:42.
