data_PCOD9280748
_publ_section_title
;
Structure prediction by ZEFSAII (Michael W. Deem and Ramdas Pophale) SiO2 
 PCOD9280748
Probable space group: C 2/C
;
_chemical_formula_sum "Si O2"
_cell_formula_units_Z 56
_cell_length_a 15.269597
_cell_length_b 15.124822
_cell_length_c 10.332392
_cell_angle_alpha 90.000000
_cell_angle_beta 96.781261
_cell_angle_gamma 90.000000
_cell_volume 2369.571395
_symmetry_space_group_name_H-M "C 2/C"
_symmetry_group_IT_number 15
_symmetry_cell_setting 'monoclinic'
loop_
_space_group_symop_operation_xyz
x,y,z
-x,y,1/2-z
-x,-y,-z
x,-y,1/2+z
1/2+x,1/2+y,z
1/2-x,1/2+y,1/2-z
1/2-x,1/2-y,-z
1/2+x,1/2-y,1/2+z
loop_
_atom_site_type_symbol
_atom_site_label
_atom_site_fract_x
_atom_site_fract_y
_atom_site_fract_z
Si Si1 0.282321 0.175686 0.751513
Si Si2 0.745694 0.888947 0.520150
Si Si3 0.899403 0.609782 0.132008
Si Si4 0.706538 0.641750 0.184243
Si Si5 0.108189 0.486599 0.115434
Si Si6 0.898569 0.976401 0.970969
Si Si7 0.590237 0.317372 0.331051
O O1 0.287686 0.174533 0.597861
O O2 0.323349 0.257239 0.839707
O O3 0.329757 0.086699 0.805763
O O4 0.178052 0.177193 0.761051
O O5 0.759374 0.850238 0.663673
O O6 0.666542 0.955933 0.529323
O O7 0.833454 0.944172 0.497175
O O8 0.791243 0.616149 0.112374
O O9 0.916395 0.551471 0.267014
O O10 0.924708 0.713436 0.143188
O O11 0.942046 0.570467 0.006797
O O12 0.636251 0.562554 0.170886
O O13 0.887200 0.885785 0.050882
O O14 0.000000 0.000000 0.000000
O O15 0.500000 0.350227 0.250000
#
# Coordination Sequence:
#
# PCOD9280748 Si02
#       7
#     8   8   8   8   8   8   8
#     4  11  20  37  62  91 123 159 206 264 309 373
#     4  11  20  35  57  91 125 157 207 253 313 371
#     4  10  21  37  63  91 121 161 210 264 313 372
#     4  10  22  37  57  90 127 160 205 257 313 366
#     4  11  18  36  64  91 120 154 209 263 316 358
#     4  12  24  37  61  88 126 171 208 250 315 391
#     4  11  24  40  59  87 126 167 208 254 318 383
#
# _framework density 23.632964999999999
#
# number of rings (size 3 to 8) (size 9 to 14) (size 15 to 20)
#    0.000    1.143    4.286    3.000    2.000    2.286 
#    0.000    0.714    0.000    0.000    0.000    0.000 
#    0.000    0.000    0.000    0.000    0.000    0.000 
#
# Total GULP energy -156161.318785 kJ/mol
# GULP energy per Si atom -5577.189957 kJ/mol
# Density = 2.357918 g / cm^3
# Si number density = 23.632965 Si / 1000 Ang^3
#
#
#
# Elastic Constant Matrix: (Units=GPa)
#
#
# Indices 1 2 3 4 5 6 
#
# 1 55.7398 7.3091 -12.0479 0.0000 -6.3722 0.0000
# 2 7.3091 95.2553 6.6646 0.0000 -11.8083 0.0000
# 3 -12.0479 6.6646 78.5815 0.0000 5.1463 0.0000
# 4 0.0000 0.0000 0.0000 44.1539 0.0000 2.5359
# 5 -6.3722 -11.8083 5.1463 0.0000 23.2359 0.0000
# 6 0.0000 0.0000 0.0000 2.5359 0.0000 15.4104
#
#
#
# Elastic Compliance Matrix: (Units=1/GPa)
#
#
# Indices 1 2 3 4 5 6 
#
# 1 0.019154 -0.001162 0.002770 0.000000 0.004049 0.000000
# 2 -0.001162 0.011416 -0.001528 0.000000 0.005821 0.000000
# 3 0.002770 -0.001528 0.013476 0.000000 -0.003001 0.000000
# 4 0.000000 0.000000 0.000000 0.022864 0.000000 -0.003763
# 5 0.004049 0.005821 -0.003001 0.000000 0.047770 0.000000
# 6 0.000000 0.000000 0.000000 -0.003763 0.000000 0.065510
#
#
# Mechanical properties :
#
#
# Convention : Reuss Voigt Hill
#
# Bulk Modulus (GPa) = 22.62011 25.93648 24.27829
# Shear Modulus (GPa) = 25.67188 31.73676 28.70432
#
# Velocity S-wave (km/s) = 3.29944 3.66854 3.48888
# Velocity P-wave (km/s) = 4.90992 5.37985 5.15025
#
# Compressibility (1/GPa) = 0.04420845
#
# Stress axis : x y z
#
# Youngs Moduli (GPa) = 52.20722 87.59846 74.20353
#
# Poissons Ratio (x) = 0.10176 -0.20555
# Poissons Ratio (y) = 0.06065 0.11335
# Poissons Ratio (z) = -0.14462 0.13381
#
# Static dielectric constant tensor:
#      x y z
#    x 2.013440 0.000000 0.024630 
#    y 0.000000 2.059010 0.000000 
#    z 0.024630 0.000000 2.035200 
# 
# From -- ./inp_files/97016.got.cif
#   From: 2010.05.17/outbox.cif.g08.bks.cpg/sg15_49_cif.got.tgz:97016.got - 2010.06.03 18:47:42.
