data_PCOD9280469
_publ_section_title
;
Structure prediction by ZEFSAII (Michael W. Deem and Ramdas Pophale) SiO2 
 PCOD9280469
Probable space group: C 2/C
;
_chemical_formula_sum "Si O2"
_cell_formula_units_Z 40
_cell_length_a 6.837430
_cell_length_b 14.153756
_cell_length_c 16.582909
_cell_angle_alpha 90.000000
_cell_angle_beta 73.884142
_cell_angle_gamma 90.000000
_cell_volume 1541.750771
_symmetry_space_group_name_H-M "C 2/C"
_symmetry_group_IT_number 15
_symmetry_cell_setting 'monoclinic'
loop_
_space_group_symop_operation_xyz
x,y,z
-x,y,1/2-z
-x,-y,-z
x,-y,1/2+z
1/2+x,1/2+y,z
1/2-x,1/2+y,1/2-z
1/2-x,1/2-y,-z
1/2+x,1/2-y,1/2+z
loop_
_atom_site_type_symbol
_atom_site_label
_atom_site_fract_x
_atom_site_fract_y
_atom_site_fract_z
Si Si1 0.869693 0.088688 0.542787
Si Si2 0.907202 0.805798 0.611766
Si Si3 0.947987 0.590981 0.662143
Si Si4 0.279383 0.909866 0.726426
Si Si5 0.015619 0.240373 0.844889
O O1 0.640683 0.057704 0.587585
O O2 0.916689 0.164928 0.468266
O O3 0.944446 0.144032 0.613804
O O4 0.000000 0.000000 0.500000
O O5 0.881456 0.882981 0.686219
O O6 0.679351 0.798093 0.599192
O O7 0.915785 0.697566 0.638310
O O8 0.000000 0.601700 0.750000
O O9 0.776801 0.509181 0.681032
O O10 0.500000 0.913152 0.750000
O O11 0.301275 0.815909 0.670049
O O12 0.000000 0.221259 0.750000
#
# Coordination Sequence:
#
# PCOD9280469 Si02
#       5
#     8   8   8   8   8
#     4  12  23  38  60  90 122 155 193 245 300 346
#     4  10  21  37  60  89 118 153 200 248 290 341
#     4  11  21  38  61  88 122 158 194 242 294 350
#     4   8  17  36  60  82 111 159 199 228 284 353
#     4   9  19  39  62  83 113 161 203 235 281 354
#
# _framework density 25.94453
#
# number of rings (size 3 to 8) (size 9 to 14) (size 15 to 20)
#    0.000    2.400    0.000    7.200    0.000    0.000 
#    0.000    9.000    0.000    0.000    0.000    0.000 
#    0.000    0.000    0.000    0.000    0.000    0.000 
#
# Total GULP energy -111818.346653 kJ/mol
# GULP energy per Si atom -5590.917333 kJ/mol
# Density = 2.588548 g / cm^3
# Si number density = 25.944530 Si / 1000 Ang^3
#
#
#
# Elastic Constant Matrix: (Units=GPa)
#
#
# Indices 1 2 3 4 5 6 
#
# 1 39.2695 26.6769 36.0654 0.0000 -9.8091 0.0000
# 2 26.6769 212.4852 77.5359 0.0000 -1.2900 0.0000
# 3 36.0654 77.5359 161.2350 0.0000 -25.7783 0.0000
# 4 0.0000 0.0000 0.0000 62.2434 0.0000 -9.2448
# 5 -9.8091 -1.2900 -25.7783 0.0000 40.9252 0.0000
# 6 0.0000 0.0000 0.0000 -9.2448 0.0000 29.6072
#
#
#
# Elastic Compliance Matrix: (Units=1/GPa)
#
#
# Indices 1 2 3 4 5 6 
#
# 1 0.033211 -0.002040 -0.005766 0.000000 0.004264 0.000000
# 2 -0.002040 0.005944 -0.002725 0.000000 -0.002018 0.000000
# 3 -0.005766 -0.002725 0.009527 0.000000 0.004533 0.000000
# 4 0.000000 0.000000 0.000000 0.016847 0.000000 0.005261
# 5 0.004264 -0.002018 0.004533 0.000000 0.028248 0.000000
# 6 0.000000 0.000000 0.000000 0.005261 0.000000 0.035418
#
#
# Mechanical properties :
#
#
# Convention : Reuss Voigt Hill
#
# Bulk Modulus (GPa) = 36.20408 77.06068 56.63238
# Shear Modulus (GPa) = 31.35471 44.73593 38.04532
#
# Velocity S-wave (km/s) = 3.48016 4.15696 3.83353
# Velocity P-wave (km/s) = 5.48939 7.26684 6.43974
#
# Compressibility (1/GPa) = 0.02762120
#
# Stress axis : x y z
#
# Youngs Moduli (GPa) = 30.11008 168.22648 104.96385
#
# Poissons Ratio (x) = 0.34311 0.60525
# Poissons Ratio (y) = 0.06141 0.28602
# Poissons Ratio (z) = 0.17362 0.45841
#
# Static dielectric constant tensor:
#      x y z
#    x 2.331260 0.000000 -0.035540 
#    y 0.000000 2.116290 0.000000 
#    z -0.035540 0.000000 2.017810 
# 
# From -- ./inp_files/237366.got.cif
#   From: 2010.05.17/outbox.cif.g08.bks.cpg/sg15_119_cif.got.tgz:237366.got - 2010.06.03 18:47:42.
