data_PCOD9280828
_publ_section_title
;
Structure prediction by ZEFSAII (Michael W. Deem and Ramdas Pophale) SiO2 
 PCOD9280828
Probable space group: C 2/C
;
_chemical_formula_sum "Si O2"
_cell_formula_units_Z 56
_cell_length_a 21.502584
_cell_length_b 14.855677
_cell_length_c 19.290943
_cell_angle_alpha 90.000000
_cell_angle_beta 153.960805
_cell_angle_gamma 90.000000
_cell_volume 2705.123660
_symmetry_space_group_name_H-M "C 2/C"
_symmetry_group_IT_number 15
_symmetry_cell_setting 'monoclinic'
loop_
_space_group_symop_operation_xyz
x,y,z
-x,y,1/2-z
-x,-y,-z
x,-y,1/2+z
1/2+x,1/2+y,z
1/2-x,1/2+y,1/2-z
1/2-x,1/2-y,-z
1/2+x,1/2-y,1/2+z
loop_
_atom_site_type_symbol
_atom_site_label
_atom_site_fract_x
_atom_site_fract_y
_atom_site_fract_z
Si Si1 0.461872 0.252377 0.525867
Si Si2 0.208434 0.642764 0.815183
Si Si3 0.003664 0.299473 0.600836
Si Si4 0.643206 0.959502 0.111905
Si Si5 0.394893 0.488275 0.587306
Si Si6 0.422952 0.546419 0.358448
Si Si7 0.712972 0.684434 0.026896
O O1 0.309874 0.271727 0.406099
O O2 0.549116 0.178625 0.656345
O O3 0.460195 0.227566 0.442533
O O4 0.539986 0.348758 0.607946
O O5 0.217997 0.589456 0.751792
O O6 0.271662 0.579023 0.937759
O O7 0.148101 0.321503 0.785447
O O8 0.902889 0.386385 0.490891
O O9 0.914108 0.226177 0.554032
O O10 0.755870 0.029667 0.195917
O O11 0.500000 0.000000 0.000000
O O12 0.500000 0.448930 0.750000
O O13 0.502061 0.501417 0.630799
O O14 0.331016 0.585133 0.542600
O O15 0.500000 0.500000 0.500000
O O16 0.750000 0.750000 0.000000
#
# Coordination Sequence:
#
# PCOD9280828 Si02
#       7
#     8   8   8   8   8   8   8
#     4  10  21  37  64  94 127 162 214 273 334 383
#     4  10  22  40  61  98 124 169 212 271 328 385
#     4  11  24  37  63  91 130 166 215 267 332 388
#     4  11  23  37  62  97 129 161 215 273 331 383
#     4  11  24  43  68  89 132 175 222 269 332 401
#     4  11  22  39  66  95 128 174 219 271 334 395
#     4  12  26  42  61  92 131 182 217 264 322 409
#
# _framework density 20.701456
#
# number of rings (size 3 to 8) (size 9 to 14) (size 15 to 20)
#    0.000    1.143    2.857    4.714   10.000    0.000 
#    0.000    2.857    0.000    0.000    0.000    0.000 
#    0.000    0.000    0.000    0.000    0.000    0.000 
#
# Total GULP energy -156444.800970 kJ/mol
# GULP energy per Si atom -5587.314320 kJ/mol
# Density = 2.065434 g / cm^3
# Si number density = 20.701456 Si / 1000 Ang^3
#
#
#
# Elastic Constant Matrix: (Units=GPa)
#
#
# Indices 1 2 3 4 5 6 
#
# 1 39.9703 3.4410 9.1544 -0.0002 -5.8090 -0.0003
# 2 3.4410 54.9864 29.8057 -0.0002 -6.0274 -0.0003
# 3 9.1544 29.8057 116.0395 -0.0001 -5.1682 -0.0002
# 4 -0.0002 -0.0002 -0.0001 47.9322 0.0000 10.1734
# 5 -5.8090 -6.0274 -5.1682 0.0000 29.4268 -0.0001
# 6 -0.0003 -0.0003 -0.0002 10.1734 -0.0001 32.2515
#
#
#
# Elastic Compliance Matrix: (Units=1/GPa)
#
#
# Indices 1 2 3 4 5 6 
#
# 1 0.026145 -0.000124 -0.001816 0.000000 0.004817 0.000000
# 2 -0.000124 0.021472 -0.005353 0.000000 0.003434 0.000000
# 3 -0.001816 -0.005353 0.010150 0.000000 0.000328 0.000000
# 4 0.000000 0.000000 0.000000 0.022360 0.000000 -0.007053
# 5 0.004817 0.003434 0.000328 0.000000 0.035694 0.000000
# 6 0.000000 0.000000 0.000000 -0.007053 0.000000 0.033231
#
#
# Mechanical properties :
#
#
# Convention : Reuss Voigt Hill
#
# Bulk Modulus (GPa) = 23.15743 32.86647 28.01195
# Shear Modulus (GPa) = 28.08484 33.16178 30.62331
#
# Velocity S-wave (km/s) = 3.68728 4.00672 3.85032
# Velocity P-wave (km/s) = 5.41652 6.10868 5.77299
#
# Compressibility (1/GPa) = 0.04318269
#
# Stress axis : x y z
#
# Youngs Moduli (GPa) = 38.24783 46.57272 98.51739
#
# Poissons Ratio (x) = 0.00576 0.17894
# Poissons Ratio (y) = 0.00473 0.52732
# Poissons Ratio (z) = 0.06947 0.24928
#
# Static dielectric constant tensor:
#      x y z
#    x 1.721740 0.000000 0.034310 
#    y 0.000000 1.776290 0.000000 
#    z 0.034310 0.000000 1.758890 
# 
# From -- ./inp_files/215777.got.cif
#   From: 2010.05.17/outbox.cif.g08.bks.cpg/sg15_108_cif.got.tgz:215777.got - 2010.06.03 18:47:42.
