data_PCOD9280087
_publ_section_title
;
Structure prediction by ZEFSAII (Michael W. Deem and Ramdas Pophale) SiO2 
 PCOD9280087
Probable space group: C 2/C
;
_chemical_formula_sum "Si O2"
_cell_formula_units_Z 44
_cell_length_a 6.540825
_cell_length_b 17.107237
_cell_length_c 14.624099
_cell_angle_alpha 90.000000
_cell_angle_beta 82.207946
_cell_angle_gamma 90.000000
_cell_volume 1621.260869
_symmetry_space_group_name_H-M "C 2/C"
_symmetry_group_IT_number 15
_symmetry_cell_setting 'monoclinic'
loop_
_space_group_symop_operation_xyz
x,y,z
-x,y,1/2-z
-x,-y,-z
x,-y,1/2+z
1/2+x,1/2+y,z
1/2-x,1/2+y,1/2-z
1/2-x,1/2-y,-z
1/2+x,1/2-y,1/2+z
loop_
_atom_site_type_symbol
_atom_site_label
_atom_site_fract_x
_atom_site_fract_y
_atom_site_fract_z
Si Si1 0.923490 0.190893 0.953195
Si Si2 0.213415 0.321011 0.182817
Si Si3 0.488056 0.564169 0.419490
Si Si4 0.451712 0.052613 0.358472
Si Si5 0.482103 0.110755 0.544974
Si Si6 0.500000 0.541000 0.750000
O O1 0.760887 0.125241 0.927715
O O2 0.070092 0.220497 0.861603
O O3 0.750000 0.250000 0.000000
O O4 0.050532 0.145414 0.024228
O O5 0.104133 0.324834 0.091266
O O6 0.320127 0.401421 0.218447
O O7 0.000000 0.299428 0.250000
O O8 0.500000 0.500000 0.500000
O O9 0.050161 0.601977 0.435677
O O10 0.718560 0.581448 0.372965
O O11 0.500000 0.053667 0.250000
O O12 0.459291 0.967287 0.403873
O O13 0.906974 0.018092 0.333820
#
# Coordination Sequence:
#
# PCOD9280087 Si02
#       6
#     8   8   8   8   8   4
#     4  11  26  49  76 109 160 215 264 333 417 494
#     4  12  25  43  75 118 149 206 262 333 401 487
#     4  11  23  42  73 113 154 201 259 334 403 470
#     4  10  21  36  66 109 145 186 244 320 390 461
#     4  10  22  41  69 106 146 198 252 314 398 477
#     4  12  24  42  76 116 160 194 272 342 410 470
#
# _framework density 27.139372999999999
#
# number of rings (size 3 to 8) (size 9 to 14) (size 15 to 20)
#    0.000    1.091    3.636    1.636    5.091    3.636 
#    0.000    0.000   32.000    0.000    0.000    0.000 
#    0.000    0.000    0.000    0.000    0.000    0.000 
#
# Total GULP energy -122480.315642 kJ/mol
# GULP energy per Si atom -5567.287075 kJ/mol
# Density = 2.707760 g / cm^3
# Si number density = 27.139373 Si / 1000 Ang^3
#
#
#
# Elastic Constant Matrix: (Units=GPa)
#
#
# Indices 1 2 3 4 5 6 
#
# 1 109.3521 16.0690 50.7835 0.0000 2.6146 0.0000
# 2 16.0690 78.7025 45.5550 0.0000 -4.5038 0.0000
# 3 50.7835 45.5550 266.6983 0.0000 -17.0296 0.0000
# 4 0.0000 0.0000 0.0000 18.6670 0.0000 -14.5824
# 5 2.6146 -4.5038 -17.0296 0.0000 74.6848 0.0000
# 6 0.0000 0.0000 0.0000 -14.5824 0.0000 24.0525
#
#
#
# Elastic Compliance Matrix: (Units=1/GPa)
#
#
# Indices 1 2 3 4 5 6 
#
# 1 0.010161 -0.001078 -0.001804 0.000000 -0.000832 0.000000
# 2 -0.001078 0.014221 -0.002199 0.000000 0.000394 0.000000
# 3 -0.001804 -0.002199 0.004530 0.000000 0.000964 0.000000
# 4 0.000000 0.000000 0.000000 0.101769 0.000000 0.061700
# 5 -0.000832 0.000394 0.000964 0.000000 0.013662 0.000000
# 6 0.000000 0.000000 0.000000 0.061700 0.000000 0.078983
#
#
# Mechanical properties :
#
#
# Convention : Reuss Voigt Hill
#
# Bulk Modulus (GPa) = 53.33018 75.50755 64.41886
# Shear Modulus (GPa) = 20.85608 46.30387 33.57998
#
# Velocity S-wave (km/s) = 2.77516 4.13504 3.52137
# Velocity P-wave (km/s) = 5.47374 7.11903 6.34990
#
# Compressibility (1/GPa) = 0.01875111
#
# Stress axis : x y z
#
# Youngs Moduli (GPa) = 98.41791 70.31641 220.74539
#
# Poissons Ratio (x) = 0.07581 0.39817
# Poissons Ratio (y) = 0.10611 0.48536
# Poissons Ratio (z) = 0.17752 0.15461
#
# Static dielectric constant tensor:
#      x y z
#    x 2.393210 0.000000 -0.034670 
#    y 0.000000 2.331850 0.000000 
#    z -0.034670 0.000000 2.247920 
# 
# From -- ./inp_files/184833.got.cif
#   From: 2010.05.17/outbox.cif.g08.bks.cpg/sg15_93_cif.got.tgz:184833.got - 2010.06.03 18:47:42.
