data_PCOD9280328
_publ_section_title
;
Structure prediction by ZEFSAII (Michael W. Deem and Ramdas Pophale) SiO2 
 PCOD9280328
Probable space group: C 2/C
;
_chemical_formula_sum "Si O2"
_cell_formula_units_Z 64
_cell_length_a 14.321228
_cell_length_b 25.752048
_cell_length_c 9.611291
_cell_angle_alpha 90.000000
_cell_angle_beta 109.811801
_cell_angle_gamma 90.000000
_cell_volume 3334.848709
_symmetry_space_group_name_H-M "C 2/C"
_symmetry_group_IT_number 15
_symmetry_cell_setting 'monoclinic'
loop_
_space_group_symop_operation_xyz
x,y,z
-x,y,1/2-z
-x,-y,-z
x,-y,1/2+z
1/2+x,1/2+y,z
1/2-x,1/2+y,1/2-z
1/2-x,1/2-y,-z
1/2+x,1/2-y,1/2+z
loop_
_atom_site_type_symbol
_atom_site_label
_atom_site_fract_x
_atom_site_fract_y
_atom_site_fract_z
Si Si1 0.187823 0.662101 0.633081
Si Si2 0.054716 0.567379 0.641202
Si Si3 0.913808 0.546167 0.319793
Si Si4 0.109844 0.703750 0.869407
Si Si5 0.401040 0.325066 0.605319
Si Si6 0.794315 0.356788 0.838127
Si Si7 0.096827 0.165669 0.721185
Si Si8 0.887609 0.714716 0.171913
O O1 0.119326 0.611547 0.603332
O O2 0.183465 0.687404 0.783614
O O3 0.300045 0.643957 0.668559
O O4 0.145121 0.703921 0.502595
O O5 0.113469 0.514536 0.711159
O O6 0.000000 0.587574 0.750000
O O7 0.968115 0.551079 0.494293
O O8 0.827408 0.588579 0.287867
O O9 0.000000 0.557908 0.250000
O O10 0.125853 0.763708 0.915786
O O11 0.000000 0.700830 0.750000
O O12 0.127781 0.665582 0.007726
O O13 0.500000 0.330041 0.750000
O O14 0.311083 0.354238 0.638219
O O15 0.414040 0.340992 0.450534
O O16 0.806213 0.315467 0.720779
O O17 0.106517 0.226621 0.770425
O O18 0.000000 0.145158 0.750000
O O19 0.000000 0.693107 0.250000
#
# Coordination Sequence:
#
# PCOD9280328 Si02
#       8
#     8   8   8   8   8   8   8   8
#     4  12  22  36  59  84 115 159 197 229 287 349
#     4  10  21  37  58  89 119 150 184 233 294 348
#     4  10  21  37  58  88 123 147 183 236 291 351
#     4  11  21  34  57  84 116 149 191 236 284 347
#     4  11  25  40  57  81 115 154 202 245 286 330
#     4  12  20  37  59  82 113 156 194 235 284 351
#     4  11  25  41  54  81 117 155 197 247 286 332
#     4  11  23  35  54  86 121 153 191 233 287 345
#
# _framework density 19.191275000000001
#
# number of rings (size 3 to 8) (size 9 to 14) (size 15 to 20)
#    0.000    1.000    2.500    6.000    7.000    0.000 
#    0.000    0.000    0.000    0.750    0.000    1.750 
#    0.000    0.000    0.000    0.000    0.000    0.000 
#
# Total GULP energy -178706.881757 kJ/mol
# GULP energy per Si atom -5584.590055 kJ/mol
# Density = 1.914759 g / cm^3
# Si number density = 19.191275 Si / 1000 Ang^3
#
#
#
# Elastic Constant Matrix: (Units=GPa)
#
#
# Indices 1 2 3 4 5 6 
#
# 1 95.6703 12.0545 6.6794 0.0000 -4.7611 0.0000
# 2 12.0545 56.0430 -4.3794 0.0000 -6.9060 0.0000
# 3 6.6794 -4.3794 65.5101 0.0000 -9.5755 0.0000
# 4 0.0000 0.0000 0.0000 -16.9146 0.0000 5.7629
# 5 -4.7611 -6.9060 -9.5755 0.0000 34.5800 0.0000
# 6 0.0000 0.0000 0.0000 5.7629 0.0000 46.4365
#
#
#
# Elastic Compliance Matrix: (Units=1/GPa)
#
#
# Indices 1 2 3 4 5 6 
#
# 1 0.010864 -0.002340 -0.001161 0.000000 0.000707 0.000000
# 2 -0.002340 0.019011 0.002102 0.000000 0.004057 0.000000
# 3 -0.001161 0.002102 0.016218 0.000000 0.004751 0.000000
# 4 0.000000 0.000000 0.000000 -0.056722 0.000000 0.007039
# 5 0.000707 0.004057 0.004751 0.000000 0.031141 0.000000
# 6 0.000000 0.000000 0.000000 0.007039 0.000000 0.020661
#
#
# Mechanical properties :
#
#
# Convention : Reuss Voigt Hill
#
# Bulk Modulus (GPa) = 23.09702 27.32583 25.21143
# Shear Modulus (GPa) = 85.61307 26.34500 55.97903
#
# Velocity S-wave (km/s) = 6.68635 3.70910 5.40669
# Velocity P-wave (km/s) = 8.46587 5.71076 7.22093
#
# Compressibility (1/GPa) = 0.04329563
#
# Stress axis : x y z
#
# Youngs Moduli (GPa) = 92.04997 52.60111 61.65925
#
# Poissons Ratio (x) = 0.12310 0.07157
# Poissons Ratio (y) = 0.21542 -0.12964
# Poissons Ratio (z) = 0.10685 -0.11059
#
# Static dielectric constant tensor:
#      x y z
#    x 1.736090 0.000000 -0.019460 
#    y 0.000000 1.711830 0.000000 
#    z -0.019460 0.000000 1.711330 
# 
# From -- ./inp_files/43583.got.cif
#   From: 2010.05.17/outbox.cif.g08.bks.cpg/sg15_22_cif.got.tgz:43583.got - 2010.06.03 18:47:42.
