data_PCOD9280862
_publ_section_title
;
Structure prediction by ZEFSAII (Michael W. Deem and Ramdas Pophale) SiO2 
 PCOD9280862
Probable space group: C 2/C
;
_chemical_formula_sum "Si O2"
_cell_formula_units_Z 64
_cell_length_a 26.980749
_cell_length_b 7.984826
_cell_length_c 13.394466
_cell_angle_alpha 90.000000
_cell_angle_beta 112.626545
_cell_angle_gamma 90.000000
_cell_volume 2663.554917
_symmetry_space_group_name_H-M "C 2/C"
_symmetry_group_IT_number 15
_symmetry_cell_setting 'monoclinic'
loop_
_space_group_symop_operation_xyz
x,y,z
-x,y,1/2-z
-x,-y,-z
x,-y,1/2+z
1/2+x,1/2+y,z
1/2-x,1/2+y,1/2-z
1/2-x,1/2-y,-z
1/2+x,1/2-y,1/2+z
loop_
_atom_site_type_symbol
_atom_site_label
_atom_site_fract_x
_atom_site_fract_y
_atom_site_fract_z
Si Si1 0.167340 0.194717 0.171020
Si Si2 0.594264 0.690413 0.933790
Si Si3 0.851093 0.614965 0.191863
Si Si4 0.903605 0.208419 0.039651
Si Si5 0.791122 0.615923 0.488386
Si Si6 0.234174 0.485499 0.743412
Si Si7 0.501183 0.702306 0.509131
Si Si8 0.422076 0.204012 0.773325
O O1 0.207717 0.335643 0.243109
O O2 0.206588 0.046299 0.169827
O O3 0.123765 0.164734 0.223477
O O4 0.133686 0.261720 0.050693
O O5 0.616139 0.747169 0.844165
O O6 0.598500 0.491758 0.952159
O O7 0.533712 0.744551 0.919384
O O8 0.809042 0.649192 0.247377
O O9 0.894148 0.476538 0.259996
O O10 0.811247 0.521990 0.082454
O O11 0.932672 0.266602 0.165256
O O12 0.937791 0.252922 0.967119
O O13 0.845858 0.292126 0.998150
O O14 0.750000 0.750000 0.500000
O O15 0.763427 0.529303 0.373268
O O16 0.500000 0.500000 0.500000
O O17 0.468749 0.773918 0.389100
#
# Coordination Sequence:
#
# PCOD9280862 Si02
#       8
#     8   8   8   8   8   8   8   8
#     4  10  22  37  58  85 122 167 201 262 305 375
#     4  10  21  40  60  91 127 153 209 266 315 363
#     4  10  22  39  61  90 124 165 208 263 313 371
#     4  10  21  37  65  91 116 164 208 249 316 380
#     4  11  23  41  61  86 128 167 207 256 311 382
#     4  11  22  38  59  86 124 164 213 250 314 370
#     4   9  19  39  67  89 121 158 202 262 311 376
#     4   9  19  39  63  85 121 160 206 248 321 372
#
# _framework density 24.028037999999999
#
# number of rings (size 3 to 8) (size 9 to 14) (size 15 to 20)
#    0.000    2.000    1.250    2.625    3.500    2.500 
#    4.500    2.500    8.250    0.000    0.000    0.000 
#    0.000    0.000    0.000    0.000    0.000    0.000 
#
# Total GULP energy -178807.831108 kJ/mol
# GULP energy per Si atom -5587.744722 kJ/mol
# Density = 2.397335 g / cm^3
# Si number density = 24.028038 Si / 1000 Ang^3
#
#
#
# Elastic Constant Matrix: (Units=GPa)
#
#
# Indices 1 2 3 4 5 6 
#
# 1 85.6202 3.0253 -12.4561 0.0000 0.9791 0.0000
# 2 3.0253 23.5117 3.0638 0.0000 2.0442 0.0000
# 3 -12.4561 3.0638 44.7363 0.0000 -8.6486 0.0000
# 4 0.0000 0.0000 0.0000 24.6453 0.0000 -10.2589
# 5 0.9791 2.0442 -8.6486 0.0000 25.8118 0.0000
# 6 0.0000 0.0000 0.0000 -10.2589 0.0000 25.7103
#
#
#
# Elastic Compliance Matrix: (Units=1/GPa)
#
#
# Indices 1 2 3 4 5 6 
#
# 1 0.012291 -0.002155 0.003756 0.000000 0.000963 0.000000
# 2 -0.002155 0.043830 -0.004552 0.000000 -0.004915 0.000000
# 3 0.003756 -0.004552 0.025398 0.000000 0.008728 0.000000
# 4 0.000000 0.000000 0.000000 0.048658 0.000000 0.019415
# 5 0.000963 -0.004915 0.008728 0.000000 0.042019 0.000000
# 6 0.000000 0.000000 0.000000 0.019415 0.000000 0.046642
#
#
# Mechanical properties :
#
#
# Convention : Reuss Voigt Hill
#
# Bulk Modulus (GPa) = 13.22439 15.68158 14.45298
# Shear Modulus (GPa) = 20.00443 25.91581 22.96012
#
# Velocity S-wave (km/s) = 2.88852 3.28771 3.09456
# Velocity P-wave (km/s) = 4.07926 4.57740 4.33549
#
# Compressibility (1/GPa) = 0.07561786
#
# Stress axis : x y z
#
# Youngs Moduli (GPa) = 81.36013 22.81555 39.37307
#
# Poissons Ratio (x) = 0.04916 -0.14788
# Poissons Ratio (y) = 0.17531 0.17922
# Poissons Ratio (z) = -0.30559 0.10385
#
# Static dielectric constant tensor:
#      x y z
#    x 1.995900 0.000000 0.004640 
#    y 0.000000 1.950050 0.000000 
#    z 0.004640 0.000000 1.945300 
# 
# From -- ./inp_files/176643.got.cif
#   From: 2010.05.17/outbox.cif.g08.bks.cpg/sg15_89_cif.got.tgz:176643.got - 2010.06.03 18:47:42.
