data_PCOD9280763
_publ_section_title
;
Structure prediction by ZEFSAII (Michael W. Deem and Ramdas Pophale) SiO2 
 PCOD9280763
Probable space group: C 2/C
;
_chemical_formula_sum "Si O2"
_cell_formula_units_Z 60
_cell_length_a 29.106651
_cell_length_b 18.456213
_cell_length_c 12.483804
_cell_angle_alpha 90.000000
_cell_angle_beta 28.013452
_cell_angle_gamma 90.000000
_cell_volume 3149.798541
_symmetry_space_group_name_H-M "C 2/C"
_symmetry_group_IT_number 15
_symmetry_cell_setting 'monoclinic'
loop_
_space_group_symop_operation_xyz
x,y,z
-x,y,1/2-z
-x,-y,-z
x,-y,1/2+z
1/2+x,1/2+y,z
1/2-x,1/2+y,1/2-z
1/2-x,1/2-y,-z
1/2+x,1/2-y,1/2+z
loop_
_atom_site_type_symbol
_atom_site_label
_atom_site_fract_x
_atom_site_fract_y
_atom_site_fract_z
Si Si1 0.734568 0.289589 0.418187
Si Si2 0.890947 0.230487 0.927799
Si Si3 0.647189 0.790009 0.714142
Si Si4 0.192306 0.448025 0.227071
Si Si5 0.259924 0.893929 0.806811
Si Si6 0.030969 0.277834 0.303828
Si Si7 0.000000 0.529596 0.250000
Si Si8 0.385698 0.921641 0.337849
O O1 0.750000 0.250000 0.500000
O O2 0.745022 0.375443 0.401347
O O3 0.626347 0.270273 0.601472
O O4 0.817363 0.259272 0.169391
O O5 0.888164 0.289075 0.836112
O O6 0.000000 0.220881 0.750000
O O7 0.838172 0.155218 0.997161
O O8 0.750000 0.750000 0.500000
O O9 0.670394 0.858728 0.743656
O O10 0.563715 0.744255 0.946647
O O11 0.246068 0.520681 0.155887
O O12 0.094930 0.434107 0.500360
O O13 0.162779 0.457917 0.164221
O O14 0.312295 0.892980 0.582028
O O15 0.057716 0.349585 0.315989
O O16 0.000000 0.302389 0.250000
O O17 0.957674 0.477667 0.245032
#
# Coordination Sequence:
#
# PCOD9280763 Si02
#       8
#     8   8   8   8   8   8   4   8
#     4  12  24  40  60  91 125 168 211 258 310 375
#     4  11  23  40  64  93 128 166 215 266 312 368
#     4  10  21  37  63  93 121 159 210 261 310 370
#     4  11  24  37  60  90 126 163 211 259 310 385
#     4  10  21  44  63  89 128 168 207 257 325 376
#     4  12  19  37  64  85 120 163 208 245 308 379
#     4  10  22  36  56  94 124 154 198 262 336 364
#     4  11  19  37  62  88 118 164 202 254 321 388
#
# _framework density 19.048838
#
# number of rings (size 3 to 8) (size 9 to 14) (size 15 to 20)
#    0.000    1.067    4.667    2.800    0.933    2.133 
#    0.000    0.667    0.000    9.600    0.000    0.000 
#    0.000    0.000    0.000    0.000    0.000    0.000 
#
# Total GULP energy -167324.487474 kJ/mol
# GULP energy per Si atom -5577.482916 kJ/mol
# Density = 1.900548 g / cm^3
# Si number density = 19.048838 Si / 1000 Ang^3
#
#
#
# Elastic Constant Matrix: (Units=GPa)
#
#
# Indices 1 2 3 4 5 6 
#
# 1 97.8270 36.4483 40.4092 0.0000 -3.4595 0.0000
# 2 36.4483 96.8413 32.5197 0.0000 -6.7865 0.0000
# 3 40.4092 32.5197 116.3417 0.0000 -3.6371 0.0000
# 4 0.0000 0.0000 0.0000 -74.2121 0.0000 -42.5050
# 5 -3.4595 -6.7865 -3.6371 0.0000 40.5478 0.0000
# 6 0.0000 0.0000 0.0000 -42.5050 0.0000 8.4445
#
#
#
# Elastic Compliance Matrix: (Units=1/GPa)
#
#
# Indices 1 2 3 4 5 6 
#
# 1 0.013059 -0.003732 -0.003487 0.000000 0.000177 0.000000
# 2 -0.003732 0.012570 -0.002168 0.000000 0.001591 0.000000
# 3 -0.003487 -0.002168 0.010421 0.000000 0.000274 0.000000
# 4 0.000000 0.000000 0.000000 -0.003470 0.000000 -0.017468
# 5 0.000177 0.001591 0.000274 0.000000 0.024968 0.000000
# 6 0.000000 0.000000 0.000000 -0.017468 0.000000 0.030498
#
#
# Mechanical properties :
#
#
# Convention : Reuss Voigt Hill
#
# Bulk Modulus (GPa) = 57.88017 58.86273 58.37145
# Shear Modulus (GPa) = 44.41345 8.39822 26.40583
#
# Velocity S-wave (km/s) = 4.83386 2.10199 3.72723
# Velocity P-wave (km/s) = 7.84895 6.07118 7.01659
#
# Compressibility (1/GPa) = 0.01727708
#
# Stress axis : x y z
#
# Youngs Moduli (GPa) = 76.57426 79.55385 95.95910
#
# Poissons Ratio (x) = 0.29687 0.33464
# Poissons Ratio (y) = 0.28575 0.20801
# Poissons Ratio (z) = 0.26704 0.17245
#
# Static dielectric constant tensor:
#      x y z
#    x 1.727080 0.000000 0.006260 
#    y 0.000000 1.666820 0.000000 
#    z 0.006260 0.000000 1.695260 
# 
# From -- ./inp_files/98330.got.cif
#   From: 2010.05.17/outbox.cif.g08.bks.cpg/sg15_50_cif.got.tgz:98330.got - 2010.06.03 18:47:42.
