data_PCOD9280514
_publ_section_title
;
Structure prediction by ZEFSAII (Michael W. Deem and Ramdas Pophale) SiO2 
 PCOD9280514
Probable space group: C 2/C
;
_chemical_formula_sum "Si O2"
_cell_formula_units_Z 40
_cell_length_a 15.778161
_cell_length_b 12.906324
_cell_length_c 17.980157
_cell_angle_alpha 90.000000
_cell_angle_beta 28.890538
_cell_angle_gamma 90.000000
_cell_volume 1768.982121
_symmetry_space_group_name_H-M "C 2/C"
_symmetry_group_IT_number 15
_symmetry_cell_setting 'monoclinic'
loop_
_space_group_symop_operation_xyz
x,y,z
-x,y,1/2-z
-x,-y,-z
x,-y,1/2+z
1/2+x,1/2+y,z
1/2-x,1/2+y,1/2-z
1/2-x,1/2-y,-z
1/2+x,1/2-y,1/2+z
loop_
_atom_site_type_symbol
_atom_site_label
_atom_site_fract_x
_atom_site_fract_y
_atom_site_fract_z
Si Si1 0.215309 0.751452 0.267510
Si Si2 0.476045 0.801935 0.355626
Si Si3 0.926296 0.909673 0.501710
Si Si4 0.040236 0.936449 0.634148
Si Si5 0.362084 0.920304 0.574036
O O1 0.349965 0.795575 0.226425
O O2 0.092038 0.681116 0.414173
O O3 0.087454 0.843957 0.342071
O O4 0.300661 0.672703 0.141324
O O5 0.500000 0.821283 0.250000
O O6 0.401710 0.683835 0.418716
O O7 0.372357 0.890324 0.479400
O O8 0.000000 0.000000 0.500000
O O9 0.845622 0.979987 0.497683
O O10 0.841453 0.940060 0.753790
O O11 0.000000 0.961395 0.750000
O O12 0.500000 0.000000 0.500000
#
# Coordination Sequence:
#
# PCOD9280514 Si02
#       5
#     8   8   8   8   8
#     4  11  23  37  64  92 123 168 216 262 317 392
#     4  10  21  37  60  95 128 161 205 269 331 378
#     4  12  22  41  64  92 124 172 213 262 324 389
#     4  10  23  40  62  91 127 168 212 272 326 377
#     4  11  21  39  61  91 130 166 212 262 319 394
#
# _framework density 22.611872999999999
#
# number of rings (size 3 to 8) (size 9 to 14) (size 15 to 20)
#    0.000    1.200    6.000    1.200    0.000    8.800 
#    0.000    1.000    0.000    0.000    0.000    0.000 
#    0.000    0.000    0.000    0.000    0.000    0.000 
#
# Total GULP energy -111487.958937 kJ/mol
# GULP energy per Si atom -5574.397947 kJ/mol
# Density = 2.256041 g / cm^3
# Si number density = 22.611873 Si / 1000 Ang^3
#
#
#
# Elastic Constant Matrix: (Units=GPa)
#
#
# Indices 1 2 3 4 5 6 
#
# 1 61.7013 27.8985 39.8615 0.0001 23.0097 -0.0001
# 2 27.8985 93.3627 60.8001 -0.0001 16.7222 0.0000
# 3 39.8615 60.8001 117.1508 -0.0003 33.5285 0.0000
# 4 0.0001 -0.0001 -0.0003 57.1576 0.0000 10.0775
# 5 23.0097 16.7222 33.5285 0.0000 41.3314 0.0000
# 6 -0.0001 0.0000 0.0000 10.0775 0.0000 39.8648
#
#
#
# Elastic Compliance Matrix: (Units=1/GPa)
#
#
# Indices 1 2 3 4 5 6 
#
# 1 0.023258 -0.002807 -0.004006 0.000000 -0.008562 0.000000
# 2 -0.002807 0.016522 -0.008014 0.000000 0.001380 0.000000
# 3 -0.004006 -0.008014 0.016269 0.000000 -0.007725 0.000000
# 4 0.000000 0.000000 0.000000 0.018312 0.000000 -0.004629
# 5 -0.008562 0.001380 -0.007725 0.000000 0.034670 0.000000
# 6 0.000000 0.000000 0.000000 -0.004629 0.000000 0.026255
#
#
# Mechanical properties :
#
#
# Convention : Reuss Voigt Hill
#
# Bulk Modulus (GPa) = 37.88838 58.81497 48.35168
# Shear Modulus (GPa) = 28.77889 37.24775 33.01332
#
# Velocity S-wave (km/s) = 3.57141 4.06305 3.82514
# Velocity P-wave (km/s) = 5.81369 6.93385 6.39833
#
# Compressibility (1/GPa) = 0.02639331
#
# Stress axis : x y z
#
# Youngs Moduli (GPa) = 42.99674 60.52620 61.46515
#
# Poissons Ratio (x) = 0.16992 0.24624
# Poissons Ratio (y) = 0.12071 0.49260
# Poissons Ratio (z) = 0.17225 0.48507
#
# Static dielectric constant tensor:
#      x y z
#    x 1.935450 0.000000 -0.046770 
#    y 0.000000 2.126950 0.000000 
#    z -0.046770 0.000000 1.956840 
# 
# From -- ./inp_files/210776.got.cif
#   From: 2010.05.17/outbox.cif.g08.bks.cpg/sg15_106_cif.got.tgz:210776.got - 2010.06.03 18:47:42.
