data_PCOD9280110
_publ_section_title
;
Structure prediction by ZEFSAII (Michael W. Deem and Ramdas Pophale) SiO2 
 PCOD9280110
Probable space group: C 2/C
;
_chemical_formula_sum "Si O2"
_cell_formula_units_Z 44
_cell_length_a 12.371428
_cell_length_b 14.084782
_cell_length_c 26.996581
_cell_angle_alpha 90.000000
_cell_angle_beta 150.389695
_cell_angle_gamma 90.000000
_cell_volume 2324.299222
_symmetry_space_group_name_H-M "C 2/C"
_symmetry_group_IT_number 15
_symmetry_cell_setting 'monoclinic'
loop_
_space_group_symop_operation_xyz
x,y,z
-x,y,1/2-z
-x,-y,-z
x,-y,1/2+z
1/2+x,1/2+y,z
1/2-x,1/2+y,1/2-z
1/2-x,1/2-y,-z
1/2+x,1/2-y,1/2+z
loop_
_atom_site_type_symbol
_atom_site_label
_atom_site_fract_x
_atom_site_fract_y
_atom_site_fract_z
Si Si1 0.090142 0.971179 0.461419
Si Si2 0.774564 0.592965 0.136070
Si Si3 0.188334 0.213813 0.893453
Si Si4 0.583705 0.261968 0.123311
Si Si5 0.754032 0.996497 0.086620
Si Si6 0.000000 0.848335 0.750000
O O1 0.251069 0.947139 0.570901
O O2 0.208482 0.996673 0.457646
O O3 0.946624 0.874750 0.397928
O O4 0.929224 0.053494 0.414774
O O5 0.767916 0.706712 0.129599
O O6 0.000000 0.561986 0.250000
O O7 0.157880 0.107601 0.862661
O O8 0.989249 0.249464 0.848785
O O9 0.397930 0.213750 0.014391
O O10 0.814597 0.217132 0.201419
O O11 0.882495 0.082068 0.163800
O O12 0.500000 0.000000 0.000000
#
# Coordination Sequence:
#
# PCOD9280110 Si02
#       6
#     8   8   8   8   8   4
#     4   9  22  42  60  90 123 157 200 254 310 351
#     4  10  21  36  68  87 116 157 208 246 302 365
#     4   9  19  40  60  82 123 162 194 253 315 351
#     4   9  19  38  62  83 118 164 202 243 308 377
#     4  11  23  40  61  90 129 164 201 254 305 366
#     4  12  24  34  64  94 118 164 222 240 296 368
#
# _framework density 18.930436
#
# number of rings (size 3 to 8) (size 9 to 14) (size 15 to 20)
#    0.000    2.182    1.818    1.091    5.091    0.000 
#    0.000    0.909    0.000    0.000    0.000    0.000 
#    0.000    0.000    0.000    0.000    0.000    0.000 
#
# Total GULP energy -122774.393517 kJ/mol
# GULP energy per Si atom -5580.654251 kJ/mol
# Density = 1.888735 g / cm^3
# Si number density = 18.930436 Si / 1000 Ang^3
#
#
#
# Elastic Constant Matrix: (Units=GPa)
#
#
# Indices 1 2 3 4 5 6 
#
# 1 148.0780 79.1045 67.3631 0.0000 15.6935 0.0001
# 2 79.1045 97.1453 34.9020 -0.0005 11.1107 0.0003
# 3 67.3631 34.9020 98.5191 0.0003 11.4646 -0.0005
# 4 0.0000 -0.0005 0.0003 14.0714 0.0001 12.3836
# 5 15.6935 11.1107 11.4646 0.0001 25.2727 0.0001
# 6 0.0001 0.0003 -0.0005 12.3836 0.0001 29.8234
#
#
#
# Elastic Compliance Matrix: (Units=1/GPa)
#
#
# Indices 1 2 3 4 5 6 
#
# 1 0.015251 -0.009760 -0.006722 0.000000 -0.002130 0.000000
# 2 -0.009760 0.018337 0.000433 0.000001 -0.002197 -0.000001
# 3 -0.006722 0.000433 0.014917 -0.000001 -0.002783 0.000001
# 4 0.000000 0.000001 -0.000001 0.111990 0.000000 -0.046501
# 5 -0.002130 -0.002197 -0.002783 0.000000 0.043120 0.000000
# 6 0.000000 -0.000001 0.000001 -0.046501 0.000000 0.052839
#
#
# Mechanical properties :
#
#
# Convention : Reuss Voigt Hill
#
# Bulk Modulus (GPa) = 60.95186 78.49795 69.72490
# Shear Modulus (GPa) = 17.00555 24.65835 20.83195
#
# Velocity S-wave (km/s) = 3.00045 3.61304 3.32090
# Velocity P-wave (km/s) = 6.65367 7.67867 7.18447
#
# Compressibility (1/GPa) = 0.01640639
#
# Stress axis : x y z
#
# Youngs Moduli (GPa) = 65.57013 54.53469 67.03615
#
# Poissons Ratio (x) = 0.53225 0.45065
# Poissons Ratio (y) = 0.63995 -0.02902
# Poissons Ratio (z) = 0.44079 -0.02361
#
# Static dielectric constant tensor:
#      x y z
#    x 1.647380 0.000000 -0.021690 
#    y 0.000000 1.676450 0.000000 
#    z -0.021690 0.000000 1.657140 
# 
# From -- ./inp_files/123272.got.cif
#   From: 2010.05.17/outbox.cif.g08.bks.cpg/sg15_62_cif.got.tgz:123272.got - 2010.06.03 18:47:42.
