data_PCOD9280389
_publ_section_title
;
Structure prediction by ZEFSAII (Michael W. Deem and Ramdas Pophale) SiO2 
 PCOD9280389
Probable space group: C 2/C
;
_chemical_formula_sum "Si O2"
_cell_formula_units_Z 64
_cell_length_a 15.817906
_cell_length_b 22.065451
_cell_length_c 13.673428
_cell_angle_alpha 90.000000
_cell_angle_beta 37.180672
_cell_angle_gamma 90.000000
_cell_volume 2884.122050
_symmetry_space_group_name_H-M "C 2/C"
_symmetry_group_IT_number 15
_symmetry_cell_setting 'monoclinic'
loop_
_space_group_symop_operation_xyz
x,y,z
-x,y,1/2-z
-x,-y,-z
x,-y,1/2+z
1/2+x,1/2+y,z
1/2-x,1/2+y,1/2-z
1/2-x,1/2-y,-z
1/2+x,1/2-y,1/2+z
loop_
_atom_site_type_symbol
_atom_site_label
_atom_site_fract_x
_atom_site_fract_y
_atom_site_fract_z
Si Si1 0.792086 0.410871 0.845321
Si Si2 0.393457 0.572828 0.264221
Si Si3 0.544296 0.815978 0.608373
Si Si4 0.834070 0.499232 0.140131
Si Si5 0.514518 0.380416 0.019958
Si Si6 0.447853 0.252722 0.009737
Si Si7 0.217487 0.101055 0.628338
Si Si8 0.316248 0.712976 0.349235
O O1 0.940098 0.375359 0.704338
O O2 0.785882 0.470714 0.785333
O O3 0.673330 0.367881 0.907153
O O4 0.750745 0.428038 0.993275
O O5 0.500000 0.549884 0.250000
O O6 0.250543 0.537308 0.366202
O O7 0.474701 0.576421 0.084673
O O8 0.351790 0.642172 0.332249
O O9 0.500000 0.783715 0.750000
O O10 0.519040 0.779389 0.534777
O O11 0.706200 0.835036 0.459036
O O12 0.794710 0.431410 0.147705
O O13 0.000000 0.500000 0.000000
O O14 0.431970 0.322204 0.056999
O O15 0.438874 0.401045 0.188509
O O16 0.547102 0.255718 0.823006
O O17 0.305316 0.218759 0.118739
O O18 0.250000 0.750000 0.500000
#
# Coordination Sequence:
#
# PCOD9280389 Si02
#       8
#     8   8   8   8   8   8   8   8
#     4  10  22  42  60  86 129 166 204 266 332 379
#     4  10  23  42  65  95 136 171 219 272 332 395
#     4  10  21  37  59  87 123 167 207 263 320 384
#     4  11  23  41  69  92 124 169 218 273 334 391
#     4  10  22  39  60  92 124 170 211 265 322 395
#     4  11  21  38  62  91 127 170 217 264 320 389
#     4  11  23  38  64  91 124 161 217 263 326 387
#     4  11  22  39  65  93 133 177 216 270 334 388
#
# _framework density 22.190462
#
# number of rings (size 3 to 8) (size 9 to 14) (size 15 to 20)
#    0.000    1.500    1.250    5.250    0.000    5.000 
#    0.000    3.125    5.500    0.000    0.000    0.000 
#    0.000    0.000    0.000    0.000    0.000    0.000 
#
# Total GULP energy -178468.374186 kJ/mol
# GULP energy per Si atom -5577.136693 kJ/mol
# Density = 2.213996 g / cm^3
# Si number density = 22.190462 Si / 1000 Ang^3
#
#
#
# Elastic Constant Matrix: (Units=GPa)
#
#
# Indices 1 2 3 4 5 6 
#
# 1 109.4854 9.3507 29.5709 0.0033 -0.0232 -0.0009
# 2 9.3507 27.7180 22.6441 0.0095 6.4122 -0.0042
# 3 29.5709 22.6441 110.7351 0.0143 9.5925 -0.0077
# 4 0.0033 0.0095 0.0143 19.9838 -0.0059 -2.6619
# 5 -0.0232 6.4122 9.5925 -0.0059 47.0677 0.0033
# 6 -0.0009 -0.0042 -0.0077 -2.6619 0.0033 31.9239
#
#
#
# Elastic Compliance Matrix: (Units=1/GPa)
#
#
# Indices 1 2 3 4 5 6 
#
# 1 0.009912 -0.001554 -0.002390 0.000001 0.000704 -0.000001
# 2 -0.001554 0.044376 -0.008282 -0.000016 -0.004358 0.000003
# 3 -0.002390 -0.008282 0.011467 -0.000004 -0.001210 0.000001
# 4 0.000001 -0.000016 -0.000004 0.050603 0.000009 0.004219
# 5 0.000704 -0.004358 -0.001210 0.000009 0.022087 -0.000002
# 6 -0.000001 0.000003 0.000001 0.004219 -0.000002 0.031676
#
#
# Mechanical properties :
#
#
# Convention : Reuss Voigt Hill
#
# Bulk Modulus (GPa) = 24.21116 41.22997 32.72057
# Shear Modulus (GPa) = 23.99917 32.21994 28.10955
#
# Velocity S-wave (km/s) = 3.29220 3.81461 3.56299
# Velocity P-wave (km/s) = 5.03842 6.16620 5.63062
#
# Compressibility (1/GPa) = 0.04130326
#
# Stress axis : x y z
#
# Youngs Moduli (GPa) = 100.88726 22.53469 87.20549
#
# Poissons Ratio (x) = 0.03502 0.20843
# Poissons Ratio (y) = 0.15678 0.72222
# Poissons Ratio (z) = 0.24113 0.18663
#
# Static dielectric constant tensor:
#      x y z
#    x 1.880240 0.000000 -0.052860 
#    y 0.000000 1.845260 0.000000 
#    z -0.052860 0.000000 1.898730 
# 
# From -- ./inp_files/164205.got.cif
#   From: 2010.05.17/outbox.cif.g08.bks.cpg/sg15_83_cif.got.tgz:164205.got - 2010.06.03 18:47:42.
