data_PCOD9280923
_publ_section_title
;
Structure prediction by ZEFSAII (Michael W. Deem and Ramdas Pophale) SiO2 
 PCOD9280923
Probable space group: C 2/C
;
_chemical_formula_sum "Si O2"
_cell_formula_units_Z 52
_cell_length_a 8.429195
_cell_length_b 27.527431
_cell_length_c 11.510584
_cell_angle_alpha 90.000000
_cell_angle_beta 66.760670
_cell_angle_gamma 90.000000
_cell_volume 2454.147789
_symmetry_space_group_name_H-M "C 2/C"
_symmetry_group_IT_number 15
_symmetry_cell_setting 'monoclinic'
loop_
_space_group_symop_operation_xyz
x,y,z
-x,y,1/2-z
-x,-y,-z
x,-y,1/2+z
1/2+x,1/2+y,z
1/2-x,1/2+y,1/2-z
1/2-x,1/2-y,-z
1/2+x,1/2-y,1/2+z
loop_
_atom_site_type_symbol
_atom_site_label
_atom_site_fract_x
_atom_site_fract_y
_atom_site_fract_z
Si Si1 0.185478 0.993645 0.889020
Si Si2 0.150005 0.681553 0.609481
Si Si3 0.271422 0.091734 0.506605
Si Si4 0.995925 0.766884 0.007727
Si Si5 0.500000 0.453691 0.250000
Si Si6 0.660057 0.807622 0.625023
Si Si7 0.927426 0.575560 0.902494
O O1 0.305709 0.029381 0.928613
O O2 0.145848 0.013108 0.771112
O O3 0.254572 0.939538 0.892683
O O4 0.000000 0.000000 0.000000
O O5 0.340793 0.698268 0.591372
O O6 0.164270 0.627490 0.554078
O O7 0.000000 0.681205 0.750000
O O8 0.085953 0.721581 0.536750
O O9 0.301311 0.148303 0.474316
O O10 0.427078 0.072775 0.541915
O O11 0.097873 0.080044 0.628976
O O12 0.086421 0.741812 0.090902
O O13 0.146795 0.792969 0.888572
O O14 0.500000 0.824942 0.750000
O O15 0.000000 0.577784 0.750000
#
# Coordination Sequence:
#
# PCOD9280923 Si02
#       7
#     8   8   8   8   4   8   8
#     4  10  23  40  64  92 130 165 213 273 326 390
#     4  10  21  37  66  96 123 166 218 271 323 382
#     4  11  23  42  68  96 132 171 218 271 332 389
#     4  10  22  41  63  89 133 173 217 269 321 386
#     4  10  22  44  66  98 126 164 224 272 332 398
#     4  11  24  43  62  96 133 174 220 267 327 393
#     4  11  21  39  66  95 126 163 217 271 319 391
#
# _framework density 21.188618999999999
#
# number of rings (size 3 to 8) (size 9 to 14) (size 15 to 20)
#    0.000    1.538    3.077    1.385    4.308    0.615 
#   11.077    0.000    1.692    0.000    0.000    0.000 
#    0.000    0.000    0.000    0.000    0.000    0.000 
#
# Total GULP energy -144938.896153 kJ/mol
# GULP energy per Si atom -5574.572929 kJ/mol
# Density = 2.114039 g / cm^3
# Si number density = 21.188619 Si / 1000 Ang^3
#
#
#
# Elastic Constant Matrix: (Units=GPa)
#
#
# Indices 1 2 3 4 5 6 
#
# 1 97.8731 35.3827 6.0631 0.0000 -14.1251 0.0000
# 2 35.3827 80.6369 12.8979 0.0000 -14.6121 0.0000
# 3 6.0631 12.8979 46.7414 0.0000 -14.3463 0.0000
# 4 0.0000 0.0000 0.0000 29.4826 0.0000 -0.9721
# 5 -14.1251 -14.6121 -14.3463 0.0000 27.3371 0.0000
# 6 0.0000 0.0000 0.0000 -0.9721 0.0000 25.5227
#
#
#
# Elastic Compliance Matrix: (Units=1/GPa)
#
#
# Indices 1 2 3 4 5 6 
#
# 1 0.012555 -0.004876 0.001082 0.000000 0.004449 0.000000
# 2 -0.004876 0.015758 -0.002269 0.000000 0.004712 0.000000
# 3 0.001082 -0.002269 0.025842 0.000000 0.012908 0.000000
# 4 0.000000 0.000000 0.000000 0.033961 0.000000 0.001294
# 5 0.004449 0.004712 0.012908 0.000000 0.048172 0.000000
# 6 0.000000 0.000000 0.000000 0.001294 0.000000 0.039230
#
#
# Mechanical properties :
#
#
# Convention : Reuss Voigt Hill
#
# Bulk Modulus (GPa) = 23.79314 37.10428 30.44871
# Shear Modulus (GPa) = 24.79505 27.86234 26.32869
#
# Velocity S-wave (km/s) = 3.42454 3.63018 3.52886
# Velocity P-wave (km/s) = 5.18558 5.92625 5.56824
#
# Compressibility (1/GPa) = 0.04202892
#
# Stress axis : x y z
#
# Youngs Moduli (GPa) = 79.64902 63.46100 38.69676
#
# Poissons Ratio (x) = 0.30943 -0.04189
# Poissons Ratio (y) = 0.38837 0.08782
# Poissons Ratio (z) = -0.08621 0.14401
#
# Static dielectric constant tensor:
#      x y z
#    x 1.772340 0.000000 -0.003820 
#    y 0.000000 1.761660 0.000000 
#    z -0.003820 0.000000 1.824730 
# 
# From -- ./inp_files/82102.got.cif
#   From: 2010.05.17/outbox.cif.g08.bks.cpg/sg15_42_cif.got.tgz:82102.got - 2010.06.03 18:47:42.
