data_PCOD9280036
_publ_section_title
;
Structure prediction by ZEFSAII (Michael W. Deem and Ramdas Pophale) SiO2 
 PCOD9280036
Probable space group: C 2/C
;
_chemical_formula_sum "Si O2"
_cell_formula_units_Z 48
_cell_length_a 12.505936
_cell_length_b 27.085572
_cell_length_c 11.223569
_cell_angle_alpha 90.000000
_cell_angle_beta 145.820539
_cell_angle_gamma 90.000000
_cell_volume 2135.781241
_symmetry_space_group_name_H-M "C 2/C"
_symmetry_group_IT_number 15
_symmetry_cell_setting 'monoclinic'
loop_
_space_group_symop_operation_xyz
x,y,z
-x,y,1/2-z
-x,-y,-z
x,-y,1/2+z
1/2+x,1/2+y,z
1/2-x,1/2+y,1/2-z
1/2-x,1/2-y,-z
1/2+x,1/2-y,1/2+z
loop_
_atom_site_type_symbol
_atom_site_label
_atom_site_fract_x
_atom_site_fract_y
_atom_site_fract_z
Si Si1 0.877926 0.962383 0.250110
Si Si2 0.294818 0.875314 0.024049
Si Si3 0.703852 0.435021 0.723189
Si Si4 0.068100 0.382191 0.938529
Si Si5 0.356078 0.284540 0.731999
Si Si6 0.809022 0.820412 0.342566
O O1 0.000000 0.981320 0.250000
O O2 0.023952 0.932189 0.469258
O O3 0.783756 0.006311 0.239671
O O4 0.715662 0.926640 0.052596
O O5 0.500000 0.895332 0.250000
O O6 0.204494 0.860797 0.065352
O O7 0.183840 0.911151 0.835066
O O8 0.303382 0.823300 0.958884
O O9 0.888675 0.407258 0.840747
O O10 0.000000 0.361510 0.750000
O O11 0.187318 0.342089 0.123075
O O12 0.500000 0.281530 0.750000
O O13 0.281897 0.231259 0.698016
O O14 0.467011 0.307365 0.947939
#
# Coordination Sequence:
#
# PCOD9280036 Si02
#       6
#     8   8   8   8   8   8
#     4  11  25  47  67 100 133 174 220 279 340 394
#     4  11  20  37  64 101 130 168 214 276 336 392
#     4  11  25  43  72  97 137 171 225 272 331 407
#     4  12  25  45  69  95 132 185 224 271 332 398
#     4  10  21  36  63  95 139 168 212 279 342 393
#     4  11  22  39  64  98 133 174 221 273 340 388
#
# _framework density 22.474212000000001
#
# number of rings (size 3 to 8) (size 9 to 14) (size 15 to 20)
#    0.000    1.000    3.333    5.000    0.000    5.333 
#    0.000    0.833    0.000    0.000    0.000    0.000 
#    0.000    0.000    0.000    0.000    0.000    0.000 
#
# Total GULP energy -134099.940555 kJ/mol
# GULP energy per Si atom -5587.497523 kJ/mol
# Density = 2.242306 g / cm^3
# Si number density = 22.474212 Si / 1000 Ang^3
#
#
#
# Elastic Constant Matrix: (Units=GPa)
#
#
# Indices 1 2 3 4 5 6 
#
# 1 48.5141 12.9696 31.5658 0.0000 -14.9734 0.0000
# 2 12.9696 52.9937 39.5158 0.0000 -12.4044 0.0000
# 3 31.5658 39.5158 180.6289 0.0000 -33.4913 0.0000
# 4 0.0000 0.0000 0.0000 38.7085 0.0000 -3.8896
# 5 -14.9734 -12.4044 -33.4913 0.0000 29.3499 0.0000
# 6 0.0000 0.0000 0.0000 -3.8896 0.0000 13.7995
#
#
#
# Elastic Compliance Matrix: (Units=1/GPa)
#
#
# Indices 1 2 3 4 5 6 
#
# 1 0.025627 -0.002408 -0.002177 0.000000 0.009572 0.000000
# 2 -0.002408 0.023356 -0.003914 0.000000 0.004176 0.000000
# 3 -0.002177 -0.003914 0.007940 0.000000 0.006296 0.000000
# 4 0.000000 0.000000 0.000000 0.026587 0.000000 0.007494
# 5 0.009572 0.004176 0.006296 0.000000 0.047904 0.000000
# 6 0.000000 0.000000 0.000000 0.007494 0.000000 0.074579
#
#
# Mechanical properties :
#
#
# Convention : Reuss Voigt Hill
#
# Bulk Modulus (GPa) = 25.04723 50.02656 37.53690
# Shear Modulus (GPa) = 21.15953 29.57728 25.36840
#
# Velocity S-wave (km/s) = 3.07172 3.63168 3.36337
# Velocity P-wave (km/s) = 4.87337 6.31612 5.64106
#
# Compressibility (1/GPa) = 0.03992457
#
# Stress axis : x y z
#
# Youngs Moduli (GPa) = 39.02119 42.81584 125.93977
#
# Poissons Ratio (x) = 0.10311 0.27414
# Poissons Ratio (y) = 0.09397 0.49298
# Poissons Ratio (z) = 0.08494 0.16760
#
# Static dielectric constant tensor:
#      x y z
#    x 1.873160 0.000000 0.026250 
#    y 0.000000 1.838380 0.000000 
#    z 0.026250 0.000000 1.871050 
# 
# From -- ./inp_files/101692.got.cif
#   From: 2010.05.17/outbox.cif.g08.bks.cpg/sg15_51_cif.got.tgz:101692.got - 2010.06.03 18:47:42.
