data_PCOD9280739
_publ_section_title
;
Structure prediction by ZEFSAII (Michael W. Deem and Ramdas Pophale) SiO2 
 PCOD9280739
Probable space group: C 2/C
;
_chemical_formula_sum "Si O2"
_cell_formula_units_Z 48
_cell_length_a 5.158001
_cell_length_b 29.927832
_cell_length_c 16.680357
_cell_angle_alpha 90.000000
_cell_angle_beta 54.610027
_cell_angle_gamma 90.000000
_cell_volume 2099.141555
_symmetry_space_group_name_H-M "C 2/C"
_symmetry_group_IT_number 15
_symmetry_cell_setting 'monoclinic'
loop_
_space_group_symop_operation_xyz
x,y,z
-x,y,1/2-z
-x,-y,-z
x,-y,1/2+z
1/2+x,1/2+y,z
1/2-x,1/2+y,1/2-z
1/2-x,1/2-y,-z
1/2+x,1/2-y,1/2+z
loop_
_atom_site_type_symbol
_atom_site_label
_atom_site_fract_x
_atom_site_fract_y
_atom_site_fract_z
Si Si1 0.622391 0.433808 0.819103
Si Si2 0.886218 0.710959 0.072951
Si Si3 0.116434 0.031723 0.819944
Si Si4 0.584045 0.283237 0.146687
Si Si5 0.929781 0.846633 0.563796
Si Si6 0.830443 0.873301 0.142953
O O1 0.500000 0.425047 0.750000
O O2 0.494060 0.482862 0.868604
O O3 0.576187 0.393432 0.888471
O O4 0.000000 0.438624 0.750000
O O5 0.848545 0.755332 0.131538
O O6 0.111007 0.675112 0.081591
O O7 0.566421 0.687723 0.103655
O O8 0.082297 0.724510 0.957844
O O9 0.500000 0.030516 0.750000
O O10 0.026504 0.076730 0.883037
O O11 0.000000 0.037967 0.750000
O O12 0.500000 0.268121 0.250000
O O13 0.536887 0.336300 0.151006
O O14 0.172118 0.854904 0.446794
O O15 0.500000 0.874465 0.250000
#
# Coordination Sequence:
#
# PCOD9280739 Si02
#       6
#     8   8   8   8   8   8
#     4  10  21  39  61  85 119 159 196 239 291 344
#     4  10  24  40  58  88 120 149 196 247 282 345
#     4   9  19  36  58  86 118 151 193 242 286 341
#     4  10  21  38  61  85 117 157 194 237 297 347
#     4  11  23  40  61  88 120 155 195 241 291 345
#     4  10  21  37  63  89 119 153 194 243 294 348
#
# _framework density 22.866491
#
# number of rings (size 3 to 8) (size 9 to 14) (size 15 to 20)
#    0.000    2.000    0.000    2.500    0.000   14.000 
#    0.000    0.000    0.000   17.000    0.000    0.000 
#    0.000    0.000    0.000    0.000    0.000    0.000 
#
# Total GULP energy -134007.506054 kJ/mol
# GULP energy per Si atom -5583.646086 kJ/mol
# Density = 2.281445 g / cm^3
# Si number density = 22.866491 Si / 1000 Ang^3
#
#
#
# Elastic Constant Matrix: (Units=GPa)
#
#
# Indices 1 2 3 4 5 6 
#
# 1 105.1446 20.4486 19.7421 0.0000 25.2895 0.0000
# 2 20.4486 152.7482 36.6222 0.0000 19.4543 0.0000
# 3 19.7421 36.6222 72.8093 0.0000 19.5700 0.0000
# 4 0.0000 0.0000 0.0000-1283.5219 0.0000 -836.7761
# 5 25.2895 19.4543 19.5700 0.0000 23.1998 0.0000
# 6 0.0000 0.0000 0.0000 -836.7761 0.0000 -504.1461
#
#
#
# Elastic Compliance Matrix: (Units=1/GPa)
#
#
# Indices 1 2 3 4 5 6 
#
# 1 0.012898 0.000019 0.000358 0.000000 -0.014377 0.000000
# 2 0.000019 0.007741 -0.002779 0.000000 -0.004168 0.000000
# 3 0.000358 -0.002779 0.018769 0.000000 -0.013893 0.000000
# 4 0.000000 0.000000 0.000000 0.009492 0.000000 -0.015755
# 5 -0.014377 -0.004168 -0.013893 0.000000 0.073990 0.000000
# 6 0.000000 0.000000 0.000000 -0.015755 0.000000 0.024167
#
#
# Mechanical properties :
#
#
# Convention : Reuss Voigt Hill
#
# Bulk Modulus (GPa) = 28.89832 53.81422 41.35627
# Shear Modulus (GPa) = 30.60046 -335.96771 -152.68363
#
# Velocity S-wave (km/s) = 3.66214 -12.13444 -8.18026
# Velocity P-wave (km/s) = 5.52693 13.14310 8.43191
#
# Compressibility (1/GPa) = 0.03460409
#
# Stress axis : x y z
#
# Youngs Moduli (GPa) = 77.53191 129.17844 53.27879
#
# Poissons Ratio (x) = -0.00241 -0.01906
# Poissons Ratio (y) = -0.00145 0.14804
# Poissons Ratio (z) = -0.02773 0.35892
#
# Static dielectric constant tensor:
#      x y z
#    x 1.878840 0.000000 0.000930 
#    y 0.000000 1.952770 0.000000 
#    z 0.000930 0.000000 1.826720 
# 
# From -- ./inp_files/130597.got.cif
#   From: 2010.05.17/outbox.cif.g08.bks.cpg/sg15_66_cif.got.tgz:130597.got - 2010.06.03 18:47:42.
