data_PCOD9280961
_publ_section_title
;
Structure prediction by ZEFSAII (Michael W. Deem and Ramdas Pophale) SiO2 
 PCOD9280961
Probable space group: C 2/C
;
_chemical_formula_sum "Si O2"
_cell_formula_units_Z 60
_cell_length_a 26.652726
_cell_length_b 15.394560
_cell_length_c 10.999798
_cell_angle_alpha 90.000000
_cell_angle_beta 31.554507
_cell_angle_gamma 90.000000
_cell_volume 2361.849481
_symmetry_space_group_name_H-M "C 2/C"
_symmetry_group_IT_number 15
_symmetry_cell_setting 'monoclinic'
loop_
_space_group_symop_operation_xyz
x,y,z
-x,y,1/2-z
-x,-y,-z
x,-y,1/2+z
1/2+x,1/2+y,z
1/2-x,1/2+y,1/2-z
1/2-x,1/2-y,-z
1/2+x,1/2-y,1/2+z
loop_
_atom_site_type_symbol
_atom_site_label
_atom_site_fract_x
_atom_site_fract_y
_atom_site_fract_z
Si Si1 0.711018 0.286295 0.887565
Si Si2 0.878141 0.685210 0.218684
Si Si3 0.000000 0.102328 0.250000
Si Si4 0.947247 0.097061 0.119834
Si Si5 0.201906 0.466507 0.455495
Si Si6 0.061184 0.416231 0.327020
Si Si7 0.876196 0.944484 0.537031
Si Si8 0.767867 0.353819 0.347952
O O1 0.811534 0.277276 0.750380
O O2 0.681826 0.385550 0.933516
O O3 0.720304 0.241962 0.736220
O O4 0.631958 0.243723 0.139544
O O5 0.828499 0.596408 0.372805
O O6 0.984231 0.657866 0.961944
O O7 0.989236 0.143415 0.404449
O O8 0.918247 0.030962 0.391604
O O9 0.946059 0.112954 0.976585
O O10 0.839373 0.131425 0.379718
O O11 0.000000 0.000000 0.000000
O O12 0.122710 0.540290 0.593177
O O13 0.300099 0.513126 0.286914
O O14 0.217578 0.412435 0.302137
O O15 0.144052 0.379702 0.245771
O O16 0.000000 0.500000 0.500000
#
# Coordination Sequence:
#
# PCOD9280961 Si02
#       8
#     8   8   4   8   8   8   8   8
#     4  10  24  42  69  95 140 190 220 277 359 432
#     4   9  22  45  65  99 137 182 229 275 355 421
#     4  10  22  38  64  98 126 172 234 290 330 396
#     4  10  22  41  64  95 132 173 233 284 333 398
#     4  10  21  37  69  97 129 174 224 291 334 408
#     4  10  22  39  68 103 132 172 230 293 334 408
#     4  11  22  38  66  97 126 179 232 285 342 409
#     4  11  22  43  68  97 143 179 222 284 362 409
#
# _framework density 25.403821000000001
#
# number of rings (size 3 to 8) (size 9 to 14) (size 15 to 20)
#    0.000    1.867    2.667    0.000    5.600    6.400 
#    0.000    1.333    0.000    0.000    0.000    0.000 
#    0.000    0.000    0.000    0.000    0.000    0.000 
#
# Total GULP energy -167191.211330 kJ/mol
# GULP energy per Si atom -5573.040378 kJ/mol
# Density = 2.534600 g / cm^3
# Si number density = 25.403821 Si / 1000 Ang^3
#
#
#
# Elastic Constant Matrix: (Units=GPa)
#
#
# Indices 1 2 3 4 5 6 
#
# 1 74.0034 11.4270 4.7014 0.0000 -3.3194 0.0000
# 2 11.4270 75.1484 26.6042 0.0000 -13.2295 0.0000
# 3 4.7014 26.6042 97.5909 0.0000 -15.0211 0.0000
# 4 0.0000 0.0000 0.0000 27.4222 0.0000 -6.4805
# 5 -3.3194 -13.2295 -15.0211 0.0000 32.2500 0.0000
# 6 0.0000 0.0000 0.0000 -6.4805 0.0000 38.5541
#
#
#
# Elastic Compliance Matrix: (Units=1/GPa)
#
#
# Indices 1 2 3 4 5 6 
#
# 1 0.013849 -0.001989 -0.000033 0.000000 0.000594 0.000000
# 2 -0.001989 0.015645 -0.003461 0.000000 0.004601 0.000000
# 3 -0.000033 -0.003461 0.011820 0.000000 0.004082 0.000000
# 4 0.000000 0.000000 0.000000 0.037975 0.000000 0.006383
# 5 0.000594 0.004601 0.004082 0.000000 0.034858 0.000000
# 6 0.000000 0.000000 0.000000 0.006383 0.000000 0.027011
#
#
# Mechanical properties :
#
#
# Convention : Reuss Voigt Hill
#
# Bulk Modulus (GPa) = 32.95297 36.91199 34.93248
# Shear Modulus (GPa) = 30.81844 33.24592 32.03218
#
# Velocity S-wave (km/s) = 3.48680 3.62152 3.55480
# Velocity P-wave (km/s) = 5.40464 5.66117 5.53439
#
# Compressibility (1/GPa) = 0.03034628
#
# Stress axis : x y z
#
# Youngs Moduli (GPa) = 72.20817 63.91926 84.60026
#
# Poissons Ratio (x) = 0.12717 0.00283
# Poissons Ratio (y) = 0.14366 0.29279
# Poissons Ratio (z) = 0.00241 0.22122
#
# Static dielectric constant tensor:
#      x y z
#    x 2.014280 0.000000 -0.005020 
#    y 0.000000 2.119160 0.000000 
#    z -0.005020 0.000000 2.216840 
# 
# From -- ./inp_files/123969.got.cif
#   From: 2010.05.17/outbox.cif.g08.bks.cpg/sg15_62_cif.got.tgz:123969.got - 2010.06.03 18:47:42.
