data_PCOD9280412
_publ_section_title
;
Structure prediction by ZEFSAII (Michael W. Deem and Ramdas Pophale) SiO2 
 PCOD9280412
Probable space group: C 2/C
;
_chemical_formula_sum "Si O2"
_cell_formula_units_Z 56
_cell_length_a 18.158718
_cell_length_b 13.891138
_cell_length_c 19.218908
_cell_angle_alpha 90.000000
_cell_angle_beta 29.621158
_cell_angle_gamma 90.000000
_cell_volume 2396.126520
_symmetry_space_group_name_H-M "C 2/C"
_symmetry_group_IT_number 15
_symmetry_cell_setting 'monoclinic'
loop_
_space_group_symop_operation_xyz
x,y,z
-x,y,1/2-z
-x,-y,-z
x,-y,1/2+z
1/2+x,1/2+y,z
1/2-x,1/2+y,1/2-z
1/2-x,1/2-y,-z
1/2+x,1/2-y,1/2+z
loop_
_atom_site_type_symbol
_atom_site_label
_atom_site_fract_x
_atom_site_fract_y
_atom_site_fract_z
Si Si1 0.697207 0.896852 0.135088
Si Si2 0.227080 0.828893 0.948523
Si Si3 0.388837 0.355905 0.259475
Si Si4 0.479224 0.442368 0.666958
Si Si5 0.000000 0.765583 0.750000
Si Si6 0.000000 0.548818 0.250000
Si Si7 0.653667 0.636245 0.353885
Si Si8 0.152428 0.790577 0.361611
O O1 0.637009 0.810060 0.135800
O O2 0.752118 0.848040 0.160572
O O3 0.564213 0.973447 0.253770
O O4 0.841323 0.949003 0.983648
O O5 0.286910 0.722080 0.881453
O O6 0.359228 0.883668 0.879988
O O7 0.204835 0.880159 0.890631
O O8 0.064246 0.827483 0.116189
O O9 0.395203 0.469048 0.272613
O O10 0.344375 0.343626 0.215106
O O11 0.462312 0.338996 0.718121
O O12 0.418794 0.442174 0.637197
O O13 0.786015 0.685055 0.203045
O O14 0.517467 0.711495 0.473645
#
# Coordination Sequence:
#
# PCOD9280412 Si02
#       8
#     8   8   8   8   4   4   8   8
#     4  10  21  37  59  90 120 157 197 245 304 366
#     4  10  22  41  61  90 120 163 204 254 302 348
#     4  10  22  40  66  88 120 160 209 251 298 356
#     4  11  21  38  62  90 119 162 206 240 305 368
#     4  11  22  37  58  90 128 155 190 257 306 366
#     4  11  22  37  58  86 122 157 204 243 294 362
#     4   9  19  35  63  86 121 153 202 245 298 358
#     4   9  18  36  62  89 118 156 198 249 295 355
#
# _framework density 23.371054000000001
#
# number of rings (size 3 to 8) (size 9 to 14) (size 15 to 20)
#    0.000    2.000    2.857    0.429    2.000    2.857 
#    2.571    0.000    0.000    3.429    0.000    0.000 
#    0.000    0.000    0.000    0.000    0.000    0.000 
#
# Total GULP energy -156237.885255 kJ/mol
# GULP energy per Si atom -5579.924473 kJ/mol
# Density = 2.331786 g / cm^3
# Si number density = 23.371054 Si / 1000 Ang^3
#
#
#
# Elastic Constant Matrix: (Units=GPa)
#
#
# Indices 1 2 3 4 5 6 
#
# 1 94.6399 21.5465 3.6594 0.0000 -19.8362 0.0000
# 2 21.5465 125.0524 43.2635 0.0003 -16.8355 -0.0001
# 3 3.6594 43.2635 72.6494 0.0010 -20.3374 -0.0004
# 4 0.0000 0.0003 0.0010 27.5515 -0.0003 -8.1742
# 5 -19.8362 -16.8355 -20.3374 -0.0003 31.6948 0.0001
# 6 0.0000 -0.0001 -0.0004 -8.1742 0.0001 24.0145
#
#
#
# Elastic Compliance Matrix: (Units=1/GPa)
#
#
# Indices 1 2 3 4 5 6 
#
# 1 0.012778 -0.002070 0.003072 0.000000 0.008868 0.000000
# 2 -0.002070 0.010495 -0.006031 0.000000 0.000409 0.000000
# 3 0.003072 -0.006031 0.020531 -0.000001 0.011893 0.000000
# 4 0.000000 0.000000 -0.000001 0.040373 0.000000 0.013742
# 5 0.008868 0.000409 0.011893 0.000000 0.044950 0.000000
# 6 0.000000 0.000000 0.000000 0.013742 0.000000 0.046319
#
#
# Mechanical properties :
#
#
# Convention : Reuss Voigt Hill
#
# Bulk Modulus (GPa) = 29.63450 47.69781 38.66615
# Shear Modulus (GPa) = 25.41263 31.57699 28.49481
#
# Velocity S-wave (km/s) = 3.30108 3.67974 3.49554
# Velocity P-wave (km/s) = 5.21891 6.20542 5.73342
#
# Compressibility (1/GPa) = 0.03374445
#
# Stress axis : x y z
#
# Youngs Moduli (GPa) = 78.26107 95.28369 48.70705
#
# Poissons Ratio (x) = 0.19728 -0.14963
# Poissons Ratio (y) = 0.16204 0.29376
# Poissons Ratio (z) = -0.24042 0.57467
#
# Static dielectric constant tensor:
#      x y z
#    x 1.936500 0.000000 0.013060 
#    y 0.000000 1.910810 0.000000 
#    z 0.013060 0.000000 1.851610 
# 
# From -- ./inp_files/55680.got.cif
#   From: 2010.05.17/outbox.cif.g08.bks.cpg/sg15_28_cif.got.tgz:55680.got - 2010.06.03 18:47:42.
