data_PCOD9280799
_publ_section_title
;
Structure prediction by ZEFSAII (Michael W. Deem and Ramdas Pophale) SiO2 
 PCOD9280799
Probable space group: C 2/C
;
_chemical_formula_sum "Si O2"
_cell_formula_units_Z 60
_cell_length_a 18.726976
_cell_length_b 21.147545
_cell_length_c 8.700164
_cell_angle_alpha 90.000000
_cell_angle_beta 106.902599
_cell_angle_gamma 90.000000
_cell_volume 3296.676995
_symmetry_space_group_name_H-M "C 2/C"
_symmetry_group_IT_number 15
_symmetry_cell_setting 'monoclinic'
loop_
_space_group_symop_operation_xyz
x,y,z
-x,y,1/2-z
-x,-y,-z
x,-y,1/2+z
1/2+x,1/2+y,z
1/2-x,1/2+y,1/2-z
1/2-x,1/2-y,-z
1/2+x,1/2-y,1/2+z
loop_
_atom_site_type_symbol
_atom_site_label
_atom_site_fract_x
_atom_site_fract_y
_atom_site_fract_z
Si Si1 0.612968 0.874534 0.219542
Si Si2 0.000000 0.731032 0.750000
Si Si3 0.265205 0.241954 0.249554
Si Si4 0.240995 0.910738 0.030095
Si Si5 0.646020 0.705075 0.419327
Si Si6 0.212059 0.353562 0.001271
Si Si7 0.727071 0.039666 0.286552
Si Si8 0.944548 0.488288 0.825922
O O1 0.554499 0.817738 0.194688
O O2 0.685303 0.869729 0.376943
O O3 0.644093 0.877375 0.064859
O O4 0.576640 0.941045 0.243920
O O5 0.059750 0.777222 0.865392
O O6 0.317187 0.251668 0.427332
O O7 0.187023 0.219003 0.279801
O O8 0.255242 0.306852 0.146362
O O9 0.299604 0.191498 0.153280
O O10 0.169969 0.865108 0.985856
O O11 0.244886 0.937340 0.860101
O O12 0.246142 0.969447 0.151007
O O13 0.247532 0.414883 0.942490
O O14 0.636700 0.041602 0.209785
O O15 0.000000 0.450821 0.750000
O O16 0.000000 0.500000 0.000000
#
# Coordination Sequence:
#
# PCOD9280799 Si02
#       8
#     8   4   8   8   8   8   8   8
#     4  11  21  37  57  85 126 158 200 238 290 365
#     4  12  24  36  64  86 118 168 198 242 310 370
#     4  10  21  37  64  86 120 158 193 259 302 347
#     4  11  22  41  61  89 117 161 207 256 292 355
#     4  11  21  42  62  85 120 159 205 249 303 360
#     4  11  20  36  60  93 120 150 204 251 297 351
#     4  11  23  35  61  90 115 160 212 242 303 353
#     4  11  21  34  49  78 126 166 190 231 286 352
#
# _framework density 18.200146
#
# number of rings (size 3 to 8) (size 9 to 14) (size 15 to 20)
#    0.000    1.067    4.667    4.800    0.000    0.000 
#    0.000    2.000    0.000    0.800    0.000    0.000 
#    0.000    0.000    0.000    0.000    0.000    0.000 
#
# Total GULP energy -167056.085314 kJ/mol
# GULP energy per Si atom -5568.536177 kJ/mol
# Density = 1.815872 g / cm^3
# Si number density = 18.200146 Si / 1000 Ang^3
#
#
#
# Elastic Constant Matrix: (Units=GPa)
#
#
# Indices 1 2 3 4 5 6 
#
# 1 46.0173 28.7539 23.2531 0.0000 3.3281 0.0000
# 2 28.7539 86.5980 28.0910 0.0000 7.3951 0.0000
# 3 23.2531 28.0910 85.3668 0.0000 -10.5908 0.0000
# 4 0.0000 0.0000 0.0000 34.4413 0.0000 -0.9820
# 5 3.3281 7.3951 -10.5908 0.0000 33.4643 0.0000
# 6 0.0000 0.0000 0.0000 -0.9820 0.0000 32.5620
#
#
#
# Elastic Compliance Matrix: (Units=1/GPa)
#
#
# Indices 1 2 3 4 5 6 
#
# 1 0.029777 -0.007679 -0.005975 0.000000 -0.003155 0.000000
# 2 -0.007679 0.015554 -0.003495 0.000000 -0.003780 0.000000
# 3 -0.005975 -0.003495 0.015261 0.000000 0.006196 0.000000
# 4 0.000000 0.000000 0.000000 0.029060 0.000000 0.000876
# 5 -0.003155 -0.003780 0.006196 0.000000 0.032993 0.000000
# 6 0.000000 0.000000 0.000000 0.000876 0.000000 0.030737
#
#
# Mechanical properties :
#
#
# Convention : Reuss Voigt Hill
#
# Bulk Modulus (GPa) = 38.03515 42.01979 40.02747
# Shear Modulus (GPa) = 25.45230 29.28579 27.36905
#
# Velocity S-wave (km/s) = 3.74367 4.01571 3.88207
# Velocity P-wave (km/s) = 6.29526 6.68124 6.49112
#
# Compressibility (1/GPa) = 0.02629147
#
# Stress axis : x y z
#
# Youngs Moduli (GPa) = 33.58289 64.29187 65.52753
#
# Poissons Ratio (x) = 0.49372 0.39156
# Poissons Ratio (y) = 0.25789 0.22904
# Poissons Ratio (z) = 0.20067 0.22473
#
# Static dielectric constant tensor:
#      x y z
#    x 1.639610 0.000000 -0.036230 
#    y 0.000000 1.694490 0.000000 
#    z -0.036230 0.000000 1.776600 
# 
# From -- ./inp_files/50308.got.cif
#   From: 2010.05.17/outbox.cif.g08.bks.cpg/sg15_26_cif.got.tgz:50308.got - 2010.06.03 18:47:42.
