data_PCOD9280914
_publ_section_title
;
Structure prediction by ZEFSAII (Michael W. Deem and Ramdas Pophale) SiO2 
 PCOD9280914
Probable space group: C 2/C
;
_chemical_formula_sum "Si O2"
_cell_formula_units_Z 40
_cell_length_a 22.572430
_cell_length_b 11.803868
_cell_length_c 11.421105
_cell_angle_alpha 90.000000
_cell_angle_beta 140.678948
_cell_angle_gamma 90.000000
_cell_volume 1928.282290
_symmetry_space_group_name_H-M "C 2/C"
_symmetry_group_IT_number 15
_symmetry_cell_setting 'monoclinic'
loop_
_space_group_symop_operation_xyz
x,y,z
-x,y,1/2-z
-x,-y,-z
x,-y,1/2+z
1/2+x,1/2+y,z
1/2-x,1/2+y,1/2-z
1/2-x,1/2-y,-z
1/2+x,1/2-y,1/2+z
loop_
_atom_site_type_symbol
_atom_site_label
_atom_site_fract_x
_atom_site_fract_y
_atom_site_fract_z
Si Si1 0.201392 0.660606 0.012767
Si Si2 0.950447 0.122209 0.929199
Si Si3 0.304763 0.680579 0.414196
Si Si4 0.232028 0.600715 0.535962
Si Si5 0.500000 0.260141 0.750000
Si Si6 0.000000 0.848287 0.250000
O O1 0.259667 0.669517 0.221108
O O2 0.205782 0.529283 0.986185
O O3 0.250000 0.750000 0.000000
O O4 0.094182 0.691781 0.869226
O O5 0.838260 0.109559 0.747891
O O6 0.983758 0.191528 0.862543
O O7 0.979207 0.172239 0.098219
O O8 0.000000 0.000000 0.000000
O O9 0.232857 0.648001 0.405513
O O10 0.329133 0.812517 0.479255
O O11 0.396057 0.602348 0.572067
#
# Coordination Sequence:
#
# PCOD9280914 Si02
#       6
#     8   8   8   8   4   4
#     4  12  26  43  68 103 139 179 224 288 352 404
#     4  11  21  39  65  96 127 176 231 281 336 403
#     4  10  22  43  64  94 130 175 230 274 340 411
#     4  10  23  42  66  90 134 178 219 281 336 409
#     4  12  25  43  66 106 142 174 231 293 342 420
#     4  10  21  37  66  92 124 170 225 277 330 412
#
# _framework density 20.743850999999999
#
# number of rings (size 3 to 8) (size 9 to 14) (size 15 to 20)
#    0.000    1.200    2.000    4.200    2.800    4.000 
#    0.000    1.000    0.000    0.000    0.000    0.000 
#    0.000    0.000    0.000    0.000    0.000    0.000 
#
# Total GULP energy -111412.554082 kJ/mol
# GULP energy per Si atom -5570.627704 kJ/mol
# Density = 2.069664 g / cm^3
# Si number density = 20.743851 Si / 1000 Ang^3
#
#
#
# Elastic Constant Matrix: (Units=GPa)
#
#
# Indices 1 2 3 4 5 6 
#
# 1 104.2062 45.6602 50.6616 0.0000 -18.9964 0.0000
# 2 45.6602 135.6535 31.7869 0.0000 -10.7435 0.0000
# 3 50.6616 31.7869 129.0975 0.0000 -19.7415 0.0000
# 4 0.0000 0.0000 0.0000 19.4503 0.0000 2.6513
# 5 -18.9964 -10.7435 -19.7415 0.0000 50.4924 0.0000
# 6 0.0000 0.0000 0.0000 2.6513 0.0000 23.5826
#
#
#
# Elastic Compliance Matrix: (Units=1/GPa)
#
#
# Indices 1 2 3 4 5 6 
#
# 1 0.013567 -0.003394 -0.004061 0.000000 0.002794 0.000000
# 2 -0.003394 0.008717 -0.000772 0.000000 0.000276 0.000000
# 3 -0.004061 -0.000772 0.009861 0.000000 0.002163 0.000000
# 4 0.000000 0.000000 0.000000 0.052213 0.000000 -0.005870
# 5 0.002794 0.000276 0.002163 0.000000 0.021761 0.000000
# 6 0.000000 0.000000 0.000000 -0.005870 0.000000 0.043064
#
#
# Mechanical properties :
#
#
# Convention : Reuss Voigt Hill
#
# Bulk Modulus (GPa) = 63.73348 69.46383 66.59866
# Shear Modulus (GPa) = 29.26242 34.76163 32.01203
#
# Velocity S-wave (km/s) = 3.75994 4.09804 3.93263
# Velocity P-wave (km/s) = 7.04559 7.48005 7.26606
#
# Compressibility (1/GPa) = 0.01569034
#
# Stress axis : x y z
#
# Youngs Moduli (GPa) = 73.70706 114.72032 101.41192
#
# Poissons Ratio (x) = 0.38933 0.41186
# Poissons Ratio (y) = 0.25014 0.07832
# Poissons Ratio (z) = 0.29934 0.08860
#
# Static dielectric constant tensor:
#      x y z
#    x 1.779030 0.000000 -0.009400 
#    y 0.000000 1.832060 0.000000 
#    z -0.009400 0.000000 1.671820 
# 
# From -- ./inp_files/94694.got.cif
#   From: 2010.05.17/outbox.cif.g08.bks.cpg/sg15_48_cif.got.tgz:94694.got - 2010.06.03 18:47:42.
