data_PCOD9280458
_publ_section_title
;
Structure prediction by ZEFSAII (Michael W. Deem and Ramdas Pophale) SiO2 
 PCOD9280458
Probable space group: C 2/C
;
_chemical_formula_sum "Si O2"
_cell_formula_units_Z 40
_cell_length_a 19.379849
_cell_length_b 5.146995
_cell_length_c 17.337242
_cell_angle_alpha 90.000000
_cell_angle_beta 84.941484
_cell_angle_gamma 90.000000
_cell_volume 1722.619421
_symmetry_space_group_name_H-M "C 2/C"
_symmetry_group_IT_number 15
_symmetry_cell_setting 'monoclinic'
loop_
_space_group_symop_operation_xyz
x,y,z
-x,y,1/2-z
-x,-y,-z
x,-y,1/2+z
1/2+x,1/2+y,z
1/2-x,1/2+y,1/2-z
1/2-x,1/2-y,-z
1/2+x,1/2-y,1/2+z
loop_
_atom_site_type_symbol
_atom_site_label
_atom_site_fract_x
_atom_site_fract_y
_atom_site_fract_z
Si Si1 0.616290 0.234390 0.880193
Si Si2 0.211636 0.913137 0.739726
Si Si3 0.751142 0.936960 0.926724
Si Si4 0.891842 0.067632 0.951121
Si Si5 0.973567 0.452838 0.415192
O O1 0.648056 0.378667 0.803484
O O2 0.544432 0.102005 0.863635
O O3 0.676382 0.039660 0.906628
O O4 0.599463 0.412338 0.956571
O O5 0.268870 0.715551 0.769196
O O6 0.213100 0.809315 0.652216
O O7 0.811392 0.136079 0.944624
O O8 0.750000 0.750000 0.000000
O O9 0.934827 0.282478 0.900919
O O10 0.921300 0.789325 0.923122
O O11 0.000000 0.500000 0.500000
#
# Coordination Sequence:
#
# PCOD9280458 Si02
#       5
#     8   8   8   8   8
#     4  10  21  40  64  88 121 164 204 243 298 367
#     4  10  23  39  60  91 123 157 199 248 303 360
#     4  11  22  39  65  93 122 156 204 257 301 350
#     4  11  22  37  61  92 120 152 200 251 295 345
#     4  10  21  37  60  88 119 159 198 239 294 362
#
# _framework density 23.220452999999999
#
# number of rings (size 3 to 8) (size 9 to 14) (size 15 to 20)
#    0.000    1.600    0.000    6.600    0.000   11.200 
#    0.000    1.000    0.000    9.600    0.000    0.000 
#    0.000    0.000    0.000    0.000    0.000    0.000 
#
# Total GULP energy -111567.207713 kJ/mol
# GULP energy per Si atom -5578.360386 kJ/mol
# Density = 2.316760 g / cm^3
# Si number density = 23.220453 Si / 1000 Ang^3
#
#
#
# Elastic Constant Matrix: (Units=GPa)
#
#
# Indices 1 2 3 4 5 6 
#
# 1 108.8677 17.1780 -4.9527 0.0000 -10.5448 0.0000
# 2 17.1780 81.7022 -7.0383 0.0000 2.5983 0.0000
# 3 -4.9527 -7.0383 90.1365 0.0000 -11.7328 0.0000
# 4 0.0000 0.0000 0.0000 19.0302 0.0000 -1.7015
# 5 -10.5448 2.5983 -11.7328 0.0000 27.1284 0.0000
# 6 0.0000 0.0000 0.0000 -1.7015 0.0000 33.0333
#
#
#
# Elastic Compliance Matrix: (Units=1/GPa)
#
#
# Indices 1 2 3 4 5 6 
#
# 1 0.010009 -0.002164 0.000969 0.000000 0.004517 0.000000
# 2 -0.002164 0.012807 0.000648 0.000000 -0.001788 0.000000
# 3 0.000969 0.000648 0.011910 0.000000 0.005465 0.000000
# 4 0.000000 0.000000 0.000000 0.052791 0.000000 0.002719
# 5 0.004517 -0.001788 0.005465 0.000000 0.041152 0.000000
# 6 0.000000 0.000000 0.000000 0.002719 0.000000 0.030413
#
#
# Mechanical properties :
#
#
# Convention : Reuss Voigt Hill
#
# Bulk Modulus (GPa) = 29.73441 32.34226 31.03833
# Shear Modulus (GPa) = 29.17390 34.20635 31.69013
#
# Velocity S-wave (km/s) = 3.54840 3.84228 3.69826
# Velocity P-wave (km/s) = 5.44254 5.80024 5.62423
#
# Compressibility (1/GPa) = 0.03363107
#
# Stress axis : x y z
#
# Youngs Moduli (GPa) = 99.91463 78.08007 83.96628
#
# Poissons Ratio (x) = 0.16900 -0.08135
# Poissons Ratio (y) = 0.21626 -0.05445
# Poissons Ratio (z) = -0.09680 -0.05063
#
# Static dielectric constant tensor:
#      x y z
#    x 2.005430 0.000000 0.063760 
#    y 0.000000 1.944790 0.000000 
#    z 0.063760 0.000000 1.977110 
# 
# From -- ./inp_files/207976.got.cif
#   From: 2010.05.17/outbox.cif.g08.bks.cpg/sg15_104_cif.got.tgz:207976.got - 2010.06.03 18:47:42.
