data_PCOD9280864
_publ_section_title
;
Structure prediction by ZEFSAII (Michael W. Deem and Ramdas Pophale) SiO2 
 PCOD9280864
Probable space group: C 2/C
;
_chemical_formula_sum "Si O2"
_cell_formula_units_Z 56
_cell_length_a 8.251889
_cell_length_b 23.447191
_cell_length_c 14.822011
_cell_angle_alpha 90.000000
_cell_angle_beta 83.452081
_cell_angle_gamma 90.000000
_cell_volume 2849.109057
_symmetry_space_group_name_H-M "C 2/C"
_symmetry_group_IT_number 15
_symmetry_cell_setting 'monoclinic'
loop_
_space_group_symop_operation_xyz
x,y,z
-x,y,1/2-z
-x,-y,-z
x,-y,1/2+z
1/2+x,1/2+y,z
1/2-x,1/2+y,1/2-z
1/2-x,1/2-y,-z
1/2+x,1/2-y,1/2+z
loop_
_atom_site_type_symbol
_atom_site_label
_atom_site_fract_x
_atom_site_fract_y
_atom_site_fract_z
Si Si1 0.566489 0.550146 0.932646
Si Si2 0.000000 0.662388 0.250000
Si Si3 0.347284 0.637200 0.023683
Si Si4 0.305448 0.847352 0.164514
Si Si5 0.051811 0.443710 0.104925
Si Si6 0.460179 0.070478 0.402295
Si Si7 0.500000 0.589856 0.750000
Si Si8 0.647894 0.716197 0.306684
O O1 0.755390 0.552189 0.898240
O O2 0.481125 0.551839 0.840471
O O3 0.500000 0.500000 0.000000
O O4 0.515867 0.608160 0.985914
O O5 0.977069 0.620510 0.165652
O O6 0.167226 0.698250 0.232897
O O7 0.230910 0.587895 0.074363
O O8 0.370215 0.686829 0.094184
O O9 0.262487 0.654944 0.934776
O O10 0.449420 0.893862 0.157259
O O11 0.158868 0.869870 0.237014
O O12 0.358860 0.784268 0.186250
O O13 0.997226 0.507494 0.136109
O O14 0.024099 0.432386 0.000150
O O15 0.500000 0.696956 0.250000
#
# Coordination Sequence:
#
# PCOD9280864 Si02
#       8
#     8   4   8   8   8   8   4   8
#     4  11  22  41  62  95 132 166 211 264 322 393
#     4  10  23  42  62  90 132 169 210 268 328 378
#     4   9  20  42  61  89 126 170 208 261 330 376
#     4  10  22  43  65  88 127 166 218 264 325 384
#     4  10  21  37  65  91 123 162 210 261 313 396
#     4   9  19  38  61  89 122 165 202 257 326 375
#     4  10  25  40  64  92 122 175 206 258 334 374
#     4  11  24  41  65  95 126 171 221 273 320 388
#
# _framework density 19.655268
#
# number of rings (size 3 to 8) (size 9 to 14) (size 15 to 20)
#    0.000    2.000    1.429    0.857    6.000    1.143 
#    1.286    0.714    0.000    0.000    0.000    0.000 
#    0.000    0.000    0.000    0.000    0.000    0.000 
#
# Total GULP energy -156116.015019 kJ/mol
# GULP energy per Si atom -5575.571965 kJ/mol
# Density = 1.961053 g / cm^3
# Si number density = 19.655268 Si / 1000 Ang^3
#
#
#
# Elastic Constant Matrix: (Units=GPa)
#
#
# Indices 1 2 3 4 5 6 
#
# 1 69.6734 36.4831 14.3077 0.0000 -1.6194 0.0000
# 2 36.4831 119.9962 46.6202 0.0000 0.0638 0.0000
# 3 14.3077 46.6202 90.5292 0.0000 -1.0228 0.0000
# 4 0.0000 0.0000 0.0000 14.6667 0.0000 -10.6601
# 5 -1.6194 0.0638 -1.0228 0.0000 28.5196 0.0000
# 6 0.0000 0.0000 0.0000 -10.6601 0.0000 15.1232
#
#
#
# Elastic Compliance Matrix: (Units=1/GPa)
#
#
# Indices 1 2 3 4 5 6 
#
# 1 0.017098 -0.005192 -0.000017 0.000000 0.000982 0.000000
# 2 -0.005192 0.011996 -0.005363 0.000000 -0.000514 0.000000
# 3 -0.000017 -0.005363 0.013816 0.000000 0.000507 0.000000
# 4 0.000000 0.000000 0.000000 0.139809 0.000000 0.098549
# 5 0.000982 -0.000514 0.000507 0.000000 0.035139 0.000000
# 6 0.000000 0.000000 0.000000 0.098549 0.000000 0.135589
#
#
# Mechanical properties :
#
#
# Convention : Reuss Voigt Hill
#
# Bulk Modulus (GPa) = 45.94415 52.78010 49.36212
# Shear Modulus (GPa) = 13.09425 23.84773 18.47099
#
# Velocity S-wave (km/s) = 2.58388 3.48702 3.06886
# Velocity P-wave (km/s) = 5.68574 6.56686 6.14212
#
# Compressibility (1/GPa) = 0.02176556
#
# Stress axis : x y z
#
# Youngs Moduli (GPa) = 58.48700 83.36102 72.37798
#
# Poissons Ratio (x) = 0.43282 0.00125
# Poissons Ratio (y) = 0.30367 0.38815
# Poissons Ratio (z) = 0.00101 0.44705
#
# Static dielectric constant tensor:
#      x y z
#    x 1.711650 0.000000 0.015050 
#    y 0.000000 1.689320 0.000000 
#    z 0.015050 0.000000 1.710710 
# 
# From -- ./inp_files/136481.got.cif
#   From: 2010.05.17/outbox.cif.g08.bks.cpg/sg15_69_cif.got.tgz:136481.got - 2010.06.03 18:47:42.
