data_PCOD9280938
_publ_section_title
;
Structure prediction by ZEFSAII (Michael W. Deem and Ramdas Pophale) SiO2 
 PCOD9280938
Probable space group: C 2/C
;
_chemical_formula_sum "Si O2"
_cell_formula_units_Z 56
_cell_length_a 13.441685
_cell_length_b 16.458125
_cell_length_c 12.660707
_cell_angle_alpha 90.000000
_cell_angle_beta 101.114268
_cell_angle_gamma 90.000000
_cell_volume 2748.332974
_symmetry_space_group_name_H-M "C 2/C"
_symmetry_group_IT_number 15
_symmetry_cell_setting 'monoclinic'
loop_
_space_group_symop_operation_xyz
x,y,z
-x,y,1/2-z
-x,-y,-z
x,-y,1/2+z
1/2+x,1/2+y,z
1/2-x,1/2+y,1/2-z
1/2-x,1/2-y,-z
1/2+x,1/2-y,1/2+z
loop_
_atom_site_type_symbol
_atom_site_label
_atom_site_fract_x
_atom_site_fract_y
_atom_site_fract_z
Si Si1 0.288929 0.106666 0.754921
Si Si2 0.905976 0.890292 0.646598
Si Si3 0.050281 0.381923 0.027825
Si Si4 0.583024 0.010346 0.861315
Si Si5 0.979388 0.791413 0.457903
Si Si6 0.091835 0.073212 0.845759
Si Si7 0.240697 0.736508 0.123864
O O1 0.367685 0.101076 0.866051
O O2 0.313907 0.036963 0.674653
O O3 0.182313 0.100188 0.789280
O O4 0.298826 0.191690 0.696454
O O5 0.940060 0.840144 0.551284
O O6 0.800901 0.846731 0.663172
O O7 0.000000 0.884817 0.750000
O O8 0.884350 0.983133 0.605716
O O9 0.948907 0.421434 0.058343
O O10 0.079479 0.427963 0.926531
O O11 0.040054 0.287347 0.006665
O O12 0.500000 0.007845 0.750000
O O13 0.879297 0.753232 0.378612
O O14 0.051339 0.854513 0.411122
O O15 0.000000 0.056173 0.750000
O O16 0.250000 0.750000 0.000000
#
# Coordination Sequence:
#
# PCOD9280938 Si02
#       7
#     8   8   8   8   8   8   8
#     4  11  22  42  65  95 135 168 228 274 333 407
#     4  10  22  41  65  95 126 174 231 274 335 405
#     4  10  22  39  68  99 131 169 223 281 349 393
#     4   9  20  40  65  98 133 173 211 278 337 415
#     4  11  22  41  65  92 133 171 224 281 341 405
#     4  11  24  43  61  92 133 183 217 273 343 403
#     4  10  21  37  67  93 121 174 223 273 331 396
#
# _framework density 20.375989000000001
#
# number of rings (size 3 to 8) (size 9 to 14) (size 15 to 20)
#    0.000    1.714    1.429    3.000    0.000    8.000 
#    7.714    0.000    0.000    0.000    0.000    0.000 
#    0.000    0.000    0.000    0.000    0.000    0.000 
#
# Total GULP energy -156116.959570 kJ/mol
# GULP energy per Si atom -5575.605699 kJ/mol
# Density = 2.032961 g / cm^3
# Si number density = 20.375989 Si / 1000 Ang^3
#
#
#
# Elastic Constant Matrix: (Units=GPa)
#
#
# Indices 1 2 3 4 5 6 
#
# 1 91.9670 34.0553 27.2763 0.0000 -27.0274 0.0000
# 2 34.0553 148.3892 46.4695 0.0000 -31.3134 0.0000
# 3 27.2763 46.4695 73.8923 0.0000 -18.6185 0.0000
# 4 0.0000 0.0000 0.0000 40.4737 0.0000 1.0079
# 5 -27.0274 -31.3134 -18.6185 0.0000 26.1199 0.0000
# 6 0.0000 0.0000 0.0000 1.0079 0.0000 18.4254
#
#
#
# Elastic Compliance Matrix: (Units=1/GPa)
#
#
# Indices 1 2 3 4 5 6 
#
# 1 0.015894 0.000241 -0.002196 0.000000 0.015169 0.000000
# 2 0.000241 0.009882 -0.003969 0.000000 0.009268 0.000000
# 3 -0.002196 -0.003969 0.018367 0.000000 0.006062 0.000000
# 4 0.000000 0.000000 0.000000 0.024741 0.000000 -0.001353
# 5 0.015169 0.009268 0.006062 0.000000 0.069413 0.000000
# 6 0.000000 0.000000 0.000000 -0.001353 0.000000 0.054347
#
#
# Mechanical properties :
#
#
# Convention : Reuss Voigt Hill
#
# Bulk Modulus (GPa) = 30.96404 58.87229 44.91817
# Shear Modulus (GPa) = 23.22808 30.76696 26.99752
#
# Velocity S-wave (km/s) = 3.38001 3.89004 3.64396
# Velocity P-wave (km/s) = 5.51924 7.00944 6.30849
#
# Compressibility (1/GPa) = 0.03229553
#
# Stress axis : x y z
#
# Youngs Moduli (GPa) = 62.91857 101.19205 54.44501
#
# Poissons Ratio (x) = -0.02442 0.11959
# Poissons Ratio (y) = -0.01519 0.21607
# Poissons Ratio (z) = 0.13820 0.40159
#
# Static dielectric constant tensor:
#      x y z
#    x 2.019200 0.000000 -0.059170 
#    y 0.000000 1.742530 0.000000 
#    z -0.059170 0.000000 1.718620 
# 
# From -- ./inp_files/97061.got.cif
#   From: 2010.05.17/outbox.cif.g08.bks.cpg/sg15_49_cif.got.tgz:97061.got - 2010.06.03 18:47:42.
