data_PCOD9280014
_publ_section_title
;
Structure prediction by ZEFSAII (Michael W. Deem and Ramdas Pophale) SiO2 
 PCOD9280014
Probable space group: C 2/C
;
_chemical_formula_sum "Si O2"
_cell_formula_units_Z 60
_cell_length_a 19.465311
_cell_length_b 12.815810
_cell_length_c 13.562281
_cell_angle_alpha 90.000000
_cell_angle_beta 61.845842
_cell_angle_gamma 90.000000
_cell_volume 2982.989694
_symmetry_space_group_name_H-M "C 2/C"
_symmetry_group_IT_number 15
_symmetry_cell_setting 'monoclinic'
loop_
_space_group_symop_operation_xyz
x,y,z
-x,y,1/2-z
-x,-y,-z
x,-y,1/2+z
1/2+x,1/2+y,z
1/2-x,1/2+y,1/2-z
1/2-x,1/2-y,-z
1/2+x,1/2-y,1/2+z
loop_
_atom_site_type_symbol
_atom_site_label
_atom_site_fract_x
_atom_site_fract_y
_atom_site_fract_z
Si Si1 0.609723 0.520063 0.019437
Si Si2 0.345360 0.873398 0.436934
Si Si3 0.500000 0.790852 0.250000
Si Si4 0.608753 0.384277 0.736110
Si Si5 0.247278 0.255879 0.841806
Si Si6 0.325527 0.714204 0.813761
Si Si7 0.043208 0.096715 0.869167
Si Si8 0.238160 0.417467 0.540701
O O1 0.616853 0.585865 0.115241
O O2 0.549229 0.422983 0.072088
O O3 0.573948 0.594810 0.960285
O O4 0.694474 0.473270 0.940182
O O5 0.435364 0.857633 0.349824
O O6 0.293937 0.820950 0.383688
O O7 0.322010 0.808706 0.549596
O O8 0.318079 0.992357 0.461223
O O9 0.450958 0.711497 0.214631
O O10 0.690944 0.347714 0.720991
O O11 0.575723 0.486484 0.807629
O O12 0.219384 0.205912 0.759825
O O13 0.414295 0.683477 0.725552
O O14 0.309212 0.828618 0.869281
O O15 0.286931 0.635391 0.918438
#
# Coordination Sequence:
#
# PCOD9280014 Si02
#       8
#     8   8   4   8   8   8   8   8
#     4  11  21  36  64  92 122 159 205 261 317 356
#     4  10  21  38  62  87 122 158 202 259 308 367
#     4  10  22  34  62  90 118 156 204 248 316 364
#     4  11  19  38  60  91 122 152 204 270 305 361
#     4  10  21  36  63  90 116 160 210 256 306 370
#     4  11  24  38  60  90 124 165 208 248 312 380
#     4  11  22  34  63  94 127 156 201 265 320 367
#     4  11  23  42  59  86 128 167 206 252 306 381
#
# _framework density 20.114049000000001
#
# number of rings (size 3 to 8) (size 9 to 14) (size 15 to 20)
#    0.000    1.333    4.000    1.600    3.733    1.067 
#    0.000    2.667    0.000    4.000    0.000    0.000 
#    0.000    0.000    0.000    0.000    0.000    0.000 
#
# Total GULP energy -167597.469619 kJ/mol
# GULP energy per Si atom -5586.582321 kJ/mol
# Density = 2.006827 g / cm^3
# Si number density = 20.114049 Si / 1000 Ang^3
#
#
#
# Elastic Constant Matrix: (Units=GPa)
#
#
# Indices 1 2 3 4 5 6 
#
# 1 67.9488 19.4245 27.7312 0.0000 -21.1307 0.0000
# 2 19.4245 69.1602 21.7183 0.0000 -18.5762 0.0000
# 3 27.7312 21.7183 72.2677 0.0000 -17.4595 0.0000
# 4 0.0000 0.0000 0.0000 22.5072 0.0000 -8.5926
# 5 -21.1307 -18.5762 -17.4595 0.0000 46.7855 0.0000
# 6 0.0000 0.0000 0.0000 -8.5926 0.0000 28.6415
#
#
#
# Elastic Compliance Matrix: (Units=1/GPa)
#
#
# Indices 1 2 3 4 5 6 
#
# 1 0.019351 -0.002175 -0.005351 0.000000 0.005879 0.000000
# 2 -0.002175 0.017350 -0.003245 0.000000 0.004695 0.000000
# 3 -0.005351 -0.003245 0.017554 0.000000 0.002845 0.000000
# 4 0.000000 0.000000 0.000000 0.050177 0.000000 0.015053
# 5 0.005879 0.004695 0.002845 0.000000 0.026956 0.000000
# 6 0.000000 0.000000 0.000000 0.015053 0.000000 0.039430
#
#
# Mechanical properties :
#
#
# Convention : Reuss Voigt Hill
#
# Bulk Modulus (GPa) = 30.57050 38.56942 34.56996
# Shear Modulus (GPa) = 24.59831 28.95369 26.77600
#
# Velocity S-wave (km/s) = 3.50085 3.79816 3.65253
# Velocity P-wave (km/s) = 5.61897 6.20094 5.91712
#
# Compressibility (1/GPa) = 0.03271127
#
# Stress axis : x y z
#
# Youngs Moduli (GPa) = 51.67646 57.63552 56.96844
#
# Poissons Ratio (x) = 0.12538 0.30487
# Poissons Ratio (y) = 0.11242 0.18487
# Poissons Ratio (z) = 0.27655 0.18703
#
# Static dielectric constant tensor:
#      x y z
#    x 1.723290 0.000000 -0.003300 
#    y 0.000000 1.724280 0.000000 
#    z -0.003300 0.000000 1.761990 
# 
# From -- ./inp_files/167594.got.cif
#   From: 2010.05.17/outbox.cif.g08.bks.cpg/sg15_84_cif.got.tgz:167594.got - 2010.06.03 18:47:42.
