data_PCOD9280314
_publ_section_title
;
Structure prediction by ZEFSAII (Michael W. Deem and Ramdas Pophale) SiO2 
 PCOD9280314
Probable space group: C 2/C
;
_chemical_formula_sum "Si O2"
_cell_formula_units_Z 56
_cell_length_a 17.558536
_cell_length_b 23.713340
_cell_length_c 8.391805
_cell_angle_alpha 90.000000
_cell_angle_beta 132.312948
_cell_angle_gamma 90.000000
_cell_volume 2583.819972
_symmetry_space_group_name_H-M "C 2/C"
_symmetry_group_IT_number 15
_symmetry_cell_setting 'monoclinic'
loop_
_space_group_symop_operation_xyz
x,y,z
-x,y,1/2-z
-x,-y,-z
x,-y,1/2+z
1/2+x,1/2+y,z
1/2-x,1/2+y,1/2-z
1/2-x,1/2-y,-z
1/2+x,1/2-y,1/2+z
loop_
_atom_site_type_symbol
_atom_site_label
_atom_site_fract_x
_atom_site_fract_y
_atom_site_fract_z
Si Si1 0.184043 0.307567 0.748927
Si Si2 0.640350 0.967737 0.069750
Si Si3 0.892717 0.295593 0.188787
Si Si4 0.133601 0.816202 0.275198
Si Si5 0.085489 0.573471 0.150628
Si Si6 0.237829 0.875979 0.115687
Si Si7 0.935481 0.172220 0.326114
O O1 0.184902 0.288172 0.568127
O O2 0.138768 0.252190 0.771748
O O3 0.110168 0.361276 0.665348
O O4 0.295122 0.326787 0.971207
O O5 0.734353 0.939331 0.295771
O O6 0.629620 0.034832 0.071179
O O7 0.533774 0.942490 0.992142
O O8 0.641208 0.948181 0.889226
O O9 0.844137 0.344667 0.222954
O O10 0.903399 0.237429 0.296722
O O11 0.000000 0.307710 0.250000
O O12 0.193715 0.843284 0.208483
O O13 0.017451 0.838147 0.082768
O O14 0.159245 0.867744 0.857086
O O15 0.000000 0.172267 0.250000
#
# Coordination Sequence:
#
# PCOD9280314 Si02
#       7
#     8   8   8   8   8   8   8
#     4  11  20  36  57  83 121 154 186 244 299 342
#     4  10  22  38  57  84 110 157 197 242 293 349
#     4  11  20  33  53  83 118 154 191 235 287 358
#     4  10  21  37  58  87 119 155 195 239 300 350
#     4  10  22  39  55  83 120 148 200 244 289 352
#     4  11  20  36  60  82 114 155 201 233 294 359
#     4   9  18  35  53  82 117 149 195 233 283 356
#
# _framework density 21.673337
#
# number of rings (size 3 to 8) (size 9 to 14) (size 15 to 20)
#    0.000    1.714    5.714    1.286    2.000    0.000 
#    0.000    0.714    0.000    0.857    0.000    0.000 
#    0.000    0.000    0.000    0.000    0.000    0.000 
#
# Total GULP energy -156270.993956 kJ/mol
# GULP energy per Si atom -5581.106927 kJ/mol
# Density = 2.162401 g / cm^3
# Si number density = 21.673337 Si / 1000 Ang^3
#
#
#
# Elastic Constant Matrix: (Units=GPa)
#
#
# Indices 1 2 3 4 5 6 
#
# 1 46.1744 1.8916 4.4002 0.0000 17.9059 0.0000
# 2 1.8916 57.4405 -0.9276 0.0000 2.0717 0.0000
# 3 4.4002 -0.9276 143.4018 0.0000 17.6589 0.0000
# 4 0.0000 0.0000 0.0000 27.4674 0.0000 -0.6989
# 5 17.9059 2.0717 17.6589 0.0000 25.0165 0.0000
# 6 0.0000 0.0000 0.0000 -0.6989 0.0000 10.2218
#
#
#
# Elastic Compliance Matrix: (Units=1/GPa)
#
#
# Indices 1 2 3 4 5 6 
#
# 1 0.030452 -0.000137 0.001914 0.000000 -0.023136 0.000000
# 2 -0.000137 0.017475 0.000310 0.000000 -0.001568 0.000000
# 3 0.001914 0.000310 0.007763 0.000000 -0.006876 0.000000
# 4 0.000000 0.000000 0.000000 0.036470 0.000000 0.002493
# 5 -0.023136 -0.001568 -0.006876 0.000000 0.061517 0.000000
# 6 0.000000 0.000000 0.000000 0.002493 0.000000 0.098001
#
#
# Mechanical properties :
#
#
# Convention : Reuss Voigt Hill
#
# Bulk Modulus (GPa) = 16.70443 28.63833 22.67138
# Shear Modulus (GPa) = 18.69433 28.65129 23.67281
#
# Velocity S-wave (km/s) = 2.94011 3.63982 3.30851
# Velocity P-wave (km/s) = 4.38745 5.55938 5.00782
#
# Compressibility (1/GPa) = 0.05986437
#
# Stress axis : x y z
#
# Youngs Moduli (GPa) = 32.83827 57.22331 128.80981
#
# Poissons Ratio (x) = 0.00786 -0.24651
# Poissons Ratio (y) = 0.00451 -0.03997
# Poissons Ratio (z) = -0.06284 -0.01776
#
# Static dielectric constant tensor:
#      x y z
#    x 1.856830 0.000000 0.015860 
#    y 0.000000 1.764970 0.000000 
#    z 0.015860 0.000000 1.866220 
# 
# From -- ./inp_files/51593.got.cif
#   From: 2010.05.17/outbox.cif.g08.bks.cpg/sg15_26_cif.got.tgz:51593.got - 2010.06.03 18:47:42.
