data_PCOD9280099
_publ_section_title
;
Structure prediction by ZEFSAII (Michael W. Deem and Ramdas Pophale) SiO2 
 PCOD9280099
Probable space group: C 2/C
;
_chemical_formula_sum "Si O2"
_cell_formula_units_Z 44
_cell_length_a 11.793264
_cell_length_b 17.515824
_cell_length_c 14.688010
_cell_angle_alpha 90.000000
_cell_angle_beta 147.077293
_cell_angle_gamma 90.000000
_cell_volume 1649.046194
_symmetry_space_group_name_H-M "C 2/C"
_symmetry_group_IT_number 15
_symmetry_cell_setting 'monoclinic'
loop_
_space_group_symop_operation_xyz
x,y,z
-x,y,1/2-z
-x,-y,-z
x,-y,1/2+z
1/2+x,1/2+y,z
1/2-x,1/2+y,1/2-z
1/2-x,1/2-y,-z
1/2+x,1/2-y,1/2+z
loop_
_atom_site_type_symbol
_atom_site_label
_atom_site_fract_x
_atom_site_fract_y
_atom_site_fract_z
Si Si1 0.580140 0.987656 0.408368
Si Si2 0.391344 0.860379 0.842738
Si Si3 0.737846 0.863611 0.279959
Si Si4 0.049467 0.101101 0.394227
Si Si5 0.627686 0.718229 0.004235
Si Si6 0.500000 0.256265 0.750000
O O1 0.500000 0.982092 0.250000
O O2 0.433154 0.926566 0.362137
O O3 0.819936 0.963622 0.567272
O O4 0.541747 0.072536 0.414362
O O5 0.518117 0.792529 0.976385
O O6 0.280590 0.823352 0.678053
O O7 0.198223 0.894482 0.768017
O O8 0.877053 0.903023 0.452753
O O9 0.622364 0.796540 0.260140
O O10 0.924427 0.832843 0.342106
O O11 0.118053 0.181576 0.394210
O O12 0.750000 0.750000 0.000000
#
# Coordination Sequence:
#
# PCOD9280099 Si02
#       6
#     8   8   8   8   8   4
#     4  10  21  39  64  96 127 170 215 272 325 384
#     4  11  24  43  68  98 130 174 226 267 325 395
#     4  10  21  36  66  97 124 169 217 269 324 388
#     4  10  22  37  66  95 131 167 212 275 328 385
#     4  11  23  40  65  95 131 176 217 266 320 394
#     4  12  18  38  64  96 128 156 218 270 326 376
#
# _framework density 26.682089999999999
#
# number of rings (size 3 to 8) (size 9 to 14) (size 15 to 20)
#    0.000    1.455    4.545    2.182    0.000    8.000 
#    0.000    0.909   12.000    0.000    0.000    0.000 
#    0.000    0.000    0.000    0.000    0.000    0.000 
#
# Total GULP energy -123188.262824 kJ/mol
# GULP energy per Si atom -5599.466492 kJ/mol
# Density = 2.662136 g / cm^3
# Si number density = 26.682090 Si / 1000 Ang^3
#
#
#
# Elastic Constant Matrix: (Units=GPa)
#
#
# Indices 1 2 3 4 5 6 
#
# 1 133.9829 33.0875 50.7677 0.0000 21.7673 -0.0002
# 2 33.0875 142.1973 44.5764 -0.0009 31.2596 -0.0007
# 3 50.7677 44.5764 137.1449 0.0003 17.0457 -0.0002
# 4 0.0000 -0.0009 0.0003 32.9279 0.0005 6.7306
# 5 21.7673 31.2596 17.0457 0.0005 44.1779 -0.0002
# 6 -0.0002 -0.0007 -0.0002 6.7306 -0.0002 29.5881
#
#
#
# Elastic Compliance Matrix: (Units=1/GPa)
#
#
# Indices 1 2 3 4 5 6 
#
# 1 0.009170 -0.000584 -0.002830 0.000000 -0.003013 0.000000
# 2 -0.000584 0.008967 -0.002044 0.000000 -0.005269 0.000000
# 3 -0.002830 -0.002044 0.009086 0.000000 -0.000665 0.000000
# 4 0.000000 0.000000 0.000000 0.031850 -0.000001 -0.007245
# 5 -0.003013 -0.005269 -0.000665 -0.000001 0.028105 0.000000
# 6 0.000000 0.000000 0.000000 -0.007245 0.000000 0.035445
#
#
# Mechanical properties :
#
#
# Convention : Reuss Voigt Hill
#
# Bulk Modulus (GPa) = 61.32153 74.46537 67.89345
# Shear Modulus (GPa) = 35.97759 40.33168 38.15464
#
# Velocity S-wave (km/s) = 3.67601 3.89210 3.78560
# Velocity P-wave (km/s) = 6.40700 6.94024 6.67894
#
# Compressibility (1/GPa) = 0.01630749
#
# Stress axis : x y z
#
# Youngs Moduli (GPa) = 109.05470 111.51651 110.05830
#
# Poissons Ratio (x) = 0.06515 0.31147
# Poissons Ratio (y) = 0.06371 0.22491
# Poissons Ratio (z) = 0.30863 0.22789
#
# Static dielectric constant tensor:
#      x y z
#    x 2.112970 0.000000 -0.051060 
#    y 0.000000 2.084820 0.000000 
#    z -0.051060 0.000000 2.165800 
# 
# From -- ./inp_files/244623.got.cif
#   From: 2010.05.17/outbox.cif.g08.bks.cpg/sg15_123_cif.got.tgz:244623.got - 2010.06.03 18:47:42.
