data_PCOD9280589
_publ_section_title
;
Structure prediction by ZEFSAII (Michael W. Deem and Ramdas Pophale) SiO2 
 PCOD9280589
Probable space group: C 2/C
;
_chemical_formula_sum "Si O2"
_cell_formula_units_Z 56
_cell_length_a 12.739867
_cell_length_b 12.055402
_cell_length_c 17.951908
_cell_angle_alpha 90.000000
_cell_angle_beta 64.742361
_cell_angle_gamma 90.000000
_cell_volume 2493.543365
_symmetry_space_group_name_H-M "C 2/C"
_symmetry_group_IT_number 15
_symmetry_cell_setting 'monoclinic'
loop_
_space_group_symop_operation_xyz
x,y,z
-x,y,1/2-z
-x,-y,-z
x,-y,1/2+z
1/2+x,1/2+y,z
1/2-x,1/2+y,1/2-z
1/2-x,1/2-y,-z
1/2+x,1/2-y,1/2+z
loop_
_atom_site_type_symbol
_atom_site_label
_atom_site_fract_x
_atom_site_fract_y
_atom_site_fract_z
Si Si1 0.621203 0.380906 0.565062
Si Si2 0.823405 0.408599 0.694314
Si Si3 0.117075 0.564717 0.696769
Si Si4 0.630823 0.319599 0.860758
Si Si5 0.702706 0.266040 0.392798
Si Si6 0.730992 0.073691 0.042488
Si Si7 0.102450 0.414755 0.440177
O O1 0.485855 0.387377 0.619809
O O2 0.636982 0.313399 0.483236
O O3 0.695949 0.313103 0.603326
O O4 0.676394 0.498499 0.529100
O O5 0.888767 0.466265 0.741975
O O6 0.713172 0.348936 0.765914
O O7 0.880394 0.306857 0.633102
O O8 0.815254 0.505534 0.635241
O O9 0.232533 0.636961 0.671148
O O10 0.138968 0.511611 0.609404
O O11 0.000000 0.631192 0.750000
O O12 0.704091 0.362886 0.910552
O O13 0.588004 0.193679 0.891783
O O14 0.661538 0.131695 0.997529
O O15 0.000000 0.500000 0.500000
#
# Coordination Sequence:
#
# PCOD9280589 Si02
#       7
#     8   8   8   8   8   8   8
#     4  10  21  39  65  91 123 168 216 265 323 391
#     4  11  23  39  57  96 132 161 208 272 332 381
#     4  10  22  37  62  92 124 166 213 275 326 382
#     4  11  25  40  67  94 132 172 211 272 341 387
#     4  10  21  37  61  91 125 157 220 272 315 388
#     4  10  22  43  61  94 133 164 216 272 328 402
#     4  12  24  42  71  97 126 177 229 270 325 402
#
# _framework density 22.457999999999998
#
# number of rings (size 3 to 8) (size 9 to 14) (size 15 to 20)
#    0.000    1.429    1.429    3.429    8.000    0.000 
#    0.000    1.429    0.000    5.143    0.000    0.000 
#    0.000    0.000    0.000    0.000    0.000    0.000 
#
# Total GULP energy -156079.515296 kJ/mol
# GULP energy per Si atom -5574.268403 kJ/mol
# Density = 2.240688 g / cm^3
# Si number density = 22.458000 Si / 1000 Ang^3
#
#
#
# Elastic Constant Matrix: (Units=GPa)
#
#
# Indices 1 2 3 4 5 6 
#
# 1 35.4009 5.7330 34.6978 0.0000 -6.9383 0.0000
# 2 5.7330 64.0477 30.8495 0.0000 -8.9036 0.0000
# 3 34.6978 30.8495 74.8183 0.0000 -0.9780 0.0000
# 4 0.0000 0.0000 0.0000 41.9131 0.0000 9.6691
# 5 -6.9383 -8.9036 -0.9780 0.0000 38.1823 0.0000
# 6 0.0000 0.0000 0.0000 9.6691 0.0000 28.3369
#
#
#
# Elastic Compliance Matrix: (Units=1/GPa)
#
#
# Indices 1 2 3 4 5 6 
#
# 1 0.061814 0.012526 -0.033658 0.000000 0.013291 0.000000
# 2 0.012526 0.022767 -0.015103 0.000000 0.007198 0.000000
# 3 -0.033658 -0.015103 0.035088 0.000000 -0.008739 0.000000
# 4 0.000000 0.000000 0.000000 0.025897 0.000000 -0.008837
# 5 0.013291 0.007198 -0.008739 0.000000 0.030060 0.000000
# 6 0.000000 0.000000 0.000000 -0.008837 0.000000 0.038305
#
#
# Mechanical properties :
#
#
# Convention : Reuss Voigt Hill
#
# Bulk Modulus (GPa) = 21.18626 35.20306 28.19466
# Shear Modulus (GPa) = 16.54900 28.55224 22.55062
#
# Velocity S-wave (km/s) = 2.71751 3.56948 3.17223
# Velocity P-wave (km/s) = 4.39325 5.71816 5.09893
#
# Compressibility (1/GPa) = 0.04720039
#
# Stress axis : x y z
#
# Youngs Moduli (GPa) = 16.17766 43.92287 28.49980
#
# Poissons Ratio (x) = -0.55020 0.95925
# Poissons Ratio (y) = -0.20265 0.43042
# Poissons Ratio (z) = 0.54451 0.66335
#
# Static dielectric constant tensor:
#      x y z
#    x 1.856740 0.000000 0.014520 
#    y 0.000000 1.877870 0.000000 
#    z 0.014520 0.000000 1.818010 
# 
# From -- ./inp_files/204373.got.cif
#   From: 2010.05.17/outbox.cif.g08.bks.cpg/sg15_103_cif.got.tgz:204373.got - 2010.06.03 18:47:42.
