data_PCOD9280105
_publ_section_title
;
Structure prediction by ZEFSAII (Michael W. Deem and Ramdas Pophale) SiO2 
 PCOD9280105
Probable space group: C 2/C
;
_chemical_formula_sum "Si O2"
_cell_formula_units_Z 44
_cell_length_a 14.624966
_cell_length_b 13.146007
_cell_length_c 11.959276
_cell_angle_alpha 90.000000
_cell_angle_beta 129.437051
_cell_angle_gamma 90.000000
_cell_volume 1775.793887
_symmetry_space_group_name_H-M "C 2/C"
_symmetry_group_IT_number 15
_symmetry_cell_setting 'monoclinic'
loop_
_space_group_symop_operation_xyz
x,y,z
-x,y,1/2-z
-x,-y,-z
x,-y,1/2+z
1/2+x,1/2+y,z
1/2-x,1/2+y,1/2-z
1/2-x,1/2-y,-z
1/2+x,1/2-y,1/2+z
loop_
_atom_site_type_symbol
_atom_site_label
_atom_site_fract_x
_atom_site_fract_y
_atom_site_fract_z
Si Si1 0.357681 0.978129 0.145524
Si Si2 0.804748 0.340987 0.463849
Si Si3 0.257661 0.787159 0.170752
Si Si4 0.950907 0.123915 0.894428
Si Si5 0.500000 0.758613 0.750000
Si Si6 0.186305 0.919976 0.686738
O O1 0.500000 0.979293 0.250000
O O2 0.292139 0.041879 0.995808
O O3 0.300523 0.037465 0.209403
O O4 0.319802 0.860069 0.129952
O O5 0.750000 0.250000 0.500000
O O6 0.797758 0.326610 0.325915
O O7 0.941318 0.325259 0.609899
O O8 0.118796 0.817720 0.061733
O O9 0.282297 0.667732 0.201010
O O10 0.919092 0.182113 0.756769
O O11 0.895745 0.012963 0.837551
O O12 0.090634 0.125051 0.022767
#
# Coordination Sequence:
#
# PCOD9280105 Si02
#       6
#     8   8   8   8   4   8
#     4  11  24  42  64 100 135 167 224 275 335 402
#     4  12  21  38  67  96 122 168 225 271 325 392
#     4  11  23  40  68  96 135 174 217 282 341 389
#     4  10  21  36  67  95 125 169 225 278 319 395
#     4  12  18  34  64  96 118 164 226 278 304 380
#     4  10  21  42  64  93 132 176 221 270 336 392
#
# _framework density 24.777647999999999
#
# number of rings (size 3 to 8) (size 9 to 14) (size 15 to 20)
#    0.000    1.091    6.364    0.000    0.000    0.727 
#    1.636    1.818    0.000    7.636    0.000    0.000 
#    0.000    0.000    0.000    0.000    0.000    0.000 
#
# Total GULP energy -122658.794002 kJ/mol
# GULP energy per Si atom -5575.399727 kJ/mol
# Density = 2.472125 g / cm^3
# Si number density = 24.777648 Si / 1000 Ang^3
#
#
#
# Elastic Constant Matrix: (Units=GPa)
#
#
# Indices 1 2 3 4 5 6 
#
# 1 90.0730 33.4448 22.9353 0.0000 30.2453 0.0000
# 2 33.4448 155.7246 7.6214 0.0000 11.0540 0.0000
# 3 22.9353 7.6214 64.0493 0.0000 -1.6999 0.0000
# 4 0.0000 0.0000 0.0000 28.4797 0.0000 -12.5342
# 5 30.2453 11.0540 -1.6999 0.0000 37.3380 0.0000
# 6 0.0000 0.0000 0.0000 -12.5342 0.0000 27.9657
#
#
#
# Elastic Compliance Matrix: (Units=1/GPa)
#
#
# Indices 1 2 3 4 5 6 
#
# 1 0.018759 -0.002652 -0.006792 0.000000 -0.014720 0.000000
# 2 -0.002652 0.006979 0.000121 0.000000 0.000087 0.000000
# 3 -0.006792 0.000121 0.018198 0.000000 0.006295 0.000000
# 4 0.000000 0.000000 0.000000 0.043741 0.000000 0.019605
# 5 -0.014720 0.000087 0.006295 0.000000 0.038967 0.000000
# 6 0.000000 0.000000 0.000000 0.019605 0.000000 0.044545
#
#
# Mechanical properties :
#
#
# Convention : Reuss Voigt Hill
#
# Bulk Modulus (GPa) = 39.54069 48.64998 44.09533
# Shear Modulus (GPa) = 25.21894 35.14638 30.18266
#
# Velocity S-wave (km/s) = 3.19377 3.77035 3.49397
# Velocity P-wave (km/s) = 5.43996 6.21540 5.84056
#
# Compressibility (1/GPa) = 0.02529041
#
# Stress axis : x y z
#
# Youngs Moduli (GPa) = 53.30801 143.28851 54.95140
#
# Poissons Ratio (x) = 0.37993 0.37326
# Poissons Ratio (y) = 0.14135 -0.00667
# Poissons Ratio (z) = 0.36209 -0.01739
#
# Static dielectric constant tensor:
#      x y z
#    x 2.066110 0.000000 0.142230 
#    y 0.000000 2.148200 0.000000 
#    z 0.142230 0.000000 2.174440 
# 
# From -- ./inp_files/153656.got.cif
#   From: 2010.05.17/outbox.cif.g08.bks.cpg/sg15_77_cif.got.tgz:153656.got - 2010.06.03 18:47:42.
