data_PCOD9280311
_publ_section_title
;
Structure prediction by ZEFSAII (Michael W. Deem and Ramdas Pophale) SiO2 
 PCOD9280311
Probable space group: C 2/C
;
_chemical_formula_sum "Si O2"
_cell_formula_units_Z 48
_cell_length_a 17.918721
_cell_length_b 15.905954
_cell_length_c 16.440585
_cell_angle_alpha 90.000000
_cell_angle_beta 30.752131
_cell_angle_gamma 90.000000
_cell_volume 2395.968288
_symmetry_space_group_name_H-M "C 2/C"
_symmetry_group_IT_number 15
_symmetry_cell_setting 'monoclinic'
loop_
_space_group_symop_operation_xyz
x,y,z
-x,y,1/2-z
-x,-y,-z
x,-y,1/2+z
1/2+x,1/2+y,z
1/2-x,1/2+y,1/2-z
1/2-x,1/2-y,-z
1/2+x,1/2-y,1/2+z
loop_
_atom_site_type_symbol
_atom_site_label
_atom_site_fract_x
_atom_site_fract_y
_atom_site_fract_z
Si Si1 0.139848 0.834498 0.861719
Si Si2 0.814715 0.824446 0.141533
Si Si3 0.688795 0.484017 0.236879
Si Si4 0.329839 0.168952 0.893447
Si Si5 0.162379 0.511560 0.062294
Si Si6 0.424469 0.397488 0.401949
O O1 0.254472 0.760680 0.738564
O O2 0.188913 0.925940 0.781412
O O3 0.104005 0.841700 0.991651
O O4 0.986177 0.813176 0.961724
O O5 0.807223 0.907301 0.204018
O O6 0.714769 0.841550 0.157710
O O7 0.537526 0.469484 0.327850
O O8 0.817909 0.469120 0.051148
O O9 0.500000 0.178907 0.750000
O O10 0.284030 0.084486 0.981907
O O11 0.250000 0.250000 0.000000
O O12 0.000000 0.517325 0.250000
O O13 0.271948 0.566113 0.013703
O O14 0.500000 0.358760 0.250000
#
# Coordination Sequence:
#
# PCOD9280311 Si02
#       6
#     8   8   8   8   8   8
#     4  11  22  40  62  89 120 158 200 248 297 352
#     4  11  23  39  61  91 120 156 203 246 294 357
#     4  10  21  40  63  85 119 163 199 241 298 360
#     4  11  22  36  54  82 116 150 189 241 296 353
#     4  10  21  37  58  87 116 151 198 249 299 346
#     4   9  19  38  62  84 115 160 202 237 290 360
#
# _framework density 20.033653999999999
#
# number of rings (size 3 to 8) (size 9 to 14) (size 15 to 20)
#    0.000    1.667    0.000    6.000    0.000    4.667 
#    0.000   13.333    0.000    0.000    0.000    0.000 
#    0.000    0.000    0.000    0.000    0.000    0.000 
#
# Total GULP energy -134002.069983 kJ/mol
# GULP energy per Si atom -5583.419583 kJ/mol
# Density = 1.998806 g / cm^3
# Si number density = 20.033654 Si / 1000 Ang^3
#
#
#
# Elastic Constant Matrix: (Units=GPa)
#
#
# Indices 1 2 3 4 5 6 
#
# 1 104.3149 18.3872 28.7360 0.0001 -1.7987 0.0000
# 2 18.3872 77.3380 28.7425 -0.0002 -10.5468 0.0001
# 3 28.7360 28.7425 79.5855 -0.0001 -6.8458 0.0001
# 4 0.0001 -0.0002 -0.0001 34.6275 0.0001 4.2410
# 5 -1.7987 -10.5468 -6.8458 0.0001 23.0095 0.0000
# 6 0.0000 0.0001 0.0001 4.2410 0.0000 12.4346
#
#
#
# Elastic Compliance Matrix: (Units=1/GPa)
#
#
# Indices 1 2 3 4 5 6 
#
# 1 0.010769 -0.001387 -0.003458 0.000000 -0.000823 0.000000
# 2 -0.001387 0.015792 -0.004709 0.000000 0.005729 0.000000
# 3 -0.003458 -0.004709 0.015708 0.000000 0.002244 0.000000
# 4 0.000000 0.000000 0.000000 0.030138 0.000000 -0.010279
# 5 -0.000823 0.005729 0.002244 0.000000 0.046690 0.000000
# 6 0.000000 0.000000 0.000000 -0.010279 0.000000 0.083927
#
#
# Mechanical properties :
#
#
# Convention : Reuss Voigt Hill
#
# Bulk Modulus (GPa) = 43.18078 45.88553 44.53316
# Shear Modulus (GPa) = 21.75310 26.37250 24.06280
#
# Velocity S-wave (km/s) = 3.29877 3.63217 3.46948
# Velocity P-wave (km/s) = 6.00916 6.36743 6.19089
#
# Compressibility (1/GPa) = 0.02315845
#
# Stress axis : x y z
#
# Youngs Moduli (GPa) = 92.85595 63.32469 63.66332
#
# Poissons Ratio (x) = 0.08786 0.22016
# Poissons Ratio (y) = 0.12883 0.29982
# Poissons Ratio (z) = 0.32112 0.29822
#
# Static dielectric constant tensor:
#      x y z
#    x 1.838220 0.000000 0.033990 
#    y 0.000000 1.635760 0.000000 
#    z 0.033990 0.000000 1.740560 
# 
# From -- ./inp_files/211298.got.cif
#   From: 2010.05.17/outbox.cif.g08.bks.cpg/sg15_106_cif.got.tgz:211298.got - 2010.06.03 18:47:42.
