data_PCOD9280625
_publ_section_title
;
Structure prediction by ZEFSAII (Michael W. Deem and Ramdas Pophale) SiO2 
 PCOD9280625
Probable space group: C 2/C
;
_chemical_formula_sum "Si O2"
_cell_formula_units_Z 48
_cell_length_a 16.996486
_cell_length_b 15.004541
_cell_length_c 17.069867
_cell_angle_alpha 90.000000
_cell_angle_beta 149.195093
_cell_angle_gamma 90.000000
_cell_volume 2229.362541
_symmetry_space_group_name_H-M "C 2/C"
_symmetry_group_IT_number 15
_symmetry_cell_setting 'monoclinic'
loop_
_space_group_symop_operation_xyz
x,y,z
-x,y,1/2-z
-x,-y,-z
x,-y,1/2+z
1/2+x,1/2+y,z
1/2-x,1/2+y,1/2-z
1/2-x,1/2-y,-z
1/2+x,1/2-y,1/2+z
loop_
_atom_site_type_symbol
_atom_site_label
_atom_site_fract_x
_atom_site_fract_y
_atom_site_fract_z
Si Si1 0.809472 0.640654 0.991569
Si Si2 0.335535 0.179930 0.181384
Si Si3 0.139185 0.356629 0.418075
Si Si4 0.136926 0.476418 0.557062
Si Si5 0.306489 0.309232 0.424280
Si Si6 0.341932 0.323609 0.812482
O O1 0.801618 0.617581 0.077310
O O2 0.990588 0.668014 0.139166
O O3 0.693061 0.720840 0.875636
O O4 0.780971 0.565099 0.903250
O O5 0.216277 0.169979 0.149101
O O6 0.082033 0.433672 0.427137
O O7 0.252815 0.380735 0.443783
O O8 0.195358 0.279998 0.523899
O O9 0.000000 0.316211 0.250000
O O10 0.251840 0.404474 0.692896
O O11 0.000000 0.500000 0.500000
O O12 0.476314 0.330633 0.541076
O O13 0.205386 0.273568 0.264886
#
# Coordination Sequence:
#
# PCOD9280625 Si02
#       6
#     8   8   8   8   8   8
#     4  10  22  42  63  90 122 164 223 251 316 365
#     4  10  21  39  66  88 120 169 207 262 296 385
#     4  10  21  37  62  89 130 164 207 254 323 383
#     4  11  24  38  61  93 123 168 208 268 315 371
#     4  10  21  37  61  98 126 167 207 258 316 385
#     4  11  21  38  66  97 133 159 214 262 318 382
#
# _framework density 21.530819000000001
#
# number of rings (size 3 to 8) (size 9 to 14) (size 15 to 20)
#    0.000    1.667    3.333    1.000    4.667    0.000 
#    0.000    6.667    0.000    4.000    0.000    0.000 
#    0.000    0.000    0.000    0.000    0.000    0.000 
#
# Total GULP energy -133744.158330 kJ/mol
# GULP energy per Si atom -5572.673264 kJ/mol
# Density = 2.148181 g / cm^3
# Si number density = 21.530819 Si / 1000 Ang^3
#
#
#
# Elastic Constant Matrix: (Units=GPa)
#
#
# Indices 1 2 3 4 5 6 
#
# 1 189.0448 20.5501 22.6928 0.0001 7.1861 0.0003
# 2 20.5501 54.6305 -1.6985 -0.0001 -8.5607 0.0000
# 3 22.6928 -1.6985 36.6545 0.0001 6.0573 0.0001
# 4 0.0001 -0.0001 0.0001 12.8453 0.0000 -0.7194
# 5 7.1861 -8.5607 6.0573 0.0000 27.5566 -0.0001
# 6 0.0003 0.0000 0.0001 -0.7194 -0.0001 28.7067
#
#
#
# Elastic Compliance Matrix: (Units=1/GPa)
#
#
# Indices 1 2 3 4 5 6 
#
# 1 0.006073 -0.002650 -0.003616 0.000000 -0.001612 0.000000
# 2 -0.002650 0.020398 0.001478 0.000000 0.006703 0.000000
# 3 -0.003616 0.001478 0.030464 0.000000 -0.005294 0.000000
# 4 0.000000 0.000000 0.000000 0.077959 0.000000 0.001954
# 5 -0.001612 0.006703 -0.005294 0.000000 0.039955 0.000000
# 6 0.000000 0.000000 0.000000 0.001954 0.000000 0.034884
#
#
# Mechanical properties :
#
#
# Convention : Reuss Voigt Hill
#
# Bulk Modulus (GPa) = 21.11533 40.37985 30.74759
# Shear Modulus (GPa) = 21.26796 29.74073 25.50435
#
# Velocity S-wave (km/s) = 3.14632 3.72063 3.44546
# Velocity P-wave (km/s) = 4.79869 6.10349 5.48999
#
# Compressibility (1/GPa) = 0.04735895
#
# Stress axis : x y z
#
# Youngs Moduli (GPa) = 164.65947 49.02498 32.82562
#
# Poissons Ratio (x) = 0.12989 0.11871
# Poissons Ratio (y) = 0.43627 -0.04851
# Poissons Ratio (z) = 0.59546 -0.07245
#
# Static dielectric constant tensor:
#      x y z
#    x 1.800750 0.000000 0.114400 
#    y 0.000000 1.855140 0.000000 
#    z 0.114400 0.000000 1.531230 
# 
# From -- ./inp_files/211462.got.cif
#   From: 2010.05.17/outbox.cif.g08.bks.cpg/sg15_106_cif.got.tgz:211462.got - 2010.06.03 18:47:42.
