data_PCOD9280264
_publ_section_title
;
Structure prediction by ZEFSAII (Michael W. Deem and Ramdas Pophale) SiO2 
 PCOD9280264
Probable space group: C 2/C
;
_chemical_formula_sum "Si O2"
_cell_formula_units_Z 64
_cell_length_a 8.956806
_cell_length_b 28.818742
_cell_length_c 11.946436
_cell_angle_alpha 90.000000
_cell_angle_beta 97.621456
_cell_angle_gamma 90.000000
_cell_volume 3056.419198
_symmetry_space_group_name_H-M "C 2/C"
_symmetry_group_IT_number 15
_symmetry_cell_setting 'monoclinic'
loop_
_space_group_symop_operation_xyz
x,y,z
-x,y,1/2-z
-x,-y,-z
x,-y,1/2+z
1/2+x,1/2+y,z
1/2-x,1/2+y,1/2-z
1/2-x,1/2-y,-z
1/2+x,1/2-y,1/2+z
loop_
_atom_site_type_symbol
_atom_site_label
_atom_site_fract_x
_atom_site_fract_y
_atom_site_fract_z
Si Si1 0.852054 0.863561 0.306524
Si Si2 0.017783 0.545154 0.880342
Si Si3 0.620652 0.726226 0.559142
Si Si4 0.579763 0.330132 0.639516
Si Si5 0.015494 0.923975 0.979085
Si Si6 0.428041 0.141050 0.860811
Si Si7 0.268098 0.497472 0.030914
Si Si8 0.640786 0.210207 0.441716
O O1 0.811848 0.813507 0.354813
O O2 0.893604 0.899292 0.409620
O O3 0.728947 0.878661 0.203688
O O4 0.000000 0.855388 0.250000
O O5 0.000000 0.553055 0.750000
O O6 0.019628 0.598170 0.925115
O O7 0.868173 0.518523 0.904367
O O8 0.168152 0.516478 0.917975
O O9 0.750000 0.750000 0.500000
O O10 0.512723 0.698745 0.462471
O O11 0.513880 0.764190 0.608374
O O12 0.500000 0.320506 0.750000
O O13 0.553096 0.383620 0.603782
O O14 0.755401 0.316278 0.639324
O O15 0.127873 0.958896 0.925554
O O16 0.880880 0.955785 0.013944
O O17 0.500000 0.158490 0.750000
O O18 0.398282 0.177803 0.955118
O O19 0.750000 0.250000 0.500000
#
# Coordination Sequence:
#
# PCOD9280264 Si02
#       8
#     8   8   8   8   8   8   8   8
#     4  11  21  36  58  85 114 144 188 242 291 338
#     4  10  21  37  57  86 115 147 188 235 294 357
#     4  10  22  37  57  85 114 145 191 242 288 347
#     4  10  22  39  56  77 114 158 193 228 281 346
#     4  10  21  38  58  83 112 151 194 240 288 344
#     4  11  21  36  62  88 115 149 188 241 301 348
#     4  10  21  37  59  83 115 148 187 240 292 345
#     4  10  21  38  57  83 116 152 191 234 288 349
#
# _framework density 20.939536
#
# number of rings (size 3 to 8) (size 9 to 14) (size 15 to 20)
#    0.000    1.750    0.000    6.000    0.000    7.000 
#    0.000    2.500    0.000    0.000    0.000    0.000 
#    0.000    0.000    0.000    0.000    0.000    0.000 
#
# Total GULP energy -178495.998502 kJ/mol
# GULP energy per Si atom -5577.999953 kJ/mol
# Density = 2.089188 g / cm^3
# Si number density = 20.939536 Si / 1000 Ang^3
#
#
#
# Elastic Constant Matrix: (Units=GPa)
#
#
# Indices 1 2 3 4 5 6 
#
# 1 110.3747 43.5634 -0.0268 0.0000 -9.1781 0.0000
# 2 43.5634 109.6095 25.5712 0.0000 -7.6855 0.0000
# 3 -0.0268 25.5712 26.4960 0.0000 -12.1759 0.0000
# 4 0.0000 0.0000 0.0000 19.8612 0.0000 -15.9508
# 5 -9.1781 -7.6855 -12.1759 0.0000 33.3715 0.0000
# 6 0.0000 0.0000 0.0000 -15.9508 0.0000 26.8086
#
#
#
# Elastic Compliance Matrix: (Units=1/GPa)
#
#
# Indices 1 2 3 4 5 6 
#
# 1 0.011991 -0.006389 0.008431 0.000000 0.004903 0.000000
# 2 -0.006389 0.015261 -0.016733 0.000000 -0.004348 0.000000
# 3 0.008431 -0.016733 0.063909 0.000000 0.021783 0.000000
# 4 0.000000 0.000000 0.000000 0.096426 0.000000 0.057372
# 5 0.004903 -0.004348 0.021783 0.000000 0.038261 0.000000
# 6 0.000000 0.000000 0.000000 0.057372 0.000000 0.071437
#
#
# Mechanical properties :
#
#
# Convention : Reuss Voigt Hill
#
# Bulk Modulus (GPa) = 16.18643 42.74399 29.46521
# Shear Modulus (GPa) = 14.39838 27.83308 21.11573
#
# Velocity S-wave (km/s) = 2.62509 3.64979 3.17900
# Velocity P-wave (km/s) = 4.11521 6.18213 5.25136
#
# Compressibility (1/GPa) = 0.06178015
#
# Stress axis : x y z
#
# Youngs Moduli (GPa) = 83.39267 65.52443 15.64716
#
# Poissons Ratio (x) = 0.41864 -0.13192
# Poissons Ratio (y) = 0.53280 0.26183
# Poissons Ratio (z) = -0.70310 1.09643
#
# Static dielectric constant tensor:
#      x y z
#    x 1.819040 0.000000 0.025430 
#    y 0.000000 1.365560 0.000000 
#    z 0.025430 0.000000 1.797000 
# 
# From -- ./inp_files/82570.got.cif
#   From: 2010.05.17/outbox.cif.g08.bks.cpg/sg15_42_cif.got.tgz:82570.got - 2010.06.03 18:47:42.
