data_PCOD9280612
_publ_section_title
;
Structure prediction by ZEFSAII (Michael W. Deem and Ramdas Pophale) SiO2 
 PCOD9280612
Probable space group: C 2/C
;
_chemical_formula_sum "Si O2"
_cell_formula_units_Z 40
_cell_length_a 16.867696
_cell_length_b 18.122429
_cell_length_c 11.747671
_cell_angle_alpha 90.000000
_cell_angle_beta 28.770203
_cell_angle_gamma 90.000000
_cell_volume 1728.374686
_symmetry_space_group_name_H-M "C 2/C"
_symmetry_group_IT_number 15
_symmetry_cell_setting 'monoclinic'
loop_
_space_group_symop_operation_xyz
x,y,z
-x,y,1/2-z
-x,-y,-z
x,-y,1/2+z
1/2+x,1/2+y,z
1/2-x,1/2+y,1/2-z
1/2-x,1/2-y,-z
1/2+x,1/2-y,1/2+z
loop_
_atom_site_type_symbol
_atom_site_label
_atom_site_fract_x
_atom_site_fract_y
_atom_site_fract_z
Si Si1 0.189466 0.809627 0.986626
Si Si2 0.812523 0.970256 0.240734
Si Si3 0.796670 0.025437 0.012202
Si Si4 0.221010 0.810604 0.294585
Si Si5 0.420394 0.216031 0.744282
O O1 0.214843 0.766327 0.838194
O O2 0.250000 0.750000 0.000000
O O3 0.264554 0.890165 0.897759
O O4 0.000000 0.820974 0.250000
O O5 0.744161 0.998497 0.449508
O O6 0.805146 0.880754 0.253031
O O7 0.747101 0.989852 0.196036
O O8 0.000000 0.000000 0.000000
O O9 0.000000 0.020706 0.750000
O O10 0.362378 0.829229 0.208365
O O11 0.043169 0.784227 0.563595
O O12 0.500000 0.173640 0.750000
O O13 0.250000 0.250000 0.000000
#
# Coordination Sequence:
#
# PCOD9280612 Si02
#       5
#     8   8   8   8   8
#     4  11  21  37  65  96 131 162 223 275 331 388
#     4  10  21  37  61  95 129 165 227 273 333 392
#     4   9  20  37  58  93 127 170 214 275 324 390
#     4  11  21  38  66  97 127 176 222 284 330 396
#     4   9  21  38  58  93 132 169 221 267 335 396
#
# _framework density 23.143129999999999
#
# number of rings (size 3 to 8) (size 9 to 14) (size 15 to 20)
#    0.000    2.000    2.000    1.200    5.600    7.200 
#    3.600    0.000    0.000    6.000    0.000    0.000 
#    0.000    0.000    0.000    0.000    0.000    0.000 
#
# Total GULP energy -111358.387700 kJ/mol
# GULP energy per Si atom -5567.919385 kJ/mol
# Density = 2.309046 g / cm^3
# Si number density = 23.143130 Si / 1000 Ang^3
#
#
#
# Elastic Constant Matrix: (Units=GPa)
#
#
# Indices 1 2 3 4 5 6 
#
# 1 154.3577 32.5188 38.2269 0.0022 31.4562 -0.0007
# 2 32.5188 78.4936 12.2381 0.0042 20.0055 -0.0011
# 3 38.2269 12.2381 64.7843 0.0019 22.0559 0.0001
# 4 0.0022 0.0042 0.0019 -4.3876 -0.0025 -2.4617
# 5 31.4562 20.0055 22.0559 -0.0025 43.4768 0.0006
# 6 -0.0007 -0.0011 0.0001 -2.4617 0.0006 27.2049
#
#
#
# Elastic Compliance Matrix: (Units=1/GPa)
#
#
# Indices 1 2 3 4 5 6 
#
# 1 0.008469 -0.002102 -0.003437 0.000002 -0.003417 0.000000
# 2 -0.002102 0.014971 0.000290 0.000015 -0.005515 0.000002
# 3 -0.003437 0.000290 0.020075 0.000011 -0.007831 0.000001
# 4 0.000002 0.000015 0.000011 -0.216901 -0.000027 -0.019627
# 5 -0.003417 -0.005515 -0.007831 -0.000027 0.031983 -0.000003
# 6 0.000000 0.000002 0.000001 -0.019627 -0.000003 0.034982
#
#
# Mechanical properties :
#
#
# Convention : Reuss Voigt Hill
#
# Bulk Modulus (GPa) = 30.28747 51.51148 40.89947
# Shear Modulus (GPa) = -58.88073 27.56894 -15.65589
#
# Velocity S-wave (km/s) = -5.04948 3.45517 -2.60375
# Velocity P-wave (km/s) = 4.56956 6.18253 2.94473
#
# Compressibility (1/GPa) = 0.03301695
#
# Stress axis : x y z
#
# Youngs Moduli (GPa) = 118.08263 66.79540 49.81298
#
# Poissons Ratio (x) = 0.14039 0.17120
# Poissons Ratio (y) = 0.24819 -0.01443
# Poissons Ratio (z) = 0.40583 -0.01935
#
# Static dielectric constant tensor:
#      x y z
#    x 2.104080 -0.000010 -0.079480 
#    y -0.000010 1.989520 0.000010 
#    z -0.079480 0.000010 2.316530 
# 
# From -- ./inp_files/98091.got.cif
#   From: 2010.05.17/outbox.cif.g08.bks.cpg/sg15_50_cif.got.tgz:98091.got - 2010.06.03 18:47:42.
