data_PCOD9280931
_publ_section_title
;
Structure prediction by ZEFSAII (Michael W. Deem and Ramdas Pophale) SiO2 
 PCOD9280931
Probable space group: C 2/C
;
_chemical_formula_sum "Si O2"
_cell_formula_units_Z 52
_cell_length_a 9.379621
_cell_length_b 11.478054
_cell_length_c 24.393696
_cell_angle_alpha 90.000000
_cell_angle_beta 108.461130
_cell_angle_gamma 90.000000
_cell_volume 2491.071629
_symmetry_space_group_name_H-M "C 2/C"
_symmetry_group_IT_number 15
_symmetry_cell_setting 'monoclinic'
loop_
_space_group_symop_operation_xyz
x,y,z
-x,y,1/2-z
-x,-y,-z
x,-y,1/2+z
1/2+x,1/2+y,z
1/2-x,1/2+y,1/2-z
1/2-x,1/2-y,-z
1/2+x,1/2-y,1/2+z
loop_
_atom_site_type_symbol
_atom_site_label
_atom_site_fract_x
_atom_site_fract_y
_atom_site_fract_z
Si Si1 0.185833 0.062875 0.680069
Si Si2 0.623636 0.231340 0.920329
Si Si3 0.448642 0.004151 0.138965
Si Si4 0.343300 0.989082 0.011319
Si Si5 0.967265 0.020110 0.059725
Si Si6 0.500000 0.561953 0.250000
Si Si7 0.724011 0.820513 0.662555
O O1 0.076357 0.044121 0.614538
O O2 0.200429 0.200184 0.691434
O O3 0.341643 0.002575 0.679116
O O4 0.109149 0.008307 0.723315
O O5 0.680531 0.146209 0.975179
O O6 0.528686 0.342300 0.926714
O O7 0.757542 0.279893 0.898358
O O8 0.529484 0.133530 0.873715
O O9 0.596520 0.083394 0.158709
O O10 0.795056 0.975579 0.043357
O O11 0.356987 0.047761 0.073219
O O12 0.500000 0.000000 0.000000
O O13 0.000000 0.000000 0.000000
O O14 0.611964 0.633547 0.301905
#
# Coordination Sequence:
#
# PCOD9280931 Si02
#       7
#     8   8   8   8   8   4   8
#     4  11  26  46  68 110 133 184 234 286 355 412
#     4   9  21  40  70  94 139 190 225 270 349 413
#     4   9  22  43  67  99 139 176 232 279 343 419
#     4  10  21  37  67 102 132 192 224 271 345 411
#     4  12  20  41  67 101 148 177 230 286 340 428
#     4  12  28  46  76  98 132 186 234 296 358 408
#     4  11  23  50  73  97 138 183 232 299 349 412
#
# _framework density 20.874551
#
# number of rings (size 3 to 8) (size 9 to 14) (size 15 to 20)
#    0.923    0.615    3.077    1.385    0.000    5.538 
#    5.538    1.538    0.000    0.000    0.000    0.000 
#    0.000    0.000    0.000    0.000    0.000    0.000 
#
# Total GULP energy -144946.722283 kJ/mol
# GULP energy per Si atom -5574.873934 kJ/mol
# Density = 2.082704 g / cm^3
# Si number density = 20.874551 Si / 1000 Ang^3
#
#
#
# Elastic Constant Matrix: (Units=GPa)
#
#
# Indices 1 2 3 4 5 6 
#
# 1 112.5387 53.1034 19.8531 0.0000 -13.9213 0.0000
# 2 53.1034 92.1304 17.2114 0.0000 -16.2018 0.0000
# 3 19.8531 17.2114 58.7825 0.0000 -26.4701 0.0000
# 4 0.0000 0.0000 0.0000 10.1122 0.0000 -16.3756
# 5 -13.9213 -16.2018 -26.4701 0.0000 35.8526 0.0000
# 6 0.0000 0.0000 0.0000 -16.3756 0.0000 27.3968
#
#
#
# Elastic Compliance Matrix: (Units=1/GPa)
#
#
# Indices 1 2 3 4 5 6 
#
# 1 0.012477 -0.006754 -0.002141 0.000000 0.000212 0.000000
# 2 -0.006754 0.015546 -0.000432 0.000000 0.004084 0.000000
# 3 -0.002141 -0.000432 0.026065 0.000000 0.018217 0.000000
# 4 0.000000 0.000000 0.000000 3.085335 0.000000 1.844171
# 5 0.000212 0.004084 0.018217 0.000000 0.043270 0.000000
# 6 0.000000 0.000000 0.000000 1.844171 0.000000 1.138802
#
#
# Mechanical properties :
#
#
# Convention : Reuss Voigt Hill
#
# Bulk Modulus (GPa) = 28.22164 49.30972 38.76568
# Shear Modulus (GPa) = 1.14891 26.22457 13.68674
#
# Velocity S-wave (km/s) = 0.74269 3.54827 2.56338
# Velocity P-wave (km/s) = 3.77947 6.36083 5.23185
#
# Compressibility (1/GPa) = 0.03543381
#
# Stress axis : x y z
#
# Youngs Moduli (GPa) = 80.14815 64.32433 38.36615
#
# Poissons Ratio (x) = 0.43447 0.08214
# Poissons Ratio (y) = 0.54135 0.01656
# Poissons Ratio (z) = 0.17159 0.02777
#
# Static dielectric constant tensor:
#      x y z
#    x 1.784470 0.000000 0.011910 
#    y 0.000000 1.759050 0.000000 
#    z 0.011910 0.000000 1.800120 
# 
# From -- ./inp_files/287680.got.cif
#   From: 2010.05.17/outbox.cif.g08.bks.cpg/sg15_144_cif.got.tgz:287680.got - 2010.06.03 18:47:42.
