data_PCOD9280273
_publ_section_title
;
Structure prediction by ZEFSAII (Michael W. Deem and Ramdas Pophale) SiO2 
 PCOD9280273
Probable space group: C 2/C
;
_chemical_formula_sum "Si O2"
_cell_formula_units_Z 56
_cell_length_a 22.905496
_cell_length_b 14.514788
_cell_length_c 9.034780
_cell_angle_alpha 90.000000
_cell_angle_beta 54.156301
_cell_angle_gamma 90.000000
_cell_volume 2434.915661
_symmetry_space_group_name_H-M "C 2/C"
_symmetry_group_IT_number 15
_symmetry_cell_setting 'monoclinic'
loop_
_space_group_symop_operation_xyz
x,y,z
-x,y,1/2-z
-x,-y,-z
x,-y,1/2+z
1/2+x,1/2+y,z
1/2-x,1/2+y,1/2-z
1/2-x,1/2-y,-z
1/2+x,1/2-y,1/2+z
loop_
_atom_site_type_symbol
_atom_site_label
_atom_site_fract_x
_atom_site_fract_y
_atom_site_fract_z
Si Si1 0.666503 0.032664 0.465582
Si Si2 0.500000 0.218384 0.250000
Si Si3 0.616991 0.391259 0.473109
Si Si4 0.101353 0.769182 0.854095
Si Si5 0.500000 0.746381 0.250000
Si Si6 0.566185 0.933706 0.856675
Si Si7 0.772796 0.374394 0.345684
Si Si8 0.578094 0.480437 0.810800
O O1 0.614964 0.087362 0.427689
O O2 0.718231 0.090246 0.497887
O O3 0.614074 0.983656 0.661268
O O4 0.703311 0.956066 0.304282
O O5 0.438860 0.269999 0.429678
O O6 0.463635 0.154699 0.180737
O O7 0.553812 0.317013 0.572901
O O8 0.691175 0.352204 0.424785
O O9 0.587857 0.474689 0.620537
O O10 0.627119 0.438171 0.300473
O O11 0.174580 0.712099 0.754243
O O12 0.102787 0.876487 0.811178
O O13 0.053972 0.715816 0.795694
O O14 0.500000 0.000000 0.000000
O O15 0.500000 0.500000 0.000000
#
# Coordination Sequence:
#
# PCOD9280273 Si02
#       8
#     8   4   8   8   4   8   8   8
#     4  10  21  37  57  90 138 178 226 264 330 420
#     4  12  22  35  59  98 132 174 218 294 329 389
#     4  11  22  43  73  96 132 177 231 275 342 419
#     4  11  25  40  66 102 139 169 229 285 347 398
#     4  10  24  43  65 100 124 176 226 280 337 401
#     4  11  18  34  56  86 128 184 230 266 324 396
#     4  11  23  42  65 101 138 182 222 278 346 413
#     4  11  22  43  71 103 130 174 233 291 345 397
#
# _framework density 22.998743000000001
#
# number of rings (size 3 to 8) (size 9 to 14) (size 15 to 20)
#    0.000    1.143    5.714    1.714    4.000    2.286 
#    0.000    0.000    0.000    2.571    0.000    0.000 
#    0.000    0.000    0.000    0.000    0.000    0.000 
#
# Total GULP energy -156446.271229 kJ/mol
# GULP energy per Si atom -5587.366830 kJ/mol
# Density = 2.294640 g / cm^3
# Si number density = 22.998743 Si / 1000 Ang^3
#
#
#
# Elastic Constant Matrix: (Units=GPa)
#
#
# Indices 1 2 3 4 5 6 
#
# 1 140.6128 28.0308 31.2592 0.0000 -10.7777 0.0000
# 2 28.0308 58.3594 19.6712 0.0000 -2.8530 0.0000
# 3 31.2592 19.6712 89.3375 0.0000 5.5817 0.0000
# 4 0.0000 0.0000 0.0000 28.9545 0.0000 7.7290
# 5 -10.7777 -2.8530 5.5817 0.0000 45.4281 0.0000
# 6 0.0000 0.0000 0.0000 7.7290 0.0000 30.9563
#
#
#
# Elastic Compliance Matrix: (Units=1/GPa)
#
#
# Indices 1 2 3 4 5 6 
#
# 1 0.008430 -0.003141 -0.002389 0.000000 0.002096 0.000000
# 2 -0.003141 0.019807 -0.003319 0.000000 0.000906 0.000000
# 3 -0.002389 -0.003319 0.012908 0.000000 -0.002361 0.000000
# 4 0.000000 0.000000 0.000000 0.037003 0.000000 -0.009239
# 5 0.002096 0.000906 -0.002361 0.000000 0.022857 0.000000
# 6 0.000000 0.000000 0.000000 -0.009239 0.000000 0.034610
#
#
# Mechanical properties :
#
#
# Convention : Reuss Voigt Hill
#
# Bulk Modulus (GPa) = 42.65020 49.58132 46.11576
# Shear Modulus (GPa) = 31.03123 35.02435 33.02779
#
# Velocity S-wave (km/s) = 3.67721 3.90664 3.79366
# Velocity P-wave (km/s) = 6.05095 6.47721 6.26770
#
# Compressibility (1/GPa) = 0.02344655
#
# Stress axis : x y z
#
# Youngs Moduli (GPa) = 118.62909 50.48740 77.47340
#
# Poissons Ratio (x) = 0.15859 0.18507
# Poissons Ratio (y) = 0.37264 0.25712
# Poissons Ratio (z) = 0.28339 0.16756
#
# Static dielectric constant tensor:
#      x y z
#    x 1.917360 0.000000 0.018280 
#    y 0.000000 1.880250 0.000000 
#    z 0.018280 0.000000 1.877270 
# 
# From -- ./inp_files/62704.got.cif
#   From: 2010.05.17/outbox.cif.g08.bks.cpg/sg15_32_cif.got.tgz:62704.got - 2010.06.03 18:47:42.
