data_PCOD9280762
_publ_section_title
;
Structure prediction by ZEFSAII (Michael W. Deem and Ramdas Pophale) SiO2 
 PCOD9280762
Probable space group: C 2/C
;
_chemical_formula_sum "Si O2"
_cell_formula_units_Z 40
_cell_length_a 21.716917
_cell_length_b 9.494930
_cell_length_c 14.802688
_cell_angle_alpha 90.000000
_cell_angle_beta 145.834998
_cell_angle_gamma 90.000000
_cell_volume 1714.117789
_symmetry_space_group_name_H-M "C 2/C"
_symmetry_group_IT_number 15
_symmetry_cell_setting 'monoclinic'
loop_
_space_group_symop_operation_xyz
x,y,z
-x,y,1/2-z
-x,-y,-z
x,-y,1/2+z
1/2+x,1/2+y,z
1/2-x,1/2+y,1/2-z
1/2-x,1/2-y,-z
1/2+x,1/2-y,1/2+z
loop_
_atom_site_type_symbol
_atom_site_label
_atom_site_fract_x
_atom_site_fract_y
_atom_site_fract_z
Si Si1 0.682727 0.099644 0.318799
Si Si2 0.664936 0.968663 0.114057
Si Si3 0.230031 0.393015 0.527663
Si Si4 0.428653 0.319208 0.071643
Si Si5 0.612216 0.589895 0.694050
O O1 0.640031 0.257949 0.273890
O O2 0.847176 0.961448 0.694701
O O3 0.631921 0.019329 0.171920
O O4 0.667411 0.899570 0.547400
O O5 0.792962 0.914641 0.267625
O O6 0.669708 0.006211 0.391200
O O7 0.595115 0.840682 0.989244
O O8 0.250000 0.250000 0.500000
O O9 0.500000 0.328483 0.250000
O O10 0.311437 0.384968 0.953421
O O11 0.481533 0.400272 0.048450
#
# Coordination Sequence:
#
# PCOD9280762 Si02
#       5
#     8   8   8   8   8
#     4  11  21  40  66  88 132 173 215 265 334 383
#     4   9  23  37  63  99 126 172 212 277 320 381
#     4  10  21  37  63  92 129 165 212 268 330 384
#     4  11  19  39  71  89 123 172 228 264 319 396
#     4   9  21  39  63  92 119 174 221 254 321 400
#
# _framework density 23.335618
#
# number of rings (size 3 to 8) (size 9 to 14) (size 15 to 20)
#    1.200    0.800    2.000    1.800    5.600    1.600 
#    0.000    0.000   13.200    0.000    0.000    0.000 
#    0.000    0.000    0.000    0.000    0.000    0.000 
#
# Total GULP energy -111482.839723 kJ/mol
# GULP energy per Si atom -5574.141986 kJ/mol
# Density = 2.328251 g / cm^3
# Si number density = 23.335618 Si / 1000 Ang^3
#
#
#
# Elastic Constant Matrix: (Units=GPa)
#
#
# Indices 1 2 3 4 5 6 
#
# 1 65.0022 -25.4429 -5.0135 0.0000 4.6785 0.0000
# 2 -25.4429 45.2281 -11.7857 0.0000 4.1868 0.0000
# 3 -5.0135 -11.7857 45.5457 0.0000 -3.6095 0.0000
# 4 0.0000 0.0000 0.0000 25.8582 0.0000 -0.3241
# 5 4.6785 4.1868 -3.6095 0.0000 34.3008 0.0000
# 6 0.0000 0.0000 0.0000 -0.3241 0.0000 33.5269
#
#
#
# Elastic Compliance Matrix: (Units=1/GPa)
#
#
# Indices 1 2 3 4 5 6 
#
# 1 0.021596 0.014004 0.005679 0.000000 -0.004057 0.000000
# 2 0.014004 0.032966 0.009683 0.000000 -0.004915 0.000000
# 3 0.005679 0.009683 0.025141 0.000000 0.000689 0.000000
# 4 0.000000 0.000000 0.000000 0.038677 0.000000 0.000374
# 5 -0.004057 -0.004915 0.000689 0.000000 0.030380 0.000000
# 6 0.000000 0.000000 0.000000 0.000374 0.000000 0.029830
#
#
# Mechanical properties :
#
#
# Convention : Reuss Voigt Hill
#
# Bulk Modulus (GPa) = 7.22361 7.92131 7.57246
# Shear Modulus (GPa) = 30.11990 31.93840 31.02915
#
# Velocity S-wave (km/s) = 3.59657 3.70355 3.65045
# Velocity P-wave (km/s) = 4.51102 4.65728 4.58473
#
# Compressibility (1/GPa) = 0.13843497
#
# Stress axis : x y z
#
# Youngs Moduli (GPa) = 46.30581 30.33413 39.77521
#
# Poissons Ratio (x) = -0.42480 -0.22590
# Poissons Ratio (y) = -0.64847 -0.38512
# Poissons Ratio (z) = -0.26299 -0.29371
#
# Static dielectric constant tensor:
#      x y z
#    x 1.974390 0.000000 0.008600 
#    y 0.000000 1.831300 0.000000 
#    z 0.008600 0.000000 1.955220 
# 
# From -- ./inp_files/122524.got.cif
#   From: 2010.05.17/outbox.cif.g08.bks.cpg/sg15_62_cif.got.tgz:122524.got - 2010.06.03 18:47:42.
