data_PCOD9280900
_publ_section_title
;
Structure prediction by ZEFSAII (Michael W. Deem and Ramdas Pophale) SiO2 
 PCOD9280900
Probable space group: C 2/C
;
_chemical_formula_sum "Si O2"
_cell_formula_units_Z 52
_cell_length_a 11.770181
_cell_length_b 13.667950
_cell_length_c 20.131825
_cell_angle_alpha 90.000000
_cell_angle_beta 121.944868
_cell_angle_gamma 90.000000
_cell_volume 2748.216876
_symmetry_space_group_name_H-M "C 2/C"
_symmetry_group_IT_number 15
_symmetry_cell_setting 'monoclinic'
loop_
_space_group_symop_operation_xyz
x,y,z
-x,y,1/2-z
-x,-y,-z
x,-y,1/2+z
1/2+x,1/2+y,z
1/2-x,1/2+y,1/2-z
1/2-x,1/2-y,-z
1/2+x,1/2-y,1/2+z
loop_
_atom_site_type_symbol
_atom_site_label
_atom_site_fract_x
_atom_site_fract_y
_atom_site_fract_z
Si Si1 0.213969 0.561339 0.456061
Si Si2 0.529756 0.795111 0.979551
Si Si3 0.722962 0.858040 0.519993
Si Si4 0.500000 0.739056 0.750000
Si Si5 0.482597 0.383490 0.112167
Si Si6 0.506611 0.588980 0.172241
Si Si7 0.210319 0.816910 0.641587
O O1 0.097127 0.635342 0.444471
O O2 0.193028 0.445859 0.458857
O O3 0.334554 0.589171 0.542529
O O4 0.264907 0.590632 0.399237
O O5 0.407670 0.851384 0.974784
O O6 0.472402 0.694215 0.929776
O O7 0.639305 0.761568 0.069157
O O8 0.750000 0.750000 0.500000
O O9 0.857677 0.885996 0.600955
O O10 0.520072 0.674480 0.820814
O O11 0.358586 0.793429 0.713371
O O12 0.549593 0.486139 0.151269
O O13 0.500000 0.583582 0.250000
O O14 0.609999 0.665073 0.171481
#
# Coordination Sequence:
#
# PCOD9280900 Si02
#       7
#     8   8   8   4   8   8   8
#     4  10  21  40  62  93 121 159 212 257 295 358
#     4  11  20  41  63  96 120 158 209 258 296 362
#     4  11  24  39  64  91 126 168 201 245 312 369
#     4  12  20  40  62  94 116 162 202 260 312 354
#     4  10  21  37  66  87 121 160 211 246 303 368
#     4  11  25  41  58  92 127 163 199 254 312 374
#     4  11  23  39  64  88 125 156 210 259 300 367
#
# _framework density 18.92136
#
# number of rings (size 3 to 8) (size 9 to 14) (size 15 to 20)
#    0.000    1.231    5.385    1.385    4.308    1.846 
#    0.000    1.538    1.692    0.000    0.000    0.000 
#    0.000    0.000    0.000    0.000    0.000    0.000 
#
# Total GULP energy -144869.755212 kJ/mol
# GULP energy per Si atom -5571.913662 kJ/mol
# Density = 1.887829 g / cm^3
# Si number density = 18.921360 Si / 1000 Ang^3
#
#
#
# Elastic Constant Matrix: (Units=GPa)
#
#
# Indices 1 2 3 4 5 6 
#
# 1 103.5817 23.1329 17.0621 0.0000 -2.5739 0.0000
# 2 23.1329 89.6603 14.8333 0.0000 -6.2752 0.0000
# 3 17.0621 14.8333 41.1429 0.0000 -5.7997 0.0000
# 4 0.0000 0.0000 0.0000 6.1143 0.0000 -18.7302
# 5 -2.5739 -6.2752 -5.7997 0.0000 20.3056 0.0000
# 6 0.0000 0.0000 0.0000 -18.7302 0.0000 73.6797
#
#
#
# Elastic Compliance Matrix: (Units=1/GPa)
#
#
# Indices 1 2 3 4 5 6 
#
# 1 0.010746 -0.002183 -0.003722 0.000000 -0.000376 0.000000
# 2 -0.002183 0.012432 -0.003203 0.000000 0.002650 0.000000
# 3 -0.003722 -0.003203 0.027922 0.000000 0.006513 0.000000
# 4 0.000000 0.000000 0.000000 0.739170 0.000000 0.187905
# 5 -0.000376 0.002650 0.006513 0.000000 0.051879 0.000000
# 6 0.000000 0.000000 0.000000 0.187905 0.000000 0.061340
#
#
# Mechanical properties :
#
#
# Convention : Reuss Voigt Hill
#
# Bulk Modulus (GPa) = 30.41087 38.27127 34.34107
# Shear Modulus (GPa) = 5.36098 31.97701 18.66899
#
# Velocity S-wave (km/s) = 1.68506 4.11542 3.14453
# Velocity P-wave (km/s) = 4.46016 6.54619 5.60115
#
# Compressibility (1/GPa) = 0.03288298
#
# Stress axis : x y z
#
# Youngs Moduli (GPa) = 93.06212 80.43866 35.81382
#
# Poissons Ratio (x) = 0.17559 0.13330
# Poissons Ratio (y) = 0.20315 0.11472
# Poissons Ratio (z) = 0.34639 0.25766
#
# Static dielectric constant tensor:
#      x y z
#    x 1.653860 0.000000 -0.026580 
#    y 0.000000 1.716690 0.000000 
#    z -0.026580 0.000000 1.613840 
# 
# From -- ./inp_files/197297.got.cif
#   From: 2010.05.17/outbox.cif.g08.bks.cpg/sg15_99_cif.got.tgz:197297.got - 2010.06.03 18:47:42.
