data_PCOD9280894
_publ_section_title
;
Structure prediction by ZEFSAII (Michael W. Deem and Ramdas Pophale) SiO2 
 PCOD9280894
Probable space group: C 2/C
;
_chemical_formula_sum "Si O2"
_cell_formula_units_Z 56
_cell_length_a 28.794579
_cell_length_b 10.848369
_cell_length_c 9.263754
_cell_angle_alpha 90.000000
_cell_angle_beta 110.991833
_cell_angle_gamma 90.000000
_cell_volume 2701.703539
_symmetry_space_group_name_H-M "C 2/C"
_symmetry_group_IT_number 15
_symmetry_cell_setting 'monoclinic'
loop_
_space_group_symop_operation_xyz
x,y,z
-x,y,1/2-z
-x,-y,-z
x,-y,1/2+z
1/2+x,1/2+y,z
1/2-x,1/2+y,1/2-z
1/2-x,1/2-y,-z
1/2+x,1/2-y,1/2+z
loop_
_atom_site_type_symbol
_atom_site_label
_atom_site_fract_x
_atom_site_fract_y
_atom_site_fract_z
Si Si1 0.000000 0.714830 0.250000
Si Si2 0.620342 0.751670 0.648984
Si Si3 0.000000 0.327583 0.250000
Si Si4 0.320761 0.090204 0.483261
Si Si5 0.291315 0.653692 0.597190
Si Si6 0.971227 0.127664 0.980252
Si Si7 0.748331 0.965110 0.333335
Si Si8 0.581221 0.960657 0.805029
O O1 0.976466 0.806165 0.335091
O O2 0.955453 0.628085 0.143703
O O3 0.651245 0.790513 0.543131
O O4 0.655246 0.714787 0.821927
O O5 0.587927 0.633245 0.567037
O O6 0.591604 0.878176 0.671260
O O7 0.009424 0.230939 0.388350
O O8 0.046811 0.416094 0.259902
O O9 0.285986 0.102994 0.585275
O O10 0.288647 0.045896 0.309416
O O11 0.364988 0.994850 0.572725
O O12 0.250000 0.750000 0.500000
O O13 0.285616 0.545520 0.473461
O O14 0.276081 0.611575 0.741433
O O15 0.000000 0.000000 0.000000
#
# Coordination Sequence:
#
# PCOD9280894 Si02
#       8
#     4   8   4   8   8   8   8   8
#     4   9  23  38  62  90 131 171 202 276 336 383
#     4  11  22  40  67  92 135 174 219 285 324 407
#     4  11  23  38  70  96 129 159 216 290 320 397
#     4  11  18  37  62 102 126 164 220 277 333 394
#     4  11  22  46  64  98 137 176 221 277 339 394
#     4  11  24  44  62  90 133 179 218 258 328 401
#     4  10  23  38  69  92 135 175 213 277 334 403
#     4  10  21  37  66 102 126 157 221 276 348 371
#
# _framework density 20.727664000000001
#
# number of rings (size 3 to 8) (size 9 to 14) (size 15 to 20)
#    0.000    1.429    4.286    1.286    2.000    2.286 
#    7.714    0.000    0.000    0.000    0.000    0.000 
#    0.000    0.000    0.000    0.000    0.000    0.000 
#
# Total GULP energy -155904.836932 kJ/mol
# GULP energy per Si atom -5568.029890 kJ/mol
# Density = 2.068049 g / cm^3
# Si number density = 20.727664 Si / 1000 Ang^3
#
#
#
# Elastic Constant Matrix: (Units=GPa)
#
#
# Indices 1 2 3 4 5 6 
#
# 1 48.5474 43.6351 26.3729 0.0000 4.1088 0.0000
# 2 43.6351 115.2450 46.0539 0.0000 12.9408 0.0000
# 3 26.3729 46.0539 72.7788 0.0000 -7.7794 0.0000
# 4 0.0000 0.0000 0.0000 35.1907 0.0000 10.3839
# 5 4.1088 12.9408 -7.7794 0.0000 37.2924 0.0000
# 6 0.0000 0.0000 0.0000 10.3839 0.0000 34.0649
#
#
#
# Elastic Compliance Matrix: (Units=1/GPa)
#
#
# Indices 1 2 3 4 5 6 
#
# 1 0.032784 -0.009982 -0.005706 0.000000 -0.001338 0.000000
# 2 -0.009982 0.015968 -0.007120 0.000000 -0.005926 0.000000
# 3 -0.005706 -0.007120 0.021116 0.000000 0.007504 0.000000
# 4 0.000000 0.000000 0.000000 0.031225 0.000000 -0.009518
# 5 -0.001338 -0.005926 0.007504 0.000000 0.030585 0.000000
# 6 0.000000 0.000000 0.000000 -0.009518 0.000000 0.032257
#
#
# Mechanical properties :
#
#
# Convention : Reuss Voigt Hill
#
# Bulk Modulus (GPa) = 41.23794 52.07723 46.65758
# Shear Modulus (GPa) = 22.97419 29.34355 26.15887
#
# Velocity S-wave (km/s) = 3.33285 3.76662 3.55636
# Velocity P-wave (km/s) = 5.89481 6.64045 6.27871
#
# Compressibility (1/GPa) = 0.02424952
#
# Stress axis : x y z
#
# Youngs Moduli (GPa) = 30.50287 62.62646 47.35760
#
# Poissons Ratio (x) = 0.62516 0.27023
# Poissons Ratio (y) = 0.30449 0.33721
# Poissons Ratio (z) = 0.17406 0.44593
#
# Static dielectric constant tensor:
#      x y z
#    x 2.591810 0.000000 -0.026640 
#    y 0.000000 1.760360 0.000000 
#    z -0.026640 0.000000 1.663960 
# 
# From -- ./inp_files/69183.got.cif
#   From: 2010.05.17/outbox.cif.g08.bks.cpg/sg15_35_cif.got.tgz:69183.got - 2010.06.03 18:47:42.
