data_PCOD9280890
_publ_section_title
;
Structure prediction by ZEFSAII (Michael W. Deem and Ramdas Pophale) SiO2 
 PCOD9280890
Probable space group: C 2/C
;
_chemical_formula_sum "Si O2"
_cell_formula_units_Z 40
_cell_length_a 8.436816
_cell_length_b 17.345927
_cell_length_c 18.035110
_cell_angle_alpha 90.000000
_cell_angle_beta 44.241125
_cell_angle_gamma 90.000000
_cell_volume 1841.411488
_symmetry_space_group_name_H-M "C 2/C"
_symmetry_group_IT_number 15
_symmetry_cell_setting 'monoclinic'
loop_
_space_group_symop_operation_xyz
x,y,z
-x,y,1/2-z
-x,-y,-z
x,-y,1/2+z
1/2+x,1/2+y,z
1/2-x,1/2+y,1/2-z
1/2-x,1/2-y,-z
1/2+x,1/2-y,1/2+z
loop_
_atom_site_type_symbol
_atom_site_label
_atom_site_fract_x
_atom_site_fract_y
_atom_site_fract_z
Si Si1 0.069956 0.588617 0.309878
Si Si2 0.920348 0.229914 0.541089
Si Si3 0.529117 0.660746 0.133401
Si Si4 0.211021 0.854965 0.052903
Si Si5 0.245871 0.495859 0.881147
O O1 0.262183 0.655082 0.239919
O O2 0.192698 0.519348 0.312988
O O3 0.000000 0.569030 0.250000
O O4 0.859994 0.615113 0.431759
O O5 0.677965 0.271770 0.620241
O O6 0.934880 0.172734 0.466306
O O7 0.994964 0.187676 0.590888
O O8 0.116013 0.295610 0.465453
O O9 0.635374 0.580498 0.126568
O O10 0.145842 0.925058 0.127799
O O11 0.000000 0.500000 0.000000
#
# Coordination Sequence:
#
# PCOD9280890 Si02
#       5
#     8   8   8   8   8
#     4  11  21  39  63  94 125 172 216 265 318 377
#     4  10  21  37  65  99 121 166 210 258 326 389
#     4  11  21  37  67  93 126 165 217 257 318 387
#     4  10  21  42  66  91 127 168 215 259 323 386
#     4  10  21  39  64  90 121 169 216 257 315 390
#
# _framework density 21.722466000000001
#
# number of rings (size 3 to 8) (size 9 to 14) (size 15 to 20)
#    0.000    1.600    6.000    0.600    0.000    0.800 
#    0.000    0.000   17.600    9.600    0.000    0.000 
#    0.000    0.000    0.000    0.000    0.000    0.000 
#
# Total GULP energy -111673.440374 kJ/mol
# GULP energy per Si atom -5583.672019 kJ/mol
# Density = 2.167303 g / cm^3
# Si number density = 21.722466 Si / 1000 Ang^3
#
#
#
# Elastic Constant Matrix: (Units=GPa)
#
#
# Indices 1 2 3 4 5 6 
#
# 1 152.0248 68.7699 49.0312 -0.0002 25.7567 0.0003
# 2 68.7699 88.9581 19.4020 -0.0003 13.5020 0.0003
# 3 49.0312 19.4020 86.0013 -0.0004 1.1354 0.0004
# 4 -0.0002 -0.0003 -0.0004 23.3390 0.0002 8.2408
# 5 25.7567 13.5020 1.1354 0.0002 33.5389 -0.0003
# 6 0.0003 0.0003 0.0004 8.2408 -0.0003 32.4942
#
#
#
# Elastic Compliance Matrix: (Units=1/GPa)
#
#
# Indices 1 2 3 4 5 6 
#
# 1 0.013075 -0.007874 -0.005589 0.000000 -0.006682 0.000000
# 2 -0.007874 0.017345 0.000589 0.000000 -0.000956 0.000000
# 3 -0.005589 0.000589 0.014635 0.000000 0.003560 0.000000
# 4 0.000000 0.000000 0.000000 0.047061 0.000000 -0.011935
# 5 -0.006682 -0.000956 0.003560 0.000000 0.035211 0.000000
# 6 0.000000 0.000000 0.000000 -0.011935 0.000000 0.033801
#
#
# Mechanical properties :
#
#
# Convention : Reuss Voigt Hill
#
# Bulk Modulus (GPa) = 51.80139 66.82115 59.31127
# Shear Modulus (GPa) = 25.86482 30.52651 28.19566
#
# Velocity S-wave (km/s) = 3.45439 3.75280 3.60668
# Velocity P-wave (km/s) = 6.30944 7.04316 6.68637
#
# Compressibility (1/GPa) = 0.01930450
#
# Stress axis : x y z
#
# Youngs Moduli (GPa) = 76.48412 57.65313 68.33130
#
# Poissons Ratio (x) = 0.45397 0.38194
# Poissons Ratio (y) = 0.60225 -0.04023
# Poissons Ratio (z) = 0.42751 -0.03395
#
# Static dielectric constant tensor:
#      x y z
#    x 1.804100 0.000000 -0.006040 
#    y 0.000000 1.814650 0.000000 
#    z -0.006040 0.000000 1.826220 
# 
# From -- ./inp_files/190172.got.cif
#   From: 2010.05.17/outbox.cif.g08.bks.cpg/sg15_96_cif.got.tgz:190172.got - 2010.06.03 18:47:42.
