data_PCOD9280299
_publ_section_title
;
Structure prediction by ZEFSAII (Michael W. Deem and Ramdas Pophale) SiO2 
 PCOD9280299
Probable space group: C 2/C
;
_chemical_formula_sum "Si O2"
_cell_formula_units_Z 40
_cell_length_a 21.592664
_cell_length_b 8.447631
_cell_length_c 12.217785
_cell_angle_alpha 90.000000
_cell_angle_beta 134.058492
_cell_angle_gamma 90.000000
_cell_volume 1601.544991
_symmetry_space_group_name_H-M "C 2/C"
_symmetry_group_IT_number 15
_symmetry_cell_setting 'monoclinic'
loop_
_space_group_symop_operation_xyz
x,y,z
-x,y,1/2-z
-x,-y,-z
x,-y,1/2+z
1/2+x,1/2+y,z
1/2-x,1/2+y,1/2-z
1/2-x,1/2-y,-z
1/2+x,1/2-y,1/2+z
loop_
_atom_site_type_symbol
_atom_site_label
_atom_site_fract_x
_atom_site_fract_y
_atom_site_fract_z
Si Si1 0.578538 0.250760 0.989680
Si Si2 0.552315 0.581136 0.926694
Si Si3 0.704489 0.460175 0.236193
Si Si4 0.653955 0.718584 0.343916
Si Si5 0.598235 0.087559 0.571218
O O1 0.522803 0.409624 0.942330
O O2 0.598597 0.265736 0.885732
O O3 0.663637 0.287077 0.167400
O O4 0.550717 0.077116 0.988095
O O5 0.500000 0.582418 0.750000
O O6 0.656708 0.548109 0.073188
O O7 0.547893 0.761760 0.960753
O O8 0.664407 0.553825 0.289720
O O9 0.806655 0.445406 0.366414
O O10 0.750000 0.750000 0.500000
O O11 0.625841 0.854092 0.225143
#
# Coordination Sequence:
#
# PCOD9280299 Si02
#       5
#     8   8   8   8   8
#     4  10  21  37  58  85 124 154 195 247 300 343
#     4   9  21  39  61  84 122 162 192 247 303 347
#     4   9  19  35  59  85 118 154 192 247 290 342
#     4  11  18  34  60  91 123 152 197 252 293 350
#     4  11  19  37  60  89 119 153 201 246 288 356
#
# _framework density 24.975885000000002
#
# number of rings (size 3 to 8) (size 9 to 14) (size 15 to 20)
#    1.200    0.800    4.000    1.200    0.000    0.800 
#    3.600    6.000    0.000    6.000    0.000    0.000 
#    0.000    0.000    0.000    0.000    0.000    0.000 
#
# Total GULP energy -111445.990594 kJ/mol
# GULP energy per Si atom -5572.299530 kJ/mol
# Density = 2.491904 g / cm^3
# Si number density = 24.975885 Si / 1000 Ang^3
#
#
#
# Elastic Constant Matrix: (Units=GPa)
#
#
# Indices 1 2 3 4 5 6 
#
# 1 111.5206 65.7709 33.4633 0.0000 -9.1141 0.0000
# 2 65.7709 272.6716 88.8476 0.0000 -28.3225 0.0000
# 3 33.4633 88.8476 126.3096 0.0000 0.8382 0.0000
# 4 0.0000 0.0000 0.0000 38.5919 0.0000 -1.3388
# 5 -9.1141 -28.3225 0.8382 0.0000 46.2775 0.0000
# 6 0.0000 0.0000 0.0000 -1.3388 0.0000 40.6867
#
#
#
# Elastic Compliance Matrix: (Units=1/GPa)
#
#
# Indices 1 2 3 4 5 6 
#
# 1 0.010652 -0.002018 -0.001408 0.000000 0.000888 0.000000
# 2 -0.002018 0.005588 -0.003416 0.000000 0.003084 0.000000
# 3 -0.001408 -0.003416 0.010710 0.000000 -0.002562 0.000000
# 4 0.000000 0.000000 0.000000 0.025942 0.000000 0.000854
# 5 0.000888 0.003084 -0.002562 0.000000 0.023718 0.000000
# 6 0.000000 0.000000 0.000000 0.000854 0.000000 0.024606
#
#
# Mechanical properties :
#
#
# Convention : Reuss Voigt Hill
#
# Bulk Modulus (GPa) = 75.38864 98.51837 86.95350
# Shear Modulus (GPa) = 41.90294 46.60590 44.25442
#
# Velocity S-wave (km/s) = 4.10046 4.32445 4.21394
# Velocity P-wave (km/s) = 7.25731 8.02904 7.65291
#
# Compressibility (1/GPa) = 0.01326460
#
# Stress axis : x y z
#
# Youngs Moduli (GPa) = 93.87495 178.96263 93.36895
#
# Poissons Ratio (x) = 0.36120 0.13150
# Poissons Ratio (y) = 0.18947 0.31897
# Poissons Ratio (z) = 0.13221 0.61138
#
# Static dielectric constant tensor:
#      x y z
#    x 2.120930 0.000000 0.025180 
#    y 0.000000 2.023730 0.000000 
#    z 0.025180 0.000000 1.998070 
# 
# From -- ./inp_files/125358.got.cif
#   From: 2010.05.17/outbox.cif.g08.bks.cpg/sg15_63_cif.got.tgz:125358.got - 2010.06.03 18:47:42.
