data_PCOD9280235
_publ_section_title
;
Structure prediction by ZEFSAII (Michael W. Deem and Ramdas Pophale) SiO2 
 PCOD9280235
Probable space group: C 2/C
;
_chemical_formula_sum "Si O2"
_cell_formula_units_Z 64
_cell_length_a 30.030291
_cell_length_b 14.329033
_cell_length_c 8.922408
_cell_angle_alpha 90.000000
_cell_angle_beta 72.715677
_cell_angle_gamma 90.000000
_cell_volume 3665.979862
_symmetry_space_group_name_H-M "C 2/C"
_symmetry_group_IT_number 15
_symmetry_cell_setting 'monoclinic'
loop_
_space_group_symop_operation_xyz
x,y,z
-x,y,1/2-z
-x,-y,-z
x,-y,1/2+z
1/2+x,1/2+y,z
1/2-x,1/2+y,1/2-z
1/2-x,1/2-y,-z
1/2+x,1/2-y,1/2+z
loop_
_atom_site_type_symbol
_atom_site_label
_atom_site_fract_x
_atom_site_fract_y
_atom_site_fract_z
Si Si1 0.949158 0.240090 0.229811
Si Si2 0.623606 0.601200 0.055052
Si Si3 0.800688 0.739883 0.020569
Si Si4 0.126371 0.601376 0.694701
Si Si5 0.126371 0.398624 0.552556
Si Si6 0.123606 0.101200 0.697736
Si Si7 0.699312 0.760116 0.621945
Si Si8 0.449158 0.259910 0.371873
O O1 0.920475 0.154244 0.328983
O O2 0.918138 0.332278 0.292202
O O3 0.000000 0.247361 0.250000
O O4 0.952234 0.228842 0.047766
O O5 0.629659 0.500000 0.120341
O O6 0.668121 0.667824 0.039822
O O7 0.617528 0.594101 0.882472
O O8 0.797455 0.727286 0.202544
O O9 0.750000 0.750000 0.000000
O O10 0.829293 0.654511 0.919848
O O11 0.120717 0.500000 0.629283
O O12 0.131801 0.594636 0.868199
O O13 0.170707 0.345489 0.578434
O O14 0.081861 0.332278 0.628479
O O15 0.168121 0.167824 0.623936
O O16 0.079525 0.154244 0.669933
O O17 0.750000 0.750000 0.500000
O O18 0.500000 0.252640 0.250000
#
# Coordination Sequence:
#
# PCOD9280235 Si02
#       8
#     8   8   8   8   8   8   8   8
#     4  10  21  37  57  81 110 143 180 223 269 320
#     4  10  21  37  57  81 109 142 180 223 270 320
#     4  10  21  37  57  81 111 145 182 225 271 322
#     4  10  21  37  57  81 110 144 182 225 272 322
#     4  10  21  37  57  81 110 144 182 225 272 322
#     4  10  21  37  57  81 109 142 180 223 270 320
#     4  10  21  37  57  81 111 145 182 225 271 322
#     4  10  21  37  57  81 110 143 180 223 269 320
#
# _framework density 17.457816000000001
#
# number of rings (size 3 to 8) (size 9 to 14) (size 15 to 20)
#    0.000    2.000    0.000    3.000    0.000    8.000 
#    0.000    7.500    0.000    0.000    0.000    0.000 
#    0.000    0.000    0.000    0.000    0.000    0.000 
#
# Total GULP energy -178750.127958 kJ/mol
# GULP energy per Si atom -5585.941499 kJ/mol
# Density = 1.741808 g / cm^3
# Si number density = 17.457816 Si / 1000 Ang^3
#
#
#
# Elastic Constant Matrix: (Units=GPa)
#
#
# Indices 1 2 3 4 5 6 
#
# 1 150.5956 56.8930 72.4470 0.0000 -2.0355 0.0000
# 2 56.8930 139.4027 73.1026 0.0000 6.6821 0.0000
# 3 72.4470 73.1026 107.2443 0.0000 -15.8356 0.0000
# 4 0.0000 0.0000 0.0000 33.4308 0.0000 10.0030
# 5 -2.0355 6.6821 -15.8356 0.0000 30.9167 0.0000
# 6 0.0000 0.0000 0.0000 10.0030 0.0000 9.1658
#
#
#
# Elastic Compliance Matrix: (Units=1/GPa)
#
#
# Indices 1 2 3 4 5 6 
#
# 1 0.010104 -0.000283 -0.007059 0.000000 -0.002889 0.000000
# 2 -0.000283 0.012685 -0.009588 0.000000 -0.007671 0.000000
# 3 -0.007059 -0.009588 0.022573 0.000000 0.013169 0.000000
# 4 0.000000 0.000000 0.000000 0.044417 0.000000 -0.048474
# 5 -0.002889 -0.007671 0.013169 0.000000 0.040558 0.000000
# 6 0.000000 0.000000 0.000000 -0.048474 0.000000 0.162003
#
#
# Mechanical properties :
#
#
# Convention : Reuss Voigt Hill
#
# Bulk Modulus (GPa) = 86.94483 89.12533 88.03508
# Shear Modulus (GPa) = 15.14995 27.68932 21.41964
#
# Velocity S-wave (km/s) = 2.94905 3.98687 3.50657
# Velocity P-wave (km/s) = 7.84262 8.50624 8.18116
#
# Compressibility (1/GPa) = 0.01150155
#
# Stress axis : x y z
#
# Youngs Moduli (GPa) = 98.96780 78.83592 44.30041
#
# Poissons Ratio (x) = 0.02235 0.31273
# Poissons Ratio (y) = 0.02805 0.42473
# Poissons Ratio (z) = 0.69863 0.75585
#
# Static dielectric constant tensor:
#      x y z
#    x 1.563610 0.000000 0.005400 
#    y 0.000000 1.566040 0.000000 
#    z 0.005400 0.000000 1.576700 
# 
# From -- ./inp_files/66191.got.cif
#   From: 2010.05.17/outbox.cif.g08.bks.cpg/sg15_34_cif.got.tgz:66191.got - 2010.06.03 18:47:42.
