data_PCOD9280369
_publ_section_title
;
Structure prediction by ZEFSAII (Michael W. Deem and Ramdas Pophale) SiO2 
 PCOD9280369
Probable space group: C 2/C
;
_chemical_formula_sum "Si O2"
_cell_formula_units_Z 56
_cell_length_a 24.235674
_cell_length_b 17.177360
_cell_length_c 7.523204
_cell_angle_alpha 90.000000
_cell_angle_beta 53.113660
_cell_angle_gamma 90.000000
_cell_volume 2505.017960
_symmetry_space_group_name_H-M "C 2/C"
_symmetry_group_IT_number 15
_symmetry_cell_setting 'monoclinic'
loop_
_space_group_symop_operation_xyz
x,y,z
-x,y,1/2-z
-x,-y,-z
x,-y,1/2+z
1/2+x,1/2+y,z
1/2-x,1/2+y,1/2-z
1/2-x,1/2-y,-z
1/2+x,1/2-y,1/2+z
loop_
_atom_site_type_symbol
_atom_site_label
_atom_site_fract_x
_atom_site_fract_y
_atom_site_fract_z
Si Si1 0.722441 0.376656 0.963575
Si Si2 0.048550 0.926217 0.914432
Si Si3 0.850792 0.731038 0.860955
Si Si4 0.843147 0.719595 0.285811
Si Si5 0.764053 0.880317 0.970394
Si Si6 0.348295 0.496068 0.011342
Si Si7 0.501818 0.746594 0.953111
O O1 0.795279 0.355973 0.914871
O O2 0.735934 0.411056 0.735964
O O3 0.682841 0.294288 0.053298
O O4 0.670425 0.444595 0.126898
O O5 0.092816 0.931516 0.649491
O O6 0.104999 0.944206 0.959376
O O7 0.006497 0.846924 0.013624
O O8 0.000000 0.000000 0.000000
O O9 0.820157 0.811049 0.846632
O O10 0.932129 0.723615 0.680674
O O11 0.826783 0.733797 0.110886
O O12 0.809040 0.660401 0.855185
O O13 0.925390 0.718499 0.129336
O O14 0.783105 0.938562 0.091208
O O15 0.500000 0.765060 0.750000
#
# Coordination Sequence:
#
# PCOD9280369 Si02
#       7
#     8   8   8   8   8   8   8
#     4  10  21  40  56  89 116 153 213 246 300 350
#     4  12  25  35  54  87 126 161 196 237 300 375
#     4  10  21  37  59  86 113 153 216 246 307 357
#     4  10  22  36  64  82 115 161 200 258 292 362
#     4  10  21  38  57  84 120 156 200 265 290 361
#     4  12  22  38  57  83 124 164 192 246 305 360
#     4  12  23  40  56  84 128 159 195 253 304 356
#
# _framework density 22.355131
#
# number of rings (size 3 to 8) (size 9 to 14) (size 15 to 20)
#    0.000    1.143    2.857    4.286    4.000    2.286 
#    0.000    0.000    0.000    0.857    0.000    0.000 
#    0.000    0.000    0.000    0.000    0.000    0.000 
#
# Total GULP energy -155888.837596 kJ/mol
# GULP energy per Si atom -5567.458486 kJ/mol
# Density = 2.230425 g / cm^3
# Si number density = 22.355131 Si / 1000 Ang^3
#
#
#
# Elastic Constant Matrix: (Units=GPa)
#
#
# Indices 1 2 3 4 5 6 
#
# 1 123.6480 42.3750 13.1922 0.0000 -31.5647 0.0000
# 2 42.3750 48.8239 -4.9957 0.0000 -17.0335 0.0000
# 3 13.1922 -4.9957 59.3559 0.0000 -19.8985 0.0000
# 4 0.0000 0.0000 0.0000 25.8919 0.0000 -10.0774
# 5 -31.5647 -17.0335 -19.8985 0.0000 55.5656 0.0000
# 6 0.0000 0.0000 0.0000 -10.0774 0.0000 42.6770
#
#
#
# Elastic Compliance Matrix: (Units=1/GPa)
#
#
# Indices 1 2 3 4 5 6 
#
# 1 0.012645 -0.010147 -0.002613 0.000000 0.003136 0.000000
# 2 -0.010147 0.032389 0.007247 0.000000 0.006760 0.000000
# 3 -0.002613 0.007247 0.020780 0.000000 0.008179 0.000000
# 4 0.000000 0.000000 0.000000 0.042531 0.000000 0.010043
# 5 0.003136 0.006760 0.008179 0.000000 0.024780 0.000000
# 6 0.000000 0.000000 0.000000 0.010043 0.000000 0.025803
#
#
# Mechanical properties :
#
#
# Convention : Reuss Voigt Hill
#
# Bulk Modulus (GPa) = 18.25230 36.99675 27.62453
# Shear Modulus (GPa) = 26.56528 36.91066 31.73797
#
# Velocity S-wave (km/s) = 3.45096 4.06779 3.77200
# Velocity P-wave (km/s) = 4.90522 6.21675 5.59952
#
# Compressibility (1/GPa) = 0.05478761
#
# Stress axis : x y z
#
# Youngs Moduli (GPa) = 79.08556 30.87490 48.12282
#
# Poissons Ratio (x) = 0.31330 0.12574
# Poissons Ratio (y) = 0.80252 -0.34877
# Poissons Ratio (z) = 0.20664 -0.22376
#
# Static dielectric constant tensor:
#      x y z
#    x 1.962130 0.000000 0.083390 
#    y 0.000000 2.029450 0.000000 
#    z 0.083390 0.000000 2.350670 
# 
# From -- ./inp_files/56487.got.cif
#   From: 2010.05.17/outbox.cif.g08.bks.cpg/sg15_29_cif.got.tgz:56487.got - 2010.06.03 18:47:42.
