data_PCOD9280871
_publ_section_title
;
Structure prediction by ZEFSAII (Michael W. Deem and Ramdas Pophale) SiO2 
 PCOD9280871
Probable space group: C 2/C
;
_chemical_formula_sum "Si O2"
_cell_formula_units_Z 56
_cell_length_a 16.091040
_cell_length_b 10.909369
_cell_length_c 13.304098
_cell_angle_alpha 90.000000
_cell_angle_beta 109.140167
_cell_angle_gamma 90.000000
_cell_volume 2206.337580
_symmetry_space_group_name_H-M "C 2/C"
_symmetry_group_IT_number 15
_symmetry_cell_setting 'monoclinic'
loop_
_space_group_symop_operation_xyz
x,y,z
-x,y,1/2-z
-x,-y,-z
x,-y,1/2+z
1/2+x,1/2+y,z
1/2-x,1/2+y,1/2-z
1/2-x,1/2-y,-z
1/2+x,1/2-y,1/2+z
loop_
_atom_site_type_symbol
_atom_site_label
_atom_site_fract_x
_atom_site_fract_y
_atom_site_fract_z
Si Si1 0.910415 0.504502 0.751761
Si Si2 0.280345 0.508756 0.262376
Si Si3 0.953565 0.677262 0.959297
Si Si4 0.724506 0.909618 0.052037
Si Si5 0.134242 0.641495 0.971557
Si Si6 0.409112 0.376423 0.659627
Si Si7 0.382624 0.430209 0.986017
O O1 0.817211 0.443799 0.745686
O O2 0.932628 0.605771 0.846839
O O3 0.886050 0.579484 0.643058
O O4 0.000000 0.436349 0.750000
O O5 0.261009 0.394291 0.179720
O O6 0.342516 0.599346 0.224344
O O7 0.340091 0.483731 0.383627
O O8 0.875291 0.632333 0.999472
O O9 0.943108 0.824106 0.962511
O O10 0.053093 0.635577 0.018636
O O11 0.713167 0.058284 0.040864
O O12 0.794559 0.868909 0.998732
O O13 0.132547 0.780722 0.935356
O O14 0.500000 0.338538 0.750000
O O15 0.423667 0.497983 0.596629
#
# Coordination Sequence:
#
# PCOD9280871 Si02
#       7
#     8   8   8   8   8   8   8
#     4   9  18  36  64  95 129 172 221 271 334 401
#     4  10  21  39  61  99 129 174 216 274 336 400
#     4  10  21  37  65  92 130 175 218 274 336 406
#     4  10  22  39  63  97 130 170 225 276 330 410
#     4  11  20  39  64  96 126 171 226 278 332 389
#     4  11  25  42  68  97 133 174 233 282 329 415
#     4  11  22  41  66  93 137 180 217 273 356 397
#
# _framework density 25.381429000000001
#
# number of rings (size 3 to 8) (size 9 to 14) (size 15 to 20)
#    0.000    1.714    1.429    3.857    0.000    4.571 
#    5.143    0.000    3.143    0.000    0.000    0.000 
#    0.000    0.000    0.000    0.000    0.000    0.000 
#
# Total GULP energy -156144.886597 kJ/mol
# GULP energy per Si atom -5576.603093 kJ/mol
# Density = 2.532366 g / cm^3
# Si number density = 25.381429 Si / 1000 Ang^3
#
#
#
# Elastic Constant Matrix: (Units=GPa)
#
#
# Indices 1 2 3 4 5 6 
#
# 1 159.4220 34.4369 12.9087 0.0000 -33.8253 0.0000
# 2 34.4369 67.6517 19.8986 0.0000 -5.4282 0.0000
# 3 12.9087 19.8986 79.8528 0.0000 -2.9261 0.0000
# 4 0.0000 0.0000 0.0000 10.5462 0.0000 -3.0850
# 5 -33.8253 -5.4282 -2.9261 0.0000 39.0651 0.0000
# 6 0.0000 0.0000 0.0000 -3.0850 0.0000 39.1658
#
#
#
# Elastic Compliance Matrix: (Units=1/GPa)
#
#
# Indices 1 2 3 4 5 6 
#
# 1 0.008556 -0.003746 -0.000198 0.000000 0.006873 0.000000
# 2 -0.003746 0.017736 -0.003853 0.000000 -0.001067 0.000000
# 3 -0.000198 -0.003853 0.013526 0.000000 0.000306 0.000000
# 4 0.000000 0.000000 0.000000 0.097057 0.000000 0.007645
# 5 0.006873 -0.001067 0.000306 0.000000 0.031424 0.000000
# 6 0.000000 0.000000 0.000000 0.007645 0.000000 0.026135
#
#
# Mechanical properties :
#
#
# Convention : Reuss Voigt Hill
#
# Bulk Modulus (GPa) = 41.27980 49.04611 45.16295
# Shear Modulus (GPa) = 22.92497 33.73426 28.32961
#
# Velocity S-wave (km/s) = 3.00862 3.64963 3.34452
# Velocity P-wave (km/s) = 5.32618 6.09305 5.72247
#
# Compressibility (1/GPa) = 0.02422493
#
# Stress axis : x y z
#
# Youngs Moduli (GPa) = 116.87575 56.38258 73.92918
#
# Poissons Ratio (x) = 0.21119 0.01463
# Poissons Ratio (y) = 0.43777 0.28487
# Poissons Ratio (z) = 0.02313 0.21726
#
# Static dielectric constant tensor:
#      x y z
#    x 2.060450 0.000000 -0.011040 
#    y 0.000000 2.109740 0.000000 
#    z -0.011040 0.000000 2.006460 
# 
# From -- ./inp_files/153435.got.cif
#   From: 2010.05.17/outbox.cif.g08.bks.cpg/sg15_77_cif.got.tgz:153435.got - 2010.06.03 18:47:42.
