data_PCOD9280808
_publ_section_title
;
Structure prediction by ZEFSAII (Michael W. Deem and Ramdas Pophale) SiO2 
 PCOD9280808
Probable space group: C 2/C
;
_chemical_formula_sum "Si O2"
_cell_formula_units_Z 40
_cell_length_a 26.062096
_cell_length_b 9.906261
_cell_length_c 18.751593
_cell_angle_alpha 90.000000
_cell_angle_beta 156.787798
_cell_angle_gamma 90.000000
_cell_volume 1908.117836
_symmetry_space_group_name_H-M "C 2/C"
_symmetry_group_IT_number 15
_symmetry_cell_setting 'monoclinic'
loop_
_space_group_symop_operation_xyz
x,y,z
-x,y,1/2-z
-x,-y,-z
x,-y,1/2+z
1/2+x,1/2+y,z
1/2-x,1/2+y,1/2-z
1/2-x,1/2-y,-z
1/2+x,1/2-y,1/2+z
loop_
_atom_site_type_symbol
_atom_site_label
_atom_site_fract_x
_atom_site_fract_y
_atom_site_fract_z
Si Si1 0.334994 0.573304 0.968098
Si Si2 0.262746 0.533912 0.031902
Si Si3 0.449392 0.150024 0.931377
Si Si4 0.474587 0.414848 0.394782
Si Si5 0.956961 0.717549 0.781254
O O1 0.206376 0.631815 0.767404
O O2 0.296333 0.499084 0.992396
O O3 0.423065 0.476925 0.031676
O O4 0.419478 0.706899 0.094534
O O5 0.330295 0.435735 0.175759
O O6 0.345945 0.669736 0.150467
O O7 0.112935 0.583608 0.839198
O O8 0.497261 0.193210 0.914331
O O9 0.496805 0.260025 0.048646
O O10 0.500000 0.000000 0.000000
O O11 0.500000 0.500000 0.500000
#
# Coordination Sequence:
#
# PCOD9280808 Si02
#       5
#     8   8   8   8   8
#     4  10  21  37  64  90 126 176 217 259 323 387
#     4   9  18  35  62  92 120 157 219 260 312 374
#     4  11  24  38  58  93 137 164 211 269 327 380
#     4  11  20  37  62  93 123 164 217 269 318 371
#     4   9  17  36  59  86 118 166 207 254 305 387
#
# _framework density 20.963066000000001
#
# number of rings (size 3 to 8) (size 9 to 14) (size 15 to 20)
#    0.000    2.000    4.000    2.400    2.800    0.000 
#    0.000    4.000    0.000    9.600    0.000    0.000 
#    0.000    0.000    0.000    0.000    0.000    0.000 
#
# Total GULP energy -111413.021828 kJ/mol
# GULP energy per Si atom -5570.651091 kJ/mol
# Density = 2.091535 g / cm^3
# Si number density = 20.963066 Si / 1000 Ang^3
#
#
#
# Elastic Constant Matrix: (Units=GPa)
#
#
# Indices 1 2 3 4 5 6 
#
# 1 85.7105 34.7328 28.7773 0.0000 -7.0991 0.0000
# 2 34.7328 109.5353 60.8225 0.0000 -8.0481 0.0000
# 3 28.7773 60.8225 133.9025 0.0000 1.0814 0.0000
# 4 0.0000 0.0000 0.0000 37.5311 0.0000 -9.3544
# 5 -7.0991 -8.0481 1.0814 0.0000 30.4932 0.0000
# 6 0.0000 0.0000 0.0000 -9.3544 0.0000 23.3290
#
#
#
# Elastic Compliance Matrix: (Units=1/GPa)
#
#
# Indices 1 2 3 4 5 6 
#
# 1 0.013712 -0.003381 -0.001430 0.000000 0.002351 0.000000
# 2 -0.003381 0.013410 -0.005388 0.000000 0.002943 0.000000
# 3 -0.001430 -0.005388 0.010240 0.000000 -0.002118 0.000000
# 4 0.000000 0.000000 0.000000 0.029603 0.000000 0.011870
# 5 0.002351 0.002943 -0.002118 0.000000 0.034193 0.000000
# 6 0.000000 0.000000 0.000000 0.011870 0.000000 0.047625
#
#
# Mechanical properties :
#
#
# Convention : Reuss Voigt Hill
#
# Bulk Modulus (GPa) = 58.95168 64.20148 61.57658
# Shear Modulus (GPa) = 28.59809 31.92505 30.26157
#
# Velocity S-wave (km/s) = 3.69753 3.90669 3.80355
# Velocity P-wave (km/s) = 6.81262 7.14438 6.98047
#
# Compressibility (1/GPa) = 0.01696305
#
# Stress axis : x y z
#
# Youngs Moduli (GPa) = 72.92776 74.57196 97.65557
#
# Poissons Ratio (x) = 0.25215 0.13965
# Poissons Ratio (y) = 0.24659 0.52619
# Poissons Ratio (z) = 0.10429 0.40181
#
# Static dielectric constant tensor:
#      x y z
#    x 1.571610 0.000000 0.375340 
#    y 0.000000 1.796620 0.000000 
#    z 0.375340 0.000000 1.235290 
# 
# From -- ./inp_files/259068.got.cif
#   From: 2010.05.17/outbox.cif.g08.bks.cpg/sg15_130_cif.got.tgz:259068.got - 2010.06.03 18:47:42.
