data_PCOD9280898
_publ_section_title
;
Structure prediction by ZEFSAII (Michael W. Deem and Ramdas Pophale) SiO2 
 PCOD9280898
Probable space group: C 2/C
;
_chemical_formula_sum "Si O2"
_cell_formula_units_Z 48
_cell_length_a 22.103691
_cell_length_b 9.734427
_cell_length_c 11.413143
_cell_angle_alpha 90.000000
_cell_angle_beta 59.419118
_cell_angle_gamma 90.000000
_cell_volume 2114.166216
_symmetry_space_group_name_H-M "C 2/C"
_symmetry_group_IT_number 15
_symmetry_cell_setting 'monoclinic'
loop_
_space_group_symop_operation_xyz
x,y,z
-x,y,1/2-z
-x,-y,-z
x,-y,1/2+z
1/2+x,1/2+y,z
1/2-x,1/2+y,1/2-z
1/2-x,1/2-y,-z
1/2+x,1/2-y,1/2+z
loop_
_atom_site_type_symbol
_atom_site_label
_atom_site_fract_x
_atom_site_fract_y
_atom_site_fract_z
Si Si1 0.827985 0.273449 0.871012
Si Si2 0.867361 0.229772 0.226728
Si Si3 0.384657 0.940097 0.015684
Si Si4 0.567436 0.228987 0.602674
Si Si5 0.742638 0.929701 0.757739
Si Si6 0.620053 0.562109 0.863037
O O1 0.812657 0.382256 0.783712
O O2 0.859514 0.140871 0.776151
O O3 0.750000 0.250000 0.000000
O O4 0.881897 0.332026 0.912669
O O5 0.897133 0.355661 0.122183
O O6 0.871384 0.255384 0.360175
O O7 0.787631 0.197432 0.263731
O O8 0.906560 0.088664 0.148083
O O9 0.304180 0.995547 0.100310
O O10 0.430853 0.074322 0.948863
O O11 0.500000 0.251659 0.750000
O O12 0.577235 0.339551 0.490394
O O13 0.804893 0.026263 0.649720
#
# Coordination Sequence:
#
# PCOD9280898 Si02
#       6
#     8   8   8   8   8   8
#     4  12  19  38  66 103 142 169 202 276 353 416
#     4  10  25  43  69 103 128 179 229 278 344 397
#     4  12  24  42  68 102 142 176 223 273 344 414
#     4  12  29  49  67  93 137 193 236 275 322 394
#     4  10  21  37  66 106 135 168 214 278 355 405
#     4  10  24  41  69 100 137 170 225 284 334 403
#
# _framework density 22.703987000000001
#
# number of rings (size 3 to 8) (size 9 to 14) (size 15 to 20)
#    1.000    0.000    5.000    1.000    7.000    2.000 
#    0.000    0.833    0.000    0.000    0.000    0.000 
#    0.000    0.000    0.000    0.000    0.000    0.000 
#
# Total GULP energy -133982.928257 kJ/mol
# GULP energy per Si atom -5582.622011 kJ/mol
# Density = 2.265231 g / cm^3
# Si number density = 22.703987 Si / 1000 Ang^3
#
#
#
# Elastic Constant Matrix: (Units=GPa)
#
#
# Indices 1 2 3 4 5 6 
#
# 1 22.3617 10.3401 8.5450 0.0000 -5.3116 0.0000
# 2 10.3401 139.0541 54.9772 0.0000 -2.2923 0.0000
# 3 8.5450 54.9772 85.8458 0.0000 -5.4888 0.0000
# 4 0.0000 0.0000 0.0000 10.2679 0.0000 -1.5146
# 5 -5.3116 -2.2923 -5.4888 0.0000 35.8302 0.0000
# 6 0.0000 0.0000 0.0000 -1.5146 0.0000 1.2684
#
#
#
# Elastic Compliance Matrix: (Units=1/GPa)
#
#
# Indices 1 2 3 4 5 6 
#
# 1 0.048480 -0.002350 -0.002899 0.000000 0.006592 0.000000
# 2 -0.002350 0.009748 -0.006050 0.000000 -0.000652 0.000000
# 3 -0.002899 -0.006050 0.015916 0.000000 0.001621 0.000000
# 4 0.000000 0.000000 0.000000 0.118213 0.000000 0.141157
# 5 0.006592 -0.000652 0.001621 0.000000 0.029093 0.000000
# 6 0.000000 0.000000 0.000000 0.141157 0.000000 0.956938
#
#
# Mechanical properties :
#
#
# Convention : Reuss Voigt Hill
#
# Bulk Modulus (GPa) = 19.40081 43.88733 31.64407
# Shear Modulus (GPa) = 4.10453 21.03325 12.56889
#
# Velocity S-wave (km/s) = 1.34602 3.04700 2.35542
# Velocity P-wave (km/s) = 3.31351 5.63482 4.62226
#
# Compressibility (1/GPa) = 0.05154425
#
# Stress axis : x y z
#
# Youngs Moduli (GPa) = 20.62714 102.59036 62.83112
#
# Poissons Ratio (x) = 0.24110 0.18215
# Poissons Ratio (y) = 0.04848 0.38014
# Poissons Ratio (z) = 0.05980 0.62069
#
# Static dielectric constant tensor:
#      x y z
#    x 1.897940 0.000000 0.005650 
#    y 0.000000 1.888120 0.000000 
#    z 0.005650 0.000000 1.889220 
# 
# From -- ./inp_files/65049.got.cif
#   From: 2010.05.17/outbox.cif.g08.bks.cpg/sg15_33_cif.got.tgz:65049.got - 2010.06.03 18:47:42.
