data_PCOD9280789
_publ_section_title
;
Structure prediction by ZEFSAII (Michael W. Deem and Ramdas Pophale) SiO2 
 PCOD9280789
Probable space group: C 2/C
;
_chemical_formula_sum "Si O2"
_cell_formula_units_Z 52
_cell_length_a 10.231973
_cell_length_b 11.553346
_cell_length_c 21.317705
_cell_angle_alpha 90.000000
_cell_angle_beta 50.893984
_cell_angle_gamma 90.000000
_cell_volume 1955.501905
_symmetry_space_group_name_H-M "C 2/C"
_symmetry_group_IT_number 15
_symmetry_cell_setting 'monoclinic'
loop_
_space_group_symop_operation_xyz
x,y,z
-x,y,1/2-z
-x,-y,-z
x,-y,1/2+z
1/2+x,1/2+y,z
1/2-x,1/2+y,1/2-z
1/2-x,1/2-y,-z
1/2+x,1/2-y,1/2+z
loop_
_atom_site_type_symbol
_atom_site_label
_atom_site_fract_x
_atom_site_fract_y
_atom_site_fract_z
Si Si1 0.939150 0.050304 0.664755
Si Si2 0.000000 0.587192 0.250000
Si Si3 0.131715 0.154004 0.163467
Si Si4 0.552177 0.807306 0.013831
Si Si5 0.270063 0.879078 0.015241
Si Si6 0.324245 0.584710 0.088846
Si Si7 0.144428 0.460212 0.329025
O O1 0.869127 0.028064 0.616260
O O2 0.804077 0.107978 0.750497
O O3 0.991649 0.922870 0.671034
O O4 0.120207 0.107103 0.609118
O O5 0.832357 0.645197 0.327948
O O6 0.940591 0.515102 0.207018
O O7 0.257839 0.064985 0.163110
O O8 0.000000 0.223016 0.250000
O O9 0.257248 0.201104 0.070759
O O10 0.449291 0.881722 0.992321
O O11 0.471031 0.679719 0.040791
O O12 0.485944 0.878632 0.094581
O O13 0.250000 0.750000 0.000000
O O14 0.232054 0.950292 0.964261
#
# Coordination Sequence:
#
# PCOD9280789 Si02
#       7
#     8   4   8   8   8   8   8
#     4  10  21  39  62  90 129 176 201 263 326 383
#     4  10  22  40  64  92 128 178 210 268 320 380
#     4  10  21  38  65  92 124 165 214 265 328 387
#     4  11  22  38  67  96 123 168 220 270 312 388
#     4  10  21  37  63  97 123 161 217 267 309 374
#     4  10  23  39  61  96 135 168 212 262 331 376
#     4  10  21  39  66  91 126 167 222 258 327 380
#
# _framework density 26.591639000000001
#
# number of rings (size 3 to 8) (size 9 to 14) (size 15 to 20)
#    0.000    1.846    1.538    1.846    2.154    3.077 
#    0.000    3.077    8.462    0.000    0.000    0.000 
#    0.000    0.000    0.000    0.000    0.000    0.000 
#
# Total GULP energy -145043.428531 kJ/mol
# GULP energy per Si atom -5578.593405 kJ/mol
# Density = 2.653112 g / cm^3
# Si number density = 26.591639 Si / 1000 Ang^3
#
#
#
# Elastic Constant Matrix: (Units=GPa)
#
#
# Indices 1 2 3 4 5 6 
#
# 1 90.6359 2.1752 51.3036 0.0000 3.6893 0.0000
# 2 2.1752 31.7076 45.9402 0.0000 -13.9045 0.0000
# 3 51.3036 45.9402 259.8633 0.0000 -60.7071 0.0000
# 4 0.0000 0.0000 0.0000 20.3183 0.0000 3.9513
# 5 3.6893 -13.9045 -60.7071 0.0000 72.0647 0.0000
# 6 0.0000 0.0000 0.0000 3.9513 0.0000 27.7605
#
#
#
# Elastic Compliance Matrix: (Units=1/GPa)
#
#
# Indices 1 2 3 4 5 6 
#
# 1 0.013386 0.003451 -0.004055 0.000000 -0.003436 0.000000
# 2 0.003451 0.043602 -0.008050 0.000000 0.001455 0.000000
# 3 -0.004055 -0.008050 0.007168 0.000000 0.004693 0.000000
# 4 0.000000 0.000000 0.000000 0.050618 0.000000 -0.007205
# 5 -0.003436 0.001455 0.004693 0.000000 0.018286 0.000000
# 6 0.000000 0.000000 0.000000 -0.007205 0.000000 0.037048
#
#
# Mechanical properties :
#
#
# Convention : Reuss Voigt Hill
#
# Bulk Modulus (GPa) = 21.34568 64.56054 42.95311
# Shear Modulus (GPa) = 24.62657 42.88122 33.75389
#
# Velocity S-wave (km/s) = 3.04649 4.02005 3.56665
# Velocity P-wave (km/s) = 4.51879 6.77340 5.75754
#
# Compressibility (1/GPa) = 0.04684788
#
# Stress axis : x y z
#
# Youngs Moduli (GPa) = 74.70687 22.93449 139.50541
#
# Poissons Ratio (x) = -0.07914 0.56574
# Poissons Ratio (y) = -0.25779 1.12296
# Poissons Ratio (z) = 0.30296 0.18461
#
# Static dielectric constant tensor:
#      x y z
#    x 2.166940 0.000000 0.058530 
#    y 0.000000 2.028130 0.000000 
#    z 0.058530 0.000000 2.226110 
# 
# From -- ./inp_files/238659.got.cif
#   From: 2010.05.17/outbox.cif.g08.bks.cpg/sg15_120_cif.got.tgz:238659.got - 2010.06.03 18:47:42.
