data_PCOD9280581
_publ_section_title
;
Structure prediction by ZEFSAII (Michael W. Deem and Ramdas Pophale) SiO2 
 PCOD9280581
Probable space group: C 2/C
;
_chemical_formula_sum "Si O2"
_cell_formula_units_Z 44
_cell_length_a 18.415792
_cell_length_b 18.147968
_cell_length_c 14.352252
_cell_angle_alpha 90.000000
_cell_angle_beta 159.442880
_cell_angle_gamma 90.000000
_cell_volume 1684.302160
_symmetry_space_group_name_H-M "C 2/C"
_symmetry_group_IT_number 15
_symmetry_cell_setting 'monoclinic'
loop_
_space_group_symop_operation_xyz
x,y,z
-x,y,1/2-z
-x,-y,-z
x,-y,1/2+z
1/2+x,1/2+y,z
1/2-x,1/2+y,1/2-z
1/2-x,1/2-y,-z
1/2+x,1/2-y,1/2+z
loop_
_atom_site_type_symbol
_atom_site_label
_atom_site_fract_x
_atom_site_fract_y
_atom_site_fract_z
Si Si1 0.069733 0.819944 0.687882
Si Si2 0.546243 0.846820 0.916675
Si Si3 0.163720 0.348312 0.312151
Si Si4 0.000000 0.922510 0.250000
Si Si5 0.551974 0.001130 0.206051
Si Si6 0.154637 0.181237 0.077427
O O1 0.054991 0.730669 0.673575
O O2 0.126670 0.839285 0.651319
O O3 0.855029 0.848724 0.470651
O O4 0.239811 0.845748 0.967601
O O5 0.500000 0.845158 0.750000
O O6 0.601916 0.931955 0.004562
O O7 0.349957 0.839273 0.749279
O O8 0.656859 0.769917 0.069931
O O9 0.035977 0.421868 0.140122
O O10 0.206626 0.972077 0.509198
O O11 0.978444 0.865803 0.311247
O O12 0.500000 0.986919 0.250000
#
# Coordination Sequence:
#
# PCOD9280581 Si02
#       6
#     8   8   8   4   8   8
#     4  10  22  39  69  89 121 161 218 263 309 370
#     4  10  21  37  61  90 126 164 199 252 310 373
#     4  10  22  43  62  90 123 164 212 265 314 366
#     4  10  22  40  66  92 126 172 202 252 320 378
#     4  10  23  40  65  89 130 169 202 259 326 370
#     4  11  21  37  67  94 122 165 213 252 311 378
#
# _framework density 26.123578999999999
#
# number of rings (size 3 to 8) (size 9 to 14) (size 15 to 20)
#    0.000    1.818    0.909    2.727   10.182    0.000 
#    0.000    9.091    0.000    0.000    0.000    0.000 
#    0.000    0.000    0.000    0.000    0.000    0.000 
#
# Total GULP energy -123077.887303 kJ/mol
# GULP energy per Si atom -5594.449423 kJ/mol
# Density = 2.606412 g / cm^3
# Si number density = 26.123579 Si / 1000 Ang^3
#
#
#
# Elastic Constant Matrix: (Units=GPa)
#
#
# Indices 1 2 3 4 5 6 
#
# 1 220.3009 52.2476 39.8128 0.0000 -34.5683 0.0000
# 2 52.2476 172.3695 38.5572 0.0000 2.6062 0.0000
# 3 39.8128 38.5572 56.5901 0.0000 -5.3400 0.0000
# 4 0.0000 0.0000 0.0000 27.2936 0.0000 16.8974
# 5 -34.5683 2.6062 -5.3400 0.0000 47.4447 0.0000
# 6 0.0000 0.0000 0.0000 16.8974 0.0000 31.8370
#
#
#
# Elastic Compliance Matrix: (Units=1/GPa)
#
#
# Indices 1 2 3 4 5 6 
#
# 1 0.006017 -0.001210 -0.003021 0.000000 0.004111 0.000000
# 2 -0.001210 0.007127 -0.004169 0.000000 -0.001743 0.000000
# 3 -0.003021 -0.004169 0.022692 0.000000 0.000582 0.000000
# 4 0.000000 0.000000 0.000000 0.054569 0.000000 -0.028962
# 5 0.004111 -0.001743 0.000582 0.000000 0.024233 0.000000
# 6 0.000000 0.000000 0.000000 -0.028962 0.000000 0.046782
#
#
# Mechanical properties :
#
#
# Convention : Reuss Voigt Hill
#
# Bulk Modulus (GPa) = 52.53248 78.94396 65.73822
# Shear Modulus (GPa) = 27.09058 42.55792 34.82425
#
# Velocity S-wave (km/s) = 3.22377 4.04059 3.65507
# Velocity P-wave (km/s) = 5.83179 7.21481 6.55985
#
# Compressibility (1/GPa) = 0.01903584
#
# Stress axis : x y z
#
# Youngs Moduli (GPa) = 166.18943 140.30597 44.06916
#
# Poissons Ratio (x) = 0.16982 0.13312
# Poissons Ratio (y) = 0.20115 0.18373
# Poissons Ratio (z) = 0.50202 0.58494
#
# Static dielectric constant tensor:
#      x y z
#    x 1.980460 0.000000 -0.014000 
#    y 0.000000 2.048150 0.000000 
#    z -0.014000 0.000000 2.222300 
# 
# From -- ./inp_files/39521.got.cif
#   From: 2010.05.17/outbox.cif.g08.bks.cpg/sg15_20_cif.got.tgz:39521.got - 2010.06.03 18:47:42.
