data_PCOD9280840
_publ_section_title
;
Structure prediction by ZEFSAII (Michael W. Deem and Ramdas Pophale) SiO2 
 PCOD9280840
Probable space group: C 2/C
;
_chemical_formula_sum "Si O2"
_cell_formula_units_Z 56
_cell_length_a 23.887573
_cell_length_b 13.621915
_cell_length_c 15.482937
_cell_angle_alpha 90.000000
_cell_angle_beta 34.390093
_cell_angle_gamma 90.000000
_cell_volume 2845.620178
_symmetry_space_group_name_H-M "C 2/C"
_symmetry_group_IT_number 15
_symmetry_cell_setting 'monoclinic'
loop_
_space_group_symop_operation_xyz
x,y,z
-x,y,1/2-z
-x,-y,-z
x,-y,1/2+z
1/2+x,1/2+y,z
1/2-x,1/2+y,1/2-z
1/2-x,1/2-y,-z
1/2+x,1/2-y,1/2+z
loop_
_atom_site_type_symbol
_atom_site_label
_atom_site_fract_x
_atom_site_fract_y
_atom_site_fract_z
Si Si1 0.885217 0.938631 0.365124
Si Si2 0.708981 0.947595 0.179269
Si Si3 0.885841 0.984337 0.165443
Si Si4 0.236528 0.801391 0.252879
Si Si5 0.385126 0.998465 0.373446
Si Si6 0.203734 0.412762 0.838203
Si Si7 0.119479 0.716790 0.090735
O O1 0.875333 0.981472 0.281843
O O2 0.853874 0.823391 0.405205
O O3 0.000000 0.944290 0.250000
O O4 0.812007 0.001213 0.518719
O O5 0.727525 0.844463 0.201626
O O6 0.641272 0.944498 0.181296
O O7 0.666367 0.016021 0.309959
O O8 0.838033 0.882855 0.191117
O O9 0.821397 0.068479 0.200980
O O10 0.000000 0.000000 0.000000
O O11 0.185276 0.697784 0.334338
O O12 0.328567 0.788364 0.069522
O O13 0.500000 0.999947 0.250000
O O14 0.350772 0.112100 0.405826
O O15 0.336653 0.948225 0.518475
O O16 0.000000 0.716384 0.250000
#
# Coordination Sequence:
#
# PCOD9280840 Si02
#       7
#     8   8   8   8   8   8   8
#     4  11  21  38  68  99 127 170 221 275 338 393
#     4  11  22  41  67  89 130 174 209 270 334 385
#     4  11  24  43  66 100 136 168 222 285 329 398
#     4  11  23  42  65  96 133 171 216 269 335 394
#     4  11  24  45  61  92 132 170 221 274 321 394
#     4  11  23  44  65  95 133 171 220 269 332 401
#     4  10  21  37  64  97 128 161 220 274 323 383
#
# _framework density 19.679366999999999
#
# number of rings (size 3 to 8) (size 9 to 14) (size 15 to 20)
#    0.000    1.143    5.714    1.714    4.000    2.286 
#    2.571    0.714    0.000    0.000    0.000    0.000 
#    0.000    0.000    0.000    0.000    0.000    0.000 
#
# Total GULP energy -156296.835809 kJ/mol
# GULP energy per Si atom -5582.029850 kJ/mol
# Density = 1.963458 g / cm^3
# Si number density = 19.679367 Si / 1000 Ang^3
#
#
#
# Elastic Constant Matrix: (Units=GPa)
#
#
# Indices 1 2 3 4 5 6 
#
# 1 94.8021 -14.2850 43.8713 0.0000 7.1588 0.0000
# 2 -14.2850 36.6597 12.5067 0.0000 -4.7751 0.0000
# 3 43.8713 12.5067 85.0702 0.0000 3.2200 0.0000
# 4 0.0000 0.0000 0.0000 18.8567 0.0000 3.7641
# 5 7.1588 -4.7751 3.2200 0.0000 41.3318 0.0000
# 6 0.0000 0.0000 0.0000 3.7641 0.0000 13.9415
#
#
#
# Elastic Compliance Matrix: (Units=1/GPa)
#
#
# Indices 1 2 3 4 5 6 
#
# 1 0.016753 0.009828 -0.010047 0.000000 -0.000984 0.000000
# 2 0.009828 0.035045 -0.010340 0.000000 0.003152 0.000000
# 3 -0.010047 -0.010340 0.018490 0.000000 -0.000895 0.000000
# 4 0.000000 0.000000 0.000000 0.056052 0.000000 -0.015134
# 5 -0.000984 0.003152 -0.000895 0.000000 0.024799 0.000000
# 6 0.000000 0.000000 0.000000 -0.015134 0.000000 0.075814
#
#
# Mechanical properties :
#
#
# Convention : Reuss Voigt Hill
#
# Bulk Modulus (GPa) = 20.33759 33.41309 26.87534
# Shear Modulus (GPa) = 18.90628 26.45527 22.68077
#
# Velocity S-wave (km/s) = 3.10290 3.67047 3.39855
# Velocity P-wave (km/s) = 4.81604 5.91428 5.39319
#
# Compressibility (1/GPa) = 0.04917004
#
# Stress axis : x y z
#
# Youngs Moduli (GPa) = 59.69113 28.53445 54.08220
#
# Poissons Ratio (x) = -0.28042 0.54337
# Poissons Ratio (y) = -0.58662 0.55919
# Poissons Ratio (z) = 0.59973 0.29504
#
# Static dielectric constant tensor:
#      x y z
#    x 1.702500 0.000000 -0.030750 
#    y 0.000000 1.675700 0.000000 
#    z -0.030750 0.000000 1.746920 
# 
# From -- ./inp_files/178345.got.cif
#   From: 2010.05.17/outbox.cif.g08.bks.cpg/sg15_90_cif.got.tgz:178345.got - 2010.06.03 18:47:42.
