data_PCOD9280567
_publ_section_title
;
Structure prediction by ZEFSAII (Michael W. Deem and Ramdas Pophale) SiO2 
 PCOD9280567
Probable space group: C 2/C
;
_chemical_formula_sum "Si O2"
_cell_formula_units_Z 64
_cell_length_a 20.906928
_cell_length_b 12.204051
_cell_length_c 13.655252
_cell_angle_alpha 90.000000
_cell_angle_beta 64.201610
_cell_angle_gamma 90.000000
_cell_volume 3136.867402
_symmetry_space_group_name_H-M "C 2/C"
_symmetry_group_IT_number 15
_symmetry_cell_setting 'monoclinic'
loop_
_space_group_symop_operation_xyz
x,y,z
-x,y,1/2-z
-x,-y,-z
x,-y,1/2+z
1/2+x,1/2+y,z
1/2-x,1/2+y,1/2-z
1/2-x,1/2-y,-z
1/2+x,1/2-y,1/2+z
loop_
_atom_site_type_symbol
_atom_site_label
_atom_site_fract_x
_atom_site_fract_y
_atom_site_fract_z
Si Si1 0.521042 0.969166 0.348327
Si Si2 0.848349 0.861104 0.614671
Si Si3 0.942895 0.674596 0.056954
Si Si4 0.296040 0.719936 0.614533
Si Si5 0.995187 0.894655 0.573235
Si Si6 0.630999 0.534886 0.065902
Si Si7 0.669606 0.122553 0.831833
Si Si8 0.761406 0.939881 0.845222
O O1 0.500000 0.957761 0.250000
O O2 0.461181 0.906178 0.452890
O O3 0.597670 0.914023 0.324235
O O4 0.529318 0.096947 0.374236
O O5 0.843689 0.732816 0.598626
O O6 0.782346 0.907848 0.719944
O O7 0.913016 0.876779 0.648569
O O8 0.863277 0.929132 0.507734
O O9 0.862312 0.718349 0.124844
O O10 0.982891 0.786982 0.002834
O O11 0.330919 0.631147 0.521287
O O12 0.235611 0.658451 0.717997
O O13 0.259092 0.825240 0.591216
O O14 0.050286 0.921287 0.622584
O O15 0.000000 0.000000 0.500000
O O16 0.673061 0.513037 0.137041
O O17 0.697576 0.024813 0.880645
#
# Coordination Sequence:
#
# PCOD9280567 Si02
#       8
#     8   8   8   8   8   8   8   8
#     4  11  24  42  67  94 124 166 217 260 314 380
#     4  10  21  40  58  85 125 157 198 259 306 361
#     4  10  21  43  65  91 126 164 204 263 320 360
#     4  10  21  40  63  87 124 157 204 260 309 369
#     4   9  19  38  64  83 123 161 200 251 306 366
#     4  10  21  37  61  89 114 160 205 241 310 374
#     4  11  22  41  62  90 130 162 203 264 317 363
#     4  11  22  37  60  88 119 159 203 248 309 369
#
# _framework density 20.402519999999999
#
# number of rings (size 3 to 8) (size 9 to 14) (size 15 to 20)
#    0.000    1.750    3.750    0.375    0.000    6.000 
#    0.000    2.500    0.000    0.000    0.000    0.000 
#    0.000    0.000    0.000    0.000    0.000    0.000 
#
# Total GULP energy -178280.836693 kJ/mol
# GULP energy per Si atom -5571.276147 kJ/mol
# Density = 2.035608 g / cm^3
# Si number density = 20.402520 Si / 1000 Ang^3
#
#
#
# Elastic Constant Matrix: (Units=GPa)
#
#
# Indices 1 2 3 4 5 6 
#
# 1 71.9779 28.7844 23.9616 0.0000 -7.4841 0.0000
# 2 28.7844 140.5011 22.7289 0.0000 5.3258 0.0000
# 3 23.9616 22.7289 45.9425 0.0000 -5.1700 0.0000
# 4 0.0000 0.0000 0.0000 13.1065 0.0000 -7.3511
# 5 -7.4841 5.3258 -5.1700 0.0000 29.6803 0.0000
# 6 0.0000 0.0000 0.0000 -7.3511 0.0000 25.7550
#
#
#
# Elastic Compliance Matrix: (Units=1/GPa)
#
#
# Indices 1 2 3 4 5 6 
#
# 1 0.017832 -0.002557 -0.007627 0.000000 0.003627 0.000000
# 2 -0.002557 0.008233 -0.003038 0.000000 -0.002651 0.000000
# 3 -0.007627 -0.003038 0.027634 0.000000 0.003435 0.000000
# 4 0.000000 0.000000 0.000000 0.090840 0.000000 0.025928
# 5 0.003627 -0.002651 0.003435 0.000000 0.035681 0.000000
# 6 0.000000 0.000000 0.000000 0.025928 0.000000 0.046228
#
#
# Mechanical properties :
#
#
# Convention : Reuss Voigt Hill
#
# Bulk Modulus (GPa) = 36.69077 45.48571 41.08824
# Shear Modulus (GPa) = 19.08562 25.90480 22.49521
#
# Velocity S-wave (km/s) = 3.06184 3.56713 3.32410
# Velocity P-wave (km/s) = 5.52470 6.26965 5.90892
#
# Compressibility (1/GPa) = 0.02725481
#
# Stress axis : x y z
#
# Youngs Moduli (GPa) = 56.07941 121.46026 36.18742
#
# Poissons Ratio (x) = 0.31055 0.27601
# Poissons Ratio (y) = 0.14338 0.10994
# Poissons Ratio (z) = 0.42773 0.36899
#
# Static dielectric constant tensor:
#      x y z
#    x 1.795340 0.000000 -0.034980 
#    y 0.000000 1.749620 0.000000 
#    z -0.034980 0.000000 1.718680 
# 
# From -- ./inp_files/167630.got.cif
#   From: 2010.05.17/outbox.cif.g08.bks.cpg/sg15_84_cif.got.tgz:167630.got - 2010.06.03 18:47:42.
