data_PCOD9280544
_publ_section_title
;
Structure prediction by ZEFSAII (Michael W. Deem and Ramdas Pophale) SiO2 
 PCOD9280544
Probable space group: C 2/C
;
_chemical_formula_sum "Si O2"
_cell_formula_units_Z 64
_cell_length_a 34.453331
_cell_length_b 16.930919
_cell_length_c 10.354311
_cell_angle_alpha 90.000000
_cell_angle_beta 146.436258
_cell_angle_gamma 90.000000
_cell_volume 3339.270022
_symmetry_space_group_name_H-M "C 2/C"
_symmetry_group_IT_number 15
_symmetry_cell_setting 'monoclinic'
loop_
_space_group_symop_operation_xyz
x,y,z
-x,y,1/2-z
-x,-y,-z
x,-y,1/2+z
1/2+x,1/2+y,z
1/2-x,1/2+y,1/2-z
1/2-x,1/2-y,-z
1/2+x,1/2-y,1/2+z
loop_
_atom_site_type_symbol
_atom_site_label
_atom_site_fract_x
_atom_site_fract_y
_atom_site_fract_z
Si Si1 0.938955 0.292903 0.434190
Si Si2 0.958198 0.521531 0.010136
Si Si3 0.319881 0.061057 0.191591
Si Si4 0.702554 0.450311 0.972592
Si Si5 0.729969 0.827153 0.163011
Si Si6 0.908618 0.238803 0.635427
Si Si7 0.325935 0.419271 0.896341
Si Si8 0.688283 0.827116 0.603585
O O1 0.950602 0.384721 0.499907
O O2 0.917270 0.248750 0.505154
O O3 0.013910 0.258347 0.595032
O O4 0.874384 0.294981 0.157465
O O5 0.883518 0.480393 0.797878
O O6 0.000000 0.491725 0.250000
O O7 0.000000 0.500000 0.000000
O O8 0.342485 0.121744 0.365157
O O9 0.274129 0.995003 0.133996
O O10 0.274621 0.108747 0.962351
O O11 0.726025 0.367211 0.099225
O O12 0.668618 0.507263 0.988569
O O13 0.664346 0.441191 0.728031
O O14 0.768860 0.748098 0.226782
O O15 0.651399 0.800669 0.986137
O O16 0.879086 0.151387 0.580787
O O17 0.247089 0.381068 0.693448
#
# Coordination Sequence:
#
# PCOD9280544 Si02
#       8
#     8   8   8   8   8   8   8   8
#     4  11  21  38  60  86 118 159 205 238 297 354
#     4  12  24  36  56  85 124 162 195 232 290 361
#     4  11  23  35  57  88 127 157 195 246 300 357
#     4  11  21  36  60  89 120 153 200 254 306 351
#     4  11  21  37  60  86 123 159 201 250 303 351
#     4  10  21  37  61  86 118 159 203 250 292 365
#     4  10  21  38  61  92 122 153 201 254 307 356
#     4  10  22  38  59  90 121 161 201 246 301 362
#
# _framework density 19.165866000000001
#
# number of rings (size 3 to 8) (size 9 to 14) (size 15 to 20)
#    0.000    1.250    2.500    4.875    3.500    2.000 
#    0.000    0.000    0.000    6.750    0.000    0.000 
#    0.000    0.000    0.000    0.000    0.000    0.000 
#
# Total GULP energy -178688.781502 kJ/mol
# GULP energy per Si atom -5584.024422 kJ/mol
# Density = 1.912224 g / cm^3
# Si number density = 19.165866 Si / 1000 Ang^3
#
#
#
# Elastic Constant Matrix: (Units=GPa)
#
#
# Indices 1 2 3 4 5 6 
#
# 1 58.8509 24.3154 15.6250 0.0000 2.3952 0.0000
# 2 24.3154 81.0732 12.2246 0.0000 7.5251 0.0000
# 3 15.6250 12.2246 71.8750 0.0000 0.9328 0.0000
# 4 0.0000 0.0000 0.0000 39.8316 0.0000 8.2346
# 5 2.3952 7.5251 0.9328 0.0000 29.7221 0.0000
# 6 0.0000 0.0000 0.0000 8.2346 0.0000 31.1718
#
#
#
# Elastic Compliance Matrix: (Units=1/GPa)
#
#
# Indices 1 2 3 4 5 6 
#
# 1 0.020196 -0.005526 -0.003449 0.000000 -0.000120 0.000000
# 2 -0.005526 0.014471 -0.001219 0.000000 -0.003180 0.000000
# 3 -0.003449 -0.001219 0.014869 0.000000 0.000120 0.000000
# 4 0.000000 0.000000 0.000000 0.026556 0.000000 -0.007015
# 5 -0.000120 -0.003180 0.000120 0.000000 0.034456 0.000000
# 6 0.000000 0.000000 0.000000 -0.007015 0.000000 0.033933
#
#
# Mechanical properties :
#
#
# Convention : Reuss Voigt Hill
#
# Bulk Modulus (GPa) = 34.30758 35.12545 34.71651
# Shear Modulus (GPa) = 28.63953 30.78737 29.71345
#
# Velocity S-wave (km/s) = 3.86981 4.01230 3.94170
# Velocity P-wave (km/s) = 6.15682 6.31123 6.23450
#
# Compressibility (1/GPa) = 0.02914808
#
# Stress axis : x y z
#
# Youngs Moduli (GPa) = 49.51514 69.10473 67.25609
#
# Poissons Ratio (x) = 0.38187 0.23197
# Poissons Ratio (y) = 0.27362 0.08196
# Poissons Ratio (z) = 0.17078 0.08421
#
# Static dielectric constant tensor:
#      x y z
#    x 1.659130 0.000000 -0.008580 
#    y 0.000000 1.629490 0.000000 
#    z -0.008580 0.000000 1.686680 
# 
# From -- ./inp_files/70620.got.cif
#   From: 2010.05.17/outbox.cif.g08.bks.cpg/sg15_36_cif.got.tgz:70620.got - 2010.06.03 18:47:42.
