data_PCOD9280942
_publ_section_title
;
Structure prediction by ZEFSAII (Michael W. Deem and Ramdas Pophale) SiO2 
 PCOD9280942
Probable space group: C 2/C
;
_chemical_formula_sum "Si O2"
_cell_formula_units_Z 32
_cell_length_a 16.997564
_cell_length_b 7.542575
_cell_length_c 11.756156
_cell_angle_alpha 90.000000
_cell_angle_beta 92.373905
_cell_angle_gamma 90.000000
_cell_volume 1505.909214
_symmetry_space_group_name_H-M "C 2/C"
_symmetry_group_IT_number 15
_symmetry_cell_setting 'monoclinic'
loop_
_space_group_symop_operation_xyz
x,y,z
-x,y,1/2-z
-x,-y,-z
x,-y,1/2+z
1/2+x,1/2+y,z
1/2-x,1/2+y,1/2-z
1/2-x,1/2-y,-z
1/2+x,1/2-y,1/2+z
loop_
_atom_site_type_symbol
_atom_site_label
_atom_site_fract_x
_atom_site_fract_y
_atom_site_fract_z
Si Si1 0.078963 0.125634 0.501774
Si Si2 0.162532 0.802386 0.462826
Si Si3 0.914160 0.295075 0.772045
Si Si4 0.035536 0.680883 0.638272
O O1 0.115200 0.177617 0.625148
O O2 0.041831 0.304900 0.446625
O O3 0.143731 0.010801 0.440072
O O4 0.000000 0.000000 0.500000
O O5 0.250000 0.750000 0.500000
O O6 0.134986 0.705974 0.346039
O O7 0.107114 0.756348 0.567796
O O8 0.933337 0.491821 0.817518
O O9 0.000000 0.215401 0.750000
O O10 0.000000 0.773921 0.750000
#
# Coordination Sequence:
#
# PCOD9280942 Si02
#       4
#     8   8   8   8
#     4  10  21  37  67  94 125 172 228 270 331 405
#     4  11  26  43  63 101 144 173 224 289 349 403
#     4  11  21  40  68  95 133 175 237 280 328 409
#     4  10  23  39  69  97 129 174 236 274 331 408
#
# _framework density 21.249621000000001
#
# number of rings (size 3 to 8) (size 9 to 14) (size 15 to 20)
#    0.000    1.500    5.000    0.750   10.500    2.000 
#    0.000    1.250    0.000    0.000    0.000    0.000 
#    0.000    0.000    0.000    0.000    0.000    0.000 
#
# Total GULP energy -89077.241511 kJ/mol
# GULP energy per Si atom -5567.327594 kJ/mol
# Density = 2.120126 g / cm^3
# Si number density = 21.249621 Si / 1000 Ang^3
#
#
#
# Elastic Constant Matrix: (Units=GPa)
#
#
# Indices 1 2 3 4 5 6 
#
# 1 128.1961 39.1184 66.5755 0.0000 26.6781 0.0000
# 2 39.1184 98.6508 36.8261 0.0000 12.7260 0.0000
# 3 66.5755 36.8261 142.1868 0.0000 19.4465 0.0000
# 4 0.0000 0.0000 0.0000 39.6356 0.0000 1.4044
# 5 26.6781 12.7260 19.4465 0.0000 35.2958 0.0000
# 6 0.0000 0.0000 0.0000 1.4044 0.0000 17.0733
#
#
#
# Elastic Compliance Matrix: (Units=1/GPa)
#
#
# Indices 1 2 3 4 5 6 
#
# 1 0.011911 -0.002420 -0.004151 0.000000 -0.005843 0.000000
# 2 -0.002420 0.011946 -0.001754 0.000000 -0.001512 0.000000
# 3 -0.004151 -0.001754 0.009642 0.000000 -0.001542 0.000000
# 4 0.000000 0.000000 0.000000 0.025304 0.000000 -0.002081
# 5 -0.005843 -0.001512 -0.001542 0.000000 0.034143 0.000000
# 6 0.000000 0.000000 0.000000 -0.002081 0.000000 0.058742
#
#
# Mechanical properties :
#
#
# Convention : Reuss Voigt Hill
#
# Bulk Modulus (GPa) = 59.35181 72.67485 66.01333
# Shear Modulus (GPa) = 28.74329 33.50187 31.12258
#
# Velocity S-wave (km/s) = 3.68183 3.97493 3.83118
# Velocity P-wave (km/s) = 6.78718 7.43919 7.12066
#
# Compressibility (1/GPa) = 0.01684869
#
# Stress axis : x y z
#
# Youngs Moduli (GPa) = 83.95898 83.70905 103.71392
#
# Poissons Ratio (x) = 0.20254 0.43052
# Poissons Ratio (y) = 0.20315 0.18195
# Poissons Ratio (z) = 0.34851 0.14685
#
# Static dielectric constant tensor:
#      x y z
#    x 1.846350 0.000000 -0.262270 
#    y 0.000000 1.910170 0.000000 
#    z -0.262270 0.000000 2.351570 
# 
# From -- ./inp_files/93228.got.cif
#   From: 2010.05.17/outbox.cif.g08.bks.cpg/sg15_47_cif.got.tgz:93228.got - 2010.06.03 18:47:42.
