data_PCOD9280522
_publ_section_title
;
Structure prediction by ZEFSAII (Michael W. Deem and Ramdas Pophale) SiO2 
 PCOD9280522
Probable space group: C 2/C
;
_chemical_formula_sum "Si O2"
_cell_formula_units_Z 48
_cell_length_a 16.924944
_cell_length_b 12.306754
_cell_length_c 11.275251
_cell_angle_alpha 90.000000
_cell_angle_beta 122.308700
_cell_angle_gamma 90.000000
_cell_volume 1984.936155
_symmetry_space_group_name_H-M "C 2/C"
_symmetry_group_IT_number 15
_symmetry_cell_setting 'monoclinic'
loop_
_space_group_symop_operation_xyz
x,y,z
-x,y,1/2-z
-x,-y,-z
x,-y,1/2+z
1/2+x,1/2+y,z
1/2-x,1/2+y,1/2-z
1/2-x,1/2-y,-z
1/2+x,1/2-y,1/2+z
loop_
_atom_site_type_symbol
_atom_site_label
_atom_site_fract_x
_atom_site_fract_y
_atom_site_fract_z
Si Si1 0.382877 0.210621 0.020373
Si Si2 0.340638 0.336034 0.756873
Si Si3 0.395683 0.777609 0.803419
Si Si4 0.683291 0.004550 0.162727
Si Si5 0.717720 0.355569 0.100826
Si Si6 0.975768 0.049497 0.110476
O O1 0.493327 0.236041 0.104400
O O2 0.359400 0.218483 0.139730
O O3 0.335676 0.293742 0.889567
O O4 0.360211 0.089414 0.953321
O O5 0.281362 0.445786 0.696767
O O6 0.287389 0.246346 0.636213
O O7 0.449387 0.352650 0.821268
O O8 0.378099 0.890147 0.860137
O O9 0.339770 0.686076 0.829299
O O10 0.709531 0.949068 0.308092
O O11 0.630429 0.409539 0.963945
O O12 0.000000 0.981269 0.250000
O O13 0.000000 0.000000 0.000000
#
# Coordination Sequence:
#
# PCOD9280522 Si02
#       6
#     8   8   8   8   8   8
#     4  10  21  39  67  94 127 174 225 279 337 398
#     4  10  22  42  65  95 133 172 221 273 331 396
#     4  10  21  39  67  94 127 174 225 279 337 398
#     4  10  21  37  60  96 136 162 220 270 338 394
#     4  10  22  42  65  95 133 172 221 273 331 396
#     4  12  26  46  70 101 136 177 226 277 340 400
#
# _framework density 24.182137000000001
#
# number of rings (size 3 to 8) (size 9 to 14) (size 15 to 20)
#    0.000    1.667    3.333    0.500    0.000    9.333 
#    0.000    5.000    0.000    0.000    0.000    0.000 
#    0.000    0.000    0.000    0.000    0.000    0.000 
#
# Total GULP energy -134028.930139 kJ/mol
# GULP energy per Si atom -5584.538756 kJ/mol
# Density = 2.412710 g / cm^3
# Si number density = 24.182137 Si / 1000 Ang^3
#
#
#
# Elastic Constant Matrix: (Units=GPa)
#
#
# Indices 1 2 3 4 5 6 
#
# 1 63.2539 28.5258 24.3485 0.0000 9.0916 0.0000
# 2 28.5258 67.2612 19.2237 0.0000 -5.0250 0.0000
# 3 24.3485 19.2237 167.3776 0.0000 -8.1557 0.0000
# 4 0.0000 0.0000 0.0000 27.5827 0.0000 3.8881
# 5 9.0916 -5.0250 -8.1557 0.0000 39.2669 0.0000
# 6 0.0000 0.0000 0.0000 3.8881 0.0000 7.9286
#
#
#
# Elastic Compliance Matrix: (Units=1/GPa)
#
#
# Indices 1 2 3 4 5 6 
#
# 1 0.021800 -0.009044 -0.002460 0.000000 -0.006716 0.000000
# 2 -0.009044 0.019226 -0.000677 0.000000 0.004414 0.000000
# 3 -0.002460 -0.000677 0.006499 0.000000 0.001833 0.000000
# 4 0.000000 0.000000 0.000000 0.038947 0.000000 -0.019099
# 5 -0.006716 0.004414 0.001833 0.000000 0.027967 0.000000
# 6 0.000000 0.000000 0.000000 -0.019099 0.000000 0.135493
#
#
# Mechanical properties :
#
#
# Convention : Reuss Voigt Hill
#
# Bulk Modulus (GPa) = 43.17207 49.12096 46.14652
# Shear Modulus (GPa) = 17.72946 30.00861 23.86904
#
# Velocity S-wave (km/s) = 2.71064 3.52652 3.14515
# Velocity P-wave (km/s) = 5.26197 6.07773 5.68450
#
# Compressibility (1/GPa) = 0.02316312
#
# Stress axis : x y z
#
# Youngs Moduli (GPa) = 45.87136 52.01159 153.85921
#
# Poissons Ratio (x) = 0.47040 0.37845
# Poissons Ratio (y) = 0.41487 0.10424
# Poissons Ratio (z) = 0.11283 0.03524
#
# Static dielectric constant tensor:
#      x y z
#    x 1.957770 0.000000 -0.061600 
#    y 0.000000 1.941680 0.000000 
#    z -0.061600 0.000000 2.049950 
# 
# From -- ./inp_files/111773.got.cif
#   From: 2010.05.17/outbox.cif.g08.bks.cpg/sg15_56_cif.got.tgz:111773.got - 2010.06.03 18:47:42.
