data_PCOD9280568
_publ_section_title
;
Structure prediction by ZEFSAII (Michael W. Deem and Ramdas Pophale) SiO2 
 PCOD9280568
Probable space group: C 2/C
;
_chemical_formula_sum "Si O2"
_cell_formula_units_Z 44
_cell_length_a 26.666069
_cell_length_b 13.597288
_cell_length_c 16.608101
_cell_angle_alpha 90.000000
_cell_angle_beta 156.611384
_cell_angle_gamma 90.000000
_cell_volume 2390.474280
_symmetry_space_group_name_H-M "C 2/C"
_symmetry_group_IT_number 15
_symmetry_cell_setting 'monoclinic'
loop_
_space_group_symop_operation_xyz
x,y,z
-x,y,1/2-z
-x,-y,-z
x,-y,1/2+z
1/2+x,1/2+y,z
1/2-x,1/2+y,1/2-z
1/2-x,1/2-y,-z
1/2+x,1/2-y,1/2+z
loop_
_atom_site_type_symbol
_atom_site_label
_atom_site_fract_x
_atom_site_fract_y
_atom_site_fract_z
Si Si1 0.734187 0.381583 0.115709
Si Si2 0.117367 0.618547 0.331777
Si Si3 0.522458 0.093876 0.637052
Si Si4 0.737996 0.898523 0.844289
Si Si5 0.500000 0.757226 0.250000
Si Si6 0.849507 0.300849 0.448276
O O1 0.856569 0.375844 0.238077
O O2 0.695103 0.496045 0.059654
O O3 0.775403 0.347904 0.265163
O O4 0.622527 0.311260 0.923108
O O5 0.058909 0.509531 0.232755
O O6 0.214263 0.631864 0.401838
O O7 0.171045 0.637350 0.499641
O O8 0.998311 0.691488 0.148838
O O9 0.400152 0.083841 0.399664
O O10 0.492318 0.173550 0.660567
O O11 0.806932 0.810322 0.901028
#
# Coordination Sequence:
#
# PCOD9280568 Si02
#       6
#     8   8   8   8   4   8
#     4  11  23  40  58  90 120 150 195 243 289 343
#     4  10  21  37  61  89 115 153 198 235 280 356
#     4  11  21  40  65  83 113 159 201 235 279 348
#     4  11  21  39  62  85 120 154 189 246 289 338
#     4  12  24  38  62  86 120 154 192 244 296 332
#     4  11  20  35  62  89 113 149 200 236 286 341
#
# _framework density 18.406389000000001
#
# number of rings (size 3 to 8) (size 9 to 14) (size 15 to 20)
#    0.000    1.091    5.455    3.273    0.000    1.455 
#    0.000    0.000    0.000    6.545    0.000    0.000 
#    0.000    0.000    0.000    0.000    0.000    0.000 
#
# Total GULP energy -122924.410235 kJ/mol
# GULP energy per Si atom -5587.473192 kJ/mol
# Density = 1.836450 g / cm^3
# Si number density = 18.406389 Si / 1000 Ang^3
#
#
#
# Elastic Constant Matrix: (Units=GPa)
#
#
# Indices 1 2 3 4 5 6 
#
# 1 64.0212 40.8262 -5.5514 0.0000 -2.9842 0.0000
# 2 40.8262 101.5288 3.9408 0.0000 19.4368 0.0000
# 3 -5.5514 3.9408 31.3261 0.0000 2.2356 0.0000
# 4 0.0000 0.0000 0.0000 32.5022 0.0000 6.9325
# 5 -2.9842 19.4368 2.2356 0.0000 28.2316 0.0000
# 6 0.0000 0.0000 0.0000 6.9325 0.0000 37.4876
#
#
#
# Elastic Compliance Matrix: (Units=1/GPa)
#
#
# Indices 1 2 3 4 5 6 
#
# 1 0.024100 -0.011861 0.005027 0.000000 0.010315 0.000000
# 2 -0.011861 0.017206 -0.003350 0.000000 -0.012834 0.000000
# 3 0.005027 -0.003350 0.033220 0.000000 0.000208 0.000000
# 4 0.000000 0.000000 0.000000 0.032031 0.000000 -0.005923
# 5 0.010315 -0.012834 0.000208 0.000000 0.045331 0.000000
# 6 0.000000 0.000000 0.000000 -0.005923 0.000000 0.027771
#
#
# Mechanical properties :
#
#
# Convention : Reuss Voigt Hill
#
# Bulk Modulus (GPa) = 18.46495 30.58969 24.52732
# Shear Modulus (GPa) = 22.92735 30.15500 26.54118
#
# Velocity S-wave (km/s) = 3.53316 4.05197 3.80143
# Velocity P-wave (km/s) = 5.16700 6.20858 5.71158
#
# Compressibility (1/GPa) = 0.05415665
#
# Stress axis : x y z
#
# Youngs Moduli (GPa) = 41.49335 58.11939 30.10260
#
# Poissons Ratio (x) = 0.68935 -0.15132
# Poissons Ratio (y) = 0.49215 0.10086
# Poissons Ratio (z) = -0.20858 0.19473
#
# Static dielectric constant tensor:
#      x y z
#    x 1.633770 0.000000 -0.001090 
#    y 0.000000 1.625720 0.000000 
#    z -0.001090 0.000000 1.625000 
# 
# From -- ./inp_files/95043.got.cif
#   From: 2010.05.17/outbox.cif.g08.bks.cpg/sg15_48_cif.got.tgz:95043.got - 2010.06.03 18:47:42.
