data_PCOD9280973
_publ_section_title
;
Structure prediction by ZEFSAII (Michael W. Deem and Ramdas Pophale) SiO2 
 PCOD9280973
Probable space group: C 2/C
;
_chemical_formula_sum "Si O2"
_cell_formula_units_Z 60
_cell_length_a 5.269352
_cell_length_b 17.007188
_cell_length_c 30.052749
_cell_angle_alpha 90.000000
_cell_angle_beta 82.577899
_cell_angle_gamma 90.000000
_cell_volume 2670.667501
_symmetry_space_group_name_H-M "C 2/C"
_symmetry_group_IT_number 15
_symmetry_cell_setting 'monoclinic'
loop_
_space_group_symop_operation_xyz
x,y,z
-x,y,1/2-z
-x,-y,-z
x,-y,1/2+z
1/2+x,1/2+y,z
1/2-x,1/2+y,1/2-z
1/2-x,1/2-y,-z
1/2+x,1/2-y,1/2+z
loop_
_atom_site_type_symbol
_atom_site_label
_atom_site_fract_x
_atom_site_fract_y
_atom_site_fract_z
Si Si1 0.218117 0.830230 0.840045
Si Si2 0.676090 0.118318 0.008953
Si Si3 0.000336 0.814627 0.372813
Si Si4 0.500000 0.835494 0.750000
Si Si5 0.355096 0.787428 0.293576
Si Si6 0.092196 0.562919 0.916852
Si Si7 0.895420 0.036554 0.086806
Si Si8 0.916787 0.760873 0.039676
O O1 0.412852 0.772842 0.861215
O O2 0.349997 0.874124 0.794643
O O3 0.115786 0.892356 0.877759
O O4 0.025932 0.765929 0.822762
O O5 0.527699 0.082430 0.970264
O O6 0.858185 0.181080 0.980461
O O7 0.841930 0.064861 0.037541
O O8 0.505310 0.171593 0.045434
O O9 0.170743 0.841234 0.327475
O O10 0.172551 0.802020 0.413232
O O11 0.748341 0.866159 0.389169
O O12 0.304274 0.777432 0.729957
O O13 0.500000 0.830876 0.250000
O O14 0.325641 0.501014 0.915913
O O15 0.840914 0.524884 0.900274
O O16 0.750000 0.750000 0.000000
#
# Coordination Sequence:
#
# PCOD9280973 Si02
#       8
#     8   8   8   4   8   8   8   8
#     4  10  21  37  71  92 126 164 222 270 328 393
#     4  10  23  40  58  91 127 182 222 274 317 385
#     4  10  22  40  64  95 128 173 219 282 321 399
#     4   8  18  38  60 102 122 154 206 280 328 388
#     4   9  19  36  68 103 125 160 215 281 338 393
#     4  11  28  42  62  93 141 179 219 265 333 382
#     4  12  26  43  64  96 130 182 223 269 325 395
#     4  10  22  35  63  94 127 167 232 279 327 370
#
# _framework density 22.466294000000001
#
# number of rings (size 3 to 8) (size 9 to 14) (size 15 to 20)
#    0.000    1.867    1.333    0.800   13.067    0.000 
#    0.000    0.000    1.467    0.000    0.000    0.000 
#    0.000    0.000    0.000    0.000    0.000    0.000 
#
# Total GULP energy -167281.653614 kJ/mol
# GULP energy per Si atom -5576.055120 kJ/mol
# Density = 2.241516 g / cm^3
# Si number density = 22.466294 Si / 1000 Ang^3
#
#
#
# Elastic Constant Matrix: (Units=GPa)
#
#
# Indices 1 2 3 4 5 6 
#
# 1 42.9916 4.8376 10.5753 0.0000 4.8943 0.0000
# 2 4.8376 59.7831 29.6457 0.0000 -13.1518 0.0000
# 3 10.5753 29.6457 119.2308 0.0000 -11.7354 0.0000
# 4 0.0000 0.0000 0.0000 19.9422 0.0000 0.9263
# 5 4.8943 -13.1518 -11.7354 0.0000 43.6852 0.0000
# 6 0.0000 0.0000 0.0000 0.9263 0.0000 22.2773
#
#
#
# Elastic Compliance Matrix: (Units=1/GPa)
#
#
# Indices 1 2 3 4 5 6 
#
# 1 0.024414 -0.001777 -0.002101 0.000000 -0.003835 0.000000
# 2 -0.001777 0.020150 -0.004351 0.000000 0.005097 0.000000
# 3 -0.002101 -0.004351 0.009809 0.000000 0.001561 0.000000
# 4 0.000000 0.000000 0.000000 0.050242 0.000000 -0.002089
# 5 -0.003835 0.005097 0.001561 0.000000 0.025274 0.000000
# 6 0.000000 0.000000 0.000000 -0.002089 0.000000 0.044976
#
#
# Mechanical properties :
#
#
# Convention : Reuss Voigt Hill
#
# Bulk Modulus (GPa) = 26.37532 34.68028 30.52780
# Shear Modulus (GPa) = 24.51459 28.97738 26.74599
#
# Velocity S-wave (km/s) = 3.30687 3.59530 3.45410
# Velocity P-wave (km/s) = 5.13283 5.71883 5.43374
#
# Compressibility (1/GPa) = 0.03791422
#
# Stress axis : x y z
#
# Youngs Moduli (GPa) = 40.96059 49.62864 101.94908
#
# Poissons Ratio (x) = 0.08820 0.21419
# Poissons Ratio (y) = 0.07280 0.44356
# Poissons Ratio (z) = 0.08605 0.21592
#
# Static dielectric constant tensor:
#      x y z
#    x 1.967530 0.000000 0.008960 
#    y 0.000000 1.853940 0.000000 
#    z 0.008960 0.000000 1.954990 
# 
# From -- ./inp_files/286082.got.cif
#   From: 2010.05.17/outbox.cif.g08.bks.cpg/sg15_144_cif.got.tgz:286082.got - 2010.06.03 18:47:42.
