data_PCOD9280060
_publ_section_title
;
Structure prediction by ZEFSAII (Michael W. Deem and Ramdas Pophale) SiO2 
 PCOD9280060
Probable space group: C 2/C
;
_chemical_formula_sum "Si O2"
_cell_formula_units_Z 52
_cell_length_a 28.755292
_cell_length_b 5.447204
_cell_length_c 19.188519
_cell_angle_alpha 90.000000
_cell_angle_beta 124.424975
_cell_angle_gamma 90.000000
_cell_volume 2479.230400
_symmetry_space_group_name_H-M "C 2/C"
_symmetry_group_IT_number 15
_symmetry_cell_setting 'monoclinic'
loop_
_space_group_symop_operation_xyz
x,y,z
-x,y,1/2-z
-x,-y,-z
x,-y,1/2+z
1/2+x,1/2+y,z
1/2-x,1/2+y,1/2-z
1/2-x,1/2-y,-z
1/2+x,1/2-y,1/2+z
loop_
_atom_site_type_symbol
_atom_site_label
_atom_site_fract_x
_atom_site_fract_y
_atom_site_fract_z
Si Si1 0.398357 0.195652 0.682890
Si Si2 0.500000 0.159674 0.250000
Si Si3 0.683788 0.803819 0.867552
Si Si4 0.627588 0.319909 0.990891
Si Si5 0.035884 0.750120 0.027751
Si Si6 0.808330 0.696180 0.959729
Si Si7 0.072414 0.909949 0.203104
O O1 0.388618 0.349830 0.604400
O O2 0.427115 0.303193 0.777016
O O3 0.443524 0.997402 0.692762
O O4 0.338296 0.083967 0.654326
O O5 0.517044 0.316352 0.197151
O O6 0.743092 0.734626 0.884013
O O7 0.631039 0.662241 0.790146
O O8 0.689418 0.763040 0.954860
O O9 0.573602 0.257737 0.991165
O O10 0.655087 0.576997 0.038897
O O11 0.668120 0.079040 0.031967
O O12 0.073038 0.788966 0.128664
O O13 0.000000 0.500000 0.000000
O O14 0.000000 0.000000 0.000000
#
# Coordination Sequence:
#
# PCOD9280060 Si02
#       7
#     8   4   8   8   8   8   8
#     4  10  21  36  64  93 128 165 220 273 324 385
#     4  10  22  36  60  92 126 162 222 276 320 382
#     4   9  21  37  65  98 129 161 218 270 329 378
#     4  11  23  42  63  95 131 173 215 267 327 392
#     4  12  29  46  66  92 136 180 218 269 332 398
#     4  10  21  40  67  97 130 169 210 272 330 383
#     4  11  23  40  64  94 126 175 221 271 326 395
#
# _framework density 20.974252
#
# number of rings (size 3 to 8) (size 9 to 14) (size 15 to 20)
#    0.000    1.538    1.538    2.308   10.769    1.846 
#    0.000    1.538    0.000    0.000    0.000    0.000 
#    0.000    0.000    0.000    0.000    0.000    0.000 
#
# Total GULP energy -144889.351501 kJ/mol
# GULP energy per Si atom -5572.667365 kJ/mol
# Density = 2.092651 g / cm^3
# Si number density = 20.974252 Si / 1000 Ang^3
#
#
#
# Elastic Constant Matrix: (Units=GPa)
#
#
# Indices 1 2 3 4 5 6 
#
# 1 58.5401 34.0446 15.1014 0.0005 8.7171 0.0000
# 2 34.0446 90.5464 27.3035 -0.0027 5.2428 -0.0025
# 3 15.1014 27.3035 67.5943 -0.0012 6.6804 -0.0003
# 4 0.0005 -0.0027 -0.0012 11.6060 -0.0001 -3.2500
# 5 8.7171 5.2428 6.6804 -0.0001 29.5154 0.0000
# 6 0.0000 -0.0025 -0.0003 -3.2500 0.0000 17.4566
#
#
#
# Elastic Compliance Matrix: (Units=1/GPa)
#
#
# Indices 1 2 3 4 5 6 
#
# 1 0.022752 -0.007835 -0.001423 -0.000004 -0.005006 -0.000002
# 2 -0.007835 0.015310 -0.004494 0.000004 0.000612 0.000003
# 3 -0.001423 -0.004494 0.017192 0.000001 -0.002672 0.000000
# 4 -0.000004 0.000004 0.000001 0.090902 0.000000 0.016924
# 5 -0.005006 0.000612 -0.002672 0.000000 0.035855 0.000000
# 6 -0.000002 0.000003 0.000000 0.016924 0.000000 0.060436
#
#
# Mechanical properties :
#
#
# Convention : Reuss Voigt Hill
#
# Bulk Modulus (GPa) = 36.03935 41.06441 38.55188
# Shear Modulus (GPa) = 17.90830 21.06435 19.48632
#
# Velocity S-wave (km/s) = 2.92519 3.17250 3.05135
# Velocity P-wave (km/s) = 5.35061 5.74810 5.55291
#
# Compressibility (1/GPa) = 0.02774745
#
# Stress axis : x y z
#
# Youngs Moduli (GPa) = 43.95298 65.31762 58.16811
#
# Poissons Ratio (x) = 0.51179 0.08279
# Poissons Ratio (y) = 0.34439 0.26141
# Poissons Ratio (z) = 0.06256 0.29354
#
# Static dielectric constant tensor:
#      x y z
#    x 1.707150 0.000000 0.029320 
#    y 0.000000 2.082900 0.000000 
#    z 0.029320 0.000000 1.791340 
# 
# From -- ./inp_files/221339.got.cif
#   From: 2010.05.17/outbox.cif.g08.bks.cpg/sg15_111_cif.got.tgz:221339.got - 2010.06.03 18:47:42.
