data_PCOD9280245
_publ_section_title
;
Structure prediction by ZEFSAII (Michael W. Deem and Ramdas Pophale) SiO2 
 PCOD9280245
Probable space group: C 2/C
;
_chemical_formula_sum "Si O2"
_cell_formula_units_Z 36
_cell_length_a 23.233498
_cell_length_b 20.196945
_cell_length_c 13.627444
_cell_angle_alpha 90.000000
_cell_angle_beta 15.950223
_cell_angle_gamma 90.000000
_cell_volume 1757.255015
_symmetry_space_group_name_H-M "C 2/C"
_symmetry_group_IT_number 15
_symmetry_cell_setting 'monoclinic'
loop_
_space_group_symop_operation_xyz
x,y,z
-x,y,1/2-z
-x,-y,-z
x,-y,1/2+z
1/2+x,1/2+y,z
1/2-x,1/2+y,1/2-z
1/2-x,1/2-y,-z
1/2+x,1/2-y,1/2+z
loop_
_atom_site_type_symbol
_atom_site_label
_atom_site_fract_x
_atom_site_fract_y
_atom_site_fract_z
Si Si1 0.795126 0.250761 0.280978
Si Si2 0.836128 0.952784 0.214640
Si Si3 0.500000 0.127407 0.750000
Si Si4 0.958024 0.495862 0.454566
Si Si5 0.932595 0.803066 0.017684
O O1 0.695920 0.176983 0.435069
O O2 0.635086 0.290424 0.615154
O O3 0.766925 0.282457 0.220590
O O4 0.015570 0.242853 0.973614
O O5 0.763231 0.980130 0.227517
O O6 0.631087 0.958159 0.618738
O O7 0.915752 0.878843 0.074044
O O8 0.000000 0.000000 0.000000
O O9 0.508793 0.078065 0.643122
O O10 0.000000 0.500000 0.500000
#
# Coordination Sequence:
#
# PCOD9280245 Si02
#       5
#     8   8   4   8   8
#     4   9  18  30  56  81 106 144 187 241 276 336
#     4  10  21  37  57  83 117 149 188 241 285 344
#     4   8  16  34  52  78 110 140 188 228 276 334
#     4  10  22  36  57  85 117 154 189 238 291 346
#     4   9  17  31  50  81 108 140 189 229 284 331
#
# _framework density 20.486497
#
# number of rings (size 3 to 8) (size 9 to 14) (size 15 to 20)
#    0.000    3.111    0.000    2.667    0.000   11.556 
#    0.000    0.000    0.000   21.333    0.000    0.000 
#    0.000    0.000    0.000    0.000    0.000    0.000 
#
# Total GULP energy -100353.886729 kJ/mol
# GULP energy per Si atom -5575.215929 kJ/mol
# Density = 2.043987 g / cm^3
# Si number density = 20.486497 Si / 1000 Ang^3
#
#
#
# Elastic Constant Matrix: (Units=GPa)
#
#
# Indices 1 2 3 4 5 6 
#
# 1 198.8495 57.9769 42.8921 -0.0023 -34.5875 -0.0005
# 2 57.9769 143.4797 29.0325 -0.0161 -2.3688 0.0065
# 3 42.8921 29.0325 32.1921 -0.0167 -17.3670 0.0254
# 4 -0.0023 -0.0161 -0.0167 21.3827 0.0084 -0.6740
# 5 -34.5875 -2.3688 -17.3670 0.0084 31.6321 0.0016
# 6 -0.0005 0.0065 0.0254 -0.6740 0.0016 15.7112
#
#
#
# Elastic Compliance Matrix: (Units=1/GPa)
#
#
# Indices 1 2 3 4 5 6 
#
# 1 0.007718 -0.001844 -0.005885 -0.000007 0.005070 0.000010
# 2 -0.001844 0.009585 -0.009786 0.000002 -0.006672 0.000013
# 3 -0.005885 -0.009786 0.062323 0.000027 0.027050 -0.000098
# 4 -0.000007 0.000002 0.000027 0.046830 -0.000005 0.002009
# 5 0.005070 -0.006672 0.027050 -0.000005 0.051508 -0.000046
# 6 0.000010 0.000013 -0.000098 0.002009 -0.000046 0.063735
#
#
# Mechanical properties :
#
#
# Convention : Reuss Voigt Hill
#
# Bulk Modulus (GPa) = 22.42393 70.48048 46.45220
# Shear Modulus (GPa) = 17.14706 30.05320 23.60013
#
# Velocity S-wave (km/s) = 2.89622 3.83427 3.39777
# Velocity P-wave (km/s) = 4.70676 7.35392 6.17389
#
# Compressibility (1/GPa) = 0.04459522
#
# Stress axis : x y z
#
# Youngs Moduli (GPa) = 129.57033 104.33130 16.04539
#
# Poissons Ratio (x) = 0.19240 0.09443
# Poissons Ratio (y) = 0.23894 0.15702
# Poissons Ratio (z) = 0.76251 1.02102
#
# Static dielectric constant tensor:
#      x y z
#    x 1.815330 -0.000010 -0.025320 
#    y -0.000010 1.697870 0.000020 
#    z -0.025320 0.000020 1.778430 
# 
# From -- ./inp_files/173963.got.cif
#   From: 2010.05.17/outbox.cif.g08.bks.cpg/sg15_87_cif.got.tgz:173963.got - 2010.06.03 18:47:42.
