data_PCOD9280587
_publ_section_title
;
Structure prediction by ZEFSAII (Michael W. Deem and Ramdas Pophale) SiO2 
 PCOD9280587
Probable space group: C 2/C
;
_chemical_formula_sum "Si O2"
_cell_formula_units_Z 32
_cell_length_a 11.617217
_cell_length_b 8.445551
_cell_length_c 23.101747
_cell_angle_alpha 90.000000
_cell_angle_beta 149.018837
_cell_angle_gamma 90.000000
_cell_volume 1166.746569
_symmetry_space_group_name_H-M "C 2/C"
_symmetry_group_IT_number 15
_symmetry_cell_setting 'monoclinic'
loop_
_space_group_symop_operation_xyz
x,y,z
-x,y,1/2-z
-x,-y,-z
x,-y,1/2+z
1/2+x,1/2+y,z
1/2-x,1/2+y,1/2-z
1/2-x,1/2-y,-z
1/2+x,1/2-y,1/2+z
loop_
_atom_site_type_symbol
_atom_site_label
_atom_site_fract_x
_atom_site_fract_y
_atom_site_fract_z
Si Si1 0.545099 0.736987 0.503391
Si Si2 0.844129 0.552743 0.134375
Si Si3 0.631838 0.739790 0.677732
Si Si4 0.951373 0.074734 0.160148
O O1 0.283788 0.696486 0.386616
O O2 0.669905 0.576743 0.537373
O O3 0.577920 0.741597 0.586792
O O4 0.689049 0.881899 0.540883
O O5 0.000000 0.474830 0.250000
O O6 0.989591 0.623183 0.146547
O O7 0.893580 0.781642 0.796806
O O8 0.544133 0.579389 0.668521
O O9 0.000000 0.060565 0.250000
#
# Coordination Sequence:
#
# PCOD9280587 Si02
#       4
#     8   8   8   8
#     4  10  23  41  60  87 122 155 195 245 293 347
#     4  11  22  41  63  86 120 157 196 245 295 347
#     4  11  21  39  64  89 121 158 195 241 296 348
#     4  10  21  37  61  91 121 155 196 240 289 349
#
# _framework density 27.426693
#
# number of rings (size 3 to 8) (size 9 to 14) (size 15 to 20)
#    0.000    1.500    0.000    6.750    0.000    1.000 
#    0.000   16.250    0.000    0.000    0.000    0.000 
#    0.000    0.000    0.000    0.000    0.000    0.000 
#
# Total GULP energy -89790.074985 kJ/mol
# GULP energy per Si atom -5611.879687 kJ/mol
# Density = 2.736427 g / cm^3
# Si number density = 27.426693 Si / 1000 Ang^3
#
#
#
# Elastic Constant Matrix: (Units=GPa)
#
#
# Indices 1 2 3 4 5 6 
#
# 1 158.3406 64.2429 24.4999 0.0000 29.5484 0.0000
# 2 64.2429 111.1151 12.5941 0.0000 13.7522 0.0000
# 3 24.4999 12.5941 77.4821 0.0002 25.5215 -0.0001
# 4 0.0000 0.0000 0.0002 39.0945 -0.0001 24.9023
# 5 29.5484 13.7522 25.5215 -0.0001 40.0185 0.0000
# 6 0.0000 0.0000 -0.0001 24.9023 0.0000 72.6044
#
#
#
# Elastic Compliance Matrix: (Units=1/GPa)
#
#
# Indices 1 2 3 4 5 6 
#
# 1 0.009191 -0.004653 -0.000559 0.000000 -0.004831 0.000000
# 2 -0.004653 0.011776 -0.000306 0.000000 -0.000416 0.000000
# 3 -0.000559 -0.000306 0.016409 0.000000 -0.009947 0.000000
# 4 0.000000 0.000000 0.000000 0.032730 0.000000 -0.011226
# 5 -0.004831 -0.000416 -0.009947 0.000000 0.035043 0.000000
# 6 0.000000 0.000000 0.000000 -0.011226 0.000000 0.017624
#
#
# Mechanical properties :
#
#
# Convention : Reuss Voigt Hill
#
# Bulk Modulus (GPa) = 37.96241 61.06797 49.51519
# Shear Modulus (GPa) = 35.06633 46.71688 40.89160
#
# Velocity S-wave (km/s) = 3.57956 4.13163 3.86546
# Velocity P-wave (km/s) = 5.56379 6.71377 6.16565
#
# Compressibility (1/GPa) = 0.02634185
#
# Stress axis : x y z
#
# Youngs Moduli (GPa) = 108.79852 84.91888 60.94217
#
# Poissons Ratio (x) = 0.39511 0.03404
# Poissons Ratio (y) = 0.50622 0.01863
# Poissons Ratio (z) = 0.06078 0.02596
#
# Static dielectric constant tensor:
#      x y z
#    x 2.094880 0.000000 -0.020010 
#    y 0.000000 2.162500 0.000000 
#    z -0.020010 0.000000 2.177230 
# 
# From -- ./inp_files/194988.got.cif
#   From: 2010.05.17/outbox.cif.g08.bks.cpg/sg15_98_cif.got.tgz:194988.got - 2010.06.03 18:47:42.
