data_PCOD9280470
_publ_section_title
;
Structure prediction by ZEFSAII (Michael W. Deem and Ramdas Pophale) SiO2 
 PCOD9280470
Probable space group: C 2/C
;
_chemical_formula_sum "Si O2"
_cell_formula_units_Z 40
_cell_length_a 4.997754
_cell_length_b 23.410995
_cell_length_c 15.177511
_cell_angle_alpha 90.000000
_cell_angle_beta 86.722177
_cell_angle_gamma 90.000000
_cell_volume 1772.899944
_symmetry_space_group_name_H-M "C 2/C"
_symmetry_group_IT_number 15
_symmetry_cell_setting 'monoclinic'
loop_
_space_group_symop_operation_xyz
x,y,z
-x,y,1/2-z
-x,-y,-z
x,-y,1/2+z
1/2+x,1/2+y,z
1/2-x,1/2+y,1/2-z
1/2-x,1/2-y,-z
1/2+x,1/2-y,1/2+z
loop_
_atom_site_type_symbol
_atom_site_label
_atom_site_fract_x
_atom_site_fract_y
_atom_site_fract_z
Si Si1 0.323712 0.543598 0.079734
Si Si2 0.219257 0.721265 0.809680
Si Si3 0.424749 0.192179 0.983287
Si Si4 0.835603 0.568491 0.963949
Si Si5 0.815384 0.343066 0.837247
O O1 0.627127 0.546822 0.041728
O O2 0.304312 0.594804 0.148488
O O3 0.128933 0.561925 0.001405
O O4 0.222320 0.480303 0.107813
O O5 0.500000 0.718533 0.750000
O O6 0.135060 0.787551 0.826440
O O7 0.000000 0.693573 0.750000
O O8 0.173434 0.699008 0.910048
O O9 0.277005 0.135130 0.948962
O O10 0.522489 0.173980 0.077904
O O11 0.250000 0.250000 0.000000
O O12 0.000000 0.345646 0.750000
#
# Coordination Sequence:
#
# PCOD9280470 Si02
#       5
#     8   8   8   8   8
#     4   9  18  35  55  81 112 148 189 243 297 344
#     4  11  24  40  58  88 126 162 205 256 310 373
#     4  11  21  38  64  92 125 165 206 251 313 374
#     4   9  19  34  57  82 111 149 194 237 290 357
#     4  10  21  37  60  89 119 154 203 254 302 362
#
# _framework density 22.561902
#
# number of rings (size 3 to 8) (size 9 to 14) (size 15 to 20)
#    0.000    2.000    0.000    4.200    0.000    8.000 
#    0.000    1.000    0.000    0.000    0.000    5.600 
#    0.000    0.000    0.000    0.000    0.000    0.000 
#
# Total GULP energy -111375.523639 kJ/mol
# GULP energy per Si atom -5568.776182 kJ/mol
# Density = 2.251055 g / cm^3
# Si number density = 22.561902 Si / 1000 Ang^3
#
#
#
# Elastic Constant Matrix: (Units=GPa)
#
#
# Indices 1 2 3 4 5 6 
#
# 1 76.5475 20.0560 31.5442 0.0000 -12.8836 0.0000
# 2 20.0560 165.3734 27.1283 0.0000 -13.2305 0.0000
# 3 31.5442 27.1283 128.6097 0.0000 -18.8308 0.0000
# 4 0.0000 0.0000 0.0000 31.5708 0.0000 -6.9734
# 5 -12.8836 -13.2305 -18.8308 0.0000 22.5840 0.0000
# 6 0.0000 0.0000 0.0000 -6.9734 0.0000 32.1844
#
#
#
# Elastic Compliance Matrix: (Units=1/GPa)
#
#
# Indices 1 2 3 4 5 6 
#
# 1 0.015437 -0.000948 -0.002709 0.000000 0.005992 0.000000
# 2 -0.000948 0.006496 -0.000751 0.000000 0.002638 0.000000
# 3 -0.002709 -0.000751 0.009463 0.000000 0.005905 0.000000
# 4 0.000000 0.000000 0.000000 0.033267 0.000000 0.007208
# 5 0.005992 0.002638 0.005905 0.000000 0.054167 0.000000
# 6 0.000000 0.000000 0.000000 0.007208 0.000000 0.032633
#
#
# Mechanical properties :
#
#
# Convention : Reuss Voigt Hill
#
# Bulk Modulus (GPa) = 44.28895 58.66529 51.47712
# Shear Modulus (GPa) = 29.79628 36.72130 33.25879
#
# Velocity S-wave (km/s) = 3.63801 4.03870 3.84358
# Velocity P-wave (km/s) = 6.10896 6.91423 6.52403
#
# Compressibility (1/GPa) = 0.02257899
#
# Stress axis : x y z
#
# Youngs Moduli (GPa) = 64.77909 153.93457 105.67550
#
# Poissons Ratio (x) = 0.14599 0.28626
# Poissons Ratio (y) = 0.06144 0.07940
# Poissons Ratio (z) = 0.17548 0.11567
#
# Static dielectric constant tensor:
#      x y z
#    x 1.905060 0.000000 -0.016430 
#    y 0.000000 2.031560 0.000000 
#    z -0.016430 0.000000 1.911490 
# 
# From -- ./inp_files/129048.got.cif
#   From: 2010.05.17/outbox.cif.g08.bks.cpg/sg15_65_cif.got.tgz:129048.got - 2010.06.03 18:47:42.
