data_PCOD9280076
_publ_section_title
;
Structure prediction by ZEFSAII (Michael W. Deem and Ramdas Pophale) SiO2 
 PCOD9280076
Probable space group: C 2/C
;
_chemical_formula_sum "Si O2"
_cell_formula_units_Z 64
_cell_length_a 11.656139
_cell_length_b 18.050300
_cell_length_c 29.247019
_cell_angle_alpha 90.000000
_cell_angle_beta 146.529921
_cell_angle_gamma 90.000000
_cell_volume 3393.652726
_symmetry_space_group_name_H-M "C 2/C"
_symmetry_group_IT_number 15
_symmetry_cell_setting 'monoclinic'
loop_
_space_group_symop_operation_xyz
x,y,z
-x,y,1/2-z
-x,-y,-z
x,-y,1/2+z
1/2+x,1/2+y,z
1/2-x,1/2+y,1/2-z
1/2-x,1/2-y,-z
1/2+x,1/2-y,1/2+z
loop_
_atom_site_type_symbol
_atom_site_label
_atom_site_fract_x
_atom_site_fract_y
_atom_site_fract_z
Si Si1 0.269304 0.829110 0.033211
Si Si2 0.333105 0.482896 0.620372
Si Si3 0.518867 0.932502 0.855569
Si Si4 0.291853 0.540963 0.800814
Si Si5 0.468799 0.188835 0.793783
Si Si6 0.591013 0.551912 0.070472
Si Si7 0.508551 0.040024 0.932380
Si Si8 0.380347 0.651854 0.258390
O O1 0.329883 0.822531 0.107123
O O2 0.461186 0.877065 0.076012
O O3 0.250000 0.750000 0.000000
O O4 0.069855 0.885061 0.965018
O O5 0.489401 0.543295 0.652630
O O6 0.154248 0.465575 0.524814
O O7 0.478400 0.410540 0.670939
O O8 0.220020 0.511273 0.628770
O O9 0.709043 0.909206 0.886800
O O10 0.359368 0.872658 0.822938
O O11 0.371376 0.984906 0.776299
O O12 0.592196 0.983774 0.921856
O O13 0.185097 0.619666 0.757564
O O14 0.337737 0.504999 0.865764
O O15 0.500000 0.196737 0.750000
O O16 0.385072 0.267961 0.782779
O O17 0.500000 0.500000 0.000000
O O18 0.500000 0.655358 0.250000
#
# Coordination Sequence:
#
# PCOD9280076 Si02
#       8
#     8   8   8   8   8   8   8   8
#     4  12  25  43  64  97 136 173 217 273 340 388
#     4  10  21  36  65  87 123 160 211 258 311 381
#     4  11  21  37  64  90 119 158 220 261 309 386
#     4  11  21  38  62  93 122 164 212 260 318 379
#     4  11  23  40  64  92 129 167 212 266 328 399
#     4  12  22  40  68  93 125 170 215 270 323 392
#     4  11  20  39  62  94 117 166 215 260 312 389
#     4  10  21  38  61  87 122 164 203 254 322 375
#
# _framework density 18.858737000000001
#
# number of rings (size 3 to 8) (size 9 to 14) (size 15 to 20)
#    0.000    1.000    5.000    2.625    1.750    0.000 
#    2.250    0.000    0.000    3.000    0.000    0.000 
#    0.000    0.000    0.000    0.000    0.000    0.000 
#
# Total GULP energy -178212.299188 kJ/mol
# GULP energy per Si atom -5569.134350 kJ/mol
# Density = 1.881581 g / cm^3
# Si number density = 18.858737 Si / 1000 Ang^3
#
#
#
# Elastic Constant Matrix: (Units=GPa)
#
#
# Indices 1 2 3 4 5 6 
#
# 1 93.8250 22.1612 16.6473 0.0000 12.0431 0.0000
# 2 22.1612 95.0427 19.9523 0.0000 5.6856 0.0000
# 3 16.6473 19.9523 33.5681 -0.0006 -8.0440 -0.0004
# 4 0.0000 0.0000 -0.0006 30.8718 -0.0001 1.1600
# 5 12.0431 5.6856 -8.0440 -0.0001 34.8957 -0.0001
# 6 0.0000 0.0000 -0.0004 1.1600 -0.0001 15.5300
#
#
#
# Elastic Compliance Matrix: (Units=1/GPa)
#
#
# Indices 1 2 3 4 5 6 
#
# 1 0.012965 -0.001165 -0.007160 0.000000 -0.005935 0.000000
# 2 -0.001165 0.012627 -0.007752 0.000000 -0.003442 0.000000
# 3 -0.007160 -0.007752 0.041114 0.000001 0.013212 0.000001
# 4 0.000000 0.000000 0.000001 0.032483 0.000000 -0.002426
# 5 -0.005935 -0.003442 0.013212 0.000000 0.034311 0.000000
# 6 0.000000 0.000000 0.000001 -0.002426 0.000000 0.064573
#
#
# Mechanical properties :
#
#
# Convention : Reuss Voigt Hill
#
# Bulk Modulus (GPa) = 28.94121 37.77306 33.35713
# Shear Modulus (GPa) = 20.68292 27.17116 23.92704
#
# Velocity S-wave (km/s) = 3.31528 3.79987 3.56582
# Velocity P-wave (km/s) = 5.48037 6.27096 5.88895
#
# Compressibility (1/GPa) = 0.03455281
#
# Stress axis : x y z
#
# Youngs Moduli (GPa) = 77.12781 79.19812 24.32234
#
# Poissons Ratio (x) = 0.09227 0.17414
# Poissons Ratio (y) = 0.08986 0.18855
# Poissons Ratio (z) = 0.55221 0.61395
#
# Static dielectric constant tensor:
#      x y z
#    x 1.463000 0.000000 0.071610 
#    y 0.000000 1.840380 0.000000 
#    z 0.071610 0.000000 1.663570 
# 
# From -- ./inp_files/311653.got.cif
#   From: 2010.05.17/outbox.cif.g08.bks.cpg/sg15_156_cif.got.tgz:311653.got - 2010.06.03 18:47:42.
