data_PCOD9280498
_publ_section_title
;
Structure prediction by ZEFSAII (Michael W. Deem and Ramdas Pophale) SiO2 
 PCOD9280498
Probable space group: C 2/C
;
_chemical_formula_sum "Si O2"
_cell_formula_units_Z 44
_cell_length_a 11.508563
_cell_length_b 9.459596
_cell_length_c 21.478047
_cell_angle_alpha 90.000000
_cell_angle_beta 48.132924
_cell_angle_gamma 90.000000
_cell_volume 1741.273620
_symmetry_space_group_name_H-M "C 2/C"
_symmetry_group_IT_number 15
_symmetry_cell_setting 'monoclinic'
loop_
_space_group_symop_operation_xyz
x,y,z
-x,y,1/2-z
-x,-y,-z
x,-y,1/2+z
1/2+x,1/2+y,z
1/2-x,1/2+y,1/2-z
1/2-x,1/2-y,-z
1/2+x,1/2-y,1/2+z
loop_
_atom_site_type_symbol
_atom_site_label
_atom_site_fract_x
_atom_site_fract_y
_atom_site_fract_z
Si Si1 0.500000 0.103120 0.250000
Si Si2 0.072911 0.199089 0.566646
Si Si3 0.866770 0.678085 0.909917
Si Si4 0.043749 0.944688 0.821363
Si Si5 0.121007 0.474377 0.836094
Si Si6 0.191073 0.919000 0.904759
O O1 0.416890 0.016811 0.224647
O O2 0.649302 0.173951 0.163813
O O3 0.250000 0.250000 0.500000
O O4 0.947461 0.323694 0.618348
O O5 0.067384 0.131572 0.499843
O O6 0.053053 0.083674 0.627738
O O7 0.771372 0.562416 0.903558
O O8 0.946237 0.804218 0.842120
O O9 0.004367 0.596975 0.899755
O O10 0.750000 0.750000 0.000000
O O11 0.192892 0.978716 0.724585
O O12 0.113311 0.917805 0.865605
#
# Coordination Sequence:
#
# PCOD9280498 Si02
#       6
#     4   8   8   8   8   8
#     4   8  16  34  58  84 118 156 198 242 302 362
#     4  12  20  37  63  92 124 157 205 258 314 365
#     4  11  20  37  62  89 121 158 209 254 309 371
#     4  11  23  39  65  90 121 166 213 250 312 379
#     4  10  21  37  60  92 122 164 204 257 307 371
#     4  10  21  38  63  91 120 161 210 252 308 375
#
# _framework density 25.268861000000001
#
# number of rings (size 3 to 8) (size 9 to 14) (size 15 to 20)
#    0.000    1.455    5.455    1.636    0.000    0.000 
#    0.000    0.909    4.000    6.545    0.000    0.000 
#    0.000    0.000    0.000    0.000    0.000    0.000 
#
# Total GULP energy -122790.940514 kJ/mol
# GULP energy per Si atom -5581.406387 kJ/mol
# Density = 2.521135 g / cm^3
# Si number density = 25.268861 Si / 1000 Ang^3
#
#
#
# Elastic Constant Matrix: (Units=GPa)
#
#
# Indices 1 2 3 4 5 6 
#
# 1 49.8642 25.1915 18.5828 0.0000 -1.3909 0.0000
# 2 25.1915 155.3710 70.4073 0.0000 -15.8404 0.0000
# 3 18.5828 70.4073 154.5278 0.0000 -32.7959 0.0000
# 4 0.0000 0.0000 0.0000 43.4298 0.0000 -12.6425
# 5 -1.3909 -15.8404 -32.7959 0.0000 42.2309 0.0000
# 6 0.0000 0.0000 0.0000 -12.6425 0.0000 27.3325
#
#
#
# Elastic Compliance Matrix: (Units=1/GPa)
#
#
# Indices 1 2 3 4 5 6 
#
# 1 0.022145 -0.003016 -0.001645 0.000000 -0.001680 0.000000
# 2 -0.003016 0.008523 -0.003428 0.000000 0.000435 0.000000
# 3 -0.001645 -0.003428 0.009515 0.000000 0.006049 0.000000
# 4 0.000000 0.000000 0.000000 0.026608 0.000000 0.012308
# 5 -0.001680 0.000435 0.006049 0.000000 0.028485 0.000000
# 6 0.000000 0.000000 0.000000 0.012308 0.000000 0.042279
#
#
# Mechanical properties :
#
#
# Convention : Reuss Voigt Hill
#
# Bulk Modulus (GPa) = 41.66090 65.34736 53.50413
# Shear Modulus (GPa) = 30.91459 38.97072 34.94266
#
# Velocity S-wave (km/s) = 3.50155 3.93140 3.72268
# Velocity P-wave (km/s) = 5.73329 6.82091 6.30061
#
# Compressibility (1/GPa) = 0.02400332
#
# Stress axis : x y z
#
# Youngs Moduli (GPa) = 45.15788 117.32712 105.09669
#
# Poissons Ratio (x) = 0.35388 0.17291
# Poissons Ratio (y) = 0.13620 0.36031
# Poissons Ratio (z) = 0.07430 0.40224
#
# Static dielectric constant tensor:
#      x y z
#    x 2.083160 0.000000 -0.008060 
#    y 0.000000 2.235120 0.000000 
#    z -0.008060 0.000000 2.052810 
# 
# From -- ./inp_files/295006.got.cif
#   From: 2010.05.17/outbox.cif.g08.bks.cpg/sg15_148_cif.got.tgz:295006.got - 2010.06.03 18:47:42.
