data_PCOD9280519
_publ_section_title
;
Structure prediction by ZEFSAII (Michael W. Deem and Ramdas Pophale) SiO2 
 PCOD9280519
Probable space group: C 2/C
;
_chemical_formula_sum "Si O2"
_cell_formula_units_Z 40
_cell_length_a 17.139460
_cell_length_b 12.433665
_cell_length_c 14.636708
_cell_angle_alpha 90.000000
_cell_angle_beta 147.455570
_cell_angle_gamma 90.000000
_cell_volume 1677.970828
_symmetry_space_group_name_H-M "C 2/C"
_symmetry_group_IT_number 15
_symmetry_cell_setting 'monoclinic'
loop_
_space_group_symop_operation_xyz
x,y,z
-x,y,1/2-z
-x,-y,-z
x,-y,1/2+z
1/2+x,1/2+y,z
1/2-x,1/2+y,1/2-z
1/2-x,1/2-y,-z
1/2+x,1/2-y,1/2+z
loop_
_atom_site_type_symbol
_atom_site_label
_atom_site_fract_x
_atom_site_fract_y
_atom_site_fract_z
Si Si1 0.234308 0.496785 0.105259
Si Si2 0.288689 0.388625 0.481950
Si Si3 0.000000 0.275125 0.250000
Si Si4 0.443261 0.692224 0.790238
Si Si5 0.000000 0.602235 0.250000
Si Si6 0.639978 0.562839 0.096553
O O1 0.310909 0.380625 0.191859
O O2 0.241722 0.561674 0.206454
O O3 0.318421 0.567311 0.113413
O O4 0.087895 0.468408 0.907992
O O5 0.127414 0.339515 0.324553
O O6 0.407365 0.295814 0.586587
O O7 0.303417 0.486436 0.427822
O O8 0.500000 0.643568 0.750000
O O9 0.409497 0.813382 0.724363
O O10 0.573702 0.672774 0.990416
O O11 0.500000 0.500000 0.000000
#
# Coordination Sequence:
#
# PCOD9280519 Si02
#       6
#     8   8   4   8   4   8
#     4  11  21  39  66  92 129 177 216 272 343 405
#     4  11  21  44  64  90 136 170 230 272 346 394
#     4  10  23  39  66  90 120 186 216 283 325 404
#     4   9  18  36  63  84 127 170 211 261 336 402
#     4  10  21  37  60  96 128 166 214 281 335 378
#     4  10  21  38  67  96 125 179 227 266 337 427
#
# _framework density 23.838315999999999
#
# number of rings (size 3 to 8) (size 9 to 14) (size 15 to 20)
#    0.600    1.200    2.000    3.600    0.000    0.000 
#   14.400    4.000    0.000    0.000    0.000    0.000 
#    0.000    0.000    0.000    0.000    0.000    0.000 
#
# Total GULP energy -111617.089878 kJ/mol
# GULP energy per Si atom -5580.854494 kJ/mol
# Density = 2.378406 g / cm^3
# Si number density = 23.838316 Si / 1000 Ang^3
#
#
#
# Elastic Constant Matrix: (Units=GPa)
#
#
# Indices 1 2 3 4 5 6 
#
# 1 50.4690 18.6124 30.4859 0.0000 -4.8799 0.0000
# 2 18.6124 61.6916 43.5995 0.0000 8.1331 0.0000
# 3 30.4859 43.5995 167.4868 0.0000 -12.8992 0.0000
# 4 0.0000 0.0000 0.0000 31.1308 0.0000 20.9001
# 5 -4.8799 8.1331 -12.8992 0.0000 51.6490 0.0000
# 6 0.0000 0.0000 0.0000 20.9001 0.0000 21.0226
#
#
#
# Elastic Compliance Matrix: (Units=1/GPa)
#
#
# Indices 1 2 3 4 5 6 
#
# 1 0.023730 -0.005593 -0.002674 0.000000 0.002455 0.000000
# 2 -0.005593 0.022267 -0.005189 0.000000 -0.005331 0.000000
# 3 -0.002674 -0.005189 0.008006 0.000000 0.002564 0.000000
# 4 0.000000 0.000000 0.000000 0.096594 0.000000 -0.096031
# 5 0.002455 -0.005331 0.002564 0.000000 0.021073 0.000000
# 6 0.000000 0.000000 0.000000 -0.096031 0.000000 0.143039
#
#
# Mechanical properties :
#
#
# Convention : Reuss Voigt Hill
#
# Bulk Modulus (GPa) = 36.91412 51.67145 44.29279
# Shear Modulus (GPa) = 14.25922 33.22380 23.74151
#
# Velocity S-wave (km/s) = 2.44839 3.73730 3.15927
# Velocity P-wave (km/s) = 4.84888 6.35185 5.65056
#
# Compressibility (1/GPa) = 0.02708991
#
# Stress axis : x y z
#
# Youngs Moduli (GPa) = 42.14163 44.90944 124.91223
#
# Poissons Ratio (x) = 0.25117 0.33405
# Poissons Ratio (y) = 0.23569 0.64817
# Poissons Ratio (z) = 0.11270 0.23303
#
# Static dielectric constant tensor:
#      x y z
#    x 1.948590 0.000000 0.038550 
#    y 0.000000 2.002750 0.000000 
#    z 0.038550 0.000000 2.014480 
# 
# From -- ./inp_files/168347.got.cif
#   From: 2010.05.17/outbox.cif.g08.bks.cpg/sg15_85_cif.got.tgz:168347.got - 2010.06.03 18:47:42.
