data_PCOD9280122
_publ_section_title
;
Structure prediction by ZEFSAII (Michael W. Deem and Ramdas Pophale) SiO2 
 PCOD9280122
Probable space group: C 2/C
;
_chemical_formula_sum "Si O2"
_cell_formula_units_Z 52
_cell_length_a 22.591423
_cell_length_b 5.237697
_cell_length_c 19.474283
_cell_angle_alpha 90.000000
_cell_angle_beta 91.895794
_cell_angle_gamma 90.000000
_cell_volume 2303.072755
_symmetry_space_group_name_H-M "C 2/C"
_symmetry_group_IT_number 15
_symmetry_cell_setting 'monoclinic'
loop_
_space_group_symop_operation_xyz
x,y,z
-x,y,1/2-z
-x,-y,-z
x,-y,1/2+z
1/2+x,1/2+y,z
1/2-x,1/2+y,1/2-z
1/2-x,1/2-y,-z
1/2+x,1/2-y,1/2+z
loop_
_atom_site_type_symbol
_atom_site_label
_atom_site_fract_x
_atom_site_fract_y
_atom_site_fract_z
Si Si1 0.887977 0.438799 0.093108
Si Si2 0.186327 0.926275 0.437113
Si Si3 0.112726 0.556123 0.605059
Si Si4 0.355208 0.064498 0.745903
Si Si5 0.500000 0.000000 0.500000
Si Si6 0.692590 0.446417 0.085038
Si Si7 0.239466 0.869220 0.813213
O O1 0.859471 0.159885 0.079170
O O2 0.885430 0.496802 0.174847
O O3 0.951537 0.450086 0.060376
O O4 0.848671 0.663757 0.058759
O O5 0.216446 0.998812 0.509861
O O6 0.229141 0.926556 0.373067
O O7 0.102521 0.543500 0.687072
O O8 0.151454 0.307750 0.585697
O O9 0.055244 0.557202 0.555869
O O10 0.150468 0.815347 0.599295
O O11 0.295939 0.912186 0.767679
O O12 0.321493 0.334015 0.730179
O O13 0.744185 0.378286 0.140255
#
# Coordination Sequence:
#
# PCOD9280122 Si02
#       7
#     8   8   8   8   4   8   8
#     4  11  25  40  70  89 135 163 231 262 333 371
#     4  11  21  41  62 104 128 174 211 272 307 413
#     4  11  25  40  70  89 135 163 231 262 333 371
#     4  10  22  43  60 104 128 175 204 270 312 418
#     4  12  24  48  68  96 116 188 208 298 320 370
#     4  11  21  41  62 104 128 174 211 272 307 413
#     4  10  21  36  70  91 146 174 208 252 352 383
#
# _framework density 22.578529
#
# number of rings (size 3 to 8) (size 9 to 14) (size 15 to 20)
#    0.000    1.231    3.077    2.308    0.000   10.462 
#    0.000    7.692    0.000    7.385    0.000    0.000 
#    0.000    0.000    0.000    0.000    0.000    0.000 
#
# Total GULP energy -144805.642862 kJ/mol
# GULP energy per Si atom -5569.447802 kJ/mol
# Density = 2.252714 g / cm^3
# Si number density = 22.578529 Si / 1000 Ang^3
#
#
#
# Elastic Constant Matrix: (Units=GPa)
#
#
# Indices 1 2 3 4 5 6 
#
# 1 135.0363 32.9257 40.9176 0.0000 -10.0881 0.0000
# 2 32.9257 117.2617 -12.6176 0.0000 -11.0088 0.0000
# 3 40.9176 -12.6176 150.7248 0.0000 -9.4556 0.0000
# 4 0.0000 0.0000 0.0000 25.7935 0.0000 -1.2827
# 5 -10.0881 -11.0088 -9.4556 0.0000 56.1208 0.0000
# 6 0.0000 0.0000 0.0000 -1.2827 0.0000 -4.9739
#
#
#
# Elastic Compliance Matrix: (Units=1/GPa)
#
#
# Indices 1 2 3 4 5 6 
#
# 1 0.008906 -0.002722 -0.002606 0.000000 0.000628 0.000000
# 2 -0.002722 0.009627 0.001650 0.000000 0.001677 0.000000
# 3 -0.002606 0.001650 0.007551 0.000000 0.001127 0.000000
# 4 0.000000 0.000000 0.000000 0.038279 0.000000 -0.009872
# 5 0.000628 0.001677 0.001127 0.000000 0.018451 0.000000
# 6 0.000000 0.000000 0.000000 -0.009872 0.000000 -0.198503
#
#
# Mechanical properties :
#
#
# Convention : Reuss Voigt Hill
#
# Bulk Modulus (GPa) = 53.39682 58.38604 55.89143
# Shear Modulus (GPa) = -48.97567 38.17453 -5.40057
#
# Velocity S-wave (km/s) = -4.66244 4.11633 -1.54826
# Velocity P-wave (km/s) = 2.29864 6.96473 4.64885
#
# Compressibility (1/GPa) = 0.01872771
#
# Stress axis : x y z
#
# Youngs Moduli (GPa) = 112.28708 103.87137 132.43331
#
# Poissons Ratio (x) = 0.28275 0.34514
# Poissons Ratio (y) = 0.30566 -0.21853
# Poissons Ratio (z) = 0.29264 -0.17140
#
# Static dielectric constant tensor:
#      x y z
#    x 1.768190 0.000000 -0.008230 
#    y 0.000000 1.935350 0.000000 
#    z -0.008230 0.000000 1.938290 
# 
# From -- ./inp_files/251075.got.cif
#   From: 2010.05.17/outbox.cif.g08.bks.cpg/sg15_126_cif.got.tgz:251075.got - 2010.06.03 18:47:42.
