data_PCOD9280016
_publ_section_title
;
Structure prediction by ZEFSAII (Michael W. Deem and Ramdas Pophale) SiO2 
 PCOD9280016
Probable space group: C 2/C
;
_chemical_formula_sum "Si O2"
_cell_formula_units_Z 56
_cell_length_a 9.070500
_cell_length_b 25.540315
_cell_length_c 16.368102
_cell_angle_alpha 90.000000
_cell_angle_beta 137.457583
_cell_angle_gamma 90.000000
_cell_volume 2563.833144
_symmetry_space_group_name_H-M "C 2/C"
_symmetry_group_IT_number 15
_symmetry_cell_setting 'monoclinic'
loop_
_space_group_symop_operation_xyz
x,y,z
-x,y,1/2-z
-x,-y,-z
x,-y,1/2+z
1/2+x,1/2+y,z
1/2-x,1/2+y,1/2-z
1/2-x,1/2-y,-z
1/2+x,1/2-y,1/2+z
loop_
_atom_site_type_symbol
_atom_site_label
_atom_site_fract_x
_atom_site_fract_y
_atom_site_fract_z
Si Si1 0.548962 0.654728 0.868157
Si Si2 0.900494 0.738141 0.296868
Si Si3 0.195983 0.444840 0.518730
Si Si4 0.768165 0.942154 0.110312
Si Si5 0.068855 0.706613 0.915159
Si Si6 0.257598 0.849375 0.857665
Si Si7 0.279038 0.112861 0.630870
O O1 0.500000 0.660469 0.750000
O O2 0.550233 0.715187 0.897473
O O3 0.740677 0.611825 0.944943
O O4 0.374346 0.625702 0.855384
O O5 0.666367 0.767742 0.192622
O O6 0.860121 0.683555 0.325651
O O7 0.000000 0.726025 0.250000
O O8 0.254660 0.505247 0.552418
O O9 0.247615 0.411257 0.622290
O O10 0.303901 0.418475 0.482935
O O11 0.932501 0.442335 0.408888
O O12 0.000000 0.943304 0.250000
O O13 0.143253 0.668422 0.873914
O O14 0.250000 0.750000 0.000000
O O15 0.100097 0.672539 0.008780
O O16 0.000000 0.833784 0.750000
O O17 0.500000 0.084957 0.750000
#
# Coordination Sequence:
#
# PCOD9280016 Si02
#       7
#     8   8   8   8   8   8   8
#     4  10  21  36  63  90 126 165 207 271 324 370
#     4  11  24  41  62  97 136 173 216 275 333 392
#     4  10  24  41  67  97 119 177 219 263 346 390
#     4  10  21  43  67  92 131 161 215 280 330 390
#     4  11  22  37  63  93 124 180 222 252 328 397
#     4  11  23  41  62  90 134 171 218 268 319 400
#     4  11  20  36  62  92 125 158 222 265 311 397
#
# _framework density 21.842296999999999
#
# number of rings (size 3 to 8) (size 9 to 14) (size 15 to 20)
#    0.000    1.429    2.857    3.000    8.000    1.143 
#    2.571    0.000    0.000   10.286    0.000    0.000 
#    0.000    0.000    0.000    0.000    0.000    0.000 
#
# Total GULP energy -156046.869718 kJ/mol
# GULP energy per Si atom -5573.102490 kJ/mol
# Density = 2.179258 g / cm^3
# Si number density = 21.842297 Si / 1000 Ang^3
#
#
#
# Elastic Constant Matrix: (Units=GPa)
#
#
# Indices 1 2 3 4 5 6 
#
# 1 127.5168 43.4601 29.2271 0.0000 -18.9110 0.0000
# 2 43.4601 127.5189 35.6407 0.0000 0.0919 0.0000
# 3 29.2271 35.6407 53.9581 0.0000 3.4409 0.0000
# 4 0.0000 0.0000 0.0000 28.2275 0.0000 3.1328
# 5 -18.9110 0.0919 3.4409 0.0000 30.1732 0.0000
# 6 0.0000 0.0000 0.0000 3.1328 0.0000 29.0251
#
#
#
# Elastic Compliance Matrix: (Units=1/GPa)
#
#
# Indices 1 2 3 4 5 6 
#
# 1 0.010830 -0.002362 -0.004774 0.000000 0.007339 0.000000
# 2 -0.002362 0.010147 -0.005366 0.000000 -0.000899 0.000000
# 3 -0.004774 -0.005366 0.025035 0.000000 -0.005831 0.000000
# 4 0.000000 0.000000 0.000000 0.035856 0.000000 -0.003870
# 5 0.007339 -0.000899 -0.005831 0.000000 0.038409 0.000000
# 6 0.000000 0.000000 0.000000 -0.003870 0.000000 0.034871
#
#
# Mechanical properties :
#
#
# Convention : Reuss Voigt Hill
#
# Bulk Modulus (GPa) = 47.59988 58.40551 53.00269
# Shear Modulus (GPa) = 26.71594 30.86288 28.78941
#
# Velocity S-wave (km/s) = 3.50112 3.76305 3.63445
# Velocity P-wave (km/s) = 6.17929 6.75858 6.47542
#
# Compressibility (1/GPa) = 0.02100846
#
# Stress axis : x y z
#
# Youngs Moduli (GPa) = 92.33877 98.54834 39.94429
#
# Poissons Ratio (x) = 0.23276 0.19069
# Poissons Ratio (y) = 0.21809 0.21434
# Poissons Ratio (z) = 0.44082 0.52880
#
# Static dielectric constant tensor:
#      x y z
#    x 1.764460 0.000000 0.081500 
#    y 0.000000 0.986440 0.000000 
#    z 0.081500 0.000000 1.826950 
# 
# From -- ./inp_files/139568.got.cif
#   From: 2010.05.17/outbox.cif.g08.bks.cpg/sg15_70_cif.got.tgz:139568.got - 2010.06.03 18:47:42.
