data_PCOD9280986
_publ_section_title
;
Structure prediction by ZEFSAII (Michael W. Deem and Ramdas Pophale) SiO2 
 PCOD9280986
Probable space group: C 2/C
;
_chemical_formula_sum "Si O2"
_cell_formula_units_Z 56
_cell_length_a 21.897916
_cell_length_b 5.568672
_cell_length_c 28.343307
_cell_angle_alpha 90.000000
_cell_angle_beta 139.095215
_cell_angle_gamma 90.000000
_cell_volume 2263.165040
_symmetry_space_group_name_H-M "C 2/C"
_symmetry_group_IT_number 15
_symmetry_cell_setting 'monoclinic'
loop_
_space_group_symop_operation_xyz
x,y,z
-x,y,1/2-z
-x,-y,-z
x,-y,1/2+z
1/2+x,1/2+y,z
1/2-x,1/2+y,1/2-z
1/2-x,1/2-y,-z
1/2+x,1/2-y,1/2+z
loop_
_atom_site_type_symbol
_atom_site_label
_atom_site_fract_x
_atom_site_fract_y
_atom_site_fract_z
Si Si1 0.989733 0.346538 0.876566
Si Si2 0.845568 0.640545 0.741506
Si Si3 0.002792 0.301233 0.462036
Si Si4 0.692898 0.275196 0.418120
Si Si5 0.152579 0.986949 0.672593
Si Si6 0.824018 0.712093 0.618134
Si Si7 0.641567 0.467735 0.507114
O O1 0.933328 0.462799 0.800556
O O2 0.032240 0.565929 0.930809
O O3 0.906990 0.230345 0.860248
O O4 0.070092 0.142646 0.926682
O O5 0.855951 0.879666 0.779467
O O6 0.754925 0.521232 0.712574
O O7 0.829780 0.698841 0.677849
O O8 0.901517 0.201160 0.391317
O O9 0.000000 0.500000 0.500000
O O10 0.075502 0.082113 0.508199
O O11 0.750000 0.250000 0.500000
O O12 0.645870 0.527646 0.381213
O O13 0.631587 0.034734 0.375948
O O14 0.781380 0.233625 0.433447
O O15 0.716565 0.674416 0.537896
#
# Coordination Sequence:
#
# PCOD9280986 Si02
#       7
#     8   8   8   8   8   8   8
#     4  10  21  38  53  84 124 175 214 262 311 370
#     4  11  22  36  56  85 129 173 229 251 325 371
#     4  10  22  34  54  84 127 170 225 263 316 371
#     4  10  22  44  71 102 125 152 208 277 351 396
#     4  10  22  34  53  79 122 185 216 272 301 375
#     4  10  24  37  70  98 128 162 214 272 327 402
#     4   9  22  37  63  93 122 165 213 262 336 376
#
# _framework density 24.744109999999999
#
# number of rings (size 3 to 8) (size 9 to 14) (size 15 to 20)
#    0.857    1.143    1.429    1.286    6.000    1.143 
#    0.000    0.000    0.000    0.857    0.000    0.000 
#    0.000    0.000    0.000    0.000    0.000    0.000 
#
# Total GULP energy -156178.563456 kJ/mol
# GULP energy per Si atom -5577.805838 kJ/mol
# Density = 2.468779 g / cm^3
# Si number density = 24.744110 Si / 1000 Ang^3
#
#
#
# Elastic Constant Matrix: (Units=GPa)
#
#
# Indices 1 2 3 4 5 6 
#
# 1 65.6020 23.0534 39.1988 0.0017 7.3986 0.0197
# 2 23.0534 148.4237 53.2281 0.0010 -19.5871 0.0343
# 3 39.1988 53.2281 91.5309 -0.0015 -13.5376 0.0078
# 4 0.0017 0.0010 -0.0015 40.2680 0.0009 -5.2851
# 5 7.3986 -19.5871 -13.5376 0.0009 49.5332 0.0051
# 6 0.0197 0.0343 0.0078 -5.2851 0.0051 17.2218
#
#
#
# Elastic Compliance Matrix: (Units=1/GPa)
#
#
# Indices 1 2 3 4 5 6 
#
# 1 0.022201 -0.000680 -0.010049 -0.000004 -0.006331 -0.000019
# 2 -0.000680 0.008748 -0.004449 -0.000003 0.002345 -0.000016
# 3 -0.010049 -0.004449 0.018527 0.000003 0.004805 0.000011
# 4 -0.000004 -0.000003 0.000003 0.025876 -0.000001 0.007941
# 5 -0.006331 0.002345 0.004805 -0.000001 0.023375 -0.000007
# 6 -0.000019 -0.000016 0.000011 0.007941 -0.000007 0.060503
#
#
# Mechanical properties :
#
#
# Convention : Reuss Voigt Hill
#
# Bulk Modulus (GPa) = 52.30192 59.61302 55.95747
# Shear Modulus (GPa) = 25.51569 34.07636 29.79603
#
# Velocity S-wave (km/s) = 3.21469 3.71502 3.47387
# Velocity P-wave (km/s) = 5.91286 6.52273 6.22527
#
# Compressibility (1/GPa) = 0.01911976
#
# Stress axis : x y z
#
# Youngs Moduli (GPa) = 45.04350 114.30970 53.97631
#
# Poissons Ratio (x) = 0.07775 0.54238
# Poissons Ratio (y) = 0.03064 0.24015
# Poissons Ratio (z) = 0.45262 0.50859
#
# Static dielectric constant tensor:
#      x y z
#    x 2.083220 0.000030 -0.042020 
#    y 0.000030 2.091070 -0.000030 
#    z -0.042020 -0.000030 1.934080 
# 
# From -- ./inp_files/319186.got.cif
#   From: 2010.05.17/outbox.cif.g08.bks.cpg/sg15_160_cif.got.tgz:319186.got - 2010.06.03 18:47:42.
