data_PCOD9280233
_publ_section_title
;
Structure prediction by ZEFSAII (Michael W. Deem and Ramdas Pophale) SiO2 
 PCOD9280233
Probable space group: C 2/C
;
_chemical_formula_sum "Si O2"
_cell_formula_units_Z 44
_cell_length_a 7.967185
_cell_length_b 33.639692
_cell_length_c 7.979057
_cell_angle_alpha 90.000000
_cell_angle_beta 69.560441
_cell_angle_gamma 90.000000
_cell_volume 2003.858818
_symmetry_space_group_name_H-M "C 2/C"
_symmetry_group_IT_number 15
_symmetry_cell_setting 'monoclinic'
loop_
_space_group_symop_operation_xyz
x,y,z
-x,y,1/2-z
-x,-y,-z
x,-y,1/2+z
1/2+x,1/2+y,z
1/2-x,1/2+y,1/2-z
1/2-x,1/2-y,-z
1/2+x,1/2-y,1/2+z
loop_
_atom_site_type_symbol
_atom_site_label
_atom_site_fract_x
_atom_site_fract_y
_atom_site_fract_z
Si Si1 0.880497 0.204371 0.119442
Si Si2 0.000000 0.251672 0.750000
Si Si3 0.394287 0.902653 0.430653
Si Si4 0.870038 0.971196 0.946138
Si Si5 0.327683 0.383214 0.689205
Si Si6 0.855005 0.545602 0.446226
O O1 0.682654 0.223143 0.210878
O O2 0.851814 0.157861 0.084431
O O3 0.000000 0.207309 0.250000
O O4 0.971689 0.225952 0.929243
O O5 0.500000 0.879064 0.250000
O O6 0.333505 0.879813 0.618550
O O7 0.546554 0.932710 0.438361
O O8 0.225373 0.931955 0.448234
O O9 0.000000 0.960548 0.750000
O O10 0.720037 0.004172 0.958968
O O11 0.000000 0.000000 0.000000
O O12 0.500000 0.384529 0.750000
O O13 0.281305 0.421455 0.588683
O O14 0.000000 0.538060 0.250000
#
# Coordination Sequence:
#
# PCOD9280233 Si02
#       6
#     8   4   8   8   8   8
#     4  10  22  43  69 103 141 176 218 276 325 397
#     4  10  22  42  74 102 136 178 224 258 336 406
#     4  11  22  38  57  84 117 158 214 254 316 377
#     4  12  22  35  56  80 113 156 205 266 315 368
#     4  10  22  42  61  87 128 162 204 265 321 374
#     4  10  21  37  57  79 114 159 203 258 315 373
#
# _framework density 21.957633999999999
#
# number of rings (size 3 to 8) (size 9 to 14) (size 15 to 20)
#    0.000    1.455    0.000    6.545    3.818    0.000 
#    8.182    0.909    0.000    0.000    0.000    0.000 
#    0.000    0.000    0.000    0.000    0.000    0.000 
#
# Total GULP energy -122595.425658 kJ/mol
# GULP energy per Si atom -5572.519348 kJ/mol
# Density = 2.190766 g / cm^3
# Si number density = 21.957634 Si / 1000 Ang^3
#
#
#
# Elastic Constant Matrix: (Units=GPa)
#
#
# Indices 1 2 3 4 5 6 
#
# 1 95.9808 28.4123 19.3140 0.0000 -5.3029 0.0000
# 2 28.4123 113.1350 23.3324 0.0000 -8.1266 0.0000
# 3 19.3140 23.3324 95.4331 0.0000 -19.8569 0.0000
# 4 0.0000 0.0000 0.0000 26.0660 0.0000 3.3266
# 5 -5.3029 -8.1266 -19.8569 0.0000 29.1201 0.0000
# 6 0.0000 0.0000 0.0000 3.3266 0.0000 20.5080
#
#
#
# Elastic Compliance Matrix: (Units=1/GPa)
#
#
# Indices 1 2 3 4 5 6 
#
# 1 0.011516 -0.002532 -0.001658 0.000000 0.000260 0.000000
# 2 -0.002532 0.009902 -0.001666 0.000000 0.001166 0.000000
# 3 -0.001658 -0.001666 0.012891 0.000000 0.008023 0.000000
# 4 0.000000 0.000000 0.000000 0.039175 0.000000 -0.006355
# 5 0.000260 0.001166 0.008023 0.000000 0.040185 0.000000
# 6 0.000000 0.000000 0.000000 -0.006355 0.000000 0.049792
#
#
# Mechanical properties :
#
#
# Convention : Reuss Voigt Hill
#
# Bulk Modulus (GPa) = 44.24994 49.62958 46.93976
# Shear Modulus (GPa) = 27.36669 30.70484 29.03576
#
# Velocity S-wave (km/s) = 3.53418 3.74353 3.64036
# Velocity P-wave (km/s) = 6.07043 6.42938 6.25248
#
# Compressibility (1/GPa) = 0.02259890
#
# Stress axis : x y z
#
# Youngs Moduli (GPa) = 86.83524 100.98849 77.57505
#
# Poissons Ratio (x) = 0.25566 0.12858
# Poissons Ratio (y) = 0.21983 0.12923
# Poissons Ratio (z) = 0.14393 0.16824
#
# Static dielectric constant tensor:
#      x y z
#    x 2.014090 0.000000 -0.045610 
#    y 0.000000 1.912460 0.000000 
#    z -0.045610 0.000000 1.853550 
# 
# From -- ./inp_files/25463.got.cif
#   From: 2010.05.17/outbox.cif.g08.bks.cpg/sg15_13_cif.got.tgz:25463.got - 2010.06.03 18:47:42.
