data_PCOD9280421
_publ_section_title
;
Structure prediction by ZEFSAII (Michael W. Deem and Ramdas Pophale) SiO2 
 PCOD9280421
Probable space group: C 2/C
;
_chemical_formula_sum "Si O2"
_cell_formula_units_Z 56
_cell_length_a 24.180172
_cell_length_b 8.432643
_cell_length_c 13.049315
_cell_angle_alpha 90.000000
_cell_angle_beta 115.882544
_cell_angle_gamma 90.000000
_cell_volume 2393.889512
_symmetry_space_group_name_H-M "C 2/C"
_symmetry_group_IT_number 15
_symmetry_cell_setting 'monoclinic'
loop_
_space_group_symop_operation_xyz
x,y,z
-x,y,1/2-z
-x,-y,-z
x,-y,1/2+z
1/2+x,1/2+y,z
1/2-x,1/2+y,1/2-z
1/2-x,1/2-y,-z
1/2+x,1/2-y,1/2+z
loop_
_atom_site_type_symbol
_atom_site_label
_atom_site_fract_x
_atom_site_fract_y
_atom_site_fract_z
Si Si1 0.130882 0.584047 0.266721
Si Si2 0.658338 0.719289 0.324052
Si Si3 0.256707 0.735676 0.755250
Si Si4 0.653063 0.580980 0.535994
Si Si5 0.816284 0.735330 0.998259
Si Si6 0.030611 0.113232 0.167235
Si Si7 0.537797 0.292073 0.071544
O O1 0.138691 0.396163 0.276516
O O2 0.188149 0.666722 0.253109
O O3 0.139816 0.636006 0.392599
O O4 0.069201 0.652714 0.162983
O O5 0.720612 0.676301 0.316971
O O6 0.663538 0.698946 0.449577
O O7 0.603260 0.608911 0.242334
O O8 0.205333 0.682777 0.631783
O O9 0.290009 0.592881 0.841045
O O10 0.652568 0.405945 0.490534
O O11 0.593123 0.632204 0.548685
O O12 0.750000 0.750000 0.000000
O O13 0.000000 0.161340 0.250000
O O14 0.012696 0.933446 0.122969
O O15 0.012589 0.229905 0.058920
#
# Coordination Sequence:
#
# PCOD9280421 Si02
#       7
#     8   8   8   8   8   8   8
#     4  10  24  41  64  98 133 167 215 274 329 390
#     4  12  24  40  65  96 130 173 215 271 333 388
#     4  10  22  38  59  93 131 168 208 262 322 389
#     4  11  22  40  67  92 129 177 215 264 333 396
#     4  10  21  37  59  92 129 166 212 262 314 393
#     4  11  23  44  71  96 127 170 226 265 319 390
#     4  10  23  45  70  93 128 170 220 271 321 384
#
# _framework density 23.392893999999998
#
# number of rings (size 3 to 8) (size 9 to 14) (size 15 to 20)
#    0.000    1.429    1.429    3.857    0.000    9.714 
#    0.000    0.714    0.000    0.000    0.000    0.000 
#    0.000    0.000    0.000    0.000    0.000    0.000 
#
# Total GULP energy -156532.747515 kJ/mol
# GULP energy per Si atom -5590.455268 kJ/mol
# Density = 2.333965 g / cm^3
# Si number density = 23.392894 Si / 1000 Ang^3
#
#
#
# Elastic Constant Matrix: (Units=GPa)
#
#
# Indices 1 2 3 4 5 6 
#
# 1 29.1399 -14.6327 9.0940 0.0000 7.0268 0.0000
# 2 -14.6327 71.5509 40.4463 0.0000 -1.4545 0.0000
# 3 9.0940 40.4463 138.3363 0.0000 8.6201 0.0000
# 4 0.0000 0.0000 0.0000 36.9773 0.0000 4.9818
# 5 7.0268 -1.4545 8.6201 0.0000 27.9141 0.0000
# 6 0.0000 0.0000 0.0000 4.9818 0.0000 25.7167
#
#
#
# Elastic Compliance Matrix: (Units=1/GPa)
#
#
# Indices 1 2 3 4 5 6 
#
# 1 0.044452 0.012290 -0.005973 0.000000 -0.008705 0.000000
# 2 0.012290 0.020305 -0.006748 0.000000 0.000048 0.000000
# 3 -0.005973 -0.006748 0.009709 0.000000 -0.001846 0.000000
# 4 0.000000 0.000000 0.000000 0.027768 0.000000 -0.005379
# 5 -0.008705 0.000048 -0.001846 0.000000 0.038588 0.000000
# 6 0.000000 0.000000 0.000000 -0.005379 0.000000 0.039927
#
#
# Mechanical properties :
#
#
# Convention : Reuss Voigt Hill
#
# Bulk Modulus (GPa) = 13.58597 34.31583 23.95090
# Shear Modulus (GPa) = 24.25467 31.72958 27.99213
#
# Velocity S-wave (km/s) = 3.22349 3.68690 3.46296
# Velocity P-wave (km/s) = 4.43564 5.72935 5.12349
#
# Compressibility (1/GPa) = 0.07360535
#
# Stress axis : x y z
#
# Youngs Moduli (GPa) = 22.49614 49.24943 102.99387
#
# Poissons Ratio (x) = -0.60529 0.61520
# Poissons Ratio (y) = -0.27649 0.69496
# Poissons Ratio (z) = 0.13437 0.33231
#
# Static dielectric constant tensor:
#      x y z
#    x 1.881720 0.000000 -0.003490 
#    y 0.000000 1.936170 0.000000 
#    z -0.003490 0.000000 1.933760 
# 
# From -- ./inp_files/121989.got.cif
#   From: 2010.05.17/outbox.cif.g08.bks.cpg/sg15_61_cif.got.tgz:121989.got - 2010.06.03 18:47:42.
