data_PCOD9280738
_publ_section_title
;
Structure prediction by ZEFSAII (Michael W. Deem and Ramdas Pophale) SiO2 
 PCOD9280738
Probable space group: C 2/C
;
_chemical_formula_sum "Si O2"
_cell_formula_units_Z 44
_cell_length_a 5.270818
_cell_length_b 20.438861
_cell_length_c 18.718436
_cell_angle_alpha 90.000000
_cell_angle_beta 68.730928
_cell_angle_gamma 90.000000
_cell_volume 1879.176633
_symmetry_space_group_name_H-M "C 2/C"
_symmetry_group_IT_number 15
_symmetry_cell_setting 'monoclinic'
loop_
_space_group_symop_operation_xyz
x,y,z
-x,y,1/2-z
-x,-y,-z
x,-y,1/2+z
1/2+x,1/2+y,z
1/2-x,1/2+y,1/2-z
1/2-x,1/2-y,-z
1/2+x,1/2-y,1/2+z
loop_
_atom_site_type_symbol
_atom_site_label
_atom_site_fract_x
_atom_site_fract_y
_atom_site_fract_z
Si Si1 0.889952 0.748947 0.651464
Si Si2 0.706882 0.143863 0.529591
Si Si3 0.000000 0.856797 0.250000
Si Si4 0.500000 0.354514 0.750000
Si Si5 0.223497 0.562786 0.668300
Si Si6 0.000000 0.562241 0.250000
Si Si7 0.187847 0.316966 0.548587
O O1 0.746582 0.693615 0.712941
O O2 0.030504 0.805507 0.680957
O O3 0.655375 0.786841 0.630717
O O4 0.106301 0.710392 0.580189
O O5 0.675270 0.089094 0.594276
O O6 0.525719 0.142331 0.476457
O O7 0.023768 0.145935 0.478667
O O8 0.981369 0.902870 0.181046
O O9 0.229331 0.397251 0.767394
O O10 0.178914 0.485142 0.679597
O O11 0.000000 0.584242 0.750000
O O12 0.250000 0.250000 0.500000
#
# Coordination Sequence:
#
# PCOD9280738 Si02
#       7
#     8   8   4   4   8   4   8
#     4  11  22  37  59  93 127 160 191 242 313 379
#     4  11  21  38  60  90 119 153 198 250 310 354
#     4  12  20  38  62  98 126 150 202 266 322 354
#     4  12  25  41  60  87 129 168 200 244 298 378
#     4  10  21  37  63  89 113 152 209 271 294 340
#     4  10  25  41  60  87 117 168 210 258 298 344
#     4  10  22  35  56  86 128 160 187 233 304 387
#
# _framework density 23.414511000000001
#
# number of rings (size 3 to 8) (size 9 to 14) (size 15 to 20)
#    0.545    0.727    1.818    6.545    0.000    5.818 
#    0.000    0.000    0.000    6.545    0.000    0.000 
#    0.000    0.000    0.000    0.000    0.000    0.000 
#
# Total GULP energy -122773.686819 kJ/mol
# GULP energy per Si atom -5580.622128 kJ/mol
# Density = 2.336122 g / cm^3
# Si number density = 23.414511 Si / 1000 Ang^3
#
#
#
# Elastic Constant Matrix: (Units=GPa)
#
#
# Indices 1 2 3 4 5 6 
#
# 1 152.2346 60.8228 19.5228 0.0000 33.0035 0.0000
# 2 60.8228 109.5606 22.3665 0.0000 18.5129 0.0000
# 3 19.5228 22.3665 40.8268 0.0000 21.7046 0.0000
# 4 0.0000 0.0000 0.0000 14.1130 0.0000 5.3637
# 5 33.0035 18.5129 21.7046 0.0000 42.9228 0.0000
# 6 0.0000 0.0000 0.0000 5.3637 0.0000 20.3389
#
#
#
# Elastic Compliance Matrix: (Units=1/GPa)
#
#
# Indices 1 2 3 4 5 6 
#
# 1 0.009511 -0.004497 0.001056 0.000000 -0.005907 0.000000
# 2 -0.004497 0.012553 -0.005042 0.000000 0.000593 0.000000
# 3 0.001056 -0.005042 0.035595 0.000000 -0.016637 0.000000
# 4 0.000000 0.000000 0.000000 0.078750 0.000000 -0.020768
# 5 -0.005907 0.000593 -0.016637 0.000000 0.035997 0.000000
# 6 0.000000 0.000000 0.000000 -0.020768 0.000000 0.054644
#
#
# Mechanical properties :
#
#
# Convention : Reuss Voigt Hill
#
# Bulk Modulus (GPa) = 24.57391 56.44959 40.51175
# Shear Modulus (GPa) = 19.41143 28.80226 24.10684
#
# Velocity S-wave (km/s) = 2.88242 3.51109 3.21217
# Velocity P-wave (km/s) = 4.64712 6.37167 5.57646
#
# Compressibility (1/GPa) = 0.04069356
#
# Stress axis : x y z
#
# Youngs Moduli (GPa) = 105.14243 79.66106 28.09345
#
# Poissons Ratio (x) = 0.35827 -0.02968
# Poissons Ratio (y) = 0.47288 0.14165
# Poissons Ratio (z) = -0.11108 0.40165
#
# Static dielectric constant tensor:
#      x y z
#    x 2.236120 0.000000 -0.021580 
#    y 0.000000 1.891910 0.000000 
#    z -0.021580 0.000000 1.989670 
# 
# From -- ./inp_files/227154.got.cif
#   From: 2010.05.17/outbox.cif.g08.bks.cpg/sg15_114_cif.got.tgz:227154.got - 2010.06.03 18:47:42.
