data_PCOD9280673
_publ_section_title
;
Structure prediction by ZEFSAII (Michael W. Deem and Ramdas Pophale) SiO2 
 PCOD9280673
Probable space group: C 2/C
;
_chemical_formula_sum "Si O2"
_cell_formula_units_Z 32
_cell_length_a 9.141591
_cell_length_b 17.566888
_cell_length_c 10.331598
_cell_angle_alpha 90.000000
_cell_angle_beta 91.394243
_cell_angle_gamma 90.000000
_cell_volume 1658.652938
_symmetry_space_group_name_H-M "C 2/C"
_symmetry_group_IT_number 15
_symmetry_cell_setting 'monoclinic'
loop_
_space_group_symop_operation_xyz
x,y,z
-x,y,1/2-z
-x,-y,-z
x,-y,1/2+z
1/2+x,1/2+y,z
1/2-x,1/2+y,1/2-z
1/2-x,1/2-y,-z
1/2+x,1/2-y,1/2+z
loop_
_atom_site_type_symbol
_atom_site_label
_atom_site_fract_x
_atom_site_fract_y
_atom_site_fract_z
Si Si1 0.679054 0.219384 0.628789
Si Si2 0.858787 0.949504 0.529655
Si Si3 0.821661 0.066492 0.741247
Si Si4 0.864075 0.221021 0.106085
O O1 0.750000 0.250000 0.500000
O O2 0.745083 0.138856 0.673734
O O3 0.703580 0.274432 0.752416
O O4 0.504562 0.224073 0.605836
O O5 0.775188 0.943222 0.390433
O O6 0.000000 0.078417 0.750000
O O7 0.789297 0.993622 0.649929
O O8 0.000000 0.000000 0.500000
O O9 0.905568 0.134798 0.073198
O O10 0.750000 0.250000 0.000000
#
# Coordination Sequence:
#
# PCOD9280673 Si02
#       4
#     8   8   8   8
#     4  11  24  38  66  93 130 167 215 259 327 374
#     4  10  21  37  63  90 124 165 216 262 311 374
#     4  10  21  37  62  91 126 164 216 264 310 377
#     4  11  24  43  65  94 129 168 214 271 317 377
#
# _framework density 19.292763000000001
#
# number of rings (size 3 to 8) (size 9 to 14) (size 15 to 20)
#    0.000    1.500    2.500    3.000   14.000    0.000 
#    0.000    1.250    0.000    0.000    0.000    0.000 
#    0.000    0.000    0.000    0.000    0.000    0.000 
#
# Total GULP energy -89243.700994 kJ/mol
# GULP energy per Si atom -5577.731312 kJ/mol
# Density = 1.924885 g / cm^3
# Si number density = 19.292763 Si / 1000 Ang^3
#
#
#
# Elastic Constant Matrix: (Units=GPa)
#
#
# Indices 1 2 3 4 5 6 
#
# 1 54.7449 47.2868 58.4281 0.0000 11.4572 0.0000
# 2 47.2868 114.0467 36.3922 0.0000 20.3609 0.0000
# 3 58.4281 36.3922 172.1786 0.0000 11.8409 0.0000
# 4 0.0000 0.0000 0.0000 46.7399 0.0000 3.9841
# 5 11.4572 20.3609 11.8409 0.0000 30.8197 0.0000
# 6 0.0000 0.0000 0.0000 3.9841 0.0000 29.2103
#
#
#
# Elastic Compliance Matrix: (Units=1/GPa)
#
#
# Indices 1 2 3 4 5 6 
#
# 1 0.042828 -0.013650 -0.011477 0.000000 -0.002494 0.000000
# 2 -0.013650 0.014797 0.001877 0.000000 -0.005423 0.000000
# 3 -0.011477 0.001877 0.009345 0.000000 -0.000564 0.000000
# 4 0.000000 0.000000 0.000000 0.021647 0.000000 -0.002952
# 5 -0.002494 -0.005423 -0.000564 0.000000 0.037173 0.000000
# 6 0.000000 0.000000 0.000000 -0.002952 0.000000 0.034637
#
#
# Mechanical properties :
#
#
# Convention : Reuss Voigt Hill
#
# Bulk Modulus (GPa) = 48.85071 69.46492 59.15781
# Shear Modulus (GPa) = 23.39193 34.61153 29.00173
#
# Velocity S-wave (km/s) = 3.48583 4.24018 3.88138
# Velocity P-wave (km/s) = 6.44803 7.74958 7.12857
#
# Compressibility (1/GPa) = 0.02047053
#
# Stress axis : x y z
#
# Youngs Moduli (GPa) = 23.34918 67.58115 107.01459
#
# Poissons Ratio (x) = 0.92249 1.22820
# Poissons Ratio (y) = 0.31872 -0.20092
# Poissons Ratio (z) = 0.26798 -0.12688
#
# Static dielectric constant tensor:
#      x y z
#    x 1.686580 0.000000 -0.017430 
#    y 0.000000 1.660000 0.000000 
#    z -0.017430 0.000000 1.743540 
# 
# From -- ./inp_files/28474.got.cif
#   From: 2010.05.17/outbox.cif.g08.bks.cpg/sg15_15_cif.got.tgz:28474.got - 2010.06.03 18:47:42.
