data_PCOD9280474
_publ_section_title
;
Structure prediction by ZEFSAII (Michael W. Deem and Ramdas Pophale) SiO2 
 PCOD9280474
Probable space group: C 2/C
;
_chemical_formula_sum "Si O2"
_cell_formula_units_Z 56
_cell_length_a 28.719321
_cell_length_b 8.416111
_cell_length_c 12.920388
_cell_angle_alpha 90.000000
_cell_angle_beta 62.731696
_cell_angle_gamma 90.000000
_cell_volume 2775.874506
_symmetry_space_group_name_H-M "C 2/C"
_symmetry_group_IT_number 15
_symmetry_cell_setting 'monoclinic'
loop_
_space_group_symop_operation_xyz
x,y,z
-x,y,1/2-z
-x,-y,-z
x,-y,1/2+z
1/2+x,1/2+y,z
1/2-x,1/2+y,1/2-z
1/2-x,1/2-y,-z
1/2+x,1/2-y,1/2+z
loop_
_atom_site_type_symbol
_atom_site_label
_atom_site_fract_x
_atom_site_fract_y
_atom_site_fract_z
Si Si1 0.774546 0.754834 0.828430
Si Si2 0.566242 0.277274 0.557644
Si Si3 0.272978 0.895344 0.122336
Si Si4 0.561145 0.781752 0.821124
Si Si5 0.173343 0.245153 0.617301
Si Si6 0.825424 0.890586 0.970075
Si Si7 0.000000 0.971576 0.250000
Si Si8 0.000000 0.530690 0.750000
O O1 0.796522 0.681921 0.701069
O O2 0.817677 0.793428 0.871026
O O3 0.745389 0.924335 0.842622
O O4 0.730086 0.634906 0.916162
O O5 0.555607 0.243871 0.448618
O O6 0.626951 0.318663 0.514218
O O7 0.532991 0.423941 0.636216
O O8 0.545035 0.133894 0.649555
O O9 0.221413 0.792000 0.145325
O O10 0.309919 0.873297 0.985615
O O11 0.621990 0.796691 0.729791
O O12 0.539138 0.633421 0.778211
O O13 0.527358 0.926260 0.810702
O O14 0.165723 0.075313 0.566388
#
# Coordination Sequence:
#
# PCOD9280474 Si02
#       8
#     8   8   8   8   8   8   4   4
#     4  10  21  38  60  90 125 164 202 251 304 364
#     4  11  22  43  66  90 125 165 201 261 316 359
#     4  10  21  37  60  89 124 164 201 249 306 362
#     4  11  22  42  66  90 125 163 203 260 315 365
#     4  10  21  39  60  88 123 159 208 253 299 376
#     4  10  21  39  60  88 124 156 212 250 300 372
#     4  10  22  42  66  96 114 156 216 262 302 382
#     4  10  26  42  62  94 126 158 216 256 304 382
#
# _framework density 20.173824
#
# number of rings (size 3 to 8) (size 9 to 14) (size 15 to 20)
#    0.000    1.714    1.429    2.571    2.000    2.286 
#    2.571    1.429    0.000    0.000    0.000    0.000 
#    0.000    0.000    0.000    0.000    0.000    0.000 
#
# Total GULP energy -156510.144992 kJ/mol
# GULP energy per Si atom -5589.648035 kJ/mol
# Density = 2.012791 g / cm^3
# Si number density = 20.173824 Si / 1000 Ang^3
#
#
#
# Elastic Constant Matrix: (Units=GPa)
#
#
# Indices 1 2 3 4 5 6 
#
# 1 63.9551 -0.5344 20.0860 0.0000 12.4405 0.0000
# 2 -0.5344 46.3890 7.4761 0.0000 8.2881 0.0000
# 3 20.0860 7.4761 72.5030 0.0000 18.8574 0.0000
# 4 0.0000 0.0000 0.0000 1.9600 0.0000 0.6533
# 5 12.4405 8.2881 18.8574 0.0000 34.0317 0.0000
# 6 0.0000 0.0000 0.0000 0.6533 0.0000 -0.2845
#
#
#
# Elastic Compliance Matrix: (Units=1/GPa)
#
#
# Indices 1 2 3 4 5 6 
#
# 1 0.017791 0.001680 -0.003860 0.000000 -0.004774 0.000000
# 2 0.001680 0.022764 -0.001415 0.000000 -0.005374 0.000000
# 3 -0.003860 -0.001415 0.017001 0.000000 -0.007665 0.000000
# 4 0.000000 0.000000 0.000000 0.289009 0.000000 0.663632
# 5 -0.004774 -0.005374 -0.007665 0.000000 0.036685 0.000000
# 6 0.000000 0.000000 0.000000 0.663632 0.000000 -1.991098
#
#
# Mechanical properties :
#
#
# Convention : Reuss Voigt Hill
#
# Bulk Modulus (GPa) = 19.85464 26.32249 23.08857
# Shear Modulus (GPa) = -3.15683 17.52941 7.18629
#
# Velocity S-wave (km/s) = -1.25228 2.95094 1.88942
# Velocity P-wave (km/s) = 2.78787 4.96859 4.02859
#
# Compressibility (1/GPa) = 0.05036606
#
# Stress axis : x y z
#
# Youngs Moduli (GPa) = 56.20823 43.92825 58.81843
#
# Poissons Ratio (x) = -0.07380 0.22706
# Poissons Ratio (y) = -0.09443 0.08323
# Poissons Ratio (z) = 0.21699 0.06216
#
# Static dielectric constant tensor:
#      x y z
#    x 1.717110 0.000000 -0.011540 
#    y 0.000000 1.723230 0.000000 
#    z -0.011540 0.000000 1.704670 
# 
# From -- ./inp_files/122022.got.cif
#   From: 2010.05.17/outbox.cif.g08.bks.cpg/sg15_62_cif.got.tgz:122022.got - 2010.06.03 18:47:42.
