data_PCOD9280284
_publ_section_title
;
Structure prediction by ZEFSAII (Michael W. Deem and Ramdas Pophale) SiO2 
 PCOD9280284
Probable space group: C 2/C
;
_chemical_formula_sum "Si O2"
_cell_formula_units_Z 32
_cell_length_a 10.315443
_cell_length_b 30.121435
_cell_length_c 5.013998
_cell_angle_alpha 90.000000
_cell_angle_beta 109.196992
_cell_angle_gamma 90.000000
_cell_volume 1471.298354
_symmetry_space_group_name_H-M "C 2/C"
_symmetry_group_IT_number 15
_symmetry_cell_setting 'monoclinic'
loop_
_space_group_symop_operation_xyz
x,y,z
-x,y,1/2-z
-x,-y,-z
x,-y,1/2+z
1/2+x,1/2+y,z
1/2-x,1/2+y,1/2-z
1/2-x,1/2-y,-z
1/2+x,1/2-y,1/2+z
loop_
_atom_site_type_symbol
_atom_site_label
_atom_site_fract_x
_atom_site_fract_y
_atom_site_fract_z
Si Si1 0.346636 0.970177 0.601494
Si Si2 0.093728 0.091293 0.076762
Si Si3 0.094366 0.714889 0.576802
Si Si4 0.861047 0.187294 0.486137
O O1 0.500000 0.951635 0.750000
O O2 0.227773 0.936804 0.602224
O O3 0.335024 0.987522 0.292011
O O4 0.000000 0.072545 0.250000
O O5 0.137075 0.141891 0.176416
O O6 0.000000 0.092460 0.750000
O O7 0.140794 0.765845 0.670573
O O8 0.230499 0.688244 0.593841
O O9 0.000000 0.697662 0.750000
O O10 0.000000 0.715975 0.250000
O O11 0.000000 0.187972 0.750000
#
# Coordination Sequence:
#
# PCOD9280284 Si02
#       4
#     8   8   8   8
#     4  10  22  41  62  85 115 149 185 230 283 337
#     4  11  23  38  59  87 117 149 187 233 283 336
#     4  10  21  37  58  82 112 153 196 234 277 332
#     4   9  21  38  57  83 118 151 188 236 285 329
#
# _framework density 21.749499
#
# number of rings (size 3 to 8) (size 9 to 14) (size 15 to 20)
#    0.000    2.000    0.000    2.250    0.000   17.000 
#    0.000    3.750    0.000    0.000    0.000    0.000 
#    0.000    0.000    0.000    0.000    0.000    0.000 
#
# Total GULP energy -89459.939608 kJ/mol
# GULP energy per Si atom -5591.246225 kJ/mol
# Density = 2.170000 g / cm^3
# Si number density = 21.749499 Si / 1000 Ang^3
#
#
#
# Elastic Constant Matrix: (Units=GPa)
#
#
# Indices 1 2 3 4 5 6 
#
# 1 215.5250 40.2353 28.0391 0.0000 1.5282 0.0000
# 2 40.2353 36.3185 2.7524 0.0000 21.2601 0.0000
# 3 28.0391 2.7524 65.1020 0.0000 -7.1732 0.0000
# 4 0.0000 0.0000 0.0000 7.5382 0.0000 8.4743
# 5 1.5282 21.2601 -7.1732 0.0000 35.2950 0.0000
# 6 0.0000 0.0000 0.0000 8.4743 0.0000 85.3094
#
#
#
# Elastic Compliance Matrix: (Units=1/GPa)
#
#
# Indices 1 2 3 4 5 6 
#
# 1 0.006883 -0.010953 -0.001849 0.000000 0.005924 0.000000
# 2 -0.010953 0.061431 -0.001948 0.000000 -0.036925 0.000000
# 3 -0.001849 -0.001948 0.016752 0.000000 0.004658 0.000000
# 4 0.000000 0.000000 0.000000 0.149335 0.000000 -0.014834
# 5 0.005924 -0.036925 0.004658 0.000000 0.051265 0.000000
# 6 0.000000 0.000000 0.000000 -0.014834 0.000000 0.013196
#
#
# Mechanical properties :
#
#
# Convention : Reuss Voigt Hill
#
# Bulk Modulus (GPa) = 17.99646 50.99989 34.49817
# Shear Modulus (GPa) = 14.41404 42.02309 28.21856
#
# Velocity S-wave (km/s) = 2.57715 4.40038 3.60590
# Velocity P-wave (km/s) = 4.14101 7.02264 5.76478
#
# Compressibility (1/GPa) = 0.05556647
#
# Stress axis : x y z
#
# Youngs Moduli (GPa) = 145.28340 16.27841 59.69294
#
# Poissons Ratio (x) = 0.17830 0.11036
# Poissons Ratio (y) = 1.59128 0.11630
# Poissons Ratio (z) = 0.26859 0.03172
#
# Static dielectric constant tensor:
#      x y z
#    x 1.776030 0.000000 -0.005480 
#    y 0.000000 1.807830 0.000000 
#    z -0.005480 0.000000 1.775510 
# 
# From -- ./inp_files/2548.got.cif
#   From: 2010.05.17/outbox.cif.g08.bks.cpg/sg15_2_cif.got.tgz:2548.got - 2010.06.03 18:47:42.
