data_PCOD9280478
_publ_section_title
;
Structure prediction by ZEFSAII (Michael W. Deem and Ramdas Pophale) SiO2 
 PCOD9280478
Probable space group: C 2/C
;
_chemical_formula_sum "Si O2"
_cell_formula_units_Z 52
_cell_length_a 15.049456
_cell_length_b 21.916706
_cell_length_c 11.318272
_cell_angle_alpha 90.000000
_cell_angle_beta 41.586203
_cell_angle_gamma 90.000000
_cell_volume 2477.868224
_symmetry_space_group_name_H-M "C 2/C"
_symmetry_group_IT_number 15
_symmetry_cell_setting 'monoclinic'
loop_
_space_group_symop_operation_xyz
x,y,z
-x,y,1/2-z
-x,-y,-z
x,-y,1/2+z
1/2+x,1/2+y,z
1/2-x,1/2+y,1/2-z
1/2-x,1/2-y,-z
1/2+x,1/2-y,1/2+z
loop_
_atom_site_type_symbol
_atom_site_label
_atom_site_fract_x
_atom_site_fract_y
_atom_site_fract_z
Si Si1 0.163949 0.059312 0.747643
Si Si2 0.586177 0.868419 0.435372
Si Si3 0.672501 0.742816 0.455268
Si Si4 0.953785 0.928049 0.665498
Si Si5 0.000000 0.148672 0.750000
Si Si6 0.643583 0.197451 0.630602
Si Si7 0.706637 0.854325 0.826219
O O1 0.317377 0.076671 0.621568
O O2 0.110156 0.106840 0.703287
O O3 0.121722 0.992836 0.743279
O O4 0.081889 0.066201 0.952292
O O5 0.613373 0.808401 0.485968
O O6 0.634101 0.840720 0.260506
O O7 0.427437 0.882156 0.598292
O O8 0.750000 0.750000 0.500000
O O9 0.558418 0.693323 0.593099
O O10 0.764463 0.711583 0.262884
O O11 0.846064 0.889627 0.696762
O O12 0.000000 0.905539 0.750000
O O13 0.500000 0.227846 0.750000
O O14 0.750000 0.250000 0.500000
O O15 0.666043 0.150908 0.502628
#
# Coordination Sequence:
#
# PCOD9280478 Si02
#       7
#     8   8   8   8   4   8   8
#     4  11  24  43  68  93 128 172 219 277 323 382
#     4  11  24  41  64  98 136 169 212 269 335 385
#     4  12  23  39  65  93 136 175 212 259 330 403
#     4  11  24  44  71  94 123 172 233 269 326 387
#     4  12  22  42  64  94 128 172 216 270 320 386
#     4  10  21  37  60  89 127 164 208 259 318 377
#     4  11  24  41  63  97 130 170 219 270 326 388
#
# _framework density 20.985780999999999
#
# number of rings (size 3 to 8) (size 9 to 14) (size 15 to 20)
#    0.000    0.923    5.385    1.846    0.000    2.462 
#    0.000    0.000    0.000    0.000    0.000    0.000 
#    0.000    0.000    0.000    0.000    0.000    0.000 
#
# Total GULP energy -145039.926392 kJ/mol
# GULP energy per Si atom -5578.458707 kJ/mol
# Density = 2.093802 g / cm^3
# Si number density = 20.985781 Si / 1000 Ang^3
#
#
#
# Elastic Constant Matrix: (Units=GPa)
#
#
# Indices 1 2 3 4 5 6 
#
# 1 91.3015 18.2303 14.6942 0.0001 -14.4527 -0.0001
# 2 18.2303 54.0692 3.1032 0.0000 -12.8802 0.0000
# 3 14.6942 3.1032 44.3427 0.0001 -11.2254 -0.0001
# 4 0.0001 0.0000 0.0001 24.3915 -0.0001 -2.6949
# 5 -14.4527 -12.8802 -11.2254 -0.0001 46.8504 0.0001
# 6 -0.0001 0.0000 -0.0001 -2.6949 0.0001 22.0003
#
#
#
# Elastic Compliance Matrix: (Units=1/GPa)
#
#
# Indices 1 2 3 4 5 6 
#
# 1 0.012532 -0.003535 -0.003378 0.000000 0.002085 0.000000
# 2 -0.003535 0.020788 0.000945 0.000000 0.004851 0.000000
# 3 -0.003378 0.000945 0.024918 0.000000 0.005188 0.000000
# 4 0.000000 0.000000 0.000000 0.041560 0.000000 0.005091
# 5 0.002085 0.004851 0.005188 0.000000 0.024564 0.000000
# 6 0.000000 0.000000 0.000000 0.005091 0.000000 0.046078
#
#
# Mechanical properties :
#
#
# Convention : Reuss Voigt Hill
#
# Bulk Modulus (GPa) = 21.59717 29.08543 25.34130
# Shear Modulus (GPa) = 25.27665 28.89413 27.08539
#
# Velocity S-wave (km/s) = 3.47431 3.71461 3.59647
# Velocity P-wave (km/s) = 5.13888 5.68220 5.41736
#
# Compressibility (1/GPa) = 0.04630236
#
# Stress axis : x y z
#
# Youngs Moduli (GPa) = 79.79448 48.10459 40.13130
#
# Poissons Ratio (x) = 0.17005 0.13555
# Poissons Ratio (y) = 0.28207 -0.03791
# Poissons Ratio (z) = 0.26953 -0.04544
#
# Static dielectric constant tensor:
#      x y z
#    x 2.073600 0.000000 -0.311540 
#    y 0.000000 1.771450 0.000000 
#    z -0.311540 0.000000 2.063850 
# 
# From -- ./inp_files/42322.got.cif
#   From: 2010.05.17/outbox.cif.g08.bks.cpg/sg15_22_cif.got.tgz:42322.got - 2010.06.03 18:47:42.
