data_PCOD9280660
_publ_section_title
;
Structure prediction by ZEFSAII (Michael W. Deem and Ramdas Pophale) SiO2 
 PCOD9280660
Probable space group: C 2/C
;
_chemical_formula_sum "Si O2"
_cell_formula_units_Z 48
_cell_length_a 10.038575
_cell_length_b 13.210262
_cell_length_c 26.601405
_cell_angle_alpha 90.000000
_cell_angle_beta 35.635678
_cell_angle_gamma 90.000000
_cell_volume 2055.324038
_symmetry_space_group_name_H-M "C 2/C"
_symmetry_group_IT_number 15
_symmetry_cell_setting 'monoclinic'
loop_
_space_group_symop_operation_xyz
x,y,z
-x,y,1/2-z
-x,-y,-z
x,-y,1/2+z
1/2+x,1/2+y,z
1/2-x,1/2+y,1/2-z
1/2-x,1/2-y,-z
1/2+x,1/2-y,1/2+z
loop_
_atom_site_type_symbol
_atom_site_label
_atom_site_fract_x
_atom_site_fract_y
_atom_site_fract_z
Si Si1 0.580381 0.801479 0.486512
Si Si2 0.593631 0.409133 0.032231
Si Si3 0.174284 0.922702 0.657880
Si Si4 0.988440 0.737850 0.600032
Si Si5 0.178085 0.958153 0.816539
Si Si6 0.002408 0.470234 0.137640
O O1 0.553127 0.683680 0.507802
O O2 0.763710 0.855795 0.466154
O O3 0.341427 0.853863 0.573967
O O4 0.637671 0.806215 0.410560
O O5 0.376957 0.464727 0.122042
O O6 0.751656 0.491725 0.956349
O O7 0.000000 0.867522 0.750000
O O8 0.015187 0.979979 0.667021
O O9 0.334412 0.988666 0.644890
O O10 0.250000 0.750000 0.500000
O O11 0.873872 0.842930 0.651454
O O12 0.985438 0.650793 0.643027
O O13 0.414300 0.976957 0.715422
#
# Coordination Sequence:
#
# PCOD9280660 Si02
#       6
#     8   8   8   8   8   8
#     4  10  21  37  62  89 120 161 200 248 304 356
#     4  10  21  40  60  88 126 162 198 252 301 357
#     4   9  18  35  59  89 117 158 209 256 290 346
#     4  12  22  39  64  89 120 161 204 251 296 363
#     4  11  22  38  62  91 121 160 203 250 307 356
#     4  10  22  39  61  88 123 158 208 251 296 360
#
# _framework density 23.353981999999998
#
# number of rings (size 3 to 8) (size 9 to 14) (size 15 to 20)
#    0.000    1.667    3.333    1.000    0.000    8.667 
#    0.000    2.500    0.000    0.000    0.000    0.000 
#    0.000    0.000    0.000    0.000    0.000    0.000 
#
# Total GULP energy -134249.876574 kJ/mol
# GULP energy per Si atom -5593.744857 kJ/mol
# Density = 2.330083 g / cm^3
# Si number density = 23.353982 Si / 1000 Ang^3
#
#
#
# Elastic Constant Matrix: (Units=GPa)
#
#
# Indices 1 2 3 4 5 6 
#
# 1 55.2994 -6.2523 19.6891 0.0002 -1.5669 0.0004
# 2 -6.2523 126.6259 57.1386 0.0011 17.2168 0.0009
# 3 19.6891 57.1386 100.7523 0.0002 23.3103 -0.0046
# 4 0.0002 0.0011 0.0002 36.7988 0.0012 16.0978
# 5 -1.5669 17.2168 23.3103 0.0012 30.9293 0.0004
# 6 0.0004 0.0009 -0.0046 16.0978 0.0004 26.1891
#
#
#
# Elastic Compliance Matrix: (Units=1/GPa)
#
#
# Indices 1 2 3 4 5 6 
#
# 1 0.021236 0.003735 -0.007311 0.000001 0.004507 -0.000002
# 2 0.003735 0.011341 -0.006958 0.000001 -0.000880 -0.000002
# 3 -0.007311 -0.006958 0.017550 -0.000001 -0.009724 0.000004
# 4 0.000001 0.000001 -0.000001 0.037169 0.000000 -0.022847
# 5 0.004507 -0.000880 -0.009724 0.000000 0.040378 -0.000002
# 6 -0.000002 -0.000002 0.000004 -0.022847 -0.000002 0.052227
#
#
# Mechanical properties :
#
#
# Convention : Reuss Voigt Hill
#
# Bulk Modulus (GPa) = 34.41278 47.09206 40.75242
# Shear Modulus (GPa) = 23.73530 32.92358 28.32944
#
# Velocity S-wave (km/s) = 3.19145 3.75875 3.48666
# Velocity P-wave (km/s) = 5.32426 6.24867 5.80490
#
# Compressibility (1/GPa) = 0.02905897
#
# Stress axis : x y z
#
# Youngs Moduli (GPa) = 47.08917 88.17538 56.98092
#
# Poissons Ratio (x) = -0.32931 0.41657
# Poissons Ratio (y) = -0.17586 0.39647
# Poissons Ratio (z) = 0.34426 0.61352
#
# Static dielectric constant tensor:
#      x y z
#    x 1.979620 0.000000 0.030310 
#    y 0.000000 1.821710 0.000000 
#    z 0.030310 0.000000 1.869520 
# 
# From -- ./inp_files/236834.got.cif
#   From: 2010.05.17/outbox.cif.g08.bks.cpg/sg15_119_cif.got.tgz:236834.got - 2010.06.03 18:47:42.
