data_PCOD9280317
_publ_section_title
;
Structure prediction by ZEFSAII (Michael W. Deem and Ramdas Pophale) SiO2 
 PCOD9280317
Probable space group: C 2/C
;
_chemical_formula_sum "Si O2"
_cell_formula_units_Z 40
_cell_length_a 8.858912
_cell_length_b 20.307121
_cell_length_c 10.639313
_cell_angle_alpha 90.000000
_cell_angle_beta 84.098477
_cell_angle_gamma 90.000000
_cell_volume 1903.857699
_symmetry_space_group_name_H-M "C 2/C"
_symmetry_group_IT_number 15
_symmetry_cell_setting 'monoclinic'
loop_
_space_group_symop_operation_xyz
x,y,z
-x,y,1/2-z
-x,-y,-z
x,-y,1/2+z
1/2+x,1/2+y,z
1/2-x,1/2+y,1/2-z
1/2-x,1/2-y,-z
1/2+x,1/2-y,1/2+z
loop_
_atom_site_type_symbol
_atom_site_label
_atom_site_fract_x
_atom_site_fract_y
_atom_site_fract_z
Si Si1 0.221147 0.181720 0.430052
Si Si2 0.000000 0.719303 0.250000
Si Si3 0.000000 0.772126 0.750000
Si Si4 0.183626 0.051191 0.876636
Si Si5 0.683131 0.449164 0.088533
Si Si6 0.722990 0.297332 0.387176
O O1 0.250000 0.250000 0.500000
O O2 0.363470 0.177159 0.321026
O O3 0.219890 0.122685 0.529477
O O4 0.065337 0.184547 0.360518
O O5 0.932051 0.770197 0.155860
O O6 0.140473 0.723891 0.714536
O O7 0.237179 0.040257 0.727627
O O8 0.222584 0.125837 0.910274
O O9 0.000275 0.045873 0.890073
O O10 0.238833 0.001311 0.979363
O O11 0.750000 0.250000 0.500000
#
# Coordination Sequence:
#
# PCOD9280317 Si02
#       6
#     8   4   4   8   8   8
#     4  11  21  38  61  87 120 158 200 253 305 360
#     4  10  22  36  58  90 122 152 202 256 304 356
#     4  10  22  34  58  90 116 150 200 248 298 354
#     4  10  21  37  58  87 120 158 202 248 301 362
#     4  10  21  37  59  86 121 160 200 248 302 360
#     4  11  21  37  60  88 119 156 199 246 297 359
#
# _framework density 21.009974
#
# number of rings (size 3 to 8) (size 9 to 14) (size 15 to 20)
#    0.000    1.600    0.000    7.200    0.000    6.400 
#    0.000    1.000    0.000    7.200    0.000    0.000 
#    0.000    0.000    0.000    0.000    0.000    0.000 
#
# Total GULP energy -111652.438233 kJ/mol
# GULP energy per Si atom -5582.621912 kJ/mol
# Density = 2.096215 g / cm^3
# Si number density = 21.009974 Si / 1000 Ang^3
#
#
#
# Elastic Constant Matrix: (Units=GPa)
#
#
# Indices 1 2 3 4 5 6 
#
# 1 55.0547 10.7314 23.4549 0.0000 11.5245 0.0000
# 2 10.7314 121.5252 96.6686 0.0000 21.0774 0.0000
# 3 23.4549 96.6686 157.0800 0.0000 23.3466 0.0000
# 4 0.0000 0.0000 0.0000 39.1882 0.0000 0.3170
# 5 11.5245 21.0774 23.3466 0.0000 34.7479 0.0000
# 6 0.0000 0.0000 0.0000 0.3170 0.0000 17.2251
#
#
#
# Elastic Compliance Matrix: (Units=1/GPa)
#
#
# Indices 1 2 3 4 5 6 
#
# 1 0.020408 0.001828 -0.003334 0.000000 -0.005637 0.000000
# 2 0.001828 0.016667 -0.009929 0.000000 -0.004045 0.000000
# 3 -0.003334 -0.009929 0.013237 0.000000 -0.001765 0.000000
# 4 0.000000 0.000000 0.000000 0.025522 0.000000 -0.000470
# 5 -0.005637 -0.004045 -0.001765 0.000000 0.034288 0.000000
# 6 0.000000 0.000000 0.000000 -0.000470 0.000000 0.058063
#
#
# Mechanical properties :
#
#
# Convention : Reuss Voigt Hill
#
# Bulk Modulus (GPa) = 36.44168 66.15219 51.29693
# Shear Modulus (GPa) = 24.97486 31.75258 28.36372
#
# Velocity S-wave (km/s) = 3.45151 3.89177 3.67824
# Velocity P-wave (km/s) = 5.76771 7.19368 6.51980
#
# Compressibility (1/GPa) = 0.02744110
#
# Stress axis : x y z
#
# Youngs Moduli (GPa) = 49.00052 59.99982 75.54833
#
# Poissons Ratio (x) = -0.10967 0.25190
# Poissons Ratio (y) = -0.08957 0.75009
# Poissons Ratio (z) = 0.16338 0.59571
#
# Static dielectric constant tensor:
#      x y z
#    x 1.786210 0.000000 -0.050100 
#    y 0.000000 1.741420 0.000000 
#    z -0.050100 0.000000 2.268500 
# 
# From -- ./inp_files/76752.got.cif
#   From: 2010.05.17/outbox.cif.g08.bks.cpg/sg15_39_cif.got.tgz:76752.got - 2010.06.03 18:47:42.
