data_PCOD9280175
_publ_section_title
;
Structure prediction by ZEFSAII (Michael W. Deem and Ramdas Pophale) SiO2 
 PCOD9280175
Probable space group: C 2/C
;
_chemical_formula_sum "Si O2"
_cell_formula_units_Z 36
_cell_length_a 13.196977
_cell_length_b 26.242794
_cell_length_c 13.042093
_cell_angle_alpha 90.000000
_cell_angle_beta 157.932322
_cell_angle_gamma 90.000000
_cell_volume 1696.972411
_symmetry_space_group_name_H-M "C 2/C"
_symmetry_group_IT_number 15
_symmetry_cell_setting 'monoclinic'
loop_
_space_group_symop_operation_xyz
x,y,z
-x,y,1/2-z
-x,-y,-z
x,-y,1/2+z
1/2+x,1/2+y,z
1/2-x,1/2+y,1/2-z
1/2-x,1/2-y,-z
1/2+x,1/2-y,1/2+z
loop_
_atom_site_type_symbol
_atom_site_label
_atom_site_fract_x
_atom_site_fract_y
_atom_site_fract_z
Si Si1 0.080071 0.606011 0.580165
Si Si2 0.537513 0.582652 0.168886
Si Si3 0.335000 0.786906 0.314121
Si Si4 0.231939 0.526559 0.550780
Si Si5 0.500000 0.786711 0.250000
O O1 0.178237 0.661548 0.633694
O O2 0.110086 0.564057 0.520250
O O3 0.770161 0.610878 0.324347
O O4 0.266109 0.585806 0.848616
O O5 0.500000 0.603216 0.250000
O O6 0.652733 0.525460 0.291315
O O7 0.562395 0.745351 0.553061
O O8 0.421571 0.811214 0.283994
O O9 0.500000 0.550037 0.750000
O O10 0.000000 0.514599 0.250000
O O11 0.750000 0.750000 0.500000
#
# Coordination Sequence:
#
# PCOD9280175 Si02
#       5
#     8   8   8   8   4
#     4  12  23  39  65  88 121 165 205 243 300 365
#     4  11  23  38  59  94 128 154 195 246 301 370
#     4  10  21  37  55  83 119 157 196 245 293 348
#     4  11  23  42  64  88 122 158 204 255 304 353
#     4   8  16  30  48  70 106 146 180 218 278 338
#
# _framework density 21.214252999999999
#
# number of rings (size 3 to 8) (size 9 to 14) (size 15 to 20)
#    0.000    1.333    0.000    7.333    3.111    0.000 
#    4.000    0.000    0.000    4.000    0.000    0.000 
#    0.000    0.000    0.000    0.000    0.000    0.000 
#
# Total GULP energy -100532.107403 kJ/mol
# GULP energy per Si atom -5585.117078 kJ/mol
# Density = 2.116597 g / cm^3
# Si number density = 21.214253 Si / 1000 Ang^3
#
#
#
# Elastic Constant Matrix: (Units=GPa)
#
#
# Indices 1 2 3 4 5 6 
#
# 1 34.3717 10.8106 9.3403 -0.0002 4.5950 -0.0001
# 2 10.8106 88.7057 -2.6298 0.0006 -14.4430 -0.0001
# 3 9.3403 -2.6298 90.2445 0.0012 6.0030 0.0000
# 4 -0.0002 0.0006 0.0012 10.3761 -0.0002 -10.2246
# 5 4.5950 -14.4430 6.0030 -0.0002 23.8013 -0.0001
# 6 -0.0001 -0.0001 0.0000 -10.2246 -0.0001 12.5009
#
#
#
# Elastic Compliance Matrix: (Units=1/GPa)
#
#
# Indices 1 2 3 4 5 6 
#
# 1 0.032843 -0.005549 -0.002965 0.000007 -0.008960 0.000006
# 2 -0.005549 0.013449 0.000358 -0.000003 0.009142 -0.000003
# 3 -0.002965 0.000358 0.011539 -0.000008 -0.002121 -0.000006
# 4 0.000007 -0.000003 -0.000008 0.496685 0.000004 0.406243
# 5 -0.008960 0.009142 -0.002121 0.000004 0.049827 0.000003
# 6 0.000006 -0.000003 -0.000006 0.406243 0.000003 0.412265
#
#
# Mechanical properties :
#
#
# Convention : Reuss Voigt Hill
#
# Bulk Modulus (GPa) = 24.08565 27.59599 25.84082
# Shear Modulus (GPa) = 4.77665 22.38906 13.58286
#
# Velocity S-wave (km/s) = 1.50217 3.25218 2.53310
# Velocity P-wave (km/s) = 3.79300 5.20948 4.55662
#
# Compressibility (1/GPa) = 0.04151850
#
# Stress axis : x y z
#
# Youngs Moduli (GPa) = 30.44828 74.35721 86.65977
#
# Poissons Ratio (x) = 0.41263 0.25694
# Poissons Ratio (y) = 0.16897 -0.03104
# Poissons Ratio (z) = 0.09028 -0.02663
#
# Static dielectric constant tensor:
#      x y z
#    x 1.826950 0.000000 -0.016740 
#    y 0.000000 1.770810 0.000000 
#    z -0.016740 0.000000 1.757140 
# 
# From -- ./inp_files/4396.got.cif
#   From: 2010.05.17/outbox.cif.g08.bks.cpg/sg15_3_cif.got.tgz:4396.got - 2010.06.03 18:47:42.
