data_PCOD9280101
_publ_section_title
;
Structure prediction by ZEFSAII (Michael W. Deem and Ramdas Pophale) SiO2 
 PCOD9280101
Probable space group: C 2/C
;
_chemical_formula_sum "Si O2"
_cell_formula_units_Z 56
_cell_length_a 24.760172
_cell_length_b 8.824835
_cell_length_c 14.261639
_cell_angle_alpha 90.000000
_cell_angle_beta 133.839047
_cell_angle_gamma 90.000000
_cell_volume 2247.701408
_symmetry_space_group_name_H-M "C 2/C"
_symmetry_group_IT_number 15
_symmetry_cell_setting 'monoclinic'
loop_
_space_group_symop_operation_xyz
x,y,z
-x,y,1/2-z
-x,-y,-z
x,-y,1/2+z
1/2+x,1/2+y,z
1/2-x,1/2+y,1/2-z
1/2-x,1/2-y,-z
1/2+x,1/2-y,1/2+z
loop_
_atom_site_type_symbol
_atom_site_label
_atom_site_fract_x
_atom_site_fract_y
_atom_site_fract_z
Si Si1 0.808155 0.541588 0.045388
Si Si2 0.003985 0.230799 0.656558
Si Si3 0.937365 0.129018 0.943593
Si Si4 0.363971 0.735802 0.042002
Si Si5 0.775240 0.542770 0.699328
Si Si6 0.866860 0.004121 0.197222
Si Si7 0.833555 0.765364 0.922826
O O1 0.718824 0.521051 0.932252
O O2 0.822204 0.700131 0.013597
O O3 0.851386 0.412838 0.039552
O O4 0.826605 0.516632 0.176012
O O5 0.063514 0.098132 0.754970
O O6 0.000000 0.323966 0.750000
O O7 0.919593 0.185294 0.527710
O O8 0.039166 0.268949 0.596708
O O9 0.919836 0.183010 0.026602
O O10 0.000000 0.000000 0.000000
O O11 0.383077 0.664649 0.167009
O O12 0.284228 0.664905 0.913478
O O13 0.818936 0.629452 0.832838
O O14 0.726436 0.396149 0.667793
O O15 0.868391 0.955171 0.308366
#
# Coordination Sequence:
#
# PCOD9280101 Si02
#       7
#     8   8   8   8   8   8   8
#     4  11  24  45  73 107 153 192 251 323 390 447
#     4  10  22  42  71 100 142 194 254 298 376 455
#     4  10  21  36  67 103 142 191 247 300 370 444
#     4  11  22  42  72 108 145 192 249 322 375 453
#     4  11  24  42  72 108 149 190 260 314 389 454
#     4   9  21  39  69 103 139 190 244 312 370 456
#     4  12  25  46  77 109 150 203 257 322 384 469
#
# _framework density 24.914341
#
# number of rings (size 3 to 8) (size 9 to 14) (size 15 to 20)
#    0.857    0.571    0.000    7.286    0.000    3.429 
#    2.571    0.714    3.143    0.000    0.000    0.000 
#    0.000    0.000    0.000    0.000    0.000    0.000 
#
# Total GULP energy -156140.690066 kJ/mol
# GULP energy per Si atom -5576.453217 kJ/mol
# Density = 2.485763 g / cm^3
# Si number density = 24.914341 Si / 1000 Ang^3
#
#
#
# Elastic Constant Matrix: (Units=GPa)
#
#
# Indices 1 2 3 4 5 6 
#
# 1 135.3694 53.7952 38.8758 0.0000 -24.0841 0.0000
# 2 53.7952 94.6638 46.5647 0.0000 -4.4265 0.0000
# 3 38.8758 46.5647 81.3670 0.0000 -2.1803 0.0000
# 4 0.0000 0.0000 0.0000 37.6942 0.0000 -11.0856
# 5 -24.0841 -4.4265 -2.1803 0.0000 45.7698 0.0000
# 6 0.0000 0.0000 0.0000 -11.0856 0.0000 18.6823
#
#
#
# Elastic Compliance Matrix: (Units=1/GPa)
#
#
# Indices 1 2 3 4 5 6 
#
# 1 0.010875 -0.004804 -0.002309 0.000000 0.005148 0.000000
# 2 -0.004804 0.016872 -0.007394 0.000000 -0.001248 0.000000
# 3 -0.002309 -0.007394 0.017595 0.000000 -0.001092 0.000000
# 4 0.000000 0.000000 0.000000 0.032138 0.000000 0.019070
# 5 0.005148 -0.001248 -0.001092 0.000000 0.024385 0.000000
# 6 0.000000 0.000000 0.000000 0.019070 0.000000 0.064842
#
#
# Mechanical properties :
#
#
# Convention : Reuss Voigt Hill
#
# Bulk Modulus (GPa) = 61.23880 65.54129 63.39004
# Shear Modulus (GPa) = 24.85546 31.90688 28.38117
#
# Velocity S-wave (km/s) = 3.16197 3.58252 3.37879
# Velocity P-wave (km/s) = 6.16148 6.59366 6.38123
#
# Compressibility (1/GPa) = 0.01632952
#
# Stress axis : x y z
#
# Youngs Moduli (GPa) = 91.95314 59.26935 56.83309
#
# Poissons Ratio (x) = 0.28470 0.13123
# Poissons Ratio (y) = 0.44170 0.42022
# Poissons Ratio (z) = 0.21232 0.43824
#
# Static dielectric constant tensor:
#      x y z
#    x 2.037170 0.000000 -0.080880 
#    y 0.000000 1.996610 0.000000 
#    z -0.080880 0.000000 2.071920 
# 
# From -- ./inp_files/176661.got.cif
#   From: 2010.05.17/outbox.cif.g08.bks.cpg/sg15_89_cif.got.tgz:176661.got - 2010.06.03 18:47:42.
