data_PCOD9280489
_publ_section_title
;
Structure prediction by ZEFSAII (Michael W. Deem and Ramdas Pophale) SiO2 
 PCOD9280489
Probable space group: C 2/C
;
_chemical_formula_sum "Si O2"
_cell_formula_units_Z 52
_cell_length_a 16.360925
_cell_length_b 12.185343
_cell_length_c 22.689206
_cell_angle_alpha 90.000000
_cell_angle_beta 32.359860
_cell_angle_gamma 90.000000
_cell_volume 2421.082206
_symmetry_space_group_name_H-M "C 2/C"
_symmetry_group_IT_number 15
_symmetry_cell_setting 'monoclinic'
loop_
_space_group_symop_operation_xyz
x,y,z
-x,y,1/2-z
-x,-y,-z
x,-y,1/2+z
1/2+x,1/2+y,z
1/2-x,1/2+y,1/2-z
1/2-x,1/2-y,-z
1/2+x,1/2-y,1/2+z
loop_
_atom_site_type_symbol
_atom_site_label
_atom_site_fract_x
_atom_site_fract_y
_atom_site_fract_z
Si Si1 0.465207 0.394470 0.140489
Si Si2 0.916372 0.133157 0.440573
Si Si3 0.371508 0.815501 0.160130
Si Si4 0.673124 0.782435 0.451791
Si Si5 0.325941 0.294484 0.868299
Si Si6 0.114610 0.526120 0.483412
Si Si7 0.000000 0.180855 0.750000
O O1 0.536678 0.508907 0.075886
O O2 0.290887 0.369623 0.227912
O O3 0.471508 0.388951 0.208057
O O4 0.563483 0.294800 0.054833
O O5 0.795159 0.194441 0.557527
O O6 0.836423 0.148145 0.426211
O O7 0.072356 0.204478 0.343818
O O8 0.368526 0.785349 0.092129
O O9 0.507319 0.901152 0.090664
O O10 0.848557 0.748079 0.351052
O O11 0.667450 0.909714 0.475658
O O12 0.500000 0.262243 0.750000
O O13 0.250197 0.394959 0.878383
O O14 0.000000 0.500000 0.500000
#
# Coordination Sequence:
#
# PCOD9280489 Si02
#       7
#     8   8   8   8   8   8   4
#     4  11  23  38  66  88 123 164 200 265 317 379
#     4  10  23  40  59  95 123 162 219 250 315 379
#     4   9  22  38  57  91 122 161 206 254 311 370
#     4  10  21  37  60  91 120 157 202 254 317 374
#     4  10  22  39  65  89 125 167 208 266 311 370
#     4   9  19  35  61  93 120 155 210 256 301 376
#     4  10  22  40  58  92 116 158 210 252 314 378
#
# _framework density 21.477996999999998
#
# number of rings (size 3 to 8) (size 9 to 14) (size 15 to 20)
#    0.000    2.154    0.000    1.385   10.769    3.077 
#    1.385    0.000    0.000    0.000    0.000    0.000 
#    0.000    0.000    0.000    0.000    0.000    0.000 
#
# Total GULP energy -145066.490590 kJ/mol
# GULP energy per Si atom -5579.480407 kJ/mol
# Density = 2.142911 g / cm^3
# Si number density = 21.477997 Si / 1000 Ang^3
#
#
#
# Elastic Constant Matrix: (Units=GPa)
#
#
# Indices 1 2 3 4 5 6 
#
# 1 52.6585 13.4807 23.7704 -0.0002 -21.9738 -0.0001
# 2 13.4807 123.1331 76.6248 0.0000 -2.3708 -0.0001
# 3 23.7704 76.6248 145.9239 0.0006 -33.9026 0.0009
# 4 -0.0002 0.0000 0.0006 28.4335 0.0002 -4.8646
# 5 -21.9738 -2.3708 -33.9026 0.0002 30.4022 0.0000
# 6 -0.0001 -0.0001 0.0009 -4.8646 0.0000 10.6724
#
#
#
# Elastic Compliance Matrix: (Units=1/GPa)
#
#
# Indices 1 2 3 4 5 6 
#
# 1 0.028826 -0.004890 0.003542 0.000000 0.024403 0.000000
# 2 -0.004890 0.014656 -0.010062 0.000000 -0.013611 0.000001
# 3 0.003542 -0.010062 0.016158 -0.000001 0.019793 -0.000002
# 4 0.000000 0.000000 -0.000001 0.038144 -0.000001 0.017387
# 5 0.024403 -0.013611 0.019793 -0.000001 0.071541 -0.000002
# 6 0.000000 0.000001 -0.000002 0.017387 -0.000002 0.101625
#
#
# Mechanical properties :
#
#
# Convention : Reuss Voigt Hill
#
# Bulk Modulus (GPa) = 27.15901 61.05193 44.10547
# Shear Modulus (GPa) = 16.33752 27.75758 22.04755
#
# Velocity S-wave (km/s) = 2.76100 3.59886 3.20741
# Velocity P-wave (km/s) = 4.77877 6.76433 5.85631
#
# Compressibility (1/GPa) = 0.03682019
#
# Stress axis : x y z
#
# Youngs Moduli (GPa) = 34.69037 68.23225 61.88894
#
# Poissons Ratio (x) = 0.33365 -0.21918
# Poissons Ratio (y) = 0.16963 0.62270
# Poissons Ratio (z) = -0.12286 0.68653
#
# Static dielectric constant tensor:
#      x y z
#    x 1.851710 0.000000 0.025490 
#    y 0.000000 1.801570 0.000000 
#    z 0.025490 0.000000 1.818710 
# 
# From -- ./inp_files/298856.got.cif
#   From: 2010.05.17/outbox.cif.g08.bks.cpg/sg15_150_cif.got.tgz:298856.got - 2010.06.03 18:47:42.
