data_PCOD9280118
_publ_section_title
;
Structure prediction by ZEFSAII (Michael W. Deem and Ramdas Pophale) SiO2 
 PCOD9280118
Probable space group: C 2/C
;
_chemical_formula_sum "Si O2"
_cell_formula_units_Z 52
_cell_length_a 12.101330
_cell_length_b 10.350660
_cell_length_c 23.614244
_cell_angle_alpha 90.000000
_cell_angle_beta 48.667689
_cell_angle_gamma 90.000000
_cell_volume 2221.020490
_symmetry_space_group_name_H-M "C 2/C"
_symmetry_group_IT_number 15
_symmetry_cell_setting 'monoclinic'
loop_
_space_group_symop_operation_xyz
x,y,z
-x,y,1/2-z
-x,-y,-z
x,-y,1/2+z
1/2+x,1/2+y,z
1/2-x,1/2+y,1/2-z
1/2-x,1/2-y,-z
1/2+x,1/2-y,1/2+z
loop_
_atom_site_type_symbol
_atom_site_label
_atom_site_fract_x
_atom_site_fract_y
_atom_site_fract_z
Si Si1 0.928945 0.902937 0.701751
Si Si2 0.304568 0.567178 0.122303
Si Si3 0.933325 0.615059 0.665382
Si Si4 0.000000 0.556872 0.250000
Si Si5 0.211497 0.023921 0.655992
Si Si6 0.614716 0.644578 0.984617
Si Si7 0.322732 0.935417 0.507183
O O1 0.854295 0.944740 0.669568
O O2 0.981155 0.758133 0.669115
O O3 0.811839 0.901078 0.793232
O O4 0.052230 0.007668 0.678785
O O5 0.142135 0.628007 0.176022
O O6 0.306478 0.425962 0.093677
O O7 0.438010 0.636819 0.044079
O O8 0.936961 0.530195 0.720456
O O9 0.782926 0.620697 0.678526
O O10 0.047936 0.551170 0.582313
O O11 0.315537 0.021914 0.565546
O O12 0.674630 0.567130 0.019509
O O13 0.661666 0.790762 0.974442
#
# Coordination Sequence:
#
# PCOD9280118 Si02
#       7
#     8   8   8   4   8   8   8
#     4  11  23  43  66  93 130 174 220 274 337 396
#     4  11  21  40  63  96 129 174 218 270 336 398
#     4  12  24  41  67  96 132 168 224 279 324 401
#     4  12  24  38  66  92 128 174 220 268 330 392
#     4  11  24  39  68  97 129 170 223 276 334 397
#     4  10  21  36  69  93 127 172 219 271 334 401
#     4  11  20  39  62  97 126 168 217 272 330 400
#
# _framework density 23.412662000000001
#
# number of rings (size 3 to 8) (size 9 to 14) (size 15 to 20)
#    0.000    0.923    6.154    2.308    2.154    0.000 
#    0.000    1.538    3.385    2.769    0.000    0.000 
#    0.000    0.000    0.000    0.000    0.000    0.000 
#
# Total GULP energy -144841.658207 kJ/mol
# GULP energy per Si atom -5570.833008 kJ/mol
# Density = 2.335937 g / cm^3
# Si number density = 23.412662 Si / 1000 Ang^3
#
#
#
# Elastic Constant Matrix: (Units=GPa)
#
#
# Indices 1 2 3 4 5 6 
#
# 1 96.4176 21.0416 11.0040 0.0000 -11.0528 0.0000
# 2 21.0416 14.0493 2.0767 0.0000 -0.5627 0.0000
# 3 11.0040 2.0767 105.3214 0.0000 -2.9908 0.0000
# 4 0.0000 0.0000 0.0000 19.1030 0.0000 8.1391
# 5 -11.0528 -0.5627 -2.9908 0.0000 59.6725 0.0000
# 6 0.0000 0.0000 0.0000 8.1391 0.0000 23.5630
#
#
#
# Elastic Compliance Matrix: (Units=1/GPa)
#
#
# Indices 1 2 3 4 5 6 
#
# 1 0.015966 -0.023638 -0.001126 0.000000 0.002678 0.000000
# 2 -0.023638 0.106405 0.000276 0.000000 -0.003361 0.000000
# 3 -0.001126 0.000276 0.009615 0.000000 0.000276 0.000000
# 4 0.000000 0.000000 0.000000 0.061382 0.000000 -0.021202
# 5 0.002678 -0.003361 0.000276 0.000000 0.017236 0.000000
# 6 0.000000 0.000000 0.000000 -0.021202 0.000000 0.049763
#
#
# Mechanical properties :
#
#
# Convention : Reuss Voigt Hill
#
# Bulk Modulus (GPa) = 12.04673 31.55921 21.80297
# Shear Modulus (GPa) = 14.83623 32.57877 23.70750
#
# Velocity S-wave (km/s) = 2.52004 3.73433 3.18558
# Velocity P-wave (km/s) = 3.69107 5.66590 4.78155
#
# Compressibility (1/GPa) = 0.08301011
#
# Stress axis : x y z
#
# Youngs Moduli (GPa) = 62.63434 9.39801 104.00657
#
# Poissons Ratio (x) = 0.22215 0.11711
# Poissons Ratio (y) = 1.48056 -0.02873
# Poissons Ratio (z) = 0.07052 -0.00260
#
# Static dielectric constant tensor:
#      x y z
#    x 1.955950 0.000000 -0.100620 
#    y 0.000000 1.894060 0.000000 
#    z -0.100620 0.000000 2.026640 
# 
# From -- ./inp_files/269172.got.cif
#   From: 2010.05.17/outbox.cif.g08.bks.cpg/sg15_135_cif.got.tgz:269172.got - 2010.06.03 18:47:42.
