data_PCOD9280785
_publ_section_title
;
Structure prediction by ZEFSAII (Michael W. Deem and Ramdas Pophale) SiO2 
 PCOD9280785
Probable space group: C 2/C
;
_chemical_formula_sum "Si O2"
_cell_formula_units_Z 64
_cell_length_a 25.661208
_cell_length_b 9.120909
_cell_length_c 16.012929
_cell_angle_alpha 90.000000
_cell_angle_beta 49.060981
_cell_angle_gamma 90.000000
_cell_volume 2831.178409
_symmetry_space_group_name_H-M "C 2/C"
_symmetry_group_IT_number 15
_symmetry_cell_setting 'monoclinic'
loop_
_space_group_symop_operation_xyz
x,y,z
-x,y,1/2-z
-x,-y,-z
x,-y,1/2+z
1/2+x,1/2+y,z
1/2-x,1/2+y,1/2-z
1/2-x,1/2-y,-z
1/2+x,1/2-y,1/2+z
loop_
_atom_site_type_symbol
_atom_site_label
_atom_site_fract_x
_atom_site_fract_y
_atom_site_fract_z
Si Si1 0.010478 0.843527 0.072992
Si Si2 0.131719 0.793689 0.650470
Si Si3 0.611381 0.858089 0.565440
Si Si4 0.804838 0.895201 0.429102
Si Si5 0.835837 0.505592 0.838611
Si Si6 0.350844 0.255904 0.217476
Si Si7 0.503424 0.323241 0.893122
Si Si8 0.864702 0.342074 0.531865
O O1 0.045387 0.721292 0.094399
O O2 0.927453 0.822404 0.152158
O O3 0.038068 0.829709 0.948795
O O4 0.024854 0.009975 0.088648
O O5 0.169566 0.677503 0.670176
O O6 0.054121 0.787042 0.764932
O O7 0.151352 0.730896 0.539712
O O8 0.151129 0.960607 0.630553
O O9 0.657919 0.721363 0.549105
O O10 0.604637 0.956192 0.657145
O O11 0.642078 0.982189 0.470452
O O12 0.733778 0.948762 0.544002
O O13 0.802199 0.827824 0.338417
O O14 0.852895 0.415111 0.739286
O O15 0.329362 0.248311 0.143930
O O16 0.445085 0.200065 0.959814
#
# Coordination Sequence:
#
# PCOD9280785 Si02
#       8
#     8   8   8   8   8   8   8   8
#     4  10  21  37  63  96 125 164 205 254 323 391
#     4  11  22  41  64  93 123 173 213 264 314 382
#     4  10  22  38  62  89 127 161 208 259 316 380
#     4  11  22  45  66  87 127 172 220 264 314 377
#     4  10  24  41  65  88 124 168 220 264 317 367
#     4  10  21  40  63  90 128 167 202 264 322 380
#     4  10  21  38  60  93 135 165 198 257 323 387
#     4  10  23  38  60  98 134 156 209 262 320 389
#
# _framework density 22.605429000000001
#
# number of rings (size 3 to 8) (size 9 to 14) (size 15 to 20)
#    0.000    1.750    1.250    3.000    3.500    3.000 
#    2.250    3.750    5.500    0.000    0.000    0.000 
#    0.000    0.000    0.000    0.000    0.000    0.000 
#
# Total GULP energy -178387.949951 kJ/mol
# GULP energy per Si atom -5574.623436 kJ/mol
# Density = 2.255398 g / cm^3
# Si number density = 22.605429 Si / 1000 Ang^3
#
#
#
# Elastic Constant Matrix: (Units=GPa)
#
#
# Indices 1 2 3 4 5 6 
#
# 1 16.4685 25.0796 8.2716 0.0000 -2.3893 0.0000
# 2 25.0796 134.3607 33.2081 0.0001 0.7809 -0.0002
# 3 8.2716 33.2081 64.7960 0.0000 -0.4712 0.0000
# 4 0.0000 0.0001 0.0000 26.1096 -0.0001 6.8699
# 5 -2.3893 0.7809 -0.4712 -0.0001 15.3677 0.0000
# 6 0.0000 -0.0002 0.0000 6.8699 0.0000 10.6347
#
#
#
# Elastic Compliance Matrix: (Units=1/GPa)
#
#
# Indices 1 2 3 4 5 6 
#
# 1 0.088490 -0.015842 -0.003072 0.000000 0.014469 -0.000001
# 2 -0.015842 0.011363 -0.003824 0.000000 -0.003158 0.000000
# 3 -0.003072 -0.003824 0.017787 0.000000 0.000262 0.000000
# 4 0.000000 0.000000 0.000000 0.046143 0.000000 -0.029808
# 5 0.014469 -0.003158 0.000262 0.000000 0.067490 -0.000001
# 6 -0.000001 0.000000 0.000000 -0.029808 -0.000001 0.113288
#
#
# Mechanical properties :
#
#
# Convention : Reuss Voigt Hill
#
# Bulk Modulus (GPa) = 13.85746 38.74931 26.30338
# Shear Modulus (GPa) = 12.07462 20.36011 16.21737
#
# Velocity S-wave (km/s) = 2.31367 3.00438 2.68136
# Velocity P-wave (km/s) = 3.64429 5.40498 4.60949
#
# Compressibility (1/GPa) = 0.07216332
#
# Stress axis : x y z
#
# Youngs Moduli (GPa) = 11.30075 88.00252 56.22062
#
# Poissons Ratio (x) = 1.39416 0.17270
# Poissons Ratio (y) = 0.17903 0.21501
# Poissons Ratio (z) = 0.03471 0.33655
#
# Static dielectric constant tensor:
#      x y z
#    x 1.893680 0.000000 0.009690 
#    y 0.000000 1.891130 0.000000 
#    z 0.009690 0.000000 1.870000 
# 
# From -- ./inp_files/181139.got.cif
#   From: 2010.05.17/outbox.cif.g08.bks.cpg/sg15_91_cif.got.tgz:181139.got - 2010.06.03 18:47:42.
