data_PCOD9280865
_publ_section_title
;
Structure prediction by ZEFSAII (Michael W. Deem and Ramdas Pophale) SiO2 
 PCOD9280865
Probable space group: C 2/C
;
_chemical_formula_sum "Si O2"
_cell_formula_units_Z 44
_cell_length_a 17.904864
_cell_length_b 14.243387
_cell_length_c 9.830171
_cell_angle_alpha 90.000000
_cell_angle_beta 51.500417
_cell_angle_gamma 90.000000
_cell_volume 1961.969528
_symmetry_space_group_name_H-M "C 2/C"
_symmetry_group_IT_number 15
_symmetry_cell_setting 'monoclinic'
loop_
_space_group_symop_operation_xyz
x,y,z
-x,y,1/2-z
-x,-y,-z
x,-y,1/2+z
1/2+x,1/2+y,z
1/2-x,1/2+y,1/2-z
1/2-x,1/2-y,-z
1/2+x,1/2-y,1/2+z
loop_
_atom_site_type_symbol
_atom_site_label
_atom_site_fract_x
_atom_site_fract_y
_atom_site_fract_z
Si Si1 0.794806 0.034266 0.859817
Si Si2 0.500000 0.283489 0.250000
Si Si3 0.343741 0.612227 0.078938
Si Si4 0.079752 0.444304 0.542048
Si Si5 0.977810 0.643447 0.933273
Si Si6 0.663690 0.746040 0.758700
O O1 0.823322 0.134854 0.762742
O O2 0.828327 0.944735 0.735340
O O3 0.831555 0.036780 0.971571
O O4 0.681599 0.045950 0.994166
O O5 0.447465 0.343488 0.428231
O O6 0.408845 0.232024 0.285608
O O7 0.260023 0.691534 0.152641
O O8 0.073633 0.545127 0.473073
O O9 0.000000 0.440424 0.750000
O O10 0.064335 0.363774 0.444586
O O11 0.000000 0.641511 0.750000
O O12 0.902327 0.724410 0.042093
#
# Coordination Sequence:
#
# PCOD9280865 Si02
#       6
#     8   4   8   8   8   8
#     4  11  24  43  66  97 131 174 215 270 326 387
#     4  10  24  44  70  92 126 184 218 268 316 390
#     4  11  25  45  67  98 133 168 228 264 323 393
#     4  10  21  37  65  91 129 169 209 272 329 380
#     4  10  22  38  60  96 129 163 215 270 330 378
#     4  11  24  44  67  98 132 173 225 261 326 394
#
# _framework density 22.426444
#
# number of rings (size 3 to 8) (size 9 to 14) (size 15 to 20)
#    0.000    1.455    1.818    3.273   11.455    2.909 
#    4.909    1.818    0.000    0.000    0.000    0.000 
#    0.000    0.000    0.000    0.000    0.000    0.000 
#
# Total GULP energy -122695.374892 kJ/mol
# GULP energy per Si atom -5577.062495 kJ/mol
# Density = 2.237540 g / cm^3
# Si number density = 22.426444 Si / 1000 Ang^3
#
#
#
# Elastic Constant Matrix: (Units=GPa)
#
#
# Indices 1 2 3 4 5 6 
#
# 1 55.5079 10.5239 15.6207 0.0000 -8.6072 0.0000
# 2 10.5239 36.6594 -2.8848 0.0000 -9.8023 0.0000
# 3 15.6207 -2.8848 88.3985 0.0000 -0.9474 0.0000
# 4 0.0000 0.0000 0.0000 26.3122 0.0000 1.6624
# 5 -8.6072 -9.8023 -0.9474 0.0000 35.4056 0.0000
# 6 0.0000 0.0000 0.0000 1.6624 0.0000 26.0887
#
#
#
# Elastic Compliance Matrix: (Units=1/GPa)
#
#
# Indices 1 2 3 4 5 6 
#
# 1 0.020617 -0.005295 -0.003779 0.000000 0.003445 0.000000
# 2 -0.005295 0.030916 0.002023 0.000000 0.007326 0.000000
# 3 -0.003779 0.002023 0.012046 0.000000 -0.000036 0.000000
# 4 0.000000 0.000000 0.000000 0.038159 0.000000 -0.002432
# 5 0.003445 0.007326 -0.000036 0.000000 0.031109 0.000000
# 6 0.000000 0.000000 0.000000 -0.002432 0.000000 0.038486
#
#
# Mechanical properties :
#
#
# Convention : Reuss Voigt Hill
#
# Bulk Modulus (GPa) = 20.21117 25.23172 22.72145
# Shear Modulus (GPa) = 24.76147 28.04838 26.40493
#
# Velocity S-wave (km/s) = 3.32643 3.54034 3.43505
# Velocity P-wave (km/s) = 4.87702 5.29030 5.08786
#
# Compressibility (1/GPa) = 0.04947759
#
# Stress axis : x y z
#
# Youngs Moduli (GPa) = 48.50377 32.34541 83.01633
#
# Poissons Ratio (x) = 0.17126 0.31372
# Poissons Ratio (y) = 0.25682 -0.16795
# Poissons Ratio (z) = 0.18330 -0.06544
#
# Static dielectric constant tensor:
#      x y z
#    x 2.045140 0.000000 0.128630 
#    y 0.000000 1.939490 0.000000 
#    z 0.128630 0.000000 2.024970 
# 
# From -- ./inp_files/47416.got.cif
#   From: 2010.05.17/outbox.cif.g08.bks.cpg/sg15_24_cif.got.tgz:47416.got - 2010.06.03 18:47:42.
