data_PCOD9280734
_publ_section_title
;
Structure prediction by ZEFSAII (Michael W. Deem and Ramdas Pophale) SiO2 
 PCOD9280734
Probable space group: C 2/C
;
_chemical_formula_sum "Si O2"
_cell_formula_units_Z 40
_cell_length_a 8.270171
_cell_length_b 19.500144
_cell_length_c 17.368096
_cell_angle_alpha 90.000000
_cell_angle_beta 34.007891
_cell_angle_gamma 90.000000
_cell_volume 1566.588135
_symmetry_space_group_name_H-M "C 2/C"
_symmetry_group_IT_number 15
_symmetry_cell_setting 'monoclinic'
loop_
_space_group_symop_operation_xyz
x,y,z
-x,y,1/2-z
-x,-y,-z
x,-y,1/2+z
1/2+x,1/2+y,z
1/2-x,1/2+y,1/2-z
1/2-x,1/2-y,-z
1/2+x,1/2-y,1/2+z
loop_
_atom_site_type_symbol
_atom_site_label
_atom_site_fract_x
_atom_site_fract_y
_atom_site_fract_z
Si Si1 0.669507 0.342845 0.870446
Si Si2 0.907803 0.436069 0.197863
Si Si3 0.367849 0.637421 0.938119
Si Si4 0.401312 0.216945 0.700845
Si Si5 0.294904 0.070821 0.179008
O O1 0.578148 0.362616 0.991661
O O2 0.528430 0.278853 0.882800
O O3 0.693407 0.407015 0.804307
O O4 0.000000 0.320853 0.750000
O O5 0.561085 0.424692 0.329691
O O6 0.017115 0.359518 0.133485
O O7 0.969796 0.499853 0.119372
O O8 0.000000 0.448806 0.250000
O O9 0.030444 0.626642 0.056430
O O10 0.550962 0.703358 0.838658
O O11 0.500000 0.230787 0.750000
O O12 0.000000 0.067431 0.250000
#
# Coordination Sequence:
#
# PCOD9280734 Si02
#       5
#     8   8   8   8   8
#     4  10  21  37  63  88 119 164 202 244 302 362
#     4   9  20  41  61  88 123 156 205 247 297 369
#     4   9  21  41  63  88 119 168 194 247 313 345
#     4   9  20  41  60  92 124 152 206 252 293 368
#     4  11  23  37  59  90 122 160 208 249 293 359
#
# _framework density 25.533194999999999
#
# number of rings (size 3 to 8) (size 9 to 14) (size 15 to 20)
#    1.200    1.200    0.000    2.400    0.000    8.800 
#    0.000    2.000    0.000    3.600    0.000    0.000 
#    0.000    0.000    0.000    0.000    0.000    0.000 
#
# Total GULP energy -111701.734586 kJ/mol
# GULP energy per Si atom -5585.086729 kJ/mol
# Density = 2.547508 g / cm^3
# Si number density = 25.533195 Si / 1000 Ang^3
#
#
#
# Elastic Constant Matrix: (Units=GPa)
#
#
# Indices 1 2 3 4 5 6 
#
# 1 108.4141 53.8945 13.8473 -0.0027 -15.9405 0.0040
# 2 53.8945 113.5062 17.4181 0.0007 -5.0915 -0.0001
# 3 13.8473 17.4181 61.4457 0.0094 -16.4282 -0.0140
# 4 -0.0027 0.0007 0.0094 34.1622 0.0030 11.3230
# 5 -15.9405 -5.0915 -16.4282 0.0030 27.3757 -0.0015
# 6 0.0040 -0.0001 -0.0140 11.3230 -0.0015 7.9469
#
#
#
# Elastic Compliance Matrix: (Units=1/GPa)
#
#
# Indices 1 2 3 4 5 6 
#
# 1 0.013160 -0.006029 0.000586 0.000004 0.006893 -0.000009
# 2 -0.006029 0.011974 -0.002833 0.000002 -0.002984 -0.000005
# 3 0.000586 -0.002833 0.020125 -0.000036 0.011892 0.000089
# 4 0.000004 0.000002 -0.000036 0.055467 -0.000029 -0.079032
# 5 0.006893 -0.002984 0.011892 -0.000029 0.047124 0.000068
# 6 -0.000009 -0.000005 0.000089 -0.079032 0.000068 0.238444
#
#
# Mechanical properties :
#
#
# Convention : Reuss Voigt Hill
#
# Bulk Modulus (GPa) = 34.83561 50.40955 42.62258
# Shear Modulus (GPa) = 12.12373 27.11070 19.61721
#
# Velocity S-wave (km/s) = 2.18141 3.26204 2.77483
# Velocity P-wave (km/s) = 4.47410 5.82867 5.19572
#
# Compressibility (1/GPa) = 0.02870626
#
# Stress axis : x y z
#
# Youngs Moduli (GPa) = 75.98914 83.51566 49.68976
#
# Poissons Ratio (x) = 0.50354 -0.02914
# Poissons Ratio (y) = 0.45816 0.14079
# Poissons Ratio (z) = -0.04456 0.23663
#
# Static dielectric constant tensor:
#      x y z
#    x 1.991800 0.000000 -0.060540 
#    y 0.000000 1.963570 0.000000 
#    z -0.060540 0.000000 2.102780 
# 
# From -- ./inp_files/233375.got.cif
#   From: 2010.05.17/outbox.cif.g08.bks.cpg/sg15_117_cif.got.tgz:233375.got - 2010.06.03 18:47:42.
