data_PCOD9280532
_publ_section_title
;
Structure prediction by ZEFSAII (Michael W. Deem and Ramdas Pophale) SiO2 
 PCOD9280532
Probable space group: C 2/C
;
_chemical_formula_sum "Si O2"
_cell_formula_units_Z 52
_cell_length_a 16.023371
_cell_length_b 19.869852
_cell_length_c 19.071446
_cell_angle_alpha 90.000000
_cell_angle_beta 153.741135
_cell_angle_gamma 90.000000
_cell_volume 2686.421842
_symmetry_space_group_name_H-M "C 2/C"
_symmetry_group_IT_number 15
_symmetry_cell_setting 'monoclinic'
loop_
_space_group_symop_operation_xyz
x,y,z
-x,y,1/2-z
-x,-y,-z
x,-y,1/2+z
1/2+x,1/2+y,z
1/2-x,1/2+y,1/2-z
1/2-x,1/2-y,-z
1/2+x,1/2-y,1/2+z
loop_
_atom_site_type_symbol
_atom_site_label
_atom_site_fract_x
_atom_site_fract_y
_atom_site_fract_z
Si Si1 0.913243 0.217970 0.540815
Si Si2 0.881695 0.513347 0.089152
Si Si3 0.033321 0.371093 0.612134
Si Si4 0.100078 0.557984 0.030722
Si Si5 0.037959 0.899449 0.518711
Si Si6 0.500000 0.732696 0.750000
Si Si7 0.988994 0.979430 0.610640
O O1 0.990033 0.173402 0.535979
O O2 0.686976 0.222647 0.378717
O O3 0.980918 0.189159 0.666013
O O4 0.986697 0.294171 0.592728
O O5 0.000000 0.521525 0.250000
O O6 0.893225 0.580223 0.049660
O O7 0.951864 0.454179 0.089170
O O8 0.674092 0.495773 0.958358
O O9 0.038195 0.378719 0.531118
O O10 0.237644 0.397606 0.793482
O O11 0.321838 0.543791 0.208046
O O12 0.000000 0.500000 0.000000
O O13 0.939218 0.921205 0.516269
O O14 0.987561 0.954996 0.421946
#
# Coordination Sequence:
#
# PCOD9280532 Si02
#       7
#     8   8   8   8   8   4   8
#     4  11  22  38  54  82 120 158 194 234 289 363
#     4  11  21  35  61  86 115 151 192 249 294 342
#     4  10  21  39  57  81 126 159 181 247 298 345
#     4   9  21  39  55  84 116 152 198 238 299 343
#     4  10  21  38  57  82 117 157 198 233 292 348
#     4  10  24  32  52  84 114 154 200 226 282 358
#     4  10  21  37  61  81 112 157 198 245 285 346
#
# _framework density 19.356603
#
# number of rings (size 3 to 8) (size 9 to 14) (size 15 to 20)
#    0.000    1.846    3.077    0.462    7.538    2.462 
#    0.000    0.000    0.000    0.923    0.000    0.000 
#    0.000    0.000    0.000    0.000    0.000    0.000 
#
# Total GULP energy -144938.003395 kJ/mol
# GULP energy per Si atom -5574.538592 kJ/mol
# Density = 1.931255 g / cm^3
# Si number density = 19.356603 Si / 1000 Ang^3
#
#
#
# Elastic Constant Matrix: (Units=GPa)
#
#
# Indices 1 2 3 4 5 6 
#
# 1 117.4978 43.4754 22.3661 -0.0022 -10.1541 0.0012
# 2 43.4754 73.2122 17.0022 -0.0072 -7.8814 -0.0016
# 3 22.3661 17.0022 31.6796 0.0030 -5.3201 0.0042
# 4 -0.0022 -0.0072 0.0030 12.2292 -0.0040 -8.8942
# 5 -10.1541 -7.8814 -5.3201 -0.0040 32.0072 -0.0016
# 6 0.0012 -0.0016 0.0042 -8.8942 -0.0016 28.8698
#
#
#
# Elastic Compliance Matrix: (Units=1/GPa)
#
#
# Indices 1 2 3 4 5 6 
#
# 1 0.011662 -0.005610 -0.004972 0.000001 0.001492 0.000000
# 2 -0.005610 0.018503 -0.005661 0.000017 0.001835 0.000007
# 3 -0.004972 -0.005661 0.038696 -0.000021 0.003460 -0.000012
# 4 0.000001 0.000017 -0.000021 0.105384 0.000016 0.032467
# 5 0.001492 0.001835 0.003460 0.000016 0.032743 0.000006
# 6 0.000000 0.000007 -0.000012 0.032467 0.000006 0.044641
#
#
# Mechanical properties :
#
#
# Convention : Reuss Voigt Hill
#
# Bulk Modulus (GPa) = 27.49238 43.11966 35.30602
# Shear Modulus (GPa) = 16.87824 23.92430 20.40127
#
# Velocity S-wave (km/s) = 2.95611 3.51946 3.25001
# Velocity P-wave (km/s) = 5.08776 6.23220 5.68883
#
# Compressibility (1/GPa) = 0.03637371
#
# Stress axis : x y z
#
# Youngs Moduli (GPa) = 85.74947 54.04659 25.84256
#
# Poissons Ratio (x) = 0.30319 0.12849
# Poissons Ratio (y) = 0.48104 0.14630
# Poissons Ratio (z) = 0.42635 0.30598
#
# Static dielectric constant tensor:
#      x y z
#    x 1.755470 0.000000 -0.022380 
#    y 0.000000 1.700050 0.000000 
#    z -0.022380 0.000000 1.797410 
# 
# From -- ./inp_files/40764.got.cif
#   From: 2010.05.17/outbox.cif.g08.bks.cpg/sg15_21_cif.got.tgz:40764.got - 2010.06.03 18:47:42.
