data_PCOD9280684
_publ_section_title
;
Structure prediction by ZEFSAII (Michael W. Deem and Ramdas Pophale) SiO2 
 PCOD9280684
Probable space group: C 2/C
;
_chemical_formula_sum "Si O2"
_cell_formula_units_Z 24
_cell_length_a 7.189261
_cell_length_b 14.430998
_cell_length_c 8.767446
_cell_angle_alpha 90.000000
_cell_angle_beta 77.704406
_cell_angle_gamma 90.000000
_cell_volume 888.742234
_symmetry_space_group_name_H-M "C 2/C"
_symmetry_group_IT_number 15
_symmetry_cell_setting 'monoclinic'
loop_
_space_group_symop_operation_xyz
x,y,z
-x,y,1/2-z
-x,-y,-z
x,-y,1/2+z
1/2+x,1/2+y,z
1/2-x,1/2+y,1/2-z
1/2-x,1/2-y,-z
1/2+x,1/2-y,1/2+z
loop_
_atom_site_type_symbol
_atom_site_label
_atom_site_fract_x
_atom_site_fract_y
_atom_site_fract_z
Si Si1 0.133548 0.834584 0.578983
Si Si2 0.771641 0.861931 0.477487
Si Si3 0.732686 0.490055 0.736344
O O1 0.250000 0.750000 0.500000
O O2 0.281998 0.913024 0.600440
O O3 0.000000 0.809917 0.750000
O O4 0.998791 0.869396 0.467429
O O5 0.750000 0.750000 0.500000
O O6 0.708261 0.934260 0.622421
O O7 0.706172 0.908937 0.331411
O O8 0.500000 0.488391 0.750000
#
# Coordination Sequence:
#
# PCOD9280684 Si02
#       3
#     8   8   8
#     4   9  19  37  61  92 124 162 209 261 316 381
#     4  10  21  37  62  93 121 163 212 260 312 374
#     4   9  19  36  59  87 121 163 207 249 310 391
#
# _framework density 27.004452000000001
#
# number of rings (size 3 to 8) (size 9 to 14) (size 15 to 20)
#    0.000    3.333    0.000    4.000    0.000   10.667 
#    0.000    1.667    0.000   14.000    0.000    0.000 
#    0.000    0.000    0.000    0.000    0.000    0.000 
#
# Total GULP energy -66816.735327 kJ/mol
# GULP energy per Si atom -5568.061277 kJ/mol
# Density = 2.694299 g / cm^3
# Si number density = 27.004452 Si / 1000 Ang^3
#
#
#
# Elastic Constant Matrix: (Units=GPa)
#
#
# Indices 1 2 3 4 5 6 
#
# 1 73.8631 16.2827 27.9481 0.0000 11.0601 0.0000
# 2 16.2827 256.9555 134.4647 0.0000 -3.5259 0.0000
# 3 27.9481 134.4647 123.2482 0.0000 3.5239 0.0000
# 4 0.0000 0.0000 0.0000 53.1932 0.0000 4.2864
# 5 11.0601 -3.5259 3.5239 0.0000 28.3757 0.0000
# 6 0.0000 0.0000 0.0000 4.2864 0.0000 18.1516
#
#
#
# Elastic Compliance Matrix: (Units=1/GPa)
#
#
# Indices 1 2 3 4 5 6 
#
# 1 0.015981 0.001702 -0.005327 0.000000 -0.005356 0.000000
# 2 0.001702 0.009412 -0.010707 0.000000 0.001836 0.000000
# 3 -0.005327 -0.010707 0.021057 0.000000 -0.001869 0.000000
# 4 0.000000 0.000000 0.000000 0.019164 0.000000 -0.004526
# 5 -0.005356 0.001836 -0.001869 0.000000 0.037789 0.000000
# 6 0.000000 0.000000 0.000000 -0.004526 0.000000 0.056160
#
#
# Mechanical properties :
#
#
# Convention : Reuss Voigt Hill
#
# Bulk Modulus (GPa) = 56.22866 90.16198 73.19532
# Shear Modulus (GPa) = 25.75240 38.30218 32.02729
#
# Velocity S-wave (km/s) = 3.09145 3.77020 3.44757
# Velocity P-wave (km/s) = 5.79741 7.23968 6.55831
#
# Compressibility (1/GPa) = 0.01778453
#
# Stress axis : x y z
#
# Youngs Moduli (GPa) = 62.57374 106.24701 47.49127
#
# Poissons Ratio (x) = -0.18078 0.25299
# Poissons Ratio (y) = -0.10647 0.50849
# Poissons Ratio (z) = 0.33334 1.13758
#
# Static dielectric constant tensor:
#      x y z
#    x 2.246710 0.000000 -0.025180 
#    y 0.000000 2.245740 0.000000 
#    z -0.025180 0.000000 2.314170 
# 
# From -- ./inp_files/20943.got.cif
#   From: 2010.05.17/outbox.cif.g08.bks.cpg/sg15_11_cif.got.tgz:20943.got - 2010.06.03 18:47:42.
