data_PCOD9280777
_publ_section_title
;
Structure prediction by ZEFSAII (Michael W. Deem and Ramdas Pophale) SiO2 
 PCOD9280777
Probable space group: C 2/C
;
_chemical_formula_sum "Si O2"
_cell_formula_units_Z 48
_cell_length_a 12.898831
_cell_length_b 23.943057
_cell_length_c 8.148612
_cell_angle_alpha 90.000000
_cell_angle_beta 112.592753
_cell_angle_gamma 90.000000
_cell_volume 2323.469923
_symmetry_space_group_name_H-M "C 2/C"
_symmetry_group_IT_number 15
_symmetry_cell_setting 'monoclinic'
loop_
_space_group_symop_operation_xyz
x,y,z
-x,y,1/2-z
-x,-y,-z
x,-y,1/2+z
1/2+x,1/2+y,z
1/2-x,1/2+y,1/2-z
1/2-x,1/2-y,-z
1/2+x,1/2-y,1/2+z
loop_
_atom_site_type_symbol
_atom_site_label
_atom_site_fract_x
_atom_site_fract_y
_atom_site_fract_z
Si Si1 0.500000 0.781094 0.750000
Si Si2 0.571454 0.246482 0.641863
Si Si3 0.625522 0.419442 0.386294
Si Si4 0.269545 0.491185 0.339170
Si Si5 0.335201 0.924051 0.930665
Si Si6 0.000000 0.362292 0.250000
Si Si7 0.758209 0.329243 0.659310
O O1 0.497021 0.750722 0.571283
O O2 0.383695 0.815236 0.678091
O O3 0.500000 0.272685 0.750000
O O4 0.582865 0.182185 0.711043
O O5 0.688675 0.275685 0.674997
O O6 0.500000 0.409039 0.250000
O O7 0.689472 0.450925 0.278888
O O8 0.637159 0.464015 0.543700
O O9 0.687820 0.363322 0.481199
O O10 0.233270 0.453235 0.467022
O O11 0.165838 0.529764 0.213565
O O12 0.272015 0.870616 0.820663
O O13 0.448006 0.900748 0.078301
#
# Coordination Sequence:
#
# PCOD9280777 Si02
#       7
#     4   8   8   8   8   4   8
#     4  12  24  46  67  96 144 177 236 292 336 408
#     4  10  25  44  67 100 137 180 231 291 339 412
#     4  10  21  37  63  94 131 173 225 282 346 408
#     4   9  21  39  62  93 132 172 224 285 339 414
#     4  10  21  41  64  95 131 178 223 281 345 409
#     4  10  22  42  67  94 136 179 222 284 346 400
#     4  11  24  43  67  99 136 183 230 280 353 409
#
# _framework density 20.658757999999999
#
# number of rings (size 3 to 8) (size 9 to 14) (size 15 to 20)
#    0.500    1.333    1.667    1.000    3.500    4.667 
#    0.000    7.500    0.000    0.000    0.000    0.000 
#    0.000    0.000    0.000    0.000    0.000    0.000 
#
# Total GULP energy -133799.655630 kJ/mol
# GULP energy per Si atom -5574.985651 kJ/mol
# Density = 2.061174 g / cm^3
# Si number density = 20.658758 Si / 1000 Ang^3
#
#
#
# Elastic Constant Matrix: (Units=GPa)
#
#
# Indices 1 2 3 4 5 6 
#
# 1 86.7901 65.9160 43.9118 0.0000 12.3401 0.0000
# 2 65.9160 63.6768 57.0800 0.0000 18.3474 0.0000
# 3 43.9118 57.0800 124.9675 0.0000 -2.9880 0.0000
# 4 0.0000 0.0000 0.0000 19.1990 0.0000 -4.2212
# 5 12.3401 18.3474 -2.9880 0.0000 33.0158 0.0000
# 6 0.0000 0.0000 0.0000 -4.2212 0.0000 11.1951
#
#
#
# Elastic Compliance Matrix: (Units=1/GPa)
#
#
# Indices 1 2 3 4 5 6 
#
# 1 0.095961 -0.140713 0.031633 0.000000 0.045192 0.000000
# 2 -0.140713 0.245079 -0.064636 0.000000 -0.089450 0.000000
# 3 0.031633 -0.064636 0.027044 0.000000 0.026544 0.000000
# 4 0.000000 0.000000 0.000000 0.056794 0.000000 0.021415
# 5 0.045192 -0.089450 0.026544 0.000000 0.065509 0.000000
# 6 0.000000 0.000000 0.000000 0.021415 0.000000 0.097399
#
#
# Mechanical properties :
#
#
# Convention : Reuss Voigt Hill
#
# Bulk Modulus (GPa) = 48.42047 67.69446 58.05746
# Shear Modulus (GPa) = 5.30728 19.91710 12.61219
#
# Velocity S-wave (km/s) = 1.60456 3.10836 2.47351
# Velocity P-wave (km/s) = 5.18863 6.76178 6.02675
#
# Compressibility (1/GPa) = 0.02065242
#
# Stress axis : x y z
#
# Youngs Moduli (GPa) = 10.42089 4.08032 36.97610
#
# Poissons Ratio (x) = 0.57415 -1.16966
# Poissons Ratio (y) = 1.46635 2.38999
# Poissons Ratio (z) = -0.32964 0.26374
#
# Static dielectric constant tensor:
#      x y z
#    x 1.716040 0.000000 0.001490 
#    y 0.000000 1.744640 0.000000 
#    z 0.001490 0.000000 1.791810 
# 
# From -- ./inp_files/33838.got.cif
#   From: 2010.05.17/outbox.cif.g08.bks.cpg/sg15_17_cif.got.tgz:33838.got - 2010.06.03 18:47:42.
