data_PCOD9280593
_publ_section_title
;
Structure prediction by ZEFSAII (Michael W. Deem and Ramdas Pophale) SiO2 
 PCOD9280593
Probable space group: C 2/C
;
_chemical_formula_sum "Si O2"
_cell_formula_units_Z 36
_cell_length_a 12.812062
_cell_length_b 10.111463
_cell_length_c 13.952353
_cell_angle_alpha 90.000000
_cell_angle_beta 130.259821
_cell_angle_gamma 90.000000
_cell_volume 1379.349404
_symmetry_space_group_name_H-M "C 2/C"
_symmetry_group_IT_number 15
_symmetry_cell_setting 'monoclinic'
loop_
_space_group_symop_operation_xyz
x,y,z
-x,y,1/2-z
-x,-y,-z
x,-y,1/2+z
1/2+x,1/2+y,z
1/2-x,1/2+y,1/2-z
1/2-x,1/2-y,-z
1/2+x,1/2-y,1/2+z
loop_
_atom_site_type_symbol
_atom_site_label
_atom_site_fract_x
_atom_site_fract_y
_atom_site_fract_z
Si Si1 0.000000 0.523156 0.250000
Si Si2 0.327063 0.290155 0.795831
Si Si3 0.344821 0.145725 0.995621
Si Si4 0.329612 0.621987 0.091902
Si Si5 0.294672 0.431033 0.375485
O O1 0.030963 0.610961 0.360901
O O2 0.134592 0.437732 0.312807
O O3 0.389072 0.200957 0.918337
O O4 0.387134 0.332338 0.728478
O O5 0.303060 0.429147 0.830663
O O6 0.198502 0.197104 0.687316
O O7 0.262127 0.007315 0.934692
O O8 0.250000 0.250000 0.000000
O O9 0.250000 0.750000 0.000000
O O10 0.391448 0.573158 0.026310
#
# Coordination Sequence:
#
# PCOD9280593 Si02
#       5
#     4   8   8   8   8
#     4  10  22  38  58  96 126 152 206 262 302 352
#     4  11  19  35  62  91 115 169 201 242 315 363
#     4  11  20  37  63  89 123 160 204 257 302 359
#     4   9  19  34  56  85 118 155 198 245 297 358
#     4  10  21  37  61  92 122 158 206 256 299 367
#
# _framework density 26.099257999999999
#
# number of rings (size 3 to 8) (size 9 to 14) (size 15 to 20)
#    0.000    1.778    6.667    0.000    0.000    0.889 
#    0.000    0.000    0.000   26.667    0.000    0.000 
#    0.000    0.000    0.000    0.000    0.000    0.000 
#
# Total GULP energy -100339.992251 kJ/mol
# GULP energy per Si atom -5574.444014 kJ/mol
# Density = 2.603986 g / cm^3
# Si number density = 26.099258 Si / 1000 Ang^3
#
#
#
# Elastic Constant Matrix: (Units=GPa)
#
#
# Indices 1 2 3 4 5 6 
#
# 1 62.6729 57.4888 48.5571 0.0000 -5.3047 0.0000
# 2 57.4888 200.0931 78.2235 0.0000 -28.4213 0.0000
# 3 48.5571 78.2235 253.8541 0.0000 -55.9283 0.0000
# 4 0.0000 0.0000 0.0000 63.5243 0.0000 -24.4458
# 5 -5.3047 -28.4213 -55.9283 0.0000 45.5364 0.0000
# 6 0.0000 0.0000 0.0000 -24.4458 0.0000 31.1105
#
#
#
# Elastic Compliance Matrix: (Units=1/GPa)
#
#
# Indices 1 2 3 4 5 6 
#
# 1 0.024336 -0.006266 -0.004060 0.000000 -0.006062 0.000000
# 2 -0.006266 0.007420 -0.000313 0.000000 0.003517 0.000000
# 3 -0.004060 -0.000313 0.006396 0.000000 0.007187 0.000000
# 4 0.000000 0.000000 0.000000 0.022565 0.000000 0.017731
# 5 -0.006062 0.003517 0.007187 0.000000 0.032276 0.000000
# 6 0.000000 0.000000 0.000000 0.017731 0.000000 0.046076
#
#
# Mechanical properties :
#
#
# Convention : Reuss Voigt Hill
#
# Bulk Modulus (GPa) = 59.26316 98.35099 78.80707
# Shear Modulus (GPa) = 30.12576 50.19095 40.15836
#
# Velocity S-wave (km/s) = 3.40115 4.39005 3.92685
# Velocity P-wave (km/s) = 6.17899 7.96630 7.12888
#
# Compressibility (1/GPa) = 0.01687389
#
# Stress axis : x y z
#
# Youngs Moduli (GPa) = 41.09194 134.77427 156.35578
#
# Poissons Ratio (x) = 0.84448 0.63476
# Poissons Ratio (y) = 0.25748 0.04895
# Poissons Ratio (z) = 0.16682 0.04219
#
# Static dielectric constant tensor:
#      x y z
#    x 2.176030 0.000000 0.011250 
#    y 0.000000 2.067010 0.000000 
#    z 0.011250 0.000000 2.238250 
# 
# From -- ./inp_files/159564.got.cif
#   From: 2010.05.17/outbox.cif.g08.bks.cpg/sg15_80_cif.got.tgz:159564.got - 2010.06.03 18:47:42.
