data_PCOD9280420
_publ_section_title
;
Structure prediction by ZEFSAII (Michael W. Deem and Ramdas Pophale) SiO2 
 PCOD9280420
Probable space group: C 2/C
;
_chemical_formula_sum "Si O2"
_cell_formula_units_Z 64
_cell_length_a 14.848431
_cell_length_b 23.540833
_cell_length_c 14.807568
_cell_angle_alpha 90.000000
_cell_angle_beta 143.427562
_cell_angle_gamma 90.000000
_cell_volume 3084.002852
_symmetry_space_group_name_H-M "C 2/C"
_symmetry_group_IT_number 15
_symmetry_cell_setting 'monoclinic'
loop_
_space_group_symop_operation_xyz
x,y,z
-x,y,1/2-z
-x,-y,-z
x,-y,1/2+z
1/2+x,1/2+y,z
1/2-x,1/2+y,1/2-z
1/2-x,1/2-y,-z
1/2+x,1/2-y,1/2+z
loop_
_atom_site_type_symbol
_atom_site_label
_atom_site_fract_x
_atom_site_fract_y
_atom_site_fract_z
Si Si1 0.233557 0.829456 0.077124
Si Si2 0.743584 0.465353 0.393053
Si Si3 0.975622 0.742014 0.876516
Si Si4 0.677386 0.593229 0.369010
Si Si5 0.715021 0.177038 0.193883
Si Si6 0.544709 0.905264 0.688274
Si Si7 0.829968 0.965780 0.963509
Si Si8 0.901712 0.924074 0.411419
O O1 0.380266 0.795284 0.228317
O O2 0.169180 0.866407 0.109178
O O3 0.257643 0.874051 0.016160
O O4 0.099746 0.786632 0.938121
O O5 0.754133 0.533494 0.406702
O O6 0.658387 0.453725 0.420424
O O7 0.669496 0.447714 0.238985
O O8 0.899102 0.431012 0.523040
O O9 0.841278 0.776084 0.819545
O O10 0.080116 0.704971 0.026399
O O11 0.500000 0.585028 0.250000
O O12 0.695359 0.633935 0.298594
O O13 0.632532 0.142425 0.204881
O O14 0.500000 0.881973 0.750000
O O15 0.656502 0.957819 0.798123
O O16 0.883467 0.027952 0.974578
O O17 0.924633 0.921953 0.978925
#
# Coordination Sequence:
#
# PCOD9280420 Si02
#       8
#     8   8   8   8   8   8   8   8
#     4  11  23  41  62  95 128 172 220 266 325 380
#     4  11  23  39  60  95 130 167 217 254 315 409
#     4  10  24  42  65  92 126 168 228 271 317 385
#     4  12  24  39  65  95 135 171 212 259 328 400
#     4  11  23  43  65  91 126 171 213 278 327 373
#     4  10  23  42  63  90 129 168 210 267 331 380
#     4  10  21  37  59  92 128 165 208 259 321 400
#     4  11  21  36  65  89 127 168 213 263 325 382
#
# _framework density 20.75225
#
# number of rings (size 3 to 8) (size 9 to 14) (size 15 to 20)
#    0.000    1.250    2.500    3.375    1.750    6.500 
#    2.250    0.625    0.000    6.000    0.000    0.000 
#    0.000    0.000    0.000    0.000    0.000    0.000 
#
# Total GULP energy -178838.050158 kJ/mol
# GULP energy per Si atom -5588.689067 kJ/mol
# Density = 2.070502 g / cm^3
# Si number density = 20.752250 Si / 1000 Ang^3
#
#
#
# Elastic Constant Matrix: (Units=GPa)
#
#
# Indices 1 2 3 4 5 6 
#
# 1 97.1143 36.2795 34.4090 0.0000 0.1730 0.0000
# 2 36.2795 84.4801 32.0276 0.0000 -1.4593 0.0000
# 3 34.4090 32.0276 116.4062 0.0000 4.3150 0.0000
# 4 0.0000 0.0000 0.0000 20.6700 0.0000 -8.7982
# 5 0.1730 -1.4593 4.3150 0.0000 27.9155 0.0000
# 6 0.0000 0.0000 0.0000 -8.7982 0.0000 14.1453
#
#
#
# Elastic Compliance Matrix: (Units=1/GPa)
#
#
# Indices 1 2 3 4 5 6 
#
# 1 0.012913 -0.004573 -0.002562 0.000000 0.000077 0.000000
# 2 -0.004573 0.014879 -0.002788 0.000000 0.001237 0.000000
# 3 -0.002562 -0.002788 0.010178 0.000000 -0.001703 0.000000
# 4 0.000000 0.000000 0.000000 0.065800 0.000000 0.040927
# 5 0.000077 0.001237 -0.001703 0.000000 0.036150 0.000000
# 6 0.000000 0.000000 0.000000 0.040927 0.000000 0.096151
#
#
# Mechanical properties :
#
#
# Convention : Reuss Voigt Hill
#
# Bulk Modulus (GPa) = 55.17193 55.93699 55.55446
# Shear Modulus (GPa) = 19.08707 25.56512 22.32610
#
# Velocity S-wave (km/s) = 3.03604 3.51368 3.28356
# Velocity P-wave (km/s) = 6.23970 6.59352 6.41904
#
# Compressibility (1/GPa) = 0.01812516
#
# Stress axis : x y z
#
# Youngs Moduli (GPa) = 77.44152 67.20774 98.25090
#
# Poissons Ratio (x) = 0.30733 0.25169
# Poissons Ratio (y) = 0.35413 0.27392
# Poissons Ratio (z) = 0.19838 0.18737
#
# Static dielectric constant tensor:
#      x y z
#    x 1.755990 0.000000 -0.000340 
#    y 0.000000 1.755860 0.000000 
#    z -0.000340 0.000000 1.762790 
# 
# From -- ./inp_files/156820.got.cif
#   From: 2010.05.17/outbox.cif.g08.bks.cpg/sg15_79_cif.got.tgz:156820.got - 2010.06.03 18:47:42.
