data_PCOD9280486
_publ_section_title
;
Structure prediction by ZEFSAII (Michael W. Deem and Ramdas Pophale) SiO2 
 PCOD9280486
Probable space group: C 2/C
;
_chemical_formula_sum "Si O2"
_cell_formula_units_Z 52
_cell_length_a 5.347115
_cell_length_b 25.570912
_cell_length_c 22.784151
_cell_angle_alpha 90.000000
_cell_angle_beta 121.342047
_cell_angle_gamma 90.000000
_cell_volume 2660.699299
_symmetry_space_group_name_H-M "C 2/C"
_symmetry_group_IT_number 15
_symmetry_cell_setting 'monoclinic'
loop_
_space_group_symop_operation_xyz
x,y,z
-x,y,1/2-z
-x,-y,-z
x,-y,1/2+z
1/2+x,1/2+y,z
1/2-x,1/2+y,1/2-z
1/2-x,1/2-y,-z
1/2+x,1/2-y,1/2+z
loop_
_atom_site_type_symbol
_atom_site_label
_atom_site_fract_x
_atom_site_fract_y
_atom_site_fract_z
Si Si1 0.638863 0.116697 0.466490
Si Si2 0.494105 0.115184 0.687347
Si Si3 0.000000 0.970579 0.250000
Si Si4 0.498131 0.178776 0.931051
Si Si5 0.149619 0.217435 0.044394
Si Si6 0.687368 0.985490 0.602287
Si Si7 0.900188 0.952891 0.429824
O O1 0.607220 0.141851 0.527943
O O2 0.651684 0.166370 0.425141
O O3 0.397323 0.074120 0.420851
O O4 0.942869 0.084113 0.503845
O O5 0.500000 0.144806 0.750000
O O6 0.543260 0.149142 0.635147
O O7 0.196320 0.084972 0.635111
O O8 0.729897 0.069141 0.724597
O O9 0.909608 0.005823 0.183559
O O10 0.352188 0.236377 0.908655
O O11 0.829852 0.194429 0.989669
O O12 0.250000 0.250000 0.000000
O O13 0.389264 0.017577 0.582596
O O14 0.850926 0.009846 0.566188
#
# Coordination Sequence:
#
# PCOD9280486 Si02
#       7
#     8   8   4   8   8   8   8
#     4  11  21  36  59  90 122 166 199 262 317 365
#     4  11  21  36  61  85 131 163 204 254 320 377
#     4  10  22  40  54  94 122 174 204 250 298 398
#     4  10  21  37  60  91 118 157 206 264 318 373
#     4   9  20  37  59  89 117 148 205 263 317 369
#     4  11  24  36  60  88 132 165 213 247 310 375
#     4  11  22  37  55  92 127 162 209 254 306 379
#
# _framework density 19.543735000000002
#
# number of rings (size 3 to 8) (size 9 to 14) (size 15 to 20)
#    0.000    1.538    3.077    2.769    2.154    0.000 
#    0.000    0.000    0.000    0.000   34.000    0.000 
#    0.000    0.000    0.000    0.000    0.000    0.000 
#
# Total GULP energy -144984.908284 kJ/mol
# GULP energy per Si atom -5576.342626 kJ/mol
# Density = 1.949925 g / cm^3
# Si number density = 19.543735 Si / 1000 Ang^3
#
#
#
# Elastic Constant Matrix: (Units=GPa)
#
#
# Indices 1 2 3 4 5 6 
#
# 1 73.5809 44.1943 17.8032 0.0000 5.6561 0.0000
# 2 44.1943 164.5417 58.9144 0.0000 -5.5978 0.0000
# 3 17.8032 58.9144 98.9167 0.0000 -14.5405 0.0000
# 4 0.0000 0.0000 0.0000 14.3335 0.0000 7.6444
# 5 5.6561 -5.5978 -14.5405 0.0000 30.1310 0.0000
# 6 0.0000 0.0000 0.0000 7.6444 0.0000 37.8989
#
#
#
# Elastic Compliance Matrix: (Units=1/GPa)
#
#
# Indices 1 2 3 4 5 6 
#
# 1 0.016762 -0.004243 -0.001150 0.000000 -0.004490 0.000000
# 2 -0.004243 0.008819 -0.004446 0.000000 0.000289 0.000000
# 3 -0.001150 -0.004446 0.013858 0.000000 0.006077 0.000000
# 4 0.000000 0.000000 0.000000 0.078177 0.000000 -0.015769
# 5 -0.004490 0.000289 0.006077 0.000000 0.037018 0.000000
# 6 0.000000 0.000000 0.000000 -0.015769 0.000000 0.029567
#
#
# Mechanical properties :
#
#
# Convention : Reuss Voigt Hill
#
# Bulk Modulus (GPa) = 50.60499 64.31812 57.46156
# Shear Modulus (GPa) = 23.75682 30.88116 27.31899
#
# Velocity S-wave (km/s) = 3.49029 3.97937 3.74282
# Velocity P-wave (km/s) = 6.49555 7.35494 6.93856
#
# Compressibility (1/GPa) = 0.01976090
#
# Stress axis : x y z
#
# Youngs Moduli (GPa) = 59.65738 113.39063 72.16053
#
# Poissons Ratio (x) = 0.48116 0.08295
# Poissons Ratio (y) = 0.25315 0.32085
# Poissons Ratio (z) = 0.06858 0.50418
#
# Static dielectric constant tensor:
#      x y z
#    x 1.794270 0.000000 0.001900 
#    y 0.000000 1.742010 0.000000 
#    z 0.001900 0.000000 1.727110 
# 
# From -- ./inp_files/261313.got.cif
#   From: 2010.05.17/outbox.cif.g08.bks.cpg/sg15_131_cif.got.tgz:261313.got - 2010.06.03 18:47:42.
