data_PCOD9280609
_publ_section_title
;
Structure prediction by ZEFSAII (Michael W. Deem and Ramdas Pophale) SiO2 
 PCOD9280609
Probable space group: C 2/C
;
_chemical_formula_sum "Si O2"
_cell_formula_units_Z 64
_cell_length_a 18.361808
_cell_length_b 17.840477
_cell_length_c 13.863913
_cell_angle_alpha 90.000000
_cell_angle_beta 39.260689
_cell_angle_gamma 90.000000
_cell_volume 2874.142961
_symmetry_space_group_name_H-M "C 2/C"
_symmetry_group_IT_number 15
_symmetry_cell_setting 'monoclinic'
loop_
_space_group_symop_operation_xyz
x,y,z
-x,y,1/2-z
-x,-y,-z
x,-y,1/2+z
1/2+x,1/2+y,z
1/2-x,1/2+y,1/2-z
1/2-x,1/2-y,-z
1/2+x,1/2-y,1/2+z
loop_
_atom_site_type_symbol
_atom_site_label
_atom_site_fract_x
_atom_site_fract_y
_atom_site_fract_z
Si Si1 0.393519 0.279975 0.619079
Si Si2 0.185668 0.983735 0.120402
Si Si3 0.269402 0.105502 0.148081
Si Si4 0.560045 0.579956 0.916680
Si Si5 0.246208 0.513139 0.663887
Si Si6 0.070208 0.572868 0.090994
Si Si7 0.875833 0.741453 0.417522
Si Si8 0.028119 0.612820 0.916673
O O1 0.279458 0.311710 0.785723
O O2 0.487834 0.347107 0.518217
O O3 0.364236 0.268539 0.537672
O O4 0.434472 0.199867 0.617615
O O5 0.097072 0.929361 0.265841
O O6 0.180516 0.069203 0.162069
O O7 0.308098 0.966123 0.044779
O O8 0.200681 0.983524 0.991015
O O9 0.256893 0.057628 0.260400
O O10 0.405792 0.106792 0.989410
O O11 0.672677 0.574544 0.867850
O O12 0.500000 0.500000 0.000000
O O13 0.125185 0.556644 0.776210
O O14 0.105452 0.652805 0.097800
O O15 0.000000 0.536145 0.250000
O O16 0.014726 0.586796 0.043509
O O17 0.750000 0.750000 0.500000
O O18 0.000000 0.771219 0.250000
#
# Coordination Sequence:
#
# PCOD9280609 Si02
#       8
#     8   8   8   8   8   8   8   8
#     4  11  26  42  68  92 140 185 222 286 348 422
#     4  11  24  40  71  97 132 170 230 285 336 411
#     4  11  24  44  66 101 129 176 231 274 352 408
#     4  11  23  47  65  98 134 180 226 277 348 415
#     4  11  24  42  71 101 131 175 232 286 340 407
#     4  10  21  37  61  94 130 165 211 275 338 402
#     4  10  25  38  58  97 137 173 222 269 350 431
#     4  11  24  42  68  96 136 180 223 285 344 412
#
# _framework density 22.267507999999999
#
# number of rings (size 3 to 8) (size 9 to 14) (size 15 to 20)
#    0.000    1.250    5.000    1.125   12.250    0.500 
#    0.000    0.625    2.750    0.000    0.000    0.000 
#    0.000    0.000    0.000    0.000    0.000    0.000 
#
# Total GULP energy -178546.252483 kJ/mol
# GULP energy per Si atom -5579.570390 kJ/mol
# Density = 2.221683 g / cm^3
# Si number density = 22.267508 Si / 1000 Ang^3
#
#
#
# Elastic Constant Matrix: (Units=GPa)
#
#
# Indices 1 2 3 4 5 6 
#
# 1 59.5647 14.6743 10.1176 0.0000 -9.9946 0.0000
# 2 14.6743 88.0789 5.8574 0.0000 -8.2639 0.0000
# 3 10.1176 5.8574 74.0299 0.0000 -2.7200 0.0000
# 4 0.0000 0.0000 0.0000 27.3711 0.0000 4.4477
# 5 -9.9946 -8.2639 -2.7200 0.0000 37.3373 0.0000
# 6 0.0000 0.0000 0.0000 4.4477 0.0000 8.6696
#
#
#
# Elastic Compliance Matrix: (Units=1/GPa)
#
#
# Indices 1 2 3 4 5 6 
#
# 1 0.018493 -0.002540 -0.002171 0.000000 0.004230 0.000000
# 2 -0.002540 0.011994 -0.000531 0.000000 0.001936 0.000000
# 3 -0.002171 -0.000531 0.013858 0.000000 0.000311 0.000000
# 4 0.000000 0.000000 0.000000 0.039858 0.000000 -0.020448
# 5 0.004230 0.001936 0.000311 0.000000 0.028366 0.000000
# 6 0.000000 0.000000 0.000000 -0.020448 0.000000 0.125836
#
#
# Mechanical properties :
#
#
# Convention : Reuss Voigt Hill
#
# Bulk Modulus (GPa) = 29.53206 31.44134 30.48670
# Shear Modulus (GPa) = 19.21791 27.41055 23.31423
#
# Velocity S-wave (km/s) = 2.94095 3.51232 3.23926
# Velocity P-wave (km/s) = 4.98232 5.53164 5.26415
#
# Compressibility (1/GPa) = 0.03386150
#
# Stress axis : x y z
#
# Youngs Moduli (GPa) = 54.07546 83.37829 72.15950
#
# Poissons Ratio (x) = 0.21176 0.15666
# Poissons Ratio (y) = 0.13734 0.03830
# Poissons Ratio (z) = 0.11740 0.04425
#
# Static dielectric constant tensor:
#      x y z
#    x 2.869450 0.000000 3.686080 
#    y 0.000000 1.292600 -0.000010 
#    z 3.686080 -0.000010 16.268010 
# 
# From -- ./inp_files/163247.got.cif
#   From: 2010.05.17/outbox.cif.g08.bks.cpg/sg15_82_cif.got.tgz:163247.got - 2010.06.03 18:47:42.
