data_PCOD9280444
_publ_section_title
;
Structure prediction by ZEFSAII (Michael W. Deem and Ramdas Pophale) SiO2 
 PCOD9280444
Probable space group: C 2/C
;
_chemical_formula_sum "Si O2"
_cell_formula_units_Z 40
_cell_length_a 21.594801
_cell_length_b 9.587710
_cell_length_c 16.241852
_cell_angle_alpha 90.000000
_cell_angle_beta 34.892817
_cell_angle_gamma 90.000000
_cell_volume 1923.660189
_symmetry_space_group_name_H-M "C 2/C"
_symmetry_group_IT_number 15
_symmetry_cell_setting 'monoclinic'
loop_
_space_group_symop_operation_xyz
x,y,z
-x,y,1/2-z
-x,-y,-z
x,-y,1/2+z
1/2+x,1/2+y,z
1/2-x,1/2+y,1/2-z
1/2-x,1/2-y,-z
1/2+x,1/2-y,1/2+z
loop_
_atom_site_type_symbol
_atom_site_label
_atom_site_fract_x
_atom_site_fract_y
_atom_site_fract_z
Si Si1 0.869128 0.836853 0.282788
Si Si2 0.923760 0.104583 0.032268
Si Si3 0.276458 0.426873 0.551442
Si Si4 0.194559 0.854883 0.685034
Si Si5 0.378648 0.151799 0.867390
O O1 0.795695 0.704678 0.343933
O O2 0.857299 0.870330 0.392581
O O3 0.818582 0.978077 0.299618
O O4 0.989501 0.813076 0.117873
O O5 0.844733 0.025651 0.055385
O O6 0.852294 0.190670 0.175922
O O7 0.000000 0.000000 0.000000
O O8 0.196240 0.540008 0.598867
O O9 0.315284 0.820437 0.522091
O O10 0.122449 0.787636 0.690251
O O11 0.500000 0.103800 0.750000
#
# Coordination Sequence:
#
# PCOD9280444 Si02
#       5
#     8   8   8   8   8
#     4   9  20  37  58  82 114 153 190 231 278 334
#     4  10  21  37  60  86 117 153 190 234 285 340
#     4  10  21  37  60  89 115 147 194 236 284 344
#     4   9  21  37  57  83 112 150 194 227 277 349
#     4  10  22  40  60  83 115 150 188 240 291 335
#
# _framework density 20.793693000000001
#
# number of rings (size 3 to 8) (size 9 to 14) (size 15 to 20)
#    0.000    2.400    0.000    0.600    0.000   19.200 
#    0.000    2.000    0.000    0.000    0.000    0.000 
#    0.000    0.000    0.000    0.000    0.000    0.000 
#
# Total GULP energy -111462.814284 kJ/mol
# GULP energy per Si atom -5573.140714 kJ/mol
# Density = 2.074637 g / cm^3
# Si number density = 20.793693 Si / 1000 Ang^3
#
#
#
# Elastic Constant Matrix: (Units=GPa)
#
#
# Indices 1 2 3 4 5 6 
#
# 1 117.8032 16.6077 69.0499 0.0000 -14.3461 0.0000
# 2 16.6077 76.9883 19.0090 0.0000 -5.3090 0.0000
# 3 69.0499 19.0090 188.6137 0.0000 6.1902 0.0000
# 4 0.0000 0.0000 0.0000 20.7022 0.0000 -1.5633
# 5 -14.3461 -5.3090 6.1902 0.0000 15.8643 0.0000
# 6 0.0000 0.0000 0.0000 -1.5633 0.0000 9.6687
#
#
#
# Elastic Compliance Matrix: (Units=1/GPa)
#
#
# Indices 1 2 3 4 5 6 
#
# 1 0.013378 -0.000616 -0.005294 0.000000 0.013957 0.000000
# 2 -0.000616 0.013760 -0.001311 0.000000 0.004559 0.000000
# 3 -0.005294 -0.001311 0.007641 0.000000 -0.008207 0.000000
# 4 0.000000 0.000000 0.000000 0.048901 0.000000 0.007907
# 5 0.013957 0.004559 -0.008207 0.000000 0.080384 0.000000
# 6 0.000000 0.000000 0.000000 0.007907 0.000000 0.104705
#
#
# Mechanical properties :
#
#
# Convention : Reuss Voigt Hill
#
# Bulk Modulus (GPa) = 49.16922 65.85981 57.51452
# Shear Modulus (GPa) = 17.24198 27.82963 22.53580
#
# Velocity S-wave (km/s) = 2.88269 3.66234 3.29565
# Velocity P-wave (km/s) = 5.89724 7.04453 6.49626
#
# Compressibility (1/GPa) = 0.02033793
#
# Stress axis : x y z
#
# Youngs Moduli (GPa) = 74.74892 72.67467 130.86919
#
# Poissons Ratio (x) = 0.04480 0.69276
# Poissons Ratio (y) = 0.04608 0.17153
# Poissons Ratio (z) = 0.39569 0.09526
#
# Static dielectric constant tensor:
#      x y z
#    x 1.754580 0.000000 0.043310 
#    y 0.000000 1.754250 0.000000 
#    z 0.043310 0.000000 1.809650 
# 
# From -- ./inp_files/218759.got.cif
#   From: 2010.05.17/outbox.cif.g08.bks.cpg/sg15_110_cif.got.tgz:218759.got - 2010.06.03 18:47:42.
