data_PCOD9280090
_publ_section_title
;
Structure prediction by ZEFSAII (Michael W. Deem and Ramdas Pophale) SiO2 
 PCOD9280090
Probable space group: C 2/C
;
_chemical_formula_sum "Si O2"
_cell_formula_units_Z 48
_cell_length_a 10.352681
_cell_length_b 16.876237
_cell_length_c 14.937262
_cell_angle_alpha 90.000000
_cell_angle_beta 72.354192
_cell_angle_gamma 90.000000
_cell_volume 2486.960750
_symmetry_space_group_name_H-M "C 2/C"
_symmetry_group_IT_number 15
_symmetry_cell_setting 'monoclinic'
loop_
_space_group_symop_operation_xyz
x,y,z
-x,y,1/2-z
-x,-y,-z
x,-y,1/2+z
1/2+x,1/2+y,z
1/2-x,1/2+y,1/2-z
1/2-x,1/2-y,-z
1/2+x,1/2-y,1/2+z
loop_
_atom_site_type_symbol
_atom_site_label
_atom_site_fract_x
_atom_site_fract_y
_atom_site_fract_z
Si Si1 0.298662 0.332350 0.947533
Si Si2 0.581541 0.279848 0.946385
Si Si3 0.500000 0.887088 0.250000
Si Si4 0.722379 0.756030 0.229436
Si Si5 0.000000 0.731305 0.250000
Si Si6 0.100624 0.529274 0.555462
Si Si7 0.153735 0.647977 0.055385
O O1 0.450183 0.332710 0.956024
O O2 0.289655 0.312462 0.843346
O O3 0.250000 0.250000 0.000000
O O4 0.206856 0.405507 0.997428
O O5 0.649503 0.270169 0.835628
O O6 0.692227 0.321374 0.985798
O O7 0.569061 0.191300 0.992587
O O8 0.632964 0.831149 0.219057
O O9 0.484814 0.938389 0.342563
O O10 0.878841 0.774951 0.221351
O O11 0.078290 0.679752 0.159651
O O12 0.168288 0.445428 0.563648
O O13 0.000000 0.500000 0.500000
#
# Coordination Sequence:
#
# PCOD9280090 Si02
#       7
#     8   8   4   8   4   8   8
#     4  12  21  37  63  90 122 165 216 253 311 384
#     4  10  21  40  65  89 125 166 214 262 311 384
#     4  12  23  40  66  92 131 164 212 267 318 382
#     4  11  20  38  62  95 120 166 215 258 311 373
#     4  10  21  36  66  90 125 164 220 257 308 392
#     4  12  25  39  62  94 132 165 212 269 322 384
#     4  10  22  40  61  93 127 166 208 264 323 372
#
# _framework density 19.300666
#
# number of rings (size 3 to 8) (size 9 to 14) (size 15 to 20)
#    0.000    1.000    3.333    4.500    0.000    2.000 
#    0.000    0.000    3.667    0.000    0.000    0.000 
#    0.000    0.000    0.000    0.000    0.000    0.000 
#
# Total GULP energy -133762.220839 kJ/mol
# GULP energy per Si atom -5573.425868 kJ/mol
# Density = 1.925674 g / cm^3
# Si number density = 19.300666 Si / 1000 Ang^3
#
#
#
# Elastic Constant Matrix: (Units=GPa)
#
#
# Indices 1 2 3 4 5 6 
#
# 1 144.5476 51.1725 26.0248 0.0000 6.6968 0.0000
# 2 51.1725 117.0610 46.2545 0.0000 -7.2663 0.0000
# 3 26.0248 46.2545 119.3895 0.0000 -0.6412 0.0000
# 4 0.0000 0.0000 0.0000 22.1177 0.0000 -7.3555
# 5 6.6968 -7.2663 -0.6412 0.0000 25.0983 0.0000
# 6 0.0000 0.0000 0.0000 -7.3555 0.0000 23.4887
#
#
#
# Elastic Compliance Matrix: (Units=1/GPa)
#
#
# Indices 1 2 3 4 5 6 
#
# 1 0.008476 -0.003751 -0.000413 0.000000 -0.003358 0.000000
# 2 -0.003751 0.011950 -0.003789 0.000000 0.004364 0.000000
# 3 -0.000413 -0.003789 0.009930 0.000000 -0.000733 0.000000
# 4 0.000000 0.000000 0.000000 0.050469 0.000000 0.015804
# 5 -0.003358 0.004364 -0.000733 0.000000 0.041984 0.000000
# 6 0.000000 0.000000 0.000000 0.015804 0.000000 0.047523
#
#
# Mechanical properties :
#
#
# Convention : Reuss Voigt Hill
#
# Bulk Modulus (GPa) = 69.19518 69.76685 69.48102
# Shear Modulus (GPa) = 26.17093 31.31070 28.74081
#
# Velocity S-wave (km/s) = 3.68633 4.03210 3.86309
# Velocity P-wave (km/s) = 7.35172 7.60940 7.48167
#
# Compressibility (1/GPa) = 0.01445187
#
# Stress axis : x y z
#
# Youngs Moduli (GPa) = 117.98381 83.68206 100.70708
#
# Poissons Ratio (x) = 0.31385 0.04155
# Poissons Ratio (y) = 0.44250 0.38155
# Poissons Ratio (z) = 0.04867 0.31705
#
# Static dielectric constant tensor:
#      x y z
#    x 1.846350 0.000000 0.067020 
#    y 0.000000 1.826180 0.000000 
#    z 0.067020 0.000000 1.731100 
# 
# From -- ./inp_files/143601.got.cif
#   From: 2010.05.17/outbox.cif.g08.bks.cpg/sg15_72_cif.got.tgz:143601.got - 2010.06.03 18:47:42.
