data_PCOD9280214
_publ_section_title
;
Structure prediction by ZEFSAII (Michael W. Deem and Ramdas Pophale) SiO2 
 PCOD9280214
Probable space group: C 2/C
;
_chemical_formula_sum "Si O2"
_cell_formula_units_Z 40
_cell_length_a 9.523935
_cell_length_b 16.932063
_cell_length_c 11.794461
_cell_angle_alpha 90.000000
_cell_angle_beta 124.782434
_cell_angle_gamma 90.000000
_cell_volume 1562.136522
_symmetry_space_group_name_H-M "C 2/C"
_symmetry_group_IT_number 15
_symmetry_cell_setting 'monoclinic'
loop_
_space_group_symop_operation_xyz
x,y,z
-x,y,1/2-z
-x,-y,-z
x,-y,1/2+z
1/2+x,1/2+y,z
1/2-x,1/2+y,1/2-z
1/2-x,1/2-y,-z
1/2+x,1/2-y,1/2+z
loop_
_atom_site_type_symbol
_atom_site_label
_atom_site_fract_x
_atom_site_fract_y
_atom_site_fract_z
Si Si1 0.274516 0.148034 0.713955
Si Si2 0.484909 0.091331 0.479946
Si Si3 0.395123 0.446985 0.543109
Si Si4 0.184795 0.178565 0.249131
Si Si5 0.500000 0.839568 0.750000
Si Si6 0.000000 0.921723 0.250000
O O1 0.415379 0.132217 0.873682
O O2 0.261008 0.087127 0.603596
O O3 0.315045 0.236318 0.691985
O O4 0.098388 0.131717 0.703504
O O5 0.290349 0.121280 0.380646
O O6 0.552946 0.113707 0.386706
O O7 0.500000 0.000000 0.500000
O O8 0.500000 0.500000 0.500000
O O9 0.519967 0.371526 0.633428
O O10 0.376184 0.514975 0.630437
O O11 0.319097 0.196712 0.207907
#
# Coordination Sequence:
#
# PCOD9280214 Si02
#       6
#     8   8   8   8   4   4
#     4  11  22  35  66  88 119 152 202 251 296 343
#     4  10  21  37  56  84 122 157 192 242 299 355
#     4  10  22  39  59  88 126 158 199 243 302 363
#     4  10  21  40  57  92 122 151 196 253 299 348
#     4   8  23  34  60  83 124 142 202 236 303 342
#     4  10  23  38  62  91 122 162 196 246 301 360
#
# _framework density 25.605958000000001
#
# number of rings (size 3 to 8) (size 9 to 14) (size 15 to 20)
#    1.200    0.800    0.000    4.200    5.600    0.800 
#    0.000    1.000    0.000    2.400    0.000    0.000 
#    0.000    0.000    0.000    0.000    0.000    0.000 
#
# Total GULP energy -111635.824413 kJ/mol
# GULP energy per Si atom -5581.791221 kJ/mol
# Density = 2.554768 g / cm^3
# Si number density = 25.605958 Si / 1000 Ang^3
#
#
#
# Elastic Constant Matrix: (Units=GPa)
#
#
# Indices 1 2 3 4 5 6 
#
# 1 112.1273 0.5231 -1.4542 0.0000 11.9673 0.0000
# 2 0.5231 170.3710 41.1364 0.0000 10.7373 0.0000
# 3 -1.4542 41.1364 153.9278 0.0000 4.1093 0.0000
# 4 0.0000 0.0000 0.0000 35.3377 0.0000 -3.1701
# 5 11.9673 10.7373 4.1093 0.0000 38.5142 0.0000
# 6 0.0000 0.0000 0.0000 -3.1701 0.0000 27.2730
#
#
#
# Elastic Compliance Matrix: (Units=1/GPa)
#
#
# Indices 1 2 3 4 5 6 
#
# 1 0.009231 0.000124 0.000132 0.000000 -0.002917 0.000000
# 2 0.000124 0.006373 -0.001658 0.000000 -0.001638 0.000000
# 3 0.000132 -0.001658 0.006949 0.000000 -0.000320 0.000000
# 4 0.000000 0.000000 0.000000 0.028597 0.000000 0.003324
# 5 -0.002917 -0.001638 -0.000320 0.000000 0.027362 0.000000
# 6 0.000000 0.000000 0.000000 0.003324 0.000000 0.037053
#
#
# Mechanical properties :
#
#
# Convention : Reuss Voigt Hill
#
# Bulk Modulus (GPa) = 50.63789 57.42631 54.03210
# Shear Modulus (GPa) = 40.01543 46.63970 43.32756
#
# Velocity S-wave (km/s) = 3.95744 4.27246 4.11796
# Velocity P-wave (km/s) = 6.37970 6.84209 6.61493
#
# Compressibility (1/GPa) = 0.01974806
#
# Stress axis : x y z
#
# Youngs Moduli (GPa) = 108.33196 156.91744 143.89540
#
# Poissons Ratio (x) = -0.01940 -0.01900
# Poissons Ratio (y) = -0.01339 0.23861
# Poissons Ratio (z) = -0.01430 0.26020
#
# Static dielectric constant tensor:
#      x y z
#    x 2.186910 0.000000 0.116800 
#    y 0.000000 1.952940 0.000000 
#    z 0.116800 0.000000 1.780350 
# 
# From -- ./inp_files/154180.got.cif
#   From: 2010.05.17/outbox.cif.g08.bks.cpg/sg15_78_cif.got.tgz:154180.got - 2010.06.03 18:47:42.
