data_PCOD9280244
_publ_section_title
;
Structure prediction by ZEFSAII (Michael W. Deem and Ramdas Pophale) SiO2 
 PCOD9280244
Probable space group: C 2/C
;
_chemical_formula_sum "Si O2"
_cell_formula_units_Z 64
_cell_length_a 8.440424
_cell_length_b 22.641050
_cell_length_c 31.383288
_cell_angle_alpha 90.000000
_cell_angle_beta 33.540365
_cell_angle_gamma 90.000000
_cell_volume 3313.680794
_symmetry_space_group_name_H-M "C 2/C"
_symmetry_group_IT_number 15
_symmetry_cell_setting 'monoclinic'
loop_
_space_group_symop_operation_xyz
x,y,z
-x,y,1/2-z
-x,-y,-z
x,-y,1/2+z
1/2+x,1/2+y,z
1/2-x,1/2+y,1/2-z
1/2-x,1/2-y,-z
1/2+x,1/2-y,1/2+z
loop_
_atom_site_type_symbol
_atom_site_label
_atom_site_fract_x
_atom_site_fract_y
_atom_site_fract_z
Si Si1 0.686314 0.829804 0.800139
Si Si2 0.803555 0.853901 0.382775
Si Si3 0.665477 0.535312 0.827299
Si Si4 0.767702 0.462082 0.721466
Si Si5 0.315127 0.160628 0.920426
Si Si6 0.819021 0.968806 0.077750
Si Si7 0.210120 0.242839 0.458569
Si Si8 0.228597 0.220223 0.736053
O O1 0.597832 0.896386 0.808442
O O2 0.469033 0.795265 0.879905
O O3 0.726797 0.787428 0.750788
O O4 0.000000 0.833373 0.750000
O O5 0.556465 0.854967 0.401851
O O6 0.693458 0.808854 0.443356
O O7 0.922397 0.917531 0.369135
O O8 0.092935 0.821088 0.302219
O O9 0.677031 0.483888 0.788947
O O10 0.598320 0.518407 0.891394
O O11 0.000000 0.558518 0.750000
O O12 0.500000 0.461752 0.750000
O O13 0.994213 0.507492 0.650672
O O14 0.180877 0.100759 0.932088
O O15 0.474317 0.195049 0.846696
O O16 0.071312 0.205250 0.990679
O O17 0.000000 0.000000 0.000000
O O18 0.250000 0.250000 0.500000
O O19 0.000000 0.214574 0.750000
#
# Coordination Sequence:
#
# PCOD9280244 Si02
#       8
#     8   8   8   8   8   8   8   8
#     4  10  21  37  57  83 115 151 194 239 288 345
#     4  10  21  37  58  86 114 149 195 240 291 356
#     4  10  21  38  62  87 111 152 204 249 297 361
#     4  10  21  39  60  84 116 157 200 244 293 355
#     4  11  21  38  59  84 118 153 189 241 298 354
#     4  11  23  39  60  86 118 153 195 248 304 358
#     4  11  22  36  57  87 123 157 193 241 300 361
#     4   9  19  34  57  83 109 144 187 232 282 338
#
# _framework density 19.313870000000001
#
# number of rings (size 3 to 8) (size 9 to 14) (size 15 to 20)
#    0.000    1.750    0.000    4.875    0.000    5.500 
#    0.000    7.500    0.000    0.000    0.000    0.000 
#    0.000    0.000    0.000    0.000    0.000    0.000 
#
# Total GULP energy -178430.310577 kJ/mol
# GULP energy per Si atom -5575.947206 kJ/mol
# Density = 1.926991 g / cm^3
# Si number density = 19.313870 Si / 1000 Ang^3
#
#
#
# Elastic Constant Matrix: (Units=GPa)
#
#
# Indices 1 2 3 4 5 6 
#
# 1 68.5747 21.6858 34.6768 0.0176 13.7580 -0.0218
# 2 21.6858 88.6711 31.8667 0.0119 15.1306 0.0237
# 3 34.6768 31.8667 96.5932 0.0668 15.0381 -0.1767
# 4 0.0176 0.0119 0.0668 27.6662 -0.0840 1.2287
# 5 13.7580 15.1306 15.0381 -0.0840 34.3737 0.1100
# 6 -0.0218 0.0237 -0.1767 1.2287 0.1100 21.6614
#
#
#
# Elastic Compliance Matrix: (Units=1/GPa)
#
#
# Indices 1 2 3 4 5 6 
#
# 1 0.018806 -0.001905 -0.005453 -0.000011 -0.004303 -0.000001
# 2 -0.001905 0.013539 -0.003191 -0.000007 -0.003801 -0.000023
# 3 -0.005453 -0.003191 0.013741 -0.000041 -0.002425 0.000125
# 4 -0.000011 -0.000007 -0.000041 0.036237 0.000121 -0.002056
# 5 -0.004303 -0.003801 -0.002425 0.000121 0.033549 -0.000197
# 6 -0.000001 -0.000023 0.000125 -0.002056 -0.000197 0.046284
#
#
# Mechanical properties :
#
#
# Convention : Reuss Voigt Hill
#
# Bulk Modulus (GPa) = 40.02018 47.81085 43.91552
# Shear Modulus (GPa) = 26.09844 27.78090 26.93967
#
# Velocity S-wave (km/s) = 3.67996 3.79673 3.73880
# Velocity P-wave (km/s) = 6.23074 6.63540 6.43625
#
# Compressibility (1/GPa) = 0.02498739
#
# Stress axis : x y z
#
# Youngs Moduli (GPa) = 53.17512 73.86105 72.77653
#
# Poissons Ratio (x) = 0.14073 0.39683
# Poissons Ratio (y) = 0.10132 0.23222
# Poissons Ratio (z) = 0.28995 0.23568
#
# Static dielectric constant tensor:
#      x y z
#    x 1.677260 0.000030 0.007320 
#    y 0.000030 1.685050 -0.000030 
#    z 0.007320 -0.000030 1.688100 
# 
# From -- ./inp_files/309117.got.cif
#   From: 2010.05.17/outbox.cif.g08.bks.cpg/sg15_155_cif.got.tgz:309117.got - 2010.06.03 18:47:42.
