data_PCOD9280337
_publ_section_title
;
Structure prediction by ZEFSAII (Michael W. Deem and Ramdas Pophale) SiO2 
 PCOD9280337
Probable space group: C 2/C
;
_chemical_formula_sum "Si O2"
_cell_formula_units_Z 56
_cell_length_a 12.000757
_cell_length_b 14.894483
_cell_length_c 15.694970
_cell_angle_alpha 90.000000
_cell_angle_beta 87.554313
_cell_angle_gamma 90.000000
_cell_volume 2802.843151
_symmetry_space_group_name_H-M "C 2/C"
_symmetry_group_IT_number 15
_symmetry_cell_setting 'monoclinic'
loop_
_space_group_symop_operation_xyz
x,y,z
-x,y,1/2-z
-x,-y,-z
x,-y,1/2+z
1/2+x,1/2+y,z
1/2-x,1/2+y,1/2-z
1/2-x,1/2-y,-z
1/2+x,1/2-y,1/2+z
loop_
_atom_site_type_symbol
_atom_site_label
_atom_site_fract_x
_atom_site_fract_y
_atom_site_fract_z
Si Si1 0.500000 0.811737 0.250000
Si Si2 0.027163 0.802406 0.914306
Si Si3 0.927735 0.292773 0.917298
Si Si4 0.314396 0.046403 0.786658
Si Si5 0.762705 0.931206 0.552192
Si Si6 0.604645 0.373539 0.192884
Si Si7 0.087495 0.975284 0.571169
Si Si8 0.000000 0.598383 0.250000
O O1 0.457219 0.753280 0.172105
O O2 0.595895 0.874452 0.207204
O O3 0.135395 0.865878 0.924335
O O4 0.924257 0.871480 0.908187
O O5 0.010098 0.745261 0.001313
O O6 0.840478 0.365080 0.955332
O O7 0.870057 0.205133 0.875876
O O8 0.989180 0.343498 0.837135
O O9 0.213015 0.090880 0.737951
O O10 0.264041 0.003068 0.873571
O O11 0.389712 0.964790 0.745844
O O12 0.796134 0.987253 0.467710
O O13 0.500000 0.337940 0.250000
O O14 0.555692 0.461958 0.149809
O O15 0.000000 0.000000 0.500000
#
# Coordination Sequence:
#
# PCOD9280337 Si02
#       8
#     4   8   8   8   8   8   8   4
#     4  11  26  46  61  90 132 168 213 260 316 369
#     4  11  23  40  61  92 128 162 210 264 313 366
#     4  11  21  38  66  93 123 166 211 261 300 383
#     4  10  24  43  64  89 128 170 207 257 314 383
#     4  10  21  39  63  90 123 163 214 252 314 374
#     4  12  22  37  68  93 125 165 212 258 316 368
#     4  10  21  37  58  90 125 158 204 259 308 373
#     4   9  22  46  61  94 130 166 211 252 318 377
#
# _framework density 19.979711999999999
#
# number of rings (size 3 to 8) (size 9 to 14) (size 15 to 20)
#    0.000    1.429    3.571    3.000    5.000    0.000 
#    2.571    2.857    0.000    0.000    0.000    0.000 
#    0.000    0.000    0.000    0.000    0.000    0.000 
#
# Total GULP energy -156111.217361 kJ/mol
# GULP energy per Si atom -5575.400620 kJ/mol
# Density = 1.993424 g / cm^3
# Si number density = 19.979712 Si / 1000 Ang^3
#
#
#
# Elastic Constant Matrix: (Units=GPa)
#
#
# Indices 1 2 3 4 5 6 
#
# 1 44.1750 15.5318 5.9589 0.0000 -14.4113 0.0000
# 2 15.5318 104.9815 36.9995 0.0000 -12.9336 0.0000
# 3 5.9589 36.9995 58.0162 0.0000 -21.4986 0.0000
# 4 0.0000 0.0000 0.0000 15.1532 0.0000 -5.5701
# 5 -14.4113 -12.9336 -21.4986 0.0000 26.7053 0.0000
# 6 0.0000 0.0000 0.0000 -5.5701 0.0000 13.2928
#
#
#
# Elastic Compliance Matrix: (Units=1/GPa)
#
#
# Indices 1 2 3 4 5 6 
#
# 1 0.029608 -0.004454 0.007013 0.000000 0.019466 0.000000
# 2 -0.004454 0.012962 -0.009083 0.000000 -0.003438 0.000000
# 3 0.007013 -0.009083 0.031469 0.000000 0.024719 0.000000
# 4 0.000000 0.000000 0.000000 0.078009 0.000000 0.032688
# 5 0.019466 -0.003438 0.024719 0.000000 0.066185 0.000000
# 6 0.000000 0.000000 0.000000 0.032688 0.000000 0.088926
#
#
# Mechanical properties :
#
#
# Convention : Reuss Voigt Hill
#
# Bulk Modulus (GPa) = 16.39604 36.01701 26.20652
# Shear Modulus (GPa) = 14.68273 20.94242 17.81258
#
# Velocity S-wave (km/s) = 2.71381 3.24108 2.98909
# Velocity P-wave (km/s) = 4.24781 5.66322 5.00579
#
# Compressibility (1/GPa) = 0.06099035
#
# Stress axis : x y z
#
# Youngs Moduli (GPa) = 33.77508 77.14829 31.77758
#
# Poissons Ratio (x) = 0.34360 -0.22284
# Poissons Ratio (y) = 0.15042 0.28863
# Poissons Ratio (z) = -0.23685 0.70073
#
# Static dielectric constant tensor:
#      x y z
#    x 1.750260 0.000000 -0.041330 
#    y 0.000000 1.711660 0.000000 
#    z -0.041330 0.000000 1.693960 
# 
# From -- ./inp_files/144287.got.cif
#   From: 2010.05.17/outbox.cif.g08.bks.cpg/sg15_73_cif.got.tgz:144287.got - 2010.06.03 18:47:42.
