data_PCOD9280524
_publ_section_title
;
Structure prediction by ZEFSAII (Michael W. Deem and Ramdas Pophale) SiO2 
 PCOD9280524
Probable space group: C 2/C
;
_chemical_formula_sum "Si O2"
_cell_formula_units_Z 48
_cell_length_a 12.464864
_cell_length_b 14.607592
_cell_length_c 16.931087
_cell_angle_alpha 90.000000
_cell_angle_beta 141.661015
_cell_angle_gamma 90.000000
_cell_volume 1912.325442
_symmetry_space_group_name_H-M "C 2/C"
_symmetry_group_IT_number 15
_symmetry_cell_setting 'monoclinic'
loop_
_space_group_symop_operation_xyz
x,y,z
-x,y,1/2-z
-x,-y,-z
x,-y,1/2+z
1/2+x,1/2+y,z
1/2-x,1/2+y,1/2-z
1/2-x,1/2-y,-z
1/2+x,1/2-y,1/2+z
loop_
_atom_site_type_symbol
_atom_site_label
_atom_site_fract_x
_atom_site_fract_y
_atom_site_fract_z
Si Si1 0.742141 0.416121 0.608481
Si Si2 0.500000 0.257172 0.750000
Si Si3 0.747785 0.280642 0.383963
Si Si4 0.913601 0.183789 0.880396
Si Si5 0.500000 0.569657 0.750000
Si Si6 0.609944 0.590907 0.208884
Si Si7 0.771683 0.612630 0.577810
O O1 0.821552 0.318914 0.630027
O O2 0.544722 0.404046 0.463529
O O3 0.719513 0.414718 0.691380
O O4 0.822504 0.506850 0.618484
O O5 0.363297 0.325175 0.715049
O O6 0.411633 0.188059 0.634797
O O7 0.684746 0.296340 0.257626
O O8 0.646482 0.361609 0.368949
O O9 0.952878 0.265275 0.516056
O O10 0.775683 0.152353 0.864155
O O11 0.390427 0.502291 0.742180
O O12 0.409057 0.609714 0.071282
#
# Coordination Sequence:
#
# PCOD9280524 Si02
#       7
#     8   4   8   8   4   8   8
#     4   9  20  37  65  83 116 165 204 236 297 376
#     4  11  24  35  60  88 120 149 200 271 292 346
#     4  10  21  37  60  97 118 161 200 254 295 364
#     4   9  20  38  64  85 124 163 206 236 303 371
#     4  11  22  37  62  88 130 155 200 249 314 350
#     4  10  21  40  59  81 118 169 195 235 312 375
#     4  11  20  39  62  87 115 162 208 246 301 364
#
# _framework density 25.100328999999999
#
# number of rings (size 3 to 8) (size 9 to 14) (size 15 to 20)
#    1.000    1.000    0.000    5.500    0.000    1.333 
#    3.000    0.000    0.000    4.000    0.000    0.000 
#    0.000    0.000    0.000    0.000    0.000    0.000 
#
# Total GULP energy -133791.839831 kJ/mol
# GULP energy per Si atom -5574.659993 kJ/mol
# Density = 2.504320 g / cm^3
# Si number density = 25.100329 Si / 1000 Ang^3
#
#
#
# Elastic Constant Matrix: (Units=GPa)
#
#
# Indices 1 2 3 4 5 6 
#
# 1 30.8222 7.6610 7.9832 0.0000 -14.0699 0.0000
# 2 7.6610 203.9739 1.9634 0.0000 -4.7274 0.0000
# 3 7.9832 1.9634 85.0880 0.0002 -2.4525 0.0001
# 4 0.0000 0.0000 0.0002 35.7240 0.0001 10.2314
# 5 -14.0699 -4.7274 -2.4525 0.0001 44.8351 0.0000
# 6 0.0000 0.0000 0.0001 10.2314 0.0000 20.0025
#
#
#
# Elastic Compliance Matrix: (Units=1/GPa)
#
#
# Indices 1 2 3 4 5 6 
#
# 1 0.039039 -0.001158 -0.003292 0.000000 0.011949 0.000000
# 2 -0.001158 0.004950 -0.000001 0.000000 0.000159 0.000000
# 3 -0.003292 -0.000001 0.012051 0.000000 -0.000374 0.000000
# 4 0.000000 0.000000 0.000000 0.032797 0.000000 -0.016776
# 5 0.011949 0.000159 -0.000374 0.000000 0.026050 0.000000
# 6 0.000000 0.000000 0.000000 -0.016776 0.000000 0.058575
#
#
# Mechanical properties :
#
#
# Convention : Reuss Voigt Hill
#
# Bulk Modulus (GPa) = 21.21400 39.45548 30.33474
# Shear Modulus (GPa) = 25.24301 40.26407 32.75354
#
# Velocity S-wave (km/s) = 3.17469 4.00950 3.61627
# Velocity P-wave (km/s) = 4.68063 6.09820 5.43582
#
# Compressibility (1/GPa) = 0.04713867
#
# Stress axis : x y z
#
# Youngs Moduli (GPa) = 25.61547 202.03030 82.98335
#
# Poissons Ratio (x) = 0.23388 0.27315
# Poissons Ratio (y) = 0.02965 0.00009
# Poissons Ratio (z) = 0.08432 0.00021
#
# Static dielectric constant tensor:
#      x y z
#    x 2.144130 0.000000 0.020290 
#    y 0.000000 2.066510 0.000000 
#    z 0.020290 0.000000 2.080480 
# 
# From -- ./inp_files/244020.got.cif
#   From: 2010.05.17/outbox.cif.g08.bks.cpg/sg15_123_cif.got.tgz:244020.got - 2010.06.03 18:47:42.
