data_PCOD9280754
_publ_section_title
;
Structure prediction by ZEFSAII (Michael W. Deem and Ramdas Pophale) SiO2 
 PCOD9280754
Probable space group: C 2/C
;
_chemical_formula_sum "Si O2"
_cell_formula_units_Z 40
_cell_length_a 17.023979
_cell_length_b 6.788755
_cell_length_c 18.546372
_cell_angle_alpha 90.000000
_cell_angle_beta 105.870367
_cell_angle_gamma 90.000000
_cell_volume 2061.732742
_symmetry_space_group_name_H-M "C 2/C"
_symmetry_group_IT_number 15
_symmetry_cell_setting 'monoclinic'
loop_
_space_group_symop_operation_xyz
x,y,z
-x,y,1/2-z
-x,-y,-z
x,-y,1/2+z
1/2+x,1/2+y,z
1/2-x,1/2+y,1/2-z
1/2-x,1/2-y,-z
1/2+x,1/2-y,1/2+z
loop_
_atom_site_type_symbol
_atom_site_label
_atom_site_fract_x
_atom_site_fract_y
_atom_site_fract_z
Si Si1 0.456699 0.802373 0.958882
Si Si2 0.165994 0.082582 0.811991
Si Si3 0.335654 0.924263 0.801947
Si Si4 0.555422 0.717150 0.204861
Si Si5 0.924490 0.975866 0.568796
O O1 0.400777 0.834363 0.874555
O O2 0.531682 0.659670 0.957579
O O3 0.400313 0.683652 0.002242
O O4 0.500000 0.000000 0.000000
O O5 0.172283 0.293902 0.773077
O O6 0.140269 0.058483 0.889283
O O7 0.248174 0.960695 0.816498
O O8 0.093010 0.973137 0.752031
O O9 0.372267 0.139579 0.797203
O O10 0.500000 0.827311 0.250000
O O11 0.496196 0.644536 0.127762
#
# Coordination Sequence:
#
# PCOD9280754 Si02
#       5
#     8   8   8   8   8
#     4  11  23  40  65  92 124 168 209 254 310 379
#     4  11  24  40  61  95 127 161 204 264 308 366
#     4  12  23  39  64  92 127 163 207 259 319 362
#     4  10  21  37  63  92 118 158 210 256 304 365
#     4  10  23  42  63  91 127 161 212 256 306 373
#
# _framework density 19.401156
#
# number of rings (size 3 to 8) (size 9 to 14) (size 15 to 20)
#    0.000    1.200    6.000    0.000    2.800    0.800 
#    0.000    1.000    0.000    0.000    0.000    0.000 
#    0.000    0.000    0.000    0.000    0.000    0.000 
#
# Total GULP energy -111460.499974 kJ/mol
# GULP energy per Si atom -5573.024999 kJ/mol
# Density = 1.935700 g / cm^3
# Si number density = 19.401156 Si / 1000 Ang^3
#
#
#
# Elastic Constant Matrix: (Units=GPa)
#
#
# Indices 1 2 3 4 5 6 
#
# 1 89.4011 22.8096 15.6783 0.0000 -27.7519 0.0000
# 2 22.8096 88.6189 36.4769 0.0000 -20.6845 0.0000
# 3 15.6783 36.4769 64.5459 0.0000 -25.5139 0.0000
# 4 0.0000 0.0000 0.0000 13.8619 0.0000 0.8570
# 5 -27.7519 -20.6845 -25.5139 0.0000 35.5056 0.0000
# 6 0.0000 0.0000 0.0000 0.8570 0.0000 26.0921
#
#
#
# Elastic Compliance Matrix: (Units=1/GPa)
#
#
# Indices 1 2 3 4 5 6 
#
# 1 0.015107 -0.001963 0.002312 0.000000 0.012326 0.000000
# 2 -0.001963 0.015302 -0.007338 0.000000 0.002107 0.000000
# 3 0.002312 -0.007338 0.025285 0.000000 0.015702 0.000000
# 4 0.000000 0.000000 0.000000 0.072287 0.000000 -0.002374
# 5 0.012326 0.002107 0.015702 0.000000 0.050309 0.000000
# 6 0.000000 0.000000 0.000000 -0.002374 0.000000 0.038404
#
#
# Mechanical properties :
#
#
# Convention : Reuss Voigt Hill
#
# Bulk Modulus (GPa) = 23.97169 43.61060 33.79115
# Shear Modulus (GPa) = 20.44353 26.26533 23.35443
#
# Velocity S-wave (km/s) = 3.24964 3.68340 3.47330
# Velocity P-wave (km/s) = 5.14420 6.37315 5.79137
#
# Compressibility (1/GPa) = 0.04171588
#
# Stress axis : x y z
#
# Youngs Moduli (GPa) = 66.19394 65.35218 39.54974
#
# Poissons Ratio (x) = 0.12829 -0.09144
# Poissons Ratio (y) = 0.12995 0.29021
# Poissons Ratio (z) = -0.15304 0.47954
#
# Static dielectric constant tensor:
#      x y z
#    x 1.668150 0.000000 -0.051180 
#    y 0.000000 1.689760 0.000000 
#    z -0.051180 0.000000 1.739530 
# 
# From -- ./inp_files/207991.got.cif
#   From: 2010.05.17/outbox.cif.g08.bks.cpg/sg15_104_cif.got.tgz:207991.got - 2010.06.03 18:47:42.
