data_PCOD9280080
_publ_section_title
;
Structure prediction by ZEFSAII (Michael W. Deem and Ramdas Pophale) SiO2 
 PCOD9280080
Probable space group: C 2/C
;
_chemical_formula_sum "Si O2"
_cell_formula_units_Z 56
_cell_length_a 24.405656
_cell_length_b 8.789860
_cell_length_c 15.500663
_cell_angle_alpha 90.000000
_cell_angle_beta 128.892230
_cell_angle_gamma 90.000000
_cell_volume 2588.126741
_symmetry_space_group_name_H-M "C 2/C"
_symmetry_group_IT_number 15
_symmetry_cell_setting 'monoclinic'
loop_
_space_group_symop_operation_xyz
x,y,z
-x,y,1/2-z
-x,-y,-z
x,-y,1/2+z
1/2+x,1/2+y,z
1/2-x,1/2+y,1/2-z
1/2-x,1/2-y,-z
1/2+x,1/2-y,1/2+z
loop_
_atom_site_type_symbol
_atom_site_label
_atom_site_fract_x
_atom_site_fract_y
_atom_site_fract_z
Si Si1 0.632078 0.833702 0.320493
Si Si2 0.263592 0.244977 0.377087
Si Si3 0.101067 0.836188 0.468004
Si Si4 0.245386 0.412536 0.803166
Si Si5 0.176573 0.672470 0.395284
Si Si6 0.424158 0.683148 0.080924
Si Si7 0.467820 0.160536 0.940821
O O1 0.698724 0.719571 0.377586
O O2 0.573027 0.757149 0.321621
O O3 0.595501 0.858874 0.191163
O O4 0.662608 0.990727 0.391857
O O5 0.241873 0.408879 0.316828
O O6 0.262115 0.117810 0.303806
O O7 0.343231 0.270225 0.481837
O O8 0.178056 0.860348 0.587653
O O9 0.116245 0.751029 0.392342
O O10 0.056885 0.746374 0.496550
O O11 0.070114 0.001412 0.415909
O O12 0.186846 0.322075 0.801672
O O13 0.250000 0.750000 0.500000
O O14 0.473395 0.749293 0.055362
O O15 0.500000 0.000000 0.000000
#
# Coordination Sequence:
#
# PCOD9280080 Si02
#       7
#     8   8   8   8   8   8   8
#     4  11  23  44  66  98 133 178 221 272 341 400
#     4  10  21  36  65  94 130 161 217 268 331 386
#     4  10  21  44  62  95 131 175 216 280 329 398
#     4   9  19  35  61  96 126 164 207 267 328 384
#     4   9  20  38  67  97 132 162 220 273 333 397
#     4  11  25  41  66  98 132 173 227 274 335 395
#     4  12  26  44  69  92 135 181 228 275 331 408
#
# _framework density 21.637270999999998
#
# number of rings (size 3 to 8) (size 9 to 14) (size 15 to 20)
#    0.000    1.714    1.429    3.000    4.000    3.429 
#    0.000    2.857    0.000    0.000    0.000    0.000 
#    0.000    0.000    0.000    0.000    0.000    0.000 
#
# Total GULP energy -156157.240596 kJ/mol
# GULP energy per Si atom -5577.044307 kJ/mol
# Density = 2.158802 g / cm^3
# Si number density = 21.637271 Si / 1000 Ang^3
#
#
#
# Elastic Constant Matrix: (Units=GPa)
#
#
# Indices 1 2 3 4 5 6 
#
# 1 184.1011 51.3206 20.3272 0.0000 -13.6424 0.0000
# 2 51.3206 72.6543 8.6622 0.0000 -12.7172 0.0000
# 3 20.3272 8.6622 41.4744 0.0000 7.7473 0.0000
# 4 0.0000 0.0000 0.0000 18.6011 0.0000 -0.7937
# 5 -13.6424 -12.7172 7.7473 0.0000 27.4726 0.0000
# 6 0.0000 0.0000 0.0000 -0.7937 0.0000 41.1210
#
#
#
# Elastic Compliance Matrix: (Units=1/GPa)
#
#
# Indices 1 2 3 4 5 6 
#
# 1 0.007135 -0.004247 -0.003066 0.000000 0.002442 0.000000
# 2 -0.004247 0.018414 -0.003127 0.000000 0.007297 0.000000
# 3 -0.003066 -0.003127 0.028313 0.000000 -0.010955 0.000000
# 4 0.000000 0.000000 0.000000 0.053804 0.000000 0.001038
# 5 0.002442 0.007297 -0.010955 0.000000 0.044079 0.000000
# 6 0.000000 0.000000 0.000000 0.001038 0.000000 0.024338
#
#
# Mechanical properties :
#
#
# Convention : Reuss Voigt Hill
#
# Bulk Modulus (GPa) = 30.32008 50.98331 40.65170
# Shear Modulus (GPa) = 24.04311 31.96694 28.00503
#
# Velocity S-wave (km/s) = 3.33707 3.84787 3.60154
# Velocity P-wave (km/s) = 5.37507 6.58448 6.01027
#
# Compressibility (1/GPa) = 0.03298144
#
# Stress axis : x y z
#
# Youngs Moduli (GPa) = 140.14951 54.30690 35.31890
#
# Poissons Ratio (x) = 0.23065 0.10829
# Poissons Ratio (y) = 0.59523 0.11045
# Poissons Ratio (z) = 0.42972 0.16983
#
# Static dielectric constant tensor:
#      x y z
#    x 1.863960 0.000000 -0.010880 
#    y 0.000000 1.787220 0.000000 
#    z -0.010880 0.000000 1.837050 
# 
# From -- ./inp_files/172492.got.cif
#   From: 2010.05.17/outbox.cif.g08.bks.cpg/sg15_87_cif.got.tgz:172492.got - 2010.06.03 18:47:42.
