data_PCOD9280049
_publ_section_title
;
Structure prediction by ZEFSAII (Michael W. Deem and Ramdas Pophale) SiO2 
 PCOD9280049
Probable space group: C 2/C
;
_chemical_formula_sum "Si O2"
_cell_formula_units_Z 64
_cell_length_a 28.264407
_cell_length_b 22.582431
_cell_length_c 8.856190
_cell_angle_alpha 90.000000
_cell_angle_beta 34.313386
_cell_angle_gamma 90.000000
_cell_volume 3186.546021
_symmetry_space_group_name_H-M "C 2/C"
_symmetry_group_IT_number 15
_symmetry_cell_setting 'monoclinic'
loop_
_space_group_symop_operation_xyz
x,y,z
-x,y,1/2-z
-x,-y,-z
x,-y,1/2+z
1/2+x,1/2+y,z
1/2-x,1/2+y,1/2-z
1/2-x,1/2-y,-z
1/2+x,1/2-y,1/2+z
loop_
_atom_site_type_symbol
_atom_site_label
_atom_site_fract_x
_atom_site_fract_y
_atom_site_fract_z
Si Si1 0.066556 0.142782 0.194892
Si Si2 0.780638 0.837574 0.801121
Si Si3 0.280464 0.050184 0.895246
Si Si4 0.276410 0.281912 0.147255
Si Si5 0.302863 0.112720 0.514860
Si Si6 0.553438 0.403958 0.244302
Si Si7 0.439827 0.966774 0.543233
Si Si8 0.655274 0.447164 0.257353
O O1 0.000000 0.164002 0.250000
O O2 0.018364 0.132190 0.477053
O O3 0.139507 0.190719 0.006079
O O4 0.100994 0.079839 0.038017
O O5 0.741670 0.787348 0.797233
O O6 0.872049 0.861525 0.512864
O O7 0.722348 0.894706 0.983165
O O8 0.784013 0.805119 0.954727
O O9 0.275682 0.074895 0.736673
O O10 0.363676 0.010741 0.694964
O O11 0.198285 0.011116 0.150580
O O12 0.203551 0.319562 0.420316
O O13 0.237483 0.095966 0.553641
O O14 0.393729 0.089503 0.234535
O O15 0.500000 0.434222 0.250000
O O16 0.600747 0.441792 0.249075
O O17 0.500000 0.000000 0.500000
O O18 0.500000 0.949343 0.250000
#
# Coordination Sequence:
#
# PCOD9280049 Si02
#       8
#     8   8   8   8   8   8   8   8
#     4   9  18  38  61  87 129 163 191 255 318 356
#     4  10  21  36  64  88 116 161 217 250 301 369
#     4  10  21  38  62  87 122 167 212 251 301 383
#     4   9  18  39  63  87 118 162 212 254 298 371
#     4   9  19  37  62  87 122 164 208 250 310 372
#     4  11  21  37  60  91 124 155 207 258 308 365
#     4  11  21  36  61  93 129 163 202 262 321 371
#     4   9  21  36  61  84 122 166 194 245 313 376
#
# _framework density 20.084443
#
# number of rings (size 3 to 8) (size 9 to 14) (size 15 to 20)
#    0.000    2.250    2.500    0.000    3.500    0.000 
#    0.000   10.000    0.000    4.500    0.000    0.000 
#    0.000    0.000    0.000    0.000    0.000    0.000 
#
# Total GULP energy -178433.190368 kJ/mol
# GULP energy per Si atom -5576.037199 kJ/mol
# Density = 2.003873 g / cm^3
# Si number density = 20.084443 Si / 1000 Ang^3
#
#
#
# Elastic Constant Matrix: (Units=GPa)
#
#
# Indices 1 2 3 4 5 6 
#
# 1 83.8982 27.2056 17.5753 0.0000 -15.5971 0.0000
# 2 27.2056 115.6060 52.6654 0.0000 -8.6049 0.0000
# 3 17.5753 52.6654 128.3430 0.0000 -7.4573 0.0000
# 4 0.0000 0.0000 0.0000 13.5646 0.0000 -5.4579
# 5 -15.5971 -8.6049 -7.4573 0.0000 25.7829 0.0000
# 6 0.0000 0.0000 0.0000 -5.4579 0.0000 16.6827
#
#
#
# Elastic Compliance Matrix: (Units=1/GPa)
#
#
# Indices 1 2 3 4 5 6 
#
# 1 0.014272 -0.002585 -0.000450 0.000000 0.007641 0.000000
# 2 -0.002585 0.011246 -0.004204 0.000000 0.000974 0.000000
# 3 -0.000450 -0.004204 0.009643 0.000000 0.001114 0.000000
# 4 0.000000 0.000000 0.000000 0.084897 0.000000 0.027775
# 5 0.007641 0.000974 0.001114 0.000000 0.044055 0.000000
# 6 0.000000 0.000000 0.000000 0.027775 0.000000 0.069029
#
#
# Mechanical properties :
#
#
# Convention : Reuss Voigt Hill
#
# Bulk Modulus (GPa) = 48.34788 58.08222 53.21505
# Shear Modulus (GPa) = 19.64517 26.56609 23.10563
#
# Velocity S-wave (km/s) = 3.13090 3.64087 3.39547
# Velocity P-wave (km/s) = 6.09874 6.83054 6.47499
#
# Compressibility (1/GPa) = 0.02068343
#
# Stress axis : x y z
#
# Youngs Moduli (GPa) = 70.06639 88.91908 103.70059
#
# Poissons Ratio (x) = 0.22986 0.04663
# Poissons Ratio (y) = 0.18113 0.43599
# Poissons Ratio (z) = 0.03151 0.37384
#
# Static dielectric constant tensor:
#      x y z
#    x 2.923420 0.000000 1.007560 
#    y 0.000000 1.545140 0.000000 
#    z 1.007560 0.000000 2.545770 
# 
# From -- ./inp_files/70969.got.cif
#   From: 2010.05.17/outbox.cif.g08.bks.cpg/sg15_36_cif.got.tgz:70969.got - 2010.06.03 18:47:42.
