data_PCOD9280255
_publ_section_title
;
Structure prediction by ZEFSAII (Michael W. Deem and Ramdas Pophale) SiO2 
 PCOD9280255
Probable space group: C 2/C
;
_chemical_formula_sum "Si O2"
_cell_formula_units_Z 48
_cell_length_a 11.843159
_cell_length_b 26.072402
_cell_length_c 9.281599
_cell_angle_alpha 90.000000
_cell_angle_beta 111.946800
_cell_angle_gamma 90.000000
_cell_volume 2658.275392
_symmetry_space_group_name_H-M "C 2/C"
_symmetry_group_IT_number 15
_symmetry_cell_setting 'monoclinic'
loop_
_space_group_symop_operation_xyz
x,y,z
-x,y,1/2-z
-x,-y,-z
x,-y,1/2+z
1/2+x,1/2+y,z
1/2-x,1/2+y,1/2-z
1/2-x,1/2-y,-z
1/2+x,1/2-y,1/2+z
loop_
_atom_site_type_symbol
_atom_site_label
_atom_site_fract_x
_atom_site_fract_y
_atom_site_fract_z
Si Si1 0.951563 0.549859 0.561784
Si Si2 0.891428 0.359002 0.454331
Si Si3 0.469963 0.677221 0.070014
Si Si4 0.238405 0.199409 0.093467
Si Si5 0.115184 0.288462 0.539783
Si Si6 0.262715 0.122069 0.589060
O O1 0.814402 0.571531 0.530362
O O2 0.000000 0.547243 0.750000
O O3 0.000000 0.500000 0.500000
O O4 0.013185 0.594853 0.496837
O O5 0.804321 0.347932 0.545556
O O6 0.814964 0.371764 0.274814
O O7 0.976586 0.308831 0.484846
O O8 0.500000 0.668278 0.250000
O O9 0.597952 0.685080 0.051334
O O10 0.396681 0.730809 0.021469
O O11 0.381021 0.631929 0.976608
O O12 0.310603 0.210294 0.275804
O O13 0.250000 0.250000 0.000000
O O14 0.178144 0.329538 0.465944
#
# Coordination Sequence:
#
# PCOD9280255 Si02
#       6
#     8   8   8   8   8   8
#     4   9  20  39  64  92 110 140 184 243 306 346
#     4  10  21  37  57  85 116 147 192 244 291 334
#     4  12  23  36  55  79 120 166 201 231 287 345
#     4  12  24  35  51  85 117 159 205 236 280 332
#     4  11  21  35  54  77 118 160 201 238 274 338
#     4  10  21  38  58  81 115 152 192 234 292 349
#
# _framework density 18.056820999999999
#
# number of rings (size 3 to 8) (size 9 to 14) (size 15 to 20)
#    0.000    1.333    3.333    4.500    0.000    4.667 
#    0.000    0.000    0.000    1.000    0.000    0.000 
#    0.000    0.000    0.000    0.000    0.000    0.000 
#
# Total GULP energy -133730.147711 kJ/mol
# GULP energy per Si atom -5572.089488 kJ/mol
# Density = 1.801572 g / cm^3
# Si number density = 18.056821 Si / 1000 Ang^3
#
#
#
# Elastic Constant Matrix: (Units=GPa)
#
#
# Indices 1 2 3 4 5 6 
#
# 1 101.2085 3.6399 -21.5541 0.0000 21.8128 0.0000
# 2 3.6399 42.3729 -40.1896 0.0000 22.4381 0.0000
# 3 -21.5541 -40.1896 -12.8743 0.0000 41.9671 0.0000
# 4 0.0000 0.0000 0.0000 20.8711 0.0000 -11.8294
# 5 21.8128 22.4381 41.9671 0.0000 8.0423 0.0000
# 6 0.0000 0.0000 0.0000 -11.8294 0.0000 27.6912
#
#
#
# Elastic Compliance Matrix: (Units=1/GPa)
#
#
# Indices 1 2 3 4 5 6 
#
# 1 0.009325 -0.003733 -0.002912 0.000000 0.000321 0.000000
# 2 -0.003733 0.013062 -0.006680 0.000000 0.008542 0.000000
# 3 -0.002912 -0.006680 0.001919 0.000000 0.016524 0.000000
# 4 0.000000 0.000000 0.000000 0.063220 0.000000 0.027007
# 5 0.000321 0.008542 0.016524 0.000000 0.013414 0.000000
# 6 0.000000 0.000000 0.000000 0.027007 0.000000 0.047650
#
#
# Mechanical properties :
#
#
# Convention : Reuss Voigt Hill
#
# Bulk Modulus (GPa) = -426.32455 1.61106 -212.35675
# Shear Modulus (GPa) = 28.65998 23.90830 26.28414
#
# Velocity S-wave (km/s) = 3.98830 3.64271 3.81942
# Velocity P-wave (km/s) = 14.67670 4.31122 9.92015
#
# Compressibility (1/GPa) = -0.00234563
#
# Stress axis : x y z
#
# Youngs Moduli (GPa) = 107.23331 76.55973 521.17549
#
# Poissons Ratio (x) = 0.28582 1.51788
# Poissons Ratio (y) = 0.40034 3.48145
# Poissons Ratio (z) = 0.31231 0.51142
#
# Static dielectric constant tensor:
#      x y z
#    x 1.752220 0.000000 0.048930 
#    y 0.000000 1.641040 0.000000 
#    z 0.048930 0.000000 1.632850 
# 
# From -- ./inp_files/32487.got.cif
#   From: 2010.05.17/outbox.cif.g08.bks.cpg/sg15_17_cif.got.tgz:32487.got - 2010.06.03 18:47:42.
