data_PCOD9280802
_publ_section_title
;
Structure prediction by ZEFSAII (Michael W. Deem and Ramdas Pophale) SiO2 
 PCOD9280802
Probable space group: C 2/C
;
_chemical_formula_sum "Si O2"
_cell_formula_units_Z 32
_cell_length_a 10.574318
_cell_length_b 15.960429
_cell_length_c 8.497941
_cell_angle_alpha 90.000000
_cell_angle_beta 86.578405
_cell_angle_gamma 90.000000
_cell_volume 1431.646436
_symmetry_space_group_name_H-M "C 2/C"
_symmetry_group_IT_number 15
_symmetry_cell_setting 'monoclinic'
loop_
_space_group_symop_operation_xyz
x,y,z
-x,y,1/2-z
-x,-y,-z
x,-y,1/2+z
1/2+x,1/2+y,z
1/2-x,1/2+y,1/2-z
1/2-x,1/2-y,-z
1/2+x,1/2-y,1/2+z
loop_
_atom_site_type_symbol
_atom_site_label
_atom_site_fract_x
_atom_site_fract_y
_atom_site_fract_z
Si Si1 0.918446 0.209846 0.041868
Si Si2 0.312720 0.673901 0.400334
Si Si3 0.649582 0.037095 0.253426
Si Si4 0.308378 0.122451 0.569006
O O1 0.856456 0.198747 0.219740
O O2 0.920734 0.310757 0.029419
O O3 0.051107 0.162045 0.026098
O O4 0.820983 0.175449 0.919688
O O5 0.250000 0.750000 0.500000
O O6 0.218812 0.596367 0.376810
O O7 0.500000 0.051978 0.250000
O O8 0.670313 0.939698 0.289969
O O9 0.704120 0.063711 0.081962
#
# Coordination Sequence:
#
# PCOD9280802 Si02
#       4
#     8   8   8   8
#     4   9  21  41  61  86 125 164 196 245 313 360
#     4  10  21  37  64  88 119 159 204 249 298 364
#     4  11  23  36  60  92 120 155 208 251 299 356
#     4  10  22  39  61  87 122 159 201 253 302 357
#
# _framework density 22.351887000000001
#
# number of rings (size 3 to 8) (size 9 to 14) (size 15 to 20)
#    0.000    2.000    0.000    2.250    7.000    1.000 
#    0.000    0.000    0.000    0.000    0.000    0.000 
#    0.000    0.000    0.000    0.000    0.000    0.000 
#
# Total GULP energy -89291.403609 kJ/mol
# GULP energy per Si atom -5580.712726 kJ/mol
# Density = 2.230101 g / cm^3
# Si number density = 22.351887 Si / 1000 Ang^3
#
#
#
# Elastic Constant Matrix: (Units=GPa)
#
#
# Indices 1 2 3 4 5 6 
#
# 1 131.6579 36.8656 5.7248 0.0000 27.2188 0.0000
# 2 36.8656 120.9825 19.3989 0.0000 13.5350 0.0000
# 3 5.7248 19.3989 27.9284 0.0000 3.4287 0.0000
# 4 0.0000 0.0000 0.0000 45.4033 0.0000 21.0161
# 5 27.2188 13.5350 3.4287 0.0000 26.2022 0.0000
# 6 0.0000 0.0000 0.0000 21.0161 0.0000 18.4990
#
#
#
# Elastic Compliance Matrix: (Units=1/GPa)
#
#
# Indices 1 2 3 4 5 6 
#
# 1 0.010127 -0.002112 0.000558 0.000000 -0.009502 0.000000
# 2 -0.002112 0.010179 -0.006364 0.000000 -0.002231 0.000000
# 3 0.000558 -0.006364 0.040429 0.000000 -0.002583 0.000000
# 4 0.000000 0.000000 0.000000 0.046452 0.000000 -0.052772
# 5 -0.009502 -0.002231 -0.002583 0.000000 0.049526 0.000000
# 6 0.000000 0.000000 0.000000 -0.052772 0.000000 0.114010
#
#
# Mechanical properties :
#
#
# Convention : Reuss Voigt Hill
#
# Bulk Modulus (GPa) = 22.27223 44.94969 33.61096
# Shear Modulus (GPa) = 16.58240 32.59286 24.58763
#
# Velocity S-wave (km/s) = 2.72670 3.82274 3.32026
# Velocity P-wave (km/s) = 4.46085 6.29588 5.45607
#
# Compressibility (1/GPa) = 0.04489896
#
# Stress axis : x y z
#
# Youngs Moduli (GPa) = 98.74532 98.23850 24.73493
#
# Poissons Ratio (x) = 0.20751 -0.01380
# Poissons Ratio (y) = 0.20858 0.15740
# Poissons Ratio (z) = -0.05508 0.62515
#
# Static dielectric constant tensor:
#      x y z
#    x 1.876940 0.000000 0.013490 
#    y 0.000000 1.855760 0.000000 
#    z 0.013490 0.000000 1.845050 
# 
# From -- ./inp_files/27620.got.cif
#   From: 2010.05.17/outbox.cif.g08.bks.cpg/sg15_14_cif.got.tgz:27620.got - 2010.06.03 18:47:42.
