data_PCOD9280482
_publ_section_title
;
Structure prediction by ZEFSAII (Michael W. Deem and Ramdas Pophale) SiO2 
 PCOD9280482
Probable space group: C 2/C
;
_chemical_formula_sum "Si O2"
_cell_formula_units_Z 64
_cell_length_a 6.536982
_cell_length_b 27.338771
_cell_length_c 18.115842
_cell_angle_alpha 90.000000
_cell_angle_beta 104.569056
_cell_angle_gamma 90.000000
_cell_volume 3133.434968
_symmetry_space_group_name_H-M "C 2/C"
_symmetry_group_IT_number 15
_symmetry_cell_setting 'monoclinic'
loop_
_space_group_symop_operation_xyz
x,y,z
-x,y,1/2-z
-x,-y,-z
x,-y,1/2+z
1/2+x,1/2+y,z
1/2-x,1/2+y,1/2-z
1/2-x,1/2-y,-z
1/2+x,1/2-y,1/2+z
loop_
_atom_site_type_symbol
_atom_site_label
_atom_site_fract_x
_atom_site_fract_y
_atom_site_fract_z
Si Si1 0.048241 0.945320 0.593925
Si Si2 0.835168 0.877702 0.669956
Si Si3 0.499114 0.294697 0.919648
Si Si4 0.017954 0.868598 0.164797
Si Si5 0.877644 0.637953 0.112629
Si Si6 0.786697 0.052523 0.920605
Si Si7 0.244294 0.701891 0.909916
Si Si8 0.056147 0.382943 0.054189
O O1 0.226379 0.905251 0.625922
O O2 0.871576 0.932071 0.639337
O O3 0.941989 0.936537 0.504206
O O4 0.156753 0.997993 0.599792
O O5 0.882498 0.840392 0.607184
O O6 0.599855 0.865079 0.673245
O O7 0.000000 0.869173 0.750000
O O8 0.254735 0.311466 0.895912
O O9 0.586907 0.247333 0.885370
O O10 0.580691 0.287489 0.010787
O O11 0.157105 0.911687 0.141349
O O12 0.130451 0.818620 0.148695
O O13 0.000000 0.871860 0.250000
O O14 0.786324 0.874827 0.108855
O O15 0.924636 0.624268 0.031508
O O16 0.554217 0.066159 0.930574
O O17 0.100414 0.658425 0.929081
#
# Coordination Sequence:
#
# PCOD9280482 Si02
#       8
#     8   8   8   8   8   8   8   8
#     4  10  21  37  60  90 120 158 211 261 303 370
#     4  11  23  40  59  86 128 161 200 266 319 366
#     4  10  21  38  62  90 119 153 205 254 300 374
#     4  11  23  40  59  88 127 160 197 253 317 366
#     4  11  19  37  64  89 117 164 209 248 315 374
#     4  10  21  37  60  91 121 157 212 260 302 369
#     4  10  21  38  63  91 119 153 205 255 299 367
#     4  11  19  37  62  86 117 162 203 251 303 370
#
# _framework density 20.424869000000001
#
# number of rings (size 3 to 8) (size 9 to 14) (size 15 to 20)
#    0.000    1.500    5.000    1.500    0.000    7.500 
#    2.250    1.250    0.000    0.000    0.000    0.000 
#    0.000    0.000    0.000    0.000    0.000    0.000 
#
# Total GULP energy -178579.728703 kJ/mol
# GULP energy per Si atom -5580.616522 kJ/mol
# Density = 2.037838 g / cm^3
# Si number density = 20.424869 Si / 1000 Ang^3
#
#
#
# Elastic Constant Matrix: (Units=GPa)
#
#
# Indices 1 2 3 4 5 6 
#
# 1 120.6868 44.3732 35.6311 0.0000 6.7030 0.0000
# 2 44.3732 104.1203 21.0862 0.0000 -1.5474 0.0000
# 3 35.6311 21.0862 75.7056 0.0000 0.8212 0.0000
# 4 0.0000 0.0000 0.0000 9.9103 0.0000 1.5807
# 5 6.7030 -1.5474 0.8212 0.0000 31.3591 0.0000
# 6 0.0000 0.0000 0.0000 1.5807 0.0000 35.8465
#
#
#
# Elastic Compliance Matrix: (Units=1/GPa)
#
#
# Indices 1 2 3 4 5 6 
#
# 1 0.011074 -0.003927 -0.004092 0.000000 -0.002454 0.000000
# 2 -0.003927 0.011582 -0.001393 0.000000 0.001447 0.000000
# 3 -0.004092 -0.001393 0.015518 0.000000 0.000399 0.000000
# 4 0.000000 0.000000 0.000000 0.101620 0.000000 -0.004481
# 5 -0.002454 0.001447 0.000399 0.000000 0.032474 0.000000
# 6 0.000000 0.000000 0.000000 -0.004481 0.000000 0.028094
#
#
# Mechanical properties :
#
#
# Convention : Reuss Voigt Hill
#
# Bulk Modulus (GPa) = 51.67909 55.85483 53.76696
# Shear Modulus (GPa) = 22.15952 28.71799 25.43875
#
# Velocity S-wave (km/s) = 3.29740 3.75378 3.53296
# Velocity P-wave (km/s) = 6.31301 6.79659 6.55926
#
# Compressibility (1/GPa) = 0.01935019
#
# Stress axis : x y z
#
# Youngs Moduli (GPa) = 90.30030 86.34358 64.43932
#
# Poissons Ratio (x) = 0.33910 0.26366
# Poissons Ratio (y) = 0.35464 0.08977
# Poissons Ratio (z) = 0.36947 0.12029
#
# Static dielectric constant tensor:
#      x y z
#    x 1.790240 0.000000 0.001540 
#    y 0.000000 1.760160 0.000000 
#    z 0.001540 0.000000 1.710000 
# 
# From -- ./inp_files/228814.got.cif
#   From: 2010.05.17/outbox.cif.g08.bks.cpg/sg15_115_cif.got.tgz:228814.got - 2010.06.03 18:47:42.
