data_PCOD9280767
_publ_section_title
;
Structure prediction by ZEFSAII (Michael W. Deem and Ramdas Pophale) SiO2 
 PCOD9280767
Probable space group: C 2/C
;
_chemical_formula_sum "Si O2"
_cell_formula_units_Z 44
_cell_length_a 16.351796
_cell_length_b 13.999110
_cell_length_c 7.726036
_cell_angle_alpha 90.000000
_cell_angle_beta 74.517562
_cell_angle_gamma 90.000000
_cell_volume 1704.394111
_symmetry_space_group_name_H-M "C 2/C"
_symmetry_group_IT_number 15
_symmetry_cell_setting 'monoclinic'
loop_
_space_group_symop_operation_xyz
x,y,z
-x,y,1/2-z
-x,-y,-z
x,-y,1/2+z
1/2+x,1/2+y,z
1/2-x,1/2+y,1/2-z
1/2-x,1/2-y,-z
1/2+x,1/2-y,1/2+z
loop_
_atom_site_type_symbol
_atom_site_label
_atom_site_fract_x
_atom_site_fract_y
_atom_site_fract_z
Si Si1 0.326808 0.901699 0.402141
Si Si2 0.000000 0.519132 0.250000
Si Si3 0.276555 0.427523 0.361570
Si Si4 0.500000 0.689679 0.250000
Si Si5 0.000000 0.857052 0.250000
Si Si6 0.069338 0.697850 0.413321
Si Si7 0.885426 0.071450 0.107213
O O1 0.284643 0.876723 0.241840
O O2 0.346213 0.816777 0.523752
O O3 0.417431 0.953503 0.318832
O O4 0.272789 0.978808 0.539882
O O5 0.967452 0.596996 0.128049
O O6 0.352159 0.470774 0.198936
O O7 0.310875 0.386927 0.524765
O O8 0.496202 0.756612 0.416663
O O9 0.417420 0.626313 0.259571
O O10 0.072224 0.779292 0.266194
O O11 0.964154 0.919562 0.428115
#
# Coordination Sequence:
#
# PCOD9280767 Si02
#       7
#     8   4   8   4   4   8   8
#     4  11  21  39  62  96 126 168 209 268 304 368
#     4  11  21  36  66  93 129 164 226 256 295 361
#     4  10  24  40  64  91 133 157 212 262 327 361
#     4  10  23  41  67  91 128 164 220 250 310 383
#     4   9  22  43  65  88 129 162 220 254 305 386
#     4  10  21  37  63  94 122 166 213 257 302 369
#     4  10  23  45  63  97 120 167 210 269 312 372
#
# _framework density 25.815626999999999
#
# number of rings (size 3 to 8) (size 9 to 14) (size 15 to 20)
#    0.000    1.818    1.818    1.091    2.545    8.000 
#    0.000    5.455    0.000    0.000    0.000    0.000 
#    0.000    0.000    0.000    0.000    0.000    0.000 
#
# Total GULP energy -122808.237224 kJ/mol
# GULP energy per Si atom -5582.192601 kJ/mol
# Density = 2.575687 g / cm^3
# Si number density = 25.815627 Si / 1000 Ang^3
#
#
#
# Elastic Constant Matrix: (Units=GPa)
#
#
# Indices 1 2 3 4 5 6 
#
# 1 128.4699 37.3071 42.2042 0.0000 45.2287 0.0000
# 2 37.3071 73.7658 28.2180 0.0000 18.3133 0.0000
# 3 42.2042 28.2180 89.2178 0.0000 32.2575 0.0000
# 4 0.0000 0.0000 0.0000 29.7360 0.0000 5.3643
# 5 45.2287 18.3133 32.2575 0.0000 81.6155 0.0000
# 6 0.0000 0.0000 0.0000 5.3643 0.0000 26.6453
#
#
#
# Elastic Compliance Matrix: (Units=1/GPa)
#
#
# Indices 1 2 3 4 5 6 
#
# 1 0.011223 -0.003598 -0.002584 0.000000 -0.004391 0.000000
# 2 -0.003598 0.016803 -0.003465 0.000000 -0.000407 0.000000
# 3 -0.002584 -0.003465 0.014850 0.000000 -0.003660 0.000000
# 4 0.000000 0.000000 0.000000 0.034897 0.000000 -0.007025
# 5 -0.004391 -0.000407 -0.003660 0.000000 0.016224 0.000000
# 6 0.000000 0.000000 0.000000 -0.007025 0.000000 0.038944
#
#
# Mechanical properties :
#
#
# Convention : Reuss Voigt Hill
#
# Bulk Modulus (GPa) = 42.40413 56.32357 49.36385
# Shear Modulus (GPa) = 31.23140 39.84765 35.53953
#
# Velocity S-wave (km/s) = 3.48197 3.93306 3.71437
# Velocity P-wave (km/s) = 5.71200 6.51846 6.12851
#
# Compressibility (1/GPa) = 0.02358261
#
# Stress axis : x y z
#
# Youngs Moduli (GPa) = 89.09945 59.51455 67.34005
#
# Poissons Ratio (x) = 0.21412 0.17398
# Poissons Ratio (y) = 0.32056 0.23336
# Poissons Ratio (z) = 0.23020 0.20624
#
# Static dielectric constant tensor:
#      x y z
#    x 2.155210 0.000000 0.042530 
#    y 0.000000 2.010950 0.000000 
#    z 0.042530 0.000000 2.111870 
# 
# From -- ./inp_files/39187.got.cif
#   From: 2010.05.17/outbox.cif.g08.bks.cpg/sg15_20_cif.got.tgz:39187.got - 2010.06.03 18:47:42.
