data_PCOD9280833
_publ_section_title
;
Structure prediction by ZEFSAII (Michael W. Deem and Ramdas Pophale) SiO2 
 PCOD9280833
Probable space group: C 2/C
;
_chemical_formula_sum "Si O2"
_cell_formula_units_Z 56
_cell_length_a 13.535699
_cell_length_b 8.287133
_cell_length_c 27.852075
_cell_angle_alpha 90.000000
_cell_angle_beta 128.833631
_cell_angle_gamma 90.000000
_cell_volume 2433.679048
_symmetry_space_group_name_H-M "C 2/C"
_symmetry_group_IT_number 15
_symmetry_cell_setting 'monoclinic'
loop_
_space_group_symop_operation_xyz
x,y,z
-x,y,1/2-z
-x,-y,-z
x,-y,1/2+z
1/2+x,1/2+y,z
1/2-x,1/2+y,1/2-z
1/2-x,1/2-y,-z
1/2+x,1/2-y,1/2+z
loop_
_atom_site_type_symbol
_atom_site_label
_atom_site_fract_x
_atom_site_fract_y
_atom_site_fract_z
Si Si1 0.711093 0.095931 0.583122
Si Si2 0.552805 0.990045 0.377777
Si Si3 0.451994 0.314160 0.901399
Si Si4 0.524675 0.259901 0.311488
Si Si5 0.281304 0.560800 0.005486
Si Si6 0.190760 0.628461 0.164794
Si Si7 0.201391 0.046223 0.708150
O O1 0.595738 0.206265 0.568115
O O2 0.837644 0.196291 0.628879
O O3 0.717195 0.029182 0.531207
O O4 0.727526 0.948400 0.625610
O O5 0.519467 0.066187 0.316543
O O6 0.463558 0.110557 0.382587
O O7 0.505800 0.813110 0.378353
O O8 0.700998 0.998867 0.435603
O O9 0.565775 0.438382 0.948643
O O10 0.336448 0.404694 0.839919
O O11 0.500000 0.303353 0.250000
O O12 0.425068 0.367503 0.310141
O O13 0.250000 0.750000 0.000000
O O14 0.253378 0.801690 0.193858
O O15 0.230667 0.520204 0.223403
#
# Coordination Sequence:
#
# PCOD9280833 Si02
#       7
#     8   8   8   8   8   8   8
#     4  11  22  42  67  95 133 172 226 276 339 407
#     4   9  22  40  65  90 130 171 216 275 341 392
#     4  10  22  42  66  96 130 182 220 282 340 410
#     4  11  22  41  66  98 131 170 217 280 341 406
#     4  10  22  44  67  92 133 181 227 279 339 405
#     4  10  21  37  64  95 125 176 216 280 339 409
#     4  11  21  41  65  93 138 171 221 277 349 403
#
# _framework density 23.010431000000001
#
# number of rings (size 3 to 8) (size 9 to 14) (size 15 to 20)
#    0.000    1.714    2.857    1.714    2.000    5.714 
#    5.143    1.429    0.000    0.000    0.000    0.000 
#    0.000    0.000    0.000    0.000    0.000    0.000 
#
# Total GULP energy -156086.294392 kJ/mol
# GULP energy per Si atom -5574.510514 kJ/mol
# Density = 2.295806 g / cm^3
# Si number density = 23.010431 Si / 1000 Ang^3
#
#
#
# Elastic Constant Matrix: (Units=GPa)
#
#
# Indices 1 2 3 4 5 6 
#
# 1 44.7338 6.6813 6.2474 0.0000 4.8076 0.0000
# 2 6.6813 68.9254 14.2915 0.0000 -8.9256 0.0000
# 3 6.2474 14.2915 42.2148 0.0000 10.1572 0.0000
# 4 0.0000 0.0000 0.0000 42.5121 0.0000 -0.3457
# 5 4.8076 -8.9256 10.1572 0.0000 23.3763 0.0000
# 6 0.0000 0.0000 0.0000 -0.3457 0.0000 27.0316
#
#
#
# Elastic Compliance Matrix: (Units=1/GPa)
#
#
# Indices 1 2 3 4 5 6 
#
# 1 0.023508 -0.002698 -0.001289 0.000000 -0.005305 0.000000
# 2 -0.002698 0.017920 -0.008317 0.000000 0.011011 0.000000
# 3 -0.001289 -0.008317 0.030593 0.000000 -0.016203 0.000000
# 4 0.000000 0.000000 0.000000 0.023525 0.000000 0.000301
# 5 -0.005305 0.011011 -0.016203 0.000000 0.055114 0.000000
# 6 0.000000 0.000000 0.000000 0.000301 0.000000 0.036998
#
#
# Mechanical properties :
#
#
# Convention : Reuss Voigt Hill
#
# Bulk Modulus (GPa) = 21.09129 23.36826 22.22978
# Shear Modulus (GPa) = 21.92298 27.16090 24.54194
#
# Velocity S-wave (km/s) = 3.09000 3.43938 3.26936
# Velocity P-wave (km/s) = 4.68152 5.09412 4.89217
#
# Compressibility (1/GPa) = 0.04741293
#
# Stress axis : x y z
#
# Youngs Moduli (GPa) = 42.53941 55.80242 32.68683
#
# Poissons Ratio (x) = 0.15058 0.04213
# Poissons Ratio (y) = 0.11479 0.27185
# Poissons Ratio (z) = 0.05483 0.46410
#
# Static dielectric constant tensor:
#      x y z
#    x 1.941810 0.000000 0.022590 
#    y 0.000000 1.936400 0.000000 
#    z 0.022590 0.000000 1.852760 
# 
# From -- ./inp_files/312953.got.cif
#   From: 2010.05.17/outbox.cif.g08.bks.cpg/sg15_157_cif.got.tgz:312953.got - 2010.06.03 18:47:42.
