data_PCOD9280759
_publ_section_title
;
Structure prediction by ZEFSAII (Michael W. Deem and Ramdas Pophale) SiO2 
 PCOD9280759
Probable space group: C 2/C
;
_chemical_formula_sum "Si O2"
_cell_formula_units_Z 48
_cell_length_a 12.383513
_cell_length_b 18.404320
_cell_length_c 11.388529
_cell_angle_alpha 90.000000
_cell_angle_beta 117.254443
_cell_angle_gamma 90.000000
_cell_volume 2307.406228
_symmetry_space_group_name_H-M "C 2/C"
_symmetry_group_IT_number 15
_symmetry_cell_setting 'monoclinic'
loop_
_space_group_symop_operation_xyz
x,y,z
-x,y,1/2-z
-x,-y,-z
x,-y,1/2+z
1/2+x,1/2+y,z
1/2-x,1/2+y,1/2-z
1/2-x,1/2-y,-z
1/2+x,1/2-y,1/2+z
loop_
_atom_site_type_symbol
_atom_site_label
_atom_site_fract_x
_atom_site_fract_y
_atom_site_fract_z
Si Si1 0.127263 0.246595 0.297911
Si Si2 0.986762 0.900147 0.104298
Si Si3 0.331848 0.136436 0.492867
Si Si4 0.800077 0.021730 0.917836
Si Si5 0.119478 0.591496 0.230526
Si Si6 0.807648 0.212827 0.416299
O O1 0.229982 0.191810 0.393503
O O2 0.113435 0.316501 0.374030
O O3 0.159125 0.262542 0.178648
O O4 0.000000 0.205345 0.250000
O O5 0.000000 0.891299 0.250000
O O6 0.114651 0.923572 0.112507
O O7 0.929866 0.828843 0.016429
O O8 0.890442 0.963613 0.023717
O O9 0.270510 0.066104 0.518581
O O10 0.409118 0.111507 0.418803
O O11 0.703875 0.979672 0.787883
O O12 0.206934 0.655191 0.322802
O O13 0.000000 0.585304 0.250000
O O14 0.750000 0.250000 0.500000
#
# Coordination Sequence:
#
# PCOD9280759 Si02
#       6
#     8   8   8   8   8   8
#     4  10  22  40  62  87 120 165 210 253 306 374
#     4  10  21  37  63  92 124 164 208 266 314 371
#     4  10  22  40  62  87 122 163 207 255 309 381
#     4  10  21  39  62  92 123 162 216 257 315 375
#     4  10  23  41  61  91 128 164 208 264 321 376
#     4  10  23  39  60  95 128 163 214 264 313 379
#
# _framework density 20.802579000000001
#
# number of rings (size 3 to 8) (size 9 to 14) (size 15 to 20)
#    0.000    2.000    0.000    2.000    4.667    5.333 
#    0.000    0.000    0.000    0.000    0.000    0.000 
#    0.000    0.000    0.000    0.000    0.000    0.000 
#
# Total GULP energy -134028.816985 kJ/mol
# GULP energy per Si atom -5584.534041 kJ/mol
# Density = 2.075523 g / cm^3
# Si number density = 20.802579 Si / 1000 Ang^3
#
#
#
# Elastic Constant Matrix: (Units=GPa)
#
#
# Indices 1 2 3 4 5 6 
#
# 1 119.4603 35.7577 57.6310 0.0000 -12.7029 0.0000
# 2 35.7577 60.5003 39.6764 0.0000 -20.9650 0.0000
# 3 57.6310 39.6764 132.9579 0.0000 -27.5008 0.0000
# 4 0.0000 0.0000 0.0000 -36.7897 0.0000 0.0594
# 5 -12.7029 -20.9650 -27.5008 0.0000 30.9164 0.0000
# 6 0.0000 0.0000 0.0000 0.0594 0.0000 20.3755
#
#
#
# Elastic Compliance Matrix: (Units=1/GPa)
#
#
# Indices 1 2 3 4 5 6 
#
# 1 0.011542 -0.004967 -0.003966 0.000000 -0.002154 0.000000
# 2 -0.004967 0.025830 -0.002885 0.000000 0.012908 0.000000
# 3 -0.003966 -0.002885 0.011470 0.000000 0.006617 0.000000
# 4 0.000000 0.000000 0.000000 -0.027181 0.000000 0.000079
# 5 -0.002154 0.012908 0.006617 0.000000 0.046099 0.000000
# 6 0.000000 0.000000 0.000000 0.000079 0.000000 0.049078
#
#
# Mechanical properties :
#
#
# Convention : Reuss Voigt Hill
#
# Bulk Modulus (GPa) = 39.67455 64.33875 52.00665
# Shear Modulus (GPa) = 33.58492 14.89066 24.23779
#
# Velocity S-wave (km/s) = 4.02239 2.67836 3.41711
# Velocity P-wave (km/s) = 6.37857 6.36869 6.37363
#
# Compressibility (1/GPa) = 0.02520507
#
# Stress axis : x y z
#
# Youngs Moduli (GPa) = 86.63893 38.71520 87.18510
#
# Poissons Ratio (x) = 0.19230 0.34580
# Poissons Ratio (y) = 0.43034 0.25152
# Poissons Ratio (z) = 0.34363 0.11169
#
# Static dielectric constant tensor:
#      x y z
#    x 1.722070 0.000000 0.020050 
#    y 0.000000 1.744480 0.000000 
#    z 0.020050 0.000000 1.780430 
# 
# From -- ./inp_files/87876.got.cif
#   From: 2010.05.17/outbox.cif.g08.bks.cpg/sg15_44_cif.got.tgz:87876.got - 2010.06.03 18:47:42.
