data_PCOD9280159
_publ_section_title
;
Structure prediction by ZEFSAII (Michael W. Deem and Ramdas Pophale) SiO2 
 PCOD9280159
Probable space group: C 2/C
;
_chemical_formula_sum "Si O2"
_cell_formula_units_Z 64
_cell_length_a 17.553412
_cell_length_b 20.971785
_cell_length_c 22.819713
_cell_angle_alpha 90.000000
_cell_angle_beta 19.556469
_cell_angle_gamma 90.000000
_cell_volume 2811.960404
_symmetry_space_group_name_H-M "C 2/C"
_symmetry_group_IT_number 15
_symmetry_cell_setting 'monoclinic'
loop_
_space_group_symop_operation_xyz
x,y,z
-x,y,1/2-z
-x,-y,-z
x,-y,1/2+z
1/2+x,1/2+y,z
1/2-x,1/2+y,1/2-z
1/2-x,1/2-y,-z
1/2+x,1/2-y,1/2+z
loop_
_atom_site_type_symbol
_atom_site_label
_atom_site_fract_x
_atom_site_fract_y
_atom_site_fract_z
Si Si1 0.563467 0.872162 0.407940
Si Si2 0.859635 0.778317 0.666353
Si Si3 0.229255 0.946845 0.456267
Si Si4 0.238170 0.914612 0.926280
Si Si5 0.135874 0.339552 0.479063
Si Si6 0.942037 0.894138 0.041136
Si Si7 0.553213 0.654282 0.274463
Si Si8 0.112329 0.814085 0.098401
O O1 0.598709 0.795592 0.375075
O O2 0.611703 0.887135 0.441666
O O3 0.731759 0.902401 0.238430
O O4 0.295373 0.881554 0.593314
O O5 0.924566 0.798194 0.686111
O O6 0.010971 0.821012 0.512307
O O7 0.599378 0.801875 0.845299
O O8 0.500000 0.941827 0.250000
O O9 0.108296 0.928257 0.483170
O O10 0.137924 0.897451 0.570173
O O11 0.171758 0.020823 0.507774
O O12 0.500000 0.903214 0.750000
O O13 0.106197 0.851850 0.042741
O O14 0.167059 0.920581 0.910160
O O15 0.355900 0.297541 0.301709
O O16 0.242901 0.361264 0.463258
O O17 0.500000 0.685098 0.250000
O O18 0.250000 0.750000 0.000000
#
# Coordination Sequence:
#
# PCOD9280159 Si02
#       8
#     8   8   8   8   8   8   8   8
#     4  11  21  37  63  93 127 165 200 254 318 384
#     4  10  22  36  62  90 128 162 201 252 315 389
#     4  10  23  45  67  89 119 166 222 276 321 370
#     4  11  24  40  63  94 126 169 222 265 310 380
#     4  10  21  37  54  87 131 166 202 239 305 387
#     4  11  21  40  66  91 125 171 215 263 320 376
#     4  10  22  41  62  90 121 159 208 262 329 375
#     4  11  23  35  59  90 129 168 204 252 309 380
#
# _framework density 22.759922
#
# number of rings (size 3 to 8) (size 9 to 14) (size 15 to 20)
#    0.000    1.500    1.250    4.125    3.500    0.500 
#    2.250    3.750    2.750    0.000    0.000    0.000 
#    0.000    0.000    0.000    0.000    0.000    0.000 
#
# Total GULP energy -178692.308664 kJ/mol
# GULP energy per Si atom -5584.134646 kJ/mol
# Density = 2.270812 g / cm^3
# Si number density = 22.759922 Si / 1000 Ang^3
#
#
#
# Elastic Constant Matrix: (Units=GPa)
#
#
# Indices 1 2 3 4 5 6 
#
# 1 127.4202 -5.6765 7.2399 -0.0454 -4.7044 0.0362
# 2 -5.6765 62.2693 8.2597 -0.0685 6.0321 0.0218
# 3 7.2399 8.2597 88.1949 0.1380 -3.0489 -0.0521
# 4 -0.0454 -0.0685 0.1380 20.3698 -0.0918 -0.4772
# 5 -4.7044 6.0321 -3.0489 -0.0918 33.4117 -0.0111
# 6 0.0362 0.0218 -0.0521 -0.4772 -0.0111 13.1107
#
#
#
# Elastic Compliance Matrix: (Units=1/GPa)
#
#
# Indices 1 2 3 4 5 6 
#
# 1 0.007954 0.000727 -0.000689 0.000028 0.000926 -0.000024
# 2 0.000727 0.016651 -0.001725 0.000055 -0.003061 -0.000037
# 3 -0.000689 -0.001725 0.011601 -0.000079 0.001273 0.000049
# 4 0.000028 0.000055 -0.000079 0.049136 0.000123 0.001788
# 5 0.000926 -0.003061 0.001273 0.000123 0.030729 0.000038
# 6 -0.000024 -0.000037 0.000049 0.001788 0.000038 0.076339
#
#
# Mechanical properties :
#
#
# Convention : Reuss Voigt Hill
#
# Bulk Modulus (GPa) = 30.45895 33.05895 31.75895
# Shear Modulus (GPa) = 24.18643 31.24919 27.71781
#
# Velocity S-wave (km/s) = 3.26341 3.70941 3.49353
# Velocity P-wave (km/s) = 5.25467 5.73611 5.50066
#
# Compressibility (1/GPa) = 0.03283107
#
# Stress axis : x y z
#
# Youngs Moduli (GPa) = 125.72638 60.05665 86.20095
#
# Poissons Ratio (x) = -0.04365 0.05940
# Poissons Ratio (y) = -0.09138 0.14870
# Poissons Ratio (z) = 0.08663 0.10360
#
# Static dielectric constant tensor:
#      x y z
#    x 1.978310 0.000010 0.030770 
#    y 0.000010 1.840610 0.000090 
#    z 0.030770 0.000090 1.868840 
# 
# From -- ./inp_files/278250.got.cif
#   From: 2010.05.17/outbox.cif.g08.bks.cpg/sg15_140_cif.got.tgz:278250.got - 2010.06.03 18:47:42.
