data_PCOD9280812
_publ_section_title
;
Structure prediction by ZEFSAII (Michael W. Deem and Ramdas Pophale) SiO2 
 PCOD9280812
Probable space group: C 2/C
;
_chemical_formula_sum "Si O2"
_cell_formula_units_Z 52
_cell_length_a 26.256169
_cell_length_b 11.762212
_cell_length_c 8.683787
_cell_angle_alpha 90.000000
_cell_angle_beta 117.941984
_cell_angle_gamma 90.000000
_cell_volume 2369.179613
_symmetry_space_group_name_H-M "C 2/C"
_symmetry_group_IT_number 15
_symmetry_cell_setting 'monoclinic'
loop_
_space_group_symop_operation_xyz
x,y,z
-x,y,1/2-z
-x,-y,-z
x,-y,1/2+z
1/2+x,1/2+y,z
1/2-x,1/2+y,1/2-z
1/2-x,1/2-y,-z
1/2+x,1/2-y,1/2+z
loop_
_atom_site_type_symbol
_atom_site_label
_atom_site_fract_x
_atom_site_fract_y
_atom_site_fract_z
Si Si1 0.372671 0.610914 0.052019
Si Si2 0.000000 0.075668 0.250000
Si Si3 0.003789 0.783771 0.434076
Si Si4 0.106617 0.659894 0.080649
Si Si5 0.043733 0.438758 0.948785
Si Si6 0.729102 0.866965 0.898698
Si Si7 0.205228 0.028809 0.287931
O O1 0.432737 0.540300 0.134100
O O2 0.338477 0.591529 0.160263
O O3 0.384140 0.743510 0.034815
O O4 0.331967 0.564129 0.858216
O O5 0.991571 0.135462 0.409621
O O6 0.944468 0.716094 0.389814
O O7 0.000000 0.829368 0.250000
O O8 0.055555 0.690138 0.516859
O O9 0.162269 0.641514 0.263620
O O10 0.090582 0.536033 0.988738
O O11 0.000000 0.419232 0.750000
O O12 0.000000 0.500000 0.000000
O O13 0.764215 0.891317 0.792205
O O14 0.750000 0.750000 0.000000
O O15 0.746634 0.966464 0.040998
#
# Coordination Sequence:
#
# PCOD9280812 Si02
#       7
#     8   4   8   8   8   8   8
#     4  10  22  43  66  93 123 165 212 271 326 389
#     4  10  22  40  68  96 126 174 220 264 328 404
#     4   9  20  38  59  94 136 170 208 258 326 393
#     4  10  21  37  64  91 124 168 212 261 323 397
#     4   9  19  32  55  83 126 162 193 252 314 382
#     4  11  23  45  67  93 129 172 224 275 323 393
#     4  10  24  45  66  91 128 170 218 275 331 378
#
# _framework density 21.948526000000001
#
# number of rings (size 3 to 8) (size 9 to 14) (size 15 to 20)
#    0.000    2.154    1.538    0.000    9.692    6.154 
#    2.769    0.000    0.000    0.000    0.000    0.000 
#    0.000    0.000    0.000    0.000    0.000    0.000 
#
# Total GULP energy -144836.197186 kJ/mol
# GULP energy per Si atom -5570.622969 kJ/mol
# Density = 2.189857 g / cm^3
# Si number density = 21.948526 Si / 1000 Ang^3
#
#
#
# Elastic Constant Matrix: (Units=GPa)
#
#
# Indices 1 2 3 4 5 6 
#
# 1 64.9282 29.5859 43.1768 0.0000 -3.2104 0.0000
# 2 29.5859 51.0846 16.1162 0.0000 -6.0638 0.0000
# 3 43.1768 16.1162 89.5635 0.0000 -6.9206 0.0000
# 4 0.0000 0.0000 0.0000 -6.8942 0.0000 -4.6584
# 5 -3.2104 -6.0638 -6.9206 0.0000 60.7803 0.0000
# 6 0.0000 0.0000 0.0000 -4.6584 0.0000 31.1940
#
#
#
# Elastic Compliance Matrix: (Units=1/GPa)
#
#
# Indices 1 2 3 4 5 6 
#
# 1 0.029286 -0.013373 -0.011799 0.000000 -0.001131 0.000000
# 2 -0.013373 0.027027 0.001753 0.000000 0.002190 0.000000
# 3 -0.011799 0.001753 0.016650 0.000000 0.001447 0.000000
# 4 0.000000 0.000000 0.000000 -0.131755 0.000000 -0.019676
# 5 -0.001131 0.002190 0.001447 0.000000 0.016776 0.000000
# 6 0.000000 0.000000 0.000000 -0.019676 0.000000 0.029119
#
#
# Mechanical properties :
#
#
# Convention : Reuss Voigt Hill
#
# Bulk Modulus (GPa) = 38.27859 42.59266 40.43563
# Shear Modulus (GPa) = 117.23368 24.79585 71.01476
#
# Velocity S-wave (km/s) = 7.31635 3.36479 5.69433
# Velocity P-wave (km/s) = 9.42603 5.87738 7.85473
#
# Compressibility (1/GPa) = 0.02612426
#
# Stress axis : x y z
#
# Youngs Moduli (GPa) = 34.14644 36.99971 60.06061
#
# Poissons Ratio (x) = 0.49479 0.70866
# Poissons Ratio (y) = 0.45663 -0.10526
# Poissons Ratio (z) = 0.40290 -0.06485
#
# Static dielectric constant tensor:
#      x y z
#    x 1.795300 0.000000 0.021490 
#    y 0.000000 1.924230 0.000000 
#    z 0.021490 0.000000 1.789100 
# 
# From -- ./inp_files/65610.got.cif
#   From: 2010.05.17/outbox.cif.g08.bks.cpg/sg15_33_cif.got.tgz:65610.got - 2010.06.03 18:47:42.
