data_PCOD9280336
_publ_section_title
;
Structure prediction by ZEFSAII (Michael W. Deem and Ramdas Pophale) SiO2 
 PCOD9280336
Probable space group: C 2/C
;
_chemical_formula_sum "Si O2"
_cell_formula_units_Z 44
_cell_length_a 7.433469
_cell_length_b 23.169501
_cell_length_c 10.420221
_cell_angle_alpha 90.000000
_cell_angle_beta 101.599073
_cell_angle_gamma 90.000000
_cell_volume 1758.022345
_symmetry_space_group_name_H-M "C 2/C"
_symmetry_group_IT_number 15
_symmetry_cell_setting 'monoclinic'
loop_
_space_group_symop_operation_xyz
x,y,z
-x,y,1/2-z
-x,-y,-z
x,-y,1/2+z
1/2+x,1/2+y,z
1/2-x,1/2+y,1/2-z
1/2-x,1/2-y,-z
1/2+x,1/2-y,1/2+z
loop_
_atom_site_type_symbol
_atom_site_label
_atom_site_fract_x
_atom_site_fract_y
_atom_site_fract_z
Si Si1 0.927200 0.334978 0.021464
Si Si2 0.500000 0.685872 0.750000
Si Si3 0.500000 0.494716 0.750000
Si Si4 0.640304 0.592639 0.101689
Si Si5 0.988880 0.789162 0.534644
Si Si6 0.223873 0.409667 0.169438
Si Si7 0.000000 0.380672 0.750000
O O1 0.011511 0.275260 0.089039
O O2 0.982399 0.346307 0.881012
O O3 0.714364 0.316998 0.986468
O O4 0.013481 0.389863 0.110791
O O5 0.467095 0.716695 0.610874
O O6 0.674687 0.644497 0.751777
O O7 0.514786 0.450494 0.871812
O O8 0.680156 0.534633 0.754536
O O9 0.820733 0.580586 0.209428
O O10 0.605658 0.660780 0.116831
O O11 0.685628 0.586057 0.959826
#
# Coordination Sequence:
#
# PCOD9280336 Si02
#       7
#     8   4   4   8   8   8   4
#     4  10  21  37  58  90 123 157 201 248 304 368
#     4   9  19  36  56  84 116 156 193 241 310 353
#     4  11  20  40  65  86 121 164 206 251 300 357
#     4  10  21  38  59  86 117 158 206 251 300 356
#     4  10  21  37  60  88 122 158 200 251 304 366
#     4   9  21  38  58  86 118 154 200 249 298 356
#     4  10  21  38  59  88 123 160 201 246 310 364
#
# _framework density 25.028123999999998
#
# number of rings (size 3 to 8) (size 9 to 14) (size 15 to 20)
#    0.000    2.182    0.000    2.182    0.000    8.727 
#    0.000   18.182    0.000    0.000    0.000    0.000 
#    0.000    0.000    0.000    0.000    0.000    0.000 
#
# Total GULP energy -122727.105803 kJ/mol
# GULP energy per Si atom -5578.504809 kJ/mol
# Density = 2.497116 g / cm^3
# Si number density = 25.028124 Si / 1000 Ang^3
#
#
#
# Elastic Constant Matrix: (Units=GPa)
#
#
# Indices 1 2 3 4 5 6 
#
# 1 81.3218 9.1567 8.2963 0.0000 9.4596 0.0000
# 2 9.1567 102.2347 28.3089 0.0000 6.9862 0.0000
# 3 8.2963 28.3089 73.7267 0.0000 -1.0824 0.0000
# 4 0.0000 0.0000 0.0000 13.5515 0.0000 -9.2870
# 5 9.4596 6.9862 -1.0824 0.0000 39.0737 0.0000
# 6 0.0000 0.0000 0.0000 -9.2870 0.0000 33.2896
#
#
#
# Elastic Compliance Matrix: (Units=1/GPa)
#
#
# Indices 1 2 3 4 5 6 
#
# 1 0.012846 -0.000593 -0.001262 0.000000 -0.003039 0.000000
# 2 -0.000593 0.011143 -0.004241 0.000000 -0.001966 0.000000
# 3 -0.001262 -0.004241 0.015356 0.000000 0.001489 0.000000
# 4 0.000000 0.000000 0.000000 0.091235 0.000000 0.025452
# 5 -0.003039 -0.001966 0.001489 0.000000 0.026721 0.000000
# 6 0.000000 0.000000 0.000000 0.025452 0.000000 0.037140
#
#
# Mechanical properties :
#
#
# Convention : Reuss Voigt Hill
#
# Bulk Modulus (GPa) = 36.82954 38.75630 37.79292
# Shear Modulus (GPa) = 23.18199 31.28438 27.23318
#
# Velocity S-wave (km/s) = 3.04672 3.53933 3.30222
# Velocity P-wave (km/s) = 5.20806 5.67637 5.44725
#
# Compressibility (1/GPa) = 0.02715212
#
# Stress axis : x y z
#
# Youngs Moduli (GPa) = 77.84581 89.74094 65.12177
#
# Poissons Ratio (x) = 0.05325 0.08220
# Poissons Ratio (y) = 0.04619 0.27617
# Poissons Ratio (z) = 0.09827 0.38057
#
# Static dielectric constant tensor:
#      x y z
#    x 2.085480 0.000000 -0.011970 
#    y 0.000000 1.962820 0.000000 
#    z -0.011970 0.000000 2.005000 
# 
# From -- ./inp_files/78158.got.cif
#   From: 2010.05.17/outbox.cif.g08.bks.cpg/sg15_40_cif.got.tgz:78158.got - 2010.06.03 18:47:42.
