data_PCOD9280361
_publ_section_title
;
Structure prediction by ZEFSAII (Michael W. Deem and Ramdas Pophale) SiO2 
 PCOD9280361
Probable space group: C 2/C
;
_chemical_formula_sum "Si O2"
_cell_formula_units_Z 56
_cell_length_a 9.274703
_cell_length_b 10.102866
_cell_length_c 30.792161
_cell_angle_alpha 90.000000
_cell_angle_beta 132.450328
_cell_angle_gamma 90.000000
_cell_volume 2128.925002
_symmetry_space_group_name_H-M "C 2/C"
_symmetry_group_IT_number 15
_symmetry_cell_setting 'monoclinic'
loop_
_space_group_symop_operation_xyz
x,y,z
-x,y,1/2-z
-x,-y,-z
x,-y,1/2+z
1/2+x,1/2+y,z
1/2-x,1/2+y,1/2-z
1/2-x,1/2-y,-z
1/2+x,1/2-y,1/2+z
loop_
_atom_site_type_symbol
_atom_site_label
_atom_site_fract_x
_atom_site_fract_y
_atom_site_fract_z
Si Si1 0.226785 0.850397 0.535271
Si Si2 0.747133 0.979773 0.616359
Si Si3 0.777038 0.531213 0.130725
Si Si4 0.764501 0.895175 0.208214
Si Si5 0.685527 0.543077 0.459975
Si Si6 0.209257 0.095205 0.213101
Si Si7 0.702395 0.282482 0.070097
O O1 0.250000 0.750000 0.500000
O O2 0.313620 0.856801 0.601423
O O3 0.991543 0.837950 0.492078
O O4 0.280413 0.990699 0.523031
O O5 0.693634 0.071705 0.645183
O O6 0.716461 0.034136 0.561369
O O7 0.653086 0.832558 0.596083
O O8 0.981395 0.949491 0.665390
O O9 0.541215 0.508856 0.083739
O O10 0.812334 0.564153 0.187874
O O11 0.832820 0.389601 0.121698
O O12 0.706134 0.013769 0.229054
O O13 0.000000 0.896440 0.250000
O O14 0.716774 0.752893 0.218549
O O15 0.803995 0.806972 0.554147
#
# Coordination Sequence:
#
# PCOD9280361 Si02
#       7
#     8   8   8   8   8   8   8
#     4  11  23  35  53  88 126 160 199 252 296 361
#     4   8  19  40  64  86 119 159 195 254 303 365
#     4  10  21  37  59  84 120 156 203 252 297 366
#     4  10  22  42  64  89 124 156 195 261 316 367
#     4   8  18  37  58  80 109 161 193 240 298 353
#     4  10  22  42  64  91 122 158 206 254 315 367
#     4   9  19  39  61  82 117 163 200 243 305 356
#
# _framework density 26.304355000000001
#
# number of rings (size 3 to 8) (size 9 to 14) (size 15 to 20)
#    0.857    1.714    0.000    1.714    4.000    2.857 
#    5.143    0.000    0.000    0.000    0.000    0.000 
#    0.000    0.000    0.000    0.000    0.000    0.000 
#
# Total GULP energy -156338.206293 kJ/mol
# GULP energy per Si atom -5583.507368 kJ/mol
# Density = 2.624449 g / cm^3
# Si number density = 26.304355 Si / 1000 Ang^3
#
#
#
# Elastic Constant Matrix: (Units=GPa)
#
#
# Indices 1 2 3 4 5 6 
#
# 1 91.3266 31.8070 25.7104 0.0000 -24.0803 0.0000
# 2 31.8070 121.3666 32.6222 0.0000 -30.4791 0.0000
# 3 25.7104 32.6222 128.6843 0.0000 -30.5918 0.0000
# 4 0.0000 0.0000 0.0000 44.6600 0.0000 -13.7452
# 5 -24.0803 -30.4791 -30.5918 0.0000 44.7512 0.0000
# 6 0.0000 0.0000 0.0000 -13.7452 0.0000 41.4619
#
#
#
# Elastic Compliance Matrix: (Units=1/GPa)
#
#
# Indices 1 2 3 4 5 6 
#
# 1 0.013247 -0.001920 -0.000927 0.000000 0.005187 0.000000
# 2 -0.001920 0.010347 -0.000967 0.000000 0.005353 0.000000
# 3 -0.000927 -0.000967 0.009464 0.000000 0.005312 0.000000
# 4 0.000000 0.000000 0.000000 0.024936 0.000000 0.008267
# 5 0.005187 0.005353 0.005312 0.000000 0.032414 0.000000
# 6 0.000000 0.000000 0.000000 0.008267 0.000000 0.026859
#
#
# Mechanical properties :
#
#
# Convention : Reuss Voigt Hill
#
# Bulk Modulus (GPa) = 39.32271 57.96185 48.64228
# Shear Modulus (GPa) = 37.48940 42.92380 40.20660
#
# Velocity S-wave (km/s) = 3.77930 4.04395 3.91386
# Velocity P-wave (km/s) = 5.83316 6.62478 6.24153
#
# Compressibility (1/GPa) = 0.02543060
#
# Stress axis : x y z
#
# Youngs Moduli (GPa) = 75.48900 96.64779 105.66189
#
# Poissons Ratio (x) = 0.18556 0.09794
# Poissons Ratio (y) = 0.14494 0.10216
# Poissons Ratio (z) = 0.06997 0.09344
#
# Static dielectric constant tensor:
#      x y z
#    x 2.213470 0.000000 0.035850 
#    y 0.000000 2.151210 0.000000 
#    z 0.035850 0.000000 2.054040 
# 
# From -- ./inp_files/268468.got.cif
#   From: 2010.05.17/outbox.cif.g08.bks.cpg/sg15_135_cif.got.tgz:268468.got - 2010.06.03 18:47:42.
