data_PCOD9280891
_publ_section_title
;
Structure prediction by ZEFSAII (Michael W. Deem and Ramdas Pophale) SiO2 
 PCOD9280891
Probable space group: C 2/C
;
_chemical_formula_sum "Si O2"
_cell_formula_units_Z 56
_cell_length_a 19.063388
_cell_length_b 17.734767
_cell_length_c 19.602900
_cell_angle_alpha 90.000000
_cell_angle_beta 157.286511
_cell_angle_gamma 90.000000
_cell_volume 2559.009044
_symmetry_space_group_name_H-M "C 2/C"
_symmetry_group_IT_number 15
_symmetry_cell_setting 'monoclinic'
loop_
_space_group_symop_operation_xyz
x,y,z
-x,y,1/2-z
-x,-y,-z
x,-y,1/2+z
1/2+x,1/2+y,z
1/2-x,1/2+y,1/2-z
1/2-x,1/2-y,-z
1/2+x,1/2-y,1/2+z
loop_
_atom_site_type_symbol
_atom_site_label
_atom_site_fract_x
_atom_site_fract_y
_atom_site_fract_z
Si Si1 0.300385 0.819933 0.093083
Si Si2 0.510927 0.086328 0.029280
Si Si3 0.222684 0.685012 0.770494
Si Si4 0.867513 0.605715 0.044319
Si Si5 0.628734 0.332768 0.601771
Si Si6 0.273585 0.364904 0.950622
Si Si7 0.681341 0.483889 0.955171
O O1 0.500000 0.843021 0.250000
O O2 0.295073 0.794793 0.166395
O O3 0.250000 0.750000 0.000000
O O4 0.192074 0.897791 0.986767
O O5 0.440104 0.131837 0.900414
O O6 0.371184 0.105104 0.966416
O O7 0.713951 0.107811 0.236462
O O8 0.500000 0.000000 0.000000
O O9 0.198553 0.758257 0.702222
O O10 0.423538 0.650535 0.940501
O O11 0.840004 0.519988 0.048941
O O12 0.724403 0.649062 0.965698
O O13 0.063454 0.637574 0.240351
O O14 0.622387 0.320435 0.514061
O O15 0.326507 0.453745 0.992150
O O16 0.500000 0.493304 0.750000
#
# Coordination Sequence:
#
# PCOD9280891 Si02
#       7
#     8   8   8   8   8   8   8
#     4  12  27  45  68  90 128 177 225 276 352 416
#     4  11  26  41  73 106 139 189 234 292 357 411
#     4  12  27  46  71 101 144 185 231 294 355 436
#     4   8  18  38  63  94 134 169 225 276 329 403
#     4  11  24  47  68  98 147 179 235 285 357 418
#     4   8  18  38  67  88 130 176 215 277 326 397
#     4  10  21  37  66 100 132 165 227 281 334 406
#
# _framework density 21.883471
#
# number of rings (size 3 to 8) (size 9 to 14) (size 15 to 20)
#    0.857    0.857    1.429    2.143    8.000    1.714 
#    0.000    0.714    3.143    0.000    0.000    0.000 
#    0.000    0.000    0.000    0.000    0.000    0.000 
#
# Total GULP energy -156026.863255 kJ/mol
# GULP energy per Si atom -5572.387973 kJ/mol
# Density = 2.183366 g / cm^3
# Si number density = 21.883471 Si / 1000 Ang^3
#
#
#
# Elastic Constant Matrix: (Units=GPa)
#
#
# Indices 1 2 3 4 5 6 
#
# 1 138.0613 6.5292 16.2870 0.0004 -22.3361 -0.0046
# 2 6.5292 21.8172 -14.8894 0.0105 -10.6540 -0.0009
# 3 16.2870 -14.8894 64.9814 0.0031 0.2301 0.0043
# 4 0.0004 0.0105 0.0031 11.1979 0.0012 -9.0868
# 5 -22.3361 -10.6540 0.2301 0.0012 27.7363 0.0013
# 6 -0.0046 -0.0009 0.0043 -9.0868 0.0013 26.9979
#
#
#
# Elastic Compliance Matrix: (Units=1/GPa)
#
#
# Indices 1 2 3 4 5 6 
#
# 1 0.008643 -0.001025 -0.002424 0.000002 0.006587 0.000002
# 2 -0.001025 0.069791 0.016157 -0.000102 0.025849 -0.000036
# 3 -0.002424 0.016157 0.019684 -0.000032 0.004090 -0.000014
# 4 0.000002 -0.000102 -0.000032 0.122857 -0.000044 0.041350
# 5 0.006587 0.025849 0.004090 -0.000044 0.051253 -0.000016
# 6 0.000002 -0.000036 -0.000014 0.041350 -0.000016 0.050957
#
#
# Mechanical properties :
#
#
# Convention : Reuss Voigt Hill
#
# Bulk Modulus (GPa) = 8.09494 26.74593 17.42044
# Shear Modulus (GPa) = 14.75148 27.64863 21.20006
#
# Velocity S-wave (km/s) = 2.59915 3.55836 3.11588
# Velocity P-wave (km/s) = 3.56575 5.39732 4.57415
#
# Compressibility (1/GPa) = 0.12353390
#
# Stress axis : x y z
#
# Youngs Moduli (GPa) = 115.69654 14.32848 50.80197
#
# Poissons Ratio (x) = 0.01468 0.12317
# Poissons Ratio (y) = 0.11855 -0.82080
# Poissons Ratio (z) = 0.28050 -0.23150
#
# Static dielectric constant tensor:
#      x y z
#    x 1.842260 -0.000020 0.008830 
#    y -0.000020 1.527520 -0.000040 
#    z 0.008830 -0.000040 1.807240 
# 
# From -- ./inp_files/253370.got.cif
#   From: 2010.05.17/outbox.cif.g08.bks.cpg/sg15_127_cif.got.tgz:253370.got - 2010.06.03 18:47:42.
