data_PCOD9280467
_publ_section_title
;
Structure prediction by ZEFSAII (Michael W. Deem and Ramdas Pophale) SiO2 
 PCOD9280467
Probable space group: C 2/C
;
_chemical_formula_sum "Si O2"
_cell_formula_units_Z 36
_cell_length_a 5.004110
_cell_length_b 19.766759
_cell_length_c 17.747966
_cell_angle_alpha 90.000000
_cell_angle_beta 69.865702
_cell_angle_gamma 90.000000
_cell_volume 1648.256739
_symmetry_space_group_name_H-M "C 2/C"
_symmetry_group_IT_number 15
_symmetry_cell_setting 'monoclinic'
loop_
_space_group_symop_operation_xyz
x,y,z
-x,y,1/2-z
-x,-y,-z
x,-y,1/2+z
1/2+x,1/2+y,z
1/2-x,1/2+y,1/2-z
1/2-x,1/2-y,-z
1/2+x,1/2-y,1/2+z
loop_
_atom_site_type_symbol
_atom_site_label
_atom_site_fract_x
_atom_site_fract_y
_atom_site_fract_z
Si Si1 0.000000 0.461063 0.250000
Si Si2 0.875595 0.891630 0.575369
Si Si3 0.686099 0.027162 0.375901
Si Si4 0.929486 0.745899 0.559223
Si Si5 0.617060 0.893467 0.092046
O O1 0.183812 0.507700 0.287788
O O2 0.166757 0.413622 0.174427
O O3 0.028392 0.945109 0.615414
O O4 0.089373 0.889534 0.482828
O O5 0.559524 0.916624 0.589165
O O6 0.865193 0.815477 0.608910
O O7 0.565195 0.956975 0.421411
O O8 0.750000 0.750000 0.500000
O O9 0.250000 0.750000 0.500000
O O10 0.929896 0.674443 0.601767
#
# Coordination Sequence:
#
# PCOD9280467 Si02
#       5
#     4   8   8   8   8
#     4   8  22  40  58  84 126 154 204 234 306 350
#     4  11  20  37  64  89 117 150 203 249 292 340
#     4  10  22  38  59  88 116 159 194 247 289 351
#     4  10  21  37  60  89 116 146 192 246 297 348
#     4   9  20  40  60  88 120 158 197 243 297 354
#
# _framework density 21.841256999999999
#
# number of rings (size 3 to 8) (size 9 to 14) (size 15 to 20)
#    1.333    0.889    0.000    4.000    0.000    4.444 
#    0.000    2.222    0.000    0.000    0.000    0.000 
#    0.000    0.000    0.000    0.000    0.000    0.000 
#
# Total GULP energy -100387.027824 kJ/mol
# GULP energy per Si atom -5577.057101 kJ/mol
# Density = 2.179155 g / cm^3
# Si number density = 21.841257 Si / 1000 Ang^3
#
#
#
# Elastic Constant Matrix: (Units=GPa)
#
#
# Indices 1 2 3 4 5 6 
#
# 1 70.6218 -10.3110 2.1405 0.0000 1.4114 0.0000
# 2 -10.3110 147.8672 14.6962 0.0000 -10.5207 0.0000
# 3 2.1405 14.6962 113.7173 0.0000 7.5168 0.0000
# 4 0.0000 0.0000 0.0000 11.6406 0.0000 10.8549
# 5 1.4114 -10.5207 7.5168 0.0000 18.8430 0.0000
# 6 0.0000 0.0000 0.0000 10.8549 0.0000 19.0742
#
#
#
# Elastic Compliance Matrix: (Units=1/GPa)
#
#
# Indices 1 2 3 4 5 6 
#
# 1 0.014326 0.001011 -0.000377 0.000000 -0.000358 0.000000
# 2 0.001011 0.007278 -0.001256 0.000000 0.004489 0.000000
# 3 -0.000377 -0.001256 0.009252 0.000000 -0.004364 0.000000
# 4 0.000000 0.000000 0.000000 0.183045 0.000000 -0.104169
# 5 -0.000358 0.004489 -0.004364 0.000000 0.057344 0.000000
# 6 0.000000 0.000000 0.000000 -0.104169 0.000000 0.111708
#
#
# Mechanical properties :
#
#
# Convention : Reuss Voigt Hill
#
# Bulk Modulus (GPa) = 33.77081 38.36198 36.06639
# Shear Modulus (GPa) = 12.68820 31.62360 22.15590
#
# Velocity S-wave (km/s) = 2.41286 3.80923 3.18843
# Velocity P-wave (km/s) = 4.82266 6.07858 5.48667
#
# Compressibility (1/GPa) = 0.02961137
#
# Stress axis : x y z
#
# Youngs Moduli (GPa) = 69.80266 137.40897 108.08908
#
# Poissons Ratio (x) = -0.13891 0.04071
# Poissons Ratio (y) = -0.07056 0.13579
# Poissons Ratio (z) = 0.02629 0.17262
#
# Static dielectric constant tensor:
#      x y z
#    x 1.792900 0.000000 0.002690 
#    y 0.000000 1.876460 0.000000 
#    z 0.002690 0.000000 1.851140 
# 
# From -- ./inp_files/184501.got.cif
#   From: 2010.05.17/outbox.cif.g08.bks.cpg/sg15_93_cif.got.tgz:184501.got - 2010.06.03 18:47:42.
