data_PCOD9280419
_publ_section_title
;
Structure prediction by ZEFSAII (Michael W. Deem and Ramdas Pophale) SiO2 
 PCOD9280419
Probable space group: C 2/C
;
_chemical_formula_sum "Si O2"
_cell_formula_units_Z 56
_cell_length_a 12.872588
_cell_length_b 26.775148
_cell_length_c 9.340618
_cell_angle_alpha 90.000000
_cell_angle_beta 71.954897
_cell_angle_gamma 90.000000
_cell_volume 3061.036130
_symmetry_space_group_name_H-M "C 2/C"
_symmetry_group_IT_number 15
_symmetry_cell_setting 'monoclinic'
loop_
_space_group_symop_operation_xyz
x,y,z
-x,y,1/2-z
-x,-y,-z
x,-y,1/2+z
1/2+x,1/2+y,z
1/2-x,1/2+y,1/2-z
1/2-x,1/2-y,-z
1/2+x,1/2-y,1/2+z
loop_
_atom_site_type_symbol
_atom_site_label
_atom_site_fract_x
_atom_site_fract_y
_atom_site_fract_z
Si Si1 0.614832 0.024306 0.398603
Si Si2 0.231458 0.191182 0.476001
Si Si3 0.604568 0.864214 0.801009
Si Si4 0.014711 0.791157 0.408955
Si Si5 0.085895 0.701367 0.586281
Si Si6 0.744741 0.663872 0.791450
Si Si7 0.365968 0.062661 0.811234
O O1 0.608956 0.075385 0.309217
O O2 0.669052 0.041140 0.521418
O O3 0.500000 0.000000 0.500000
O O4 0.665661 0.979320 0.289610
O O5 0.250000 0.250000 0.500000
O O6 0.297501 0.165089 0.320198
O O7 0.267386 0.168779 0.613017
O O8 0.102364 0.185902 0.503639
O O9 0.500000 0.851633 0.750000
O O10 0.592564 0.842955 0.966745
O O11 0.047360 0.748177 0.507121
O O12 0.115145 0.829714 0.363645
O O13 0.000000 0.772024 0.250000
O O14 0.198124 0.704911 0.629302
O O15 0.000000 0.691944 0.750000
O O16 0.801992 0.613034 0.811423
O O17 0.500000 0.069140 0.750000
#
# Coordination Sequence:
#
# PCOD9280419 Si02
#       7
#     8   8   8   8   8   8   8
#     4  10  22  37  58  88 129 154 198 250 319 380
#     4  11  24  41  61  89 125 167 212 250 306 377
#     4  12  23  37  61  91 123 163 202 250 319 375
#     4  10  23  43  59  86 121 169 209 247 298 369
#     4  12  23  37  59  89 125 158 205 253 305 358
#     4  11  22  38  64  86 122 162 207 255 303 359
#     4  10  21  37  59  92 124 153 200 251 319 367
#
# _framework density 18.294459
#
# number of rings (size 3 to 8) (size 9 to 14) (size 15 to 20)
#    0.000    1.143    1.429    6.857    8.000    1.143 
#    0.000    0.000    0.000    0.857    0.000    0.000 
#    0.000    0.000    0.000    0.000    0.000    0.000 
#
# Total GULP energy -156196.487206 kJ/mol
# GULP energy per Si atom -5578.445972 kJ/mol
# Density = 1.825282 g / cm^3
# Si number density = 18.294459 Si / 1000 Ang^3
#
#
#
# Elastic Constant Matrix: (Units=GPa)
#
#
# Indices 1 2 3 4 5 6 
#
# 1 103.7998 35.3551 60.6067 0.0000 6.8971 0.0000
# 2 35.3551 108.7351 64.9536 0.0000 2.5550 0.0000
# 3 60.6067 64.9536 128.7505 0.0000 2.1741 0.0000
# 4 0.0000 0.0000 0.0000 33.3885 0.0000 6.1905
# 5 6.8971 2.5550 2.1741 0.0000 30.1123 0.0000
# 6 0.0000 0.0000 0.0000 6.1905 0.0000 24.0105
#
#
#
# Elastic Compliance Matrix: (Units=1/GPa)
#
#
# Indices 1 2 3 4 5 6 
#
# 1 0.013540 -0.000802 -0.005925 0.000000 -0.002605 0.000000
# 2 -0.000802 0.013223 -0.006285 0.000000 -0.000485 0.000000
# 3 -0.005925 -0.006285 0.013712 0.000000 0.000900 0.000000
# 4 0.000000 0.000000 0.000000 0.031454 0.000000 -0.008110
# 5 -0.002605 -0.000485 0.000900 0.000000 0.033782 0.000000
# 6 0.000000 0.000000 0.000000 -0.008110 0.000000 0.043739
#
#
# Mechanical properties :
#
#
# Convention : Reuss Voigt Hill
#
# Bulk Modulus (GPa) = 69.20299 73.67957 71.44128
# Shear Modulus (GPa) = 27.73289 29.52695 28.62992
#
# Velocity S-wave (km/s) = 3.89770 4.02180 3.96024
# Velocity P-wave (km/s) = 7.62663 7.86945 7.74899
#
# Compressibility (1/GPa) = 0.01445024
#
# Stress axis : x y z
#
# Youngs Moduli (GPa) = 73.85709 75.62335 72.92989
#
# Poissons Ratio (x) = 0.06064 0.43211
# Poissons Ratio (y) = 0.05922 0.45840
# Poissons Ratio (z) = 0.43760 0.47533
#
# Static dielectric constant tensor:
#      x y z
#    x 1.664500 0.000000 -0.025360 
#    y 0.000000 1.738830 0.000000 
#    z -0.025360 0.000000 1.695490 
# 
# From -- ./inp_files/34200.got.cif
#   From: 2010.05.17/outbox.cif.g08.bks.cpg/sg15_18_cif.got.tgz:34200.got - 2010.06.03 18:47:42.
