data_PCOD9280683
_publ_section_title
;
Structure prediction by ZEFSAII (Michael W. Deem and Ramdas Pophale) SiO2 
 PCOD9280683
Probable space group: C 2/C
;
_chemical_formula_sum "Si O2"
_cell_formula_units_Z 36
_cell_length_a 8.216206
_cell_length_b 13.624570
_cell_length_c 22.634960
_cell_angle_alpha 90.000000
_cell_angle_beta 142.906096
_cell_angle_gamma 90.000000
_cell_volume 1528.198736
_symmetry_space_group_name_H-M "C 2/C"
_symmetry_group_IT_number 15
_symmetry_cell_setting 'monoclinic'
loop_
_space_group_symop_operation_xyz
x,y,z
-x,y,1/2-z
-x,-y,-z
x,-y,1/2+z
1/2+x,1/2+y,z
1/2-x,1/2+y,1/2-z
1/2-x,1/2-y,-z
1/2+x,1/2-y,1/2+z
loop_
_atom_site_type_symbol
_atom_site_label
_atom_site_fract_x
_atom_site_fract_y
_atom_site_fract_z
Si Si1 0.133512 0.642590 0.448088
Si Si2 0.162755 0.636368 0.025278
Si Si3 0.000000 0.418147 0.250000
Si Si4 0.161412 0.860521 0.045100
Si Si5 0.214205 0.611136 0.262866
O O1 0.250000 0.750000 0.500000
O O2 0.376528 0.592886 0.481502
O O3 0.031515 0.596125 0.479753
O O4 0.888800 0.644900 0.330739
O O5 0.087233 0.751630 0.001706
O O6 0.475644 0.634019 0.135821
O O7 0.166855 0.597273 0.959628
O O8 0.832150 0.357646 0.154318
O O9 0.817646 0.493963 0.235191
O O10 0.000000 0.652602 0.250000
#
# Coordination Sequence:
#
# PCOD9280683 Si02
#       5
#     8   8   4   8   8
#     4  10  21  37  62  93 121 160 211 258 304 364
#     4  10  21  38  65  91 122 161 214 258 299 373
#     4  10  24  40  66  88 134 172 194 262 326 372
#     4  10  21  41  60  93 122 166 208 254 314 366
#     4  10  21  39  62  88 127 169 198 250 321 369
#
# _framework density 23.557144000000001
#
# number of rings (size 3 to 8) (size 9 to 14) (size 15 to 20)
#    0.667    1.333    2.222    0.667    6.222    3.556 
#    0.000    7.778    0.000    0.000    0.000    0.000 
#    0.000    0.000    0.000    0.000    0.000    0.000 
#
# Total GULP energy -100414.703099 kJ/mol
# GULP energy per Si atom -5578.594617 kJ/mol
# Density = 2.350353 g / cm^3
# Si number density = 23.557144 Si / 1000 Ang^3
#
#
#
# Elastic Constant Matrix: (Units=GPa)
#
#
# Indices 1 2 3 4 5 6 
#
# 1 204.6212 30.0586 39.0778 0.0003 -8.7028 -0.0001
# 2 30.0586 63.4005 -13.4342 -0.0014 -9.5536 0.0005
# 3 39.0778 -13.4342 106.0477 -0.0050 -29.0958 0.0018
# 4 0.0003 -0.0014 -0.0050-1239.2248 0.0008 434.9347
# 5 -8.7028 -9.5536 -29.0958 0.0008 48.6405 -0.0003
# 6 -0.0001 0.0005 0.0018 434.9347 -0.0003 -115.7590
#
#
#
# Elastic Compliance Matrix: (Units=1/GPa)
#
#
# Indices 1 2 3 4 5 6 
#
# 1 0.005954 -0.003700 -0.003074 0.000000 -0.001501 0.000000
# 2 -0.003700 0.019725 0.005675 0.000000 0.006607 0.000000
# 3 -0.003074 0.005675 0.013682 0.000000 0.008749 0.000000
# 4 0.000000 0.000000 0.000000 0.002532 0.000000 0.009514
# 5 -0.001501 0.006607 0.008749 0.000000 0.026822 0.000000
# 6 0.000000 0.000000 0.000000 0.009514 0.000000 0.027107
#
#
# Mechanical properties :
#
#
# Convention : Reuss Voigt Hill
#
# Bulk Modulus (GPa) = 26.90951 53.94153 40.42552
# Shear Modulus (GPa) = 45.28643 -240.04420 -97.37889
#
# Velocity S-wave (km/s) = 4.38928 -10.10544 -6.43638
# Velocity P-wave (km/s) = 6.09390 10.64011 6.16751
#
# Compressibility (1/GPa) = 0.03716158
#
# Stress axis : x y z
#
# Youngs Moduli (GPa) = 167.95421 50.69642 73.08894
#
# Poissons Ratio (x) = 0.18760 0.22471
# Poissons Ratio (y) = 0.62150 -0.41479
# Poissons Ratio (z) = 0.51638 -0.28771
#
# Static dielectric constant tensor:
#      x y z
#    x 1.993960 0.000000 0.014230 
#    y 0.000000 2.089960 0.000000 
#    z 0.014230 0.000000 1.880170 
# 
# From -- ./inp_files/266007.got.cif
#   From: 2010.05.17/outbox.cif.g08.bks.cpg/sg15_134_cif.got.tgz:266007.got - 2010.06.03 18:47:42.
