data_PCOD9280839
_publ_section_title
;
Structure prediction by ZEFSAII (Michael W. Deem and Ramdas Pophale) SiO2 
 PCOD9280839
Probable space group: C 2/C
;
_chemical_formula_sum "Si O2"
_cell_formula_units_Z 60
_cell_length_a 15.202987
_cell_length_b 12.690879
_cell_length_c 28.572814
_cell_angle_alpha 90.000000
_cell_angle_beta 152.087816
_cell_angle_gamma 90.000000
_cell_volume 2580.647809
_symmetry_space_group_name_H-M "C 2/C"
_symmetry_group_IT_number 15
_symmetry_cell_setting 'monoclinic'
loop_
_space_group_symop_operation_xyz
x,y,z
-x,y,1/2-z
-x,-y,-z
x,-y,1/2+z
1/2+x,1/2+y,z
1/2-x,1/2+y,1/2-z
1/2-x,1/2-y,-z
1/2+x,1/2-y,1/2+z
loop_
_atom_site_type_symbol
_atom_site_label
_atom_site_fract_x
_atom_site_fract_y
_atom_site_fract_z
Si Si1 0.517221 0.900090 0.705854
Si Si2 0.850269 0.817343 0.716349
Si Si3 0.000000 0.025922 0.750000
Si Si4 0.404416 0.816370 0.333309
Si Si5 0.238617 0.941291 0.033257
Si Si6 0.628995 0.522399 0.663057
Si Si7 0.554487 0.330737 0.038214
Si Si8 0.232337 0.220656 0.845578
O O1 0.500000 0.948192 0.750000
O O2 0.561462 0.776954 0.736100
O O3 0.352065 0.951870 0.598732
O O4 0.710538 0.939597 0.774149
O O5 0.869489 0.770694 0.777006
O O6 0.655314 0.777773 0.602211
O O7 0.000000 0.766644 0.750000
O O8 0.095967 0.940497 0.760197
O O9 0.831852 0.110210 0.662684
O O10 0.603630 0.866716 0.414279
O O11 0.230465 0.897427 0.245327
O O12 0.394897 0.790037 0.382980
O O13 0.149222 0.885746 0.037345
O O14 0.068086 0.968632 0.918684
O O15 0.586478 0.588646 0.595731
O O16 0.334972 0.304098 0.927480
#
# Coordination Sequence:
#
# PCOD9280839 Si02
#       8
#     8   8   4   8   8   8   8   8
#     4  11  20  34  63  90 130 157 194 261 330 380
#     4   9  20  44  65  81 120 185 211 250 311 400
#     4  10  24  44  66  80 130 178 222 250 332 384
#     4  10  24  41  64  92 134 162 217 271 324 372
#     4  11  19  36  61  97 121 162 197 260 328 390
#     4  10  21  37  64  97 126 160 204 258 332 403
#     4  11  20  37  67  93 122 160 221 255 319 392
#     4  12  25  40  60  99 125 167 217 280 310 374
#
# _framework density 23.249976
#
# number of rings (size 3 to 8) (size 9 to 14) (size 15 to 20)
#    0.400    1.067    4.667    1.200    0.000    3.200 
#    2.400    0.667    0.000    0.000    0.000    0.000 
#    0.000    0.000    0.000    0.000    0.000    0.000 
#
# Total GULP energy -167378.878290 kJ/mol
# GULP energy per Si atom -5579.295943 kJ/mol
# Density = 2.319706 g / cm^3
# Si number density = 23.249976 Si / 1000 Ang^3
#
#
#
# Elastic Constant Matrix: (Units=GPa)
#
#
# Indices 1 2 3 4 5 6 
#
# 1 37.6464 27.4696 12.5554 -0.0002 7.6360 -0.0001
# 2 27.4696 133.2758 44.5334 -0.0001 6.2465 0.0000
# 3 12.5554 44.5334 120.3630 -0.0007 23.7648 0.0001
# 4 -0.0002 -0.0001 -0.0007 25.1498 0.0000 4.4026
# 5 7.6360 6.2465 23.7648 0.0000 24.6897 -0.0001
# 6 -0.0001 0.0000 0.0001 4.4026 -0.0001 30.8119
#
#
#
# Elastic Compliance Matrix: (Units=1/GPa)
#
#
# Indices 1 2 3 4 5 6 
#
# 1 0.033033 -0.006659 0.000867 0.000000 -0.009366 0.000000
# 2 -0.006659 0.009928 -0.003567 0.000000 0.002981 0.000000
# 3 0.000867 -0.003567 0.011621 0.000000 -0.010551 0.000000
# 4 0.000000 0.000000 0.000000 0.040782 0.000000 -0.005827
# 5 -0.009366 0.002981 -0.010551 0.000000 0.052801 0.000000
# 6 0.000000 0.000000 0.000000 -0.005827 0.000000 0.033288
#
#
# Mechanical properties :
#
#
# Convention : Reuss Voigt Hill
#
# Bulk Modulus (GPa) = 27.88365 51.15578 39.51971
# Shear Modulus (GPa) = 23.57102 29.91206 26.74154
#
# Velocity S-wave (km/s) = 3.18749 3.59073 3.39510
# Velocity P-wave (km/s) = 5.05626 6.26430 5.69242
#
# Compressibility (1/GPa) = 0.03586331
#
# Stress axis : x y z
#
# Youngs Moduli (GPa) = 30.27319 100.72476 86.05194
#
# Poissons Ratio (x) = 0.67075 -0.07465
# Poissons Ratio (y) = 0.20160 0.30698
# Poissons Ratio (z) = -0.02626 0.35932
#
# Static dielectric constant tensor:
#      x y z
#    x 1.980500 0.000000 0.027730 
#    y 0.000000 1.932010 0.000000 
#    z 0.027730 0.000000 1.875070 
# 
# From -- ./inp_files/314010.got.cif
#   From: 2010.05.17/outbox.cif.g08.bks.cpg/sg15_158_cif.got.tgz:314010.got - 2010.06.03 18:47:42.
