data_PCOD9280435
_publ_section_title
;
Structure prediction by ZEFSAII (Michael W. Deem and Ramdas Pophale) SiO2 
 PCOD9280435
Probable space group: C 2/C
;
_chemical_formula_sum "Si O2"
_cell_formula_units_Z 60
_cell_length_a 16.515257
_cell_length_b 11.208881
_cell_length_c 27.359487
_cell_angle_alpha 90.000000
_cell_angle_beta 138.279045
_cell_angle_gamma 90.000000
_cell_volume 3370.589091
_symmetry_space_group_name_H-M "C 2/C"
_symmetry_group_IT_number 15
_symmetry_cell_setting 'monoclinic'
loop_
_space_group_symop_operation_xyz
x,y,z
-x,y,1/2-z
-x,-y,-z
x,-y,1/2+z
1/2+x,1/2+y,z
1/2-x,1/2+y,1/2-z
1/2-x,1/2-y,-z
1/2+x,1/2-y,1/2+z
loop_
_atom_site_type_symbol
_atom_site_label
_atom_site_fract_x
_atom_site_fract_y
_atom_site_fract_z
Si Si1 0.744234 0.740682 0.296059
Si Si2 0.042296 0.562305 0.713404
Si Si3 0.080807 0.912491 0.597714
Si Si4 0.000000 0.121192 0.750000
Si Si5 0.508674 0.583263 0.177268
Si Si6 0.168880 0.704829 0.917660
Si Si7 0.156415 0.691862 0.264275
Si Si8 0.121108 0.159473 0.560090
O O1 0.666043 0.863177 0.261350
O O2 0.639530 0.639259 0.252270
O O3 0.818176 0.736381 0.279123
O O4 0.838266 0.740864 0.383089
O O5 0.067635 0.422237 0.721740
O O6 0.000000 0.589406 0.750000
O O7 0.942538 0.610327 0.629565
O O8 0.025488 0.932230 0.626684
O O9 0.212962 0.855457 0.659936
O O10 0.993066 0.826465 0.527028
O O11 0.093695 0.039929 0.577803
O O12 0.105115 0.208369 0.777417
O O13 0.976183 0.032808 0.693672
O O14 0.402650 0.680945 0.136208
O O15 0.262709 0.646395 0.922419
O O16 0.250000 0.750000 0.000000
#
# Coordination Sequence:
#
# PCOD9280435 Si02
#       8
#     8   8   8   4   8   8   8   8
#     4  10  21  37  63  85 117 157 207 248 293 354
#     4  11  20  39  64  89 115 157 209 243 288 357
#     4  10  21  37  60  83 119 154 197 242 297 359
#     4  12  24  36  60  88 126 154 196 250 308 350
#     4  10  22  39  58  89 118 158 196 251 300 353
#     4  11  21  37  62  91 116 150 201 252 291 348
#     4  11  23  39  59  90 122 159 199 250 301 361
#     4  11  19  35  61  86 113 154 199 244 292 356
#
# _framework density 17.801043
#
# number of rings (size 3 to 8) (size 9 to 14) (size 15 to 20)
#    0.000    1.333    4.667    1.600    3.733    0.000 
#    0.000    1.333    0.000    5.600    0.000    0.000 
#    0.000    0.000    0.000    0.000    0.000    0.000 
#
# Total GULP energy -167252.791794 kJ/mol
# GULP energy per Si atom -5575.093060 kJ/mol
# Density = 1.776053 g / cm^3
# Si number density = 17.801043 Si / 1000 Ang^3
#
#
#
# Elastic Constant Matrix: (Units=GPa)
#
#
# Indices 1 2 3 4 5 6 
#
# 1 65.6666 36.4018 33.3281 0.0000 -5.7335 0.0000
# 2 36.4018 83.2866 31.1474 0.0000 -4.3277 0.0000
# 3 33.3281 31.1474 126.8767 0.0000 -2.5255 0.0000
# 4 0.0000 0.0000 0.0000 20.6261 0.0000 -7.4102
# 5 -5.7335 -4.3277 -2.5255 0.0000 24.4698 0.0000
# 6 0.0000 0.0000 0.0000 -7.4102 0.0000 31.9878
#
#
#
# Elastic Compliance Matrix: (Units=1/GPa)
#
#
# Indices 1 2 3 4 5 6 
#
# 1 0.021823 -0.007979 -0.003708 0.000000 0.003320 0.000000
# 2 -0.007979 0.016237 -0.001874 0.000000 0.000809 0.000000
# 3 -0.003708 -0.001874 0.009311 0.000000 -0.000239 0.000000
# 4 0.000000 0.000000 0.000000 0.052884 0.000000 0.012251
# 5 0.003320 0.000809 -0.000239 0.000000 0.041763 0.000000
# 6 0.000000 0.000000 0.000000 0.012251 0.000000 0.034100
#
#
# Mechanical properties :
#
#
# Convention : Reuss Voigt Hill
#
# Bulk Modulus (GPa) = 49.38386 53.06494 51.22440
# Shear Modulus (GPa) = 23.81078 27.08024 25.44551
#
# Velocity S-wave (km/s) = 3.66130 3.90458 3.78489
# Velocity P-wave (km/s) = 6.75839 7.08537 6.92381
#
# Compressibility (1/GPa) = 0.02024953
#
# Stress axis : x y z
#
# Youngs Moduli (GPa) = 45.82277 61.58773 107.40113
#
# Poissons Ratio (x) = 0.49142 0.39820
# Poissons Ratio (y) = 0.36563 0.20127
# Poissons Ratio (z) = 0.16989 0.11542
#
# Static dielectric constant tensor:
#      x y z
#    x 1.610480 0.000000 -0.012490 
#    y 0.000000 1.610130 0.000000 
#    z -0.012490 0.000000 1.650660 
# 
# From -- ./inp_files/273875.got.cif
#   From: 2010.05.17/outbox.cif.g08.bks.cpg/sg15_137_cif.got.tgz:273875.got - 2010.06.03 18:47:42.
