data_PCOD9280518
_publ_section_title
;
Structure prediction by ZEFSAII (Michael W. Deem and Ramdas Pophale) SiO2 
 PCOD9280518
Probable space group: C 2/C
;
_chemical_formula_sum "Si O2"
_cell_formula_units_Z 64
_cell_length_a 9.413553
_cell_length_b 18.163960
_cell_length_c 32.746291
_cell_angle_alpha 90.000000
_cell_angle_beta 38.090311
_cell_angle_gamma 90.000000
_cell_volume 3454.164062
_symmetry_space_group_name_H-M "C 2/C"
_symmetry_group_IT_number 15
_symmetry_cell_setting 'monoclinic'
loop_
_space_group_symop_operation_xyz
x,y,z
-x,y,1/2-z
-x,-y,-z
x,-y,1/2+z
1/2+x,1/2+y,z
1/2-x,1/2+y,1/2-z
1/2-x,1/2-y,-z
1/2+x,1/2-y,1/2+z
loop_
_atom_site_type_symbol
_atom_site_label
_atom_site_fract_x
_atom_site_fract_y
_atom_site_fract_z
Si Si1 0.941992 0.258130 0.369547
Si Si2 0.859639 0.808177 0.592438
Si Si3 0.925105 0.412951 0.331753
Si Si4 0.907653 0.747703 0.225843
Si Si5 0.940970 0.022401 0.058868
Si Si6 0.366658 0.606000 0.683595
Si Si7 0.782245 0.552348 0.544968
Si Si8 0.924957 0.718643 0.493774
O O1 0.941423 0.345988 0.360419
O O2 0.686728 0.228805 0.419680
O O3 0.011218 0.234218 0.399794
O O4 0.142826 0.226762 0.294379
O O5 0.591167 0.809861 0.666857
O O6 0.945058 0.891004 0.566623
O O7 0.894571 0.763818 0.542724
O O8 0.804552 0.485552 0.375646
O O9 0.761388 0.385409 0.331254
O O10 0.174822 0.429231 0.256370
O O11 0.916147 0.815512 0.192741
O O12 0.000000 0.770678 0.250000
O O13 0.126343 0.982186 0.045060
O O14 0.000000 0.000000 0.000000
O O15 0.602654 0.562034 0.623193
O O16 0.866161 0.634003 0.515272
O O17 0.000000 0.500000 0.500000
O O18 0.750000 0.750000 0.500000
#
# Coordination Sequence:
#
# PCOD9280518 Si02
#       8
#     8   8   8   8   8   8   8   8
#     4  10  21  37  60  96 120 156 203 252 307 361
#     4  11  22  40  63  90 125 159 205 260 302 359
#     4   9  19  36  64  89 114 164 206 246 295 374
#     4   9  19  37  60  92 124 154 200 254 304 362
#     4  11  23  42  59  88 124 162 203 248 302 366
#     4   9  17  38  59  88 119 159 206 243 300 369
#     4  11  23  39  59  88 121 158 196 253 305 355
#     4  12  23  39  63  89 119 163 205 247 304 362
#
# _framework density 18.528361
#
# number of rings (size 3 to 8) (size 9 to 14) (size 15 to 20)
#    0.000    1.750    1.250    4.125    0.000    1.000 
#   18.000    0.000    0.000    0.000    0.000    0.000 
#    0.000    0.000    0.000    0.000    0.000    0.000 
#
# Total GULP energy -178535.386114 kJ/mol
# GULP energy per Si atom -5579.230816 kJ/mol
# Density = 1.848619 g / cm^3
# Si number density = 18.528361 Si / 1000 Ang^3
#
#
#
# Elastic Constant Matrix: (Units=GPa)
#
#
# Indices 1 2 3 4 5 6 
#
# 1 63.4240 45.3430 69.4030 0.0016 -8.4567 -0.0002
# 2 45.3430 122.5161 63.9487 0.0017 4.3551 -0.0002
# 3 69.4030 63.9487 140.7267 0.0009 -22.2471 -0.0025
# 4 0.0016 0.0017 0.0009 28.0126 -0.0004 -9.8727
# 5 -8.4567 4.3551 -22.2471 -0.0004 39.7560 0.0008
# 6 -0.0002 -0.0002 -0.0025 -9.8727 0.0008 26.7204
#
#
#
# Elastic Compliance Matrix: (Units=1/GPa)
#
#
# Indices 1 2 3 4 5 6 
#
# 1 0.036829 -0.005377 -0.015785 -0.000002 -0.000410 -0.000002
# 2 -0.005377 0.012190 -0.003598 -0.000001 -0.004492 0.000000
# 3 -0.015785 -0.003598 0.017615 0.000001 0.006894 0.000002
# 4 -0.000002 -0.000001 0.000001 0.041043 0.000000 0.015165
# 5 -0.000410 -0.004492 0.006894 0.000000 0.029416 0.000000
# 6 -0.000002 0.000000 0.000002 0.015165 0.000000 0.043028
#
#
# Mechanical properties :
#
#
# Convention : Reuss Voigt Hill
#
# Bulk Modulus (GPa) = 58.42610 76.00622 67.21616
# Shear Modulus (GPa) = 21.24555 28.76260 25.00408
#
# Velocity S-wave (km/s) = 3.38990 3.94427 3.67754
# Velocity P-wave (km/s) = 6.85008 7.86471 7.37486
#
# Compressibility (1/GPa) = 0.01711564
#
# Stress axis : x y z
#
# Youngs Moduli (GPa) = 27.15272 82.03670 56.76924
#
# Poissons Ratio (x) = 0.44109 0.89607
# Poissons Ratio (y) = 0.14599 0.20424
# Poissons Ratio (z) = 0.42859 0.29514
#
# Static dielectric constant tensor:
#      x y z
#    x 1.607910 -0.000010 -0.044100 
#    y -0.000010 1.595900 0.000000 
#    z -0.044100 0.000000 1.660390 
# 
# From -- ./inp_files/308758.got.cif
#   From: 2010.05.17/outbox.cif.g08.bks.cpg/sg15_155_cif.got.tgz:308758.got - 2010.06.03 18:47:42.
