data_PCOD9280874
_publ_section_title
;
Structure prediction by ZEFSAII (Michael W. Deem and Ramdas Pophale) SiO2 
 PCOD9280874
Probable space group: C 2/C
;
_chemical_formula_sum "Si O2"
_cell_formula_units_Z 40
_cell_length_a 14.038225
_cell_length_b 13.795819
_cell_length_c 18.325241
_cell_angle_alpha 90.000000
_cell_angle_beta 146.755478
_cell_angle_gamma 90.000000
_cell_volume 1945.624049
_symmetry_space_group_name_H-M "C 2/C"
_symmetry_group_IT_number 15
_symmetry_cell_setting 'monoclinic'
loop_
_space_group_symop_operation_xyz
x,y,z
-x,y,1/2-z
-x,-y,-z
x,-y,1/2+z
1/2+x,1/2+y,z
1/2-x,1/2+y,1/2-z
1/2-x,1/2-y,-z
1/2+x,1/2-y,1/2+z
loop_
_atom_site_type_symbol
_atom_site_label
_atom_site_fract_x
_atom_site_fract_y
_atom_site_fract_z
Si Si1 0.491201 0.949182 0.415828
Si Si2 0.183373 0.955628 0.637614
Si Si3 0.800374 0.410805 0.551559
Si Si4 0.404743 0.248034 0.916959
Si Si5 0.015389 0.218807 0.652120
O O1 0.502976 0.833851 0.434425
O O2 0.500000 0.000000 0.500000
O O3 0.303453 0.976314 0.262531
O O4 0.630327 0.001063 0.452500
O O5 0.283412 0.937859 0.625471
O O6 0.140824 0.851977 0.647094
O O7 0.000000 0.000000 0.500000
O O8 0.611040 0.369405 0.408725
O O9 0.927942 0.318809 0.623014
O O10 0.209689 0.207260 0.805869
O O11 0.502712 0.270346 0.055673
#
# Coordination Sequence:
#
# PCOD9280874 Si02
#       5
#     8   8   8   8   8
#     4  12  22  38  60  96 129 160 205 272 322 370
#     4  11  24  42  63  89 126 172 216 256 319 390
#     4  10  21  38  62  92 124 165 212 259 315 376
#     4  11  21  40  63  95 128 165 205 268 322 376
#     4  10  21  37  65  93 126 160 216 265 316 370
#
# _framework density 20.558955999999998
#
# number of rings (size 3 to 8) (size 9 to 14) (size 15 to 20)
#    0.000    1.200    4.000    3.000    2.800    2.400 
#    3.600    1.000    0.000    2.400    0.000    0.000 
#    0.000    0.000    0.000    0.000    0.000    0.000 
#
# Total GULP energy -111797.668054 kJ/mol
# GULP energy per Si atom -5589.883403 kJ/mol
# Density = 2.051216 g / cm^3
# Si number density = 20.558956 Si / 1000 Ang^3
#
#
#
# Elastic Constant Matrix: (Units=GPa)
#
#
# Indices 1 2 3 4 5 6 
#
# 1 55.2448 47.2450 12.3563 0.0002 -4.3831 0.0000
# 2 47.2450 121.1840 4.8039 0.0004 7.4311 0.0001
# 3 12.3563 4.8039 81.0655 0.0008 -1.6395 0.0003
# 4 0.0002 0.0004 0.0008 33.4648 0.0005 7.2114
# 5 -4.3831 7.4311 -1.6395 0.0005 28.3138 0.0001
# 6 0.0000 0.0001 0.0003 7.2114 0.0001 46.7451
#
#
#
# Elastic Compliance Matrix: (Units=1/GPa)
#
#
# Indices 1 2 3 4 5 6 
#
# 1 0.029682 -0.011887 -0.003668 0.000000 0.007502 0.000000
# 2 -0.011887 0.013171 0.000925 0.000000 -0.005243 0.000000
# 3 -0.003668 0.000925 0.012839 0.000000 -0.000067 0.000000
# 4 0.000000 0.000000 0.000000 0.030910 0.000000 -0.004768
# 5 0.007502 -0.005243 -0.000067 0.000000 0.037852 0.000000
# 6 0.000000 0.000000 0.000000 -0.004768 0.000000 0.022128
#
#
# Mechanical properties :
#
#
# Convention : Reuss Voigt Hill
#
# Bulk Modulus (GPa) = 37.83183 42.92276 40.37730
# Shear Modulus (GPa) = 27.07799 34.57734 30.82767
#
# Velocity S-wave (km/s) = 3.63311 4.10550 3.87651
# Velocity P-wave (km/s) = 6.00341 6.58762 6.30229
#
# Compressibility (1/GPa) = 0.02643277
#
# Stress axis : x y z
#
# Youngs Moduli (GPa) = 33.69014 75.92492 77.89002
#
# Poissons Ratio (x) = 0.90249 0.28571
# Poissons Ratio (y) = 0.40046 -0.07207
# Poissons Ratio (z) = 0.12358 -0.07025
#
# Static dielectric constant tensor:
#      x y z
#    x 1.746610 0.000000 0.002790 
#    y 0.000000 1.776170 0.000000 
#    z 0.002790 0.000000 1.764330 
# 
# From -- ./inp_files/244421.got.cif
#   From: 2010.05.17/outbox.cif.g08.bks.cpg/sg15_123_cif.got.tgz:244421.got - 2010.06.03 18:47:42.
