data_PCOD9280641
_publ_section_title
;
Structure prediction by ZEFSAII (Michael W. Deem and Ramdas Pophale) SiO2 
 PCOD9280641
Probable space group: C 2/C
;
_chemical_formula_sum "Si O2"
_cell_formula_units_Z 48
_cell_length_a 4.954253
_cell_length_b 18.399788
_cell_length_c 26.509352
_cell_angle_alpha 90.000000
_cell_angle_beta 83.391773
_cell_angle_gamma 90.000000
_cell_volume 2400.463692
_symmetry_space_group_name_H-M "C 2/C"
_symmetry_group_IT_number 15
_symmetry_cell_setting 'monoclinic'
loop_
_space_group_symop_operation_xyz
x,y,z
-x,y,1/2-z
-x,-y,-z
x,-y,1/2+z
1/2+x,1/2+y,z
1/2-x,1/2+y,1/2-z
1/2-x,1/2-y,-z
1/2+x,1/2-y,1/2+z
loop_
_atom_site_type_symbol
_atom_site_label
_atom_site_fract_x
_atom_site_fract_y
_atom_site_fract_z
Si Si1 0.085136 0.596361 0.064149
Si Si2 0.455580 0.479373 0.890382
Si Si3 0.346526 0.826285 0.472988
Si Si4 0.110188 0.146863 0.595048
Si Si5 0.522503 0.210618 0.351176
Si Si6 0.067422 0.864683 0.806528
O O1 0.845305 0.550177 0.094103
O O2 0.356938 0.549628 0.067135
O O3 0.102129 0.670119 0.096703
O O4 0.975902 0.620691 0.012235
O O5 0.422558 0.564938 0.885537
O O6 0.577621 0.438728 0.838847
O O7 0.250000 0.750000 0.500000
O O8 0.587733 0.826005 0.426443
O O9 0.075338 0.851997 0.451146
O O10 0.995513 0.204774 0.637260
O O11 0.826394 0.183001 0.336345
O O12 0.340980 0.180459 0.309615
O O13 0.000000 0.877988 0.750000
#
# Coordination Sequence:
#
# PCOD9280641 Si02
#       6
#     8   8   8   8   8   8
#     4  10  21  38  57  83 119 164 203 235 280 351
#     4  10  23  39  59  87 120 155 192 249 312 345
#     4  12  24  36  60  87 122 165 214 239 280 341
#     4  12  24  38  59  89 124 159 198 253 297 342
#     4  10  21  37  62  86 116 151 196 240 296 349
#     4  10  21  41  65  87 111 150 196 242 300 380
#
# _framework density 19.996137999999998
#
# number of rings (size 3 to 8) (size 9 to 14) (size 15 to 20)
#    0.000    1.333    1.667    4.000    4.667    4.000 
#    0.000    1.667    0.000    0.000    0.000    0.000 
#    0.000    0.000    0.000    0.000    0.000    0.000 
#
# Total GULP energy -134029.026158 kJ/mol
# GULP energy per Si atom -5584.542757 kJ/mol
# Density = 1.995063 g / cm^3
# Si number density = 19.996138 Si / 1000 Ang^3
#
#
#
# Elastic Constant Matrix: (Units=GPa)
#
#
# Indices 1 2 3 4 5 6 
#
# 1 85.5170 25.1319 -5.0759 0.0000 11.1490 0.0000
# 2 25.1319 168.5226 31.9628 0.0000 -0.9445 0.0000
# 3 -5.0759 31.9628 59.6362 0.0000 12.7657 0.0000
# 4 0.0000 0.0000 0.0000 10.8781 0.0000 -1.2347
# 5 11.1490 -0.9445 12.7657 0.0000 31.2690 0.0000
# 6 0.0000 0.0000 0.0000 -1.2347 0.0000 16.9489
#
#
#
# Elastic Compliance Matrix: (Units=1/GPa)
#
#
# Indices 1 2 3 4 5 6 
#
# 1 0.013639 -0.002850 0.004107 0.000000 -0.006625 0.000000
# 2 -0.002850 0.007295 -0.004840 0.000000 0.003212 0.000000
# 3 0.004107 -0.004840 0.021977 0.000000 -0.010583 0.000000
# 4 0.000000 0.000000 0.000000 0.092695 0.000000 0.006753
# 5 -0.006625 0.003212 -0.010583 0.000000 0.038760 0.000000
# 6 0.000000 0.000000 0.000000 0.006753 0.000000 0.059493
#
#
# Mechanical properties :
#
#
# Convention : Reuss Voigt Hill
#
# Bulk Modulus (GPa) = 27.97675 46.41260 37.19467
# Shear Modulus (GPa) = 19.76752 29.26300 24.51526
#
# Velocity S-wave (km/s) = 3.14756 3.82963 3.50523
# Velocity P-wave (km/s) = 5.21833 6.54339 5.91806
#
# Compressibility (1/GPa) = 0.03574397
#
# Stress axis : x y z
#
# Youngs Moduli (GPa) = 73.32108 137.08160 45.50157
#
# Poissons Ratio (x) = 0.39067 -0.18685
# Poissons Ratio (y) = 0.20896 0.22023
# Poissons Ratio (z) = -0.30110 0.66348
#
# Static dielectric constant tensor:
#      x y z
#    x 1.705790 0.000000 -0.003520 
#    y 0.000000 1.707930 0.000000 
#    z -0.003520 0.000000 1.740740 
# 
# From -- ./inp_files/260672.got.cif
#   From: 2010.05.17/outbox.cif.g08.bks.cpg/sg15_131_cif.got.tgz:260672.got - 2010.06.03 18:47:42.
