data_PCOD9280818
_publ_section_title
;
Structure prediction by ZEFSAII (Michael W. Deem and Ramdas Pophale) SiO2 
 PCOD9280818
Probable space group: C 2/C
;
_chemical_formula_sum "Si O2"
_cell_formula_units_Z 56
_cell_length_a 11.939321
_cell_length_b 14.246849
_cell_length_c 18.289770
_cell_angle_alpha 90.000000
_cell_angle_beta 116.069491
_cell_angle_gamma 90.000000
_cell_volume 2794.535178
_symmetry_space_group_name_H-M "C 2/C"
_symmetry_group_IT_number 15
_symmetry_cell_setting 'monoclinic'
loop_
_space_group_symop_operation_xyz
x,y,z
-x,y,1/2-z
-x,-y,-z
x,-y,1/2+z
1/2+x,1/2+y,z
1/2-x,1/2+y,1/2-z
1/2-x,1/2-y,-z
1/2+x,1/2-y,1/2+z
loop_
_atom_site_type_symbol
_atom_site_label
_atom_site_fract_x
_atom_site_fract_y
_atom_site_fract_z
Si Si1 0.409759 0.220438 0.929016
Si Si2 0.876255 0.022715 0.608260
Si Si3 0.992487 0.422888 0.931669
Si Si4 0.149455 0.051612 0.623918
Si Si5 0.354254 0.670432 0.021926
Si Si6 0.751052 0.883438 0.943051
Si Si7 0.789443 0.451634 0.309058
O O1 0.510953 0.287293 0.920071
O O2 0.296222 0.283109 0.927264
O O3 0.361141 0.138566 0.862342
O O4 0.490045 0.173239 0.018059
O O5 0.832238 0.920686 0.566294
O O6 0.798959 0.098223 0.538830
O O7 0.836396 0.035572 0.679817
O O8 0.017903 0.039302 0.626434
O O9 0.107549 0.414591 0.908035
O O10 0.873081 0.456819 0.851870
O O11 0.000000 0.500000 0.000000
O O12 0.143756 0.131868 0.560742
O O13 0.254887 0.062998 0.715315
O O14 0.177372 0.957720 0.586754
O O15 0.250000 0.750000 0.000000
#
# Coordination Sequence:
#
# PCOD9280818 Si02
#       7
#     8   8   8   8   8   8   8
#     4  11  21  41  66  95 124 164 225 260 310 386
#     4  11  20  44  67  88 127 176 211 253 323 401
#     4  10  21  37  64  92 124 165 209 258 319 388
#     4  11  24  43  63  93 137 170 210 267 338 374
#     4  11  23  40  69  96 122 169 225 266 307 388
#     4  11  20  40  67  91 123 168 218 261 310 394
#     4  11  25  41  65  96 134 168 209 271 334 375
#
# _framework density 20.039110000000001
#
# number of rings (size 3 to 8) (size 9 to 14) (size 15 to 20)
#    0.000    1.143    5.714    2.571    6.000    0.571 
#    5.143    0.000    0.000    0.000    0.000    0.000 
#    0.000    0.000    0.000    0.000    0.000    0.000 
#
# Total GULP energy -156249.177774 kJ/mol
# GULP energy per Si atom -5580.327778 kJ/mol
# Density = 1.999350 g / cm^3
# Si number density = 20.039110 Si / 1000 Ang^3
#
#
#
# Elastic Constant Matrix: (Units=GPa)
#
#
# Indices 1 2 3 4 5 6 
#
# 1 90.9050 36.2349 8.3083 0.0000 2.4897 0.0000
# 2 36.2349 107.5232 24.9233 0.0000 4.0392 0.0000
# 3 8.3083 24.9233 79.0372 0.0000 0.6893 0.0000
# 4 0.0000 0.0000 0.0000 9.1200 0.0000 8.0937
# 5 2.4897 4.0392 0.6893 0.0000 18.1699 0.0000
# 6 0.0000 0.0000 0.0000 8.0937 0.0000 36.9334
#
#
#
# Elastic Compliance Matrix: (Units=1/GPa)
#
#
# Indices 1 2 3 4 5 6 
#
# 1 0.012719 -0.004259 0.000013 0.000000 -0.000796 0.000000
# 2 -0.004259 0.011542 -0.003176 0.000000 -0.001862 0.000000
# 3 0.000013 -0.003176 0.013651 0.000000 0.000186 0.000000
# 4 0.000000 0.000000 0.000000 0.136122 0.000000 -0.029830
# 5 -0.000796 -0.001862 0.000186 0.000000 0.055552 0.000000
# 6 0.000000 0.000000 0.000000 -0.029830 0.000000 0.033613
#
#
# Mechanical properties :
#
#
# Convention : Reuss Voigt Hill
#
# Bulk Modulus (GPa) = 43.35081 46.26650 44.80866
# Shear Modulus (GPa) = 17.49895 26.71125 22.10510
#
# Velocity S-wave (km/s) = 2.95827 3.65493 3.32490
# Velocity P-wave (km/s) = 5.77482 6.39918 6.09500
#
# Compressibility (1/GPa) = 0.02306762
#
# Stress axis : x y z
#
# Youngs Moduli (GPa) = 78.62323 86.64231 73.25664
#
# Poissons Ratio (x) = 0.36904 -0.00096
# Poissons Ratio (y) = 0.33488 0.23263
# Poissons Ratio (z) = -0.00103 0.27514
#
# Static dielectric constant tensor:
#      x y z
#    x 1.790160 0.000000 0.028790 
#    y 0.000000 1.712390 0.000000 
#    z 0.028790 0.000000 1.683100 
# 
# From -- ./inp_files/198428.got.cif
#   From: 2010.05.17/outbox.cif.g08.bks.cpg/sg15_100_cif.got.tgz:198428.got - 2010.06.03 18:47:42.
