data_PCOD9280132
_publ_section_title
;
Structure prediction by ZEFSAII (Michael W. Deem and Ramdas Pophale) SiO2 
 PCOD9280132
Probable space group: C 2/C
;
_chemical_formula_sum "Si O2"
_cell_formula_units_Z 64
_cell_length_a 18.747731
_cell_length_b 21.658934
_cell_length_c 8.938258
_cell_angle_alpha 90.000000
_cell_angle_beta 85.111595
_cell_angle_gamma 90.000000
_cell_volume 3616.230279
_symmetry_space_group_name_H-M "C 2/C"
_symmetry_group_IT_number 15
_symmetry_cell_setting 'monoclinic'
loop_
_space_group_symop_operation_xyz
x,y,z
-x,y,1/2-z
-x,-y,-z
x,-y,1/2+z
1/2+x,1/2+y,z
1/2-x,1/2+y,1/2-z
1/2-x,1/2-y,-z
1/2+x,1/2-y,1/2+z
loop_
_atom_site_type_symbol
_atom_site_label
_atom_site_fract_x
_atom_site_fract_y
_atom_site_fract_z
Si Si1 0.805711 0.057020 0.526632
Si Si2 0.206079 0.363412 0.250008
Si Si3 0.568819 0.740282 0.831145
Si Si4 0.581222 0.225321 0.674335
Si Si5 0.200171 0.915779 0.032786
Si Si6 0.216651 0.254004 0.674069
Si Si7 0.423883 0.403366 0.206153
Si Si8 0.675959 0.654703 0.236126
O O1 0.740272 0.083929 0.638460
O O2 0.881370 0.053355 0.600054
O O3 0.820901 0.108750 0.401446
O O4 0.789387 0.988987 0.472788
O O5 0.129502 0.333255 0.222736
O O6 0.225916 0.386893 0.414345
O O7 0.257503 0.303959 0.232180
O O8 0.500000 0.760305 0.750000
O O9 0.632656 0.753305 0.703551
O O10 0.563997 0.666000 0.857706
O O11 0.580153 0.770165 0.992801
O O12 0.500000 0.222017 0.750000
O O13 0.619350 0.288953 0.727591
O O14 0.172711 0.887387 0.883459
O O15 0.135236 0.898362 0.153955
O O16 0.250000 0.250000 0.500000
O O17 0.248342 0.311966 0.753985
O O18 0.500000 0.426877 0.250000
#
# Coordination Sequence:
#
# PCOD9280132 Si02
#       8
#     8   8   8   8   8   8   8   8
#     4  11  21  39  58  82 115 158 205 250 285 344
#     4  10  21  40  58  84 122 146 203 250 305 351
#     4  11  22  36  58  84 124 161 195 237 304 365
#     4  11  25  37  61  92 123 157 191 256 313 365
#     4  11  22  37  59  82 114 162 201 246 290 351
#     4  11  19  35  61  84 114 158 193 252 309 356
#     4  10  21  37  52  75 120 162 193 240 289 339
#     4  11  21  33  58  85 113 146 208 240 295 358
#
# _framework density 17.697989
#
# number of rings (size 3 to 8) (size 9 to 14) (size 15 to 20)
#    0.000    1.250    5.000    2.250    7.000    2.500 
#    0.000    1.250    0.000    0.750    0.000    1.750 
#    0.000    0.000    0.000    0.000    0.000    0.000 
#
# Total GULP energy -178200.166841 kJ/mol
# GULP energy per Si atom -5568.755214 kJ/mol
# Density = 1.765771 g / cm^3
# Si number density = 17.697989 Si / 1000 Ang^3
#
#
#
# Elastic Constant Matrix: (Units=GPa)
#
#
# Indices 1 2 3 4 5 6 
#
# 1 129.9676 35.0150 34.7069 0.0000 6.5804 0.0000
# 2 35.0150 73.4777 9.7791 0.0000 9.0931 0.0000
# 3 34.7069 9.7791 71.0010 0.0000 6.6891 0.0000
# 4 0.0000 0.0000 0.0000 -147.4961 0.0000 -7.5939
# 5 6.5804 9.0931 6.6891 0.0000 21.4233 0.0000
# 6 0.0000 0.0000 0.0000 -7.5939 0.0000 16.7292
#
#
#
# Elastic Compliance Matrix: (Units=1/GPa)
#
#
# Indices 1 2 3 4 5 6 
#
# 1 0.009967 -0.004184 -0.004301 0.000000 0.000058 0.000000
# 2 -0.004184 0.016266 0.000345 0.000000 -0.005727 0.000000
# 3 -0.004301 0.000345 0.016515 0.000000 -0.003981 0.000000
# 4 0.000000 0.000000 0.000000 -0.006625 0.000000 -0.003007
# 5 0.000058 -0.005727 -0.003981 0.000000 0.050334 0.000000
# 6 0.000000 0.000000 0.000000 -0.003007 0.000000 0.058411
#
#
# Mechanical properties :
#
#
# Convention : Reuss Voigt Hill
#
# Bulk Modulus (GPa) = 37.78461 48.16094 42.97278
# Shear Modulus (GPa) = 29.41648 -8.87238 10.27205
#
# Velocity S-wave (km/s) = 4.08135 -2.24145 2.41178
# Velocity P-wave (km/s) = 6.60348 4.53574 5.66475
#
# Compressibility (1/GPa) = 0.02646580
#
# Stress axis : x y z
#
# Youngs Moduli (GPa) = 100.32802 61.47624 60.55263
#
# Poissons Ratio (x) = 0.25725 0.26046
# Poissons Ratio (y) = 0.41982 -0.02086
# Poissons Ratio (z) = 0.43155 -0.02118
#
# Static dielectric constant tensor:
#      x y z
#    x 1.578180 0.000000 0.124050 
#    y 0.000000 1.604770 0.000000 
#    z 0.124050 0.000000 1.341100 
# 
# From -- ./inp_files/51249.got.cif
#   From: 2010.05.17/outbox.cif.g08.bks.cpg/sg15_26_cif.got.tgz:51249.got - 2010.06.03 18:47:42.
