data_PCOD9280331
_publ_section_title
;
Structure prediction by ZEFSAII (Michael W. Deem and Ramdas Pophale) SiO2 
 PCOD9280331
Probable space group: C 2/C
;
_chemical_formula_sum "Si O2"
_cell_formula_units_Z 44
_cell_length_a 25.638824
_cell_length_b 14.287748
_cell_length_c 11.947263
_cell_angle_alpha 90.000000
_cell_angle_beta 156.645605
_cell_angle_gamma 90.000000
_cell_volume 1734.933667
_symmetry_space_group_name_H-M "C 2/C"
_symmetry_group_IT_number 15
_symmetry_cell_setting 'monoclinic'
loop_
_space_group_symop_operation_xyz
x,y,z
-x,y,1/2-z
-x,-y,-z
x,-y,1/2+z
1/2+x,1/2+y,z
1/2-x,1/2+y,1/2-z
1/2-x,1/2-y,-z
1/2+x,1/2-y,1/2+z
loop_
_atom_site_type_symbol
_atom_site_label
_atom_site_fract_x
_atom_site_fract_y
_atom_site_fract_z
Si Si1 0.500000 0.557525 0.250000
Si Si2 0.839685 0.319262 0.342527
Si Si3 0.215335 0.468786 0.698606
Si Si4 0.457565 0.605702 0.403488
Si Si5 0.320219 0.294832 0.030645
Si Si6 0.169514 0.652031 0.911505
O O1 0.629832 0.493868 0.519961
O O2 0.491361 0.623371 0.341081
O O3 0.831998 0.429916 0.355037
O O4 0.859014 0.273626 0.504225
O O5 0.719861 0.247049 0.070494
O O6 0.911675 0.325060 0.360597
O O7 0.134658 0.425738 0.434649
O O8 0.228532 0.381382 0.808924
O O9 0.500000 0.500000 0.500000
O O10 0.543844 0.660772 0.660895
O O11 0.304916 0.611142 0.127447
O O12 0.250000 0.250000 0.000000
#
# Coordination Sequence:
#
# PCOD9280331 Si02
#       6
#     4   8   8   8   8   8
#     4  12  20  30  60  92 120 158 196 260 326 346
#     4  10  22  36  56  88 126 168 202 259 310 379
#     4  11  20  36  59  89 126 161 205 258 313 367
#     4  12  21  36  62  90 126 156 203 267 316 365
#     4  11  24  37  58  97 128 160 207 261 320 376
#     4  10  21  37  58  89 121 167 209 249 317 376
#
# _framework density 25.361198999999999
#
# number of rings (size 3 to 8) (size 9 to 14) (size 15 to 20)
#    0.000    1.091    5.455    1.091    2.545    2.182 
#    0.000    0.000    0.000    1.091   14.182    0.000 
#    0.000    0.000    0.000    0.000    0.000    0.000 
#
# Total GULP energy -122690.597746 kJ/mol
# GULP energy per Si atom -5576.845352 kJ/mol
# Density = 2.530348 g / cm^3
# Si number density = 25.361199 Si / 1000 Ang^3
#
#
#
# Elastic Constant Matrix: (Units=GPa)
#
#
# Indices 1 2 3 4 5 6 
#
# 1 122.2312 49.7284 46.4088 0.0000 -58.9099 0.0000
# 2 49.7284 182.1681 38.1201 0.0000 -44.4177 0.0000
# 3 46.4088 38.1201 60.9094 0.0000 -46.2227 0.0000
# 4 0.0000 0.0000 0.0000 44.9136 0.0000 -9.8305
# 5 -58.9099 -44.4177 -46.2227 0.0000 57.7669 0.0000
# 6 0.0000 0.0000 0.0000 -9.8305 0.0000 55.4389
#
#
#
# Elastic Compliance Matrix: (Units=1/GPa)
#
#
# Indices 1 2 3 4 5 6 
#
# 1 0.016130 -0.000492 0.000544 0.000000 0.016506 0.000000
# 2 -0.000492 0.006784 -0.000746 0.000000 0.004117 0.000000
# 3 0.000544 -0.000746 0.041896 0.000000 0.033505 0.000000
# 4 0.000000 0.000000 0.000000 0.023164 0.000000 0.004107
# 5 0.016506 0.004117 0.033505 0.000000 0.064118 0.000000
# 6 0.000000 0.000000 0.000000 0.004107 0.000000 0.018766
#
#
# Mechanical properties :
#
#
# Convention : Reuss Voigt Hill
#
# Bulk Modulus (GPa) = 15.76759 70.42483 43.09621
# Shear Modulus (GPa) = 25.85475 47.02731 36.44103
#
# Velocity S-wave (km/s) = 3.19636 4.31083 3.79473
# Velocity P-wave (km/s) = 4.45567 7.25305 6.01913
#
# Compressibility (1/GPa) = 0.06342123
#
# Stress axis : x y z
#
# Youngs Moduli (GPa) = 61.99595 147.40930 23.86848
#
# Poissons Ratio (x) = 0.07259 -0.01299
# Poissons Ratio (y) = 0.03053 0.01781
# Poissons Ratio (z) = -0.03374 0.11000
#
# Static dielectric constant tensor:
#      x y z
#    x 2.718080 0.000000 -0.001150 
#    y 0.000000 2.023620 0.000000 
#    z -0.001150 0.000000 2.195520 
# 
# From -- ./inp_files/122749.got.cif
#   From: 2010.05.17/outbox.cif.g08.bks.cpg/sg15_62_cif.got.tgz:122749.got - 2010.06.03 18:47:42.
