data_PCOD9280179
_publ_section_title
;
Structure prediction by ZEFSAII (Michael W. Deem and Ramdas Pophale) SiO2 
 PCOD9280179
Probable space group: C 2/C
;
_chemical_formula_sum "Si O2"
_cell_formula_units_Z 60
_cell_length_a 18.340520
_cell_length_b 15.374017
_cell_length_c 14.056481
_cell_angle_alpha 90.000000
_cell_angle_beta 56.333433
_cell_angle_gamma 90.000000
_cell_volume 3298.708135
_symmetry_space_group_name_H-M "C 2/C"
_symmetry_group_IT_number 15
_symmetry_cell_setting 'monoclinic'
loop_
_space_group_symop_operation_xyz
x,y,z
-x,y,1/2-z
-x,-y,-z
x,-y,1/2+z
1/2+x,1/2+y,z
1/2-x,1/2+y,1/2-z
1/2-x,1/2-y,-z
1/2+x,1/2-y,1/2+z
loop_
_atom_site_type_symbol
_atom_site_label
_atom_site_fract_x
_atom_site_fract_y
_atom_site_fract_z
Si Si1 0.765864 0.005351 0.252998
Si Si2 0.654918 0.163463 0.378004
Si Si3 0.000000 0.816658 0.750000
Si Si4 0.355571 0.460087 0.887536
Si Si5 0.705868 0.842876 0.049791
Si Si6 0.426975 0.439256 0.506521
Si Si7 0.479217 0.254115 0.546114
Si Si8 0.696885 0.185058 0.759211
O O1 0.685546 0.074339 0.306160
O O2 0.808352 0.006670 0.327473
O O3 0.838547 0.042909 0.129173
O O4 0.740588 0.906155 0.252930
O O5 0.656693 0.138621 0.488641
O O6 0.558665 0.203772 0.437318
O O7 0.730160 0.237379 0.301707
O O8 0.916746 0.880928 0.809711
O O9 0.002829 0.772895 0.641875
O O10 0.281242 0.414852 0.006258
O O11 0.408165 0.529796 0.912244
O O12 0.656123 0.830335 0.183401
O O13 0.750000 0.750000 0.000000
O O14 0.500000 0.500000 0.500000
O O15 0.461824 0.343382 0.502408
O O16 0.384865 0.207645 0.615792
#
# Coordination Sequence:
#
# PCOD9280179 Si02
#       8
#     8   8   4   8   8   8   8   8
#     4  11  22  39  58  85 122 158 196 241 296 356
#     4  10  21  37  55  87 122 152 196 247 298 351
#     4  12  18  32  56  94 120 138 184 264 312 352
#     4  11  20  34  55  86 117 149 196 244 299 347
#     4   9  17  30  53  79 114 147 180 237 305 348
#     4  12  21  36  59  88 117 153 197 247 297 347
#     4  12  22  34  59  88 121 151 197 243 302 355
#     4  11  20  36  57  84 116 159 198 238 297 355
#
# _framework density 18.188939000000001
#
# number of rings (size 3 to 8) (size 9 to 14) (size 15 to 20)
#    0.000    1.067    5.333    4.800    0.000    0.533 
#    0.000    0.667    0.000    0.000    0.000    0.000 
#    0.000    0.000    0.000    0.000    0.000    0.000 
#
# Total GULP energy -167194.729386 kJ/mol
# GULP energy per Si atom -5573.157646 kJ/mol
# Density = 1.814754 g / cm^3
# Si number density = 18.188939 Si / 1000 Ang^3
#
#
#
# Elastic Constant Matrix: (Units=GPa)
#
#
# Indices 1 2 3 4 5 6 
#
# 1 51.2016 23.1634 16.6346 0.0000 -7.0532 0.0000
# 2 23.1634 62.3876 12.6976 0.0000 -2.0400 0.0000
# 3 16.6346 12.6976 62.0631 0.0000 -16.9133 0.0000
# 4 0.0000 0.0000 0.0000 27.9952 0.0000 -5.1427
# 5 -7.0532 -2.0400 -16.9133 0.0000 31.4049 0.0000
# 6 0.0000 0.0000 0.0000 -5.1427 0.0000 35.4800
#
#
#
# Elastic Compliance Matrix: (Units=1/GPa)
#
#
# Indices 1 2 3 4 5 6 
#
# 1 0.025076 -0.008354 -0.004249 0.000000 0.002801 0.000000
# 2 -0.008354 0.019529 -0.002253 0.000000 -0.001821 0.000000
# 3 -0.004249 -0.002253 0.020407 0.000000 0.009890 0.000000
# 4 0.000000 0.000000 0.000000 0.036698 0.000000 0.005319
# 5 0.002801 -0.001821 0.009890 0.000000 0.037679 0.000000
# 6 0.000000 0.000000 0.000000 0.005319 0.000000 0.028956
#
#
# Mechanical properties :
#
#
# Convention : Reuss Voigt Hill
#
# Bulk Modulus (GPa) = 28.32660 31.18261 29.75461
# Shear Modulus (GPa) = 23.82954 27.18649 25.50801
#
# Velocity S-wave (km/s) = 3.62347 3.87029 3.74891
# Velocity P-wave (km/s) = 5.75443 6.09534 5.92733
#
# Compressibility (1/GPa) = 0.03530250
#
# Stress axis : x y z
#
# Youngs Moduli (GPa) = 39.87861 51.20474 49.00176
#
# Poissons Ratio (x) = 0.42776 0.20819
# Poissons Ratio (y) = 0.33315 0.11038
# Poissons Ratio (z) = 0.16943 0.11535
#
# Static dielectric constant tensor:
#      x y z
#    x 1.655370 0.000000 -0.009600 
#    y 0.000000 1.648750 0.000000 
#    z -0.009600 0.000000 1.661260 
# 
# From -- ./inp_files/154228.got.cif
#   From: 2010.05.17/outbox.cif.g08.bks.cpg/sg15_78_cif.got.tgz:154228.got - 2010.06.03 18:47:42.
