data_PCOD9280349
_publ_section_title
;
Structure prediction by ZEFSAII (Michael W. Deem and Ramdas Pophale) SiO2 
 PCOD9280349
Probable space group: C 2/C
;
_chemical_formula_sum "Si O2"
_cell_formula_units_Z 60
_cell_length_a 26.432256
_cell_length_b 11.347609
_cell_length_c 9.176909
_cell_angle_alpha 90.000000
_cell_angle_beta 90.056193
_cell_angle_gamma 90.000000
_cell_volume 2752.547430
_symmetry_space_group_name_H-M "C 2/C"
_symmetry_group_IT_number 15
_symmetry_cell_setting 'monoclinic'
loop_
_space_group_symop_operation_xyz
x,y,z
-x,y,1/2-z
-x,-y,-z
x,-y,1/2+z
1/2+x,1/2+y,z
1/2-x,1/2+y,1/2-z
1/2-x,1/2-y,-z
1/2+x,1/2-y,1/2+z
loop_
_atom_site_type_symbol
_atom_site_label
_atom_site_fract_x
_atom_site_fract_y
_atom_site_fract_z
Si Si1 0.168864 0.292047 0.538418
Si Si2 0.613431 0.191275 0.430630
Si Si3 0.149160 0.095529 0.770959
Si Si4 0.203511 0.444641 0.765270
Si Si5 0.000000 0.459932 0.250000
Si Si6 0.830835 0.703908 0.793157
Si Si7 0.932801 0.444255 0.004075
Si Si8 0.802556 0.921965 0.918435
O O1 0.166833 0.178716 0.639424
O O2 0.211220 0.371943 0.616357
O O3 0.172362 0.256183 0.372320
O O4 0.117474 0.372449 0.537925
O O5 0.606537 0.314993 0.343268
O O6 0.665035 0.134218 0.361997
O O7 0.621274 0.220410 0.600974
O O8 0.578224 0.076506 0.434913
O O9 0.151045 0.971745 0.682153
O O10 0.184086 0.072401 0.912444
O O11 0.177575 0.565430 0.716791
O O12 0.252036 0.480372 0.857765
O O13 0.036250 0.388191 0.361058
O O14 0.966253 0.536986 0.360951
O O15 0.791667 0.785488 0.878140
#
# Coordination Sequence:
#
# PCOD9280349 Si02
#       8
#     8   8   8   8   4   8   8   8
#     4  11  22  37  61  79 118 158 208 222 302 358
#     4  10  21  37  59  79 120 157 201 225 299 359
#     4  10  24  41  55  79 110 164 197 264 292 333
#     4  11  22  35  54  82 108 168 199 257 293 339
#     4  10  22  30  60  88 136 142 174 220 304 342
#     4  11  21  36  56  82 106 162 206 257 294 337
#     4  11  19  38  54  94 121 160 175 231 276 391
#     4  11  26  38  55  78 124 145 227 263 292 319
#
# _framework density 21.797988
#
# number of rings (size 3 to 8) (size 9 to 14) (size 15 to 20)
#    0.000    1.333    2.667    3.200    7.467    3.200 
#    0.000    0.000    0.000    0.000    0.000    0.000 
#    0.000  247.467    0.000    0.000    0.000    0.000 
#
# Total GULP energy -167027.635476 kJ/mol
# GULP energy per Si atom -5567.587849 kJ/mol
# Density = 2.174838 g / cm^3
# Si number density = 21.797988 Si / 1000 Ang^3
#
#
#
# Elastic Constant Matrix: (Units=GPa)
#
#
# Indices 1 2 3 4 5 6 
#
# 1 44.9184 13.5107 13.7667 0.0000 3.1984 0.0000
# 2 13.5107 79.9856 44.3611 0.0000 3.2632 0.0000
# 3 13.7667 44.3611 178.4400 0.0000 14.9903 0.0000
# 4 0.0000 0.0000 0.0000 46.7424 0.0000 0.2861
# 5 3.1984 3.2632 14.9903 0.0000 32.9369 0.0000
# 6 0.0000 0.0000 0.0000 0.2861 0.0000 7.4162
#
#
#
# Elastic Compliance Matrix: (Units=1/GPa)
#
#
# Indices 1 2 3 4 5 6 
#
# 1 0.023674 -0.003474 -0.000830 0.000000 -0.001577 0.000000
# 2 -0.003474 0.015013 -0.003502 0.000000 0.000444 0.000000
# 3 -0.000830 -0.003502 0.006761 0.000000 -0.002650 0.000000
# 4 0.000000 0.000000 0.000000 0.021399 0.000000 -0.000825
# 5 -0.001577 0.000444 -0.002650 0.000000 0.031676 0.000000
# 6 0.000000 0.000000 0.000000 -0.000825 0.000000 0.134872
#
#
# Mechanical properties :
#
#
# Convention : Reuss Voigt Hill
#
# Bulk Modulus (GPa) = 33.51586 49.62457 41.57021
# Shear Modulus (GPa) = 19.30848 32.86613 26.08731
#
# Velocity S-wave (km/s) = 2.97945 3.88720 3.46320
# Velocity P-wave (km/s) = 5.21970 6.55455 5.92484
#
# Compressibility (1/GPa) = 0.02983662
#
# Stress axis : x y z
#
# Youngs Moduli (GPa) = 42.23990 66.60903 147.90107
#
# Poissons Ratio (x) = 0.23141 0.12281
# Poissons Ratio (y) = 0.14675 0.51788
# Poissons Ratio (z) = 0.03507 0.23323
#
# Static dielectric constant tensor:
#      x y z
#    x 1.892950 0.000000 -0.006850 
#    y 0.000000 1.890740 0.000000 
#    z -0.006850 0.000000 1.856310 
# 
# From -- ./inp_files/69119.got.cif
#   From: 2010.05.17/outbox.cif.g08.bks.cpg/sg15_35_cif.got.tgz:69119.got - 2010.06.03 18:47:42.
