data_PCOD9280618
_publ_section_title
;
Structure prediction by ZEFSAII (Michael W. Deem and Ramdas Pophale) SiO2 
 PCOD9280618
Probable space group: C 2/C
;
_chemical_formula_sum "Si O2"
_cell_formula_units_Z 56
_cell_length_a 10.654185
_cell_length_b 20.505795
_cell_length_c 19.189062
_cell_angle_alpha 90.000000
_cell_angle_beta 137.480524
_cell_angle_gamma 90.000000
_cell_volume 2833.315824
_symmetry_space_group_name_H-M "C 2/C"
_symmetry_group_IT_number 15
_symmetry_cell_setting 'monoclinic'
loop_
_space_group_symop_operation_xyz
x,y,z
-x,y,1/2-z
-x,-y,-z
x,-y,1/2+z
1/2+x,1/2+y,z
1/2-x,1/2+y,1/2-z
1/2-x,1/2-y,-z
1/2+x,1/2-y,1/2+z
loop_
_atom_site_type_symbol
_atom_site_label
_atom_site_fract_x
_atom_site_fract_y
_atom_site_fract_z
Si Si1 0.000000 0.219059 0.750000
Si Si2 0.822572 0.694046 0.079415
Si Si3 0.274187 0.333920 0.286789
Si Si4 0.952568 0.076467 0.531925
Si Si5 0.881405 0.683799 0.550741
Si Si6 0.859054 0.301283 0.887841
Si Si7 0.100370 0.061151 0.440138
Si Si8 0.500000 0.390732 0.750000
O O1 0.156524 0.269771 0.839372
O O2 0.090141 0.178301 0.724341
O O3 0.020902 0.675720 0.128600
O O4 0.750000 0.750000 0.000000
O O5 0.683460 0.636329 0.016923
O O6 0.349373 0.400459 0.353479
O O7 0.313791 0.274609 0.356518
O O8 0.060384 0.324468 0.174390
O O9 0.974044 0.068597 0.457465
O O10 0.856919 0.015321 0.531313
O O11 0.750000 0.750000 0.500000
O O12 0.955912 0.686903 0.501666
O O13 0.754344 0.618851 0.507864
O O14 0.674870 0.343325 0.816126
O O15 0.014590 0.069759 0.328143
#
# Coordination Sequence:
#
# PCOD9280618 Si02
#       8
#     4   8   8   8   8   8   8   4
#     4  10  22  33  64 100 129 170 220 262 332 383
#     4  11  21  39  61  95 130 164 214 273 321 384
#     4  11  22  37  65  98 129 176 214 274 332 386
#     4  11  24  44  65  91 138 173 215 269 327 402
#     4  11  23  39  67  96 132 168 226 279 323 388
#     4  10  21  37  61  97 124 161 216 275 328 375
#     4  10  25  45  64  93 131 176 214 266 330 390
#     4  10  22  45  64  90 127 166 220 264 330 391
#
# _framework density 19.764828999999999
#
# number of rings (size 3 to 8) (size 9 to 14) (size 15 to 20)
#    0.000    1.429    2.857    3.429    6.000    2.286 
#    2.571    1.429    0.000    0.000    0.000    0.000 
#    0.000    0.000    0.000    0.000    0.000    0.000 
#
# Total GULP energy -155998.407739 kJ/mol
# GULP energy per Si atom -5571.371705 kJ/mol
# Density = 1.971984 g / cm^3
# Si number density = 19.764829 Si / 1000 Ang^3
#
#
#
# Elastic Constant Matrix: (Units=GPa)
#
#
# Indices 1 2 3 4 5 6 
#
# 1 55.2680 0.8604 12.9253 0.0000 -18.2987 0.0000
# 2 0.8604 66.2164 24.3959 0.0000 -21.0450 0.0000
# 3 12.9253 24.3959 90.0570 0.0001 -6.2337 0.0000
# 4 0.0000 0.0000 0.0001 20.7660 0.0000 -1.6030
# 5 -18.2987 -21.0450 -6.2337 0.0000 29.5569 0.0000
# 6 0.0000 0.0000 0.0000 -1.6030 0.0000 33.3184
#
#
#
# Elastic Compliance Matrix: (Units=1/GPa)
#
#
# Indices 1 2 3 4 5 6 
#
# 1 0.025843 0.007855 -0.004407 0.000000 0.020663 0.000000
# 2 0.007855 0.023781 -0.006151 0.000000 0.020498 0.000000
# 3 -0.004407 -0.006151 0.013102 0.000000 -0.004344 0.000000
# 4 0.000000 0.000000 0.000000 0.048335 0.000000 0.002326
# 5 0.020663 0.020498 -0.004344 0.000000 0.060304 0.000000
# 6 0.000000 0.000000 0.000000 0.002326 0.000000 0.030125
#
#
# Mechanical properties :
#
#
# Convention : Reuss Voigt Hill
#
# Bulk Modulus (GPa) = 17.44552 31.98940 24.71746
# Shear Modulus (GPa) = 22.12365 28.28558 25.20461
#
# Velocity S-wave (km/s) = 3.34929 3.78710 3.57490
# Velocity P-wave (km/s) = 4.87880 5.94500 5.43809
#
# Compressibility (1/GPa) = 0.05732129
#
# Stress axis : x y z
#
# Youngs Moduli (GPa) = 38.69477 42.05097 76.32427
#
# Poissons Ratio (x) = -0.33031 0.33634
# Poissons Ratio (y) = -0.30394 0.46944
# Poissons Ratio (z) = 0.17052 0.25864
#
# Static dielectric constant tensor:
#      x y z
#    x 0.640290 -0.000020 0.269600 
#    y -0.000020 -0.930310 0.000010 
#    z 0.269600 0.000010 1.626160 
# 
# From -- ./inp_files/240312.got.cif
#   From: 2010.05.17/outbox.cif.g08.bks.cpg/sg15_121_cif.got.tgz:240312.got - 2010.06.03 18:47:42.
