data_PCOD9280917
_publ_section_title
;
Structure prediction by ZEFSAII (Michael W. Deem and Ramdas Pophale) SiO2 
 PCOD9280917
Probable space group: C 2/C
;
_chemical_formula_sum "Si O2"
_cell_formula_units_Z 48
_cell_length_a 14.200256
_cell_length_b 11.673464
_cell_length_c 24.726702
_cell_angle_alpha 90.000000
_cell_angle_beta 29.163335
_cell_angle_gamma 90.000000
_cell_volume 1997.373940
_symmetry_space_group_name_H-M "C 2/C"
_symmetry_group_IT_number 15
_symmetry_cell_setting 'monoclinic'
loop_
_space_group_symop_operation_xyz
x,y,z
-x,y,1/2-z
-x,-y,-z
x,-y,1/2+z
1/2+x,1/2+y,z
1/2-x,1/2+y,1/2-z
1/2-x,1/2-y,-z
1/2+x,1/2-y,1/2+z
loop_
_atom_site_type_symbol
_atom_site_label
_atom_site_fract_x
_atom_site_fract_y
_atom_site_fract_z
Si Si1 0.591239 0.264288 0.032408
Si Si2 0.250152 0.431808 0.230965
Si Si3 0.167463 0.876827 0.603322
Si Si4 0.797316 0.065580 0.107684
Si Si5 0.786568 0.568983 0.152586
Si Si6 0.149995 0.623389 0.604560
O O1 0.447900 0.364928 0.124782
O O2 0.450445 0.158190 0.089317
O O3 0.750000 0.250000 0.000000
O O4 0.688159 0.312235 0.928309
O O5 0.250835 0.548782 0.194253
O O6 0.196939 0.458002 0.318737
O O7 0.074824 0.359675 0.294794
O O8 0.277403 0.950908 0.593069
O O9 0.221751 0.744926 0.590848
O O10 0.237808 0.899331 0.507491
O O11 0.936695 0.891959 0.723128
O O12 0.670252 0.983656 0.133391
O O13 0.000000 0.000000 0.000000
#
# Coordination Sequence:
#
# PCOD9280917 Si02
#       6
#     8   8   8   8   8   8
#     4  11  23  43  65  97 137 176 222 285 340 396
#     4  11  23  41  68  99 131 176 228 273 337 403
#     4  10  22  39  65  95 131 169 225 271 332 397
#     4  10  21  37  66  93 129 168 227 272 331 390
#     4  11  23  40  66  95 136 173 221 276 338 405
#     4  11  21  39  67  96 125 178 227 275 326 405
#
# _framework density 24.031555000000001
#
# number of rings (size 3 to 8) (size 9 to 14) (size 15 to 20)
#    0.000    1.333    1.667    5.500    2.333    2.000 
#    0.000    1.667    3.667    0.000    0.000    0.000 
#    0.000    0.000    0.000    0.000    0.000    0.000 
#
# Total GULP energy -134197.778793 kJ/mol
# GULP energy per Si atom -5591.574116 kJ/mol
# Density = 2.397686 g / cm^3
# Si number density = 24.031555 Si / 1000 Ang^3
#
#
#
# Elastic Constant Matrix: (Units=GPa)
#
#
# Indices 1 2 3 4 5 6 
#
# 1 121.7956 20.7613 40.9646 -0.0002 -18.5941 0.0000
# 2 20.7613 45.1723 8.7640 -0.0003 -3.8439 -0.0002
# 3 40.9646 8.7640 92.3672 -0.0020 -1.0672 -0.0009
# 4 -0.0002 -0.0003 -0.0020 26.4309 -0.0007 -3.2835
# 5 -18.5941 -3.8439 -1.0672 -0.0007 48.0322 0.0006
# 6 0.0000 -0.0002 -0.0009 -3.2835 0.0006 12.8551
#
#
#
# Elastic Compliance Matrix: (Units=1/GPa)
#
#
# Indices 1 2 3 4 5 6 
#
# 1 0.010945 -0.003842 -0.004445 0.000000 0.003831 -0.000001
# 2 -0.003842 0.024051 -0.000573 0.000000 0.000425 0.000000
# 3 -0.004445 -0.000573 0.012835 0.000001 -0.001482 0.000001
# 4 0.000000 0.000000 0.000001 0.039074 0.000000 0.009981
# 5 0.003831 0.000425 -0.001482 0.000000 0.022303 -0.000001
# 6 -0.000001 0.000000 0.000001 0.009981 -0.000001 0.080339
#
#
# Mechanical properties :
#
#
# Convention : Reuss Voigt Hill
#
# Bulk Modulus (GPa) = 33.21166 44.47942 38.84554
# Shear Modulus (GPa) = 23.00899 30.05332 26.53115
#
# Velocity S-wave (km/s) = 3.09762 3.54019 3.32627
# Velocity P-wave (km/s) = 5.16176 5.93797 5.56342
#
# Compressibility (1/GPa) = 0.03010991
#
# Stress axis : x y z
#
# Youngs Moduli (GPa) = 91.36221 41.57895 77.91096
#
# Poissons Ratio (x) = 0.15975 0.34635
# Poissons Ratio (y) = 0.35102 0.04465
# Poissons Ratio (z) = 0.40615 0.02383
#
# Static dielectric constant tensor:
#      x y z
#    x 1.788820 0.000000 0.111180 
#    y 0.000000 1.893090 0.000000 
#    z 0.111180 0.000000 1.880210 
# 
# From -- ./inp_files/296367.got.cif
#   From: 2010.05.17/outbox.cif.g08.bks.cpg/sg15_149_cif.got.tgz:296367.got - 2010.06.03 18:47:42.
