data_PCOD9280350
_publ_section_title
;
Structure prediction by ZEFSAII (Michael W. Deem and Ramdas Pophale) SiO2 
 PCOD9280350
Probable space group: C 2/C
;
_chemical_formula_sum "Si O2"
_cell_formula_units_Z 64
_cell_length_a 16.159519
_cell_length_b 8.629655
_cell_length_c 28.662350
_cell_angle_alpha 90.000000
_cell_angle_beta 55.681622
_cell_angle_gamma 90.000000
_cell_volume 3301.188511
_symmetry_space_group_name_H-M "C 2/C"
_symmetry_group_IT_number 15
_symmetry_cell_setting 'monoclinic'
loop_
_space_group_symop_operation_xyz
x,y,z
-x,y,1/2-z
-x,-y,-z
x,-y,1/2+z
1/2+x,1/2+y,z
1/2-x,1/2+y,1/2-z
1/2-x,1/2-y,-z
1/2+x,1/2-y,1/2+z
loop_
_atom_site_type_symbol
_atom_site_label
_atom_site_fract_x
_atom_site_fract_y
_atom_site_fract_z
Si Si1 0.832720 0.637723 1.000000
Si Si2 0.406369 0.449725 0.000000
Si Si3 0.488692 0.960425 0.607312
Si Si4 0.076297 0.143999 0.597641
Si Si5 0.228421 0.643999 0.097641
Si Si6 0.450481 0.072034 0.816422
Si Si7 0.703317 0.960425 0.392688
Si Si8 0.083326 0.072034 0.183577
O O1 0.905318 0.533949 0.944562
O O2 0.903864 0.766211 1.000000
O O3 0.750000 0.750000 0.000000
O O4 0.794441 0.533949 0.055438
O O5 0.412561 0.521253 0.946666
O O6 0.500000 0.500000 0.000000
O O7 0.305894 0.521253 0.053334
O O8 0.477799 0.028091 0.663039
O O9 0.398614 0.000000 0.601386
O O10 0.496577 0.774816 0.609165
O O11 0.174132 0.250000 0.575868
O O12 0.057123 0.049310 0.650972
O O13 0.140932 0.549310 0.150973
O O14 0.285094 0.774816 0.109165
O O15 0.500000 0.059719 0.750000
O O16 0.416235 0.250000 0.833765
O O17 0.803878 0.028091 0.336961
O O18 0.000000 0.059718 0.250000
#
# Coordination Sequence:
#
# PCOD9280350 Si02
#       8
#     8   8   8   8   8   8   8   8
#     4  12  22  36  60  84 121 163 198 237 296 363
#     4  12  22  34  54  86 118 149 190 237 284 339
#     4  11  22  38  59  89 121 152 194 249 298 348
#     4  10  21  37  59  81 113 152 191 230 285 352
#     4  10  21  37  59  81 113 152 191 230 285 352
#     4  10  22  42  63  83 112 152 198 242 293 361
#     4  11  22  38  59  89 121 152 194 249 298 348
#     4  10  22  42  63  83 112 152 198 242 293 361
#
# _framework density 19.386956999999999
#
# number of rings (size 3 to 8) (size 9 to 14) (size 15 to 20)
#    0.000    1.250    0.000    8.250    0.000    4.500 
#    0.000    6.250    0.000    0.000    0.000    0.000 
#    0.000    0.000    0.000    0.000    0.000    0.000 
#
# Total GULP energy -178658.350586 kJ/mol
# GULP energy per Si atom -5583.073456 kJ/mol
# Density = 1.934283 g / cm^3
# Si number density = 19.386957 Si / 1000 Ang^3
#
#
#
# Elastic Constant Matrix: (Units=GPa)
#
#
# Indices 1 2 3 4 5 6 
#
# 1 100.6035 31.4807 43.0724 0.0000 -3.2005 0.0001
# 2 31.4807 141.7163 39.4896 0.0000 0.7701 0.0001
# 3 43.0724 39.4896 85.4460 0.0000 1.7431 0.0000
# 4 0.0000 0.0000 0.0000 41.8276 0.0000 1.1228
# 5 -3.2005 0.7701 1.7431 0.0000 12.5977 0.0000
# 6 0.0001 0.0001 0.0000 1.1228 0.0000 30.1514
#
#
#
# Elastic Compliance Matrix: (Units=1/GPa)
#
#
# Indices 1 2 3 4 5 6 
#
# 1 0.013075 -0.001224 -0.006111 0.000000 0.004242 0.000000
# 2 -0.001224 0.008214 -0.003171 0.000000 -0.000374 0.000000
# 3 -0.006111 -0.003171 0.016323 0.000000 -0.003617 0.000000
# 4 0.000000 0.000000 0.000000 0.023932 0.000000 -0.000891
# 5 0.004242 -0.000374 -0.003617 0.000000 0.080980 0.000000
# 6 0.000000 0.000000 0.000000 -0.000891 0.000000 0.033199
#
#
# Mechanical properties :
#
#
# Convention : Reuss Voigt Hill
#
# Bulk Modulus (GPa) = 60.24920 61.76126 61.00523
# Shear Modulus (GPa) = 24.71938 31.16356 27.94147
#
# Velocity S-wave (km/s) = 3.57466 4.01365 3.80050
# Velocity P-wave (km/s) = 6.94134 7.30790 7.12698
#
# Compressibility (1/GPa) = 0.01659773
#
# Stress axis : x y z
#
# Youngs Moduli (GPa) = 76.48367 121.74207 61.26149
#
# Poissons Ratio (x) = 0.14907 0.37440
# Poissons Ratio (y) = 0.09365 0.19428
# Poissons Ratio (z) = 0.46743 0.38608
#
# Static dielectric constant tensor:
#      x y z
#    x 1.703200 0.000000 -0.003090 
#    y 0.000000 1.681480 0.000000 
#    z -0.003090 0.000000 1.671020 
# 
# From -- ./inp_files/313148.got.cif
#   From: 2010.05.17/outbox.cif.g08.bks.cpg/sg15_157_cif.got.tgz:313148.got - 2010.06.03 18:47:42.
