data_PCOD9280399
_publ_section_title
;
Structure prediction by ZEFSAII (Michael W. Deem and Ramdas Pophale) SiO2 
 PCOD9280399
Probable space group: C 2/C
;
_chemical_formula_sum "Si O2"
_cell_formula_units_Z 48
_cell_length_a 30.903519
_cell_length_b 20.336285
_cell_length_c 8.291958
_cell_angle_alpha 90.000000
_cell_angle_beta 30.553700
_cell_angle_gamma 90.000000
_cell_volume 2649.084422
_symmetry_space_group_name_H-M "C 2/C"
_symmetry_group_IT_number 15
_symmetry_cell_setting 'monoclinic'
loop_
_space_group_symop_operation_xyz
x,y,z
-x,y,1/2-z
-x,-y,-z
x,-y,1/2+z
1/2+x,1/2+y,z
1/2-x,1/2+y,1/2-z
1/2-x,1/2-y,-z
1/2+x,1/2-y,1/2+z
loop_
_atom_site_type_symbol
_atom_site_label
_atom_site_fract_x
_atom_site_fract_y
_atom_site_fract_z
Si Si1 0.821369 0.051975 0.189068
Si Si2 0.072723 0.843697 0.754325
Si Si3 0.000000 0.940239 0.250000
Si Si4 0.000000 0.250268 0.250000
Si Si5 0.205680 0.080644 0.594895
Si Si6 0.224270 0.813029 0.477350
Si Si7 0.813391 0.307982 0.858021
O O1 0.790805 0.118731 0.376343
O O2 0.768302 0.987017 0.400685
O O3 0.823484 0.066166 0.993055
O O4 0.913361 0.028148 0.964235
O O5 0.004120 0.798067 0.889847
O O6 0.133045 0.880315 0.430131
O O7 0.134927 0.802287 0.670808
O O8 0.028295 0.896730 0.008166
O O9 0.911539 0.288761 0.528933
O O10 0.285751 0.129545 0.342148
O O11 0.250000 0.750000 0.500000
O O12 0.290901 0.821542 0.117450
O O13 0.750000 0.250000 0.000000
#
# Coordination Sequence:
#
# PCOD9280399 Si02
#       7
#     8   8   4   4   8   8   8
#     4  11  23  37  62  85 123 166 193 255 307 363
#     4  10  22  34  57  87 125 157 198 246 302 360
#     4  10  22  35  52  96 121 154 204 238 304 383
#     4  12  22  37  64  90 119 166 198 256 302 347
#     4  11  22  41  59  85 123 163 201 245 306 368
#     4  10  21  37  59  88 123 159 198 243 300 361
#     4  11  22  40  60  90 121 159 205 248 300 355
#
# _framework density 18.119468000000001
#
# number of rings (size 3 to 8) (size 9 to 14) (size 15 to 20)
#    0.000    1.333    3.333    5.000    4.667    3.333 
#    0.000    0.000    0.000    4.000    0.000    0.000 
#    0.000    0.000    0.000    0.000    0.000    0.000 
#
# Total GULP energy -133901.956992 kJ/mol
# GULP energy per Si atom -5579.248208 kJ/mol
# Density = 1.807823 g / cm^3
# Si number density = 18.119468 Si / 1000 Ang^3
#
#
#
# Elastic Constant Matrix: (Units=GPa)
#
#
# Indices 1 2 3 4 5 6 
#
# 1 111.2440 56.7455 30.5613 0.0000 4.0089 0.0000
# 2 56.7455 107.9045 24.2239 0.0000 -14.2132 0.0000
# 3 30.5613 24.2239 67.5049 0.0000 -6.8198 0.0000
# 4 0.0000 0.0000 0.0000 18.2239 0.0000 -3.0646
# 5 4.0089 -14.2132 -6.8198 0.0000 33.1456 0.0000
# 6 0.0000 0.0000 0.0000 -3.0646 0.0000 31.4551
#
#
#
# Elastic Compliance Matrix: (Units=1/GPa)
#
#
# Indices 1 2 3 4 5 6 
#
# 1 0.014038 -0.007149 -0.004362 0.000000 -0.005661 0.000000
# 2 -0.007149 0.014173 -0.001172 0.000000 0.006701 0.000000
# 3 -0.004362 -0.001172 0.017577 0.000000 0.003641 0.000000
# 4 0.000000 0.000000 0.000000 0.055787 0.000000 0.005435
# 5 -0.005661 0.006701 0.003641 0.000000 0.034477 0.000000
# 6 0.000000 0.000000 0.000000 0.005435 0.000000 0.032321
#
#
# Mechanical properties :
#
#
# Convention : Reuss Voigt Hill
#
# Bulk Modulus (GPa) = 48.96802 56.63500 52.80151
# Shear Modulus (GPa) = 24.93175 28.23974 26.58574
#
# Velocity S-wave (km/s) = 3.71342 3.95211 3.83462
# Velocity P-wave (km/s) = 6.74313 7.22148 6.98640
#
# Compressibility (1/GPa) = 0.02042149
#
# Stress axis : x y z
#
# Youngs Moduli (GPa) = 71.23371 70.55751 56.89209
#
# Poissons Ratio (x) = 0.50441 0.24817
# Poissons Ratio (y) = 0.50925 0.06670
# Poissons Ratio (z) = 0.31072 0.08272
#
# Static dielectric constant tensor:
#      x y z
#    x 1.642010 0.000000 0.004700 
#    y 0.000000 1.638680 0.000000 
#    z 0.004700 0.000000 1.664850 
# 
# From -- ./inp_files/48404.got.cif
#   From: 2010.05.17/outbox.cif.g08.bks.cpg/sg15_25_cif.got.tgz:48404.got - 2010.06.03 18:47:42.
