data_PCOD9280970
_publ_section_title
;
Structure prediction by ZEFSAII (Michael W. Deem and Ramdas Pophale) SiO2 
 PCOD9280970
Probable space group: C 2/C
;
_chemical_formula_sum "Si O2"
_cell_formula_units_Z 40
_cell_length_a 14.720868
_cell_length_b 14.800370
_cell_length_c 14.918967
_cell_angle_alpha 90.000000
_cell_angle_beta 140.292633
_cell_angle_gamma 90.000000
_cell_volume 2076.610395
_symmetry_space_group_name_H-M "C 2/C"
_symmetry_group_IT_number 15
_symmetry_cell_setting 'monoclinic'
loop_
_space_group_symop_operation_xyz
x,y,z
-x,y,1/2-z
-x,-y,-z
x,-y,1/2+z
1/2+x,1/2+y,z
1/2-x,1/2+y,1/2-z
1/2-x,1/2-y,-z
1/2+x,1/2-y,1/2+z
loop_
_atom_site_type_symbol
_atom_site_label
_atom_site_fract_x
_atom_site_fract_y
_atom_site_fract_z
Si Si1 0.322378 0.701405 0.164503
Si Si2 0.000000 0.636379 0.750000
Si Si3 0.909449 0.428767 0.375440
Si Si4 0.000000 0.039751 0.250000
Si Si5 0.925762 0.062594 0.871489
Si Si6 0.492075 0.741679 0.019823
O O1 0.369711 0.791862 0.147468
O O2 0.365504 0.609347 0.147033
O O3 0.425448 0.700351 0.331249
O O4 0.162999 0.718091 0.074186
O O5 0.971689 0.583430 0.821027
O O6 0.743300 0.450717 0.246485
O O7 0.000000 0.500000 0.500000
O O8 0.919594 0.331790 0.432837
O O9 0.020334 0.975092 0.181450
O O10 0.968911 0.165165 0.928435
O O11 0.000000 0.000000 0.000000
#
# Coordination Sequence:
#
# PCOD9280970 Si02
#       6
#     8   4   8   4   8   8
#     4  10  21  37  70  95 127 165 220 278 324 378
#     4   9  20  40  63 100 126 164 223 274 325 378
#     4  11  25  40  65  95 134 174 221 272 332 390
#     4  11  24  40  67 100 130 176 225 270 329 388
#     4  12  25  42  64  99 133 172 216 276 332 393
#     4  11  21  43  64  96 131 170 214 271 332 386
#
# _framework density 19.262159
#
# number of rings (size 3 to 8) (size 9 to 14) (size 15 to 20)
#    0.000    1.200    6.000    1.200    0.000   13.600 
#    0.000    2.000    0.000    0.000    0.000    0.000 
#    0.000    0.000    0.000    0.000    0.000    0.000 
#
# Total GULP energy -111640.040685 kJ/mol
# GULP energy per Si atom -5582.002034 kJ/mol
# Density = 1.921832 g / cm^3
# Si number density = 19.262159 Si / 1000 Ang^3
#
#
#
# Elastic Constant Matrix: (Units=GPa)
#
#
# Indices 1 2 3 4 5 6 
#
# 1 123.7000 70.7252 75.6316 0.0000 -16.2203 0.0000
# 2 70.7252 133.0602 65.0560 0.0000 -15.7882 0.0000
# 3 75.6316 65.0560 130.9947 0.0000 8.9710 0.0000
# 4 0.0000 0.0000 0.0000 43.4928 0.0000 -11.9562
# 5 -16.2203 -15.7882 8.9710 0.0000 44.3874 0.0000
# 6 0.0000 0.0000 0.0000 -11.9562 0.0000 47.7712
#
#
#
# Elastic Compliance Matrix: (Units=1/GPa)
#
#
# Indices 1 2 3 4 5 6 
#
# 1 0.015712 -0.004000 -0.007484 0.000000 0.005831 0.000000
# 2 -0.004000 0.011961 -0.003875 0.000000 0.003576 0.000000
# 3 -0.007484 -0.003875 0.014360 0.000000 -0.007016 0.000000
# 4 0.000000 0.000000 0.000000 0.024691 0.000000 0.006180
# 5 0.005831 0.003576 -0.007016 0.000000 0.027350 0.000000
# 6 0.000000 0.000000 0.000000 0.006180 0.000000 0.022480
#
#
# Mechanical properties :
#
#
# Convention : Reuss Voigt Hill
#
# Bulk Modulus (GPa) = 88.39310 90.06451 89.22880
# Shear Modulus (GPa) = 33.10321 38.88642 35.99481
#
# Velocity S-wave (km/s) = 4.15005 4.49798 4.32751
# Velocity P-wave (km/s) = 8.30380 8.59270 8.44948
#
# Compressibility (1/GPa) = 0.01131310
#
# Stress axis : x y z
#
# Youngs Moduli (GPa) = 63.64722 83.60781 69.63797
#
# Poissons Ratio (x) = 0.33444 0.52117
# Poissons Ratio (y) = 0.25460 0.26987
# Poissons Ratio (z) = 0.47634 0.32401
#
# Static dielectric constant tensor:
#      x y z
#    x 1.711130 0.000000 -0.010550 
#    y 0.000000 1.701400 0.000000 
#    z -0.010550 0.000000 1.756870 
# 
# From -- ./inp_files/154185.got.cif
#   From: 2010.05.17/outbox.cif.g08.bks.cpg/sg15_78_cif.got.tgz:154185.got - 2010.06.03 18:47:42.
