data_PCOD9280437
_publ_section_title
;
Structure prediction by ZEFSAII (Michael W. Deem and Ramdas Pophale) SiO2 
 PCOD9280437
Probable space group: C 2/C
;
_chemical_formula_sum "Si O2"
_cell_formula_units_Z 56
_cell_length_a 19.936267
_cell_length_b 16.477608
_cell_length_c 13.022057
_cell_angle_alpha 90.000000
_cell_angle_beta 144.847655
_cell_angle_gamma 90.000000
_cell_volume 2462.937596
_symmetry_space_group_name_H-M "C 2/C"
_symmetry_group_IT_number 15
_symmetry_cell_setting 'monoclinic'
loop_
_space_group_symop_operation_xyz
x,y,z
-x,y,1/2-z
-x,-y,-z
x,-y,1/2+z
1/2+x,1/2+y,z
1/2-x,1/2+y,1/2-z
1/2-x,1/2-y,-z
1/2+x,1/2-y,1/2+z
loop_
_atom_site_type_symbol
_atom_site_label
_atom_site_fract_x
_atom_site_fract_y
_atom_site_fract_z
Si Si1 0.821927 0.513286 0.092552
Si Si2 0.332943 0.707712 0.276269
Si Si3 0.966291 0.772584 0.327432
Si Si4 0.829733 0.372191 0.762456
Si Si5 0.746334 0.877050 0.358188
Si Si6 0.413808 0.978092 0.491256
Si Si7 0.534261 0.407840 0.013512
O O1 0.757591 0.575195 0.088936
O O2 0.774111 0.426023 0.062918
O O3 0.825138 0.523707 0.976281
O O4 0.957353 0.529008 0.298061
O O5 0.420976 0.644085 0.333872
O O6 0.243345 0.661673 0.235547
O O7 0.270844 0.782033 0.143457
O O8 0.416352 0.749543 0.465440
O O9 0.880308 0.701502 0.257735
O O10 0.000000 0.776381 0.250000
O O11 0.930915 0.857400 0.338771
O O12 0.909846 0.436179 0.926213
O O13 0.864684 0.898134 0.444770
O O14 0.643798 0.914079 0.157942
O O15 0.500000 0.500000 0.000000
#
# Coordination Sequence:
#
# PCOD9280437 Si02
#       7
#     8   8   8   8   8   8   8
#     4  10  22  35  60  88 118 154 206 245 297 375
#     4  10  21  37  60  84 120 156 200 247 306 362
#     4  10  23  36  61  91 118 155 204 250 301 361
#     4  11  20  39  60  86 122 157 193 247 313 352
#     4  11  20  39  61  88 120 165 197 251 316 354
#     4  10  22  37  59  88 122 156 196 252 302 364
#     4  10  22  40  59  83 122 163 198 249 306 364
#
# _framework density 22.737076999999999
#
# number of rings (size 3 to 8) (size 9 to 14) (size 15 to 20)
#    0.857    0.857    1.429    5.143    4.000    1.714 
#    0.000    0.714    0.000    1.714    0.000    0.000 
#    0.000    0.000    0.000    0.000    0.000    0.000 
#
# Total GULP energy -155953.496593 kJ/mol
# GULP energy per Si atom -5569.767735 kJ/mol
# Density = 2.268533 g / cm^3
# Si number density = 22.737077 Si / 1000 Ang^3
#
#
#
# Elastic Constant Matrix: (Units=GPa)
#
#
# Indices 1 2 3 4 5 6 
#
# 1 471.2700 -56.7106 -64.5608 0.0000 124.0341 0.0000
# 2 -56.7106 145.6373 33.4615 0.0000 -5.4390 0.0000
# 3 -64.5608 33.4615 44.7842 0.0000 -17.2701 0.0000
# 4 0.0000 0.0000 0.0000 12.3772 0.0000 15.6584
# 5 124.0341 -5.4390 -17.2701 0.0000 71.1041 0.0000
# 6 0.0000 0.0000 0.0000 15.6584 0.0000 -158.3074
#
#
#
# Elastic Compliance Matrix: (Units=1/GPa)
#
#
# Indices 1 2 3 4 5 6 
#
# 1 0.004497 0.000749 0.003222 0.000000 -0.007005 0.000000
# 2 0.000749 0.008474 -0.006074 0.000000 -0.002134 0.000000
# 3 0.003222 -0.006074 0.032180 0.000000 0.001731 0.000000
# 4 0.000000 0.000000 0.000000 0.071808 0.000000 0.007103
# 5 -0.007005 -0.002134 0.001731 0.000000 0.026540 0.000000
# 6 0.000000 0.000000 0.000000 0.007103 0.000000 -0.005614
#
#
# Mechanical properties :
#
#
# Convention : Reuss Voigt Hill
#
# Bulk Modulus (GPa) = 24.42314 54.00798 39.21556
# Shear Modulus (GPa) = 32.10468 35.00154 33.55311
#
# Velocity S-wave (km/s) = 3.76173 3.92778 3.84565
# Velocity P-wave (km/s) = 5.44356 6.66144 6.08306
#
# Compressibility (1/GPa) = 0.04094477
#
# Stress axis : x y z
#
# Youngs Moduli (GPa) = 222.36636 118.00660 31.07498
#
# Poissons Ratio (x) = -0.08842 -0.10012
# Poissons Ratio (y) = -0.16662 0.18876
# Poissons Ratio (z) = -0.71643 0.71683
#
# Static dielectric constant tensor:
#      x y z
#    x 1.822480 0.000000 -0.012720 
#    y 0.000000 1.967620 0.000000 
#    z -0.012720 0.000000 1.862600 
# 
# From -- ./inp_files/163085.got.cif
#   From: 2010.05.17/outbox.cif.g08.bks.cpg/sg15_82_cif.got.tgz:163085.got - 2010.06.03 18:47:42.
