data_PCOD9280823
_publ_section_title
;
Structure prediction by ZEFSAII (Michael W. Deem and Ramdas Pophale) SiO2 
 PCOD9280823
Probable space group: C 2/C
;
_chemical_formula_sum "Si O2"
_cell_formula_units_Z 32
_cell_length_a 5.257210
_cell_length_b 28.788749
_cell_length_c 12.605956
_cell_angle_alpha 90.000000
_cell_angle_beta 45.804065
_cell_angle_gamma 90.000000
_cell_volume 1367.882751
_symmetry_space_group_name_H-M "C 2/C"
_symmetry_group_IT_number 15
_symmetry_cell_setting 'monoclinic'
loop_
_space_group_symop_operation_xyz
x,y,z
-x,y,1/2-z
-x,-y,-z
x,-y,1/2+z
1/2+x,1/2+y,z
1/2-x,1/2+y,1/2-z
1/2-x,1/2-y,-z
1/2+x,1/2-y,1/2+z
loop_
_atom_site_type_symbol
_atom_site_label
_atom_site_fract_x
_atom_site_fract_y
_atom_site_fract_z
Si Si1 0.877480 0.571075 0.113446
Si Si2 0.273136 0.656632 0.074598
Si Si3 0.228236 0.705408 0.429563
Si Si4 0.117904 0.475556 0.109629
O O1 0.500000 0.594434 0.250000
O O2 0.188630 0.604408 0.062659
O O3 0.872246 0.521400 0.172946
O O4 0.921200 0.556979 0.979590
O O5 0.643768 0.665826 0.024162
O O6 0.000000 0.666135 0.250000
O O7 0.144368 0.690364 0.016291
O O8 0.500000 0.710706 0.250000
O O9 0.250000 0.750000 0.500000
O O10 0.000000 0.450415 0.250000
O O11 0.500000 0.500000 0.000000
#
# Coordination Sequence:
#
# PCOD9280823 Si02
#       4
#     8   8   8   8
#     4  11  22  37  63  91 123 171 223 275 321 383
#     4  10  21  37  64  94 118 162 215 259 311 387
#     4  10  21  39  65  91 123 159 204 257 319 392
#     4  11  23  39  62  89 128 176 221 268 330 384
#
# _framework density 23.393819000000001
#
# number of rings (size 3 to 8) (size 9 to 14) (size 15 to 20)
#    0.000    1.500    2.500    3.750    3.500    0.000 
#    0.000    1.250    5.500    0.000    0.000    0.000 
#    0.000    0.000    0.000    0.000    0.000    0.000 
#
# Total GULP energy -89384.400433 kJ/mol
# GULP energy per Si atom -5586.525027 kJ/mol
# Density = 2.334057 g / cm^3
# Si number density = 23.393819 Si / 1000 Ang^3
#
#
#
# Elastic Constant Matrix: (Units=GPa)
#
#
# Indices 1 2 3 4 5 6 
#
# 1 129.1545 37.8120 43.9346 0.0000 36.8945 0.0000
# 2 37.8120 113.0789 23.0970 0.0000 29.1695 0.0000
# 3 43.9346 23.0970 88.5809 0.0000 41.9294 0.0000
# 4 0.0000 0.0000 0.0000 28.1077 0.0000 19.2702
# 5 36.8945 29.1695 41.9294 0.0000 46.5610 0.0000
# 6 0.0000 0.0000 0.0000 19.2702 0.0000 48.3186
#
#
#
# Elastic Compliance Matrix: (Units=1/GPa)
#
#
# Indices 1 2 3 4 5 6 
#
# 1 0.010508 -0.001707 -0.002321 0.000000 -0.005167 0.000000
# 2 -0.001707 0.010847 0.001036 0.000000 -0.006377 0.000000
# 3 -0.002321 0.001036 0.020230 0.000000 -0.017028 0.000000
# 4 0.000000 0.000000 0.000000 0.048966 0.000000 -0.019528
# 5 -0.005167 -0.006377 -0.017028 0.000000 0.044901 0.000000
# 6 0.000000 0.000000 0.000000 -0.019528 0.000000 0.028484
#
#
# Mechanical properties :
#
#
# Convention : Reuss Voigt Hill
#
# Bulk Modulus (GPa) = 28.08755 60.05573 44.07164
# Shear Modulus (GPa) = 27.50490 39.66219 33.58355
#
# Velocity S-wave (km/s) = 3.43262 4.12201 3.79301
# Velocity P-wave (km/s) = 5.26716 6.95571 6.16948
#
# Compressibility (1/GPa) = 0.03560296
#
# Stress axis : x y z
#
# Youngs Moduli (GPa) = 95.16673 92.18918 49.43118
#
# Poissons Ratio (x) = 0.15734 0.11472
# Poissons Ratio (y) = 0.16243 -0.05123
# Poissons Ratio (z) = 0.22087 -0.09555
#
# Static dielectric constant tensor:
#      x y z
#    x 2.052250 0.000000 0.064490 
#    y 0.000000 1.949970 0.000000 
#    z 0.064490 0.000000 2.034250 
# 
# From -- ./inp_files/20122.got.cif
#   From: 2010.05.17/outbox.cif.g08.bks.cpg/sg15_11_cif.got.tgz:20122.got - 2010.06.03 18:47:42.
