data_PCOD9280346
_publ_section_title
;
Structure prediction by ZEFSAII (Michael W. Deem and Ramdas Pophale) SiO2 
 PCOD9280346
Probable space group: C 2/C
;
_chemical_formula_sum "Si O2"
_cell_formula_units_Z 44
_cell_length_a 7.143074
_cell_length_b 12.666057
_cell_length_c 21.946708
_cell_angle_alpha 90.000000
_cell_angle_beta 74.066515
_cell_angle_gamma 90.000000
_cell_volume 1909.333810
_symmetry_space_group_name_H-M "C 2/C"
_symmetry_group_IT_number 15
_symmetry_cell_setting 'monoclinic'
loop_
_space_group_symop_operation_xyz
x,y,z
-x,y,1/2-z
-x,-y,-z
x,-y,1/2+z
1/2+x,1/2+y,z
1/2-x,1/2+y,1/2-z
1/2-x,1/2-y,-z
1/2+x,1/2-y,1/2+z
loop_
_atom_site_type_symbol
_atom_site_label
_atom_site_fract_x
_atom_site_fract_y
_atom_site_fract_z
Si Si1 0.267145 0.916169 0.155971
Si Si2 0.502599 0.659978 0.982812
Si Si3 0.279941 0.422040 0.744123
Si Si4 0.500000 0.257374 0.250000
Si Si5 0.947053 0.023222 0.104979
Si Si6 0.940587 0.381031 0.022480
O O1 0.114465 0.828388 0.191519
O O2 0.431198 0.872381 0.096747
O O3 0.142568 0.995123 0.124561
O O4 0.319469 0.980954 0.211508
O O5 0.496898 0.610669 0.050626
O O6 0.555284 0.783237 0.981878
O O7 0.616368 0.580892 0.927579
O O8 0.280083 0.642938 0.979713
O O9 0.500000 0.413953 0.750000
O O10 0.296760 0.441334 0.670226
O O11 0.158238 0.317603 0.766978
O O12 0.000000 0.500000 0.000000
#
# Coordination Sequence:
#
# PCOD9280346 Si02
#       6
#     8   8   8   4   8   8
#     4  10  21  40  60  92 133 164 219 282 322 397
#     4   9  19  35  61  83 121 174 211 267 332 387
#     4  10  22  41  63  95 131 170 220 274 336 405
#     4  12  22  42  72  92 134 182 206 284 346 384
#     4   9  17  38  60  84 126 167 211 271 328 386
#     4  10  21  37  58  92 127 167 228 269 324 405
#
# _framework density 23.044687
#
# number of rings (size 3 to 8) (size 9 to 14) (size 15 to 20)
#    0.000    2.182    2.727    1.091    0.000    5.818 
#    1.636   13.636    0.000    0.000    0.000    0.000 
#    0.000    0.000    0.000    0.000    0.000    0.000 
#
# Total GULP energy -122842.182336 kJ/mol
# GULP energy per Si atom -5583.735561 kJ/mol
# Density = 2.299224 g / cm^3
# Si number density = 23.044687 Si / 1000 Ang^3
#
#
#
# Elastic Constant Matrix: (Units=GPa)
#
#
# Indices 1 2 3 4 5 6 
#
# 1 62.9511 14.2894 12.2416 0.0000 -5.5568 0.0000
# 2 14.2894 143.4989 54.1056 0.0000 -2.3622 0.0000
# 3 12.2416 54.1056 129.2955 0.0000 8.1006 0.0000
# 4 0.0000 0.0000 0.0000 12.0006 0.0000 -32.4439
# 5 -5.5568 -2.3622 8.1006 0.0000 16.5738 0.0000
# 6 0.0000 0.0000 0.0000 -32.4439 0.0000 135.0440
#
#
#
# Elastic Compliance Matrix: (Units=1/GPa)
#
#
# Indices 1 2 3 4 5 6 
#
# 1 0.016977 -0.000986 -0.001591 0.000000 0.006329 0.000000
# 2 -0.000986 0.008475 -0.003619 0.000000 0.002646 0.000000
# 3 -0.001591 -0.003619 0.009764 0.000000 -0.005822 0.000000
# 4 0.000000 0.000000 0.000000 0.237752 0.000000 0.057119
# 5 0.006329 0.002646 -0.005822 0.000000 0.065681 0.000000
# 6 0.000000 0.000000 0.000000 0.057119 0.000000 0.021128
#
#
# Mechanical properties :
#
#
# Convention : Reuss Voigt Hill
#
# Bulk Modulus (GPa) = 43.81471 55.22429 49.51950
# Shear Modulus (GPa) = 13.16561 49.73094 31.44828
#
# Velocity S-wave (km/s) = 2.39280 4.65049 3.69814
# Velocity P-wave (km/s) = 5.16606 7.26995 6.30636
#
# Compressibility (1/GPa) = 0.02282339
#
# Stress axis : x y z
#
# Youngs Moduli (GPa) = 58.90195 117.99490 102.41755
#
# Poissons Ratio (x) = 0.11640 0.16296
# Poissons Ratio (y) = 0.05810 0.37063
# Poissons Ratio (z) = 0.09372 0.42700
#
# Static dielectric constant tensor:
#      x y z
#    x 1.911740 0.000000 -0.016240 
#    y 0.000000 1.874890 0.000000 
#    z -0.016240 0.000000 1.891100 
# 
# From -- ./inp_files/230141.got.cif
#   From: 2010.05.17/outbox.cif.g08.bks.cpg/sg15_116_cif.got.tgz:230141.got - 2010.06.03 18:47:42.
