data_PCOD9280006
_publ_section_title
;
Structure prediction by ZEFSAII (Michael W. Deem and Ramdas Pophale) SiO2 
 PCOD9280006
Probable space group: C 2/C
;
_chemical_formula_sum "Si O2"
_cell_formula_units_Z 32
_cell_length_a 20.265749
_cell_length_b 7.357172
_cell_length_c 27.052519
_cell_angle_alpha 90.000000
_cell_angle_beta 159.688586
_cell_angle_gamma 90.000000
_cell_volume 1400.116016
_symmetry_space_group_name_H-M "C 2/C"
_symmetry_group_IT_number 15
_symmetry_cell_setting 'monoclinic'
loop_
_space_group_symop_operation_xyz
x,y,z
-x,y,1/2-z
-x,-y,-z
x,-y,1/2+z
1/2+x,1/2+y,z
1/2-x,1/2+y,1/2-z
1/2-x,1/2-y,-z
1/2+x,1/2-y,1/2+z
loop_
_atom_site_type_symbol
_atom_site_label
_atom_site_fract_x
_atom_site_fract_y
_atom_site_fract_z
Si Si1 0.030600 0.081756 0.082773
Si Si2 0.548030 0.937885 0.142241
Si Si3 0.959612 0.689382 0.163302
Si Si4 0.357498 0.775270 0.435186
O O1 0.234514 0.985831 0.219159
O O2 0.018217 0.224155 0.117539
O O3 0.024074 0.220802 0.030749
O O4 0.880212 0.919803 0.978869
O O5 0.495976 0.002023 0.160325
O O6 0.431932 0.065368 0.022180
O O7 0.000000 0.690750 0.250000
O O8 0.137715 0.808142 0.267141
O O9 0.750000 0.750000 0.000000
#
# Coordination Sequence:
#
# PCOD9280006 Si02
#       4
#     8   8   8   8
#     4  10  21  36  63 106 131 162 214 274 358 386
#     4  11  20  38  68  97 135 168 217 279 333 406
#     4  11  23  43  68  90 132 190 232 264 331 396
#     4  10  21  39  65  95 136 172 212 282 326 410
#
# _framework density 22.855248
#
# number of rings (size 3 to 8) (size 9 to 14) (size 15 to 20)
#    0.000    1.500    5.000    0.750    0.000    0.000 
#    0.000    1.250    5.500    0.000    0.000    0.000 
#    0.000    0.000    0.000    0.000    0.000    0.000 
#
# Total GULP energy -89290.048116 kJ/mol
# GULP energy per Si atom -5580.628007 kJ/mol
# Density = 2.280323 g / cm^3
# Si number density = 22.855248 Si / 1000 Ang^3
#
#
#
# Elastic Constant Matrix: (Units=GPa)
#
#
# Indices 1 2 3 4 5 6 
#
# 1 52.2357 23.5466 31.1600 0.0177 1.6207 -0.0102
# 2 23.5466 107.4536 39.4839 -0.0017 -1.3236 -0.0006
# 3 31.1600 39.4839 164.4742 -0.0318 8.1295 0.0157
# 4 0.0177 -0.0017 -0.0318 18.9190 -0.0009 -11.2915
# 5 1.6207 -1.3236 8.1295 -0.0009 28.1620 0.0006
# 6 -0.0102 -0.0006 0.0157 -11.2915 0.0006 28.8028
#
#
#
# Elastic Compliance Matrix: (Units=1/GPa)
#
#
# Indices 1 2 3 4 5 6 
#
# 1 0.022892 -0.003771 -0.003406 -0.000028 -0.000511 -0.000001
# 2 -0.003771 0.010868 -0.001959 0.000002 0.001293 0.000001
# 3 -0.003406 -0.001959 0.007294 0.000016 -0.002002 0.000001
# 4 -0.000028 0.000002 0.000016 0.069002 -0.000001 0.027051
# 5 -0.000511 0.001293 -0.002002 -0.000001 0.036177 0.000000
# 6 -0.000001 0.000001 0.000001 0.027051 0.000000 0.045324
#
#
# Mechanical properties :
#
#
# Convention : Reuss Voigt Hill
#
# Bulk Modulus (GPa) = 43.89295 56.94938 50.42117
# Shear Modulus (GPa) = 22.99665 30.50828 26.75247
#
# Velocity S-wave (km/s) = 3.17549 3.65752 3.42499
# Velocity P-wave (km/s) = 5.71764 6.54279 6.14408
#
# Compressibility (1/GPa) = 0.02278270
#
# Stress axis : x y z
#
# Youngs Moduli (GPa) = 43.68393 92.01087 137.09070
#
# Poissons Ratio (x) = 0.34697 0.46698
# Poissons Ratio (y) = 0.16473 0.26850
# Poissons Ratio (z) = 0.14880 0.18021
#
# Static dielectric constant tensor:
#      x y z
#    x 1.984100 0.000000 -0.056430 
#    y 0.000000 1.831040 0.000000 
#    z -0.056430 0.000000 1.978090 
# 
# From -- ./inp_files/109396.got.cif
#   From: 2010.05.17/outbox.cif.g08.bks.cpg/sg15_55_cif.got.tgz:109396.got - 2010.06.03 18:47:42.
