data_PCOD9280064
_publ_section_title
;
Structure prediction by ZEFSAII (Michael W. Deem and Ramdas Pophale) SiO2 
 PCOD9280064
Probable space group: C 2/C
;
_chemical_formula_sum "Si O2"
_cell_formula_units_Z 52
_cell_length_a 16.870413
_cell_length_b 8.776060
_cell_length_c 17.572956
_cell_angle_alpha 90.000000
_cell_angle_beta 99.624728
_cell_angle_gamma 90.000000
_cell_volume 2565.154604
_symmetry_space_group_name_H-M "C 2/C"
_symmetry_group_IT_number 15
_symmetry_cell_setting 'monoclinic'
loop_
_space_group_symop_operation_xyz
x,y,z
-x,y,1/2-z
-x,-y,-z
x,-y,1/2+z
1/2+x,1/2+y,z
1/2-x,1/2+y,1/2-z
1/2-x,1/2-y,-z
1/2+x,1/2-y,1/2+z
loop_
_atom_site_type_symbol
_atom_site_label
_atom_site_fract_x
_atom_site_fract_y
_atom_site_fract_z
Si Si1 0.088370 0.351360 0.746047
Si Si2 0.154018 0.085148 0.346440
Si Si3 0.383943 0.853769 0.330090
Si Si4 0.785219 0.606609 0.961015
Si Si5 0.214629 0.092429 0.723433
Si Si6 0.322877 0.061813 0.615417
Si Si7 0.500000 0.363752 0.750000
O O1 0.081364 0.477183 0.678446
O O2 0.149040 0.220332 0.729618
O O3 0.124214 0.445988 0.824263
O O4 0.000000 0.293437 0.750000
O O5 0.153775 0.260243 0.373545
O O6 0.061220 0.045595 0.314281
O O7 0.210441 0.980192 0.407954
O O8 0.192841 0.053430 0.269908
O O9 0.352474 0.839567 0.411032
O O10 0.300378 0.857134 0.270275
O O11 0.446192 0.740458 0.298691
O O12 0.750000 0.750000 0.000000
O O13 0.822018 0.493298 0.029340
O O14 0.233539 0.054961 0.639176
#
# Coordination Sequence:
#
# PCOD9280064 Si02
#       7
#     8   8   8   8   8   8   4
#     4  11  21  39  64  99 127 166 223 272 314 370
#     4  11  23  39  65  98 125 175 214 269 319 378
#     4  10  21  41  66  91 126 171 216 265 325 376
#     4  11  25  42  65  97 136 172 216 262 333 397
#     4  10  21  36  64  94 127 171 222 263 312 382
#     4  11  20  39  67  90 131 172 215 259 323 396
#     4  12  22  42  68  98 128 160 228 282 310 374
#
# _framework density 20.271684
#
# number of rings (size 3 to 8) (size 9 to 14) (size 15 to 20)
#    0.000    1.231    3.846    5.077    3.231    0.000 
#    0.000    5.385    0.000    0.000    0.000    0.000 
#    0.000    0.000    0.000    0.000    0.000    0.000 
#
# Total GULP energy -144970.103827 kJ/mol
# GULP energy per Si atom -5575.773224 kJ/mol
# Density = 2.022554 g / cm^3
# Si number density = 20.271684 Si / 1000 Ang^3
#
#
#
# Elastic Constant Matrix: (Units=GPa)
#
#
# Indices 1 2 3 4 5 6 
#
# 1 134.7742 26.0017 35.7843 0.0000 -9.9947 0.0000
# 2 26.0017 70.9197 18.3946 0.0000 1.7149 0.0000
# 3 35.7843 18.3946 89.6850 0.0000 -19.0192 0.0000
# 4 0.0000 0.0000 0.0000 28.1867 0.0000 -6.3117
# 5 -9.9947 1.7149 -19.0192 0.0000 29.4462 0.0000
# 6 0.0000 0.0000 0.0000 -6.3117 0.0000 41.8343
#
#
#
# Elastic Compliance Matrix: (Units=1/GPa)
#
#
# Indices 1 2 3 4 5 6 
#
# 1 0.008720 -0.002540 -0.002664 0.000000 0.001387 0.000000
# 2 -0.002540 0.015913 -0.003047 0.000000 -0.003757 0.000000
# 3 -0.002664 -0.003047 0.014697 0.000000 0.008766 0.000000
# 4 0.000000 0.000000 0.000000 0.036718 0.000000 0.005540
# 5 0.001387 -0.003757 0.008766 0.000000 0.040312 0.000000
# 6 0.000000 0.000000 0.000000 0.005540 0.000000 0.024740
#
#
# Mechanical properties :
#
#
# Convention : Reuss Voigt Hill
#
# Bulk Modulus (GPa) = 43.80622 50.63781 47.22201
# Shear Modulus (GPa) = 30.26436 34.23999 32.25217
#
# Velocity S-wave (km/s) = 3.86805 4.11427 3.99306
# Velocity P-wave (km/s) = 6.45023 6.89952 6.67866
#
# Compressibility (1/GPa) = 0.02282781
#
# Stress axis : x y z
#
# Youngs Moduli (GPa) = 114.67855 62.84270 68.04038
#
# Poissons Ratio (x) = 0.15959 0.18128
# Poissons Ratio (y) = 0.29123 0.20733
# Poissons Ratio (z) = 0.30554 0.19149
#
# Static dielectric constant tensor:
#      x y z
#    x 1.766330 0.000000 -0.018360 
#    y 0.000000 1.782720 0.000000 
#    z -0.018360 0.000000 1.780050 
# 
# From -- ./inp_files/209207.got.cif
#   From: 2010.05.17/outbox.cif.g08.bks.cpg/sg15_105_cif.got.tgz:209207.got - 2010.06.03 18:47:42.
