data_PCOD9280940
_publ_section_title
;
Structure prediction by ZEFSAII (Michael W. Deem and Ramdas Pophale) SiO2 
 PCOD9280940
Probable space group: C 2/C
;
_chemical_formula_sum "Si O2"
_cell_formula_units_Z 48
_cell_length_a 14.706784
_cell_length_b 11.980884
_cell_length_c 14.843841
_cell_angle_alpha 90.000000
_cell_angle_beta 70.443150
_cell_angle_gamma 90.000000
_cell_volume 2464.600810
_symmetry_space_group_name_H-M "C 2/C"
_symmetry_group_IT_number 15
_symmetry_cell_setting 'monoclinic'
loop_
_space_group_symop_operation_xyz
x,y,z
-x,y,1/2-z
-x,-y,-z
x,-y,1/2+z
1/2+x,1/2+y,z
1/2-x,1/2+y,1/2-z
1/2-x,1/2-y,-z
1/2+x,1/2-y,1/2+z
loop_
_atom_site_type_symbol
_atom_site_label
_atom_site_fract_x
_atom_site_fract_y
_atom_site_fract_z
Si Si1 0.246670 0.560600 0.184599
Si Si2 0.700999 0.571476 0.542870
Si Si3 0.889236 0.633038 0.818100
Si Si4 0.385785 0.393011 0.801773
Si Si5 0.904707 0.723079 0.330141
Si Si6 0.411228 0.973914 0.966591
O O1 0.182835 0.448203 0.211757
O O2 0.326683 0.565984 0.234257
O O3 0.171950 0.664790 0.211709
O O4 0.290394 0.567192 0.068491
O O5 0.647278 0.465445 0.602179
O O6 0.648064 0.682019 0.595082
O O7 0.811356 0.568174 0.542691
O O8 0.864066 0.762108 0.820589
O O9 0.885258 0.585730 0.920581
O O10 0.000000 0.618474 0.750000
O O11 0.500000 0.405294 0.750000
O O12 0.936277 0.621152 0.384907
O O13 0.000000 0.767301 0.250000
O O14 0.500000 0.000000 0.000000
#
# Coordination Sequence:
#
# PCOD9280940 Si02
#       6
#     8   8   8   8   8   8
#     4  10  22  40  64  90 126 164 211 265 308 370
#     4  10  23  41  60  93 133 161 211 254 323 383
#     4   9  21  40  61  90 123 158 213 257 310 379
#     4  11  25  40  63  92 126 174 206 260 323 375
#     4  10  21  39  63  95 125 162 212 259 319 382
#     4  10  21  37  67  94 122 162 211 269 313 372
#
# _framework density 19.475770000000001
#
# number of rings (size 3 to 8) (size 9 to 14) (size 15 to 20)
#    0.000    2.333    0.000    4.500    7.000    7.333 
#    0.000    1.667    0.000    0.000    0.000    0.000 
#    0.000    0.000    0.000    0.000    0.000    0.000 
#
# Total GULP energy -133997.850254 kJ/mol
# GULP energy per Si atom -5583.243761 kJ/mol
# Density = 1.943144 g / cm^3
# Si number density = 19.475770 Si / 1000 Ang^3
#
#
#
# Elastic Constant Matrix: (Units=GPa)
#
#
# Indices 1 2 3 4 5 6 
#
# 1 119.0432 41.6507 39.8886 0.0000 16.1735 0.0000
# 2 41.6507 100.4632 21.7353 0.0000 -1.7717 0.0000
# 3 39.8886 21.7353 54.8739 0.0000 -12.0692 0.0000
# 4 0.0000 0.0000 0.0000 21.8086 0.0000 -15.7849
# 5 16.1735 -1.7717 -12.0692 0.0000 32.0180 0.0000
# 6 0.0000 0.0000 0.0000 -15.7849 0.0000 20.5114
#
#
#
# Elastic Compliance Matrix: (Units=1/GPa)
#
#
# Indices 1 2 3 4 5 6 
#
# 1 0.015892 -0.004044 -0.012829 0.000000 -0.013087 0.000000
# 2 -0.004044 0.011953 -0.001309 0.000000 0.002211 0.000000
# 3 -0.012829 -0.001309 0.032141 0.000000 0.018523 0.000000
# 4 0.000000 0.000000 0.000000 0.103508 0.000000 0.079656
# 5 -0.013087 0.002211 0.018523 0.000000 0.044948 0.000000
# 6 0.000000 0.000000 0.000000 0.079656 0.000000 0.110054
#
#
# Mechanical properties :
#
#
# Convention : Reuss Voigt Hill
#
# Bulk Modulus (GPa) = 42.33058 53.43659 47.88359
# Shear Modulus (GPa) = 13.78427 26.27465 20.02946
#
# Velocity S-wave (km/s) = 2.66327 3.67699 3.21039
# Velocity P-wave (km/s) = 5.58923 6.74715 6.19530
#
# Compressibility (1/GPa) = 0.02362359
#
# Stress axis : x y z
#
# Youngs Moduli (GPa) = 62.92566 83.66445 31.11260
#
# Poissons Ratio (x) = 0.33832 0.39913
# Poissons Ratio (y) = 0.25446 0.04071
# Poissons Ratio (z) = 0.80725 0.10948
#
# Static dielectric constant tensor:
#      x y z
#    x 1.684390 0.000000 -0.018640 
#    y 0.000000 1.675540 0.000000 
#    z -0.018640 0.000000 1.702540 
# 
# From -- ./inp_files/151846.got.cif
#   From: 2010.05.17/outbox.cif.g08.bks.cpg/sg15_76_cif.got.tgz:151846.got - 2010.06.03 18:47:42.
