data_PCOD9280152
_publ_section_title
;
Structure prediction by ZEFSAII (Michael W. Deem and Ramdas Pophale) SiO2 
 PCOD9280152
Probable space group: C 2/C
;
_chemical_formula_sum "Si O2"
_cell_formula_units_Z 52
_cell_length_a 28.882860
_cell_length_b 12.395166
_cell_length_c 9.045247
_cell_angle_alpha 90.000000
_cell_angle_beta 126.138084
_cell_angle_gamma 90.000000
_cell_volume 2615.220107
_symmetry_space_group_name_H-M "C 2/C"
_symmetry_group_IT_number 15
_symmetry_cell_setting 'monoclinic'
loop_
_space_group_symop_operation_xyz
x,y,z
-x,y,1/2-z
-x,-y,-z
x,-y,1/2+z
1/2+x,1/2+y,z
1/2-x,1/2+y,1/2-z
1/2-x,1/2-y,-z
1/2+x,1/2-y,1/2+z
loop_
_atom_site_type_symbol
_atom_site_label
_atom_site_fract_x
_atom_site_fract_y
_atom_site_fract_z
Si Si1 0.909637 0.430504 0.856720
Si Si2 0.000000 0.330039 0.250000
Si Si3 0.232592 0.128451 0.804220
Si Si4 0.812659 0.346106 0.866479
Si Si5 0.360980 0.221767 0.015057
Si Si6 0.797934 0.062119 0.431845
Si Si7 0.903854 0.677325 0.774977
O O1 0.853186 0.427464 0.853905
O O2 0.897739 0.342203 0.707237
O O3 0.917391 0.549153 0.807299
O O4 0.960789 0.396770 0.061606
O O5 0.045987 0.270484 0.230535
O O6 0.199271 0.241678 0.755664
O O7 0.298526 0.160269 0.890497
O O8 0.198211 0.059911 0.616300
O O9 0.228247 0.070892 0.953972
O O10 0.750995 0.396345 0.773523
O O11 0.844797 0.312972 0.074406
O O12 0.347686 0.348347 0.020342
O O13 0.393931 0.215008 0.921913
#
# Coordination Sequence:
#
# PCOD9280152 Si02
#       7
#     8   4   8   8   8   8   8
#     4  11  19  39  57  83 114 156 186 237 288 340
#     4  10  24  38  56  84 118 146 192 244 292 340
#     4  11  22  37  57  85 123 157 189 233 273 333
#     4  10  21  37  54  82 124 155 192 226 282 336
#     4  11  22  36  58  85 121 153 199 223 283 344
#     4  11  22  36  57  86 119 158 190 234 272 334
#     4  11  23  35  59  85 113 158 187 236 283 348
#
# _framework density 19.883603000000001
#
# number of rings (size 3 to 8) (size 9 to 14) (size 15 to 20)
#    0.000    1.231    3.077    5.077    4.308    1.846 
#    0.000    0.000    0.000    0.000    0.000   17.231 
#    0.000    0.000    0.000    0.000    0.000    0.000 
#
# Total GULP energy -145045.208222 kJ/mol
# GULP energy per Si atom -5578.661855 kJ/mol
# Density = 1.983835 g / cm^3
# Si number density = 19.883603 Si / 1000 Ang^3
#
#
#
# Elastic Constant Matrix: (Units=GPa)
#
#
# Indices 1 2 3 4 5 6 
#
# 1 73.8750 33.3740 29.5351 0.0000 -10.5407 0.0000
# 2 33.3740 41.4931 -4.1181 0.0000 -16.9218 0.0000
# 3 29.5351 -4.1181 90.2160 0.0000 -10.1874 0.0000
# 4 0.0000 0.0000 0.0000 19.9689 0.0000 -9.6659
# 5 -10.5407 -16.9218 -10.1874 0.0000 24.0205 0.0000
# 6 0.0000 0.0000 0.0000 -9.6659 0.0000 15.1989
#
#
#
# Elastic Compliance Matrix: (Units=1/GPa)
#
#
# Indices 1 2 3 4 5 6 
#
# 1 0.031760 -0.033069 -0.013616 0.000000 -0.015134 0.000000
# 2 -0.033069 0.070035 0.018859 0.000000 0.042825 0.000000
# 3 -0.013616 0.018859 0.018095 0.000000 0.014985 0.000000
# 4 0.000000 0.000000 0.000000 0.072349 0.000000 0.046011
# 5 -0.015134 0.042825 0.014985 0.000000 0.071515 0.000000
# 6 0.000000 0.000000 0.000000 0.046011 0.000000 0.095055
#
#
# Mechanical properties :
#
#
# Convention : Reuss Voigt Hill
#
# Bulk Modulus (GPa) = 15.56693 35.90734 25.73714
# Shear Modulus (GPa) = 11.47117 21.62386 16.54751
#
# Velocity S-wave (km/s) = 2.40451 3.30134 2.88795
# Velocity P-wave (km/s) = 3.94398 5.71225 4.90840
#
# Compressibility (1/GPa) = 0.06423874
#
# Stress axis : x y z
#
# Youngs Moduli (GPa) = 31.48608 14.27848 55.26320
#
# Poissons Ratio (x) = 0.47217 0.75247
# Poissons Ratio (y) = 1.04121 -1.04221
# Poissons Ratio (z) = 0.42872 -0.26928
#
# Static dielectric constant tensor:
#      x y z
#    x 1.725890 0.000000 -0.002930 
#    y 0.000000 1.761670 0.000000 
#    z -0.002930 0.000000 1.711990 
# 
# From -- ./inp_files/61255.got.cif
#   From: 2010.05.17/outbox.cif.g08.bks.cpg/sg15_31_cif.got.tgz:61255.got - 2010.06.03 18:47:42.
