data_PCOD9280626
_publ_section_title
;
Structure prediction by ZEFSAII (Michael W. Deem and Ramdas Pophale) SiO2 
 PCOD9280626
Probable space group: C 2/C
;
_chemical_formula_sum "Si O2"
_cell_formula_units_Z 56
_cell_length_a 14.196409
_cell_length_b 9.671294
_cell_length_c 20.892070
_cell_angle_alpha 90.000000
_cell_angle_beta 51.074484
_cell_angle_gamma 90.000000
_cell_volume 2231.535167
_symmetry_space_group_name_H-M "C 2/C"
_symmetry_group_IT_number 15
_symmetry_cell_setting 'monoclinic'
loop_
_space_group_symop_operation_xyz
x,y,z
-x,y,1/2-z
-x,-y,-z
x,-y,1/2+z
1/2+x,1/2+y,z
1/2-x,1/2+y,1/2-z
1/2-x,1/2-y,-z
1/2+x,1/2-y,1/2+z
loop_
_atom_site_type_symbol
_atom_site_label
_atom_site_fract_x
_atom_site_fract_y
_atom_site_fract_z
Si Si1 0.262086 0.130832 0.199915
Si Si2 0.629298 0.673295 0.128888
Si Si3 0.297750 0.316521 0.296666
Si Si4 0.936613 0.878543 0.357381
Si Si5 0.321633 0.048582 0.944003
Si Si6 0.023571 0.633861 0.032696
Si Si7 0.890174 0.903910 0.525257
O O1 0.171641 0.184586 0.183732
O O2 0.240094 0.193648 0.279669
O O3 0.392406 0.175464 0.115631
O O4 0.254777 0.964352 0.202757
O O5 0.540931 0.543108 0.162025
O O6 0.738634 0.614801 0.036334
O O7 0.598678 0.824069 0.115656
O O8 0.325146 0.328521 0.361059
O O9 0.438802 0.309337 0.214422
O O10 0.906206 0.864930 0.443871
O O11 0.234456 0.989526 0.924647
O O12 0.395679 0.924775 0.943559
O O13 0.083334 0.749879 0.960508
O O14 0.000000 0.500000 0.000000
O O15 0.000000 0.000000 0.500000
#
# Coordination Sequence:
#
# PCOD9280626 Si02
#       7
#     8   8   8   8   8   8   8
#     4  11  22  43  62  91 123 170 217 268 322 395
#     4   9  19  38  63  90 129 164 204 258 325 392
#     4  10  22  42  65  88 124 172 222 268 322 385
#     4   9  20  40  65  84 124 172 212 263 327 388
#     4  10  21  37  61  98 131 164 205 262 328 393
#     4  12  24  40  64  98 136 162 213 275 336 393
#     4  11  23  41  66  94 132 172 214 264 338 397
#
# _framework density 25.094833999999999
#
# number of rings (size 3 to 8) (size 9 to 14) (size 15 to 20)
#    0.000    1.714    2.857    1.286    4.000    1.143 
#    2.571    0.000    0.000    0.000    0.000    0.000 
#    0.000    0.000    0.000    0.000    0.000    0.000 
#
# Total GULP energy -156476.011201 kJ/mol
# GULP energy per Si atom -5588.428971 kJ/mol
# Density = 2.503772 g / cm^3
# Si number density = 25.094834 Si / 1000 Ang^3
#
#
#
# Elastic Constant Matrix: (Units=GPa)
#
#
# Indices 1 2 3 4 5 6 
#
# 1 85.1812 43.4839 -11.5819 0.0000 19.4562 0.0000
# 2 43.4839 114.5937 -13.9714 0.0000 18.6832 0.0000
# 3 -11.5819 -13.9714 48.7131 0.0000 13.6775 0.0000
# 4 0.0000 0.0000 0.0000 34.9481 0.0000 8.4250
# 5 19.4562 18.6832 13.6775 0.0000 35.0442 0.0000
# 6 0.0000 0.0000 0.0000 8.4250 0.0000 45.5144
#
#
#
# Elastic Compliance Matrix: (Units=1/GPa)
#
#
# Indices 1 2 3 4 5 6 
#
# 1 0.016685 -0.004199 0.005318 0.000000 -0.009100 0.000000
# 2 -0.004199 0.011672 0.003865 0.000000 -0.005400 0.000000
# 3 0.005318 0.003865 0.027300 0.000000 -0.015668 0.000000
# 4 0.000000 0.000000 0.000000 0.029950 0.000000 -0.005544
# 5 -0.009100 -0.005400 -0.015668 0.000000 0.042581 0.000000
# 6 0.000000 0.000000 0.000000 -0.005544 0.000000 0.022997
#
#
# Mechanical properties :
#
#
# Convention : Reuss Voigt Hill
#
# Bulk Modulus (GPa) = 15.23837 31.59436 23.41637
# Shear Modulus (GPa) = 30.65725 38.47185 34.56455
#
# Velocity S-wave (km/s) = 3.49901 3.91968 3.71530
# Velocity P-wave (km/s) = 4.73388 5.75347 5.26840
#
# Compressibility (1/GPa) = 0.06562380
#
# Stress axis : x y z
#
# Youngs Moduli (GPa) = 59.93449 85.67846 36.62941
#
# Poissons Ratio (x) = 0.35979 -0.19478
# Poissons Ratio (y) = 0.25168 -0.14158
# Poissons Ratio (z) = -0.31871 -0.33116
#
# Static dielectric constant tensor:
#      x y z
#    x 2.014240 0.000000 -0.012210 
#    y 0.000000 2.161770 0.000000 
#    z -0.012210 0.000000 2.210870 
# 
# From -- ./inp_files/295064.got.cif
#   From: 2010.05.17/outbox.cif.g08.bks.cpg/sg15_148_cif.got.tgz:295064.got - 2010.06.03 18:47:42.
