data_PCOD9280121
_publ_section_title
;
Structure prediction by ZEFSAII (Michael W. Deem and Ramdas Pophale) SiO2 
 PCOD9280121
Probable space group: C 2/C
;
_chemical_formula_sum "Si O2"
_cell_formula_units_Z 44
_cell_length_a 21.915351
_cell_length_b 9.068890
_cell_length_c 10.914969
_cell_angle_alpha 90.000000
_cell_angle_beta 67.038804
_cell_angle_gamma 90.000000
_cell_volume 1997.449863
_symmetry_space_group_name_H-M "C 2/C"
_symmetry_group_IT_number 15
_symmetry_cell_setting 'monoclinic'
loop_
_space_group_symop_operation_xyz
x,y,z
-x,y,1/2-z
-x,-y,-z
x,-y,1/2+z
1/2+x,1/2+y,z
1/2-x,1/2+y,1/2-z
1/2-x,1/2-y,-z
1/2+x,1/2-y,1/2+z
loop_
_atom_site_type_symbol
_atom_site_label
_atom_site_fract_x
_atom_site_fract_y
_atom_site_fract_z
Si Si1 0.000000 0.343772 0.250000
Si Si2 0.932256 0.420195 0.083663
Si Si3 0.002067 0.822212 0.114052
Si Si4 0.210486 0.405669 0.386236
Si Si5 0.219697 0.951475 0.907802
Si Si6 0.918610 0.115260 0.473852
O O1 0.057940 0.426182 0.279266
O O2 0.048471 0.246364 0.127686
O O3 0.863571 0.466635 0.080909
O O4 0.000000 0.500000 0.000000
O O5 0.947230 0.259686 0.015869
O O6 0.000000 0.753951 0.250000
O O7 0.930882 0.836042 0.105321
O O8 0.031553 0.983821 0.098918
O O9 0.209407 0.224605 0.386963
O O10 0.237702 0.453052 0.498786
O O11 0.250438 0.471026 0.237855
O O12 0.153350 0.046484 0.988631
#
# Coordination Sequence:
#
# PCOD9280121 Si02
#       6
#     4   8   8   8   8   8
#     4  10  24  42  70 102 130 172 236 282 342 402
#     4  11  26  44  66  97 139 175 221 281 340 409
#     4  10  21  36  69  98 127 166 223 277 334 393
#     4  11  28  47  70 104 138 192 234 281 354 418
#     4  11  27  47  73 101 145 184 235 288 344 429
#     4  10  21  40  68 101 127 173 222 287 332 395
#
# _framework density 22.028089000000001
#
# number of rings (size 3 to 8) (size 9 to 14) (size 15 to 20)
#    0.000    1.455    2.727    0.000    8.909    3.636 
#    0.000    0.000    0.000    0.000    0.000    0.000 
#    0.000    0.000    0.000    0.000    0.000    0.000 
#
# Total GULP energy -122484.106941 kJ/mol
# GULP energy per Si atom -5567.459406 kJ/mol
# Density = 2.197795 g / cm^3
# Si number density = 22.028089 Si / 1000 Ang^3
#
#
#
# Elastic Constant Matrix: (Units=GPa)
#
#
# Indices 1 2 3 4 5 6 
#
# 1 190.0234 37.4847 73.5495 0.0000 24.7676 0.0000
# 2 37.4847 41.0882 28.5675 0.0000 8.3919 0.0000
# 3 73.5495 28.5675 111.3344 0.0000 25.1398 0.0000
# 4 0.0000 0.0000 0.0000 5.8780 0.0000 -5.0410
# 5 24.7676 8.3919 25.1398 0.0000 31.5917 0.0000
# 6 0.0000 0.0000 0.0000 -5.0410 0.0000 22.7564
#
#
#
# Elastic Compliance Matrix: (Units=1/GPa)
#
#
# Indices 1 2 3 4 5 6 
#
# 1 0.007738 -0.004144 -0.003569 0.000000 -0.002126 0.000000
# 2 -0.004144 0.031970 -0.005219 0.000000 -0.001090 0.000000
# 3 -0.003569 -0.005219 0.014304 0.000000 -0.007199 0.000000
# 4 0.000000 0.000000 0.000000 0.210026 0.000000 0.046525
# 5 -0.002126 -0.001090 -0.007199 0.000000 0.039339 0.000000
# 6 0.000000 0.000000 0.000000 0.046525 0.000000 0.054250
#
#
# Mechanical properties :
#
#
# Convention : Reuss Voigt Hill
#
# Bulk Modulus (GPa) = 35.52635 69.07219 52.29927
# Shear Modulus (GPa) = 12.72669 25.56817 19.14743
#
# Velocity S-wave (km/s) = 2.40625 3.41061 2.95147
# Velocity P-wave (km/s) = 4.88700 6.85085 5.95050
#
# Compressibility (1/GPa) = 0.02814812
#
# Stress axis : x y z
#
# Youngs Moduli (GPa) = 129.22542 31.27911 69.90945
#
# Poissons Ratio (x) = 0.12963 0.24948
# Poissons Ratio (y) = 0.53555 0.36489
# Poissons Ratio (z) = 0.46116 0.16326
#
# Static dielectric constant tensor:
#      x y z
#    x 1.826320 0.000000 0.086930 
#    y 0.000000 2.016030 0.000000 
#    z 0.086930 0.000000 2.029720 
# 
# From -- ./inp_files/110070.got.cif
#   From: 2010.05.17/outbox.cif.g08.bks.cpg/sg15_56_cif.got.tgz:110070.got - 2010.06.03 18:47:42.
