data_PCOD9280513
_publ_section_title
;
Structure prediction by ZEFSAII (Michael W. Deem and Ramdas Pophale) SiO2 
 PCOD9280513
Probable space group: C 2/C
;
_chemical_formula_sum "Si O2"
_cell_formula_units_Z 48
_cell_length_a 16.717685
_cell_length_b 27.488363
_cell_length_c 8.954540
_cell_angle_alpha 90.000000
_cell_angle_beta 33.019879
_cell_angle_gamma 90.000000
_cell_volume 2242.378907
_symmetry_space_group_name_H-M "C 2/C"
_symmetry_group_IT_number 15
_symmetry_cell_setting 'monoclinic'
loop_
_space_group_symop_operation_xyz
x,y,z
-x,y,1/2-z
-x,-y,-z
x,-y,1/2+z
1/2+x,1/2+y,z
1/2-x,1/2+y,1/2-z
1/2-x,1/2-y,-z
1/2+x,1/2-y,1/2+z
loop_
_atom_site_type_symbol
_atom_site_label
_atom_site_fract_x
_atom_site_fract_y
_atom_site_fract_z
Si Si1 0.168850 0.255233 0.968868
Si Si2 0.589043 0.565164 0.347722
Si Si3 0.227219 0.007837 0.398331
Si Si4 0.137312 0.326216 0.443364
Si Si5 0.852897 0.359970 0.414255
Si Si6 0.736725 0.930274 0.393941
O O1 0.243502 0.216799 0.743194
O O2 0.250000 0.250000 0.000000
O O3 0.172842 0.313224 0.937502
O O4 0.000000 0.241509 0.250000
O O5 0.636083 0.541896 0.430490
O O6 0.415666 0.574619 0.612839
O O7 0.629203 0.524860 0.161838
O O8 0.703622 0.609031 0.141388
O O9 0.311907 0.044223 0.376140
O O10 0.306099 0.968085 0.170341
O O11 0.113883 0.340932 0.305775
O O12 0.179527 0.376636 0.456401
O O13 0.000000 0.306770 0.750000
O O14 0.000000 0.385428 0.250000
#
# Coordination Sequence:
#
# PCOD9280513 Si02
#       6
#     8   8   8   8   8   8
#     4   9  21  43  71  93 125 171 220 257 320 397
#     4  11  20  37  66  91 125 170 218 265 311 378
#     4  10  21  37  60  95 127 165 218 272 310 372
#     4  11  25  42  65  97 131 163 211 271 321 382
#     4  10  23  43  64  89 128 170 207 257 324 388
#     4  11  21  37  64  93 126 166 219 264 319 373
#
# _framework density 21.405839
#
# number of rings (size 3 to 8) (size 9 to 14) (size 15 to 20)
#    0.000    1.667    1.667    4.000    7.000    0.000 
#    0.000   14.167    0.000    0.000    0.000    0.000 
#    0.000    0.000    0.000    0.000    0.000    0.000 
#
# Total GULP energy -133973.012732 kJ/mol
# GULP energy per Si atom -5582.208864 kJ/mol
# Density = 2.135712 g / cm^3
# Si number density = 21.405839 Si / 1000 Ang^3
#
#
#
# Elastic Constant Matrix: (Units=GPa)
#
#
# Indices 1 2 3 4 5 6 
#
# 1 77.1349 28.2585 38.5702 0.0000 3.2980 0.0000
# 2 28.2585 108.7402 57.5056 0.0000 -3.9871 0.0000
# 3 38.5702 57.5056 99.8384 0.0001 -8.3949 0.0000
# 4 0.0000 0.0000 0.0001 -2.6018 0.0000 -14.6156
# 5 3.2980 -3.9871 -8.3949 0.0000 37.0416 0.0000
# 6 0.0000 0.0000 0.0000 -14.6156 0.0000 26.7725
#
#
#
# Elastic Compliance Matrix: (Units=1/GPa)
#
#
# Indices 1 2 3 4 5 6 
#
# 1 0.016502 -0.001286 -0.005882 0.000000 -0.002941 0.000000
# 2 -0.001286 0.013328 -0.007187 0.000000 -0.000080 0.000000
# 3 -0.005882 -0.007187 0.016726 0.000000 0.003541 0.000000
# 4 0.000000 0.000000 0.000000 -0.094512 0.000000 -0.051596
# 5 -0.002941 -0.000080 0.003541 0.000000 0.028052 0.000000
# 6 0.000000 0.000000 0.000000 -0.051596 0.000000 0.009185
#
#
# Mechanical properties :
#
#
# Convention : Reuss Voigt Hill
#
# Bulk Modulus (GPa) = 56.03137 59.37580 57.70358
# Shear Modulus (GPa) = 208.85919 23.00106 115.93013
#
# Velocity S-wave (km/s) = 9.88853 3.28155 7.36721
# Velocity P-wave (km/s) = 12.51438 6.49280 9.96911
#
# Compressibility (1/GPa) = 0.01784715
#
# Stress axis : x y z
#
# Youngs Moduli (GPa) = 60.59776 75.02976 59.78800
#
# Poissons Ratio (x) = 0.09647 0.35167
# Poissons Ratio (y) = 0.07791 0.42968
# Poissons Ratio (z) = 0.35643 0.53922
#
# Static dielectric constant tensor:
#      x y z
#    x 1.816930 0.000000 0.001030 
#    y 0.000000 1.793920 0.000000 
#    z 0.001030 0.000000 1.786300 
# 
# From -- ./inp_files/52745.got.cif
#   From: 2010.05.17/outbox.cif.g08.bks.cpg/sg15_27_cif.got.tgz:52745.got - 2010.06.03 18:47:42.
