data_PCOD9280401
_publ_section_title
;
Structure prediction by ZEFSAII (Michael W. Deem and Ramdas Pophale) SiO2 
 PCOD9280401
Probable space group: C 2/C
;
_chemical_formula_sum "Si O2"
_cell_formula_units_Z 64
_cell_length_a 8.826195
_cell_length_b 15.564383
_cell_length_c 26.817320
_cell_angle_alpha 90.000000
_cell_angle_beta 125.330868
_cell_angle_gamma 90.000000
_cell_volume 3005.511711
_symmetry_space_group_name_H-M "C 2/C"
_symmetry_group_IT_number 15
_symmetry_cell_setting 'monoclinic'
loop_
_space_group_symop_operation_xyz
x,y,z
-x,y,1/2-z
-x,-y,-z
x,-y,1/2+z
1/2+x,1/2+y,z
1/2-x,1/2+y,1/2-z
1/2-x,1/2-y,-z
1/2+x,1/2-y,1/2+z
loop_
_atom_site_type_symbol
_atom_site_label
_atom_site_fract_x
_atom_site_fract_y
_atom_site_fract_z
Si Si1 0.896245 0.581734 0.320015
Si Si2 0.307203 0.443200 0.520910
Si Si3 0.813290 0.866550 0.885813
Si Si4 0.902808 0.359333 0.935746
Si Si5 0.565297 0.100783 0.707147
Si Si6 0.812590 0.861555 0.998190
Si Si7 0.211665 0.731847 0.272775
Si Si8 0.219156 0.826862 0.080092
O O1 0.885241 0.607897 0.375781
O O2 0.843115 0.483419 0.300071
O O3 0.790598 0.652589 0.266638
O O4 0.112767 0.588397 0.344431
O O5 0.512812 0.430180 0.582440
O O6 0.162334 0.430090 0.537500
O O7 0.294434 0.534868 0.492163
O O8 0.275918 0.370301 0.473350
O O9 0.818167 0.827977 0.942482
O O10 0.820435 0.798027 0.843026
O O11 0.775304 0.275947 0.920066
O O12 0.118589 0.333576 0.985065
O O13 0.500000 0.078048 0.750000
O O14 0.701215 0.182605 0.733289
O O15 0.382965 0.131020 0.642383
O O16 0.010524 0.845172 0.061228
O O17 0.000000 0.746849 0.250000
#
# Coordination Sequence:
#
# PCOD9280401 Si02
#       8
#     8   8   8   8   8   8   8   8
#     4  10  22  42  63  86 123 164 202 248 307 367
#     4  11  21  37  61  90 121 158 206 253 298 356
#     4   9  18  37  62  85 117 159 200 245 300 359
#     4  11  22  38  57  90 128 160 198 255 306 350
#     4  12  24  42  67  93 118 157 207 253 301 366
#     4  10  21  37  59  88 123 163 203 243 302 367
#     4  10  22  42  65  89 119 158 201 253 310 365
#     4  11  22  39  62  89 120 159 204 246 302 368
#
# _framework density 21.29421
#
# number of rings (size 3 to 8) (size 9 to 14) (size 15 to 20)
#    0.000    1.500    0.000    7.500    0.000    1.000 
#    0.000   11.875    0.000    0.000    0.000    0.000 
#    0.000    0.000    0.000    0.000    0.000    0.000 
#
# Total GULP energy -178863.858754 kJ/mol
# GULP energy per Si atom -5589.495586 kJ/mol
# Density = 2.124574 g / cm^3
# Si number density = 21.294210 Si / 1000 Ang^3
#
#
#
# Elastic Constant Matrix: (Units=GPa)
#
#
# Indices 1 2 3 4 5 6 
#
# 1 73.6206 25.4452 32.1433 0.0000 -4.6885 0.0000
# 2 25.4452 136.2938 48.3042 0.0000 -8.5115 0.0000
# 3 32.1433 48.3042 82.7033 0.0000 -2.0555 0.0000
# 4 0.0000 0.0000 0.0000 29.3748 0.0000 2.3609
# 5 -4.6885 -8.5115 -2.0555 0.0000 26.4702 0.0000
# 6 0.0000 0.0000 0.0000 2.3609 0.0000 27.4436
#
#
#
# Elastic Compliance Matrix: (Units=1/GPa)
#
#
# Indices 1 2 3 4 5 6 
#
# 1 0.016595 -0.000875 -0.005884 0.000000 0.002201 0.000000
# 2 -0.000875 0.009475 -0.005132 0.000000 0.002493 0.000000
# 3 -0.005884 -0.005132 0.017342 0.000000 -0.001346 0.000000
# 4 0.000000 0.000000 0.000000 0.034280 0.000000 -0.002949
# 5 0.002201 0.002493 -0.001346 0.000000 0.038865 0.000000
# 6 0.000000 0.000000 0.000000 -0.002949 0.000000 0.036692
#
#
# Mechanical properties :
#
#
# Convention : Reuss Voigt Hill
#
# Bulk Modulus (GPa) = 50.94260 56.04479 53.49369
# Shear Modulus (GPa) = 27.23696 29.10606 28.17151
#
# Velocity S-wave (km/s) = 3.58030 3.70111 3.64121
# Velocity P-wave (km/s) = 6.40832 6.68137 6.54627
#
# Compressibility (1/GPa) = 0.01962994
#
# Stress axis : x y z
#
# Youngs Moduli (GPa) = 60.26003 105.54082 57.66338
#
# Poissons Ratio (x) = 0.09239 0.33927
# Poissons Ratio (y) = 0.05275 0.29592
# Poissons Ratio (z) = 0.35455 0.54162
#
# Static dielectric constant tensor:
#      x y z
#    x 1.769840 0.000000 0.024130 
#    y 0.000000 1.796170 0.000000 
#    z 0.024130 0.000000 1.770850 
# 
# From -- ./inp_files/308295.got.cif
#   From: 2010.05.17/outbox.cif.g08.bks.cpg/sg15_155_cif.got.tgz:308295.got - 2010.06.03 18:47:42.
