data_PCOD9280300
_publ_section_title
;
Structure prediction by ZEFSAII (Michael W. Deem and Ramdas Pophale) SiO2 
 PCOD9280300
Probable space group: C 2/C
;
_chemical_formula_sum "Si O2"
_cell_formula_units_Z 44
_cell_length_a 20.123068
_cell_length_b 8.076194
_cell_length_c 18.426567
_cell_angle_alpha 90.000000
_cell_angle_beta 49.634741
_cell_angle_gamma 90.000000
_cell_volume 2281.713428
_symmetry_space_group_name_H-M "C 2/C"
_symmetry_group_IT_number 15
_symmetry_cell_setting 'monoclinic'
loop_
_space_group_symop_operation_xyz
x,y,z
-x,y,1/2-z
-x,-y,-z
x,-y,1/2+z
1/2+x,1/2+y,z
1/2-x,1/2+y,1/2-z
1/2-x,1/2-y,-z
1/2+x,1/2-y,1/2+z
loop_
_atom_site_type_symbol
_atom_site_label
_atom_site_fract_x
_atom_site_fract_y
_atom_site_fract_z
Si Si1 0.450260 0.491463 0.925414
Si Si2 0.500000 0.307716 0.250000
Si Si3 0.097163 0.511311 0.682893
Si Si4 0.368460 0.583504 0.123610
Si Si5 0.676063 0.822345 0.999426
Si Si6 0.770133 0.699209 0.803605
O O1 0.464939 0.580509 0.839261
O O2 0.543934 0.454820 0.894060
O O3 0.396985 0.320558 0.956115
O O4 0.397565 0.606342 0.019653
O O5 0.423812 0.178059 0.280852
O O6 0.135551 0.527534 0.574240
O O7 0.160696 0.602229 0.693993
O O8 0.000000 0.591414 0.750000
O O9 0.304584 0.426630 0.167490
O O10 0.318659 0.727467 0.200332
O O11 0.750000 0.750000 0.000000
O O12 0.722991 0.837330 0.888291
#
# Coordination Sequence:
#
# PCOD9280300 Si02
#       6
#     8   4   8   8   8   8
#     4  10  22  41  58  90 117 158 199 240 303 350
#     4  10  24  34  64  84 116 150 194 252 286 340
#     4   9  20  37  56  88 117 149 202 242 292 353
#     4  10  23  39  61  84 124 156 196 242 295 368
#     4   9  19  36  60  85 112 149 200 243 291 352
#     4  10  21  37  58  86 115 158 196 242 301 349
#
# _framework density 19.283753999999998
#
# number of rings (size 3 to 8) (size 9 to 14) (size 15 to 20)
#    0.545    1.818    0.000    1.091    8.909    1.455 
#    0.000    9.091    0.000    0.000    0.000    0.000 
#    0.000    0.000    0.000    0.000    0.000    0.000 
#
# Total GULP energy -122574.327051 kJ/mol
# GULP energy per Si atom -5571.560320 kJ/mol
# Density = 1.923986 g / cm^3
# Si number density = 19.283754 Si / 1000 Ang^3
#
#
#
# Elastic Constant Matrix: (Units=GPa)
#
#
# Indices 1 2 3 4 5 6 
#
# 1 72.9430 1.2884 28.0180 0.0000 -16.3618 0.0000
# 2 1.2884 21.4669 35.7600 0.0001 5.4172 0.0000
# 3 28.0180 35.7600 144.4319 0.0001 10.3132 0.0000
# 4 0.0000 0.0001 0.0001 31.3278 0.0000 0.7477
# 5 -16.3618 5.4172 10.3132 0.0000 32.8166 0.0000
# 6 0.0000 0.0000 0.0000 0.7477 0.0000 12.6962
#
#
#
# Elastic Compliance Matrix: (Units=1/GPa)
#
#
# Indices 1 2 3 4 5 6 
#
# 1 0.017954 0.005825 -0.005622 0.000000 0.009757 0.000000
# 2 0.005825 0.082813 -0.021344 0.000000 -0.004058 0.000000
# 3 -0.005622 -0.021344 0.013551 0.000000 -0.003538 0.000000
# 4 0.000000 0.000000 0.000000 0.031965 0.000000 -0.001883
# 5 0.009757 -0.004058 -0.003538 0.000000 0.037119 0.000000
# 6 0.000000 0.000000 0.000000 -0.001883 0.000000 0.078875
#
#
# Mechanical properties :
#
#
# Convention : Reuss Voigt Hill
#
# Bulk Modulus (GPa) = 13.88162 40.99717 27.43939
# Shear Modulus (GPa) = 15.21738 26.95315 21.08527
#
# Velocity S-wave (km/s) = 2.81219 3.74266 3.31028
# Velocity P-wave (km/s) = 4.21412 6.32319 5.37315
#
# Compressibility (1/GPa) = 0.07203771
#
# Stress axis : x y z
#
# Youngs Moduli (GPa) = 55.69648 12.07541 73.79261
#
# Poissons Ratio (x) = -0.07034 0.41486
# Poissons Ratio (y) = -0.32445 1.57503
# Poissons Ratio (z) = 0.31312 0.25774
#
# Static dielectric constant tensor:
#      x y z
#    x 1.654020 0.000000 0.002640 
#    y 0.000000 1.671430 0.000000 
#    z 0.002640 0.000000 1.713310 
# 
# From -- ./inp_files/209420.got.cif
#   From: 2010.05.17/outbox.cif.g08.bks.cpg/sg15_105_cif.got.tgz:209420.got - 2010.06.03 18:47:42.
