data_PCOD9280136
_publ_section_title
;
Structure prediction by ZEFSAII (Michael W. Deem and Ramdas Pophale) SiO2 
 PCOD9280136
Probable space group: C 2/C
;
_chemical_formula_sum "Si O2"
_cell_formula_units_Z 56
_cell_length_a 18.593524
_cell_length_b 27.641348
_cell_length_c 9.080846
_cell_angle_alpha 90.000000
_cell_angle_beta 138.974092
_cell_angle_gamma 90.000000
_cell_volume 3063.486425
_symmetry_space_group_name_H-M "C 2/C"
_symmetry_group_IT_number 15
_symmetry_cell_setting 'monoclinic'
loop_
_space_group_symop_operation_xyz
x,y,z
-x,y,1/2-z
-x,-y,-z
x,-y,1/2+z
1/2+x,1/2+y,z
1/2-x,1/2+y,1/2-z
1/2-x,1/2-y,-z
1/2+x,1/2-y,1/2+z
loop_
_atom_site_type_symbol
_atom_site_label
_atom_site_fract_x
_atom_site_fract_y
_atom_site_fract_z
Si Si1 0.358976 0.540668 0.366635
Si Si2 0.342485 0.344595 0.339370
Si Si3 0.056541 0.790220 0.563136
Si Si4 0.378278 0.556819 0.735597
Si Si5 0.122263 0.706860 0.895025
Si Si6 0.200714 0.130167 0.401102
Si Si7 0.781498 0.744527 0.880073
O O1 0.337874 0.547480 0.507124
O O2 0.488997 0.552959 0.552250
O O3 0.339596 0.485997 0.283583
O O4 0.294409 0.576934 0.158586
O O5 0.436247 0.306970 0.428211
O O6 0.342797 0.390379 0.233826
O O7 0.355129 0.364929 0.524617
O O8 0.233513 0.312215 0.174184
O O9 0.105407 0.752809 0.760342
O O10 0.120707 0.840662 0.668772
O O11 0.100179 0.765121 0.482008
O O12 0.000000 0.692295 0.750000
O O13 0.188415 0.661717 0.930512
O O14 0.194949 0.726697 0.142971
O O15 0.750000 0.750000 0.000000
#
# Coordination Sequence:
#
# PCOD9280136 Si02
#       7
#     8   8   8   8   8   8   8
#     4  10  21  37  52  83 117 149 189 241 287 356
#     4  12  21  35  58  81 113 157 192 233 292 342
#     4  11  20  37  52  78 111 156 195 228 278 347
#     4  10  22  34  54  81 118 150 188 232 297 352
#     4  11  20  39  56  78 112 158 200 238 279 351
#     4  11  20  34  57  79 108 151 196 231 286 344
#     4  11  24  34  51  79 115 149 196 242 282 338
#
# _framework density 18.279826
#
# number of rings (size 3 to 8) (size 9 to 14) (size 15 to 20)
#    0.000    1.143    5.714    2.143    4.000    1.714 
#    0.000    0.000    0.000    0.000    0.000    4.000 
#    0.000    0.000    0.000    0.000    0.000    0.000 
#
# Total GULP energy -156123.981618 kJ/mol
# GULP energy per Si atom -5575.856486 kJ/mol
# Density = 1.823822 g / cm^3
# Si number density = 18.279826 Si / 1000 Ang^3
#
#
#
# Elastic Constant Matrix: (Units=GPa)
#
#
# Indices 1 2 3 4 5 6 
#
# 1 114.1814 44.2029 52.7552 0.0000 -19.1404 0.0000
# 2 44.2029 99.2258 45.2379 0.0000 -12.7751 0.0000
# 3 52.7552 45.2379 68.8673 0.0000 -15.1675 0.0000
# 4 0.0000 0.0000 0.0000 21.2510 0.0000 -7.0819
# 5 -19.1404 -12.7751 -15.1675 0.0000 36.8834 0.0000
# 6 0.0000 0.0000 0.0000 -7.0819 0.0000 32.0341
#
#
#
# Elastic Compliance Matrix: (Units=1/GPa)
#
#
# Indices 1 2 3 4 5 6 
#
# 1 0.014098 -0.001815 -0.008944 0.000000 0.003009 0.000000
# 2 -0.001815 0.014669 -0.008064 0.000000 0.000823 0.000000
# 3 -0.008944 -0.008064 0.027525 0.000000 0.003884 0.000000
# 4 0.000000 0.000000 0.000000 0.050799 0.000000 0.011230
# 5 0.003009 0.000823 0.003884 0.000000 0.030556 0.000000
# 6 0.000000 0.000000 0.000000 0.011230 0.000000 0.033700
#
#
# Mechanical properties :
#
#
# Convention : Reuss Voigt Hill
#
# Bulk Modulus (GPa) = 53.63501 62.96294 58.29898
# Shear Modulus (GPa) = 23.23319 27.37226 25.30272
#
# Velocity S-wave (km/s) = 3.56894 3.87383 3.72450
# Velocity P-wave (km/s) = 6.81087 7.38427 7.10336
#
# Compressibility (1/GPa) = 0.01864454
#
# Stress axis : x y z
#
# Youngs Moduli (GPa) = 70.93392 68.17066 36.33010
#
# Poissons Ratio (x) = 0.12372 0.32495
# Poissons Ratio (y) = 0.12874 0.29298
# Poissons Ratio (z) = 0.63447 0.54975
#
# Static dielectric constant tensor:
#      x y z
#    x 1.686820 0.000000 -0.019920 
#    y 0.000000 1.610250 0.000000 
#    z -0.019920 0.000000 1.672030 
# 
# From -- ./inp_files/52002.got.cif
#   From: 2010.05.17/outbox.cif.g08.bks.cpg/sg15_27_cif.got.tgz:52002.got - 2010.06.03 18:47:42.
