data_PCOD9280695
_publ_section_title
;
Structure prediction by ZEFSAII (Michael W. Deem and Ramdas Pophale) SiO2 
 PCOD9280695
Probable space group: C 2/C
;
_chemical_formula_sum "Si O2"
_cell_formula_units_Z 44
_cell_length_a 26.188462
_cell_length_b 12.764412
_cell_length_c 8.925700
_cell_angle_alpha 90.000000
_cell_angle_beta 51.307533
_cell_angle_gamma 90.000000
_cell_volume 2328.804407
_symmetry_space_group_name_H-M "C 2/C"
_symmetry_group_IT_number 15
_symmetry_cell_setting 'monoclinic'
loop_
_space_group_symop_operation_xyz
x,y,z
-x,y,1/2-z
-x,-y,-z
x,-y,1/2+z
1/2+x,1/2+y,z
1/2-x,1/2+y,1/2-z
1/2-x,1/2-y,-z
1/2+x,1/2-y,1/2+z
loop_
_atom_site_type_symbol
_atom_site_label
_atom_site_fract_x
_atom_site_fract_y
_atom_site_fract_z
Si Si1 0.000000 0.486590 0.750000
Si Si2 0.598207 0.433464 0.261533
Si Si3 0.810379 0.997106 0.649617
Si Si4 0.919549 0.621838 0.656730
Si Si5 0.475259 0.344221 0.624373
Si Si6 0.265322 0.873309 0.464284
O O1 0.045072 0.558319 0.774192
O O2 0.046380 0.417952 0.557795
O O3 0.646839 0.434694 0.313282
O O4 0.538643 0.355838 0.401490
O O5 0.566395 0.549568 0.312809
O O6 0.639883 0.422949 0.034528
O O7 0.774625 0.071465 0.596576
O O8 0.760342 0.928659 0.837556
O O9 0.934101 0.743834 0.655941
O O10 0.841998 0.606275 0.800941
O O11 0.500000 0.336393 0.750000
O O12 0.250000 0.750000 0.500000
#
# Coordination Sequence:
#
# PCOD9280695 Si02
#       6
#     4   8   8   8   8   8
#     4  10  24  40  62  84 116 162 208 262 284 340
#     4  10  21  37  62  94 125 148 197 243 319 366
#     4  10  21  41  61  90 123 162 198 250 295 368
#     4  11  22  41  61  87 120 160 209 246 301 347
#     4  11  21  36  64  94 124 154 189 259 310 364
#     4  11  24  40  64  87 124 165 203 247 300 362
#
# _framework density 18.893815
#
# number of rings (size 3 to 8) (size 9 to 14) (size 15 to 20)
#    0.000    1.455    2.727    3.273    0.000    2.909 
#    0.000    3.636    0.000    0.000    0.000    0.000 
#    0.000    0.000    0.000    0.000    0.000    0.000 
#
# Total GULP energy -122971.951342 kJ/mol
# GULP energy per Si atom -5589.634152 kJ/mol
# Density = 1.885081 g / cm^3
# Si number density = 18.893815 Si / 1000 Ang^3
#
#
#
# Elastic Constant Matrix: (Units=GPa)
#
#
# Indices 1 2 3 4 5 6 
#
# 1 54.8207 -2.0839 47.2466 0.0000 -9.8374 0.0000
# 2 -2.0839 46.7952 24.5302 0.0000 0.3849 0.0000
# 3 47.2466 24.5302 142.3809 0.0000 -11.3602 0.0000
# 4 0.0000 0.0000 0.0000 20.0228 0.0000 -8.8702
# 5 -9.8374 0.3849 -11.3602 0.0000 38.4376 0.0000
# 6 0.0000 0.0000 0.0000 -8.8702 0.0000 23.6944
#
#
#
# Elastic Compliance Matrix: (Units=1/GPa)
#
#
# Indices 1 2 3 4 5 6 
#
# 1 0.027873 0.006469 -0.010036 0.000000 0.004103 0.000000
# 2 0.006469 0.025073 -0.006508 0.000000 -0.000519 0.000000
# 3 -0.010036 -0.006508 0.011548 0.000000 0.000909 0.000000
# 4 0.000000 0.000000 0.000000 0.059872 0.000000 0.022414
# 5 0.004103 -0.000519 0.000909 0.000000 0.027340 0.000000
# 6 0.000000 0.000000 0.000000 0.022414 0.000000 0.050595
#
#
# Mechanical properties :
#
#
# Convention : Reuss Voigt Hill
#
# Bulk Modulus (GPa) = 22.55140 42.59807 32.57473
# Shear Modulus (GPa) = 21.07633 28.05122 24.56377
#
# Velocity S-wave (km/s) = 3.34356 3.85733 3.60960
# Velocity P-wave (km/s) = 5.18340 6.51411 5.88648
#
# Compressibility (1/GPa) = 0.04434315
#
# Stress axis : x y z
#
# Youngs Moduli (GPa) = 35.87703 39.88290 86.59876
#
# Poissons Ratio (x) = -0.25798 0.86913
# Poissons Ratio (y) = -0.23207 0.56356
# Poissons Ratio (z) = 0.36007 0.25954
#
# Static dielectric constant tensor:
#      x y z
#    x 1.638590 0.000000 0.001420 
#    y 0.000000 1.612940 0.000000 
#    z 0.001420 0.000000 1.664430 
# 
# From -- ./inp_files/54414.got.cif
#   From: 2010.05.17/outbox.cif.g08.bks.cpg/sg15_28_cif.got.tgz:54414.got - 2010.06.03 18:47:42.
