data_PCOD9280031
_publ_section_title
;
Structure prediction by ZEFSAII (Michael W. Deem and Ramdas Pophale) SiO2 
 PCOD9280031
Probable space group: C 2/C
;
_chemical_formula_sum "Si O2"
_cell_formula_units_Z 48
_cell_length_a 15.774646
_cell_length_b 10.477616
_cell_length_c 24.068531
_cell_angle_alpha 90.000000
_cell_angle_beta 31.345706
_cell_angle_gamma 90.000000
_cell_volume 2069.390753
_symmetry_space_group_name_H-M "C 2/C"
_symmetry_group_IT_number 15
_symmetry_cell_setting 'monoclinic'
loop_
_space_group_symop_operation_xyz
x,y,z
-x,y,1/2-z
-x,-y,-z
x,-y,1/2+z
1/2+x,1/2+y,z
1/2-x,1/2+y,1/2-z
1/2-x,1/2-y,-z
1/2+x,1/2-y,1/2+z
loop_
_atom_site_type_symbol
_atom_site_label
_atom_site_fract_x
_atom_site_fract_y
_atom_site_fract_z
Si Si1 0.337563 0.899548 0.711293
Si Si2 0.032309 0.825821 0.580652
Si Si3 0.064155 0.645450 0.775004
Si Si4 0.178420 0.912479 0.986950
Si Si5 0.961945 0.779217 0.329646
Si Si6 0.426682 0.243576 0.060101
O O1 0.142242 0.899316 0.817181
O O2 0.385481 0.776467 0.722046
O O3 0.426039 0.875903 0.602652
O O4 0.406320 0.022220 0.703588
O O5 0.046248 0.745864 0.629089
O O6 0.030432 0.732648 0.528424
O O7 0.162920 0.936210 0.495005
O O8 0.242522 0.707459 0.668732
O O9 0.000000 0.616737 0.750000
O O10 0.132820 0.869004 0.074840
O O11 0.049001 0.849062 0.017346
O O12 0.347500 0.842497 0.879795
O O13 0.000000 0.843498 0.250000
#
# Coordination Sequence:
#
# PCOD9280031 Si02
#       6
#     8   8   8   8   8   8
#     4  10  22  41  63  92 125 165 215 263 313 384
#     4  11  23  41  66  90 130 170 210 259 327 385
#     4  11  25  41  63  94 129 168 210 261 323 385
#     4  10  21  39  62  95 123 168 214 260 319 381
#     4  10  21  36  63  94 126 161 216 268 311 369
#     4  10  22  40  65  92 120 170 218 253 321 381
#
# _framework density 23.195232000000001
#
# number of rings (size 3 to 8) (size 9 to 14) (size 15 to 20)
#    0.000    1.667    1.667    2.000    4.667    2.000 
#    0.000    0.000    0.000    0.000    0.000    0.000 
#    0.000    0.000    0.000    0.000    0.000    0.000 
#
# Total GULP energy -134275.185222 kJ/mol
# GULP energy per Si atom -5594.799384 kJ/mol
# Density = 2.314244 g / cm^3
# Si number density = 23.195232 Si / 1000 Ang^3
#
#
#
# Elastic Constant Matrix: (Units=GPa)
#
#
# Indices 1 2 3 4 5 6 
#
# 1 87.1110 40.9428 31.1182 -0.0001 18.2306 0.0000
# 2 40.9428 60.9653 21.5677 -0.0001 16.6644 0.0000
# 3 31.1182 21.5677 81.3031 -0.0005 26.5113 0.0002
# 4 -0.0001 -0.0001 -0.0005 15.7340 0.0002 2.5910
# 5 18.2306 16.6644 26.5113 0.0002 49.1137 -0.0001
# 6 0.0000 0.0000 0.0002 2.5910 -0.0001 31.4542
#
#
#
# Elastic Compliance Matrix: (Units=1/GPa)
#
#
# Indices 1 2 3 4 5 6 
#
# 1 0.017949 -0.010428 -0.003744 0.000000 -0.001103 0.000000
# 2 -0.010428 0.024944 -0.001369 0.000000 -0.003854 0.000000
# 3 -0.003744 -0.001369 0.016373 0.000001 -0.006984 0.000000
# 4 0.000000 0.000000 0.000001 0.064431 -0.000001 -0.005307
# 5 -0.001103 -0.003854 -0.006984 -0.000001 0.025848 0.000000
# 6 0.000000 0.000000 0.000000 -0.005307 0.000000 0.032229
#
#
# Mechanical properties :
#
#
# Convention : Reuss Voigt Hill
#
# Bulk Modulus (GPa) = 35.48120 46.29296 40.88708
# Shear Modulus (GPa) = 22.49709 28.31041 25.40375
#
# Velocity S-wave (km/s) = 3.11770 3.49739 3.31299
# Velocity P-wave (km/s) = 5.31884 6.02580 5.68333
#
# Compressibility (1/GPa) = 0.02818394
#
# Stress axis : x y z
#
# Youngs Moduli (GPa) = 55.71270 40.09017 61.07596
#
# Poissons Ratio (x) = 0.41807 0.22866
# Poissons Ratio (y) = 0.58098 0.08362
# Poissons Ratio (z) = 0.20858 0.05489
#
# Static dielectric constant tensor:
#      x y z
#    x 1.882410 0.000000 -0.014370 
#    y 0.000000 1.870680 0.000000 
#    z -0.014370 0.000000 1.854260 
# 
# From -- ./inp_files/243910.got.cif
#   From: 2010.05.17/outbox.cif.g08.bks.cpg/sg15_122_cif.got.tgz:243910.got - 2010.06.03 18:47:42.
