data_PCOD9280528
_publ_section_title
;
Structure prediction by ZEFSAII (Michael W. Deem and Ramdas Pophale) SiO2 
 PCOD9280528
Probable space group: C 2/C
;
_chemical_formula_sum "Si O2"
_cell_formula_units_Z 48
_cell_length_a 25.457575
_cell_length_b 10.987377
_cell_length_c 7.568354
_cell_angle_alpha 90.000000
_cell_angle_beta 94.502124
_cell_angle_gamma 90.000000
_cell_volume 2110.427200
_symmetry_space_group_name_H-M "C 2/C"
_symmetry_group_IT_number 15
_symmetry_cell_setting 'monoclinic'
loop_
_space_group_symop_operation_xyz
x,y,z
-x,y,1/2-z
-x,-y,-z
x,-y,1/2+z
1/2+x,1/2+y,z
1/2-x,1/2+y,1/2-z
1/2-x,1/2-y,-z
1/2+x,1/2-y,1/2+z
loop_
_atom_site_type_symbol
_atom_site_label
_atom_site_fract_x
_atom_site_fract_y
_atom_site_fract_z
Si Si1 0.219522 0.576639 0.482306
Si Si2 0.910801 0.062729 0.759149
Si Si3 0.447775 0.313082 0.912338
Si Si4 0.836816 0.653235 0.361892
Si Si5 0.706029 0.401337 0.204233
Si Si6 0.567647 0.755762 0.447553
O O1 0.177889 0.645615 0.348675
O O2 0.190131 0.460702 0.555985
O O3 0.266703 0.514529 0.383903
O O4 0.249139 0.644882 0.647588
O O5 0.929209 0.147814 0.601958
O O6 0.847918 0.048280 0.722332
O O7 0.917093 0.131828 0.947002
O O8 0.944539 0.941708 0.803838
O O9 0.416781 0.234448 0.755693
O O10 0.504488 0.248992 0.943144
O O11 0.811446 0.782978 0.412677
O O12 0.897977 0.650936 0.429717
#
# Coordination Sequence:
#
# PCOD9280528 Si02
#       6
#     8   8   8   8   8   8
#     4  10  21  40  65  83 129 169 203 259 311 361
#     4  11  20  34  58  92 132 163 195 243 323 392
#     4  11  21  35  59  87 130 166 198 253 317 375
#     4  10  22  42  60  90 121 163 216 259 308 371
#     4  10  21  37  60  99 126 160 206 249 314 393
#     4  10  23  36  56  87 122 159 212 244 305 377
#
# _framework density 22.744212000000001
#
# number of rings (size 3 to 8) (size 9 to 14) (size 15 to 20)
#    0.000    1.667    1.667    3.000    4.667    0.000 
#   15.000    0.000    0.000    4.000    0.000    0.000 
#    0.000    0.000    0.000    0.000    0.000    0.000 
#
# Total GULP energy -133682.181996 kJ/mol
# GULP energy per Si atom -5570.090916 kJ/mol
# Density = 2.269244 g / cm^3
# Si number density = 22.744212 Si / 1000 Ang^3
#
#
#
# Elastic Constant Matrix: (Units=GPa)
#
#
# Indices 1 2 3 4 5 6 
#
# 1 101.7613 16.1384 50.3117 0.0000 24.8247 0.0000
# 2 16.1384 32.4020 5.7273 0.0000 6.8137 0.0000
# 3 50.3117 5.7273 106.0697 0.0000 34.4065 0.0000
# 4 0.0000 0.0000 0.0000 10.1993 0.0000 -23.0352
# 5 24.8247 6.8137 34.4065 0.0000 35.6188 0.0000
# 6 0.0000 0.0000 0.0000 -23.0352 0.0000 -67.3709
#
#
#
# Elastic Compliance Matrix: (Units=1/GPa)
#
#
# Indices 1 2 3 4 5 6 
#
# 1 0.014177 -0.005335 -0.005188 0.000000 -0.003849 0.000000
# 2 -0.005335 0.034174 0.002330 0.000000 -0.005069 0.000000
# 3 -0.005188 0.002330 0.015633 0.000000 -0.011931 0.000000
# 4 0.000000 0.000000 0.000000 0.055324 0.000000 -0.018916
# 5 -0.003849 -0.005069 -0.011931 0.000000 0.043252 0.000000
# 6 0.000000 0.000000 0.000000 -0.018916 0.000000 -0.008375
#
#
# Mechanical properties :
#
#
# Convention : Reuss Voigt Hill
#
# Bulk Modulus (GPa) = 21.00972 42.73199 31.87085
# Shear Modulus (GPa) = 26.81897 6.89314 16.85606
#
# Velocity S-wave (km/s) = 3.43761 1.74279 2.72529
# Velocity P-wave (km/s) = 5.00137 4.78316 4.89348
#
# Compressibility (1/GPa) = 0.04759702
#
# Stress axis : x y z
#
# Youngs Moduli (GPa) = 70.53765 29.26235 63.96827
#
# Poissons Ratio (x) = 0.15611 0.33186
# Poissons Ratio (y) = 0.37630 -0.14902
# Poissons Ratio (z) = 0.36595 -0.06817
#
# Static dielectric constant tensor:
#      x y z
#    x 1.873550 0.000000 -0.005750 
#    y 0.000000 1.919660 0.000000 
#    z -0.005750 0.000000 1.927450 
# 
# From -- ./inp_files/60682.got.cif
#   From: 2010.05.17/outbox.cif.g08.bks.cpg/sg15_31_cif.got.tgz:60682.got - 2010.06.03 18:47:42.
