data_PCOD9280056
_publ_section_title
;
Structure prediction by ZEFSAII (Michael W. Deem and Ramdas Pophale) SiO2 
 PCOD9280056
Probable space group: C 2/C
;
_chemical_formula_sum "Si O2"
_cell_formula_units_Z 64
_cell_length_a 21.269936
_cell_length_b 8.097704
_cell_length_c 19.113843
_cell_angle_alpha 90.000000
_cell_angle_beta 120.245351
_cell_angle_gamma 90.000000
_cell_volume 2843.987573
_symmetry_space_group_name_H-M "C 2/C"
_symmetry_group_IT_number 15
_symmetry_cell_setting 'monoclinic'
loop_
_space_group_symop_operation_xyz
x,y,z
-x,y,1/2-z
-x,-y,-z
x,-y,1/2+z
1/2+x,1/2+y,z
1/2-x,1/2+y,1/2-z
1/2-x,1/2-y,-z
1/2+x,1/2-y,1/2+z
loop_
_atom_site_type_symbol
_atom_site_label
_atom_site_fract_x
_atom_site_fract_y
_atom_site_fract_z
Si Si1 0.875389 0.955684 0.255484
Si Si2 0.401209 0.863863 0.428929
Si Si3 0.455246 0.091706 0.569596
Si Si4 0.914316 0.013517 0.439249
Si Si5 0.444400 0.896264 0.776579
Si Si6 0.619670 0.776543 0.334586
Si Si7 0.276864 0.970325 0.782111
Si Si8 0.275047 0.349306 0.371718
O O1 0.902195 0.007254 0.348307
O O2 0.898710 0.101275 0.213761
O O3 0.788540 0.962673 0.207277
O O4 0.895726 0.763988 0.259577
O O5 0.482223 0.831699 0.444036
O O6 0.382914 0.686947 0.448966
O O7 0.399083 0.004069 0.486374
O O8 0.348521 0.924438 0.338061
O O9 0.419497 0.195403 0.612371
O O10 0.504038 0.943685 0.630153
O O11 0.857845 0.882451 0.441715
O O12 0.000000 0.000000 0.500000
O O13 0.500000 0.835784 0.750000
O O14 0.410013 0.067218 0.727859
O O15 0.708136 0.797603 0.384146
O O16 0.283458 0.787572 0.815603
O O17 0.253269 0.992424 0.688816
#
# Coordination Sequence:
#
# PCOD9280056 Si02
#       8
#     8   8   8   8   8   8   8   8
#     4  10  22  39  65  95 126 168 217 267 314 390
#     4  11  23  39  65  91 125 169 213 263 331 386
#     4  10  23  40  65  91 129 169 209 265 325 396
#     4  11  24  38  61  97 134 168 216 265 323 387
#     4  10  21  36  64  92 125 163 208 261 321 381
#     4  10  22  43  63  93 127 168 215 267 325 381
#     4  10  21  37  63  96 119 164 216 266 321 370
#     4  10  22  38  65  92 126 164 215 270 312 388
#
# _framework density 22.503613999999999
#
# number of rings (size 3 to 8) (size 9 to 14) (size 15 to 20)
#    0.000    1.750    0.000    4.500   12.250    2.500 
#    0.000    3.125    2.750    0.000    0.000    0.000 
#    0.000    0.000    0.000    0.000    0.000    0.000 
#
# Total GULP energy -178473.774992 kJ/mol
# GULP energy per Si atom -5577.305468 kJ/mol
# Density = 2.245239 g / cm^3
# Si number density = 22.503614 Si / 1000 Ang^3
#
#
#
# Elastic Constant Matrix: (Units=GPa)
#
#
# Indices 1 2 3 4 5 6 
#
# 1 90.0412 9.7573 18.5017 0.0000 -3.1864 0.0000
# 2 9.7573 102.1287 16.6521 0.0000 -11.2168 0.0000
# 3 18.5017 16.6521 73.4581 0.0000 7.7397 0.0000
# 4 0.0000 0.0000 0.0000 14.9970 0.0000 17.6529
# 5 -3.1864 -11.2168 7.7397 0.0000 36.3828 0.0000
# 6 0.0000 0.0000 0.0000 17.6529 0.0000 18.9321
#
#
#
# Elastic Compliance Matrix: (Units=1/GPa)
#
#
# Indices 1 2 3 4 5 6 
#
# 1 0.011835 -0.000466 -0.003037 0.000000 0.001539 0.000000
# 2 -0.000466 0.010699 -0.002712 0.000000 0.003835 0.000000
# 3 -0.003037 -0.002712 0.015456 0.000000 -0.004390 0.000000
# 4 0.000000 0.000000 0.000000 -0.683484 0.000000 0.637301
# 5 0.001539 0.003835 -0.004390 0.000000 0.029736 0.000000
# 6 0.000000 0.000000 0.000000 0.637301 0.000000 -0.541418
#
#
# Mechanical properties :
#
#
# Convention : Reuss Voigt Hill
#
# Bulk Modulus (GPa) = 39.12573 39.49448 39.31011
# Shear Modulus (GPa) = -4.40054 28.77682 12.18814
#
# Velocity S-wave (km/s) = -1.39990 3.57986 2.32977
# Velocity P-wave (km/s) = 3.84853 5.88860 4.97427
#
# Compressibility (1/GPa) = 0.02555863
#
# Stress axis : x y z
#
# Youngs Moduli (GPa) = 84.49412 93.46235 64.70183
#
# Poissons Ratio (x) = 0.04360 0.19652
# Poissons Ratio (y) = 0.03942 0.17547
# Poissons Ratio (z) = 0.25663 0.25347
#
# Static dielectric constant tensor:
#      x y z
#    x 1.888000 0.000000 0.028570 
#    y 0.000000 1.918500 0.000000 
#    z 0.028570 0.000000 1.943710 
# 
# From -- ./inp_files/251917.got.cif
#   From: 2010.05.17/outbox.cif.g08.bks.cpg/sg15_126_cif.got.tgz:251917.got - 2010.06.03 18:47:42.
