data_PCOD9280541
_publ_section_title
;
Structure prediction by ZEFSAII (Michael W. Deem and Ramdas Pophale) SiO2 
 PCOD9280541
Probable space group: C 2/C
;
_chemical_formula_sum "Si O2"
_cell_formula_units_Z 44
_cell_length_a 7.956275
_cell_length_b 28.602582
_cell_length_c 15.310272
_cell_angle_alpha 90.000000
_cell_angle_beta 142.367894
_cell_angle_gamma 90.000000
_cell_volume 2127.389102
_symmetry_space_group_name_H-M "C 2/C"
_symmetry_group_IT_number 15
_symmetry_cell_setting 'monoclinic'
loop_
_space_group_symop_operation_xyz
x,y,z
-x,y,1/2-z
-x,-y,-z
x,-y,1/2+z
1/2+x,1/2+y,z
1/2-x,1/2+y,1/2-z
1/2-x,1/2-y,-z
1/2+x,1/2-y,1/2+z
loop_
_atom_site_type_symbol
_atom_site_label
_atom_site_fract_x
_atom_site_fract_y
_atom_site_fract_z
Si Si1 0.327549 0.765958 0.907788
Si Si2 0.676431 0.065915 0.129646
Si Si3 0.000000 0.598106 0.750000
Si Si4 0.312053 0.674355 0.991909
Si Si5 0.786104 0.537753 0.813538
Si Si6 0.109715 0.657498 0.198131
O O1 0.415426 0.713320 0.965143
O O2 0.458784 0.796046 0.884647
O O3 0.000000 0.762601 0.750000
O O4 0.370416 0.796058 0.014271
O O5 0.536281 0.110366 0.117021
O O6 0.000000 0.074593 0.250000
O O7 0.660249 0.017542 0.177088
O O8 0.526468 0.056048 0.976444
O O9 0.832559 0.632600 0.617445
O O10 0.807206 0.566040 0.732169
O O11 0.561509 0.656598 0.153022
O O12 0.500000 0.542552 0.750000
O O13 0.000000 0.658162 0.250000
#
# Coordination Sequence:
#
# PCOD9280541 Si02
#       6
#     8   8   4   8   8   8
#     4   9  18  39  60  80 115 159 204 249 292 375
#     4  10  21  45  62  86 124 168 204 255 311 373
#     4  12  22  38  64  96 122 162 200 262 308 372
#     4  10  21  37  61  86 114 161 207 241 309 367
#     4  10  24  41  65  92 127 162 210 261 311 365
#     4  11  23  35  60  89 120 158 202 251 309 363
#
# _framework density 20.682628999999999
#
# number of rings (size 3 to 8) (size 9 to 14) (size 15 to 20)
#    0.000    1.818    0.909    3.818    3.818    0.727 
#    0.000    4.545    0.000    0.000    0.000    0.000 
#    0.000    0.000    0.000    0.000    0.000    0.000 
#
# Total GULP energy -122803.209242 kJ/mol
# GULP energy per Si atom -5581.964056 kJ/mol
# Density = 2.063555 g / cm^3
# Si number density = 20.682629 Si / 1000 Ang^3
#
#
#
# Elastic Constant Matrix: (Units=GPa)
#
#
# Indices 1 2 3 4 5 6 
#
# 1 55.5448 38.0720 -6.6051 0.0000 -13.7771 0.0000
# 2 38.0720 135.3095 14.4671 0.0000 -26.4262 0.0000
# 3 -6.6051 14.4671 49.0808 0.0000 -3.5413 0.0000
# 4 0.0000 0.0000 0.0000 78.2243 0.0000 14.8304
# 5 -13.7771 -26.4262 -3.5413 0.0000 25.8672 0.0000
# 6 0.0000 0.0000 0.0000 14.8304 0.0000 14.0008
#
#
#
# Elastic Compliance Matrix: (Units=1/GPa)
#
#
# Indices 1 2 3 4 5 6 
#
# 1 0.024757 -0.006054 0.005677 0.000000 0.007779 0.000000
# 2 -0.006054 0.010924 -0.003497 0.000000 0.007457 0.000000
# 3 0.005677 -0.003497 0.022350 0.000000 0.002511 0.000000
# 4 0.000000 0.000000 0.000000 0.015996 0.000000 -0.016944
# 5 0.007779 0.007457 0.002511 0.000000 0.050764 0.000000
# 6 0.000000 0.000000 0.000000 -0.016944 0.000000 0.089372
#
#
# Mechanical properties :
#
#
# Convention : Reuss Voigt Hill
#
# Bulk Modulus (GPa) = 19.88626 36.86701 28.37664
# Shear Modulus (GPa) = 20.94920 36.55187 28.75053
#
# Velocity S-wave (km/s) = 3.18604 4.20846 3.73242
# Velocity P-wave (km/s) = 4.81356 6.44039 5.68546
#
# Compressibility (1/GPa) = 0.05028597
#
# Stress axis : x y z
#
# Youngs Moduli (GPa) = 40.39182 91.54096 44.74174
#
# Poissons Ratio (x) = 0.55417 -0.25402
# Poissons Ratio (y) = 0.24453 0.15645
# Poissons Ratio (z) = -0.22932 0.32009
#
# Static dielectric constant tensor:
#      x y z
#    x 1.783090 0.000000 0.012170 
#    y 0.000000 1.759100 0.000000 
#    z 0.012170 0.000000 1.738950 
# 
# From -- ./inp_files/138816.got.cif
#   From: 2010.05.17/outbox.cif.g08.bks.cpg/sg15_70_cif.got.tgz:138816.got - 2010.06.03 18:47:42.
