data_PCOD9280939
_publ_section_title
;
Structure prediction by ZEFSAII (Michael W. Deem and Ramdas Pophale) SiO2 
 PCOD9280939
Probable space group: C 2/C
;
_chemical_formula_sum "Si O2"
_cell_formula_units_Z 64
_cell_length_a 21.230553
_cell_length_b 8.332351
_cell_length_c 26.692480
_cell_angle_alpha 90.000000
_cell_angle_beta 34.025791
_cell_angle_gamma 90.000000
_cell_volume 2642.220933
_symmetry_space_group_name_H-M "C 2/C"
_symmetry_group_IT_number 15
_symmetry_cell_setting 'monoclinic'
loop_
_space_group_symop_operation_xyz
x,y,z
-x,y,1/2-z
-x,-y,-z
x,-y,1/2+z
1/2+x,1/2+y,z
1/2-x,1/2+y,1/2-z
1/2-x,1/2-y,-z
1/2+x,1/2-y,1/2+z
loop_
_atom_site_type_symbol
_atom_site_label
_atom_site_fract_x
_atom_site_fract_y
_atom_site_fract_z
Si Si1 0.995778 0.100956 0.079319
Si Si2 0.156058 0.176234 0.837302
Si Si3 0.141972 0.603148 0.440351
Si Si4 0.128738 0.908651 0.645712
Si Si5 0.968236 0.375191 0.918430
Si Si6 0.611711 0.154881 0.786193
Si Si7 0.323352 0.394450 0.485322
Si Si8 0.625525 0.946765 0.165290
O O1 0.933834 0.169205 0.170088
O O2 0.907934 0.990302 0.106398
O O3 0.095223 0.985249 0.029396
O O4 0.057503 0.255162 0.015365
O O5 0.165545 0.323892 0.870334
O O6 0.285046 0.129946 0.743198
O O7 0.074769 0.254886 0.849767
O O8 0.262851 0.580359 0.388538
O O9 0.075467 0.438974 0.498421
O O10 0.127588 0.718916 0.632365
O O11 0.000000 0.940262 0.750000
O O12 0.155985 0.018561 0.580582
O O13 0.866513 0.286264 0.958458
O O14 0.011752 0.530938 0.861619
O O15 0.655063 0.112966 0.702142
O O16 0.204985 0.424168 0.588956
O O17 0.500000 0.009427 0.250000
#
# Coordination Sequence:
#
# PCOD9280939 Si02
#       8
#     8   8   8   8   8   8   8   8
#     4  10  21  37  67  93 132 183 228 298 353 425
#     4  11  21  41  66 100 135 183 242 291 362 426
#     4  11  22  41  66  96 139 182 237 291 365 432
#     4  11  23  41  71 103 136 187 245 297 358 433
#     4  10  26  43  65 102 144 192 225 303 371 435
#     4  11  22  43  65 102 138 183 240 294 365 434
#     4  11  23  44  66 101 140 184 237 295 363 432
#     4  11  23  40  70 102 130 183 247 301 350 430
#
# _framework density 24.222047
#
# number of rings (size 3 to 8) (size 9 to 14) (size 15 to 20)
#    0.000    1.250    2.500    3.375    3.500    1.500 
#    2.250    0.000    0.000    0.000    0.000    0.000 
#    0.000    0.000    0.000    0.000    0.000    0.000 
#
# Total GULP energy -178659.518174 kJ/mol
# GULP energy per Si atom -5583.109943 kJ/mol
# Density = 2.416692 g / cm^3
# Si number density = 24.222047 Si / 1000 Ang^3
#
#
#
# Elastic Constant Matrix: (Units=GPa)
#
#
# Indices 1 2 3 4 5 6 
#
# 1 67.7043 28.8387 39.6845 0.0012 -15.6637 0.0006
# 2 28.8387 95.6013 50.8701 0.0007 -10.5302 0.0027
# 3 39.6845 50.8701 102.4927 -0.0006 -28.9741 0.0019
# 4 0.0012 0.0007 -0.0006 27.4006 -0.0010 -17.9171
# 5 -15.6637 -10.5302 -28.9741 -0.0010 43.2645 -0.0004
# 6 0.0006 0.0027 0.0019 -17.9171 -0.0004 34.9230
#
#
#
# Elastic Compliance Matrix: (Units=1/GPa)
#
#
# Indices 1 2 3 4 5 6 
#
# 1 0.019822 -0.002730 -0.005525 -0.000001 0.002812 0.000000
# 2 -0.002730 0.014676 -0.006780 -0.000001 -0.001957 -0.000001
# 3 -0.005525 -0.006780 0.017552 0.000001 0.008104 0.000000
# 4 -0.000001 -0.000001 0.000001 0.054920 0.000002 0.028176
# 5 0.002812 -0.001957 0.008104 0.000002 0.029083 0.000001
# 6 0.000000 -0.000001 0.000000 0.028176 0.000001 0.043090
#
#
# Mechanical properties :
#
#
# Convention : Reuss Voigt Hill
#
# Bulk Modulus (GPa) = 45.49668 56.06499 50.78084
# Shear Modulus (GPa) = 23.09040 30.87795 26.98418
#
# Velocity S-wave (km/s) = 3.09087 3.57429 3.34134
# Velocity P-wave (km/s) = 5.61800 6.34276 5.99135
#
# Compressibility (1/GPa) = 0.02197963
#
# Stress axis : x y z
#
# Youngs Moduli (GPa) = 50.44919 68.13910 56.97219
#
# Poissons Ratio (x) = 0.18600 0.31478
# Poissons Ratio (y) = 0.13771 0.38629
# Poissons Ratio (z) = 0.27874 0.46201
#
# Static dielectric constant tensor:
#      x y z
#    x 2.037850 0.000000 0.009250 
#    y 0.000000 1.931390 0.000000 
#    z 0.009250 0.000000 1.979090 
# 
# From -- ./inp_files/318615.got.cif
#   From: 2010.05.17/outbox.cif.g08.bks.cpg/sg15_160_cif.got.tgz:318615.got - 2010.06.03 18:47:42.
