data_PCOD9280449
_publ_section_title
;
Structure prediction by ZEFSAII (Michael W. Deem and Ramdas Pophale) SiO2 
 PCOD9280449
Probable space group: C 2/C
;
_chemical_formula_sum "Si O2"
_cell_formula_units_Z 48
_cell_length_a 5.142881
_cell_length_b 20.958036
_cell_length_c 23.098488
_cell_angle_alpha 90.000000
_cell_angle_beta 82.423004
_cell_angle_gamma 90.000000
_cell_volume 2467.924913
_symmetry_space_group_name_H-M "C 2/C"
_symmetry_group_IT_number 15
_symmetry_cell_setting 'monoclinic'
loop_
_space_group_symop_operation_xyz
x,y,z
-x,y,1/2-z
-x,-y,-z
x,-y,1/2+z
1/2+x,1/2+y,z
1/2-x,1/2+y,1/2-z
1/2-x,1/2-y,-z
1/2+x,1/2-y,1/2+z
loop_
_atom_site_type_symbol
_atom_site_label
_atom_site_fract_x
_atom_site_fract_y
_atom_site_fract_z
Si Si1 0.491169 0.049005 0.820179
Si Si2 0.561105 0.903536 0.679813
Si Si3 0.102823 0.841462 0.623904
Si Si4 0.783524 0.727960 0.594437
Si Si5 0.491790 0.369737 0.319650
Si Si6 0.929041 0.692005 0.017087
O O1 0.500000 0.044832 0.750000
O O2 0.760700 0.078699 0.833797
O O3 0.254791 0.098466 0.836676
O O4 0.458899 0.976550 0.841537
O O5 0.500000 0.903504 0.750000
O O6 0.338391 0.858515 0.659490
O O7 0.847636 0.879163 0.652941
O O8 0.231852 0.854832 0.556551
O O9 0.004711 0.768161 0.621956
O O10 0.591726 0.693069 0.643819
O O11 0.629425 0.779214 0.558866
O O12 0.906382 0.676934 0.545360
O O13 0.500000 0.357576 0.250000
O O14 0.750000 0.750000 0.000000
#
# Coordination Sequence:
#
# PCOD9280449 Si02
#       6
#     8   8   8   8   8   8
#     4   9  20  38  58  81 113 159 201 227 278 353
#     4  11  22  38  59  86 120 158 194 236 291 347
#     4  11  21  37  59  88 117 151 195 241 284 349
#     4  10  21  38  61  89 116 154 193 237 300 351
#     4  10  21  37  60  87 117 149 189 243 289 341
#     4   9  20  38  60  84 112 159 199 229 287 361
#
# _framework density 19.449539000000001
#
# number of rings (size 3 to 8) (size 9 to 14) (size 15 to 20)
#    0.000    2.000    1.667    1.500    4.667    3.333 
#    3.000    0.000    0.000    6.000    0.000    0.000 
#    0.000    0.000    0.000    0.000    0.000    0.000 
#
# Total GULP energy -133741.975337 kJ/mol
# GULP energy per Si atom -5572.582306 kJ/mol
# Density = 1.940527 g / cm^3
# Si number density = 19.449539 Si / 1000 Ang^3
#
#
#
# Elastic Constant Matrix: (Units=GPa)
#
#
# Indices 1 2 3 4 5 6 
#
# 1 80.9075 5.9028 28.9736 0.0000 -23.6037 0.0000
# 2 5.9028 50.8900 41.0174 0.0000 -16.4223 0.0000
# 3 28.9736 41.0174 79.1229 0.0000 -22.4459 0.0000
# 4 0.0000 0.0000 0.0000 -14.8986 0.0000 0.7337
# 5 -23.6037 -16.4223 -22.4459 0.0000 34.4934 0.0000
# 6 0.0000 0.0000 0.0000 0.7337 0.0000 17.4910
#
#
#
# Elastic Compliance Matrix: (Units=1/GPa)
#
#
# Indices 1 2 3 4 5 6 
#
# 1 0.017512 0.007133 -0.007049 0.000000 0.010793 0.000000
# 2 0.007133 0.037613 -0.019188 0.000000 0.010302 0.000000
# 3 -0.007049 -0.019188 0.026008 0.000000 0.002966 0.000000
# 4 0.000000 0.000000 0.000000 -0.066982 0.000000 0.002810
# 5 0.010793 0.010302 0.002966 0.000000 0.043211 0.000000
# 6 0.000000 0.000000 0.000000 0.002810 0.000000 0.057054
#
#
# Mechanical properties :
#
#
# Convention : Reuss Voigt Hill
#
# Bulk Modulus (GPa) = 23.29618 40.30087 31.79852
# Shear Modulus (GPa) = 29.95232 16.41896 23.18564
#
# Velocity S-wave (km/s) = 3.92854 2.90863 3.45641
# Velocity P-wave (km/s) = 5.70804 5.66091 5.68452
#
# Compressibility (1/GPa) = 0.04292549
#
# Stress axis : x y z
#
# Youngs Moduli (GPa) = 57.10313 26.58666 38.44981
#
# Poissons Ratio (x) = -0.18963 0.27102
# Poissons Ratio (y) = -0.40730 0.73777
# Poissons Ratio (z) = 0.40250 0.51014
#
# Static dielectric constant tensor:
#      x y z
#    x 1.731480 0.000000 -0.031090 
#    y 0.000000 1.681590 0.000000 
#    z -0.031090 0.000000 1.738110 
# 
# From -- ./inp_files/260676.got.cif
#   From: 2010.05.17/outbox.cif.g08.bks.cpg/sg15_131_cif.got.tgz:260676.got - 2010.06.03 18:47:42.
