data_PCOD9280366
_publ_section_title
;
Structure prediction by ZEFSAII (Michael W. Deem and Ramdas Pophale) SiO2 
 PCOD9280366
Probable space group: C 2/C
;
_chemical_formula_sum "Si O2"
_cell_formula_units_Z 44
_cell_length_a 26.136093
_cell_length_b 15.029557
_cell_length_c 5.049693
_cell_angle_alpha 90.000000
_cell_angle_beta 86.345671
_cell_angle_gamma 90.000000
_cell_volume 1979.556446
_symmetry_space_group_name_H-M "C 2/C"
_symmetry_group_IT_number 15
_symmetry_cell_setting 'monoclinic'
loop_
_space_group_symop_operation_xyz
x,y,z
-x,y,1/2-z
-x,-y,-z
x,-y,1/2+z
1/2+x,1/2+y,z
1/2-x,1/2+y,1/2-z
1/2-x,1/2-y,-z
1/2+x,1/2-y,1/2+z
loop_
_atom_site_type_symbol
_atom_site_label
_atom_site_fract_x
_atom_site_fract_y
_atom_site_fract_z
Si Si1 0.000000 0.937665 0.750000
Si Si2 0.671714 0.435821 0.869765
Si Si3 0.390876 0.137477 0.135084
Si Si4 0.089577 0.199969 0.211082
Si Si5 0.446614 0.883372 0.121322
Si Si6 0.210836 0.442105 0.621306
O O1 0.049070 0.876783 0.688760
O O2 0.000000 0.000000 0.500000
O O3 0.662211 0.490760 0.142409
O O4 0.637646 0.348762 0.829088
O O5 0.731609 0.408073 0.848498
O O6 0.433229 0.096856 0.322994
O O7 0.396632 0.241531 0.053507
O O8 0.402089 0.091644 0.846861
O O9 0.335796 0.120249 0.278219
O O10 0.060114 0.275868 0.387229
O O11 0.500000 0.904750 0.250000
O O12 0.206790 0.526820 0.820150
#
# Coordination Sequence:
#
# PCOD9280366 Si02
#       6
#     4   8   8   8   8   8
#     4  12  26  36  58  86 122 162 196 228 276 344
#     4  10  22  37  57  83 121 160 191 243 294 340
#     4  10  22  36  63  87 110 161 192 246 289 348
#     4  10  23  37  59  86 121 154 206 233 285 333
#     4  10  21  37  59  85 116 150 192 235 295 335
#     4  10  21  41  62  85 117 152 193 241 306 359
#
# _framework density 22.227202999999999
#
# number of rings (size 3 to 8) (size 9 to 14) (size 15 to 20)
#    1.091    0.727    0.909    2.727    5.091    0.727 
#    0.000    0.909    0.000   10.909    0.000    0.000 
#    0.000    0.000    0.000    0.000    0.000    0.000 
#
# Total GULP energy -122690.400128 kJ/mol
# GULP energy per Si atom -5576.836369 kJ/mol
# Density = 2.217661 g / cm^3
# Si number density = 22.227203 Si / 1000 Ang^3
#
#
#
# Elastic Constant Matrix: (Units=GPa)
#
#
# Indices 1 2 3 4 5 6 
#
# 1 113.6085 30.8777 -2.8908 0.0000 25.1112 0.0000
# 2 30.8777 90.5231 5.6370 0.0000 10.5246 0.0000
# 3 -2.8908 5.6370 96.5830 0.0000 20.6847 0.0000
# 4 0.0000 0.0000 0.0000 -35.3866 0.0000 1.7537
# 5 25.1112 10.5246 20.6847 0.0000 26.7451 0.0000
# 6 0.0000 0.0000 0.0000 1.7537 0.0000 40.5913
#
#
#
# Elastic Compliance Matrix: (Units=1/GPa)
#
#
# Indices 1 2 3 4 5 6 
#
# 1 0.012646 -0.002975 0.003409 0.000000 -0.013339 0.000000
# 2 -0.002975 0.012287 -0.000442 0.000000 -0.001700 0.000000
# 3 0.003409 -0.000442 0.013339 0.000000 -0.013343 0.000000
# 4 0.000000 0.000000 0.000000 -0.028199 0.000000 0.001218
# 5 -0.013339 -0.001700 -0.013343 0.000000 0.060903 0.000000
# 6 0.000000 0.000000 0.000000 0.001218 0.000000 0.024583
#
#
# Mechanical properties :
#
#
# Convention : Reuss Voigt Hill
#
# Bulk Modulus (GPa) = 26.13998 40.88473 33.51235
# Shear Modulus (GPa) = 46.15648 24.19602 35.17625
#
# Velocity S-wave (km/s) = 4.56189 3.30294 3.98248
# Velocity P-wave (km/s) = 6.28758 5.74280 6.02136
#
# Compressibility (1/GPa) = 0.03825558
#
# Stress axis : x y z
#
# Youngs Moduli (GPa) = 79.07742 81.38792 74.96661
#
# Poissons Ratio (x) = 0.24213 -0.25555
# Poissons Ratio (y) = 0.23525 0.03314
# Poissons Ratio (z) = -0.26957 0.03598
#
# Static dielectric constant tensor:
#      x y z
#    x 1.842420 0.000000 0.026680 
#    y 0.000000 1.817250 0.000000 
#    z 0.026680 0.000000 1.889060 
# 
# From -- ./inp_files/15351.got.cif
#   From: 2010.05.17/outbox.cif.g08.bks.cpg/sg15_8_cif.got.tgz:15351.got - 2010.06.03 18:47:42.
