data_PCOD9280187
_publ_section_title
;
Structure prediction by ZEFSAII (Michael W. Deem and Ramdas Pophale) SiO2 
 PCOD9280187
Probable space group: C 2/C
;
_chemical_formula_sum "Si O2"
_cell_formula_units_Z 40
_cell_length_a 13.880531
_cell_length_b 8.108431
_cell_length_c 14.280658
_cell_angle_alpha 90.000000
_cell_angle_beta 91.441645
_cell_angle_gamma 90.000000
_cell_volume 1606.769703
_symmetry_space_group_name_H-M "C 2/C"
_symmetry_group_IT_number 15
_symmetry_cell_setting 'monoclinic'
loop_
_space_group_symop_operation_xyz
x,y,z
-x,y,1/2-z
-x,-y,-z
x,-y,1/2+z
1/2+x,1/2+y,z
1/2-x,1/2+y,1/2-z
1/2-x,1/2-y,-z
1/2+x,1/2-y,1/2+z
loop_
_atom_site_type_symbol
_atom_site_label
_atom_site_fract_x
_atom_site_fract_y
_atom_site_fract_z
Si Si1 0.000000 0.245760 0.250000
Si Si2 0.623908 0.192136 0.596984
Si Si3 0.000000 0.754240 0.250000
Si Si4 0.123908 0.307864 0.596984
Si Si5 0.328343 0.814841 0.611231
Si Si6 0.328343 0.814841 0.111231
O O1 0.940882 0.189478 0.340618
O O2 0.907772 0.319266 0.193336
O O3 0.624327 0.233158 0.486954
O O4 0.735982 0.203581 0.629117
O O5 0.590331 0.000000 0.607150
O O6 0.940882 0.810522 0.340618
O O7 0.907772 0.680734 0.193337
O O8 0.235982 0.296419 0.629117
O O9 0.124327 0.266842 0.486955
O O10 0.290132 1.000000 0.595849
#
# Coordination Sequence:
#
# PCOD9280187 Si02
#       6
#     4   8   4   8   8   8
#     4  12  21  34  59  84 105 138 183 222 259 312
#     4  10  21  37  56  79 108 141 177 218 264 314
#     4  12  21  34  59  84 105 138 183 222 259 312
#     4  10  21  37  56  79 108 141 177 218 264 314
#     4  10  21  37  56  79 108 141 177 218 264 314
#     4  10  21  37  56  79 108 141 177 218 264 314
#
# _framework density 24.894667999999999
#
# number of rings (size 3 to 8) (size 9 to 14) (size 15 to 20)
#    0.000    1.600    0.000    6.000    0.000    3.200 
#    0.000    4.000    0.000    9.600    0.000    0.000 
#    0.000    0.000    0.000    0.000    0.000    0.000 
#
# Total GULP energy -111386.207119 kJ/mol
# GULP energy per Si atom -5569.310356 kJ/mol
# Density = 2.483801 g / cm^3
# Si number density = 24.894668 Si / 1000 Ang^3
#
#
#
# Elastic Constant Matrix: (Units=GPa)
#
#
# Indices 1 2 3 4 5 6 
#
# 1 99.6317 18.0071 58.8780 0.0000 -9.6057 0.0000
# 2 18.0071 61.0301 20.8910 0.0000 -11.9677 0.0000
# 3 58.8780 20.8910 126.8369 0.0000 -6.9221 0.0000
# 4 0.0000 0.0000 0.0000 -11.4216 0.0000 -0.3192
# 5 -9.6057 -11.9677 -6.9221 0.0000 70.0186 0.0000
# 6 0.0000 0.0000 0.0000 -0.3192 0.0000 -9.5228
#
#
#
# Elastic Compliance Matrix: (Units=1/GPa)
#
#
# Indices 1 2 3 4 5 6 
#
# 1 0.014133 -0.001849 -0.006201 0.000000 0.001010 0.000000
# 2 -0.001849 0.018129 -0.001983 0.000000 0.002649 0.000000
# 3 -0.006201 -0.001983 0.011084 0.000000 -0.000094 0.000000
# 4 0.000000 0.000000 0.000000 -0.087636 0.000000 0.002937
# 5 0.001010 0.002649 -0.000094 0.000000 0.014864 0.000000
# 6 0.000000 0.000000 0.000000 0.002937 0.000000 -0.105110
#
#
# Mechanical properties :
#
#
# Convention : Reuss Voigt Hill
#
# Bulk Modulus (GPa) = 42.95551 53.67233 48.31392
# Shear Modulus (GPa) = -46.85648 22.46302 -12.19673
#
# Velocity S-wave (km/s) = -4.34313 3.00713 -2.21585
# Velocity P-wave (km/s) = 2.80321 5.80204 3.59205
#
# Compressibility (1/GPa) = 0.02327990
#
# Stress axis : x y z
#
# Youngs Moduli (GPa) = 70.75636 55.15948 90.21943
#
# Poissons Ratio (x) = 0.10201 0.55944
# Poissons Ratio (y) = 0.13086 0.17890
# Poissons Ratio (z) = 0.43875 0.10938
#
# Static dielectric constant tensor:
#      x y z
#    x 1.912000 0.000000 -0.022070 
#    y 0.000000 1.945510 0.000000 
#    z -0.022070 0.000000 1.952480 
# 
# From -- ./inp_files/110759.got.cif
#   From: 2010.05.17/outbox.cif.g08.bks.cpg/sg15_56_cif.got.tgz:110759.got - 2010.06.03 18:47:42.
