data_PCOD9280373
_publ_section_title
;
Structure prediction by ZEFSAII (Michael W. Deem and Ramdas Pophale) SiO2 
 PCOD9280373
Probable space group: C 2/C
;
_chemical_formula_sum "Si O2"
_cell_formula_units_Z 56
_cell_length_a 15.229376
_cell_length_b 11.437129
_cell_length_c 18.154333
_cell_angle_alpha 90.000000
_cell_angle_beta 109.710928
_cell_angle_gamma 90.000000
_cell_volume 2976.846876
_symmetry_space_group_name_H-M "C 2/C"
_symmetry_group_IT_number 15
_symmetry_cell_setting 'monoclinic'
loop_
_space_group_symop_operation_xyz
x,y,z
-x,y,1/2-z
-x,-y,-z
x,-y,1/2+z
1/2+x,1/2+y,z
1/2-x,1/2+y,1/2-z
1/2-x,1/2-y,-z
1/2+x,1/2-y,1/2+z
loop_
_atom_site_type_symbol
_atom_site_label
_atom_site_fract_x
_atom_site_fract_y
_atom_site_fract_z
Si Si1 0.599579 0.026546 0.562758
Si Si2 0.477102 0.693663 0.826337
Si Si3 0.802024 0.478549 0.114301
Si Si4 0.586691 0.583486 0.548026
Si Si5 0.151634 0.690424 0.987111
Si Si6 0.411462 0.044085 0.276643
Si Si7 0.647323 0.202526 0.463528
O O1 0.592000 0.020275 0.647125
O O2 0.623686 0.152592 0.537235
O O3 0.500000 0.000000 0.500000
O O4 0.659759 0.917855 0.547162
O O5 0.500000 0.649866 0.750000
O O6 0.420892 0.612917 0.867048
O O7 0.571139 0.718928 0.900790
O O8 0.423781 0.817481 0.798306
O O9 0.691503 0.467523 0.065904
O O10 0.861781 0.371574 0.096059
O O11 0.822159 0.504721 0.204691
O O12 0.845242 0.589043 0.085263
O O13 0.500000 0.500000 0.500000
O O14 0.586649 0.707809 0.502911
O O15 0.250000 0.750000 0.000000
O O16 0.500000 0.016049 0.250000
O O17 0.750000 0.250000 0.500000
#
# Coordination Sequence:
#
# PCOD9280373 Si02
#       7
#     8   8   8   8   8   8   8
#     4  11  19  34  59  84 114 156 202 241 298 359
#     4  11  21  38  63  83 121 160 188 245 319 350
#     4  10  21  37  59  86 117 153 202 243 298 358
#     4  11  22  39  63  87 120 162 201 245 296 368
#     4   9  19  36  58  82 113 157 196 237 297 361
#     4  11  19  36  60  86 118 154 196 254 297 352
#     4  11  21  35  58  91 118 148 205 251 288 364
#
# _framework density 18.81185
#
# number of rings (size 3 to 8) (size 9 to 14) (size 15 to 20)
#    0.000    1.429    5.714    1.714    0.000    1.143 
#    0.000    0.000    0.000    0.000    0.000    0.000 
#    0.000    0.000    0.000    0.000    0.000    0.000 
#
# Total GULP energy -155900.929407 kJ/mol
# GULP energy per Si atom -5567.890336 kJ/mol
# Density = 1.876903 g / cm^3
# Si number density = 18.811850 Si / 1000 Ang^3
#
#
#
# Elastic Constant Matrix: (Units=GPa)
#
#
# Indices 1 2 3 4 5 6 
#
# 1 67.2123 12.3055 16.5187 0.0000 -10.3843 0.0000
# 2 12.3055 24.0855 16.0795 0.0000 -1.2915 0.0000
# 3 16.5187 16.0795 113.8831 0.0000 -18.6453 0.0000
# 4 0.0000 0.0000 0.0000 25.9326 0.0000 -3.3850
# 5 -10.3843 -1.2915 -18.6453 0.0000 38.2992 0.0000
# 6 0.0000 0.0000 0.0000 -3.3850 0.0000 39.9599
#
#
#
# Elastic Compliance Matrix: (Units=1/GPa)
#
#
# Indices 1 2 3 4 5 6 
#
# 1 0.017152 -0.008090 -0.000683 0.000000 0.004045 0.000000
# 2 -0.008090 0.049763 -0.006451 0.000000 -0.003656 0.000000
# 3 -0.000683 -0.006451 0.010567 0.000000 0.004742 0.000000
# 4 0.000000 0.000000 0.000000 0.038993 0.000000 0.003303
# 5 0.004045 -0.003656 0.004742 0.000000 0.029392 0.000000
# 6 0.000000 0.000000 0.000000 0.003303 0.000000 0.025305
#
#
# Mechanical properties :
#
#
# Convention : Reuss Voigt Hill
#
# Bulk Modulus (GPa) = 21.26176 32.77648 27.01912
# Shear Modulus (GPa) = 23.00973 31.52347 27.26660
#
# Velocity S-wave (km/s) = 3.50115 4.09800 3.81128
# Velocity P-wave (km/s) = 5.26032 6.31289 5.81049
#
# Compressibility (1/GPa) = 0.04703280
#
# Stress axis : x y z
#
# Youngs Moduli (GPa) = 58.30104 20.09531 94.63197
#
# Poissons Ratio (x) = 0.16257 0.06467
# Poissons Ratio (y) = 0.47167 0.61050
# Poissons Ratio (z) = 0.03984 0.12964
#
# Static dielectric constant tensor:
#      x y z
#    x 3.254990 0.000000 -0.550560 
#    y 0.000000 1.754610 0.000000 
#    z -0.550560 0.000000 2.041770 
# 
# From -- ./inp_files/204122.got.cif
#   From: 2010.05.17/outbox.cif.g08.bks.cpg/sg15_103_cif.got.tgz:204122.got - 2010.06.03 18:47:42.
