data_PCOD9280026
_publ_section_title
;
Structure prediction by ZEFSAII (Michael W. Deem and Ramdas Pophale) SiO2 
 PCOD9280026
Probable space group: C 2/C
;
_chemical_formula_sum "Si O2"
_cell_formula_units_Z 64
_cell_length_a 27.955029
_cell_length_b 15.691514
_cell_length_c 10.999806
_cell_angle_alpha 90.000000
_cell_angle_beta 146.724130
_cell_angle_gamma 90.000000
_cell_volume 2647.412690
_symmetry_space_group_name_H-M "C 2/C"
_symmetry_group_IT_number 15
_symmetry_cell_setting 'monoclinic'
loop_
_space_group_symop_operation_xyz
x,y,z
-x,y,1/2-z
-x,-y,-z
x,-y,1/2+z
1/2+x,1/2+y,z
1/2-x,1/2+y,1/2-z
1/2-x,1/2-y,-z
1/2+x,1/2-y,1/2+z
loop_
_atom_site_type_symbol
_atom_site_label
_atom_site_fract_x
_atom_site_fract_y
_atom_site_fract_z
Si Si1 0.240925 0.223259 0.658257
Si Si2 0.922489 0.682310 0.999064
Si Si3 0.109840 0.065194 0.344018
Si Si4 0.843707 0.479803 0.472525
Si Si5 0.408771 0.563255 0.918386
Si Si6 0.741844 0.845771 0.053823
Si Si7 0.516198 0.910591 0.102139
Si Si8 0.659635 0.866020 0.632639
O O1 0.331154 0.231541 0.775623
O O2 0.181931 0.141188 0.497029
O O3 0.286025 0.202816 0.884649
O O4 0.181124 0.302657 0.565884
O O5 0.894623 0.591287 0.003639
O O6 0.963043 0.657312 0.956582
O O7 0.000000 0.718952 0.250000
O O8 0.115837 0.001819 0.241953
O O9 0.108729 0.028651 0.481047
O O10 0.008347 0.093991 0.117956
O O11 0.797755 0.438789 0.489753
O O12 0.904932 0.557551 0.646127
O O13 0.789417 0.541721 0.269558
O O14 0.344785 0.642751 0.771741
O O15 0.705935 0.822067 0.848816
O O16 0.435515 0.878576 0.008365
O O17 0.500000 0.000000 0.000000
#
# Coordination Sequence:
#
# PCOD9280026 Si02
#       8
#     8   8   8   8   8   8   8   8
#     4  10  24  40  62  95 141 185 214 286 367 433
#     4  11  20  38  65  94 132 169 224 283 340 408
#     4   9  19  39  62  96 131 173 238 295 345 406
#     4  11  21  36  61  99 126 168 222 286 337 407
#     4   9  19  35  64  95 125 172 238 295 335 405
#     4  10  21  36  63  92 125 173 227 284 338 415
#     4  12  20  36  63  99 126 165 224 285 337 399
#     4  12  23  39  62  96 140 173 227 275 362 441
#
# _framework density 24.174545999999999
#
# number of rings (size 3 to 8) (size 9 to 14) (size 15 to 20)
#    0.000    1.500    3.750    1.500    7.000    0.000 
#    9.000    0.625    0.000    1.500    0.000    0.000 
#    0.000    0.000    0.000    0.000    0.000    0.000 
#
# Total GULP energy -178329.399622 kJ/mol
# GULP energy per Si atom -5572.793738 kJ/mol
# Density = 2.411952 g / cm^3
# Si number density = 24.174546 Si / 1000 Ang^3
#
#
#
# Elastic Constant Matrix: (Units=GPa)
#
#
# Indices 1 2 3 4 5 6 
#
# 1 136.9122 34.3432 35.5308 0.0000 6.2111 0.0000
# 2 34.3432 57.3553 9.7340 0.0000 1.2455 0.0000
# 3 35.5308 9.7340 78.5540 0.0000 10.0407 0.0000
# 4 0.0000 0.0000 0.0000 17.5714 0.0000 -4.6046
# 5 6.2111 1.2455 10.0407 0.0000 32.6383 0.0000
# 6 0.0000 0.0000 0.0000 -4.6046 0.0000 36.6511
#
#
#
# Elastic Compliance Matrix: (Units=1/GPa)
#
#
# Indices 1 2 3 4 5 6 
#
# 1 0.009543 -0.005089 -0.003621 0.000000 -0.000508 0.000000
# 2 -0.005089 0.020523 -0.000276 0.000000 0.000270 0.000000
# 3 -0.003621 -0.000276 0.014899 0.000000 -0.003884 0.000000
# 4 0.000000 0.000000 0.000000 0.058848 0.000000 0.007393
# 5 -0.000508 0.000270 -0.003884 0.000000 0.031920 0.000000
# 6 0.000000 0.000000 0.000000 0.007393 0.000000 0.028213
#
#
# Mechanical properties :
#
#
# Convention : Reuss Voigt Hill
#
# Bulk Modulus (GPa) = 37.04591 48.00415 42.52503
# Shear Modulus (GPa) = 26.18963 30.25305 28.22134
#
# Velocity S-wave (km/s) = 3.29501 3.54141 3.42043
# Velocity P-wave (km/s) = 5.46202 6.05166 5.76438
#
# Compressibility (1/GPa) = 0.02699354
#
# Stress axis : x y z
#
# Youngs Moduli (GPa) = 104.78736 48.72546 67.12073
#
# Poissons Ratio (x) = 0.24795 0.24304
# Poissons Ratio (y) = 0.53323 0.01852
# Poissons Ratio (z) = 0.37943 0.01345
#
# Static dielectric constant tensor:
#      x y z
#    x 1.786830 0.000000 0.570820 
#    y 0.000000 0.422290 0.000000 
#    z 0.570820 0.000000 -0.251730 
# 
# From -- ./inp_files/127321.got.cif
#   From: 2010.05.17/outbox.cif.g08.bks.cpg/sg15_64_cif.got.tgz:127321.got - 2010.06.03 18:47:42.
