data_PCOD9280542
_publ_section_title
;
Structure prediction by ZEFSAII (Michael W. Deem and Ramdas Pophale) SiO2 
 PCOD9280542
Probable space group: C 2/C
;
_chemical_formula_sum "Si O2"
_cell_formula_units_Z 40
_cell_length_a 9.218725
_cell_length_b 20.923630
_cell_length_c 19.230238
_cell_angle_alpha 90.000000
_cell_angle_beta 30.195067
_cell_angle_gamma 90.000000
_cell_volume 1865.578406
_symmetry_space_group_name_H-M "C 2/C"
_symmetry_group_IT_number 15
_symmetry_cell_setting 'monoclinic'
loop_
_space_group_symop_operation_xyz
x,y,z
-x,y,1/2-z
-x,-y,-z
x,-y,1/2+z
1/2+x,1/2+y,z
1/2-x,1/2+y,1/2-z
1/2-x,1/2-y,-z
1/2+x,1/2-y,1/2+z
loop_
_atom_site_type_symbol
_atom_site_label
_atom_site_fract_x
_atom_site_fract_y
_atom_site_fract_z
Si Si1 0.544445 0.164728 0.408516
Si Si2 0.124190 0.442639 0.622494
Si Si3 0.168944 0.678139 0.513090
Si Si4 0.928035 0.222667 0.704453
Si Si5 0.241473 0.414077 0.099065
O O1 0.532403 0.098679 0.371480
O O2 0.695529 0.163362 0.420802
O O3 0.661178 0.221940 0.311797
O O4 0.212978 0.187128 0.559780
O O5 0.465731 0.427679 0.480660
O O6 0.109029 0.519528 0.625117
O O7 0.000000 0.425598 0.750000
O O8 0.250000 0.750000 0.500000
O O9 0.323810 0.630341 0.500702
O O10 0.829747 0.674154 0.673522
O O11 0.000000 0.253038 0.750000
O O12 0.000000 0.384691 0.250000
#
# Coordination Sequence:
#
# PCOD9280542 Si02
#       5
#     8   8   8   8   8
#     4  10  21  37  61  86 115 159 197 251 294 358
#     4  10  22  41  66  88 118 162 206 242 301 367
#     4  11  25  36  56  91 122 156 198 251 302 351
#     4   9  20  37  57  85 118 158 196 235 305 360
#     4  10  23  42  63  89 121 161 200 252 302 357
#
# _framework density 21.44107
#
# number of rings (size 3 to 8) (size 9 to 14) (size 15 to 20)
#    0.000    2.000    0.000    1.800   14.000    0.800 
#    0.000    0.000    0.000    7.200    0.000    0.000 
#    0.000    0.000    0.000    0.000    0.000    0.000 
#
# Total GULP energy -111772.348005 kJ/mol
# GULP energy per Si atom -5588.617400 kJ/mol
# Density = 2.139227 g / cm^3
# Si number density = 21.441070 Si / 1000 Ang^3
#
#
#
# Elastic Constant Matrix: (Units=GPa)
#
#
# Indices 1 2 3 4 5 6 
#
# 1 86.7649 49.4905 5.4745 -0.0253 38.8344 0.0220
# 2 49.4905 84.4533 1.9878 -0.0139 35.4358 0.0108
# 3 5.4745 1.9878 81.5701 0.0294 11.2409 -0.0042
# 4 -0.0253 -0.0139 0.0294 17.1491 0.0059 8.9724
# 5 38.8344 35.4358 11.2409 0.0059 41.2029 -0.0062
# 6 0.0220 0.0108 -0.0042 8.9724 -0.0062 29.1248
#
#
#
# Elastic Compliance Matrix: (Units=1/GPa)
#
#
# Indices 1 2 3 4 5 6 
#
# 1 0.022094 -0.006472 0.000808 0.000048 -0.015478 -0.000032
# 2 -0.006472 0.020683 0.001601 0.000014 -0.012126 -0.000009
# 3 0.000808 0.001601 0.012948 -0.000021 -0.005671 0.000006
# 4 0.000048 0.000014 -0.000021 0.069517 -0.000065 -0.021416
# 5 -0.015478 -0.012126 -0.005671 -0.000065 0.050834 0.000046
# 6 -0.000032 -0.000009 0.000006 -0.021416 0.000046 0.040933
#
#
# Mechanical properties :
#
#
# Convention : Reuss Voigt Hill
#
# Bulk Modulus (GPa) = 21.00841 40.74378 30.87610
# Shear Modulus (GPa) = 20.74687 30.55106 25.64896
#
# Velocity S-wave (km/s) = 3.11404 3.77886 3.46244
# Velocity P-wave (km/s) = 4.76960 6.17119 5.51511
#
# Compressibility (1/GPa) = 0.04759998
#
# Stress axis : x y z
#
# Youngs Moduli (GPa) = 45.26195 48.34797 77.23405
#
# Poissons Ratio (x) = 0.31289 -0.06240
# Poissons Ratio (y) = 0.29291 -0.12367
# Poissons Ratio (z) = -0.03657 -0.07742
#
# Static dielectric constant tensor:
#      x y z
#    x 1.796880 -0.000010 -0.011940 
#    y -0.000010 1.757460 0.000010 
#    z -0.011940 0.000010 1.820570 
# 
# From -- ./inp_files/77623.got.cif
#   From: 2010.05.17/outbox.cif.g08.bks.cpg/sg15_39_cif.got.tgz:77623.got - 2010.06.03 18:47:42.
