data_PCOD9280313
_publ_section_title
;
Structure prediction by ZEFSAII (Michael W. Deem and Ramdas Pophale) SiO2 
 PCOD9280313
Probable space group: C 2/C
;
_chemical_formula_sum "Si O2"
_cell_formula_units_Z 56
_cell_length_a 16.805442
_cell_length_b 22.260156
_cell_length_c 11.169573
_cell_angle_alpha 90.000000
_cell_angle_beta 133.280126
_cell_angle_gamma 90.000000
_cell_volume 3041.952424
_symmetry_space_group_name_H-M "C 2/C"
_symmetry_group_IT_number 15
_symmetry_cell_setting 'monoclinic'
loop_
_space_group_symop_operation_xyz
x,y,z
-x,y,1/2-z
-x,-y,-z
x,-y,1/2+z
1/2+x,1/2+y,z
1/2-x,1/2+y,1/2-z
1/2-x,1/2-y,-z
1/2+x,1/2-y,1/2+z
loop_
_atom_site_type_symbol
_atom_site_label
_atom_site_fract_x
_atom_site_fract_y
_atom_site_fract_z
Si Si1 0.822462 0.474596 0.204682
Si Si2 0.741446 0.754761 0.184567
Si Si3 0.194313 0.534356 0.077010
Si Si4 0.393927 0.839956 0.299167
Si Si5 0.370365 0.329062 0.125911
Si Si6 0.371078 0.527863 0.624979
Si Si7 0.351797 0.168854 0.485022
O O1 0.861387 0.513603 0.357625
O O2 0.841079 0.405675 0.258097
O O3 0.867197 0.480492 0.113255
O O4 0.697316 0.495217 0.050942
O O5 0.645955 0.795773 0.139642
O O6 0.822974 0.798023 0.195977
O O7 0.801943 0.720866 0.354081
O O8 0.692124 0.704677 0.045559
O O9 0.309276 0.499857 0.176619
O O10 0.210842 0.605701 0.094644
O O11 0.524275 0.844649 0.428000
O O12 0.356131 0.816290 0.129954
O O13 0.500000 0.319209 0.250000
O O14 0.350995 0.400602 0.101886
O O15 0.500000 0.516863 0.750000
#
# Coordination Sequence:
#
# PCOD9280313 Si02
#       7
#     8   8   8   8   8   8   8
#     4   9  19  35  56  80 114 146 190 236 292 337
#     4  11  21  36  62  82 117 153 198 232 280 353
#     4   9  19  35  56  80 114 146 190 236 292 337
#     4  10  21  38  58  82 116 152 189 239 288 338
#     4  10  21  37  58  87 118 153 188 241 292 333
#     4   9  19  35  56  81 114 147 190 240 292 346
#     4  10  21  38  58  82 116 152 189 239 288 338
#
# _framework density 18.409229
#
# number of rings (size 3 to 8) (size 9 to 14) (size 15 to 20)
#    0.857    1.429    0.000    3.000    0.000    1.143 
#    0.000    2.857    0.000    0.000    0.000    0.000 
#    0.000    0.000    0.000    0.000    0.000    0.000 
#
# Total GULP energy -155924.097475 kJ/mol
# GULP energy per Si atom -5568.717767 kJ/mol
# Density = 1.836733 g / cm^3
# Si number density = 18.409229 Si / 1000 Ang^3
#
#
#
# Elastic Constant Matrix: (Units=GPa)
#
#
# Indices 1 2 3 4 5 6 
#
# 1 62.8767 24.9279 7.2286 0.0000 5.5799 0.0000
# 2 24.9279 51.6713 8.6151 0.0000 15.3242 0.0000
# 3 7.2286 8.6151 24.0134 0.0000 -1.7868 0.0000
# 4 0.0000 0.0000 0.0000 -17.5072 0.0000 28.9434
# 5 5.5799 15.3242 -1.7868 0.0000 33.7920 0.0000
# 6 0.0000 0.0000 0.0000 28.9434 0.0000 -8.0044
#
#
#
# Elastic Compliance Matrix: (Units=1/GPa)
#
#
# Indices 1 2 3 4 5 6 
#
# 1 0.019849 -0.009406 -0.002537 0.000000 0.000854 0.000000
# 2 -0.009406 0.028843 -0.008407 0.000000 -0.011971 0.000000
# 3 -0.002537 -0.008407 0.045919 0.000000 0.006659 0.000000
# 4 0.000000 0.000000 0.000000 0.011474 0.000000 0.041491
# 5 0.000854 -0.011971 0.006659 0.000000 0.035233 0.000000
# 6 0.000000 0.000000 0.000000 0.041491 0.000000 0.025097
#
#
# Mechanical properties :
#
#
# Convention : Reuss Voigt Hill
#
# Bulk Modulus (GPa) = 18.54925 24.45608 21.50266
# Shear Modulus (GPa) = 22.21382 8.17541 15.19461
#
# Velocity S-wave (km/s) = 3.47748 2.10964 2.87606
# Velocity P-wave (km/s) = 5.12072 4.38721 4.76809
#
# Compressibility (1/GPa) = 0.05391054
#
# Stress axis : x y z
#
# Youngs Moduli (GPa) = 50.38005 34.67058 21.77760
#
# Poissons Ratio (x) = 0.32611 0.05525
# Poissons Ratio (y) = 0.47388 0.18309
# Poissons Ratio (z) = 0.12781 0.29148
#
# Static dielectric constant tensor:
#      x y z
#    x 1.645260 0.000000 -0.029770 
#    y 0.000000 1.604000 0.000000 
#    z -0.029770 0.000000 1.633770 
# 
# From -- ./inp_files/106746.got.cif
#   From: 2010.05.17/outbox.cif.g08.bks.cpg/sg15_54_cif.got.tgz:106746.got - 2010.06.03 18:47:42.
