data_PCOD9280595
_publ_section_title
;
Structure prediction by ZEFSAII (Michael W. Deem and Ramdas Pophale) SiO2 
 PCOD9280595
Probable space group: C 2/C
;
_chemical_formula_sum "Si O2"
_cell_formula_units_Z 64
_cell_length_a 13.996355
_cell_length_b 31.700278
_cell_length_c 8.016109
_cell_angle_alpha 90.000000
_cell_angle_beta 131.316295
_cell_angle_gamma 90.000000
_cell_volume 2671.318973
_symmetry_space_group_name_H-M "C 2/C"
_symmetry_group_IT_number 15
_symmetry_cell_setting 'monoclinic'
loop_
_space_group_symop_operation_xyz
x,y,z
-x,y,1/2-z
-x,-y,-z
x,-y,1/2+z
1/2+x,1/2+y,z
1/2-x,1/2+y,1/2-z
1/2-x,1/2-y,-z
1/2+x,1/2-y,1/2+z
loop_
_atom_site_type_symbol
_atom_site_label
_atom_site_fract_x
_atom_site_fract_y
_atom_site_fract_z
Si Si1 0.560598 0.141188 0.000167
Si Si2 0.807850 0.626525 0.860692
Si Si3 0.647832 0.489883 0.694217
Si Si4 0.704627 0.406812 0.898008
Si Si5 0.082474 0.831223 0.627853
Si Si6 0.221420 0.283567 0.820018
Si Si7 0.813586 0.202194 0.904947
Si Si8 0.654103 0.431499 0.395141
O O1 0.500000 0.155199 0.750000
O O2 0.454582 0.117194 0.988428
O O3 0.672927 0.109848 0.066518
O O4 0.611854 0.180990 0.166728
O O5 0.727285 0.609349 0.610185
O O6 0.797072 0.676798 0.817230
O O7 0.737855 0.609069 0.943801
O O8 0.500000 0.500000 0.500000
O O9 0.673111 0.456047 0.869691
O O10 0.693576 0.460304 0.597279
O O11 0.694753 0.535871 0.794878
O O12 0.591631 0.380955 0.675280
O O13 0.153961 0.812424 0.553858
O O14 0.942469 0.814110 0.468845
O O15 0.161785 0.812076 0.876863
O O16 0.199704 0.251225 0.641226
O O17 0.250000 0.250000 0.000000
O O18 0.500000 0.424465 0.250000
#
# Coordination Sequence:
#
# PCOD9280595 Si02
#       8
#     8   8   8   8   8   8   8   8
#     4   9  21  42  71  95 127 182 227 273 329 407
#     4  10  21  40  65  95 124 167 224 273 324 392
#     4  10  21  37  61  92 128 170 204 258 327 391
#     4   9  19  40  66  94 129 165 219 269 324 393
#     4   9  21  39  61  89 120 174 221 267 324 395
#     4  11  24  40  61  94 131 169 217 281 337 391
#     4  10  22  37  62  88 122 174 220 273 323 396
#     4  10  22  38  59  93 129 169 207 263 327 392
#
# _framework density 23.958202
#
# number of rings (size 3 to 8) (size 9 to 14) (size 15 to 20)
#    0.000    2.250    0.000    1.875    7.000    3.500 
#    4.500    2.500    0.000    0.000    0.000    0.000 
#    0.000    0.000    0.000    0.000    0.000    0.000 
#
# Total GULP energy -178421.282290 kJ/mol
# GULP energy per Si atom -5575.665072 kJ/mol
# Density = 2.390367 g / cm^3
# Si number density = 23.958202 Si / 1000 Ang^3
#
#
#
# Elastic Constant Matrix: (Units=GPa)
#
#
# Indices 1 2 3 4 5 6 
#
# 1 115.1362 36.4539 25.8146 0.0000 1.2517 0.0000
# 2 36.4539 106.5372 25.8964 0.0000 8.3771 0.0000
# 3 25.8146 25.8964 68.3577 0.0000 -15.0180 0.0000
# 4 0.0000 0.0000 0.0000 38.5278 0.0000 -13.5980
# 5 1.2517 8.3771 -15.0180 0.0000 31.3687 0.0000
# 6 0.0000 0.0000 0.0000 -13.5980 0.0000 34.0103
#
#
#
# Elastic Compliance Matrix: (Units=1/GPa)
#
#
# Indices 1 2 3 4 5 6 
#
# 1 0.010238 -0.002649 -0.003126 0.000000 -0.001198 0.000000
# 2 -0.002649 0.011837 -0.004643 0.000000 -0.005278 0.000000
# 3 -0.003126 -0.004643 0.019969 0.000000 0.010925 0.000000
# 4 0.000000 0.000000 0.000000 0.030220 0.000000 0.012082
# 5 -0.001198 -0.005278 0.010925 0.000000 0.038567 0.000000
# 6 0.000000 0.000000 0.000000 0.012082 0.000000 0.034234
#
#
# Mechanical properties :
#
#
# Convention : Reuss Voigt Hill
#
# Bulk Modulus (GPa) = 47.15517 51.81788 49.48652
# Shear Modulus (GPa) = 28.90705 34.23912 31.57308
#
# Velocity S-wave (km/s) = 3.47733 3.78447 3.63415
# Velocity P-wave (km/s) = 5.98727 6.38527 6.18947
#
# Compressibility (1/GPa) = 0.02120658
#
# Stress axis : x y z
#
# Youngs Moduli (GPa) = 97.67552 84.48394 50.07882
#
# Poissons Ratio (x) = 0.22381 0.15653
# Poissons Ratio (y) = 0.25876 0.23253
# Poissons Ratio (z) = 0.30531 0.39228
#
# Static dielectric constant tensor:
#      x y z
#    x 2.000190 0.000000 -0.101920 
#    y 0.000000 2.158710 0.000000 
#    z -0.101920 0.000000 2.044050 
# 
# From -- ./inp_files/44863.got.cif
#   From: 2010.05.17/outbox.cif.g08.bks.cpg/sg15_23_cif.got.tgz:44863.got - 2010.06.03 18:47:42.
