data_PCOD9280384
_publ_section_title
;
Structure prediction by ZEFSAII (Michael W. Deem and Ramdas Pophale) SiO2 
 PCOD9280384
Probable space group: C 2/C
;
_chemical_formula_sum "Si O2"
_cell_formula_units_Z 40
_cell_length_a 8.939253
_cell_length_b 8.335504
_cell_length_c 23.580943
_cell_angle_alpha 90.000000
_cell_angle_beta 87.620967
_cell_angle_gamma 90.000000
_cell_volume 1755.576571
_symmetry_space_group_name_H-M "C 2/C"
_symmetry_group_IT_number 15
_symmetry_cell_setting 'monoclinic'
loop_
_space_group_symop_operation_xyz
x,y,z
-x,y,1/2-z
-x,-y,-z
x,-y,1/2+z
1/2+x,1/2+y,z
1/2-x,1/2+y,1/2-z
1/2-x,1/2-y,-z
1/2+x,1/2-y,1/2+z
loop_
_atom_site_type_symbol
_atom_site_label
_atom_site_fract_x
_atom_site_fract_y
_atom_site_fract_z
Si Si1 0.157257 0.250367 0.864707
Si Si2 0.147051 0.586034 0.933656
Si Si3 0.703134 0.096623 0.537673
Si Si4 0.817205 0.767616 0.331343
Si Si5 0.324330 0.594435 0.264553
O O1 0.159576 0.414947 0.901082
O O2 0.199918 0.107881 0.906929
O O3 0.273878 0.275781 0.812231
O O4 0.992695 0.234828 0.841630
O O5 0.229937 0.711303 0.891866
O O6 0.971048 0.617761 0.943543
O O7 0.215187 0.554655 0.995180
O O8 0.750000 0.250000 0.500000
O O9 0.763253 0.623866 0.292467
O O10 0.786648 0.925187 0.293888
O O11 0.500000 0.604221 0.250000
#
# Coordination Sequence:
#
# PCOD9280384 Si02
#       5
#     8   8   8   8   8
#     4  10  21  37  59  87 119 154 199 249 297 356
#     4   9  20  38  61  88 121 159 195 241 301 357
#     4   9  18  38  62  87 121 157 195 242 297 359
#     4  11  24  40  61  90 120 159 206 251 302 358
#     4  11  23  39  59  85 119 158 202 251 305 361
#
# _framework density 22.784537
#
# number of rings (size 3 to 8) (size 9 to 14) (size 15 to 20)
#    0.000    2.000    0.000    3.000    0.000    7.200 
#    0.000    9.000    0.000    0.000    0.000    0.000 
#    0.000    0.000    0.000    0.000    0.000    0.000 
#
# Total GULP energy -111879.982140 kJ/mol
# GULP energy per Si atom -5593.999107 kJ/mol
# Density = 2.273268 g / cm^3
# Si number density = 22.784537 Si / 1000 Ang^3
#
#
#
# Elastic Constant Matrix: (Units=GPa)
#
#
# Indices 1 2 3 4 5 6 
#
# 1 65.5263 5.5203 41.2133 0.0000 -16.1620 0.0000
# 2 5.5203 59.7237 36.8576 0.0000 -0.4208 0.0000
# 3 41.2133 36.8576 132.3990 0.0000 -9.8960 0.0000
# 4 0.0000 0.0000 0.0000 42.7776 0.0000 -0.3754
# 5 -16.1620 -0.4208 -9.8960 0.0000 56.4978 0.0000
# 6 0.0000 0.0000 0.0000 -0.3754 0.0000 24.4571
#
#
#
# Elastic Compliance Matrix: (Units=1/GPa)
#
#
# Indices 1 2 3 4 5 6 
#
# 1 0.020393 0.002233 -0.006619 0.000000 0.004691 0.000000
# 2 0.002233 0.020502 -0.006427 0.000000 -0.000334 0.000000
# 3 -0.006619 -0.006427 0.011407 0.000000 0.000057 0.000000
# 4 0.000000 0.000000 0.000000 0.023380 0.000000 0.000359
# 5 0.004691 -0.000334 0.000057 0.000000 0.019049 0.000000
# 6 0.000000 0.000000 0.000000 0.000359 0.000000 0.040893
#
#
# Mechanical properties :
#
#
# Convention : Reuss Voigt Hill
#
# Bulk Modulus (GPa) = 32.60029 47.20350 39.90189
# Shear Modulus (GPa) = 29.85513 36.35034 33.10273
#
# Velocity S-wave (km/s) = 3.62377 3.99857 3.81577
# Velocity P-wave (km/s) = 5.64341 6.48694 6.07982
#
# Compressibility (1/GPa) = 0.03067457
#
# Stress axis : x y z
#
# Youngs Moduli (GPa) = 49.03649 48.77678 87.66716
#
# Poissons Ratio (x) = -0.10891 0.58026
# Poissons Ratio (y) = -0.10949 0.56347
# Poissons Ratio (z) = 0.32457 0.31351
#
# Static dielectric constant tensor:
#      x y z
#    x 1.761330 0.000000 0.011040 
#    y 0.000000 1.873190 0.000000 
#    z 0.011040 0.000000 1.876880 
# 
# From -- ./inp_files/229792.got.cif
#   From: 2010.05.17/outbox.cif.g08.bks.cpg/sg15_115_cif.got.tgz:229792.got - 2010.06.03 18:47:42.
