data_PCOD9280700
_publ_section_title
;
Structure prediction by ZEFSAII (Michael W. Deem and Ramdas Pophale) SiO2 
 PCOD9280700
Probable space group: C 2/C
;
_chemical_formula_sum "Si O2"
_cell_formula_units_Z 60
_cell_length_a 12.006510
_cell_length_b 16.935325
_cell_length_c 21.171082
_cell_angle_alpha 90.000000
_cell_angle_beta 42.135644
_cell_angle_gamma 90.000000
_cell_volume 2888.041634
_symmetry_space_group_name_H-M "C 2/C"
_symmetry_group_IT_number 15
_symmetry_cell_setting 'monoclinic'
loop_
_space_group_symop_operation_xyz
x,y,z
-x,y,1/2-z
-x,-y,-z
x,-y,1/2+z
1/2+x,1/2+y,z
1/2-x,1/2+y,1/2-z
1/2-x,1/2-y,-z
1/2+x,1/2-y,1/2+z
loop_
_atom_site_type_symbol
_atom_site_label
_atom_site_fract_x
_atom_site_fract_y
_atom_site_fract_z
Si Si1 0.000000 0.362540 0.750000
Si Si2 0.537552 0.320524 0.419899
Si Si3 0.333522 0.834754 0.484216
Si Si4 0.722674 0.647304 0.276128
Si Si5 0.967536 0.635919 0.067015
Si Si6 0.093577 0.306473 0.277235
Si Si7 0.731190 0.072028 0.041539
Si Si8 0.439091 0.419958 0.962789
O O1 0.861179 0.319385 0.766592
O O2 0.894742 0.408350 0.847981
O O3 0.498635 0.227819 0.429236
O O4 0.717385 0.335117 0.312332
O O5 0.373582 0.364317 0.466198
O O6 0.561512 0.354635 0.481290
O O7 0.250000 0.750000 0.500000
O O8 0.418370 0.850943 0.515336
O O9 0.471724 0.854923 0.373495
O O10 0.179079 0.892066 0.543920
O O11 0.610758 0.720709 0.302449
O O12 0.621318 0.581225 0.356596
O O13 0.809489 0.614825 0.177006
O O14 0.112381 0.576903 0.029434
O O15 0.000000 0.299047 0.250000
O O16 0.846957 0.000569 0.018162
#
# Coordination Sequence:
#
# PCOD9280700 Si02
#       8
#     4   8   8   8   8   8   8   8
#     4  10  22  40  62  90 134 170 214 260 328 394
#     4  11  21  40  65  96 127 167 219 272 315 393
#     4  12  21  40  66  93 125 166 219 276 322 385
#     4  10  21  37  62  95 121 169 209 268 324 387
#     4  10  23  42  66  93 129 170 219 268 329 394
#     4  11  21  38  64  98 124 159 222 276 323 373
#     4  11  25  42  62  98 134 177 214 270 337 392
#     4  12  23  39  68  94 131 169 217 272 332 392
#
# _framework density 20.775324000000001
#
# number of rings (size 3 to 8) (size 9 to 14) (size 15 to 20)
#    0.000    1.067    5.333    1.600    0.000    1.600 
#    2.400    0.000    2.933    0.000    0.000    0.000 
#    0.000    0.000    0.000    0.000    0.000    0.000 
#
# Total GULP energy -167014.488877 kJ/mol
# GULP energy per Si atom -5567.149629 kJ/mol
# Density = 2.072804 g / cm^3
# Si number density = 20.775324 Si / 1000 Ang^3
#
#
#
# Elastic Constant Matrix: (Units=GPa)
#
#
# Indices 1 2 3 4 5 6 
#
# 1 123.6313 -4.5578 43.4372 0.0001 9.4642 -0.0001
# 2 -4.5578 22.4785 23.6600 0.0000 -0.9562 0.0000
# 3 43.4372 23.6600 110.9416 0.0002 -5.5093 -0.0001
# 4 0.0001 0.0000 0.0002 16.4213 -0.0001 -1.3918
# 5 9.4642 -0.9562 -5.5093 -0.0001 38.0046 0.0001
# 6 -0.0001 0.0000 -0.0001 -1.3918 0.0001 22.9109
#
#
#
# Elastic Compliance Matrix: (Units=1/GPa)
#
#
# Indices 1 2 3 4 5 6 
#
# 1 0.010872 0.008663 -0.006273 0.000000 -0.003399 0.000000
# 2 0.008663 0.064270 -0.017249 0.000000 -0.003041 0.000000
# 3 -0.006273 -0.017249 0.015315 0.000000 0.003348 0.000000
# 4 0.000000 0.000000 0.000000 0.061212 0.000000 0.003719
# 5 -0.003399 -0.003041 0.003348 0.000000 0.027568 0.000000
# 6 0.000000 0.000000 0.000000 0.003719 0.000000 0.043873
#
#
# Mechanical properties :
#
#
# Convention : Reuss Voigt Hill
#
# Bulk Modulus (GPa) = 16.46428 42.45889 29.46158
# Shear Modulus (GPa) = 18.31001 28.43481 23.37241
#
# Velocity S-wave (km/s) = 2.97195 3.70358 3.35775
# Velocity P-wave (km/s) = 4.44058 6.22658 5.40782
#
# Compressibility (1/GPa) = 0.06073754
#
# Stress axis : x y z
#
# Youngs Moduli (GPa) = 91.97863 15.55938 65.29651
#
# Poissons Ratio (x) = -0.13478 0.40960
# Poissons Ratio (y) = -0.79677 1.12631
# Poissons Ratio (z) = 0.57698 0.26839
#
# Static dielectric constant tensor:
#      x y z
#    x 1.779030 0.000000 -0.004930 
#    y 0.000000 1.871800 0.000000 
#    z -0.004930 0.000000 1.795650 
# 
# From -- ./inp_files/239957.got.cif
#   From: 2010.05.17/outbox.cif.g08.bks.cpg/sg15_120_cif.got.tgz:239957.got - 2010.06.03 18:47:42.
