data_PCOD9280610
_publ_section_title
;
Structure prediction by ZEFSAII (Michael W. Deem and Ramdas Pophale) SiO2 
 PCOD9280610
Probable space group: C 2/C
;
_chemical_formula_sum "Si O2"
_cell_formula_units_Z 40
_cell_length_a 22.839061
_cell_length_b 5.128973
_cell_length_c 14.026864
_cell_angle_alpha 90.000000
_cell_angle_beta 91.162545
_cell_angle_gamma 90.000000
_cell_volume 1642.781635
_symmetry_space_group_name_H-M "C 2/C"
_symmetry_group_IT_number 15
_symmetry_cell_setting 'monoclinic'
loop_
_space_group_symop_operation_xyz
x,y,z
-x,y,1/2-z
-x,-y,-z
x,-y,1/2+z
1/2+x,1/2+y,z
1/2-x,1/2+y,1/2-z
1/2-x,1/2-y,-z
1/2+x,1/2-y,1/2+z
loop_
_atom_site_type_symbol
_atom_site_label
_atom_site_fract_x
_atom_site_fract_y
_atom_site_fract_z
Si Si1 0.144070 0.572219 0.972524
Si Si2 0.620387 0.469467 0.139580
Si Si3 0.960749 0.249837 0.475522
Si Si4 0.335014 0.133760 0.206285
Si Si5 0.726221 0.135613 0.623556
O O1 0.148922 0.612253 0.859757
O O2 0.118250 0.783310 0.045553
O O3 0.099411 0.325266 0.972042
O O4 0.205350 0.499761 0.025582
O O5 0.568528 0.681150 0.127960
O O6 0.616866 0.296071 0.234488
O O7 0.682776 0.617154 0.135874
O O8 0.000000 0.500000 0.500000
O O9 0.000000 0.000000 0.500000
O O10 0.293933 0.306175 0.136882
O O11 0.292600 0.046899 0.290054
#
# Coordination Sequence:
#
# PCOD9280610 Si02
#       5
#     8   8   8   8   8
#     4  10  23  39  68  99 128 184 234 281 344 426
#     4  10  22  41  64  99 134 179 232 283 345 412
#     4  11  22  45  75  94 131 175 224 293 358 398
#     4  11  21  40  62  99 140 182 229 282 342 415
#     4  10  21  37  61  94 141 180 218 282 343 409
#
# _framework density 24.348945000000001
#
# number of rings (size 3 to 8) (size 9 to 14) (size 15 to 20)
#    0.000    1.600    4.000    0.600    0.000    4.000 
#    0.000    1.000    8.800    0.000    0.000    0.000 
#    0.000    0.000    0.000    0.000    0.000    0.000 
#
# Total GULP energy -111517.087338 kJ/mol
# GULP energy per Si atom -5575.854367 kJ/mol
# Density = 2.429353 g / cm^3
# Si number density = 24.348945 Si / 1000 Ang^3
#
#
#
# Elastic Constant Matrix: (Units=GPa)
#
#
# Indices 1 2 3 4 5 6 
#
# 1 94.3488 41.0866 37.2719 0.0000 35.1742 0.0000
# 2 41.0866 123.6394 32.5051 0.0000 25.9811 0.0000
# 3 37.2719 32.5051 124.9329 0.0000 22.5630 0.0000
# 4 0.0000 0.0000 0.0000 18.9368 0.0000 19.5273
# 5 35.1742 25.9811 22.5630 0.0000 21.8947 0.0000
# 6 0.0000 0.0000 0.0000 19.5273 0.0000 45.7148
#
#
#
# Elastic Compliance Matrix: (Units=1/GPa)
#
#
# Indices 1 2 3 4 5 6 
#
# 1 0.026438 0.000203 -0.000278 0.000000 -0.042427 0.000000
# 2 0.000203 0.010814 -0.000612 0.000000 -0.012528 0.000000
# 3 -0.000278 -0.000612 0.009872 0.000000 -0.009002 0.000000
# 4 0.000000 0.000000 0.000000 0.094379 0.000000 -0.040314
# 5 -0.042427 -0.012528 -0.009002 0.000000 0.137976 0.000000
# 6 0.000000 0.000000 0.000000 -0.040314 0.000000 0.039095
#
#
# Mechanical properties :
#
#
# Convention : Reuss Voigt Hill
#
# Bulk Modulus (GPa) = 21.85742 62.73869 42.29806
# Shear Modulus (GPa) = 14.91665 32.77975 23.84820
#
# Velocity S-wave (km/s) = 2.47780 3.67311 3.13299
# Velocity P-wave (km/s) = 4.14515 6.61902 5.52239
#
# Compressibility (1/GPa) = 0.04575105
#
# Stress axis : x y z
#
# Youngs Moduli (GPa) = 37.82505 92.47282 101.29730
#
# Poissons Ratio (x) = -0.01877 0.02813
# Poissons Ratio (y) = -0.00768 0.06195
# Poissons Ratio (z) = 0.01050 0.05655
#
# Static dielectric constant tensor:
#      x y z
#    x 1.944210 0.000000 0.008150 
#    y 0.000000 2.125490 0.000000 
#    z 0.008150 0.000000 2.013460 
# 
# From -- ./inp_files/120891.got.cif
#   From: 2010.05.17/outbox.cif.g08.bks.cpg/sg15_61_cif.got.tgz:120891.got - 2010.06.03 18:47:42.
