data_PCOD9280047
_publ_section_title
;
Structure prediction by ZEFSAII (Michael W. Deem and Ramdas Pophale) SiO2 
 PCOD9280047
Probable space group: C 2/C
;
_chemical_formula_sum "Si O2"
_cell_formula_units_Z 40
_cell_length_a 6.083597
_cell_length_b 14.205362
_cell_length_c 17.732495
_cell_angle_alpha 90.000000
_cell_angle_beta 85.206072
_cell_angle_gamma 90.000000
_cell_volume 1527.075966
_symmetry_space_group_name_H-M "C 2/C"
_symmetry_group_IT_number 15
_symmetry_cell_setting 'monoclinic'
loop_
_space_group_symop_operation_xyz
x,y,z
-x,y,1/2-z
-x,-y,-z
x,-y,1/2+z
1/2+x,1/2+y,z
1/2-x,1/2+y,1/2-z
1/2-x,1/2-y,-z
1/2+x,1/2-y,1/2+z
loop_
_atom_site_type_symbol
_atom_site_label
_atom_site_fract_x
_atom_site_fract_y
_atom_site_fract_z
Si Si1 0.417443 0.108008 0.378485
Si Si2 0.435574 0.257737 0.662757
Si Si3 0.717113 0.376311 0.534265
Si Si4 0.037420 0.048191 0.902913
Si Si5 0.162515 0.556414 0.815892
O O1 0.525327 0.134340 0.455520
O O2 0.303738 0.194161 0.340979
O O3 0.238595 0.024173 0.387392
O O4 0.617333 0.054185 0.331914
O O5 0.500000 0.267298 0.750000
O O6 0.588628 0.313470 0.599043
O O7 0.424075 0.149178 0.637634
O O8 0.653795 0.486683 0.550657
O O9 0.617636 0.366785 0.453299
O O10 0.922919 0.069460 0.826644
O O11 0.000000 0.569273 0.750000
#
# Coordination Sequence:
#
# PCOD9280047 Si02
#       5
#     8   8   8   8   8
#     4  10  21  36  64  82 117 162 198 248 315 356
#     4  10  23  39  58  89 122 156 205 253 299 366
#     4   9  19  37  60  89 120 155 203 251 303 366
#     4   9  19  37  60  89 120 155 203 251 303 366
#     4  10  23  39  58  89 122 156 205 253 299 366
#
# _framework density 26.193849
#
# number of rings (size 3 to 8) (size 9 to 14) (size 15 to 20)
#    0.000    2.400    0.000    0.600    8.400    4.000 
#    0.000    6.000    0.000    0.000    0.000    0.000 
#    0.000    0.000    0.000    0.000    0.000    0.000 
#
# Total GULP energy -111354.565591 kJ/mol
# GULP energy per Si atom -5567.728280 kJ/mol
# Density = 2.613423 g / cm^3
# Si number density = 26.193849 Si / 1000 Ang^3
#
#
#
# Elastic Constant Matrix: (Units=GPa)
#
#
# Indices 1 2 3 4 5 6 
#
# 1 69.5198 18.7407 60.9468 0.0000 51.3644 0.0000
# 2 18.7407 120.9618 22.7150 0.0000 1.4646 0.0000
# 3 60.9468 22.7150 150.7652 0.0000 47.2237 0.0000
# 4 0.0000 0.0000 0.0000 -0.1115 0.0000 -37.7443
# 5 51.3644 1.4646 47.2237 0.0000 58.4042 0.0000
# 6 0.0000 0.0000 0.0000 -37.7443 0.0000 -21.2937
#
#
#
# Elastic Compliance Matrix: (Units=1/GPa)
#
#
# Indices 1 2 3 4 5 6 
#
# 1 0.051593 -0.006069 -0.007737 0.000000 -0.038966 0.000000
# 2 -0.006069 0.009275 -0.000727 0.000000 0.005693 0.000000
# 3 -0.007737 -0.000727 0.010356 0.000000 -0.001551 0.000000
# 4 0.000000 0.000000 0.000000 0.014972 0.000000 -0.026538
# 5 -0.038966 0.005693 -0.001551 0.000000 0.052503 0.000000
# 6 0.000000 0.000000 0.000000 -0.026538 0.000000 0.000078
#
#
# Mechanical properties :
#
#
# Convention : Reuss Voigt Hill
#
# Bulk Modulus (GPa) = 23.72009 60.67244 42.19627
# Shear Modulus (GPa) = 27.48831 23.32275 25.40553
#
# Velocity S-wave (km/s) = 3.24299 2.98718 3.11771
# Velocity P-wave (km/s) = 4.80603 5.92544 5.39484
#
# Compressibility (1/GPa) = 0.04215835
#
# Stress axis : x y z
#
# Youngs Moduli (GPa) = 19.38234 107.81750 96.56432
#
# Poissons Ratio (x) = 0.65431 0.74711
# Poissons Ratio (y) = 0.11763 0.07022
# Poissons Ratio (z) = 0.14996 0.07841
#
# Static dielectric constant tensor:
#      x y z
#    x 2.149120 0.000000 -0.005120 
#    y 0.000000 2.024200 0.000000 
#    z -0.005120 0.000000 2.384750 
# 
# From -- ./inp_files/184265.got.cif
#   From: 2010.05.17/outbox.cif.g08.bks.cpg/sg15_93_cif.got.tgz:184265.got - 2010.06.03 18:47:42.
