data_PCOD9280822
_publ_section_title
;
Structure prediction by ZEFSAII (Michael W. Deem and Ramdas Pophale) SiO2 
 PCOD9280822
Probable space group: C 2/C
;
_chemical_formula_sum "Si O2"
_cell_formula_units_Z 44
_cell_length_a 11.393673
_cell_length_b 14.707075
_cell_length_c 11.540399
_cell_angle_alpha 90.000000
_cell_angle_beta 85.368753
_cell_angle_gamma 90.000000
_cell_volume 1927.483141
_symmetry_space_group_name_H-M "C 2/C"
_symmetry_group_IT_number 15
_symmetry_cell_setting 'monoclinic'
loop_
_space_group_symop_operation_xyz
x,y,z
-x,y,1/2-z
-x,-y,-z
x,-y,1/2+z
1/2+x,1/2+y,z
1/2-x,1/2+y,1/2-z
1/2-x,1/2-y,-z
1/2+x,1/2-y,1/2+z
loop_
_atom_site_type_symbol
_atom_site_label
_atom_site_fract_x
_atom_site_fract_y
_atom_site_fract_z
Si Si1 0.387618 0.931225 0.397047
Si Si2 0.684810 0.436615 0.239913
Si Si3 0.552412 0.735722 0.121257
Si Si4 0.479777 0.595720 0.938149
Si Si5 0.770529 0.380299 0.641609
Si Si6 0.500000 0.089846 0.250000
O O1 0.306812 0.911900 0.290372
O O2 0.465161 0.841454 0.404015
O O3 0.309768 0.931146 0.519641
O O4 0.455402 0.022630 0.356979
O O5 0.643518 0.399405 0.119698
O O6 0.584551 0.405226 0.336315
O O7 0.694584 0.545849 0.220014
O O8 0.500000 0.714913 0.250000
O O9 0.689429 0.704796 0.116573
O O10 0.494428 0.675252 0.027654
O O11 0.500000 0.500000 0.000000
O O12 0.887716 0.358221 0.706412
#
# Coordination Sequence:
#
# PCOD9280822 Si02
#       6
#     8   8   8   8   8   4
#     4  11  22  44  63  94 132 175 218 275 333 382
#     4  10  21  37  64  93 125 167 217 267 318 394
#     4  12  24  41  66  97 136 172 214 275 337 388
#     4  11  20  37  62  97 129 166 213 267 333 390
#     4  11  22  40  69  92 127 175 223 265 322 393
#     4  10  24  44  68  92 128 180 228 268 314 402
#
# _framework density 22.827698000000002
#
# number of rings (size 3 to 8) (size 9 to 14) (size 15 to 20)
#    0.000    1.091    4.545    2.182    0.000    1.455 
#    3.273    0.909    0.000    0.000    0.000    0.000 
#    0.000    0.000    0.000    0.000    0.000    0.000 
#
# Total GULP energy -123002.562839 kJ/mol
# GULP energy per Si atom -5591.025584 kJ/mol
# Density = 2.277574 g / cm^3
# Si number density = 22.827698 Si / 1000 Ang^3
#
#
#
# Elastic Constant Matrix: (Units=GPa)
#
#
# Indices 1 2 3 4 5 6 
#
# 1 72.8381 1.4640 11.4514 0.0000 24.1359 0.0000
# 2 1.4640 38.2108 18.2255 0.0000 10.2282 0.0000
# 3 11.4514 18.2255 93.7363 0.0000 0.9087 0.0000
# 4 0.0000 0.0000 0.0000 25.0138 0.0000 1.2864
# 5 24.1359 10.2282 0.9087 0.0000 51.1327 0.0000
# 6 0.0000 0.0000 0.0000 1.2864 0.0000 19.4107
#
#
#
# Elastic Compliance Matrix: (Units=1/GPa)
#
#
# Indices 1 2 3 4 5 6 
#
# 1 0.016884 0.002833 -0.002531 0.000000 -0.008491 0.000000
# 2 0.002833 0.031065 -0.006314 0.000000 -0.007439 0.000000
# 3 -0.002531 -0.006314 0.012183 0.000000 0.002241 0.000000
# 4 0.000000 0.000000 0.000000 0.040115 0.000000 -0.002658
# 5 -0.008491 -0.007439 0.002241 0.000000 0.025013 0.000000
# 6 0.000000 0.000000 0.000000 -0.002658 0.000000 0.051694
#
#
# Mechanical properties :
#
#
# Convention : Reuss Voigt Hill
#
# Bulk Modulus (GPa) = 20.78638 29.67409 25.23023
# Shear Modulus (GPa) = 24.38853 30.68774 27.53814
#
# Velocity S-wave (km/s) = 3.27215 3.67048 3.47702
# Velocity P-wave (km/s) = 4.83751 5.56692 5.21498
#
# Compressibility (1/GPa) = 0.04810843
#
# Stress axis : x y z
#
# Youngs Moduli (GPa) = 59.22832 32.19053 82.07893
#
# Poissons Ratio (x) = -0.09121 0.20776
# Poissons Ratio (y) = -0.16782 0.51826
# Poissons Ratio (z) = 0.14992 0.20325
#
# Static dielectric constant tensor:
#      x y z
#    x 1.867690 0.000000 -0.000620 
#    y 0.000000 1.847670 0.000000 
#    z -0.000620 0.000000 1.858490 
# 
# From -- ./inp_files/86086.got.cif
#   From: 2010.05.17/outbox.cif.g08.bks.cpg/sg15_44_cif.got.tgz:86086.got - 2010.06.03 18:47:42.
