data_PCOD9280655
_publ_section_title
;
Structure prediction by ZEFSAII (Michael W. Deem and Ramdas Pophale) SiO2 
 PCOD9280655
Probable space group: C 2/C
;
_chemical_formula_sum "Si O2"
_cell_formula_units_Z 48
_cell_length_a 19.564328
_cell_length_b 16.817977
_cell_length_c 16.134621
_cell_angle_alpha 90.000000
_cell_angle_beta 151.191861
_cell_angle_gamma 90.000000
_cell_volume 2558.201167
_symmetry_space_group_name_H-M "C 2/C"
_symmetry_group_IT_number 15
_symmetry_cell_setting 'monoclinic'
loop_
_space_group_symop_operation_xyz
x,y,z
-x,y,1/2-z
-x,-y,-z
x,-y,1/2+z
1/2+x,1/2+y,z
1/2-x,1/2+y,1/2-z
1/2-x,1/2-y,-z
1/2+x,1/2-y,1/2+z
loop_
_atom_site_type_symbol
_atom_site_label
_atom_site_fract_x
_atom_site_fract_y
_atom_site_fract_z
Si Si1 0.427140 0.870188 0.867323
Si Si2 0.664814 0.831260 0.906941
Si Si3 0.708286 0.409492 0.778157
Si Si4 0.436939 0.703555 0.963598
Si Si5 0.263879 0.086223 0.849089
Si Si6 0.355229 0.207750 0.547901
O O1 0.339351 0.868181 0.688721
O O2 0.322807 0.900754 0.826814
O O3 0.467973 0.780108 0.938665
O O4 0.573212 0.917835 0.009846
O O5 0.500000 0.814243 0.750000
O O6 0.750000 0.750000 0.000000
O O7 0.724031 0.886083 0.042943
O O8 0.573137 0.353332 0.618067
O O9 0.682104 0.502901 0.757961
O O10 0.783768 0.372725 0.939090
O O11 0.315653 0.652126 0.790247
O O12 0.387356 0.738158 0.000326
O O13 0.500000 0.192301 0.750000
O O14 0.250000 0.250000 0.500000
#
# Coordination Sequence:
#
# PCOD9280655 Si02
#       6
#     8   8   8   8   8   8
#     4  10  21  39  64  89 119 164 209 243 303 371
#     4  10  21  37  62  88 120 160 205 243 293 364
#     4  11  24  40  62  93 124 157 202 258 315 354
#     4  11  22  40  66  89 123 164 202 250 306 371
#     4  11  23  40  60  93 128 157 201 258 308 360
#     4  11  23  43  67  89 120 162 213 251 298 374
#
# _framework density 18.763183999999999
#
# number of rings (size 3 to 8) (size 9 to 14) (size 15 to 20)
#    0.000    1.333    3.333    3.000    4.667    2.000 
#    3.000    0.000    0.000    0.000    0.000    0.000 
#    0.000    0.000    0.000    0.000    0.000    0.000 
#
# Total GULP energy -134030.901310 kJ/mol
# GULP energy per Si atom -5584.620888 kJ/mol
# Density = 1.872048 g / cm^3
# Si number density = 18.763184 Si / 1000 Ang^3
#
#
#
# Elastic Constant Matrix: (Units=GPa)
#
#
# Indices 1 2 3 4 5 6 
#
# 1 74.3751 13.6609 8.6878 0.0000 -18.2510 0.0000
# 2 13.6609 82.6374 13.2741 0.0000 -6.0318 0.0000
# 3 8.6878 13.2741 92.3446 0.0000 -21.4285 0.0000
# 4 0.0000 0.0000 0.0000 21.7214 0.0000 5.9180
# 5 -18.2510 -6.0318 -21.4285 0.0000 26.2729 0.0000
# 6 0.0000 0.0000 0.0000 5.9180 0.0000 14.8973
#
#
#
# Elastic Compliance Matrix: (Units=1/GPa)
#
#
# Indices 1 2 3 4 5 6 
#
# 1 0.016695 -0.002112 0.001618 0.000000 0.012432 0.000000
# 2 -0.002112 0.012717 -0.001594 0.000000 0.000152 0.000000
# 3 0.001618 -0.001594 0.013669 0.000000 0.011906 0.000000
# 4 0.000000 0.000000 0.000000 0.051625 0.000000 -0.020508
# 5 0.012432 0.000152 0.011906 0.000000 0.056444 0.000000
# 6 0.000000 0.000000 0.000000 -0.020508 0.000000 0.075273
#
#
# Mechanical properties :
#
#
# Convention : Reuss Voigt Hill
#
# Bulk Modulus (GPa) = 25.70412 35.62253 30.66332
# Shear Modulus (GPa) = 20.52813 26.82729 23.67771
#
# Velocity S-wave (km/s) = 3.31125 3.78535 3.55621
# Velocity P-wave (km/s) = 5.32430 6.17509 5.76541
#
# Compressibility (1/GPa) = 0.03890427
#
# Stress axis : x y z
#
# Youngs Moduli (GPa) = 59.89776 78.63235 73.15949
#
# Poissons Ratio (x) = 0.16610 -0.11836
# Poissons Ratio (y) = 0.12652 0.11662
# Poissons Ratio (z) = -0.09690 0.12534
#
# Static dielectric constant tensor:
#      x y z
#    x 1.688270 0.000000 -0.011890 
#    y 0.000000 1.640000 0.000000 
#    z -0.011890 0.000000 1.645960 
# 
# From -- ./inp_files/56788.got.cif
#   From: 2010.05.17/outbox.cif.g08.bks.cpg/sg15_29_cif.got.tgz:56788.got - 2010.06.03 18:47:42.
