data_PCOD9280466
_publ_section_title
;
Structure prediction by ZEFSAII (Michael W. Deem and Ramdas Pophale) SiO2 
 PCOD9280466
Probable space group: C 2/C
;
_chemical_formula_sum "Si O2"
_cell_formula_units_Z 48
_cell_length_a 12.355090
_cell_length_b 9.679686
_cell_length_c 27.086554
_cell_angle_alpha 90.000000
_cell_angle_beta 43.669665
_cell_angle_gamma 90.000000
_cell_volume 2236.785479
_symmetry_space_group_name_H-M "C 2/C"
_symmetry_group_IT_number 15
_symmetry_cell_setting 'monoclinic'
loop_
_space_group_symop_operation_xyz
x,y,z
-x,y,1/2-z
-x,-y,-z
x,-y,1/2+z
1/2+x,1/2+y,z
1/2-x,1/2+y,1/2-z
1/2-x,1/2-y,-z
1/2+x,1/2-y,1/2+z
loop_
_atom_site_type_symbol
_atom_site_label
_atom_site_fract_x
_atom_site_fract_y
_atom_site_fract_z
Si Si1 0.485996 0.988480 0.195579
Si Si2 0.685154 0.007770 0.939517
Si Si3 0.357915 0.613334 0.970166
Si Si4 0.357295 0.480505 0.670184
Si Si5 0.573352 0.694828 0.171353
Si Si6 0.243310 0.822999 0.895622
O O1 0.500000 0.991948 0.250000
O O2 0.575702 0.850380 0.150019
O O3 0.300668 0.975451 0.249146
O O4 0.581606 0.123197 0.148150
O O5 0.756167 0.004018 0.971786
O O6 0.734602 0.157414 0.901224
O O7 0.761596 0.882771 0.884266
O O8 0.500000 0.000000 0.000000
O O9 0.530754 0.600268 0.889274
O O10 0.250000 0.750000 0.000000
O O11 0.365333 0.607512 0.026607
O O12 0.460752 0.394957 0.674094
O O13 0.306580 0.383334 0.640865
O O14 0.500000 0.698432 0.250000
#
# Coordination Sequence:
#
# PCOD9280466 Si02
#       6
#     8   8   8   8   8   8
#     4   9  21  39  59  84 117 153 193 236 287 346
#     4  10  23  40  59  87 118 150 193 240 290 346
#     4   9  20  37  58  85 118 152 187 233 290 343
#     4  10  21  37  60  89 115 151 201 240 282 347
#     4  10  23  39  57  84 118 152 190 239 293 343
#     4  10  21  38  61  85 114 154 194 238 286 345
#
# _framework density 21.459367
#
# number of rings (size 3 to 8) (size 9 to 14) (size 15 to 20)
#    0.000    2.333    0.000    0.500    0.000   19.333 
#    0.000    3.333    0.000    0.000    0.000    0.000 
#    0.000    0.000    0.000    0.000    0.000    0.000 
#
# Total GULP energy -133758.730907 kJ/mol
# GULP energy per Si atom -5573.280454 kJ/mol
# Density = 2.141052 g / cm^3
# Si number density = 21.459367 Si / 1000 Ang^3
#
#
#
# Elastic Constant Matrix: (Units=GPa)
#
#
# Indices 1 2 3 4 5 6 
#
# 1 54.9659 13.9224 25.1632 0.0000 -16.8632 0.0000
# 2 13.9224 110.5799 61.8073 0.0000 -28.6590 0.0000
# 3 25.1632 61.8073 91.4910 0.0000 -32.8087 0.0000
# 4 0.0000 0.0000 0.0000 30.1039 0.0000 -2.0424
# 5 -16.8632 -28.6590 -32.8087 0.0000 52.7793 0.0000
# 6 0.0000 0.0000 0.0000 -2.0424 0.0000 21.8448
#
#
#
# Elastic Compliance Matrix: (Units=1/GPa)
#
#
# Indices 1 2 3 4 5 6 
#
# 1 0.021612 0.001377 -0.005314 0.000000 0.004349 0.000000
# 2 0.001377 0.014838 -0.009465 0.000000 0.002613 0.000000
# 3 -0.005314 -0.009465 0.021020 0.000000 0.006229 0.000000
# 4 0.000000 0.000000 0.000000 0.033430 0.000000 0.003126
# 5 0.004349 0.002613 0.006229 0.000000 0.025627 0.000000
# 6 0.000000 0.000000 0.000000 0.003126 0.000000 0.046070
#
#
# Mechanical properties :
#
#
# Convention : Reuss Voigt Hill
#
# Bulk Modulus (GPa) = 32.61306 50.98026 41.79666
# Shear Modulus (GPa) = 25.04727 31.35520 28.20123
#
# Velocity S-wave (km/s) = 3.42013 3.82664 3.62908
# Velocity P-wave (km/s) = 5.55220 6.58274 6.08931
#
# Compressibility (1/GPa) = 0.03066256
#
# Stress axis : x y z
#
# Youngs Moduli (GPa) = 46.27153 67.39652 47.57469
#
# Poissons Ratio (x) = -0.09277 0.25283
# Poissons Ratio (y) = -0.06369 0.45031
# Poissons Ratio (z) = 0.24590 0.63793
#
# Static dielectric constant tensor:
#      x y z
#    x 1.806190 0.000000 0.137850 
#    y 0.000000 1.807430 0.000000 
#    z 0.137850 0.000000 0.465650 
# 
# From -- ./inp_files/312793.got.cif
#   From: 2010.05.17/outbox.cif.g08.bks.cpg/sg15_157_cif.got.tgz:312793.got - 2010.06.03 18:47:42.
