data_PCOD9280770
_publ_section_title
;
Structure prediction by ZEFSAII (Michael W. Deem and Ramdas Pophale) SiO2 
 PCOD9280770
Probable space group: C 2/C
;
_chemical_formula_sum "Si O2"
_cell_formula_units_Z 48
_cell_length_a 14.490927
_cell_length_b 12.563735
_cell_length_c 20.595159
_cell_angle_alpha 90.000000
_cell_angle_beta 38.627311
_cell_angle_gamma 90.000000
_cell_volume 2340.669322
_symmetry_space_group_name_H-M "C 2/C"
_symmetry_group_IT_number 15
_symmetry_cell_setting 'monoclinic'
loop_
_space_group_symop_operation_xyz
x,y,z
-x,y,1/2-z
-x,-y,-z
x,-y,1/2+z
1/2+x,1/2+y,z
1/2-x,1/2+y,1/2-z
1/2-x,1/2-y,-z
1/2+x,1/2-y,1/2+z
loop_
_atom_site_type_symbol
_atom_site_label
_atom_site_fract_x
_atom_site_fract_y
_atom_site_fract_z
Si Si1 0.537256 0.886578 0.334692
Si Si2 0.573998 0.121083 0.069781
Si Si3 0.596133 0.433090 0.997541
Si Si4 0.522534 0.232497 0.970889
Si Si5 0.730399 0.134509 0.602204
Si Si6 0.078553 0.159964 0.639228
O O1 0.582254 0.831016 0.376782
O O2 0.392475 0.830939 0.382025
O O3 0.659508 0.875106 0.212262
O O4 0.493466 0.008996 0.371809
O O5 0.562208 0.215222 0.129673
O O6 0.491539 0.157139 0.049076
O O7 0.748767 0.125147 0.954727
O O8 0.629963 0.323504 0.941575
O O9 0.726483 0.513972 0.940772
O O10 0.500000 0.500000 0.000000
O O11 0.519064 0.401193 0.107486
O O12 0.373606 0.291832 0.029399
O O13 0.000000 0.135961 0.750000
#
# Coordination Sequence:
#
# PCOD9280770 Si02
#       6
#     8   8   8   8   8   8
#     4  11  22  38  63  86 121 162 205 255 308 368
#     4  10  22  37  60  92 124 156 203 261 304 358
#     4   9  19  39  62  86 123 162 202 255 303 367
#     4  10  22  39  59  88 124 158 204 258 302 366
#     4  10  22  39  62  85 119 169 204 245 315 367
#     4  10  21  37  63  94 124 160 207 253 309 368
#
# _framework density 20.506955000000001
#
# number of rings (size 3 to 8) (size 9 to 14) (size 15 to 20)
#    0.000    2.000    1.667    1.000    2.333    5.333 
#    0.000    3.333    0.000    0.000    0.000    0.000 
#    0.000    0.000    0.000    0.000    0.000    0.000 
#
# Total GULP energy -133857.926574 kJ/mol
# GULP energy per Si atom -5577.413607 kJ/mol
# Density = 2.046028 g / cm^3
# Si number density = 20.506955 Si / 1000 Ang^3
#
#
#
# Elastic Constant Matrix: (Units=GPa)
#
#
# Indices 1 2 3 4 5 6 
#
# 1 67.1216 29.4882 27.1095 0.0000 35.0996 0.0000
# 2 29.4882 62.0007 37.1040 0.0000 22.0962 0.0000
# 3 27.1095 37.1040 85.4967 -0.0001 32.4370 0.0000
# 4 0.0000 0.0000 -0.0001 18.8143 0.0000 10.6861
# 5 35.0996 22.0962 32.4370 0.0000 31.2270 0.0000
# 6 0.0000 0.0000 0.0000 10.6861 0.0000 22.8198
#
#
#
# Elastic Compliance Matrix: (Units=1/GPa)
#
#
# Indices 1 2 3 4 5 6 
#
# 1 0.040388 -0.006848 0.009161 0.000000 -0.050066 0.000000
# 2 -0.006848 0.024691 -0.007981 0.000000 -0.001483 0.000000
# 3 0.009161 -0.007981 0.023138 0.000000 -0.028683 0.000000
# 4 0.000000 0.000000 0.000000 0.072410 -0.000001 -0.033908
# 5 -0.050066 -0.001483 -0.028683 -0.000001 0.119143 0.000000
# 6 0.000000 0.000000 0.000000 -0.033908 0.000000 0.059700
#
#
# Mechanical properties :
#
#
# Convention : Reuss Voigt Hill
#
# Bulk Modulus (GPa) = 13.00743 44.66915 28.83829
# Shear Modulus (GPa) = 13.28255 22.63339 17.95797
#
# Velocity S-wave (km/s) = 2.54777 3.32579 2.96244
# Velocity P-wave (km/s) = 3.87448 6.04794 5.07884
#
# Compressibility (1/GPa) = 0.07687914
#
# Stress axis : x y z
#
# Youngs Moduli (GPa) = 24.75980 40.50082 43.21956
#
# Poissons Ratio (x) = 0.27735 -0.39591
# Poissons Ratio (y) = 0.16956 0.34494
# Poissons Ratio (z) = -0.22681 0.32324
#
# Static dielectric constant tensor:
#      x y z
#    x 1.813740 0.000000 -0.033290 
#    y 0.000000 1.749030 0.000000 
#    z -0.033290 0.000000 1.686270 
# 
# From -- ./inp_files/126920.got.cif
#   From: 2010.05.17/outbox.cif.g08.bks.cpg/sg15_64_cif.got.tgz:126920.got - 2010.06.03 18:47:42.
