data_PCOD9280200
_publ_section_title
;
Structure prediction by ZEFSAII (Michael W. Deem and Ramdas Pophale) SiO2 
 PCOD9280200
Probable space group: C 2/C
;
_chemical_formula_sum "Si O2"
_cell_formula_units_Z 52
_cell_length_a 5.903939
_cell_length_b 19.627265
_cell_length_c 24.984150
_cell_angle_alpha 90.000000
_cell_angle_beta 69.309973
_cell_angle_gamma 90.000000
_cell_volume 2708.398669
_symmetry_space_group_name_H-M "C 2/C"
_symmetry_group_IT_number 15
_symmetry_cell_setting 'monoclinic'
loop_
_space_group_symop_operation_xyz
x,y,z
-x,y,1/2-z
-x,-y,-z
x,-y,1/2+z
1/2+x,1/2+y,z
1/2-x,1/2+y,1/2-z
1/2-x,1/2-y,-z
1/2+x,1/2-y,1/2+z
loop_
_atom_site_type_symbol
_atom_site_label
_atom_site_fract_x
_atom_site_fract_y
_atom_site_fract_z
Si Si1 0.500000 0.739860 0.750000
Si Si2 0.925098 0.686609 0.929858
Si Si3 0.796747 0.691366 0.368987
Si Si4 0.500000 0.524461 0.750000
Si Si5 0.989566 0.424853 0.161246
Si Si6 0.210569 0.442392 0.688636
Si Si7 0.000000 0.328560 0.250000
Si Si8 0.499505 0.218279 0.459216
O O1 0.538533 0.780328 0.692075
O O2 0.229080 0.707892 0.760082
O O3 0.673178 0.718481 0.931069
O O4 0.112548 0.747540 0.899257
O O5 0.993586 0.616578 0.895093
O O6 0.902675 0.680279 0.996121
O O7 0.694249 0.621923 0.352439
O O8 0.947514 0.676354 0.410193
O O9 0.282632 0.567684 0.793421
O O10 0.408280 0.477582 0.709397
O O11 0.116696 0.376462 0.194644
O O12 0.103825 0.499658 0.157840
O O13 0.000000 0.424610 0.750000
O O14 0.250000 0.250000 0.500000
#
# Coordination Sequence:
#
# PCOD9280200 Si02
#       8
#     4   8   8   4   8   8   4   8
#     4  12  25  35  62 101 127 162 210 264 319 380
#     4  10  21  38  64  88 111 156 206 262 314 373
#     4  11  22  37  59  88 126 159 204 257 315 378
#     4  10  21  37  56  81 131 168 202 244 311 379
#     4  11  21  36  58  87 123 162 205 252 311 376
#     4  10  22  37  52  84 127 170 198 240 314 382
#     4  12  22  36  58  94 128 160 210 262 310 371
#     4   9  21  41  61  85 116 151 201 264 323 370
#
# _framework density 19.199538
#
# number of rings (size 3 to 8) (size 9 to 14) (size 15 to 20)
#    0.000    1.538    4.615    1.385    0.000    5.538 
#    0.000    0.769    0.000    9.231    0.000    0.000 
#    0.000    0.000    0.000    0.000    0.000    0.000 
#
# Total GULP energy -144749.599510 kJ/mol
# GULP energy per Si atom -5567.292289 kJ/mol
# Density = 1.915584 g / cm^3
# Si number density = 19.199538 Si / 1000 Ang^3
#
#
#
# Elastic Constant Matrix: (Units=GPa)
#
#
# Indices 1 2 3 4 5 6 
#
# 1 67.8423 25.8965 20.2686 0.0000 8.1771 0.0000
# 2 25.8965 81.0868 43.8356 0.0000 6.6820 0.0000
# 3 20.2686 43.8356 99.5261 0.0000 18.1597 0.0000
# 4 0.0000 0.0000 0.0000 11.0378 0.0000 5.9931
# 5 8.1771 6.6820 18.1597 0.0000 22.5874 0.0000
# 6 0.0000 0.0000 0.0000 5.9931 0.0000 7.6062
#
#
#
# Elastic Compliance Matrix: (Units=1/GPa)
#
#
# Indices 1 2 3 4 5 6 
#
# 1 0.017290 -0.004842 -0.000595 0.000000 -0.004349 0.000000
# 2 -0.004842 0.017566 -0.007175 0.000000 0.002325 0.000000
# 3 -0.000595 -0.007175 0.015120 0.000000 -0.009818 0.000000
# 4 0.000000 0.000000 0.000000 0.158336 0.000000 -0.124757
# 5 -0.004349 0.002325 -0.009818 0.000000 0.053053 0.000000
# 6 0.000000 0.000000 0.000000 -0.124757 0.000000 0.229771
#
#
# Mechanical properties :
#
#
# Convention : Reuss Voigt Hill
#
# Bulk Modulus (GPa) = 40.39958 47.60627 44.00292
# Shear Modulus (GPa) = 9.53086 18.80991 14.17039
#
# Velocity S-wave (km/s) = 2.23045 3.13342 2.71967
# Velocity P-wave (km/s) = 5.26506 6.15958 5.72980
#
# Compressibility (1/GPa) = 0.02475273
#
# Stress axis : x y z
#
# Youngs Moduli (GPa) = 57.83618 56.92813 66.13550
#
# Poissons Ratio (x) = 0.27564 0.03936
# Poissons Ratio (y) = 0.28003 0.47452
# Poissons Ratio (z) = 0.03442 0.40846
#
# Static dielectric constant tensor:
#      x y z
#    x 1.735180 0.000000 0.015340 
#    y 0.000000 1.697280 0.000000 
#    z 0.015340 0.000000 1.671290 
# 
# From -- ./inp_files/261127.got.cif
#   From: 2010.05.17/outbox.cif.g08.bks.cpg/sg15_131_cif.got.tgz:261127.got - 2010.06.03 18:47:42.
