data_PCOD9280624
_publ_section_title
;
Structure prediction by ZEFSAII (Michael W. Deem and Ramdas Pophale) SiO2 
 PCOD9280624
Probable space group: C 2/C
;
_chemical_formula_sum "Si O2"
_cell_formula_units_Z 64
_cell_length_a 27.691769
_cell_length_b 17.955748
_cell_length_c 12.073576
_cell_angle_alpha 90.000000
_cell_angle_beta 148.962308
_cell_angle_gamma 90.000000
_cell_volume 3095.313126
_symmetry_space_group_name_H-M "C 2/C"
_symmetry_group_IT_number 15
_symmetry_cell_setting 'monoclinic'
loop_
_space_group_symop_operation_xyz
x,y,z
-x,y,1/2-z
-x,-y,-z
x,-y,1/2+z
1/2+x,1/2+y,z
1/2-x,1/2+y,1/2-z
1/2-x,1/2-y,-z
1/2+x,1/2-y,1/2+z
loop_
_atom_site_type_symbol
_atom_site_label
_atom_site_fract_x
_atom_site_fract_y
_atom_site_fract_z
Si Si1 0.554371 0.757975 0.463453
Si Si2 0.733124 0.263563 0.167509
Si Si3 0.099934 0.145078 0.999071
Si Si4 0.718441 0.087715 0.635988
Si Si5 0.903021 0.148459 0.245716
Si Si6 0.890066 0.020847 0.051084
Si Si7 0.071108 0.512538 0.483435
Si Si8 0.063978 0.387666 0.653647
O O1 0.500000 0.791751 0.250000
O O2 0.657899 0.746764 0.618973
O O3 0.499428 0.682184 0.385445
O O4 0.551167 0.810924 0.563635
O O5 0.809867 0.199113 0.323324
O O6 0.785789 0.339014 0.298898
O O7 0.671492 0.286041 0.937227
O O8 0.085097 0.133443 0.101538
O O9 0.000000 0.172058 0.750000
O O10 0.124921 0.067870 0.985176
O O11 0.667269 0.025793 0.609524
O O12 0.657132 0.106622 0.409632
O O13 0.823842 0.059301 0.828857
O O14 0.871915 0.072181 0.123619
O O15 0.000000 0.029388 0.250000
O O16 0.075719 0.451830 0.586262
O O17 0.000000 0.486025 0.250000
O O18 0.023795 0.587071 0.442594
#
# Coordination Sequence:
#
# PCOD9280624 Si02
#       8
#     8   8   8   8   8   8   8   8
#     4  10  22  41  67  93 127 173 208 270 323 407
#     4  10  23  43  63  98 135 164 223 265 333 393
#     4  11  26  42  68 103 128 173 230 282 314 393
#     4  10  22  38  65  92 129 171 207 281 318 387
#     4  10  22  46  71  93 130 183 213 266 349 386
#     4  10  23  46  64  90 132 173 227 270 325 384
#     4   9  20  38  58  91 133 166 207 255 329 406
#     4  10  21  37  61  98 124 167 209 260 336 392
#
# _framework density 20.676421000000001
#
# number of rings (size 3 to 8) (size 9 to 14) (size 15 to 20)
#    0.000    2.000    0.000    2.625    5.250    5.000 
#    9.000    0.000    0.000    0.000    0.000    0.000 
#    0.000    0.000    0.000    0.000    0.000    0.000 
#
# Total GULP energy -178352.922317 kJ/mol
# GULP energy per Si atom -5573.528822 kJ/mol
# Density = 2.062936 g / cm^3
# Si number density = 20.676421 Si / 1000 Ang^3
#
#
#
# Elastic Constant Matrix: (Units=GPa)
#
#
# Indices 1 2 3 4 5 6 
#
# 1 39.7904 7.0457 57.3179 0.0000 -2.4034 0.0000
# 2 7.0457 61.0412 45.2160 0.0000 14.6769 0.0000
# 3 57.3179 45.2160 115.1946 0.0000 -0.1004 0.0000
# 4 0.0000 0.0000 0.0000 29.4455 0.0000 4.7207
# 5 -2.4034 14.6769 -0.1004 0.0000 30.2663 0.0000
# 6 0.0000 0.0000 0.0000 4.7207 0.0000 30.7306
#
#
#
# Elastic Compliance Matrix: (Units=1/GPa)
#
#
# Indices 1 2 3 4 5 6 
#
# 1 0.184425 0.073021 -0.120446 0.000000 -0.021164 0.000000
# 2 0.073021 0.056584 -0.058563 0.000000 -0.021835 0.000000
# 3 -0.120446 -0.058563 0.091615 0.000000 0.019138 0.000000
# 4 0.000000 0.000000 0.000000 0.034818 0.000000 -0.005349
# 5 -0.021164 -0.021835 0.019138 0.000000 0.042011 0.000000
# 6 0.000000 0.000000 0.000000 -0.005349 0.000000 0.033362
#
#
# Mechanical properties :
#
#
# Convention : Reuss Voigt Hill
#
# Bulk Modulus (GPa) = 8.28848 48.35394 28.32121
# Shear Modulus (GPa) = 7.19417 25.18493 16.18955
#
# Velocity S-wave (km/s) = 1.86734 3.49384 2.80124
# Velocity P-wave (km/s) = 2.94392 6.30180 4.91830
#
# Compressibility (1/GPa) = 0.12064933
#
# Stress axis : x y z
#
# Youngs Moduli (GPa) = 5.42227 17.67286 10.91521
#
# Poissons Ratio (x) = -1.29049 1.31469
# Poissons Ratio (y) = -0.39594 0.63922
# Poissons Ratio (z) = 0.65309 1.03497
#
# Static dielectric constant tensor:
#      x y z
#    x 1.705980 0.000000 0.031170 
#    y 0.000000 1.761600 0.000000 
#    z 0.031170 0.000000 1.775870 
# 
# From -- ./inp_files/127318.got.cif
#   From: 2010.05.17/outbox.cif.g08.bks.cpg/sg15_64_cif.got.tgz:127318.got - 2010.06.03 18:47:42.
