data_PCOD9280232
_publ_section_title
;
Structure prediction by ZEFSAII (Michael W. Deem and Ramdas Pophale) SiO2 
 PCOD9280232
Probable space group: C 2/C
;
_chemical_formula_sum "Si O2"
_cell_formula_units_Z 56
_cell_length_a 21.817343
_cell_length_b 16.147425
_cell_length_c 28.007981
_cell_angle_alpha 90.000000
_cell_angle_beta 162.105700
_cell_angle_gamma 90.000000
_cell_volume 3031.766280
_symmetry_space_group_name_H-M "C 2/C"
_symmetry_group_IT_number 15
_symmetry_cell_setting 'monoclinic'
loop_
_space_group_symop_operation_xyz
x,y,z
-x,y,1/2-z
-x,-y,-z
x,-y,1/2+z
1/2+x,1/2+y,z
1/2-x,1/2+y,1/2-z
1/2-x,1/2-y,-z
1/2+x,1/2-y,1/2+z
loop_
_atom_site_type_symbol
_atom_site_label
_atom_site_fract_x
_atom_site_fract_y
_atom_site_fract_z
Si Si1 0.625309 0.563039 0.886802
Si Si2 0.385284 0.694275 0.453777
Si Si3 0.274520 0.193643 0.065138
Si Si4 0.372550 0.537741 0.862934
Si Si5 0.171020 0.982424 0.770259
Si Si6 0.513654 0.131890 0.495890
Si Si7 0.058751 0.576528 0.162620
O O1 0.500000 0.603557 0.750000
O O2 0.484204 0.488680 0.801173
O O3 0.659018 0.613253 0.960730
O O4 0.848102 0.557670 0.031124
O O5 0.329434 0.727217 0.464802
O O6 0.575160 0.634061 0.600127
O O7 0.422269 0.773616 0.447884
O O8 0.205194 0.632907 0.303755
O O9 0.500000 0.178833 0.250000
O O10 0.250000 0.250000 0.000000
O O11 0.426826 0.488289 0.854772
O O12 0.151705 0.510963 0.714518
O O13 0.500000 0.500000 0.000000
O O14 0.328400 0.906824 0.887906
O O15 0.304844 0.066523 0.867429
O O16 0.452480 0.125700 0.395169
#
# Coordination Sequence:
#
# PCOD9280232 Si02
#       7
#     8   8   8   8   8   8   8
#     4  12  22  37  57  85 120 159 192 231 293 358
#     4  11  22  36  58  83 117 157 194 245 295 345
#     4  12  25  35  51  84 122 156 186 231 296 366
#     4   9  20  38  58  81 114 150 198 241 288 344
#     4  10  21  37  57  77 115 154 194 237 279 348
#     4  10  22  37  54  82 111 152 200 235 285 342
#     4  10  21  38  56  85 116 153 199 242 288 356
#
# _framework density 18.471080000000001
#
# number of rings (size 3 to 8) (size 9 to 14) (size 15 to 20)
#    0.000    1.429    4.286    1.286    4.000    0.000 
#    0.000    0.000    0.000    0.857    0.000    0.000 
#    0.000    0.000    0.000    0.000    0.000    0.000 
#
# Total GULP energy -155917.034605 kJ/mol
# GULP energy per Si atom -5568.465522 kJ/mol
# Density = 1.842904 g / cm^3
# Si number density = 18.471080 Si / 1000 Ang^3
#
#
#
# Elastic Constant Matrix: (Units=GPa)
#
#
# Indices 1 2 3 4 5 6 
#
# 1 62.7090 28.0650 40.9057 -0.0081 9.5136 -0.0125
# 2 28.0650 78.4613 37.0294 0.0097 24.6131 0.0081
# 3 40.9057 37.0294 92.8647 0.0767 7.6099 0.0073
# 4 -0.0081 0.0097 0.0767 21.7043 -0.0073 3.9549
# 5 9.5136 24.6131 7.6099 -0.0073 46.8322 -0.0108
# 6 -0.0125 0.0081 0.0073 3.9549 -0.0108 27.3347
#
#
#
# Elastic Compliance Matrix: (Units=1/GPa)
#
#
# Indices 1 2 3 4 5 6 
#
# 1 0.023585 -0.003905 -0.008724 0.000039 -0.001322 0.000008
# 2 -0.003905 0.019297 -0.005279 0.000008 -0.008491 -0.000011
# 3 -0.008724 -0.005279 0.016564 -0.000059 0.001855 0.000002
# 4 0.000039 0.000008 -0.000059 0.047322 0.000003 -0.006847
# 5 -0.001322 -0.008491 0.001855 0.000003 0.025782 0.000011
# 6 0.000008 -0.000011 0.000002 -0.006847 0.000011 0.037574
#
#
# Mechanical properties :
#
#
# Convention : Reuss Voigt Hill
#
# Bulk Modulus (GPa) = 42.31633 49.55949 45.93791
# Shear Modulus (GPa) = 23.38469 27.70990 25.54729
#
# Velocity S-wave (km/s) = 3.56197 3.87741 3.72304
# Velocity P-wave (km/s) = 6.31475 6.85090 6.58828
#
# Compressibility (1/GPa) = 0.02363154
#
# Stress axis : x y z
#
# Youngs Moduli (GPa) = 42.39934 51.82286 60.37184
#
# Poissons Ratio (x) = 0.20235 0.52667
# Poissons Ratio (y) = 0.16555 0.31869
# Poissons Ratio (z) = 0.36988 0.27356
#
# Static dielectric constant tensor:
#      x y z
#    x 1.690170 -0.000050 -0.015850 
#    y -0.000050 1.721170 0.000000 
#    z -0.015850 0.000000 1.745760 
# 
# From -- ./inp_files/301319.got.cif
#   From: 2010.05.17/outbox.cif.g08.bks.cpg/sg15_151_cif.got.tgz:301319.got - 2010.06.03 18:47:42.
