data_PCOD9280644
_publ_section_title
;
Structure prediction by ZEFSAII (Michael W. Deem and Ramdas Pophale) SiO2 
 PCOD9280644
Probable space group: C 2/C
;
_chemical_formula_sum "Si O2"
_cell_formula_units_Z 64
_cell_length_a 13.562714
_cell_length_b 17.452861
_cell_length_c 14.174237
_cell_angle_alpha 90.000000
_cell_angle_beta 77.888271
_cell_angle_gamma 90.000000
_cell_volume 3280.472808
_symmetry_space_group_name_H-M "C 2/C"
_symmetry_group_IT_number 15
_symmetry_cell_setting 'monoclinic'
loop_
_space_group_symop_operation_xyz
x,y,z
-x,y,1/2-z
-x,-y,-z
x,-y,1/2+z
1/2+x,1/2+y,z
1/2-x,1/2+y,1/2-z
1/2-x,1/2-y,-z
1/2+x,1/2-y,1/2+z
loop_
_atom_site_type_symbol
_atom_site_label
_atom_site_fract_x
_atom_site_fract_y
_atom_site_fract_z
Si Si1 0.378106 0.140923 0.504894
Si Si2 0.186483 0.924706 0.932299
Si Si3 0.853351 0.213496 0.606593
Si Si4 0.920503 0.190177 0.918395
Si Si5 0.740414 0.359542 0.204315
Si Si6 0.237078 0.959465 0.715469
Si Si7 0.198633 0.917360 0.518724
Si Si8 0.894830 0.392170 0.563154
O O1 0.290249 0.096811 0.466268
O O2 0.390033 0.224402 0.455901
O O3 0.339282 0.149804 0.619740
O O4 0.487121 0.101670 0.477014
O O5 0.203372 0.919657 0.817827
O O6 0.159130 0.011298 0.966875
O O7 0.105044 0.866540 0.990369
O O8 0.769003 0.190496 0.699674
O O9 0.836038 0.162698 0.516998
O O10 0.863866 0.303230 0.584519
O O11 0.961644 0.188733 0.626595
O O12 0.850729 0.165163 0.846178
O O13 0.729146 0.449464 0.228561
O O14 0.176764 0.932093 0.633902
O O15 0.351596 0.937335 0.662599
O O16 0.321510 0.919767 0.493908
#
# Coordination Sequence:
#
# PCOD9280644 Si02
#       8
#     8   8   8   8   8   8   8   8
#     4  10  21  37  62  86 117 147 193 245 289 327
#     4  11  20  38  59  85 118 151 193 235 287 339
#     4  11  22  38  60  84 119 154 191 233 293 339
#     4  10  22  37  58  90 115 151 193 242 285 333
#     4  11  20  38  58  88 117 149 191 238 288 340
#     4  10  22  37  58  86 116 150 194 224 290 343
#     4  10  21  39  59  80 121 155 186 238 282 341
#     4   9  22  39  58  86 115 152 193 237 282 345
#
# _framework density 19.509383
#
# number of rings (size 3 to 8) (size 9 to 14) (size 15 to 20)
#    0.750    1.000    3.750    2.250    3.500    3.000 
#    0.000    1.250    0.000    3.000    0.000    0.000 
#    0.000    0.000    0.000    0.000    0.000    0.000 
#
# Total GULP energy -178458.076884 kJ/mol
# GULP energy per Si atom -5576.814903 kJ/mol
# Density = 1.946498 g / cm^3
# Si number density = 19.509383 Si / 1000 Ang^3
#
#
#
# Elastic Constant Matrix: (Units=GPa)
#
#
# Indices 1 2 3 4 5 6 
#
# 1 11.4798 9.2337 3.3922 0.0000 -3.2296 0.0000
# 2 9.2337 60.3239 3.3094 0.0000 -3.8318 0.0000
# 3 3.3922 3.3094 70.0272 0.0000 -12.7340 0.0000
# 4 0.0000 0.0000 0.0000 64.6626 0.0000 -14.6905
# 5 -3.2296 -3.8318 -12.7340 0.0000 15.4204 0.0000
# 6 0.0000 0.0000 0.0000 -14.6905 0.0000 14.8916
#
#
#
# Elastic Compliance Matrix: (Units=1/GPa)
#
#
# Indices 1 2 3 4 5 6 
#
# 1 0.104191 -0.014793 -0.001234 0.000000 0.017127 0.000000
# 2 -0.014793 0.018943 0.000134 0.000000 0.001720 0.000000
# 3 -0.001234 0.000134 0.016818 0.000000 0.013663 0.000000
# 4 0.000000 0.000000 0.000000 0.019932 0.000000 0.019663
# 5 0.017127 0.001720 0.013663 0.000000 0.080147 0.000000
# 6 0.000000 0.000000 0.000000 0.019663 0.000000 0.086549
#
#
# Mechanical properties :
#
#
# Convention : Reuss Voigt Hill
#
# Bulk Modulus (GPa) = 9.24490 19.30018 14.27254
# Shear Modulus (GPa) = 12.67681 27.38795 20.03238
#
# Velocity S-wave (km/s) = 2.55184 3.75084 3.20786
# Velocity P-wave (km/s) = 3.66490 5.35469 4.58826
#
# Compressibility (1/GPa) = 0.10816779
#
# Stress axis : x y z
#
# Youngs Moduli (GPa) = 9.59777 52.78893 59.45950
#
# Poissons Ratio (x) = 0.78090 0.07335
# Poissons Ratio (y) = 0.14198 -0.00797
# Poissons Ratio (z) = 0.01184 -0.00708
#
# Static dielectric constant tensor:
#      x y z
#    x 1.688750 0.000000 0.001090 
#    y 0.000000 1.685370 0.000000 
#    z 0.001090 0.000000 1.678900 
# 
# From -- ./inp_files/154819.got.cif
#   From: 2010.05.17/outbox.cif.g08.bks.cpg/sg15_78_cif.got.tgz:154819.got - 2010.06.03 18:47:42.
