data_PCOD9280441
_publ_section_title
;
Structure prediction by ZEFSAII (Michael W. Deem and Ramdas Pophale) SiO2 
 PCOD9280441
Probable space group: C 2/C
;
_chemical_formula_sum "Si O2"
_cell_formula_units_Z 48
_cell_length_a 9.281675
_cell_length_b 23.999414
_cell_length_c 12.490602
_cell_angle_alpha 90.000000
_cell_angle_beta 111.303236
_cell_angle_gamma 90.000000
_cell_volume 2592.225673
_symmetry_space_group_name_H-M "C 2/C"
_symmetry_group_IT_number 15
_symmetry_cell_setting 'monoclinic'
loop_
_space_group_symop_operation_xyz
x,y,z
-x,y,1/2-z
-x,-y,-z
x,-y,1/2+z
1/2+x,1/2+y,z
1/2-x,1/2+y,1/2-z
1/2-x,1/2-y,-z
1/2+x,1/2-y,1/2+z
loop_
_atom_site_type_symbol
_atom_site_label
_atom_site_fract_x
_atom_site_fract_y
_atom_site_fract_z
Si Si1 0.683290 0.551112 0.786469
Si Si2 0.598637 0.827335 0.670246
Si Si3 0.105468 0.638144 0.583875
Si Si4 0.785750 0.609191 0.593790
Si Si5 0.681973 0.221459 0.784426
Si Si6 0.677580 0.576880 0.330920
O O1 0.500000 0.557310 0.750000
O O2 0.768298 0.590282 0.895938
O O3 0.735409 0.573541 0.683421
O O4 0.721672 0.486660 0.816032
O O5 0.500000 0.821000 0.750000
O O6 0.479194 0.837536 0.541433
O O7 0.707660 0.774039 0.682019
O O8 0.710818 0.880789 0.700867
O O9 0.182256 0.687667 0.672752
O O10 0.968859 0.608934 0.616830
O O11 0.763261 0.674734 0.615364
O O12 0.700651 0.589645 0.463367
O O13 0.500000 0.236034 0.750000
O O14 0.500000 0.585238 0.250000
#
# Coordination Sequence:
#
# PCOD9280441 Si02
#       6
#     8   8   8   8   8   8
#     4  10  21  37  60  86 112 148 193 234 279 334
#     4  11  24  36  55  89 117 144 189 245 289 318
#     4   9  21  40  59  81 112 156 192 221 283 353
#     4   9  20  39  61  82 112 156 193 221 278 352
#     4   9  19  38  60  79 110 154 193 225 275 351
#     4  10  23  38  57  86 116 152 190 230 285 336
#
# _framework density 18.516905999999999
#
# number of rings (size 3 to 8) (size 9 to 14) (size 15 to 20)
#    0.000    2.333    0.000    2.000    0.000   20.000 
#    0.000    0.000    0.000    0.000    0.000    0.000 
#    0.000    0.000    0.000    0.000    0.000    0.000 
#
# Total GULP energy -133879.496610 kJ/mol
# GULP energy per Si atom -5578.312359 kJ/mol
# Density = 1.847476 g / cm^3
# Si number density = 18.516906 Si / 1000 Ang^3
#
#
#
# Elastic Constant Matrix: (Units=GPa)
#
#
# Indices 1 2 3 4 5 6 
#
# 1 67.6480 89.5898 50.1713 0.0000 -1.0986 0.0000
# 2 89.5898 170.1277 67.9565 0.0000 17.4247 0.0000
# 3 50.1713 67.9565 102.9934 0.0000 6.3042 0.0000
# 4 0.0000 0.0000 0.0000 15.1818 0.0000 10.0318
# 5 -1.0986 17.4247 6.3042 0.0000 30.5098 0.0000
# 6 0.0000 0.0000 0.0000 10.0318 0.0000 24.2097
#
#
#
# Elastic Compliance Matrix: (Units=1/GPa)
#
#
# Indices 1 2 3 4 5 6 
#
# 1 0.070650 -0.034496 -0.013183 0.000000 0.024969 0.000000
# 2 -0.034496 0.025215 0.001139 0.000000 -0.015878 0.000000
# 3 -0.013183 0.001139 0.015647 0.000000 -0.004358 0.000000
# 4 0.000000 0.000000 0.000000 0.090704 0.000000 -0.037585
# 5 0.024969 -0.015878 -0.004358 0.000000 0.043644 0.000000
# 6 0.000000 0.000000 0.000000 -0.037585 0.000000 0.056880
#
#
# Mechanical properties :
#
#
# Convention : Reuss Voigt Hill
#
# Bulk Modulus (GPa) = 54.25683 84.02270 69.13977
# Shear Modulus (GPa) = 12.43888 22.85037 17.64462
#
# Velocity S-wave (km/s) = 2.59464 3.51668 3.09024
# Velocity P-wave (km/s) = 6.19202 7.87173 7.08185
#
# Compressibility (1/GPa) = 0.01843086
#
# Stress axis : x y z
#
# Youngs Moduli (GPa) = 14.15418 39.65869 63.91093
#
# Poissons Ratio (x) = 1.36807 0.84256
# Poissons Ratio (y) = 0.48827 -0.07278
# Poissons Ratio (z) = 0.18660 -0.04516
#
# Static dielectric constant tensor:
#      x y z
#    x 1.627770 0.000000 -0.005350 
#    y 0.000000 1.629430 0.000000 
#    z -0.005350 0.000000 1.652160 
# 
# From -- ./inp_files/79147.got.cif
#   From: 2010.05.17/outbox.cif.g08.bks.cpg/sg15_40_cif.got.tgz:79147.got - 2010.06.03 18:47:42.
