data_PCOD9280408
_publ_section_title
;
Structure prediction by ZEFSAII (Michael W. Deem and Ramdas Pophale) SiO2 
 PCOD9280408
Probable space group: C 2/C
;
_chemical_formula_sum "Si O2"
_cell_formula_units_Z 64
_cell_length_a 35.227797
_cell_length_b 7.337912
_cell_length_c 19.435984
_cell_angle_alpha 90.000000
_cell_angle_beta 144.802898
_cell_angle_gamma 90.000000
_cell_volume 2895.887567
_symmetry_space_group_name_H-M "C 2/C"
_symmetry_group_IT_number 15
_symmetry_cell_setting 'monoclinic'
loop_
_space_group_symop_operation_xyz
x,y,z
-x,y,1/2-z
-x,-y,-z
x,-y,1/2+z
1/2+x,1/2+y,z
1/2-x,1/2+y,1/2-z
1/2-x,1/2-y,-z
1/2+x,1/2-y,1/2+z
loop_
_atom_site_type_symbol
_atom_site_label
_atom_site_fract_x
_atom_site_fract_y
_atom_site_fract_z
Si Si1 0.163868 0.708406 0.451439
Si Si2 0.506108 0.439252 0.929354
Si Si3 0.872959 0.092419 0.735447
Si Si4 0.422114 0.100515 0.630745
Si Si5 0.834062 0.427889 0.868731
Si Si6 0.283475 0.578482 0.720183
Si Si7 0.065361 0.602566 0.077163
Si Si8 0.568219 0.528261 0.886336
O O1 0.168703 0.824501 0.388619
O O2 0.120283 0.521758 0.377933
O O3 0.232163 0.667645 0.590254
O O4 0.124143 0.838040 0.444603
O O5 0.431437 0.465650 0.793389
O O6 0.553496 0.540493 0.946068
O O7 0.500000 0.500000 0.000000
O O8 0.535694 0.238440 0.975068
O O9 0.834799 0.993062 0.741610
O O10 0.907220 0.269497 0.821509
O O11 0.500000 0.057506 0.750000
O O12 0.383866 0.044040 0.504933
O O13 0.417788 0.321284 0.619168
O O14 0.762663 0.477883 0.793114
O O15 0.823382 0.225103 0.823611
O O16 0.873927 0.514089 0.863436
O O17 0.000000 0.500000 0.000000
O O18 0.500000 0.585487 0.750000
#
# Coordination Sequence:
#
# PCOD9280408 Si02
#       8
#     8   8   8   8   8   8   8   8
#     4  11  23  39  67  91 125 178 216 265 333 385
#     4  10  21  37  59  89 127 162 205 271 332 389
#     4  10  22  40  60  88 128 167 213 268 320 400
#     4  10  23  37  63  95 128 157 211 278 319 388
#     4  10  22  41  61  90 123 169 213 264 318 386
#     4  10  24  40  63  87 125 175 221 259 315 398
#     4  10  22  37  62  94 127 160 208 271 342 384
#     4  11  21  38  63  97 127 164 214 272 339 392
#
# _framework density 22.100307000000001
#
# number of rings (size 3 to 8) (size 9 to 14) (size 15 to 20)
#    0.000    1.750    2.500    0.750    3.500    4.000 
#    0.000    0.000    0.000    2.250    0.000    0.000 
#    0.000    0.000    0.000    0.000    0.000    0.000 
#
# Total GULP energy -178217.913941 kJ/mol
# GULP energy per Si atom -5569.309811 kJ/mol
# Density = 2.205001 g / cm^3
# Si number density = 22.100307 Si / 1000 Ang^3
#
#
#
# Elastic Constant Matrix: (Units=GPa)
#
#
# Indices 1 2 3 4 5 6 
#
# 1 158.5877 30.1999 3.2667 0.0000 13.0089 0.0000
# 2 30.1999 38.5172 7.4008 -0.0001 6.8317 -0.0001
# 3 3.2667 7.4008 59.4890 0.0000 3.8816 0.0000
# 4 0.0000 -0.0001 0.0000 25.8556 0.0000 5.8174
# 5 13.0089 6.8317 3.8816 0.0000 34.8809 0.0000
# 6 0.0000 -0.0001 0.0000 5.8174 0.0000 32.9086
#
#
#
# Elastic Compliance Matrix: (Units=1/GPa)
#
#
# Indices 1 2 3 4 5 6 
#
# 1 0.007519 -0.005664 0.000405 0.000000 -0.001740 0.000000
# 2 -0.005664 0.031716 -0.003392 0.000000 -0.003722 0.000000
# 3 0.000405 -0.003392 0.017302 0.000000 -0.001412 0.000000
# 4 0.000000 0.000000 0.000000 0.040278 0.000000 -0.007120
# 5 -0.001740 -0.003722 -0.001412 0.000000 0.030204 0.000000
# 6 0.000000 0.000000 0.000000 -0.007120 0.000000 0.031646
#
#
# Mechanical properties :
#
#
# Convention : Reuss Voigt Hill
#
# Bulk Modulus (GPa) = 25.48794 37.59210 31.54002
# Shear Modulus (GPa) = 26.44888 33.11077 29.77982
#
# Velocity S-wave (km/s) = 3.46318 3.87486 3.67479
# Velocity P-wave (km/s) = 5.24875 6.08819 5.68399
#
# Compressibility (1/GPa) = 0.03923424
#
# Stress axis : x y z
#
# Youngs Moduli (GPa) = 133.00149 31.53026 57.79787
#
# Poissons Ratio (x) = 0.17860 -0.02343
# Poissons Ratio (y) = 0.75338 0.19604
# Poissons Ratio (z) = -0.05391 0.10694
#
# Static dielectric constant tensor:
#      x y z
#    x 1.935250 0.000000 0.013250 
#    y 0.000000 1.835850 0.000000 
#    z 0.013250 0.000000 1.864530 
# 
# From -- ./inp_files/224645.got.cif
#   From: 2010.05.17/outbox.cif.g08.bks.cpg/sg15_113_cif.got.tgz:224645.got - 2010.06.03 18:47:42.
