data_PCOD9280617
_publ_section_title
;
Structure prediction by ZEFSAII (Michael W. Deem and Ramdas Pophale) SiO2 
 PCOD9280617
Probable space group: C 2/C
;
_chemical_formula_sum "Si O2"
_cell_formula_units_Z 40
_cell_length_a 11.600173
_cell_length_b 7.953986
_cell_length_c 18.817741
_cell_angle_alpha 90.000000
_cell_angle_beta 102.627773
_cell_angle_gamma 90.000000
_cell_volume 1694.269306
_symmetry_space_group_name_H-M "C 2/C"
_symmetry_group_IT_number 15
_symmetry_cell_setting 'monoclinic'
loop_
_space_group_symop_operation_xyz
x,y,z
-x,y,1/2-z
-x,-y,-z
x,-y,1/2+z
1/2+x,1/2+y,z
1/2-x,1/2+y,1/2-z
1/2-x,1/2-y,-z
1/2+x,1/2-y,1/2+z
loop_
_atom_site_type_symbol
_atom_site_label
_atom_site_fract_x
_atom_site_fract_y
_atom_site_fract_z
Si Si1 0.907753 0.662273 0.789624
Si Si2 0.316387 0.368396 0.066960
Si Si3 0.836122 0.869492 0.464428
Si Si4 0.076677 0.455107 0.578206
Si Si5 0.290248 0.897587 0.668296
O O1 0.970933 0.562019 0.862269
O O2 0.813920 0.793083 0.807226
O O3 0.850702 0.513267 0.735099
O O4 0.000000 0.751107 0.750000
O O5 0.210154 0.474444 0.088700
O O6 0.363887 0.244599 0.134484
O O7 0.250000 0.250000 0.000000
O O8 0.389765 0.503401 0.030891
O O9 0.750000 0.750000 0.500000
O O10 0.914237 0.745065 0.427149
O O11 0.763799 0.981608 0.399194
O O12 0.000000 0.500000 0.500000
#
# Coordination Sequence:
#
# PCOD9280617 Si02
#       5
#     8   8   8   8   8
#     4  11  25  42  69  93 133 180 211 275 335 389
#     4   8  17  34  61  88 115 164 203 261 323 369
#     4   9  18  36  69  91 122 172 207 267 340 373
#     4  10  21  37  61  96 124 161 217 264 320 391
#     4  10  21  43  65  95 133 165 230 268 324 407
#
# _framework density 23.608999000000001
#
# number of rings (size 3 to 8) (size 9 to 14) (size 15 to 20)
#    0.000    2.400    0.000    1.200    8.400    0.000 
#    0.000   13.000    4.400    0.000    0.000    0.000 
#    0.000    0.000    0.000    0.000    0.000    0.000 
#
# Total GULP energy -111652.239159 kJ/mol
# GULP energy per Si atom -5582.611958 kJ/mol
# Density = 2.355526 g / cm^3
# Si number density = 23.608999 Si / 1000 Ang^3
#
#
#
# Elastic Constant Matrix: (Units=GPa)
#
#
# Indices 1 2 3 4 5 6 
#
# 1 64.8322 24.6677 20.5080 0.0000 -30.9216 0.0000
# 2 24.6677 109.6138 32.7812 0.0000 -8.5778 0.0000
# 3 20.5080 32.7812 127.5057 0.0000 -9.7813 0.0000
# 4 0.0000 0.0000 0.0000 50.5657 0.0000 -10.7463
# 5 -30.9216 -8.5778 -9.7813 0.0000 42.9751 0.0000
# 6 0.0000 0.0000 0.0000 -10.7463 0.0000 37.8331
#
#
#
# Elastic Compliance Matrix: (Units=1/GPa)
#
#
# Indices 1 2 3 4 5 6 
#
# 1 0.025748 -0.003897 -0.001810 0.000000 0.017337 0.000000
# 2 -0.003897 0.010558 -0.002179 0.000000 -0.001192 0.000000
# 3 -0.001810 -0.002179 0.008713 0.000000 0.000246 0.000000
# 4 0.000000 0.000000 0.000000 0.021047 0.000000 0.005978
# 5 0.017337 -0.001192 0.000246 0.000000 0.035562 0.000000
# 6 0.000000 0.000000 0.000000 0.005978 0.000000 0.028130
#
#
# Mechanical properties :
#
#
# Convention : Reuss Voigt Hill
#
# Bulk Modulus (GPa) = 34.18956 50.87397 42.53176
# Shear Modulus (GPa) = 32.20030 41.20778 36.70404
#
# Velocity S-wave (km/s) = 3.69711 4.18236 3.94720
# Velocity P-wave (km/s) = 5.72170 6.70210 6.23121
#
# Compressibility (1/GPa) = 0.02924870
#
# Stress axis : x y z
#
# Youngs Moduli (GPa) = 38.83766 94.71267 114.77117
#
# Poissons Ratio (x) = 0.36905 0.20769
# Poissons Ratio (y) = 0.15133 0.25011
# Poissons Ratio (z) = 0.07028 0.20640
#
# Static dielectric constant tensor:
#      x y z
#    x 1.992690 0.000000 -0.054720 
#    y 0.000000 1.934220 0.000000 
#    z -0.054720 0.000000 1.885930 
# 
# From -- ./inp_files/202325.got.cif
#   From: 2010.05.17/outbox.cif.g08.bks.cpg/sg15_102_cif.got.tgz:202325.got - 2010.06.03 18:47:42.
