data_PCOD9280374
_publ_section_title
;
Structure prediction by ZEFSAII (Michael W. Deem and Ramdas Pophale) SiO2 
 PCOD9280374
Probable space group: C 2/C
;
_chemical_formula_sum "Si O2"
_cell_formula_units_Z 48
_cell_length_a 13.145213
_cell_length_b 12.557523
_cell_length_c 14.589380
_cell_angle_alpha 90.000000
_cell_angle_beta 107.147070
_cell_angle_gamma 90.000000
_cell_volume 2301.242450
_symmetry_space_group_name_H-M "C 2/C"
_symmetry_group_IT_number 15
_symmetry_cell_setting 'monoclinic'
loop_
_space_group_symop_operation_xyz
x,y,z
-x,y,1/2-z
-x,-y,-z
x,-y,1/2+z
1/2+x,1/2+y,z
1/2-x,1/2+y,1/2-z
1/2-x,1/2-y,-z
1/2+x,1/2-y,1/2+z
loop_
_atom_site_type_symbol
_atom_site_label
_atom_site_fract_x
_atom_site_fract_y
_atom_site_fract_z
Si Si1 0.409888 0.234172 0.799920
Si Si2 0.201123 0.136043 0.955814
Si Si3 0.898961 0.448709 0.429840
Si Si4 0.344594 0.557360 0.371472
Si Si5 0.168293 0.164200 0.730885
Si Si6 0.386108 0.895548 0.762613
O O1 0.500000 0.210356 0.750000
O O2 0.428012 0.166424 0.896876
O O3 0.404655 0.358196 0.822946
O O4 0.291277 0.195437 0.740789
O O5 0.303061 0.060191 0.973892
O O6 0.160146 0.143528 0.839422
O O7 0.250000 0.250000 0.000000
O O8 0.128358 0.085655 0.015767
O O9 0.863295 0.522951 0.337473
O O10 0.000000 0.500000 0.500000
O O11 0.360125 0.438621 0.336995
O O12 0.218781 0.591309 0.328010
O O13 0.105455 0.274194 0.699529
O O14 0.500000 0.924184 0.750000
#
# Coordination Sequence:
#
# PCOD9280374 Si02
#       6
#     8   8   8   8   8   8
#     4  10  21  37  59  86 118 159 199 246 305 349
#     4  11  19  37  61  89 119 161 197 251 304 367
#     4  11  22  34  59  96 119 150 207 254 307 352
#     4  11  21  40  61  89 123 161 203 249 303 369
#     4  10  23  39  62  88 123 163 206 243 312 365
#     4  11  21  37  60  89 124 157 201 253 302 356
#
# _framework density 20.858298000000001
#
# number of rings (size 3 to 8) (size 9 to 14) (size 15 to 20)
#    0.000    1.333    8.333    1.500    2.333    0.667 
#    0.000    2.500    0.000    3.000    0.000    0.000 
#    0.000    0.000    0.000    0.000    0.000    0.000 
#
# Total GULP energy -133933.572920 kJ/mol
# GULP energy per Si atom -5580.565538 kJ/mol
# Density = 2.081082 g / cm^3
# Si number density = 20.858298 Si / 1000 Ang^3
#
#
#
# Elastic Constant Matrix: (Units=GPa)
#
#
# Indices 1 2 3 4 5 6 
#
# 1 29.5997 -1.2307 12.2180 0.0000 -8.8103 0.0000
# 2 -1.2307 125.8839 28.7361 0.0000 -21.4714 0.0000
# 3 12.2180 28.7361 65.3380 0.0000 -29.1397 0.0000
# 4 0.0000 0.0000 0.0000 22.5000 0.0000 -13.5732
# 5 -8.8103 -21.4714 -29.1397 0.0000 22.8316 0.0000
# 6 0.0000 0.0000 0.0000 -13.5732 0.0000 22.6521
#
#
#
# Elastic Compliance Matrix: (Units=1/GPa)
#
#
# Indices 1 2 3 4 5 6 
#
# 1 0.039525 0.003578 -0.001536 0.000000 0.016656 0.000000
# 2 0.003578 0.009791 -0.000587 0.000000 0.009839 0.000000
# 3 -0.001536 -0.000587 0.035608 0.000000 0.044301 0.000000
# 4 0.000000 0.000000 0.000000 0.069604 0.000000 0.041707
# 5 0.016656 0.009839 0.044301 0.000000 0.116020 0.000000
# 6 0.000000 0.000000 0.000000 0.041707 0.000000 0.069137
#
#
# Mechanical properties :
#
#
# Convention : Reuss Voigt Hill
#
# Bulk Modulus (GPa) = 11.38526 33.36315 22.37420
# Shear Modulus (GPa) = 13.65918 25.66995 19.66457
#
# Velocity S-wave (km/s) = 2.56179 3.51191 3.07379
# Velocity P-wave (km/s) = 3.77102 5.69865 4.83194
#
# Compressibility (1/GPa) = 0.08783290
#
# Stress axis : x y z
#
# Youngs Moduli (GPa) = 25.30064 102.13414 28.08343
#
# Poissons Ratio (x) = -0.36544 0.04315
# Poissons Ratio (y) = -0.09053 0.01649
# Poissons Ratio (z) = 0.03887 0.05998
#
# Static dielectric constant tensor:
#      x y z
#    x 1.685620 0.000000 0.011960 
#    y 0.000000 1.745360 0.000000 
#    z 0.011960 0.000000 1.851960 
# 
# From -- ./inp_files/152082.got.cif
#   From: 2010.05.17/outbox.cif.g08.bks.cpg/sg15_77_cif.got.tgz:152082.got - 2010.06.03 18:47:42.
