data_PCOD9280782
_publ_section_title
;
Structure prediction by ZEFSAII (Michael W. Deem and Ramdas Pophale) SiO2 
 PCOD9280782
Probable space group: C 2/C
;
_chemical_formula_sum "Si O2"
_cell_formula_units_Z 36
_cell_length_a 18.199458
_cell_length_b 13.606185
_cell_length_c 10.355862
_cell_angle_alpha 90.000000
_cell_angle_beta 142.508286
_cell_angle_gamma 90.000000
_cell_volume 1560.796724
_symmetry_space_group_name_H-M "C 2/C"
_symmetry_group_IT_number 15
_symmetry_cell_setting 'monoclinic'
loop_
_space_group_symop_operation_xyz
x,y,z
-x,y,1/2-z
-x,-y,-z
x,-y,1/2+z
1/2+x,1/2+y,z
1/2-x,1/2+y,1/2-z
1/2-x,1/2-y,-z
1/2+x,1/2-y,1/2+z
loop_
_atom_site_type_symbol
_atom_site_label
_atom_site_fract_x
_atom_site_fract_y
_atom_site_fract_z
Si Si1 0.345011 0.606685 0.894740
Si Si2 0.500000 0.465468 0.250000
Si Si3 0.407561 0.160417 0.451800
Si Si4 0.815405 0.644438 0.596392
Si Si5 0.241936 0.132502 0.996930
O O1 0.384762 0.721098 0.934240
O O2 0.270107 0.410793 0.422148
O O3 0.264368 0.589401 0.655786
O O4 0.460419 0.537576 0.077969
O O5 0.386181 0.397204 0.121150
O O6 0.338997 0.116209 0.480940
O O7 0.550530 0.148917 0.658792
O O8 0.352332 0.112125 0.246912
O O9 0.750000 0.750000 0.500000
O O10 0.250000 0.250000 0.000000
#
# Coordination Sequence:
#
# PCOD9280782 Si02
#       5
#     8   4   8   8   8
#     4  10  21  37  63  95 126 168 218 267 316 374
#     4  12  24  42  66  94 128 166 218 276 326 386
#     4   9  19  37  61  95 132 172 215 257 315 387
#     4   9  17  33  60  91 128 172 215 257 313 385
#     4  10  24  40  61  95 130 169 212 266 328 385
#
# _framework density 23.065142999999999
#
# number of rings (size 3 to 8) (size 9 to 14) (size 15 to 20)
#    0.000    2.222    0.000    3.333    0.000   15.111 
#    0.000    1.111    0.000    2.667    0.000    0.000 
#    0.000    0.000    0.000    0.000    0.000    0.000 
#
# Total GULP energy -100489.135337 kJ/mol
# GULP energy per Si atom -5582.729741 kJ/mol
# Density = 2.301265 g / cm^3
# Si number density = 23.065143 Si / 1000 Ang^3
#
#
#
# Elastic Constant Matrix: (Units=GPa)
#
#
# Indices 1 2 3 4 5 6 
#
# 1 63.3412 5.0661 46.7480 0.0000 -4.6043 0.0000
# 2 5.0661 112.6883 42.1056 0.0000 12.7674 0.0000
# 3 46.7480 42.1056 162.5576 0.0000 -32.7730 0.0000
# 4 0.0000 0.0000 0.0000 30.4264 0.0000 9.7349
# 5 -4.6043 12.7674 -32.7730 0.0000 34.5014 0.0000
# 6 0.0000 0.0000 0.0000 9.7349 0.0000 7.7162
#
#
#
# Elastic Compliance Matrix: (Units=1/GPa)
#
#
# Indices 1 2 3 4 5 6 
#
# 1 0.020954 0.002624 -0.007839 0.000000 -0.005621 0.000000
# 2 0.002624 0.012013 -0.005803 0.000000 -0.009608 0.000000
# 3 -0.007839 -0.005803 0.012531 0.000000 0.013004 0.000000
# 4 0.000000 0.000000 0.000000 0.055113 0.000000 -0.069532
# 5 -0.005621 -0.009608 0.013004 0.000000 0.044143 0.000000
# 6 0.000000 0.000000 0.000000 -0.069532 0.000000 0.217321
#
#
# Mechanical properties :
#
#
# Convention : Reuss Voigt Hill
#
# Bulk Modulus (GPa) = 42.62243 58.49183 50.55713
# Shear Modulus (GPa) = 12.75735 30.83996 21.79865
#
# Velocity S-wave (km/s) = 2.35436 3.66058 3.07757
# Velocity P-wave (km/s) = 5.09018 6.57882 5.88179
#
# Compressibility (1/GPa) = 0.02346183
#
# Stress axis : x y z
#
# Youngs Moduli (GPa) = 47.72273 83.24374 79.80313
#
# Poissons Ratio (x) = -0.21841 0.62556
# Poissons Ratio (y) = -0.12521 0.46310
# Poissons Ratio (z) = 0.37409 0.48307
#
# Static dielectric constant tensor:
#      x y z
#    x 1.866920 0.000000 -0.050900 
#    y 0.000000 1.908970 0.000000 
#    z -0.050900 0.000000 1.860210 
# 
# From -- ./inp_files/142030.got.cif
#   From: 2010.05.17/outbox.cif.g08.bks.cpg/sg15_72_cif.got.tgz:142030.got - 2010.06.03 18:47:42.
