data_PCOD9280343
_publ_section_title
;
Structure prediction by ZEFSAII (Michael W. Deem and Ramdas Pophale) SiO2 
 PCOD9280343
Probable space group: C 2/C
;
_chemical_formula_sum "Si O2"
_cell_formula_units_Z 48
_cell_length_a 14.669339
_cell_length_b 12.453480
_cell_length_c 19.596790
_cell_angle_alpha 90.000000
_cell_angle_beta 145.572128
_cell_angle_gamma 90.000000
_cell_volume 2024.033427
_symmetry_space_group_name_H-M "C 2/C"
_symmetry_group_IT_number 15
_symmetry_cell_setting 'monoclinic'
loop_
_space_group_symop_operation_xyz
x,y,z
-x,y,1/2-z
-x,-y,-z
x,-y,1/2+z
1/2+x,1/2+y,z
1/2-x,1/2+y,1/2-z
1/2-x,1/2-y,-z
1/2+x,1/2-y,1/2+z
loop_
_atom_site_type_symbol
_atom_site_label
_atom_site_fract_x
_atom_site_fract_y
_atom_site_fract_z
Si Si1 0.541816 0.522758 0.605245
Si Si2 0.058702 0.433518 0.453009
Si Si3 0.271231 0.915434 0.077458
Si Si4 0.674546 0.696024 0.321979
Si Si5 0.744446 0.207508 0.720073
Si Si6 0.147828 0.577750 0.249395
O O1 0.500000 0.500000 0.500000
O O2 0.391342 0.471184 0.550764
O O3 0.595612 0.641270 0.659182
O O4 0.710174 0.463420 0.711642
O O5 0.108821 0.387969 0.409523
O O6 0.213624 0.406866 0.593742
O O7 0.904994 0.371099 0.390121
O O8 0.007301 0.551890 0.393629
O O9 0.237543 0.801016 0.090563
O O10 0.339261 0.000050 0.176092
O O11 0.500000 0.685716 0.250000
O O12 0.675140 0.732675 0.244221
O O13 0.805946 0.299872 0.706810
#
# Coordination Sequence:
#
# PCOD9280343 Si02
#       6
#     8   8   8   8   8   8
#     4   9  18  34  58  87 119 161 207 248 303 365
#     4  11  23  38  62  90 128 164 208 262 314 371
#     4  11  19  38  63  92 119 164 212 257 309 372
#     4  12  22  35  60  95 125 160 212 266 313 362
#     4  11  22  37  61  97 124 163 212 256 316 370
#     4  10  21  37  58  91 128 162 204 256 311 377
#
# _framework density 23.715024
#
# number of rings (size 3 to 8) (size 9 to 14) (size 15 to 20)
#    0.000    1.333    6.667    2.000    4.667    0.667 
#    0.000    0.833    0.000    0.000    0.000    0.000 
#    0.000    0.000    0.000    0.000    0.000    0.000 
#
# Total GULP energy -133663.316479 kJ/mol
# GULP energy per Si atom -5569.304853 kJ/mol
# Density = 2.366105 g / cm^3
# Si number density = 23.715024 Si / 1000 Ang^3
#
#
#
# Elastic Constant Matrix: (Units=GPa)
#
#
# Indices 1 2 3 4 5 6 
#
# 1 49.2400 25.2309 26.7280 0.0001 -0.9846 0.0001
# 2 25.2309 60.2941 4.7698 0.0003 4.6292 0.0001
# 3 26.7280 4.7698 73.1243 0.0009 20.2205 0.0002
# 4 0.0001 0.0003 0.0009 28.9760 0.0003 -5.2746
# 5 -0.9846 4.6292 20.2205 0.0003 35.1851 0.0001
# 6 0.0001 0.0001 0.0002 -5.2746 0.0001 25.5644
#
#
#
# Elastic Compliance Matrix: (Units=1/GPa)
#
#
# Indices 1 2 3 4 5 6 
#
# 1 0.036910 -0.015123 -0.015861 0.000000 0.012138 0.000000
# 2 -0.015123 0.022971 0.005923 0.000000 -0.006849 0.000000
# 3 -0.015861 0.005923 0.023095 -0.000001 -0.014495 0.000000
# 4 0.000000 0.000000 -0.000001 0.035858 0.000000 0.007398
# 5 0.012138 -0.006849 -0.014495 0.000000 0.037992 0.000000
# 6 0.000000 0.000000 0.000000 0.007398 0.000000 0.040643
#
#
# Mechanical properties :
#
#
# Convention : Reuss Voigt Hill
#
# Bulk Modulus (GPa) = 30.43708 32.90177 31.66943
# Shear Modulus (GPa) = 19.33927 26.34042 22.83984
#
# Velocity S-wave (km/s) = 2.85877 3.33634 3.10675
# Velocity P-wave (km/s) = 4.87433 5.36148 5.12370
#
# Compressibility (1/GPa) = 0.03285466
#
# Stress axis : x y z
#
# Youngs Moduli (GPa) = 27.09308 43.53337 43.29998
#
# Poissons Ratio (x) = 0.65833 0.68678
# Poissons Ratio (y) = 0.40972 -0.25647
# Poissons Ratio (z) = 0.42972 -0.25785
#
# Static dielectric constant tensor:
#      x y z
#    x 1.948030 0.000000 0.006730 
#    y 0.000000 2.016700 0.000000 
#    z 0.006730 0.000000 2.080010 
# 
# From -- ./inp_files/277292.got.cif
#   From: 2010.05.17/outbox.cif.g08.bks.cpg/sg15_139_cif.got.tgz:277292.got - 2010.06.03 18:47:42.
