data_PCOD9280676
_publ_section_title
;
Structure prediction by ZEFSAII (Michael W. Deem and Ramdas Pophale) SiO2 
 PCOD9280676
Probable space group: C 2/C
;
_chemical_formula_sum "Si O2"
_cell_formula_units_Z 48
_cell_length_a 5.070122
_cell_length_b 29.782591
_cell_length_c 14.981310
_cell_angle_alpha 90.000000
_cell_angle_beta 104.525892
_cell_angle_gamma 90.000000
_cell_volume 2189.885793
_symmetry_space_group_name_H-M "C 2/C"
_symmetry_group_IT_number 15
_symmetry_cell_setting 'monoclinic'
loop_
_space_group_symop_operation_xyz
x,y,z
-x,y,1/2-z
-x,-y,-z
x,-y,1/2+z
1/2+x,1/2+y,z
1/2-x,1/2+y,1/2-z
1/2-x,1/2-y,-z
1/2+x,1/2-y,1/2+z
loop_
_atom_site_type_symbol
_atom_site_label
_atom_site_fract_x
_atom_site_fract_y
_atom_site_fract_z
Si Si1 0.125516 0.088560 0.163559
Si Si2 0.863962 0.716082 0.404956
Si Si3 0.454013 0.691335 0.522864
Si Si4 0.500000 0.011422 0.250000
Si Si5 0.500000 0.164396 0.250000
Si Si6 0.876953 0.091009 0.957038
Si Si7 0.137954 0.465505 0.084552
O O1 0.323243 0.130993 0.173908
O O2 0.000000 0.091984 0.250000
O O3 0.298890 0.043459 0.177490
O O4 0.913605 0.088693 0.066977
O O5 0.130585 0.696587 0.479977
O O6 0.838929 0.694505 0.305965
O O7 0.602844 0.703795 0.441817
O O8 0.929576 0.768980 0.404910
O O9 0.540457 0.641718 0.560280
O O10 0.664173 0.986735 0.185482
O O11 0.084877 0.055211 0.930991
O O12 0.572337 0.075166 0.915508
O O13 0.000000 0.500000 0.000000
#
# Coordination Sequence:
#
# PCOD9280676 Si02
#       7
#     8   8   8   4   4   8   8
#     4  11  23  37  65  93 129 162 212 278 323 380
#     4  10  21  37  62  91 130 159 207 250 319 381
#     4  10  21  40  62  90 122 173 203 252 309 383
#     4  11  26  42  62  92 128 168 218 274 324 381
#     4  11  22  36  58 102 126 160 202 274 326 363
#     4  12  24  42  67  94 129 167 221 261 320 393
#     4  12  26  44  65  95 127 174 216 269 329 385
#
# _framework density 21.918952000000001
#
# number of rings (size 3 to 8) (size 9 to 14) (size 15 to 20)
#    0.000    1.000    3.333    3.500    4.667    0.000 
#    0.000    1.667    0.000    0.000    0.000    0.000 
#    0.000    0.000    0.000    0.000    0.000    0.000 
#
# Total GULP energy -134249.493090 kJ/mol
# GULP energy per Si atom -5593.728879 kJ/mol
# Density = 2.186906 g / cm^3
# Si number density = 21.918952 Si / 1000 Ang^3
#
#
#
# Elastic Constant Matrix: (Units=GPa)
#
#
# Indices 1 2 3 4 5 6 
#
# 1 57.7065 -3.3188 0.4061 0.0000 -8.8578 0.0000
# 2 -3.3188 106.3314 28.1065 0.0000 0.8148 0.0000
# 3 0.4061 28.1065 74.9695 0.0000 -17.7911 0.0000
# 4 0.0000 0.0000 0.0000 10.0192 0.0000 -8.3560
# 5 -8.8578 0.8148 -17.7911 0.0000 32.9787 0.0000
# 6 0.0000 0.0000 0.0000 -8.3560 0.0000 17.1077
#
#
#
# Elastic Compliance Matrix: (Units=1/GPa)
#
#
# Indices 1 2 3 4 5 6 
#
# 1 0.018175 0.000231 0.001115 0.000000 0.005477 0.000000
# 2 0.000231 0.010659 -0.004639 0.000000 -0.002704 0.000000
# 3 0.001115 -0.004639 0.017397 0.000000 0.009799 0.000000
# 4 0.000000 0.000000 0.000000 0.168414 0.000000 0.082260
# 5 0.005477 -0.002704 0.009799 0.000000 0.037147 0.000000
# 6 0.000000 0.000000 0.000000 0.082260 0.000000 0.098632
#
#
# Mechanical properties :
#
#
# Convention : Reuss Voigt Hill
#
# Bulk Modulus (GPa) = 25.22412 32.15499 28.68955
# Shear Modulus (GPa) = 13.50528 26.27536 19.89032
#
# Velocity S-wave (km/s) = 2.48492 3.46605 3.01566
# Velocity P-wave (km/s) = 4.44590 5.54255 5.02423
#
# Compressibility (1/GPa) = 0.03964460
#
# Stress axis : x y z
#
# Youngs Moduli (GPa) = 55.01985 93.82022 57.47987
#
# Poissons Ratio (x) = -0.02163 -0.06409
# Poissons Ratio (y) = -0.01269 0.26665
# Poissons Ratio (z) = -0.06135 0.43523
#
# Static dielectric constant tensor:
#      x y z
#    x 1.839710 0.000000 0.011100 
#    y 0.000000 1.868690 0.000000 
#    z 0.011100 0.000000 1.786890 
# 
# From -- ./inp_files/130108.got.cif
#   From: 2010.05.17/outbox.cif.g08.bks.cpg/sg15_66_cif.got.tgz:130108.got - 2010.06.03 18:47:42.
