data_PCOD9280177
_publ_section_title
;
Structure prediction by ZEFSAII (Michael W. Deem and Ramdas Pophale) SiO2 
 PCOD9280177
Probable space group: C 2/C
;
_chemical_formula_sum "Si O2"
_cell_formula_units_Z 64
_cell_length_a 32.903970
_cell_length_b 17.525252
_cell_length_c 9.205486
_cell_angle_alpha 90.000000
_cell_angle_beta 143.302891
_cell_angle_gamma 90.000000
_cell_volume 3172.186823
_symmetry_space_group_name_H-M "C 2/C"
_symmetry_group_IT_number 15
_symmetry_cell_setting 'monoclinic'
loop_
_space_group_symop_operation_xyz
x,y,z
-x,y,1/2-z
-x,-y,-z
x,-y,1/2+z
1/2+x,1/2+y,z
1/2-x,1/2+y,1/2-z
1/2-x,1/2-y,-z
1/2+x,1/2-y,1/2+z
loop_
_atom_site_type_symbol
_atom_site_label
_atom_site_fract_x
_atom_site_fract_y
_atom_site_fract_z
Si Si1 0.326097 0.097022 0.053465
Si Si2 0.781419 0.313820 0.907193
Si Si3 0.567506 0.353026 0.361540
Si Si4 0.791385 0.538665 0.243068
Si Si5 0.350332 0.541056 0.219163
Si Si6 0.173522 0.161352 0.604076
Si Si7 0.431429 0.388996 0.461320
Si Si8 0.850547 0.286112 0.394701
O O1 0.250826 0.134836 0.855046
O O2 0.366319 0.160597 0.077247
O O3 0.322145 0.024016 0.938068
O O4 0.340883 0.067266 0.256832
O O5 0.772063 0.387594 0.782483
O O6 0.710041 0.272508 0.736054
O O7 0.823967 0.247298 0.948133
O O8 0.818785 0.331501 0.167179
O O9 0.500000 0.378867 0.250000
O O10 0.626856 0.412635 0.573607
O O11 0.588768 0.269150 0.476037
O O12 0.557515 0.350227 0.161538
O O13 0.723714 0.497887 0.983787
O O14 0.351065 0.602338 0.090911
O O15 0.403990 0.473845 0.351068
O O16 0.126563 0.151828 0.609188
O O17 0.500000 0.391484 0.750000
#
# Coordination Sequence:
#
# PCOD9280177 Si02
#       8
#     8   8   8   8   8   8   8   8
#     4  10  22  35  57  91 121 155 201 251 320 375
#     4  10  21  37  60  85 121 160 204 256 321 369
#     4  12  26  42  62  85 127 177 219 255 307 368
#     4  11  22  35  61  92 127 159 198 256 320 381
#     4  11  22  40  58  86 124 170 208 253 308 371
#     4  10  21  37  55  84 119 156 206 257 307 367
#     4  12  25  37  58  85 121 167 222 265 299 359
#     4  10  22  39  61  85 119 167 212 258 312 374
#
# _framework density 20.175357000000002
#
# number of rings (size 3 to 8) (size 9 to 14) (size 15 to 20)
#    0.000    1.250    2.500    3.375    7.000    2.500 
#    0.000    0.000    0.000    0.000    0.000    4.375 
#    0.000    0.000    0.000    0.000    0.000    0.000 
#
# Total GULP energy -178896.067192 kJ/mol
# GULP energy per Si atom -5590.502100 kJ/mol
# Density = 2.012944 g / cm^3
# Si number density = 20.175357 Si / 1000 Ang^3
#
#
#
# Elastic Constant Matrix: (Units=GPa)
#
#
# Indices 1 2 3 4 5 6 
#
# 1 70.7113 28.7250 10.5550 0.0000 -14.7943 0.0000
# 2 28.7250 84.5594 13.9829 0.0000 -1.1168 0.0000
# 3 10.5550 13.9829 36.9700 0.0000 -11.0570 0.0000
# 4 0.0000 0.0000 0.0000 1.4141 0.0000 2.7084
# 5 -14.7943 -1.1168 -11.0570 0.0000 21.4504 0.0000
# 6 0.0000 0.0000 0.0000 2.7084 0.0000 28.9171
#
#
#
# Elastic Compliance Matrix: (Units=1/GPa)
#
#
# Indices 1 2 3 4 5 6 
#
# 1 0.019538 -0.006624 0.001010 0.000000 0.013651 0.000000
# 2 -0.006624 0.014944 -0.005787 0.000000 -0.006773 0.000000
# 3 0.001010 -0.005787 0.034365 0.000000 0.018110 0.000000
# 4 0.000000 0.000000 0.000000 0.861748 0.000000 -0.080712
# 5 0.013651 -0.006773 0.018110 0.000000 0.065016 0.000000
# 6 0.000000 0.000000 0.000000 -0.080712 0.000000 0.042141
#
#
# Mechanical properties :
#
#
# Convention : Reuss Voigt Hill
#
# Bulk Modulus (GPa) = 21.71740 33.19629 27.45684
# Shear Modulus (GPa) = 4.64726 19.62151 12.13439
#
# Velocity S-wave (km/s) = 1.51935 3.12195 2.45510
# Velocity P-wave (km/s) = 3.72365 5.43001 4.65568
#
# Compressibility (1/GPa) = 0.04604603
#
# Stress axis : x y z
#
# Youngs Moduli (GPa) = 51.18193 66.91840 29.09896
#
# Poissons Ratio (x) = 0.44326 -0.02939
# Poissons Ratio (y) = 0.33902 0.16839
# Poissons Ratio (z) = -0.05169 0.38723
#
# Static dielectric constant tensor:
#      x y z
#    x 1.722470 0.000000 -0.023730 
#    y 0.000000 1.717770 0.000000 
#    z -0.023730 0.000000 1.731240 
# 
# From -- ./inp_files/70608.got.cif
#   From: 2010.05.17/outbox.cif.g08.bks.cpg/sg15_36_cif.got.tgz:70608.got - 2010.06.03 18:47:42.
