data_PCOD9280033
_publ_section_title
;
Structure prediction by ZEFSAII (Michael W. Deem and Ramdas Pophale) SiO2 
 PCOD9280033
Probable space group: C 2/C
;
_chemical_formula_sum "Si O2"
_cell_formula_units_Z 36
_cell_length_a 23.730721
_cell_length_b 7.002509
_cell_length_c 9.789894
_cell_angle_alpha 90.000000
_cell_angle_beta 124.477361
_cell_angle_gamma 90.000000
_cell_volume 1341.078505
_symmetry_space_group_name_H-M "C 2/C"
_symmetry_group_IT_number 15
_symmetry_cell_setting 'monoclinic'
loop_
_space_group_symop_operation_xyz
x,y,z
-x,y,1/2-z
-x,-y,-z
x,-y,1/2+z
1/2+x,1/2+y,z
1/2-x,1/2+y,1/2-z
1/2-x,1/2-y,-z
1/2+x,1/2-y,1/2+z
loop_
_atom_site_type_symbol
_atom_site_label
_atom_site_fract_x
_atom_site_fract_y
_atom_site_fract_z
Si Si1 0.862156 0.038066 0.927614
Si Si2 0.858930 0.497285 0.977856
Si Si3 0.439022 0.895747 0.340130
Si Si4 0.500000 0.439674 0.750000
Si Si5 0.224208 0.966133 0.943006
O O1 0.801825 0.968337 0.945465
O O2 0.935391 0.965299 0.085157
O O3 0.861839 0.270409 0.943557
O O4 0.712011 0.054359 0.549479
O O5 0.877996 0.606801 0.866551
O O6 0.840048 0.992203 0.744760
O O7 0.914076 0.513976 0.174391
O O8 0.466556 0.698115 0.318370
O O9 0.500000 0.000000 0.500000
O O10 0.250000 0.750000 0.000000
#
# Coordination Sequence:
#
# PCOD9280033 Si02
#       5
#     8   8   8   4   8
#     4  10  21  41  64  93 133 176 225 279 332 399
#     4  10  21  36  63  94 130 175 222 281 324 392
#     4  11  17  35  61  94 130 168 219 267 325 386
#     4  10  22  38  70  96 142 174 226 274 334 404
#     4  10  22  42  66  95 133 177 226 279 339 403
#
# _framework density 26.844066000000002
#
# number of rings (size 3 to 8) (size 9 to 14) (size 15 to 20)
#    0.000    1.778    4.444    1.333    0.000    2.667 
#    0.000   16.667    0.000    0.000    0.000    0.000 
#    0.000    0.000    0.000    0.000    0.000    0.000 
#
# Total GULP energy -100903.471448 kJ/mol
# GULP energy per Si atom -5605.748414 kJ/mol
# Density = 2.678297 g / cm^3
# Si number density = 26.844066 Si / 1000 Ang^3
#
#
#
# Elastic Constant Matrix: (Units=GPa)
#
#
# Indices 1 2 3 4 5 6 
#
# 1 151.7525 3.0330 -5.3659 0.0000 -26.8909 0.0000
# 2 3.0330 93.4166 15.5320 0.0000 0.7485 0.0000
# 3 -5.3659 15.5320 136.8278 0.0000 -0.3596 0.0000
# 4 0.0000 0.0000 0.0000 39.9793 0.0000 2.1425
# 5 -26.8909 0.7485 -0.3596 0.0000 67.1692 0.0000
# 6 0.0000 0.0000 0.0000 2.1425 0.0000 12.6815
#
#
#
# Elastic Compliance Matrix: (Units=1/GPa)
#
#
# Indices 1 2 3 4 5 6 
#
# 1 0.007113 -0.000307 0.000321 0.000000 0.002853 0.000000
# 2 -0.000307 0.010925 -0.001253 0.000000 -0.000251 0.000000
# 3 0.000321 -0.001253 0.007464 0.000000 0.000183 0.000000
# 4 0.000000 0.000000 0.000000 0.025241 0.000000 -0.004265
# 5 0.002853 -0.000251 0.000183 0.000000 0.016034 0.000000
# 6 0.000000 0.000000 0.000000 -0.004265 0.000000 0.079576
#
#
# Mechanical properties :
#
#
# Convention : Reuss Voigt Hill
#
# Bulk Modulus (GPa) = 43.43304 45.37720 44.40512
# Shear Modulus (GPa) = 31.94798 48.55252 40.25025
#
# Velocity S-wave (km/s) = 3.45357 4.25748 3.87642
# Velocity P-wave (km/s) = 5.66725 6.41162 6.05089
#
# Compressibility (1/GPa) = 0.02302395
#
# Stress axis : x y z
#
# Youngs Moduli (GPa) = 140.59395 91.53293 133.98078
#
# Poissons Ratio (x) = 0.02812 -0.04305
# Poissons Ratio (y) = 0.04319 0.16786
# Poissons Ratio (z) = -0.04517 0.11468
#
# Static dielectric constant tensor:
#      x y z
#    x 2.131210 0.000000 0.043570 
#    y 0.000000 2.123610 0.000000 
#    z 0.043570 0.000000 2.032080 
# 
# From -- ./inp_files/54584.got.cif
#   From: 2010.05.17/outbox.cif.g08.bks.cpg/sg15_28_cif.got.tgz:54584.got - 2010.06.03 18:47:42.
