data_PCOD9280383
_publ_section_title
;
Structure prediction by ZEFSAII (Michael W. Deem and Ramdas Pophale) SiO2 
 PCOD9280383
Probable space group: C 2/C
;
_chemical_formula_sum "Si O2"
_cell_formula_units_Z 40
_cell_length_a 21.367444
_cell_length_b 9.739546
_cell_length_c 8.810721
_cell_angle_alpha 90.000000
_cell_angle_beta 114.150146
_cell_angle_gamma 90.000000
_cell_volume 1673.109642
_symmetry_space_group_name_H-M "C 2/C"
_symmetry_group_IT_number 15
_symmetry_cell_setting 'monoclinic'
loop_
_space_group_symop_operation_xyz
x,y,z
-x,y,1/2-z
-x,-y,-z
x,-y,1/2+z
1/2+x,1/2+y,z
1/2-x,1/2+y,1/2-z
1/2-x,1/2-y,-z
1/2+x,1/2-y,1/2+z
loop_
_atom_site_type_symbol
_atom_site_label
_atom_site_fract_x
_atom_site_fract_y
_atom_site_fract_z
Si Si1 0.744126 0.367024 0.162556
Si Si2 0.552171 0.120954 0.102778
Si Si3 0.381369 0.937447 0.127091
Si Si4 0.182874 0.907973 0.791500
Si Si5 0.461378 0.679037 0.355390
O O1 0.808172 0.432289 0.133712
O O2 0.772126 0.217071 0.231957
O O3 0.718507 0.451930 0.279167
O O4 0.685852 0.374203 0.974343
O O5 0.581497 0.081209 0.295549
O O6 0.614285 0.097898 0.044905
O O7 0.514787 0.264253 0.032643
O O8 0.500000 0.000000 0.000000
O O9 0.426615 0.817541 0.250027
O O10 0.104669 0.904382 0.657232
O O11 0.500000 0.613078 0.250000
#
# Coordination Sequence:
#
# PCOD9280383 Si02
#       5
#     8   8   8   8   8
#     4  10  21  37  59  87 118 155 196 243 299 353
#     4   9  15  26  47  76 107 139 179 234 290 333
#     4   9  16  28  50  79 108 140 187 243 287 329
#     4  10  21  38  59  85 118 156 198 243 294 352
#     4   8  16  31  52  75 106 148 187 227 281 344
#
# _framework density 23.907578000000001
#
# number of rings (size 3 to 8) (size 9 to 14) (size 15 to 20)
#    0.000    2.800    0.000    3.000    0.000    2.400 
#    0.000    3.000    0.000   12.000    0.000    1.400 
#    0.000    0.000    0.000    0.000    0.000    0.000 
#
# Total GULP energy -111640.240481 kJ/mol
# GULP energy per Si atom -5582.012024 kJ/mol
# Density = 2.385316 g / cm^3
# Si number density = 23.907578 Si / 1000 Ang^3
#
#
#
# Elastic Constant Matrix: (Units=GPa)
#
#
# Indices 1 2 3 4 5 6 
#
# 1 80.5846 1.2943 6.1265 0.0000 6.7910 0.0000
# 2 1.2943 32.9797 6.4270 0.0000 -0.5201 0.0000
# 3 6.1265 6.4270 43.7798 0.0000 3.1474 0.0000
# 4 0.0000 0.0000 0.0000 21.2537 0.0000 -1.2787
# 5 6.7910 -0.5201 3.1474 0.0000 24.3714 0.0000
# 6 0.0000 0.0000 0.0000 -1.2787 0.0000 31.9384
#
#
#
# Elastic Compliance Matrix: (Units=1/GPa)
#
#
# Indices 1 2 3 4 5 6 
#
# 1 0.012813 -0.000262 -0.001512 0.000000 -0.003381 0.000000
# 2 -0.000262 0.031259 -0.004649 0.000000 0.001340 0.000000
# 3 -0.001512 -0.004649 0.023935 0.000000 -0.002769 0.000000
# 4 0.000000 0.000000 0.000000 0.047164 0.000000 0.001888
# 5 -0.003381 0.001340 -0.002769 0.000000 0.042360 0.000000
# 6 0.000000 0.000000 0.000000 0.001888 0.000000 0.031386
#
#
# Mechanical properties :
#
#
# Convention : Reuss Voigt Hill
#
# Bulk Modulus (GPa) = 18.12803 20.55997 19.34400
# Shear Modulus (GPa) = 22.71193 25.07911 23.89552
#
# Velocity S-wave (km/s) = 3.08553 3.24234 3.16491
# Velocity P-wave (km/s) = 4.50478 4.75768 4.63295
#
# Compressibility (1/GPa) = 0.05516319
#
# Stress axis : x y z
#
# Youngs Moduli (GPa) = 78.04363 31.99076 41.78050
#
# Poissons Ratio (x) = 0.00837 0.06316
# Poissons Ratio (y) = 0.02042 0.19422
# Poissons Ratio (z) = 0.11797 0.14871
#
# Static dielectric constant tensor:
#      x y z
#    x 1.988070 0.000000 0.064950 
#    y 0.000000 1.914870 0.000000 
#    z 0.064950 0.000000 1.974260 
# 
# From -- ./inp_files/60342.got.cif
#   From: 2010.05.17/outbox.cif.g08.bks.cpg/sg15_31_cif.got.tgz:60342.got - 2010.06.03 18:47:42.
