data_PCOD9280256
_publ_section_title
;
Structure prediction by ZEFSAII (Michael W. Deem and Ramdas Pophale) SiO2 
 PCOD9280256
Probable space group: C 2/C
;
_chemical_formula_sum "Si O2"
_cell_formula_units_Z 40
_cell_length_a 24.551815
_cell_length_b 6.830462
_cell_length_c 9.044659
_cell_angle_alpha 90.000000
_cell_angle_beta 84.654983
_cell_angle_gamma 90.000000
_cell_volume 1510.196191
_symmetry_space_group_name_H-M "C 2/C"
_symmetry_group_IT_number 15
_symmetry_cell_setting 'monoclinic'
loop_
_space_group_symop_operation_xyz
x,y,z
-x,y,1/2-z
-x,-y,-z
x,-y,1/2+z
1/2+x,1/2+y,z
1/2-x,1/2+y,1/2-z
1/2-x,1/2-y,-z
1/2+x,1/2-y,1/2+z
loop_
_atom_site_type_symbol
_atom_site_label
_atom_site_fract_x
_atom_site_fract_y
_atom_site_fract_z
Si Si1 0.605505 0.484639 0.088761
Si Si2 0.091072 0.741128 0.334620
Si Si3 0.500000 0.000000 0.000000
Si Si4 0.690116 0.991191 0.939779
Si Si5 0.500000 0.306097 0.750000
Si Si6 0.295799 0.268313 0.798836
O O1 0.602895 0.266577 0.157367
O O2 0.550054 0.572842 0.172589
O O3 0.658774 0.587138 0.146461
O O4 0.603802 0.556746 0.920896
O O5 0.031671 0.670652 0.394483
O O6 0.131969 0.586439 0.398473
O O7 0.480007 0.835618 0.125202
O O8 0.737506 0.858799 0.852202
O O9 0.698054 0.209045 0.874059
O O10 0.696301 0.932032 0.108725
#
# Coordination Sequence:
#
# PCOD9280256 Si02
#       6
#     8   8   4   8   4   8
#     4  10  22  38  57  84 116 148 194 239 289 347
#     4  10  22  39  59  86 117 153 193 241 291 348
#     4  10  22  38  58  82 114 150 192 236 290 344
#     4  10  21  37  58  84 117 151 193 239 290 347
#     4  10  22  38  56  84 114 150 194 240 288 348
#     4  10  21  37  57  85 116 151 193 241 289 348
#
# _framework density 26.486623999999999
#
# number of rings (size 3 to 8) (size 9 to 14) (size 15 to 20)
#    0.000    2.000    0.000    2.400    0.000    8.000 
#    0.000    0.000    0.000    0.000    0.000    0.000 
#    0.000    0.000    0.000    0.000    0.000    0.000 
#
# Total GULP energy -111444.479172 kJ/mol
# GULP energy per Si atom -5572.223959 kJ/mol
# Density = 2.642634 g / cm^3
# Si number density = 26.486624 Si / 1000 Ang^3
#
#
#
# Elastic Constant Matrix: (Units=GPa)
#
#
# Indices 1 2 3 4 5 6 
#
# 1 47.7624 2.7682 36.1478 0.0000 8.2306 0.0000
# 2 2.7682 50.8924 16.3104 0.0000 8.2349 0.0000
# 3 36.1478 16.3104 94.0239 0.0000 -2.6311 0.0000
# 4 0.0000 0.0000 0.0000 67.1602 0.0000 -10.1584
# 5 8.2306 8.2349 -2.6311 0.0000 27.5028 0.0000
# 6 0.0000 0.0000 0.0000 -10.1584 0.0000 28.7967
#
#
#
# Elastic Compliance Matrix: (Units=1/GPa)
#
#
# Indices 1 2 3 4 5 6 
#
# 1 0.033514 0.004757 -0.014068 0.000000 -0.012800 0.000000
# 2 0.004757 0.022746 -0.006021 0.000000 -0.008810 0.000000
# 3 -0.014068 -0.006021 0.017303 0.000000 0.007668 0.000000
# 4 0.000000 0.000000 0.000000 0.015729 0.000000 0.005549
# 5 -0.012800 -0.008810 0.007668 0.000000 0.043562 0.000000
# 6 0.000000 0.000000 0.000000 0.005549 0.000000 0.036684
#
#
# Mechanical properties :
#
#
# Convention : Reuss Voigt Hill
#
# Bulk Modulus (GPa) = 23.31081 33.68127 28.49604
# Shear Modulus (GPa) = 23.30991 33.85543 28.58267
#
# Velocity S-wave (km/s) = 2.96980 3.57908 3.28858
# Velocity P-wave (km/s) = 4.53649 5.46111 5.02013
#
# Compressibility (1/GPa) = 0.04289855
#
# Stress axis : x y z
#
# Youngs Moduli (GPa) = 29.83835 43.96419 57.79315
#
# Poissons Ratio (x) = -0.20913 0.81303
# Poissons Ratio (y) = -0.14193 0.34797
# Poissons Ratio (z) = 0.41976 0.26471
#
# Static dielectric constant tensor:
#      x y z
#    x 2.028920 0.000000 0.050700 
#    y 0.000000 2.138660 0.000000 
#    z 0.050700 0.000000 2.035500 
# 
# From -- ./inp_files/60053.got.cif
#   From: 2010.05.17/outbox.cif.g08.bks.cpg/sg15_31_cif.got.tgz:60053.got - 2010.06.03 18:47:42.
