data_PCOD9280623
_publ_section_title
;
Structure prediction by ZEFSAII (Michael W. Deem and Ramdas Pophale) SiO2 
 PCOD9280623
Probable space group: C 2/C
;
_chemical_formula_sum "Si O2"
_cell_formula_units_Z 24
_cell_length_a 9.171279
_cell_length_b 5.167398
_cell_length_c 23.813222
_cell_angle_alpha 90.000000
_cell_angle_beta 48.067229
_cell_angle_gamma 90.000000
_cell_volume 839.559983
_symmetry_space_group_name_H-M "C 2/C"
_symmetry_group_IT_number 15
_symmetry_cell_setting 'monoclinic'
loop_
_space_group_symop_operation_xyz
x,y,z
-x,y,1/2-z
-x,-y,-z
x,-y,1/2+z
1/2+x,1/2+y,z
1/2-x,1/2+y,1/2-z
1/2-x,1/2-y,-z
1/2+x,1/2-y,1/2+z
loop_
_atom_site_type_symbol
_atom_site_label
_atom_site_fract_x
_atom_site_fract_y
_atom_site_fract_z
Si Si1 0.785134 0.277873 0.277363
Si Si2 0.228334 0.916486 0.949155
Si Si3 0.696623 0.075844 0.415155
O O1 0.793034 0.791652 0.385601
O O2 0.000000 0.289477 0.250000
O O3 0.729041 0.547812 0.263961
O O4 0.657070 0.192038 0.364366
O O5 0.817025 0.703953 0.918509
O O6 0.000000 0.000000 0.000000
O O7 0.750000 0.750000 0.500000
O O8 0.500000 0.000000 0.500000
#
# Coordination Sequence:
#
# PCOD9280623 Si02
#       3
#     8   8   8
#     4  12  28  50  74 107 150 196 243 302 372 440
#     4  10  21  37  61  97 134 171 224 291 349 408
#     4  10  23  43  70 102 138 187 241 297 355 430
#
# _framework density 28.586404000000002
#
# number of rings (size 3 to 8) (size 9 to 14) (size 15 to 20)
#    0.000    1.333    0.000    4.000    0.000   16.000 
#    0.000    0.000    0.000    0.000    0.000    0.000 
#    0.000    0.000    0.000    0.000    0.000    0.000 
#
# Total GULP energy -67179.215664 kJ/mol
# GULP energy per Si atom -5598.267972 kJ/mol
# Density = 2.852134 g / cm^3
# Si number density = 28.586404 Si / 1000 Ang^3
#
#
#
# Elastic Constant Matrix: (Units=GPa)
#
#
# Indices 1 2 3 4 5 6 
#
# 1 171.3119 79.8288 36.4505 0.0016 16.6326 0.0017
# 2 79.8288 309.0532 23.5852 0.0048 19.9376 0.0053
# 3 36.4505 23.5852 141.7753 0.0005 15.0815 0.0016
# 4 0.0016 0.0048 0.0005 48.8220 0.0007 24.8155
# 5 16.6326 19.9376 15.0815 0.0007 49.7208 0.0013
# 6 0.0017 0.0053 0.0016 24.8155 0.0013 65.6708
#
#
#
# Elastic Compliance Matrix: (Units=1/GPa)
#
#
# Indices 1 2 3 4 5 6 
#
# 1 0.007015 -0.001623 -0.001398 0.000000 -0.001272 0.000000
# 2 -0.001623 0.003722 -0.000104 0.000000 -0.000918 0.000000
# 3 -0.001398 -0.000104 0.007622 0.000000 -0.001802 0.000000
# 4 0.000000 0.000000 0.000000 0.025352 0.000000 -0.009580
# 5 -0.001272 -0.000918 -0.001802 0.000000 0.021452 0.000000
# 6 0.000000 0.000000 0.000000 -0.009580 0.000000 0.018848
#
#
# Mechanical properties :
#
#
# Convention : Reuss Voigt Hill
#
# Bulk Modulus (GPa) = 82.59296 100.20771 91.40034
# Shear Modulus (GPa) = 53.02363 64.99443 59.00903
#
# Velocity S-wave (km/s) = 4.31147 4.77342 4.54831
# Velocity P-wave (km/s) = 7.33077 8.09389 7.72176
#
# Compressibility (1/GPa) = 0.01210757
#
# Stress axis : x y z
#
# Youngs Moduli (GPa) = 142.55940 268.66374 131.19985
#
# Poissons Ratio (x) = 0.43608 0.18344
# Poissons Ratio (y) = 0.23140 0.01368
# Poissons Ratio (z) = 0.19932 0.02800
#
# Static dielectric constant tensor:
#      x y z
#    x 2.803640 0.000000 -0.161320 
#    y 0.000000 2.514340 0.000000 
#    z -0.161320 0.000000 2.426160 
# 
# From -- ./inp_files/229126.got.cif
#   From: 2010.05.17/outbox.cif.g08.bks.cpg/sg15_115_cif.got.tgz:229126.got - 2010.06.03 18:47:42.
