data_PCOD9280540
_publ_section_title
;
Structure prediction by ZEFSAII (Michael W. Deem and Ramdas Pophale) SiO2 
 PCOD9280540
Probable space group: C 2/C
;
_chemical_formula_sum "Si O2"
_cell_formula_units_Z 36
_cell_length_a 7.036818
_cell_length_b 13.963373
_cell_length_c 22.993258
_cell_angle_alpha 90.000000
_cell_angle_beta 48.802303
_cell_angle_gamma 90.000000
_cell_volume 1699.964468
_symmetry_space_group_name_H-M "C 2/C"
_symmetry_group_IT_number 15
_symmetry_cell_setting 'monoclinic'
loop_
_space_group_symop_operation_xyz
x,y,z
-x,y,1/2-z
-x,-y,-z
x,-y,1/2+z
1/2+x,1/2+y,z
1/2-x,1/2+y,1/2-z
1/2-x,1/2-y,-z
1/2+x,1/2-y,1/2+z
loop_
_atom_site_type_symbol
_atom_site_label
_atom_site_fract_x
_atom_site_fract_y
_atom_site_fract_z
Si Si1 0.555805 0.232046 0.126317
Si Si2 0.255309 0.605330 0.470180
Si Si3 0.775965 0.104869 0.991200
Si Si4 0.532388 0.786733 0.371389
Si Si5 0.500000 0.758936 0.250000
O O1 0.723836 0.146056 0.065942
O O2 0.693901 0.280058 0.153453
O O3 0.266708 0.203416 0.194104
O O4 0.566505 0.314614 0.074635
O O5 0.370630 0.502031 0.461283
O O6 0.429605 0.678740 0.400272
O O7 0.002344 0.600892 0.482002
O O8 0.152698 0.650059 0.551300
O O9 0.525669 0.815260 0.305634
#
# Coordination Sequence:
#
# PCOD9280540 Si02
#       5
#     8   8   8   8   4
#     4  10  21  37  61  86 113 154 192 233 289 338
#     4   9  18  37  64  88 113 148 195 241 279 336
#     4   9  18  37  64  88 113 148 195 241 279 336
#     4  10  21  37  61  86 113 154 192 233 289 338
#     4  12  22  40  56  82 124 156 178 248 284 346
#
# _framework density 21.176915000000001
#
# number of rings (size 3 to 8) (size 9 to 14) (size 15 to 20)
#    0.000    2.222    2.222    0.667    3.111    0.889 
#    0.000    2.222    0.000    0.000    0.000    0.000 
#    0.000    0.000    0.000    0.000    0.000    0.000 
#
# Total GULP energy -100393.066428 kJ/mol
# GULP energy per Si atom -5577.392579 kJ/mol
# Density = 2.112872 g / cm^3
# Si number density = 21.176915 Si / 1000 Ang^3
#
#
#
# Elastic Constant Matrix: (Units=GPa)
#
#
# Indices 1 2 3 4 5 6 
#
# 1 93.6284 -12.2250 34.8846 -0.0001 11.4594 -0.0001
# 2 -12.2250 93.6173 3.6196 -0.0004 -9.3360 0.0002
# 3 34.8846 3.6196 81.2976 -0.0009 5.4093 0.0003
# 4 -0.0001 -0.0004 -0.0009 6.0938 0.0002 -1.6585
# 5 11.4594 -9.3360 5.4093 0.0002 49.0905 0.0000
# 6 -0.0001 0.0002 0.0003 -1.6585 0.0000 20.8274
#
#
#
# Elastic Compliance Matrix: (Units=1/GPa)
#
#
# Indices 1 2 3 4 5 6 
#
# 1 0.013266 0.001736 -0.005627 0.000000 -0.002147 0.000000
# 2 0.001736 0.011147 -0.001365 0.000001 0.001865 0.000000
# 3 -0.005627 -0.001365 0.014814 0.000002 -0.000578 0.000000
# 4 0.000000 0.000001 0.000002 0.167735 -0.000001 0.013357
# 5 -0.002147 0.001865 -0.000578 -0.000001 0.021290 0.000000
# 6 0.000000 0.000000 0.000000 0.013357 0.000000 0.049077
#
#
# Mechanical properties :
#
#
# Convention : Reuss Voigt Hill
#
# Bulk Modulus (GPa) = 34.82481 35.67796 35.25138
# Shear Modulus (GPa) = 16.81150 31.35329 24.08240
#
# Velocity S-wave (km/s) = 2.82061 3.85195 3.37590
# Velocity P-wave (km/s) = 5.20463 6.05537 5.64605
#
# Compressibility (1/GPa) = 0.02871516
#
# Stress axis : x y z
#
# Youngs Moduli (GPa) = 75.37802 89.70812 67.50230
#
# Poissons Ratio (x) = -0.15572 0.37984
# Poissons Ratio (y) = -0.13085 0.09216
# Poissons Ratio (z) = 0.42416 0.12248
#
# Static dielectric constant tensor:
#      x y z
#    x 1.866630 0.000000 0.018560 
#    y 0.000000 1.758820 0.000000 
#    z 0.018560 0.000000 1.760090 
# 
# From -- ./inp_files/230399.got.cif
#   From: 2010.05.17/outbox.cif.g08.bks.cpg/sg15_116_cif.got.tgz:230399.got - 2010.06.03 18:47:42.
