data_PCOD9280526
_publ_section_title
;
Structure prediction by ZEFSAII (Michael W. Deem and Ramdas Pophale) SiO2 
 PCOD9280526
Probable space group: C 2/C
;
_chemical_formula_sum "Si O2"
_cell_formula_units_Z 44
_cell_length_a 11.615167
_cell_length_b 17.173673
_cell_length_c 14.628150
_cell_angle_alpha 90.000000
_cell_angle_beta 139.679097
_cell_angle_gamma 90.000000
_cell_volume 1888.112905
_symmetry_space_group_name_H-M "C 2/C"
_symmetry_group_IT_number 15
_symmetry_cell_setting 'monoclinic'
loop_
_space_group_symop_operation_xyz
x,y,z
-x,y,1/2-z
-x,-y,-z
x,-y,1/2+z
1/2+x,1/2+y,z
1/2-x,1/2+y,1/2-z
1/2-x,1/2-y,-z
1/2+x,1/2-y,1/2+z
loop_
_atom_site_type_symbol
_atom_site_label
_atom_site_fract_x
_atom_site_fract_y
_atom_site_fract_z
Si Si1 0.134610 0.595119 0.747353
Si Si2 0.041797 0.119015 0.016408
Si Si3 0.824922 0.903085 0.701133
Si Si4 0.342821 0.834221 0.577981
Si Si5 0.500000 0.000000 0.000000
Si Si6 0.499078 0.197305 0.986829
O O1 0.000000 0.605663 0.750000
O O2 0.057065 0.526845 0.638642
O O3 0.114185 0.670449 0.668270
O O4 0.344308 0.583757 0.892282
O O5 0.131255 0.098039 0.165819
O O6 0.187074 0.110520 0.023019
O O7 0.013976 0.212500 0.003365
O O8 0.700346 0.830004 0.598980
O O9 0.000000 0.899702 0.750000
O O10 0.706818 0.976460 0.604894
O O11 0.500000 0.826849 0.750000
O O12 0.250000 0.750000 0.500000
O O13 0.429893 0.854519 0.532131
#
# Coordination Sequence:
#
# PCOD9280526 Si02
#       6
#     8   8   8   8   4   8
#     4  11  25  46  69  97 135 179 228 288 339 413
#     4  11  22  38  70 106 137 175 222 272 351 415
#     4  11  23  44  69  97 134 177 225 285 340 410
#     4  10  21  37  60  97 147 181 214 266 315 413
#     4  10  26  52  62  88 136 176 232 284 328 384
#     4  10  22  40  66 104 147 171 208 276 350 419
#
# _framework density 23.30369
#
# number of rings (size 3 to 8) (size 9 to 14) (size 15 to 20)
#    0.000    1.455    1.818    3.273    7.636    5.091 
#   13.091    0.000    0.000    0.000    0.000    0.000 
#    0.000    0.000    0.000    0.000    0.000    0.000 
#
# Total GULP energy -122506.743601 kJ/mol
# GULP energy per Si atom -5568.488346 kJ/mol
# Density = 2.325065 g / cm^3
# Si number density = 23.303690 Si / 1000 Ang^3
#
#
#
# Elastic Constant Matrix: (Units=GPa)
#
#
# Indices 1 2 3 4 5 6 
#
# 1 129.5510 14.8558 21.8743 0.0002 38.2993 0.0000
# 2 14.8558 36.6280 2.4688 0.0001 -1.3853 0.0000
# 3 21.8743 2.4688 135.8419 0.0005 25.7993 0.0001
# 4 0.0002 0.0001 0.0005 28.4992 0.0003 3.7196
# 5 38.2993 -1.3853 25.7993 0.0003 40.3879 0.0000
# 6 0.0000 0.0000 0.0001 3.7196 0.0000 17.7280
#
#
#
# Elastic Compliance Matrix: (Units=1/GPa)
#
#
# Indices 1 2 3 4 5 6 
#
# 1 0.011635 -0.005180 0.000398 0.000000 -0.011465 0.000000
# 2 -0.005180 0.029713 -0.000947 0.000000 0.006536 0.000000
# 3 0.000398 -0.000947 0.008413 0.000000 -0.005784 0.000000
# 4 0.000000 0.000000 0.000000 0.036077 0.000000 -0.007569
# 5 -0.011465 0.006536 -0.005784 0.000000 0.039552 0.000000
# 6 0.000000 0.000000 0.000000 -0.007569 0.000000 0.057996
#
#
# Mechanical properties :
#
#
# Convention : Reuss Voigt Hill
#
# Bulk Modulus (GPa) = 26.10677 42.26874 34.18776
# Shear Modulus (GPa) = 24.08343 34.84447 29.46395
#
# Velocity S-wave (km/s) = 3.21823 3.87102 3.55962
# Velocity P-wave (km/s) = 5.00365 6.17716 5.62112
#
# Compressibility (1/GPa) = 0.03830424
#
# Stress axis : x y z
#
# Youngs Moduli (GPa) = 85.94572 33.65496 118.86135
#
# Poissons Ratio (x) = 0.17432 -0.04732
# Poissons Ratio (y) = 0.44516 0.11259
# Poissons Ratio (z) = -0.03421 0.03188
#
# Static dielectric constant tensor:
#      x y z
#    x 1.914800 0.000000 -0.003930 
#    y 0.000000 1.927530 0.000000 
#    z -0.003930 0.000000 1.791440 
# 
# From -- ./inp_files/147934.got.cif
#   From: 2010.05.17/outbox.cif.g08.bks.cpg/sg15_74_cif.got.tgz:147934.got - 2010.06.03 18:47:42.
