data_PCOD9280150
_publ_section_title
;
Structure prediction by ZEFSAII (Michael W. Deem and Ramdas Pophale) SiO2 
 PCOD9280150
Probable space group: C 2/C
;
_chemical_formula_sum "Si O2"
_cell_formula_units_Z 60
_cell_length_a 29.444685
_cell_length_b 12.632976
_cell_length_c 7.593677
_cell_angle_alpha 90.000000
_cell_angle_beta 65.725705
_cell_angle_gamma 90.000000
_cell_volume 2574.916860
_symmetry_space_group_name_H-M "C 2/C"
_symmetry_group_IT_number 15
_symmetry_cell_setting 'monoclinic'
loop_
_space_group_symop_operation_xyz
x,y,z
-x,y,1/2-z
-x,-y,-z
x,-y,1/2+z
1/2+x,1/2+y,z
1/2-x,1/2+y,1/2-z
1/2-x,1/2-y,-z
1/2+x,1/2-y,1/2+z
loop_
_atom_site_type_symbol
_atom_site_label
_atom_site_fract_x
_atom_site_fract_y
_atom_site_fract_z
Si Si1 0.882480 0.420315 0.253556
Si Si2 0.329874 0.579718 0.266592
Si Si3 0.401889 0.575230 0.441800
Si Si4 0.976503 0.786635 0.984059
Si Si5 0.047793 0.574700 0.561783
Si Si6 0.741625 0.579803 0.402093
Si Si7 0.812428 0.582569 0.575639
Si Si8 0.000000 0.936124 0.250000
O O1 0.912810 0.369822 0.365872
O O2 0.850447 0.513117 0.397925
O O3 0.845497 0.362425 0.175701
O O4 0.924454 0.478347 0.071326
O O5 0.367827 0.630119 0.346950
O O6 0.292641 0.637848 0.189317
O O7 0.294634 0.498686 0.431347
O O8 0.366854 0.508985 0.091702
O O9 0.423146 0.657806 0.547763
O O10 0.451233 0.509460 0.303344
O O11 0.969151 0.665255 0.046731
O O12 0.000000 0.783887 0.750000
O O13 0.006202 0.858985 0.072946
O O14 0.000000 0.541982 0.750000
O O15 0.776123 0.638298 0.491787
O O16 0.778097 0.502399 0.233734
#
# Coordination Sequence:
#
# PCOD9280150 Si02
#       8
#     8   8   8   8   8   8   8   4
#     4   9  17  33  56  80 101 144 181 225 286 335
#     4   9  17  25  48  78 112 139 180 228 274 324
#     4  11  18  33  53  78 112 153 190 226 267 327
#     4  11  23  38  54  81 112 154 199 234 272 326
#     4  10  21  37  54  80 114 143 184 235 282 332
#     4   8  14  26  43  82 109 129 172 242 267 315
#     4   8  14  27  52  77 104 129 181 233 262 342
#     4  12  22  38  58  78 116 162 198 228 270 318
#
# _framework density 23.301722000000002
#
# number of rings (size 3 to 8) (size 9 to 14) (size 15 to 20)
#    0.000    2.400    2.000    1.600    0.000    0.000 
#   10.800    0.000    0.000    0.000    0.000  117.600 
#    0.000    0.000    0.000    0.000    0.000    0.000 
#
# Total GULP energy -167155.238046 kJ/mol
# GULP energy per Si atom -5571.841268 kJ/mol
# Density = 2.324869 g / cm^3
# Si number density = 23.301722 Si / 1000 Ang^3
#
#
#
# Elastic Constant Matrix: (Units=GPa)
#
#
# Indices 1 2 3 4 5 6 
#
# 1 154.0448 19.2110 26.1016 0.0000 27.1672 0.0000
# 2 19.2110 42.0396 4.3425 0.0000 1.7452 0.0000
# 3 26.1016 4.3425 62.8884 0.0000 -5.9595 0.0000
# 4 0.0000 0.0000 0.0000 -1.2289 0.0000 16.2946
# 5 27.1672 1.7452 -5.9595 0.0000 55.1669 0.0000
# 6 0.0000 0.0000 0.0000 16.2946 0.0000 11.0519
#
#
#
# Elastic Compliance Matrix: (Units=1/GPa)
#
#
# Indices 1 2 3 4 5 6 
#
# 1 0.008279 -0.003227 -0.003627 0.000000 -0.004367 0.000000
# 2 -0.003227 0.025265 -0.000334 0.000000 0.000754 0.000000
# 3 -0.003627 -0.000334 0.017782 0.000000 0.003718 0.000000
# 4 0.000000 0.000000 0.000000 -0.039599 0.000000 0.058384
# 5 -0.004367 0.000754 0.003718 0.000000 0.020655 0.000000
# 6 0.000000 0.000000 0.000000 0.058384 0.000000 0.004403
#
#
# Mechanical properties :
#
#
# Convention : Reuss Voigt Hill
#
# Bulk Modulus (GPa) = 27.06373 39.80922 33.43648
# Shear Modulus (GPa) = 78.76873 26.95250 52.86062
#
# Velocity S-wave (km/s) = 5.82041 3.40468 4.76807
# Velocity P-wave (km/s) = 7.53719 5.70764 6.68530
#
# Compressibility (1/GPa) = 0.03694982
#
# Stress axis : x y z
#
# Youngs Moduli (GPa) = 120.79112 39.58035 56.23702
#
# Poissons Ratio (x) = 0.12774 0.20397
# Poissons Ratio (y) = 0.38982 0.01876
# Poissons Ratio (z) = 0.43811 0.01321
#
# Static dielectric constant tensor:
#      x y z
#    x 2.000200 0.000000 0.078890 
#    y 0.000000 1.831310 0.000000 
#    z 0.078890 0.000000 1.898730 
# 
# From -- ./inp_files/69710.got.cif
#   From: 2010.05.17/outbox.cif.g08.bks.cpg/sg15_35_cif.got.tgz:69710.got - 2010.06.03 18:47:42.
