data_PCOD9280509
_publ_section_title
;
Structure prediction by ZEFSAII (Michael W. Deem and Ramdas Pophale) SiO2 
 PCOD9280509
Probable space group: C 2/C
;
_chemical_formula_sum "Si O2"
_cell_formula_units_Z 52
_cell_length_a 14.732070
_cell_length_b 17.797945
_cell_length_c 17.066261
_cell_angle_alpha 90.000000
_cell_angle_beta 148.103374
_cell_angle_gamma 90.000000
_cell_volume 2364.423367
_symmetry_space_group_name_H-M "C 2/C"
_symmetry_group_IT_number 15
_symmetry_cell_setting 'monoclinic'
loop_
_space_group_symop_operation_xyz
x,y,z
-x,y,1/2-z
-x,-y,-z
x,-y,1/2+z
1/2+x,1/2+y,z
1/2-x,1/2+y,1/2-z
1/2-x,1/2-y,-z
1/2+x,1/2-y,1/2+z
loop_
_atom_site_type_symbol
_atom_site_label
_atom_site_fract_x
_atom_site_fract_y
_atom_site_fract_z
Si Si1 0.975514 0.990148 0.074893
Si Si2 0.639566 0.732738 0.291309
Si Si3 0.000000 0.744285 0.250000
Si Si4 0.494426 0.788514 0.473441
Si Si5 0.680281 0.094782 0.844237
Si Si6 0.853541 0.823563 0.992661
Si Si7 0.347338 0.944919 0.361653
O O1 0.880550 0.911318 0.012670
O O2 0.163581 0.980290 0.250145
O O3 0.846129 0.055917 0.003931
O O4 0.000000 0.000000 0.000000
O O5 0.500000 0.702330 0.250000
O O6 0.566321 0.754106 0.153024
O O7 0.810768 0.685813 0.400284
O O8 0.695118 0.815313 0.364201
O O9 0.910750 0.793948 0.118874
O O10 0.156121 0.695889 0.329398
O O11 0.474845 0.721460 0.521100
O O12 0.383713 0.860385 0.419707
O O13 0.500000 0.071764 0.750000
O O14 0.664233 0.070770 0.740877
O O15 0.500000 0.000000 0.500000
#
# Coordination Sequence:
#
# PCOD9280509 Si02
#       7
#     8   8   4   8   8   8   8
#     4  10  21  39  61  85 117 160 207 246 302 377
#     4  10  21  37  60  94 125 153 202 253 305 375
#     4  10  24  40  58  90 126 162 208 282 302 364
#     4  11  21  38  64  86 120 166 199 253 311 372
#     4   9  20  39  59  84 119 157 195 239 305 368
#     4  11  22  40  61  91 122 162 217 252 320 364
#     4  10  22  39  57  86 118 151 201 256 293 358
#
# _framework density 21.992677
#
# number of rings (size 3 to 8) (size 9 to 14) (size 15 to 20)
#    0.000    1.846    0.000    5.077    1.077    6.154 
#    5.538    0.000    0.000    0.000    2.000    0.000 
#    0.000    0.000    0.000    0.000    0.000    0.000 
#
# Total GULP energy -145278.157137 kJ/mol
# GULP energy per Si atom -5587.621428 kJ/mol
# Density = 2.194262 g / cm^3
# Si number density = 21.992677 Si / 1000 Ang^3
#
#
#
# Elastic Constant Matrix: (Units=GPa)
#
#
# Indices 1 2 3 4 5 6 
#
# 1 49.4973 2.5873 3.8998 0.0000 21.1593 -0.0004
# 2 2.5873 40.5656 15.9533 0.0017 0.0841 -0.0016
# 3 3.8998 15.9533 67.4687 -0.0037 21.6819 -0.0034
# 4 0.0000 0.0017 -0.0037 19.1164 0.0007 16.6794
# 5 21.1593 0.0841 21.6819 0.0007 35.4570 -0.0010
# 6 -0.0004 -0.0016 -0.0034 16.6794 -0.0010 10.1502
#
#
#
# Elastic Compliance Matrix: (Units=1/GPa)
#
#
# Indices 1 2 3 4 5 6 
#
# 1 0.028891 -0.004175 0.006042 -0.000005 -0.020926 0.000008
# 2 -0.004175 0.028458 -0.009044 0.000014 0.007955 -0.000022
# 3 0.006042 -0.009044 0.022107 -0.000004 -0.017103 0.000011
# 4 -0.000005 0.000014 -0.000004 -0.120596 0.000013 0.198171
# 5 -0.020926 0.007955 -0.017103 0.000013 0.051130 -0.000022
# 6 0.000008 -0.000022 0.000011 0.198171 -0.000022 -0.227125
#
#
# Mechanical properties :
#
#
# Convention : Reuss Voigt Hill
#
# Bulk Modulus (GPa) = 15.36069 22.49025 18.92547
# Shear Modulus (GPa) = -27.61204 21.95081 -2.83062
#
# Velocity S-wave (km/s) = -3.54716 3.16269 -1.13572
# Velocity P-wave (km/s) = 3.12680 4.85647 2.62759
#
# Compressibility (1/GPa) = 0.06510123
#
# Stress axis : x y z
#
# Youngs Moduli (GPa) = 34.61315 35.13950 45.23420
#
# Poissons Ratio (x) = 0.14672 -0.27331
# Poissons Ratio (y) = 0.14453 0.40910
# Poissons Ratio (z) = -0.20914 0.31780
#
# Static dielectric constant tensor:
#      x y z
#    x 1.800810 0.000000 0.026700 
#    y 0.000000 1.788840 0.000000 
#    z 0.026700 0.000000 1.834360 
# 
# From -- ./inp_files/48574.got.cif
#   From: 2010.05.17/outbox.cif.g08.bks.cpg/sg15_25_cif.got.tgz:48574.got - 2010.06.03 18:47:42.
