data_PCOD9280034
_publ_section_title
;
Structure prediction by ZEFSAII (Michael W. Deem and Ramdas Pophale) SiO2 
 PCOD9280034
Probable space group: C 2/C
;
_chemical_formula_sum "Si O2"
_cell_formula_units_Z 48
_cell_length_a 14.546866
_cell_length_b 11.203221
_cell_length_c 27.744165
_cell_angle_alpha 90.000000
_cell_angle_beta 154.145966
_cell_angle_gamma 90.000000
_cell_volume 1971.742237
_symmetry_space_group_name_H-M "C 2/C"
_symmetry_group_IT_number 15
_symmetry_cell_setting 'monoclinic'
loop_
_space_group_symop_operation_xyz
x,y,z
-x,y,1/2-z
-x,-y,-z
x,-y,1/2+z
1/2+x,1/2+y,z
1/2-x,1/2+y,1/2-z
1/2-x,1/2-y,-z
1/2+x,1/2-y,1/2+z
loop_
_atom_site_type_symbol
_atom_site_label
_atom_site_fract_x
_atom_site_fract_y
_atom_site_fract_z
Si Si1 0.780027 0.670184 0.908478
Si Si2 0.873796 0.050659 0.751940
Si Si3 0.558681 0.840225 0.917021
Si Si4 0.565553 0.321057 0.671114
Si Si5 0.360447 0.577655 0.397293
Si Si6 0.451155 0.938925 0.314793
O O1 0.556743 0.645558 0.829170
O O2 0.778927 0.576062 0.864673
O O3 0.750000 0.750000 0.000000
O O4 0.950041 0.646143 0.029529
O O5 0.821502 0.305583 0.791012
O O6 0.736949 0.063963 0.734698
O O7 0.979656 0.922450 0.810370
O O8 0.790900 0.803052 0.892657
O O9 0.605740 0.960640 0.909326
O O10 0.526557 0.370940 0.598437
O O11 0.468606 0.196374 0.643670
O O12 0.500000 0.500000 0.500000
O O13 0.166888 0.493656 0.287457
#
# Coordination Sequence:
#
# PCOD9280034 Si02
#       6
#     8   8   8   8   8   8
#     4  11  20  37  64  95 127 160 233 268 328 400
#     4   9  21  35  66  91 126 172 213 280 325 393
#     4  10  22  35  65  96 131 174 224 274 339 402
#     4  10  21  43  61  90 137 171 224 273 343 399
#     4  10  21  36  63  95 127 170 222 275 328 408
#     4  10  21  41  61  93 131 177 217 274 341 396
#
# _framework density 24.343952000000002
#
# number of rings (size 3 to 8) (size 9 to 14) (size 15 to 20)
#    0.000    2.333    1.667    2.000    7.000    4.000 
#    3.000    0.833    7.333    0.000    0.000    0.000 
#    0.000    0.000    0.000    0.000    0.000    0.000 
#
# Total GULP energy -133983.950043 kJ/mol
# GULP energy per Si atom -5582.664585 kJ/mol
# Density = 2.428854 g / cm^3
# Si number density = 24.343952 Si / 1000 Ang^3
#
#
#
# Elastic Constant Matrix: (Units=GPa)
#
#
# Indices 1 2 3 4 5 6 
#
# 1 68.3266 46.3949 52.5040 -0.0008 -4.0902 -0.0003
# 2 46.3949 210.7987 113.7287 -0.0001 -27.2812 0.0000
# 3 52.5040 113.7287 129.7778 -0.0029 -41.0699 -0.0010
# 4 -0.0008 -0.0001 -0.0029 45.0620 -0.0011 -0.1793
# 5 -4.0902 -27.2812 -41.0699 -0.0011 38.1213 -0.0002
# 6 -0.0003 0.0000 -0.0010 -0.1793 -0.0002 45.5895
#
#
#
# Elastic Compliance Matrix: (Units=1/GPa)
#
#
# Indices 1 2 3 4 5 6 
#
# 1 0.024573 0.000900 -0.014705 -0.000001 -0.012562 0.000000
# 2 0.000900 0.009282 -0.009659 -0.000001 -0.003666 0.000000
# 3 -0.014705 -0.009659 0.029485 0.000002 0.023275 0.000001
# 4 -0.000001 -0.000001 0.000002 0.022192 0.000002 0.000087
# 5 -0.012562 -0.003666 0.023275 0.000002 0.047336 0.000001
# 6 0.000000 0.000000 0.000001 0.000087 0.000001 0.021935
#
#
# Mechanical properties :
#
#
# Convention : Reuss Voigt Hill
#
# Bulk Modulus (GPa) = 60.93372 92.68424 76.80898
# Shear Modulus (GPa) = 24.13108 38.83959 31.48534
#
# Velocity S-wave (km/s) = 3.15184 3.99864 3.60022
# Velocity P-wave (km/s) = 6.19113 7.71196 6.99301
#
# Compressibility (1/GPa) = 0.01641127
#
# Stress axis : x y z
#
# Youngs Moduli (GPa) = 40.69587 107.73123 33.91584
#
# Poissons Ratio (x) = -0.09692 0.49874
# Poissons Ratio (y) = -0.03661 0.32758
# Poissons Ratio (z) = 0.59844 1.04054
#
# Static dielectric constant tensor:
#      x y z
#    x 1.976990 0.000000 -0.029370 
#    y 0.000000 2.127860 0.000000 
#    z -0.029370 0.000000 2.049220 
# 
# From -- ./inp_files/298796.got.cif
#   From: 2010.05.17/outbox.cif.g08.bks.cpg/sg15_150_cif.got.tgz:298796.got - 2010.06.03 18:47:42.
