data_PCOD9280889
_publ_section_title
;
Structure prediction by ZEFSAII (Michael W. Deem and Ramdas Pophale) SiO2 
 PCOD9280889
Probable space group: C 2/C
;
_chemical_formula_sum "Si O2"
_cell_formula_units_Z 40
_cell_length_a 15.758405
_cell_length_b 14.540878
_cell_length_c 7.228373
_cell_angle_alpha 90.000000
_cell_angle_beta 65.667047
_cell_angle_gamma 90.000000
_cell_volume 1509.180423
_symmetry_space_group_name_H-M "C 2/C"
_symmetry_group_IT_number 15
_symmetry_cell_setting 'monoclinic'
loop_
_space_group_symop_operation_xyz
x,y,z
-x,y,1/2-z
-x,-y,-z
x,-y,1/2+z
1/2+x,1/2+y,z
1/2-x,1/2+y,1/2-z
1/2-x,1/2-y,-z
1/2+x,1/2-y,1/2+z
loop_
_atom_site_type_symbol
_atom_site_label
_atom_site_fract_x
_atom_site_fract_y
_atom_site_fract_z
Si Si1 0.111353 0.378947 0.148989
Si Si2 0.071209 0.433793 0.821976
Si Si3 0.401408 0.615819 0.608675
Si Si4 0.388935 0.595032 0.057907
Si Si5 0.239502 0.745860 0.783319
O O1 0.130687 0.488379 0.167008
O O2 0.331139 0.303867 0.115655
O O3 0.162006 0.324487 0.264969
O O4 0.000000 0.358321 0.250000
O O5 0.000000 0.381552 0.750000
O O6 0.127470 0.372733 0.912776
O O7 0.000000 0.500000 0.000000
O O8 0.398181 0.618002 0.833828
O O9 0.509157 0.618867 0.451586
O O10 0.369054 0.513146 0.586847
O O11 0.310505 0.657695 0.217741
O O12 0.250000 0.750000 0.000000
#
# Coordination Sequence:
#
# PCOD9280889 Si02
#       5
#     8   8   8   8   8
#     4   9  17  32  56  88 126 177 221 271 351 420
#     4   7  13  28  54  81 120 167 221 254 332 435
#     4   9  19  39  68  95 128 178 233 278 350 418
#     4   9  19  40  68  93 129 182 227 283 345 419
#     4  10  21  37  65  98 137 173 234 296 345 416
#
# _framework density 26.504453000000002
#
# number of rings (size 3 to 8) (size 9 to 14) (size 15 to 20)
#    0.000    3.600    0.000    0.000    0.000    3.200 
#    7.200    1.000   92.400    0.000    0.000    0.000 
#    0.000    0.000    0.000    0.000    0.000    0.000 
#
# Total GULP energy -111548.351242 kJ/mol
# GULP energy per Si atom -5577.417562 kJ/mol
# Density = 2.644413 g / cm^3
# Si number density = 26.504453 Si / 1000 Ang^3
#
#
#
# Elastic Constant Matrix: (Units=GPa)
#
#
# Indices 1 2 3 4 5 6 
#
# 1 175.1823 106.8430 51.5876 0.0000 -3.5387 0.0000
# 2 106.8430 178.9739 18.1439 0.0000 -26.7752 0.0000
# 3 51.5876 18.1439 75.4415 0.0000 27.6760 0.0000
# 4 0.0000 0.0000 0.0000 22.0680 0.0000 10.2311
# 5 -3.5387 -26.7752 27.6760 0.0000 62.9807 0.0000
# 6 0.0000 0.0000 0.0000 10.2311 0.0000 42.5781
#
#
#
# Elastic Compliance Matrix: (Units=1/GPa)
#
#
# Indices 1 2 3 4 5 6 
#
# 1 0.011310 -0.005912 -0.006704 0.000000 0.001068 0.000000
# 2 -0.005912 0.009607 0.000424 0.000000 0.003566 0.000000
# 3 -0.006704 0.000424 0.021232 0.000000 -0.009526 0.000000
# 4 0.000000 0.000000 0.000000 0.050996 0.000000 -0.012254
# 5 0.001068 0.003566 -0.009526 0.000000 0.021640 0.000000
# 6 0.000000 0.000000 0.000000 -0.012254 0.000000 0.026431
#
#
# Mechanical properties :
#
#
# Convention : Reuss Voigt Hill
#
# Bulk Modulus (GPa) = 56.28774 86.97187 71.62980
# Shear Modulus (GPa) = 29.15092 42.39358 35.77225
#
# Velocity S-wave (km/s) = 3.32000 4.00370 3.67777
# Velocity P-wave (km/s) = 5.99831 7.36601 6.71706
#
# Compressibility (1/GPa) = 0.01776586
#
# Stress axis : x y z
#
# Youngs Moduli (GPa) = 88.41784 104.08599 47.09864
#
# Poissons Ratio (x) = 0.61540 0.31573
# Poissons Ratio (y) = 0.52276 -0.01998
# Poissons Ratio (z) = 0.59271 -0.04416
#
# Static dielectric constant tensor:
#      x y z
#    x 2.080190 0.000000 -0.054240 
#    y 0.000000 2.177100 0.000000 
#    z -0.054240 0.000000 2.343690 
# 
# From -- ./inp_files/85529.got.cif
#   From: 2010.05.17/outbox.cif.g08.bks.cpg/sg15_43_cif.got.tgz:85529.got - 2010.06.03 18:47:42.
