data_PCOD9280206
_publ_section_title
;
Structure prediction by ZEFSAII (Michael W. Deem and Ramdas Pophale) SiO2 
 PCOD9280206
Probable space group: C 2/C
;
_chemical_formula_sum "Si O2"
_cell_formula_units_Z 32
_cell_length_a 11.261843
_cell_length_b 23.489556
_cell_length_c 8.056070
_cell_angle_alpha 90.000000
_cell_angle_beta 48.026450
_cell_angle_gamma 90.000000
_cell_volume 1584.387479
_symmetry_space_group_name_H-M "C 2/C"
_symmetry_group_IT_number 15
_symmetry_cell_setting 'monoclinic'
loop_
_space_group_symop_operation_xyz
x,y,z
-x,y,1/2-z
-x,-y,-z
x,-y,1/2+z
1/2+x,1/2+y,z
1/2-x,1/2+y,1/2-z
1/2-x,1/2-y,-z
1/2+x,1/2-y,1/2+z
loop_
_atom_site_type_symbol
_atom_site_label
_atom_site_fract_x
_atom_site_fract_y
_atom_site_fract_z
Si Si1 0.601679 0.378646 0.993321
Si Si2 0.703515 0.577692 0.918259
Si Si3 0.313481 0.689569 0.382686
Si Si4 0.817709 0.530282 0.471470
O O1 0.500000 0.359119 0.250000
O O2 0.471999 0.409623 0.994246
O O3 0.269695 0.423642 0.562817
O O4 0.687875 0.328950 0.808864
O O5 0.804900 0.554531 0.668768
O O6 0.719861 0.528162 0.038680
O O7 0.760036 0.637145 0.944118
O O8 0.500000 0.690676 0.250000
O O9 0.250000 0.750000 0.500000
O O10 0.000000 0.521746 0.250000
#
# Coordination Sequence:
#
# PCOD9280206 Si02
#       4
#     8   8   8   8
#     4   9  20  39  59  81 112 151 187 222 277 343
#     4  10  21  37  56  82 115 152 185 223 281 342
#     4  10  22  40  60  82 109 147 190 231 276 330
#     4  11  21  34  57  89 117 144 184 236 280 323
#
# _framework density 20.197078999999999
#
# number of rings (size 3 to 8) (size 9 to 14) (size 15 to 20)
#    0.000    2.000    0.000    3.000    0.000   10.000 
#    0.000   12.500    0.000    0.000    0.000    0.000 
#    0.000    0.000    0.000    0.000    0.000    0.000 
#
# Total GULP energy -89336.132370 kJ/mol
# GULP energy per Si atom -5583.508273 kJ/mol
# Density = 2.015111 g / cm^3
# Si number density = 20.197079 Si / 1000 Ang^3
#
#
#
# Elastic Constant Matrix: (Units=GPa)
#
#
# Indices 1 2 3 4 5 6 
#
# 1 47.9445 35.4605 42.0740 0.0000 14.9721 0.0000
# 2 35.4605 175.5757 83.3244 0.0000 31.0571 0.0000
# 3 42.0740 83.3244 126.2428 0.0000 22.4613 0.0000
# 4 0.0000 0.0000 0.0000 42.4846 0.0000 0.6397
# 5 14.9721 31.0571 22.4613 0.0000 24.9958 0.0000
# 6 0.0000 0.0000 0.0000 0.6397 0.0000 16.6077
#
#
#
# Elastic Compliance Matrix: (Units=1/GPa)
#
#
# Indices 1 2 3 4 5 6 
#
# 1 0.032031 -0.000564 -0.008349 0.000000 -0.010983 0.000000
# 2 -0.000564 0.009266 -0.004689 0.000000 -0.006961 0.000000
# 3 -0.008349 -0.004689 0.014132 0.000000 -0.001872 0.000000
# 4 0.000000 0.000000 0.000000 0.023552 0.000000 -0.000907
# 5 -0.010983 -0.006961 -0.001872 0.000000 0.056917 0.000000
# 6 0.000000 0.000000 0.000000 -0.000907 0.000000 0.060248
#
#
# Mechanical properties :
#
#
# Convention : Reuss Voigt Hill
#
# Bulk Modulus (GPa) = 35.43058 74.60900 55.01979
# Shear Modulus (GPa) = 21.48149 29.41122 25.44636
#
# Velocity S-wave (km/s) = 3.26482 3.82017 3.55336
# Velocity P-wave (km/s) = 5.63849 7.51525 6.64348
#
# Compressibility (1/GPa) = 0.02822420
#
# Stress axis : x y z
#
# Youngs Moduli (GPa) = 31.21981 107.91611 70.76201
#
# Poissons Ratio (x) = 0.06091 0.59077
# Poissons Ratio (y) = 0.01762 0.33184
# Poissons Ratio (z) = 0.26064 0.50607
#
# Static dielectric constant tensor:
#      x y z
#    x 1.728260 0.000000 0.049550 
#    y 0.000000 1.722170 0.000000 
#    z 0.049550 0.000000 1.781050 
# 
# From -- ./inp_files/40504.got.cif
#   From: 2010.05.17/outbox.cif.g08.bks.cpg/sg15_21_cif.got.tgz:40504.got - 2010.06.03 18:47:42.
