data_PCOD9280170
_publ_section_title
;
Structure prediction by ZEFSAII (Michael W. Deem and Ramdas Pophale) SiO2 
 PCOD9280170
Probable space group: C 2/C
;
_chemical_formula_sum "Si O2"
_cell_formula_units_Z 52
_cell_length_a 23.386788
_cell_length_b 21.501166
_cell_length_c 9.160216
_cell_angle_alpha 90.000000
_cell_angle_beta 32.147407
_cell_angle_gamma 90.000000
_cell_volume 2450.930543
_symmetry_space_group_name_H-M "C 2/C"
_symmetry_group_IT_number 15
_symmetry_cell_setting 'monoclinic'
loop_
_space_group_symop_operation_xyz
x,y,z
-x,y,1/2-z
-x,-y,-z
x,-y,1/2+z
1/2+x,1/2+y,z
1/2-x,1/2+y,1/2-z
1/2-x,1/2-y,-z
1/2+x,1/2-y,1/2+z
loop_
_atom_site_type_symbol
_atom_site_label
_atom_site_fract_x
_atom_site_fract_y
_atom_site_fract_z
Si Si1 0.145068 0.276964 0.306030
Si Si2 0.805638 0.874939 0.485052
Si Si3 0.857276 0.016277 0.687834
Si Si4 0.400838 0.571707 0.313633
Si Si5 0.000000 0.171139 0.750000
Si Si6 0.892214 0.327717 0.409579
Si Si7 0.814135 0.808272 0.160933
O O1 0.068318 0.219096 0.503645
O O2 0.099271 0.324165 0.284659
O O3 0.194255 0.303886 0.349851
O O4 0.250000 0.250000 0.000000
O O5 0.786606 0.938853 0.439559
O O6 0.918658 0.868141 0.326206
O O7 0.809669 0.825831 0.340880
O O8 0.712472 0.861736 0.801916
O O9 0.838219 0.025478 0.559661
O O10 0.975519 0.049336 0.449950
O O11 0.860707 0.946720 0.740337
O O12 0.376820 0.638941 0.430986
O O13 0.873174 0.256745 0.506801
O O14 0.000000 0.352203 0.250000
#
# Coordination Sequence:
#
# PCOD9280170 Si02
#       7
#     8   8   8   8   4   8   8
#     4  10  22  36  52  83 111 149 196 228 281 340
#     4  11  23  36  57  84 112 156 187 236 288 337
#     4   9  20  34  54  83 110 146 193 225 292 335
#     4   9  19  35  54  80 113 148 182 238 279 345
#     4  12  22  36  56  80 122 148 194 234 278 348
#     4  11  23  37  56  82 115 154 194 231 279 341
#     4  10  21  37  55  81 115 150 188 227 289 333
#
# _framework density 21.216432000000001
#
# number of rings (size 3 to 8) (size 9 to 14) (size 15 to 20)
#    0.000    1.846    3.077    1.385   10.769    3.692 
#    0.000    0.000    0.000    0.000    2.000    3.231 
#    0.000    0.000    0.000    0.000    0.000    0.000 
#
# Total GULP energy -145111.662840 kJ/mol
# GULP energy per Si atom -5581.217802 kJ/mol
# Density = 2.116814 g / cm^3
# Si number density = 21.216432 Si / 1000 Ang^3
#
#
#
# Elastic Constant Matrix: (Units=GPa)
#
#
# Indices 1 2 3 4 5 6 
#
# 1 121.9018 -8.4671 15.5714 0.0000 7.0989 0.0000
# 2 -8.4671 21.1768 11.9890 0.0000 6.4108 0.0000
# 3 15.5714 11.9890 66.8534 0.0000 4.1229 0.0000
# 4 0.0000 0.0000 0.0000 12.5575 0.0000 11.8910
# 5 7.0989 6.4108 4.1229 0.0000 32.1210 0.0000
# 6 0.0000 0.0000 0.0000 11.8910 0.0000 26.2783
#
#
#
# Elastic Compliance Matrix: (Units=1/GPa)
#
#
# Indices 1 2 3 4 5 6 
#
# 1 0.009206 0.006311 -0.003097 0.000000 -0.002897 0.000000
# 2 0.006311 0.059829 -0.011468 0.000000 -0.011864 0.000000
# 3 -0.003097 -0.011468 0.017693 0.000000 0.000702 0.000000
# 4 0.000000 0.000000 0.000000 0.139338 0.000000 -0.063051
# 5 -0.002897 -0.011864 0.000702 0.000000 0.034050 0.000000
# 6 0.000000 0.000000 0.000000 -0.063051 0.000000 0.066585
#
#
# Mechanical properties :
#
#
# Convention : Reuss Voigt Hill
#
# Bulk Modulus (GPa) = 14.24097 27.56875 20.90486
# Shear Modulus (GPa) = 13.63832 26.91393 20.27613
#
# Velocity S-wave (km/s) = 2.53814 3.56552 3.09476
# Velocity P-wave (km/s) = 3.91361 5.47475 4.75863
#
# Compressibility (1/GPa) = 0.07021993
#
# Stress axis : x y z
#
# Youngs Moduli (GPa) = 108.62431 16.71441 56.52033
#
# Poissons Ratio (x) = -0.10549 0.17507
# Poissons Ratio (y) = -0.68556 0.64815
# Poissons Ratio (z) = 0.33646 0.19167
#
# Static dielectric constant tensor:
#      x y z
#    x 1.894670 0.000000 0.042040 
#    y 0.000000 1.795110 0.000000 
#    z 0.042040 0.000000 1.791540 
# 
# From -- ./inp_files/33503.got.cif
#   From: 2010.05.17/outbox.cif.g08.bks.cpg/sg15_17_cif.got.tgz:33503.got - 2010.06.03 18:47:42.
