data_PCOD9280007
_publ_section_title
;
Structure prediction by ZEFSAII (Michael W. Deem and Ramdas Pophale) SiO2 
 PCOD9280007
Probable space group: C 2/C
;
_chemical_formula_sum "Si O2"
_cell_formula_units_Z 40
_cell_length_a 18.280593
_cell_length_b 7.118500
_cell_length_c 14.359863
_cell_angle_alpha 90.000000
_cell_angle_beta 62.420189
_cell_angle_gamma 90.000000
_cell_volume 1656.313467
_symmetry_space_group_name_H-M "C 2/C"
_symmetry_group_IT_number 15
_symmetry_cell_setting 'monoclinic'
loop_
_space_group_symop_operation_xyz
x,y,z
-x,y,1/2-z
-x,-y,-z
x,-y,1/2+z
1/2+x,1/2+y,z
1/2-x,1/2+y,1/2-z
1/2-x,1/2-y,-z
1/2+x,1/2-y,1/2+z
loop_
_atom_site_type_symbol
_atom_site_label
_atom_site_fract_x
_atom_site_fract_y
_atom_site_fract_z
Si Si1 0.369256 0.069564 0.770508
Si Si2 0.771935 0.471906 0.497268
Si Si3 0.372473 0.493359 0.547260
Si Si4 0.243476 0.073697 0.218315
Si Si5 0.497335 0.193945 0.556112
O O1 0.308558 0.245868 0.783874
O O2 0.455713 0.140025 0.679402
O O3 0.327167 0.912154 0.729457
O O4 0.353467 0.005781 0.885627
O O5 0.750000 0.250000 0.500000
O O6 0.694452 0.565995 0.490344
O O7 0.771341 0.523396 0.605738
O O8 0.321672 0.520541 0.672573
O O9 0.437246 0.331717 0.532938
O O10 0.419351 0.683025 0.488055
O O11 0.500000 0.000000 0.500000
#
# Coordination Sequence:
#
# PCOD9280007 Si02
#       5
#     8   8   8   8   8
#     4   9  19  34  57  89 109 155 196 237 303 352
#     4   9  18  35  65  87 113 156 198 248 301 345
#     4   9  20  40  59  87 114 157 202 234 300 364
#     4   9  18  35  62  83 116 149 194 249 293 350
#     4  10  21  36  63  80 121 160 190 242 301 352
#
# _framework density 24.150016999999998
#
# number of rings (size 3 to 8) (size 9 to 14) (size 15 to 20)
#    0.000    2.800    0.000    0.000    8.400    0.000 
#    0.000   25.000    4.400    0.000    0.000    0.000 
#    0.000    0.000    0.000    0.000    0.000    0.000 
#
# Total GULP energy -111646.620976 kJ/mol
# GULP energy per Si atom -5582.331049 kJ/mol
# Density = 2.409505 g / cm^3
# Si number density = 24.150017 Si / 1000 Ang^3
#
#
#
# Elastic Constant Matrix: (Units=GPa)
#
#
# Indices 1 2 3 4 5 6 
#
# 1 71.5041 15.0290 41.3381 0.0000 -7.4618 0.0000
# 2 15.0290 71.7683 24.6767 0.0000 -15.3775 0.0000
# 3 41.3381 24.6767 185.9641 0.0000 0.7558 0.0000
# 4 0.0000 0.0000 0.0000 28.7105 0.0000 -10.8544
# 5 -7.4618 -15.3775 0.7558 0.0000 38.4297 0.0000
# 6 0.0000 0.0000 0.0000 -10.8544 0.0000 33.5072
#
#
#
# Elastic Compliance Matrix: (Units=1/GPa)
#
#
# Indices 1 2 3 4 5 6 
#
# 1 0.016631 -0.001728 -0.003478 0.000000 0.002606 0.000000
# 2 -0.001728 0.016241 -0.001796 0.000000 0.006199 0.000000
# 3 -0.003478 -0.001796 0.006395 0.000000 -0.001520 0.000000
# 4 0.000000 0.000000 0.000000 0.039691 0.000000 0.012858
# 5 0.002606 0.006199 -0.001520 0.000000 0.029038 0.000000
# 6 0.000000 0.000000 0.000000 0.012858 0.000000 0.034009
#
#
# Mechanical properties :
#
#
# Convention : Reuss Voigt Hill
#
# Bulk Modulus (GPa) = 39.58483 54.59155 47.08819
# Shear Modulus (GPa) = 30.40755 36.67567 33.54161
#
# Velocity S-wave (km/s) = 3.55224 3.90123 3.73082
# Velocity P-wave (km/s) = 5.76640 6.55340 6.17246
#
# Compressibility (1/GPa) = 0.02526220
#
# Stress axis : x y z
#
# Youngs Moduli (GPa) = 60.12765 61.57096 156.37029
#
# Poissons Ratio (x) = 0.10642 0.54389
# Poissons Ratio (y) = 0.10393 0.28086
# Poissons Ratio (z) = 0.20914 0.11059
#
# Static dielectric constant tensor:
#      x y z
#    x 1.942560 0.000000 0.001950 
#    y 0.000000 2.078230 0.000000 
#    z 0.001950 0.000000 1.966800 
# 
# From -- ./inp_files/171036.got.cif
#   From: 2010.05.17/outbox.cif.g08.bks.cpg/sg15_86_cif.got.tgz:171036.got - 2010.06.03 18:47:42.
