data_PCOD9280740
_publ_section_title
;
Structure prediction by ZEFSAII (Michael W. Deem and Ramdas Pophale) SiO2 
 PCOD9280740
Probable space group: C 2/C
;
_chemical_formula_sum "Si O2"
_cell_formula_units_Z 40
_cell_length_a 10.546314
_cell_length_b 9.492420
_cell_length_c 21.323324
_cell_angle_alpha 90.000000
_cell_angle_beta 105.697532
_cell_angle_gamma 90.000000
_cell_volume 2055.062600
_symmetry_space_group_name_H-M "C 2/C"
_symmetry_group_IT_number 15
_symmetry_cell_setting 'monoclinic'
loop_
_space_group_symop_operation_xyz
x,y,z
-x,y,1/2-z
-x,-y,-z
x,-y,1/2+z
1/2+x,1/2+y,z
1/2-x,1/2+y,1/2-z
1/2-x,1/2-y,-z
1/2+x,1/2-y,1/2+z
loop_
_atom_site_type_symbol
_atom_site_label
_atom_site_fract_x
_atom_site_fract_y
_atom_site_fract_z
Si Si1 0.700014 0.064529 0.736956
Si Si2 0.914946 0.918831 0.680848
Si Si3 0.275673 0.802128 0.072926
Si Si4 0.081193 0.812500 0.157715
Si Si5 0.067956 0.521531 0.344702
O O1 0.794463 0.186928 0.776990
O O2 0.788432 0.986745 0.697615
O O3 0.557818 0.079213 0.686169
O O4 0.661496 0.982521 0.795997
O O5 0.866012 0.809779 0.622730
O O6 0.000000 0.856659 0.750000
O O7 0.001187 0.045878 0.663220
O O8 0.143623 0.813695 0.097035
O O9 0.349933 0.951965 0.088336
O O10 0.250000 0.750000 0.000000
O O11 0.990638 0.676126 0.154013
#
# Coordination Sequence:
#
# PCOD9280740 Si02
#       5
#     8   8   8   8   8
#     4   9  20  33  61  94 121 147 196 251 306 353
#     4  10  22  39  63  91 124 154 198 258 306 355
#     4  11  25  43  60  87 125 166 207 246 298 365
#     4  10  22  40  60  91 122 156 203 252 301 360
#     4  10  21  37  63  89 120 159 196 250 308 356
#
# _framework density 19.464129
#
# number of rings (size 3 to 8) (size 9 to 14) (size 15 to 20)
#    0.000    2.000    2.000    0.000   14.000    1.600 
#    3.600    1.000    0.000    0.000    0.000    0.000 
#    0.000    0.000    0.000    0.000    0.000    0.000 
#
# Total GULP energy -111583.253081 kJ/mol
# GULP energy per Si atom -5579.162654 kJ/mol
# Density = 1.941983 g / cm^3
# Si number density = 19.464129 Si / 1000 Ang^3
#
#
#
# Elastic Constant Matrix: (Units=GPa)
#
#
# Indices 1 2 3 4 5 6 
#
# 1 101.9648 47.7275 35.8236 0.0000 -11.7208 0.0000
# 2 47.7275 102.9378 38.8700 0.0000 -0.0896 0.0000
# 3 35.8236 38.8700 107.0906 0.0000 2.8922 0.0000
# 4 0.0000 0.0000 0.0000 19.6072 0.0000 2.8280
# 5 -11.7208 -0.0896 2.8922 0.0000 14.8312 0.0000
# 6 0.0000 0.0000 0.0000 2.8280 0.0000 38.1239
#
#
#
# Elastic Compliance Matrix: (Units=1/GPa)
#
#
# Indices 1 2 3 4 5 6 
#
# 1 0.015097 -0.005741 -0.003305 0.000000 0.012541 0.000000
# 2 -0.005741 0.013452 -0.002857 0.000000 -0.003899 0.000000
# 3 -0.003305 -0.002857 0.011613 0.000000 -0.004894 0.000000
# 4 0.000000 0.000000 0.000000 0.051553 0.000000 -0.003824
# 5 0.012541 -0.003899 -0.004894 0.000000 0.078267 0.000000
# 6 0.000000 0.000000 0.000000 -0.003824 0.000000 0.026514
#
#
# Mechanical properties :
#
#
# Convention : Reuss Voigt Hill
#
# Bulk Modulus (GPa) = 61.14039 61.87057 61.50548
# Shear Modulus (GPa) = 22.14804 27.15060 24.64932
#
# Velocity S-wave (km/s) = 3.37692 3.73889 3.56251
# Velocity P-wave (km/s) = 6.83263 7.10599 6.97065
#
# Compressibility (1/GPa) = 0.01635580
#
# Stress axis : x y z
#
# Youngs Moduli (GPa) = 66.23691 74.33978 86.11319
#
# Poissons Ratio (x) = 0.42678 0.28463
# Poissons Ratio (y) = 0.38026 0.24601
# Poissons Ratio (z) = 0.21893 0.21237
#
# Static dielectric constant tensor:
#      x y z
#    x 1.710550 0.000000 0.017230 
#    y 0.000000 1.750970 0.000000 
#    z 0.017230 0.000000 1.646130 
# 
# From -- ./inp_files/235761.got.cif
#   From: 2010.05.17/outbox.cif.g08.bks.cpg/sg15_118_cif.got.tgz:235761.got - 2010.06.03 18:47:42.
