data_PCOD9280037
_publ_section_title
;
Structure prediction by ZEFSAII (Michael W. Deem and Ramdas Pophale) SiO2 
 PCOD9280037
Probable space group: C 2/C
;
_chemical_formula_sum "Si O2"
_cell_formula_units_Z 60
_cell_length_a 25.399147
_cell_length_b 16.100188
_cell_length_c 12.325644
_cell_angle_alpha 90.000000
_cell_angle_beta 148.603010
_cell_angle_gamma 90.000000
_cell_volume 2625.838859
_symmetry_space_group_name_H-M "C 2/C"
_symmetry_group_IT_number 15
_symmetry_cell_setting 'monoclinic'
loop_
_space_group_symop_operation_xyz
x,y,z
-x,y,1/2-z
-x,-y,-z
x,-y,1/2+z
1/2+x,1/2+y,z
1/2-x,1/2+y,1/2-z
1/2-x,1/2-y,-z
1/2+x,1/2-y,1/2+z
loop_
_atom_site_type_symbol
_atom_site_label
_atom_site_fract_x
_atom_site_fract_y
_atom_site_fract_z
Si Si1 0.503652 0.112732 0.912502
Si Si2 0.649335 0.618247 0.090580
Si Si3 0.000000 0.747449 0.750000
Si Si4 0.286201 0.561896 0.724809
Si Si5 0.273002 0.834371 0.982766
Si Si6 0.628567 0.604641 0.398358
Si Si7 0.945602 0.574304 0.257834
Si Si8 0.427802 0.577031 0.766686
O O1 0.556260 0.181697 0.928930
O O2 0.386964 0.138210 0.694021
O O3 0.501998 0.016146 0.872086
O O4 0.539148 0.116591 0.098735
O O5 0.702907 0.531471 0.212042
O O6 0.724801 0.679915 0.280473
O O7 0.540729 0.613340 0.960004
O O8 0.632500 0.625113 0.933715
O O9 0.060599 0.812733 0.781050
O O10 0.173190 0.570257 0.479487
O O11 0.369017 0.579358 0.776518
O O12 0.314898 0.609366 0.886192
O O13 0.207710 0.898390 0.939676
O O14 0.250000 0.750000 0.000000
O O15 0.567529 0.518619 0.270365
O O16 0.000000 0.615321 0.250000
#
# Coordination Sequence:
#
# PCOD9280037 Si02
#       8
#     8   8   4   8   8   8   8   8
#     4  11  24  41  64  94 121 170 214 264 305 367
#     4  10  21  36  63  96 127 159 201 260 318 372
#     4  12  24  42  62  90 130 166 206 256 320 386
#     4  11  21  37  67  94 126 162 207 270 316 368
#     4  12  23  41  64  88 127 169 211 249 314 384
#     4  11  23  38  65  96 126 163 205 257 319 391
#     4  11  23  42  67  92 124 162 224 270 307 354
#     4  10  21  39  65 102 127 154 208 268 328 372
#
# _framework density 22.849841000000001
#
# number of rings (size 3 to 8) (size 9 to 14) (size 15 to 20)
#    0.000    1.067    4.667    2.800    1.867    4.267 
#    0.000    0.667   11.733    0.000    0.000    0.000 
#    0.000    0.000    0.000    0.000    0.000    0.000 
#
# Total GULP energy -167506.971381 kJ/mol
# GULP energy per Si atom -5583.565713 kJ/mol
# Density = 2.279783 g / cm^3
# Si number density = 22.849841 Si / 1000 Ang^3
#
#
#
# Elastic Constant Matrix: (Units=GPa)
#
#
# Indices 1 2 3 4 5 6 
#
# 1 95.4115 -7.4577 39.2460 0.0000 -8.7412 0.0000
# 2 -7.4577 27.3763 1.3858 0.0000 -6.6006 0.0000
# 3 39.2460 1.3858 153.8889 0.0000 -24.5075 0.0000
# 4 0.0000 0.0000 0.0000 13.0218 0.0000 -9.0571
# 5 -8.7412 -6.6006 -24.5075 0.0000 40.7380 0.0000
# 6 0.0000 0.0000 0.0000 -9.0571 0.0000 20.5809
#
#
#
# Elastic Compliance Matrix: (Units=1/GPa)
#
#
# Indices 1 2 3 4 5 6 
#
# 1 0.012100 0.003798 -0.002885 0.000000 0.001476 0.000000
# 2 0.003798 0.039275 -0.000198 0.000000 0.007059 0.000000
# 3 -0.002885 -0.000198 0.007888 0.000000 0.004094 0.000000
# 4 0.000000 0.000000 0.000000 0.110668 0.000000 0.048702
# 5 0.001476 0.007059 0.004094 0.000000 0.028471 0.000000
# 6 0.000000 0.000000 0.000000 0.048702 0.000000 0.070021
#
#
# Mechanical properties :
#
#
# Convention : Reuss Voigt Hill
#
# Bulk Modulus (GPa) = 16.47658 38.11388 27.29523
# Shear Modulus (GPa) = 17.40813 31.10164 24.25489
#
# Velocity S-wave (km/s) = 2.76316 3.69335 3.26159
# Velocity P-wave (km/s) = 4.17211 5.90798 5.11423
#
# Compressibility (1/GPa) = 0.06069221
#
# Stress axis : x y z
#
# Youngs Moduli (GPa) = 82.64686 25.46174 126.77969
#
# Poissons Ratio (x) = -0.09671 0.36574
# Poissons Ratio (y) = -0.31390 0.02511
# Poissons Ratio (z) = 0.23843 0.00504
#
# Static dielectric constant tensor:
#      x y z
#    x 1.537900 0.000000 0.424850 
#    y 0.000000 1.945580 0.000000 
#    z 0.424850 0.000000 1.516460 
# 
# From -- ./inp_files/124001.got.cif
#   From: 2010.05.17/outbox.cif.g08.bks.cpg/sg15_63_cif.got.tgz:124001.got - 2010.06.03 18:47:42.
