data_PCOD9280803
_publ_section_title
;
Structure prediction by ZEFSAII (Michael W. Deem and Ramdas Pophale) SiO2 
 PCOD9280803
Probable space group: C 2/C
;
_chemical_formula_sum "Si O2"
_cell_formula_units_Z 48
_cell_length_a 29.859519
_cell_length_b 9.217633
_cell_length_c 15.636564
_cell_angle_alpha 90.000000
_cell_angle_beta 145.177535
_cell_angle_gamma 90.000000
_cell_volume 2457.574234
_symmetry_space_group_name_H-M "C 2/C"
_symmetry_group_IT_number 15
_symmetry_cell_setting 'monoclinic'
loop_
_space_group_symop_operation_xyz
x,y,z
-x,y,1/2-z
-x,-y,-z
x,-y,1/2+z
1/2+x,1/2+y,z
1/2-x,1/2+y,1/2-z
1/2-x,1/2-y,-z
1/2+x,1/2-y,1/2+z
loop_
_atom_site_type_symbol
_atom_site_label
_atom_site_fract_x
_atom_site_fract_y
_atom_site_fract_z
Si Si1 0.579049 0.555746 0.579921
Si Si2 0.321774 0.035210 0.930440
Si Si3 0.270321 0.327329 0.442523
Si Si4 0.922025 0.721721 0.573657
Si Si5 0.773578 0.088482 0.560069
Si Si6 0.683700 0.669695 0.163319
O O1 0.500000 0.500000 0.500000
O O2 0.572648 0.696619 0.508898
O O3 0.647301 0.579266 0.758213
O O4 0.608701 0.427339 0.563898
O O5 0.293532 0.020280 0.983856
O O6 0.321794 0.207280 0.916248
O O7 0.254784 0.947394 0.771658
O O8 0.400623 0.948905 0.032844
O O9 0.250000 0.250000 0.500000
O O10 0.348895 0.283479 0.514474
O O11 0.278875 0.493596 0.483101
O O12 0.201508 0.272973 0.272865
O O13 0.000000 0.744061 0.750000
O O14 0.750000 0.250000 0.500000
#
# Coordination Sequence:
#
# PCOD9280803 Si02
#       6
#     8   8   8   8   8   8
#     4  11  24  44  61  92 128 168 213 258 322 390
#     4  10  21  40  60  92 122 162 206 259 308 380
#     4  11  19  38  63  89 121 163 204 254 312 375
#     4  11  24  41  64  87 130 169 210 256 323 378
#     4  11  23  36  64  94 126 154 216 260 310 377
#     4  10  21  37  64  88 123 161 209 250 313 372
#
# _framework density 19.531455999999999
#
# number of rings (size 3 to 8) (size 9 to 14) (size 15 to 20)
#    0.000    1.333    5.000    5.000    7.000    0.000 
#    3.000    0.833    0.000    0.000    0.000    0.000 
#    0.000    0.000    0.000    0.000    0.000    0.000 
#
# Total GULP energy -133822.816753 kJ/mol
# GULP energy per Si atom -5575.950698 kJ/mol
# Density = 1.948700 g / cm^3
# Si number density = 19.531456 Si / 1000 Ang^3
#
#
#
# Elastic Constant Matrix: (Units=GPa)
#
#
# Indices 1 2 3 4 5 6 
#
# 1 67.7561 15.1086 10.2572 0.0000 6.4105 0.0000
# 2 15.1086 119.3846 6.7500 0.0000 8.7414 0.0000
# 3 10.2572 6.7500 37.1145 0.0000 3.0124 0.0000
# 4 0.0000 0.0000 0.0000 23.6271 0.0000 -12.1334
# 5 6.4105 8.7414 3.0124 0.0000 23.5489 0.0000
# 6 0.0000 0.0000 0.0000 -12.1334 0.0000 39.6797
#
#
#
# Elastic Compliance Matrix: (Units=1/GPa)
#
#
# Indices 1 2 3 4 5 6 
#
# 1 0.016005 -0.001566 -0.003872 0.000000 -0.003280 0.000000
# 2 -0.001566 0.008828 -0.000951 0.000000 -0.002729 0.000000
# 3 -0.003872 -0.000951 0.028367 0.000000 -0.002222 0.000000
# 4 0.000000 0.000000 0.000000 0.050209 0.000000 0.015353
# 5 -0.003280 -0.002729 -0.002222 0.000000 0.044655 0.000000
# 6 0.000000 0.000000 0.000000 0.015353 0.000000 0.029897
#
#
# Mechanical properties :
#
#
# Convention : Reuss Voigt Hill
#
# Bulk Modulus (GPa) = 24.73986 32.05410 28.39698
# Shear Modulus (GPa) = 24.48427 30.18041 27.33234
#
# Velocity S-wave (km/s) = 3.54444 3.93519 3.74492
# Velocity P-wave (km/s) = 5.42631 6.09055 5.76800
#
# Compressibility (1/GPa) = 0.04042061
#
# Stress axis : x y z
#
# Youngs Moduli (GPa) = 62.48208 113.27452 35.25214
#
# Poissons Ratio (x) = 0.17743 0.13650
# Poissons Ratio (y) = 0.09787 0.03353
# Poissons Ratio (z) = 0.24193 0.10775
#
# Static dielectric constant tensor:
#      x y z
#    x 1.724010 0.000000 -0.020110 
#    y 0.000000 1.755680 0.000000 
#    z -0.020110 0.000000 1.686150 
# 
# From -- ./inp_files/177003.got.cif
#   From: 2010.05.17/outbox.cif.g08.bks.cpg/sg15_89_cif.got.tgz:177003.got - 2010.06.03 18:47:42.
