data_PCOD9280241
_publ_section_title
;
Structure prediction by ZEFSAII (Michael W. Deem and Ramdas Pophale) SiO2 
 PCOD9280241
Probable space group: C 2/C
;
_chemical_formula_sum "Si O2"
_cell_formula_units_Z 56
_cell_length_a 14.722200
_cell_length_b 7.751761
_cell_length_c 22.276508
_cell_angle_alpha 90.000000
_cell_angle_beta 108.865228
_cell_angle_gamma 90.000000
_cell_volume 2405.695590
_symmetry_space_group_name_H-M "C 2/C"
_symmetry_group_IT_number 15
_symmetry_cell_setting 'monoclinic'
loop_
_space_group_symop_operation_xyz
x,y,z
-x,y,1/2-z
-x,-y,-z
x,-y,1/2+z
1/2+x,1/2+y,z
1/2-x,1/2+y,1/2-z
1/2-x,1/2-y,-z
1/2+x,1/2-y,1/2+z
loop_
_atom_site_type_symbol
_atom_site_label
_atom_site_fract_x
_atom_site_fract_y
_atom_site_fract_z
Si Si1 0.767166 0.747878 0.574634
Si Si2 0.048130 0.807519 0.515649
Si Si3 0.036458 0.682343 0.380581
Si Si4 0.329940 0.834559 0.833735
Si Si5 0.975653 0.279474 0.131412
Si Si6 0.243168 0.651263 0.392135
Si Si7 0.825111 0.725580 0.787186
O O1 0.750000 0.750000 0.500000
O O2 0.687755 0.839129 0.598553
O O3 0.765072 0.548670 0.593076
O O4 0.873631 0.813314 0.613920
O O5 0.030525 0.705153 0.450893
O O6 0.005248 0.734035 0.567924
O O7 0.162951 0.796761 0.550054
O O8 0.000000 0.000000 0.500000
O O9 0.142004 0.745441 0.383671
O O10 0.931773 0.752484 0.338319
O O11 0.035697 0.483294 0.359332
O O12 0.237911 0.743845 0.785180
O O13 0.329590 0.027764 0.808911
O O14 0.064422 0.213013 0.189933
O O15 0.270704 0.675371 0.328845
#
# Coordination Sequence:
#
# PCOD9280241 Si02
#       7
#     8   8   8   8   8   8   8
#     4  11  22  39  62  91 120 155 195 242 296 354
#     4  11  20  33  56  88 120 151 193 246 293 339
#     4  10  21  37  57  82 115 160 194 234 294 357
#     4  11  23  41  63  85 118 156 201 247 293 353
#     4   9  21  38  57  80 116 157 195 233 291 359
#     4  10  22  38  59  86 120 155 195 242 291 353
#     4  10  23  42  61  86 115 158 201 243 294 347
#
# _framework density 23.278091
#
# number of rings (size 3 to 8) (size 9 to 14) (size 15 to 20)
#    0.000    1.714    0.000    4.286    0.000   10.286 
#    0.000    5.714    0.000    0.000    0.000    0.000 
#    0.000    0.000    0.000    0.000    0.000    0.000 
#
# Total GULP energy -156366.963437 kJ/mol
# GULP energy per Si atom -5584.534408 kJ/mol
# Density = 2.322511 g / cm^3
# Si number density = 23.278091 Si / 1000 Ang^3
#
#
#
# Elastic Constant Matrix: (Units=GPa)
#
#
# Indices 1 2 3 4 5 6 
#
# 1 180.6514 9.0178 45.2938 0.0000 35.6593 0.0000
# 2 9.0178 35.1712 3.9927 0.0000 2.7194 0.0000
# 3 45.2938 3.9927 93.6692 0.0000 19.2084 0.0000
# 4 0.0000 0.0000 0.0000 25.5512 0.0000 -6.7308
# 5 35.6593 2.7194 19.2084 0.0000 24.6813 0.0000
# 6 0.0000 0.0000 0.0000 -6.7308 0.0000 17.1690
#
#
#
# Elastic Compliance Matrix: (Units=1/GPa)
#
#
# Indices 1 2 3 4 5 6 
#
# 1 0.008026 -0.001076 -0.001763 0.000000 -0.010105 0.000000
# 2 -0.001076 0.028858 -0.000448 0.000000 -0.001276 0.000000
# 3 -0.001763 -0.000448 0.013107 0.000000 -0.007604 0.000000
# 4 0.000000 0.000000 0.000000 0.043644 0.000000 0.017110
# 5 -0.010105 -0.001276 -0.007604 0.000000 0.061175 0.000000
# 6 0.000000 0.000000 0.000000 0.017110 0.000000 0.064952
#
#
# Mechanical properties :
#
#
# Convention : Reuss Voigt Hill
#
# Bulk Modulus (GPa) = 23.03293 47.34448 35.18870
# Shear Modulus (GPa) = 20.76342 30.22615 25.49479
#
# Velocity S-wave (km/s) = 2.98983 3.60735 3.31301
# Velocity P-wave (km/s) = 4.67279 6.14276 5.45749
#
# Compressibility (1/GPa) = 0.04341611
#
# Stress axis : x y z
#
# Youngs Moduli (GPa) = 124.59602 34.65264 76.29667
#
# Poissons Ratio (x) = 0.03730 0.13450
# Poissons Ratio (y) = 0.13411 0.03418
# Poissons Ratio (z) = 0.21964 0.01552
#
# Static dielectric constant tensor:
#      x y z
#    x 1.976090 0.000000 0.056360 
#    y 0.000000 1.692100 0.000000 
#    z 0.056360 0.000000 1.870830 
# 
# From -- ./inp_files/272859.got.cif
#   From: 2010.05.17/outbox.cif.g08.bks.cpg/sg15_137_cif.got.tgz:272859.got - 2010.06.03 18:47:42.
