data_PCOD9280517
_publ_section_title
;
Structure prediction by ZEFSAII (Michael W. Deem and Ramdas Pophale) SiO2 
 PCOD9280517
Probable space group: C 2/C
;
_chemical_formula_sum "Si O2"
_cell_formula_units_Z 64
_cell_length_a 14.500959
_cell_length_b 9.273758
_cell_length_c 22.921143
_cell_angle_alpha 90.000000
_cell_angle_beta 82.310508
_cell_angle_gamma 90.000000
_cell_volume 3054.680605
_symmetry_space_group_name_H-M "C 2/C"
_symmetry_group_IT_number 15
_symmetry_cell_setting 'monoclinic'
loop_
_space_group_symop_operation_xyz
x,y,z
-x,y,1/2-z
-x,-y,-z
x,-y,1/2+z
1/2+x,1/2+y,z
1/2-x,1/2+y,1/2-z
1/2-x,1/2-y,-z
1/2+x,1/2-y,1/2+z
loop_
_atom_site_type_symbol
_atom_site_label
_atom_site_fract_x
_atom_site_fract_y
_atom_site_fract_z
Si Si1 0.312303 0.832322 0.042439
Si Si2 0.898880 0.569421 0.771822
Si Si3 0.956466 0.375499 0.867671
Si Si4 0.012055 0.187642 0.034384
Si Si5 0.339302 0.070683 0.957299
Si Si6 0.764899 0.808940 0.134751
Si Si7 0.659793 0.005765 0.852253
Si Si8 0.961216 0.914532 0.098578
O O1 0.409783 0.749506 0.031698
O O2 0.298776 0.863263 0.112627
O O3 0.250000 0.750000 0.000000
O O4 0.314782 0.997227 0.019719
O O5 0.928610 0.425167 0.805180
O O6 0.825332 0.647647 0.820071
O O7 0.848317 0.543260 0.715080
O O8 0.000000 0.641702 0.750000
O O9 0.875727 0.436469 0.915560
O O10 0.052118 0.460660 0.876740
O O11 0.975282 0.207883 0.877166
O O12 0.077757 0.318361 0.044474
O O13 0.005372 0.072187 0.087467
O O14 0.047739 0.125898 0.969581
O O15 0.259074 0.151771 0.929868
O O16 0.785089 0.642171 0.143428
O O17 0.860274 0.899158 0.137383
#
# Coordination Sequence:
#
# PCOD9280517 Si02
#       8
#     8   8   8   8   8   8   8   8
#     4  12  24  38  63  97 129 171 224 271 333 392
#     4   9  20  41  68  93 119 172 224 271 323 392
#     4   9  17  38  68  88 115 169 216 253 319 386
#     4  11  22  37  61  95 135 172 209 258 332 393
#     4  11  20  38  63  87 124 169 213 256 318 397
#     4  10  22  40  62  95 128 167 215 269 325 379
#     4  10  21  40  63  93 126 163 217 272 324 383
#     4  10  21  37  60  95 136 163 205 267 319 390
#
# _framework density 20.951454999999999
#
# number of rings (size 3 to 8) (size 9 to 14) (size 15 to 20)
#    0.000    1.750    2.500    2.625    0.000    4.000 
#    6.750    0.000    0.000    0.000    0.000    0.000 
#    0.000    0.000    0.000    0.000    0.000    0.000 
#
# Total GULP energy -178475.305000 kJ/mol
# GULP energy per Si atom -5577.353281 kJ/mol
# Density = 2.090377 g / cm^3
# Si number density = 20.951455 Si / 1000 Ang^3
#
#
#
# Elastic Constant Matrix: (Units=GPa)
#
#
# Indices 1 2 3 4 5 6 
#
# 1 79.0929 44.3606 34.8887 0.0000 5.1335 0.0000
# 2 44.3606 82.4325 31.0196 0.0000 10.4302 0.0000
# 3 34.8887 31.0196 94.7875 0.0000 7.4928 0.0000
# 4 0.0000 0.0000 0.0000 13.6408 0.0000 -3.4232
# 5 5.1335 10.4302 7.4928 0.0000 38.7670 0.0000
# 6 0.0000 0.0000 0.0000 -3.4232 0.0000 20.1196
#
#
#
# Elastic Compliance Matrix: (Units=1/GPa)
#
#
# Indices 1 2 3 4 5 6 
#
# 1 0.019533 -0.008975 -0.004305 0.000000 0.000660 0.000000
# 2 -0.008975 0.018286 -0.002423 0.000000 -0.003263 0.000000
# 3 -0.004305 -0.002423 0.013030 0.000000 -0.001297 0.000000
# 4 0.000000 0.000000 0.000000 0.076579 0.000000 0.013029
# 5 0.000660 -0.003263 -0.001297 0.000000 0.026836 0.000000
# 6 0.000000 0.000000 0.000000 0.013029 0.000000 0.051920
#
#
# Mechanical properties :
#
#
# Convention : Reuss Voigt Hill
#
# Bulk Modulus (GPa) = 51.43123 52.98341 52.20732
# Shear Modulus (GPa) = 20.48594 24.24176 22.36385
#
# Velocity S-wave (km/s) = 3.13034 3.40523 3.27067
# Velocity P-wave (km/s) = 6.13730 6.38782 6.26382
#
# Compressibility (1/GPa) = 0.01944344
#
# Stress axis : x y z
#
# Youngs Moduli (GPa) = 51.19448 54.68753 76.74833
#
# Poissons Ratio (x) = 0.49085 0.33037
# Poissons Ratio (y) = 0.45949 0.18592
# Poissons Ratio (z) = 0.22037 0.13248
#
# Static dielectric constant tensor:
#      x y z
#    x 1.817610 0.000000 -0.030560 
#    y 0.000000 1.790580 0.000000 
#    z -0.030560 0.000000 1.776990 
# 
# From -- ./inp_files/273189.got.cif
#   From: 2010.05.17/outbox.cif.g08.bks.cpg/sg15_137_cif.got.tgz:273189.got - 2010.06.03 18:47:42.
