data_PCOD9280875
_publ_section_title
;
Structure prediction by ZEFSAII (Michael W. Deem and Ramdas Pophale) SiO2 
 PCOD9280875
Probable space group: C 2/C
;
_chemical_formula_sum "Si O2"
_cell_formula_units_Z 44
_cell_length_a 23.782945
_cell_length_b 15.288260
_cell_length_c 13.963036
_cell_angle_alpha 90.000000
_cell_angle_beta 20.735512
_cell_angle_gamma 90.000000
_cell_volume 1797.520069
_symmetry_space_group_name_H-M "C 2/C"
_symmetry_group_IT_number 15
_symmetry_cell_setting 'monoclinic'
loop_
_space_group_symop_operation_xyz
x,y,z
-x,y,1/2-z
-x,-y,-z
x,-y,1/2+z
1/2+x,1/2+y,z
1/2-x,1/2+y,1/2-z
1/2-x,1/2-y,-z
1/2+x,1/2-y,1/2+z
loop_
_atom_site_type_symbol
_atom_site_label
_atom_site_fract_x
_atom_site_fract_y
_atom_site_fract_z
Si Si1 0.514094 0.873607 0.431494
Si Si2 0.411557 0.629061 0.765200
Si Si3 0.000000 0.388352 0.250000
Si Si4 0.247075 0.981117 0.360145
Si Si5 0.609191 0.823798 0.661101
Si Si6 0.837306 0.975506 0.701520
O O1 0.492503 0.832154 0.360875
O O2 0.403987 0.959720 0.590890
O O3 0.456766 0.835317 0.625150
O O4 0.693758 0.901837 0.169558
O O5 0.376698 0.719784 0.873572
O O6 0.593779 0.618471 0.448203
O O7 0.362307 0.546573 0.906711
O O8 0.281043 0.630966 0.887950
O O9 0.841828 0.448956 0.482506
O O10 0.178814 0.961786 0.365172
O O11 0.500000 0.857999 0.750000
O O12 0.000000 0.000000 0.500000
#
# Coordination Sequence:
#
# PCOD9280875 Si02
#       6
#     8   8   4   8   8   8
#     4   9  19  36  58  91 122 170 207 260 319 382
#     4  10  21  38  60  93 121 165 213 268 319 377
#     4  10  22  40  58  84 130 172 212 248 330 390
#     4   9  18  35  57  88 125 159 212 266 320 368
#     4  10  21  37  65  93 128 158 213 275 321 370
#     4  11  22  35  61  91 127 169 212 263 321 388
#
# _framework density 24.478168
#
# number of rings (size 3 to 8) (size 9 to 14) (size 15 to 20)
#    0.000    2.182    0.000    2.727    2.545    2.909 
#   11.455    0.909    0.000    0.000    0.000    0.000 
#    0.000    0.000    0.000    0.000    0.000    0.000 
#
# Total GULP energy -122515.242618 kJ/mol
# GULP energy per Si atom -5568.874664 kJ/mol
# Density = 2.442245 g / cm^3
# Si number density = 24.478168 Si / 1000 Ang^3
#
#
#
# Elastic Constant Matrix: (Units=GPa)
#
#
# Indices 1 2 3 4 5 6 
#
# 1 225.4557 11.4577 54.8911 -0.0004 -15.2973 -0.0001
# 2 11.4577 16.0508 25.4979 -0.0009 0.6287 0.0002
# 3 54.8911 25.4979 141.1404 -0.0013 -26.1216 0.0005
# 4 -0.0004 -0.0009 -0.0013 15.6492 0.0005 -8.5453
# 5 -15.2973 0.6287 -26.1216 0.0005 45.0216 -0.0001
# 6 -0.0001 0.0002 0.0005 -8.5453 -0.0001 6.7545
#
#
#
# Elastic Compliance Matrix: (Units=1/GPa)
#
#
# Indices 1 2 3 4 5 6 
#
# 1 0.004926 -0.001021 -0.001590 0.000000 0.000766 0.000000
# 2 -0.001021 0.093384 -0.018797 0.000011 -0.012557 0.000012
# 3 -0.001590 -0.018797 0.012377 -0.000002 0.006903 -0.000002
# 4 0.000000 0.000011 -0.000002 0.206680 -0.000003 0.261474
# 5 0.000766 -0.012557 0.006903 -0.000003 0.026653 -0.000003
# 6 0.000000 0.000012 -0.000002 0.261474 -0.000003 0.478844
#
#
# Mechanical properties :
#
#
# Convention : Reuss Voigt Hill
#
# Bulk Modulus (GPa) = 14.73385 62.92670 38.83028
# Shear Modulus (GPa) = 5.62870 32.87174 19.25022
#
# Velocity S-wave (km/s) = 1.51805 3.66854 2.80737
# Velocity P-wave (km/s) = 3.01743 6.61115 5.13868
#
# Compressibility (1/GPa) = 0.06787091
#
# Stress axis : x y z
#
# Youngs Moduli (GPa) = 202.98968 10.70844 80.79559
#
# Poissons Ratio (x) = 0.01094 0.12844
# Poissons Ratio (y) = 0.20731 1.51874
# Poissons Ratio (z) = 0.32269 0.20129
#
# Static dielectric constant tensor:
#      x y z
#    x 2.156050 0.000000 0.060540 
#    y 0.000000 1.983270 0.000000 
#    z 0.060540 0.000000 2.066210 
# 
# From -- ./inp_files/174184.got.cif
#   From: 2010.05.17/outbox.cif.g08.bks.cpg/sg15_88_cif.got.tgz:174184.got - 2010.06.03 18:47:42.
