data_PCOD9280804
_publ_section_title
;
Structure prediction by ZEFSAII (Michael W. Deem and Ramdas Pophale) SiO2 
 PCOD9280804
Probable space group: C 2/C
;
_chemical_formula_sum "Si O2"
_cell_formula_units_Z 44
_cell_length_a 27.651892
_cell_length_b 5.047447
_cell_length_c 17.976832
_cell_angle_alpha 90.000000
_cell_angle_beta 137.482210
_cell_angle_gamma 90.000000
_cell_volume 1695.665710
_symmetry_space_group_name_H-M "C 2/C"
_symmetry_group_IT_number 15
_symmetry_cell_setting 'monoclinic'
loop_
_space_group_symop_operation_xyz
x,y,z
-x,y,1/2-z
-x,-y,-z
x,-y,1/2+z
1/2+x,1/2+y,z
1/2-x,1/2+y,1/2-z
1/2-x,1/2-y,-z
1/2+x,1/2-y,1/2+z
loop_
_atom_site_type_symbol
_atom_site_label
_atom_site_fract_x
_atom_site_fract_y
_atom_site_fract_z
Si Si1 0.902700 0.257237 0.858978
Si Si2 0.661974 0.393201 0.065250
Si Si3 0.500000 0.007626 0.750000
Si Si4 0.562950 0.738742 0.182428
Si Si5 0.351116 0.080787 0.593464
Si Si6 0.245725 0.405703 0.131510
O O1 0.894214 0.175143 0.934515
O O2 0.930719 0.549720 0.876201
O O3 0.823405 0.207306 0.734715
O O4 0.947946 0.049548 0.862069
O O5 0.689099 0.690875 0.097628
O O6 0.728356 0.184939 0.151785
O O7 0.638711 0.310404 0.956322
O O8 0.492131 0.178052 0.816280
O O9 0.420328 0.884950 0.661148
O O10 0.637707 0.790603 0.313432
O O11 0.278325 0.953641 0.481653
#
# Coordination Sequence:
#
# PCOD9280804 Si02
#       6
#     8   8   4   8   8   8
#     4  12  22  38  62  97 124 148 209 248 304 347
#     4  10  21  39  60  93 122 166 187 243 306 375
#     4   8  20  50  58  84 120 168 204 248 304 350
#     4  10  24  39  64  87 120 164 198 263 285 360
#     4   8  22  40  66  82 121 170 201 232 314 357
#     4  10  21  37  64  88 126 162 189 242 310 369
#
# _framework density 25.948509999999999
#
# number of rings (size 3 to 8) (size 9 to 14) (size 15 to 20)
#    2.182    0.000    0.000    3.273    2.545    2.182 
#    3.273    1.818    0.000    0.000    0.000    0.000 
#    0.000    0.000    0.000    0.000    0.000    0.000 
#
# Total GULP energy -122736.961055 kJ/mol
# GULP energy per Si atom -5578.952775 kJ/mol
# Density = 2.588945 g / cm^3
# Si number density = 25.948510 Si / 1000 Ang^3
#
#
#
# Elastic Constant Matrix: (Units=GPa)
#
#
# Indices 1 2 3 4 5 6 
#
# 1 67.8740 -2.8165 3.0999 -0.0011 -4.6438 -0.0010
# 2 -2.8165 54.3762 -4.4554 -0.0062 -12.9756 -0.0068
# 3 3.0999 -4.4554 113.4477 -0.0009 -8.7991 -0.0013
# 4 -0.0011 -0.0062 -0.0009 -17.1575 -0.0006 -25.2531
# 5 -4.6438 -12.9756 -8.7991 -0.0006 41.4401 -0.0008
# 6 -0.0010 -0.0068 -0.0013 -25.2531 -0.0008 3.0825
#
#
#
# Elastic Compliance Matrix: (Units=1/GPa)
#
#
# Indices 1 2 3 4 5 6 
#
# 1 0.014932 0.001238 -0.000203 -0.000001 0.002018 0.000000
# 2 0.001238 0.020164 0.001280 -0.000006 0.006724 -0.000001
# 3 -0.000203 0.001280 0.009049 -0.000001 0.002299 0.000000
# 4 -0.000001 -0.000006 -0.000001 -0.004463 -0.000003 -0.036567
# 5 0.002018 0.006724 0.002299 -0.000003 0.026951 0.000000
# 6 0.000000 -0.000001 0.000000 -0.036567 0.000000 0.024844
#
#
# Mechanical properties :
#
#
# Convention : Reuss Voigt Hill
#
# Bulk Modulus (GPa) = 20.50243 25.26156 22.88200
# Shear Modulus (GPa) = 48.49456 21.46434 34.97945
#
# Velocity S-wave (km/s) = 4.32774 2.87921 3.67554
# Velocity P-wave (km/s) = 5.73505 4.56175 5.18171
#
# Compressibility (1/GPa) = 0.04877470
#
# Stress axis : x y z
#
# Youngs Moduli (GPa) = 66.97071 49.59348 110.51235
#
# Poissons Ratio (x) = -0.06141 0.02242
# Poissons Ratio (y) = -0.08293 -0.14141
# Poissons Ratio (z) = 0.01359 -0.06346
#
# Static dielectric constant tensor:
#      x y z
#    x 1.984910 0.000000 0.036270 
#    y 0.000000 1.986720 0.000000 
#    z 0.036270 0.000000 2.176240 
# 
# From -- ./inp_files/256398.got.cif
#   From: 2010.05.17/outbox.cif.g08.bks.cpg/sg15_129_cif.got.tgz:256398.got - 2010.06.03 18:47:42.
