data_PCOD9280114
_publ_section_title
;
Structure prediction by ZEFSAII (Michael W. Deem and Ramdas Pophale) SiO2 
 PCOD9280114
Probable space group: C 2/C
;
_chemical_formula_sum "Si O2"
_cell_formula_units_Z 56
_cell_length_a 12.715274
_cell_length_b 16.228139
_cell_length_c 19.176906
_cell_angle_alpha 90.000000
_cell_angle_beta 40.718317
_cell_angle_gamma 90.000000
_cell_volume 2581.353506
_symmetry_space_group_name_H-M "C 2/C"
_symmetry_group_IT_number 15
_symmetry_cell_setting 'monoclinic'
loop_
_space_group_symop_operation_xyz
x,y,z
-x,y,1/2-z
-x,-y,-z
x,-y,1/2+z
1/2+x,1/2+y,z
1/2-x,1/2+y,1/2-z
1/2-x,1/2-y,-z
1/2+x,1/2-y,1/2+z
loop_
_atom_site_type_symbol
_atom_site_label
_atom_site_fract_x
_atom_site_fract_y
_atom_site_fract_z
Si Si1 0.886418 0.934189 0.253415
Si Si2 0.592848 0.208419 0.547407
Si Si3 0.455224 0.635964 0.505109
Si Si4 0.331129 0.879756 0.250062
Si Si5 0.020568 0.440508 0.817762
Si Si6 0.137350 0.567081 0.410211
Si Si7 0.153371 0.026345 0.505236
O O1 0.804711 0.015966 0.326295
O O2 0.000000 0.887318 0.250000
O O3 0.741161 0.885297 0.291746
O O4 0.011543 0.956405 0.130440
O O5 0.750000 0.250000 0.500000
O O6 0.495593 0.282132 0.558814
O O7 0.491940 0.171459 0.662014
O O8 0.632035 0.139064 0.469865
O O9 0.313126 0.655614 0.631647
O O10 0.601228 0.585330 0.466904
O O11 0.366919 0.569116 0.501569
O O12 0.381626 0.973435 0.244262
O O13 0.000000 0.401975 0.750000
O O14 0.104462 0.404788 0.845920
O O15 0.836019 0.456685 0.934082
O O16 0.000000 0.500000 0.500000
#
# Coordination Sequence:
#
# PCOD9280114 Si02
#       7
#     8   8   8   8   8   8   8
#     4  10  21  36  68  96 127 172 223 281 330 404
#     4  12  26  41  66  97 138 177 215 285 352 409
#     4  10  23  41  61  93 133 169 223 278 333 413
#     4  10  22  42  62  96 135 175 217 278 353 403
#     4  11  20  38  72  91 127 181 227 275 340 406
#     4  11  23  42  64  99 136 177 231 277 338 425
#     4  10  21  38  66  95 122 172 230 275 328 405
#
# _framework density 21.694046
#
# number of rings (size 3 to 8) (size 9 to 14) (size 15 to 20)
#    0.000    1.429    4.286    1.714    4.000    1.143 
#    0.000    0.714    0.000    0.000    0.000    0.000 
#    0.000    0.000    0.000    0.000    0.000    0.000 
#
# Total GULP energy -156274.920153 kJ/mol
# GULP energy per Si atom -5581.247148 kJ/mol
# Density = 2.164467 g / cm^3
# Si number density = 21.694046 Si / 1000 Ang^3
#
#
#
# Elastic Constant Matrix: (Units=GPa)
#
#
# Indices 1 2 3 4 5 6 
#
# 1 94.0428 2.4806 1.4304 -0.0001 -2.6014 0.0000
# 2 2.4806 55.1793 4.5291 -0.0002 10.9940 0.0001
# 3 1.4304 4.5291 67.9005 -0.0005 -2.2221 0.0002
# 4 -0.0001 -0.0002 -0.0005 19.3379 0.0002 -2.5681
# 5 -2.6014 10.9940 -2.2221 0.0002 39.4551 -0.0001
# 6 0.0000 0.0001 0.0002 -2.5681 -0.0001 20.5831
#
#
#
# Elastic Compliance Matrix: (Units=1/GPa)
#
#
# Indices 1 2 3 4 5 6 
#
# 1 0.010677 -0.000642 -0.000154 0.000000 0.000874 0.000000
# 2 -0.000642 0.019372 -0.001459 0.000000 -0.005522 0.000000
# 3 -0.000154 -0.001459 0.014868 0.000000 0.001234 0.000000
# 4 0.000000 0.000000 0.000000 0.052583 0.000000 0.006561
# 5 0.000874 -0.005522 0.001234 0.000000 0.027011 0.000000
# 6 0.000000 0.000000 0.000000 0.006561 0.000000 0.049402
#
#
# Mechanical properties :
#
#
# Convention : Reuss Voigt Hill
#
# Bulk Modulus (GPa) = 24.74751 26.00032 25.37391
# Shear Modulus (GPa) = 26.05637 29.78738 27.92188
#
# Velocity S-wave (km/s) = 3.46943 3.70951 3.59148
# Velocity P-wave (km/s) = 5.24228 5.50984 5.37772
#
# Compressibility (1/GPa) = 0.04040811
#
# Stress axis : x y z
#
# Youngs Moduli (GPa) = 93.66021 51.62184 67.25675
#
# Poissons Ratio (x) = 0.03312 0.01033
# Poissons Ratio (y) = 0.06009 0.09815
# Poissons Ratio (z) = 0.01438 0.07533
#
# Static dielectric constant tensor:
#      x y z
#    x 1.888480 0.000000 0.073060 
#    y 0.000000 1.788060 0.000000 
#    z 0.073060 0.000000 1.880700 
# 
# From -- ./inp_files/200119.got.cif
#   From: 2010.05.17/outbox.cif.g08.bks.cpg/sg15_101_cif.got.tgz:200119.got - 2010.06.03 18:47:42.
