data_PCOD9280230
_publ_section_title
;
Structure prediction by ZEFSAII (Michael W. Deem and Ramdas Pophale) SiO2 
 PCOD9280230
Probable space group: C 2/C
;
_chemical_formula_sum "Si O2"
_cell_formula_units_Z 52
_cell_length_a 13.745346
_cell_length_b 24.411764
_cell_length_c 9.171312
_cell_angle_alpha 90.000000
_cell_angle_beta 136.669403
_cell_angle_gamma 90.000000
_cell_volume 2111.744576
_symmetry_space_group_name_H-M "C 2/C"
_symmetry_group_IT_number 15
_symmetry_cell_setting 'monoclinic'
loop_
_space_group_symop_operation_xyz
x,y,z
-x,y,1/2-z
-x,-y,-z
x,-y,1/2+z
1/2+x,1/2+y,z
1/2-x,1/2+y,1/2-z
1/2-x,1/2-y,-z
1/2+x,1/2-y,1/2+z
loop_
_atom_site_type_symbol
_atom_site_label
_atom_site_fract_x
_atom_site_fract_y
_atom_site_fract_z
Si Si1 0.000000 0.264298 0.750000
Si Si2 0.500000 0.488215 0.750000
Si Si3 0.503284 0.180332 0.967565
Si Si4 0.000000 0.778132 0.750000
Si Si5 0.697690 0.351548 0.830037
Si Si6 0.872933 0.431542 0.198607
Si Si7 0.432857 0.342004 0.322094
Si Si8 0.323725 0.447964 0.286657
O O1 0.952540 0.305209 0.572880
O O2 0.097315 0.219895 0.766457
O O3 0.439455 0.456689 0.542514
O O4 0.624403 0.523166 0.804356
O O5 0.469915 0.235642 0.845069
O O6 0.435447 0.126273 0.825498
O O7 0.671915 0.171734 0.122148
O O8 0.858573 0.815370 0.594070
O O9 0.559298 0.346940 0.577501
O O10 0.751307 0.409454 0.953394
O O11 0.815583 0.464339 0.275232
O O12 0.000000 0.459504 0.250000
O O13 0.500000 0.367758 0.250000
O O14 0.313754 0.383410 0.242874
#
# Coordination Sequence:
#
# PCOD9280230 Si02
#       8
#     4   4   8   4   8   8   8   8
#     4  10  23  38  48  88 129 171 216 252 309 344
#     4  10  23  41  74 104 112 154 200 262 352 390
#     4  11  23  37  54  85 125 177 224 250 299 355
#     4  12  18  35  52  82 111 167 228 270 285 324
#     4  11  21  34  60  80 121 171 223 261 295 355
#     4  10  23  40  62  93 127 174 214 258 307 375
#     4  10  21  37  56  95 122 163 208 261 320 360
#     4  11  21  43  68  96 129 149 202 271 321 398
#
# _framework density 24.624189000000001
#
# number of rings (size 3 to 8) (size 9 to 14) (size 15 to 20)
#    0.462    0.923    4.615    2.308    0.000    1.846 
#    0.000    0.769    0.000    0.000    0.000    0.000 
#    0.000    0.000    0.000    0.000    0.000    0.000 
#
# Total GULP energy -144881.810561 kJ/mol
# GULP energy per Si atom -5572.377329 kJ/mol
# Density = 2.456814 g / cm^3
# Si number density = 24.624189 Si / 1000 Ang^3
#
#
#
# Elastic Constant Matrix: (Units=GPa)
#
#
# Indices 1 2 3 4 5 6 
#
# 1 134.9233 28.4795 26.8787 0.0000 -4.1018 0.0000
# 2 28.4795 61.9141 15.7828 0.0000 -5.8183 0.0000
# 3 26.8787 15.7828 60.6490 0.0000 -25.8994 0.0000
# 4 0.0000 0.0000 0.0000 33.8605 0.0000 0.0429
# 5 -4.1018 -5.8183 -25.8994 0.0000 42.2112 0.0000
# 6 0.0000 0.0000 0.0000 0.0429 0.0000 33.5689
#
#
#
# Elastic Compliance Matrix: (Units=1/GPa)
#
#
# Indices 1 2 3 4 5 6 
#
# 1 0.008815 -0.003245 -0.003913 0.000000 -0.001991 0.000000
# 2 -0.003245 0.018501 -0.003282 0.000000 0.000221 0.000000
# 3 -0.003913 -0.003282 0.025368 0.000000 0.014732 0.000000
# 4 0.000000 0.000000 0.000000 0.029533 0.000000 -0.000038
# 5 -0.001991 0.000221 0.014732 0.000000 0.032567 0.000000
# 6 0.000000 0.000000 0.000000 -0.000038 0.000000 0.029790
#
#
# Mechanical properties :
#
#
# Convention : Reuss Voigt Hill
#
# Bulk Modulus (GPa) = 31.44170 44.41872 37.93021
# Shear Modulus (GPa) = 28.40017 34.35114 31.37566
#
# Velocity S-wave (km/s) = 3.39978 3.73904 3.57344
# Velocity P-wave (km/s) = 5.31109 6.05957 5.69763
#
# Compressibility (1/GPa) = 0.03180490
#
# Stress axis : x y z
#
# Youngs Moduli (GPa) = 113.43688 54.05004 39.41995
#
# Poissons Ratio (x) = 0.17537 0.15425
# Poissons Ratio (y) = 0.36806 0.12939
# Poissons Ratio (z) = 0.44387 0.17741
#
# Static dielectric constant tensor:
#      x y z
#    x 2.060370 0.000000 -0.034050 
#    y 0.000000 1.955590 0.000000 
#    z -0.034050 0.000000 2.061590 
# 
# From -- ./inp_files/34467.got.cif
#   From: 2010.05.17/outbox.cif.g08.bks.cpg/sg15_18_cif.got.tgz:34467.got - 2010.06.03 18:47:42.
