data_PCOD9280418
_publ_section_title
;
Structure prediction by ZEFSAII (Michael W. Deem and Ramdas Pophale) SiO2 
 PCOD9280418
Probable space group: C 2/C
;
_chemical_formula_sum "Si O2"
_cell_formula_units_Z 56
_cell_length_a 18.568695
_cell_length_b 11.781243
_cell_length_c 12.231236
_cell_angle_alpha 90.000000
_cell_angle_beta 114.723291
_cell_angle_gamma 90.000000
_cell_volume 2430.470976
_symmetry_space_group_name_H-M "C 2/C"
_symmetry_group_IT_number 15
_symmetry_cell_setting 'monoclinic'
loop_
_space_group_symop_operation_xyz
x,y,z
-x,y,1/2-z
-x,-y,-z
x,-y,1/2+z
1/2+x,1/2+y,z
1/2-x,1/2+y,1/2-z
1/2-x,1/2-y,-z
1/2+x,1/2-y,1/2+z
loop_
_atom_site_type_symbol
_atom_site_label
_atom_site_fract_x
_atom_site_fract_y
_atom_site_fract_z
Si Si1 0.702279 0.115505 0.083583
Si Si2 0.314327 0.239532 0.212242
Si Si3 0.947940 0.292114 0.622918
Si Si4 0.647695 0.784471 0.329456
Si Si5 0.521609 0.386225 0.655521
Si Si6 0.928907 0.888515 0.399974
Si Si7 0.331856 0.871891 0.384431
O O1 0.671003 0.144614 0.185850
O O2 0.782915 0.188538 0.124006
O O3 0.709171 0.980414 0.087005
O O4 0.648477 0.155394 0.947445
O O5 0.367719 0.232716 0.139292
O O6 0.346606 0.348608 0.299231
O O7 0.222657 0.260602 0.130371
O O8 0.917252 0.355554 0.495743
O O9 0.000000 0.353448 0.750000
O O10 0.002127 0.184999 0.618553
O O11 0.572031 0.717235 0.233468
O O12 0.664083 0.875788 0.244234
O O13 0.500000 0.455501 0.750000
O O14 0.444555 0.357904 0.535897
O O15 0.567273 0.476156 0.609940
#
# Coordination Sequence:
#
# PCOD9280418 Si02
#       7
#     8   8   8   8   8   8   8
#     4  10  23  39  63  90 124 165 206 256 308 361
#     4  10  21  39  61  87 121 157 203 253 300 373
#     4  10  21  40  60  87 125 153 203 265 299 368
#     4  10  22  42  60  91 129 157 207 263 299 374
#     4  11  20  35  63  88 121 163 199 248 316 362
#     4  10  21  37  59  92 122 155 203 252 308 364
#     4  11  22  40  63  88 119 166 206 249 314 362
#
# _framework density 23.040803
#
# number of rings (size 3 to 8) (size 9 to 14) (size 15 to 20)
#    0.000    1.714    1.429    3.429    2.000    0.000 
#    0.000    6.429    0.000    0.000    0.000    0.000 
#    0.000    0.000    0.000    0.000    0.000    0.000 
#
# Total GULP energy -156075.209270 kJ/mol
# GULP energy per Si atom -5574.114617 kJ/mol
# Density = 2.298836 g / cm^3
# Si number density = 23.040803 Si / 1000 Ang^3
#
#
#
# Elastic Constant Matrix: (Units=GPa)
#
#
# Indices 1 2 3 4 5 6 
#
# 1 37.6275 2.4958 22.7464 0.0000 -0.8773 0.0000
# 2 2.4958 53.3888 25.6049 0.0000 -1.7848 0.0000
# 3 22.7464 25.6049 176.2067 0.0000 9.4190 0.0000
# 4 0.0000 0.0000 0.0000 30.3553 0.0000 0.0158
# 5 -0.8773 -1.7848 9.4190 0.0000 25.9352 0.0000
# 6 0.0000 0.0000 0.0000 0.0158 0.0000 15.3324
#
#
#
# Elastic Compliance Matrix: (Units=1/GPa)
#
#
# Indices 1 2 3 4 5 6 
#
# 1 0.028989 0.000629 -0.003965 0.000000 0.002464 0.000000
# 2 0.000629 0.020307 -0.003169 0.000000 0.002570 0.000000
# 3 -0.003965 -0.003169 0.006798 0.000000 -0.002821 0.000000
# 4 0.000000 0.000000 0.000000 0.032943 0.000000 -0.000034
# 5 0.002464 0.002570 -0.002821 0.000000 0.039842 0.000000
# 6 0.000000 0.000000 0.000000 -0.000034 0.000000 0.065221
#
#
# Mechanical properties :
#
#
# Convention : Reuss Voigt Hill
#
# Bulk Modulus (GPa) = 23.21100 40.99079 32.10090
# Shear Modulus (GPa) = 22.57601 28.74965 25.66283
#
# Velocity S-wave (km/s) = 3.13362 3.53621 3.34098
# Velocity P-wave (km/s) = 4.81544 5.87386 5.37079
#
# Compressibility (1/GPa) = 0.04308301
#
# Stress axis : x y z
#
# Youngs Moduli (GPa) = 34.49572 49.24402 147.09381
#
# Poissons Ratio (x) = -0.03097 0.58327
# Poissons Ratio (y) = -0.02170 0.46620
# Poissons Ratio (z) = 0.13679 0.15607
#
# Static dielectric constant tensor:
#      x y z
#    x 1.927290 0.000000 -0.029410 
#    y 0.000000 1.850270 0.000000 
#    z -0.029410 0.000000 1.910490 
# 
# From -- ./inp_files/111684.got.cif
#   From: 2010.05.17/outbox.cif.g08.bks.cpg/sg15_56_cif.got.tgz:111684.got - 2010.06.03 18:47:42.
