data_PCOD9280963
_publ_section_title
;
Structure prediction by ZEFSAII (Michael W. Deem and Ramdas Pophale) SiO2 
 PCOD9280963
Probable space group: C 2/C
;
_chemical_formula_sum "Si O2"
_cell_formula_units_Z 60
_cell_length_a 5.443934
_cell_length_b 29.802101
_cell_length_c 17.529889
_cell_angle_alpha 90.000000
_cell_angle_beta 93.242781
_cell_angle_gamma 90.000000
_cell_volume 2839.507058
_symmetry_space_group_name_H-M "C 2/C"
_symmetry_group_IT_number 15
_symmetry_cell_setting 'monoclinic'
loop_
_space_group_symop_operation_xyz
x,y,z
-x,y,1/2-z
-x,-y,-z
x,-y,1/2+z
1/2+x,1/2+y,z
1/2-x,1/2+y,1/2-z
1/2-x,1/2-y,-z
1/2+x,1/2-y,1/2+z
loop_
_atom_site_type_symbol
_atom_site_label
_atom_site_fract_x
_atom_site_fract_y
_atom_site_fract_z
Si Si1 0.000000 0.867724 0.250000
Si Si2 0.525747 0.782851 0.619076
Si Si3 0.612386 0.593949 0.908694
Si Si4 0.754423 0.998668 0.548787
Si Si5 0.310879 0.206569 0.687504
Si Si6 0.460019 0.667425 0.336783
Si Si7 0.032688 0.671312 0.530913
Si Si8 0.686860 0.599074 0.447705
O O1 0.982342 0.897495 0.176044
O O2 0.772743 0.835227 0.262945
O O3 0.568003 0.734573 0.658226
O O4 0.303282 0.808948 0.656409
O O5 0.452467 0.787130 0.528335
O O6 0.804004 0.802045 0.635617
O O7 0.750498 0.546416 0.908587
O O8 0.745518 0.640260 0.936230
O O9 0.408220 0.588857 0.969429
O O10 0.754017 0.949302 0.587646
O O11 0.500000 0.000000 0.500000
O O12 0.000000 0.000000 0.500000
O O13 0.500000 0.231058 0.750000
O O14 0.413680 0.189860 0.607152
O O15 0.500000 0.654464 0.250000
O O16 0.486980 0.624796 0.393101
O O17 0.897137 0.635027 0.472328
#
# Coordination Sequence:
#
# PCOD9280963 Si02
#       8
#     4   8   8   8   8   8   8   8
#     4  12  26  40  66  94 140 178 224 286 346 416
#     4  11  26  43  67  95 131 177 233 284 338 404
#     4  11  21  41  65  98 135 176 227 272 353 404
#     4  10  21  37  69  98 130 170 221 271 325 414
#     4  12  26  41  63  95 134 185 228 290 347 419
#     4  11  24  42  66  96 133 175 224 285 345 404
#     4  11  21  42  66  94 132 174 232 279 338 415
#     4  10  21  41  65  96 132 177 223 271 339 410
#
# _framework density 21.13043
#
# number of rings (size 3 to 8) (size 9 to 14) (size 15 to 20)
#    0.000    1.067    5.333    1.200    3.733    0.000 
#    1.200    2.667    0.000    0.000    6.933    0.000 
#    0.000    0.000    0.000    0.000    0.000    0.000 
#
# Total GULP energy -167120.514221 kJ/mol
# GULP energy per Si atom -5570.683807 kJ/mol
# Density = 2.108234 g / cm^3
# Si number density = 21.130430 Si / 1000 Ang^3
#
#
#
# Elastic Constant Matrix: (Units=GPa)
#
#
# Indices 1 2 3 4 5 6 
#
# 1 81.8743 26.9072 12.6410 0.0000 4.9407 0.0000
# 2 26.9072 86.4660 20.7589 0.0000 10.6679 0.0000
# 3 12.6410 20.7589 100.5689 0.0000 -13.1489 0.0000
# 4 0.0000 0.0000 0.0000 5.3584 0.0000 5.4502
# 5 4.9407 10.6679 -13.1489 0.0000 26.5883 0.0000
# 6 0.0000 0.0000 0.0000 5.4502 0.0000 28.4057
#
#
#
# Elastic Compliance Matrix: (Units=1/GPa)
#
#
# Indices 1 2 3 4 5 6 
#
# 1 0.013737 -0.003802 -0.001151 0.000000 -0.001596 0.000000
# 2 -0.003802 0.014389 -0.003373 0.000000 -0.006735 0.000000
# 3 -0.001151 -0.003373 0.011749 0.000000 0.007377 0.000000
# 4 0.000000 0.000000 0.000000 0.231874 0.000000 -0.044490
# 5 -0.001596 -0.006735 0.007377 0.000000 0.044258 0.000000
# 6 0.000000 0.000000 0.000000 -0.044490 0.000000 0.043740
#
#
# Mechanical properties :
#
#
# Convention : Reuss Voigt Hill
#
# Bulk Modulus (GPa) = 43.05762 43.28040 43.16901
# Shear Modulus (GPa) = 13.01613 25.97729 19.49671
#
# Velocity S-wave (km/s) = 2.48461 3.51005 3.04087
# Velocity P-wave (km/s) = 5.35279 6.07900 5.72742
#
# Compressibility (1/GPa) = 0.02322469
#
# Stress axis : x y z
#
# Youngs Moduli (GPa) = 72.79497 69.49793 85.11500
#
# Poissons Ratio (x) = 0.26421 0.09794
# Poissons Ratio (y) = 0.27674 0.28707
# Poissons Ratio (z) = 0.08377 0.23440
#
# Static dielectric constant tensor:
#      x y z
#    x 1.821710 0.000000 -0.048420 
#    y 0.000000 1.924300 0.000000 
#    z -0.048420 0.000000 1.726080 
# 
# From -- ./inp_files/186553.got.cif
#   From: 2010.05.17/outbox.cif.g08.bks.cpg/sg15_94_cif.got.tgz:186553.got - 2010.06.03 18:47:42.
