data_PCOD9280415
_publ_section_title
;
Structure prediction by ZEFSAII (Michael W. Deem and Ramdas Pophale) SiO2 
 PCOD9280415
Probable space group: C 2/C
;
_chemical_formula_sum "Si O2"
_cell_formula_units_Z 40
_cell_length_a 7.855039
_cell_length_b 23.815731
_cell_length_c 12.222327
_cell_angle_alpha 90.000000
_cell_angle_beta 136.767374
_cell_angle_gamma 90.000000
_cell_volume 1566.147631
_symmetry_space_group_name_H-M "C 2/C"
_symmetry_group_IT_number 15
_symmetry_cell_setting 'monoclinic'
loop_
_space_group_symop_operation_xyz
x,y,z
-x,y,1/2-z
-x,-y,-z
x,-y,1/2+z
1/2+x,1/2+y,z
1/2-x,1/2+y,1/2-z
1/2-x,1/2-y,-z
1/2+x,1/2-y,1/2+z
loop_
_atom_site_type_symbol
_atom_site_label
_atom_site_fract_x
_atom_site_fract_y
_atom_site_fract_z
Si Si1 0.770934 0.834746 0.731252
Si Si2 0.491968 0.760935 0.437565
Si Si3 0.314997 0.358105 0.255694
Si Si4 0.798713 0.950456 0.420684
Si Si5 0.414650 0.935892 0.956047
O O1 0.552760 0.796901 0.573597
O O2 0.676959 0.899194 0.689892
O O3 0.000000 0.833032 0.750000
O O4 0.853177 0.798796 0.874931
O O5 0.750000 0.750000 0.500000
O O6 0.342604 0.803718 0.288707
O O7 0.500000 0.336894 0.250000
O O8 0.384812 0.396958 0.390272
O O9 0.148011 0.401843 0.109615
O O10 0.500000 0.962640 0.250000
O O11 0.787480 0.933771 0.542090
O O12 0.000000 0.000000 0.500000
O O13 0.500000 0.000000 0.000000
#
# Coordination Sequence:
#
# PCOD9280415 Si02
#       5
#     8   8   8   8   8
#     4   9  19  34  59  90 119 158 206 259 318 389
#     4   9  19  37  61  90 121 162 215 269 329 404
#     4  10  21  39  63  90 125 170 216 274 340 404
#     4  10  22  39  62  94 132 179 226 278 342 408
#     4  10  21  37  59  90 126 169 216 268 327 399
#
# _framework density 25.540376999999999
#
# number of rings (size 3 to 8) (size 9 to 14) (size 15 to 20)
#    0.000    2.400    0.000    1.200    0.000   17.600 
#    0.000    6.000    0.000   13.200    0.000    0.000 
#    0.000    0.000    0.000    0.000    0.000    0.000 
#
# Total GULP energy -111596.954845 kJ/mol
# GULP energy per Si atom -5579.847742 kJ/mol
# Density = 2.548225 g / cm^3
# Si number density = 25.540377 Si / 1000 Ang^3
#
#
#
# Elastic Constant Matrix: (Units=GPa)
#
#
# Indices 1 2 3 4 5 6 
#
# 1 79.4609 14.0700 17.6109 0.0000 -1.2444 0.0000
# 2 14.0700 202.8445 86.6505 0.0000 5.4173 0.0000
# 3 17.6109 86.6505 81.1034 0.0000 7.9293 0.0000
# 4 0.0000 0.0000 0.0000 65.9414 0.0000 12.4420
# 5 -1.2444 5.4173 7.9293 0.0000 9.6667 0.0000
# 6 0.0000 0.0000 0.0000 12.4420 0.0000 32.8477
#
#
#
# Elastic Compliance Matrix: (Units=1/GPa)
#
#
# Indices 1 2 3 4 5 6 
#
# 1 0.013451 0.000710 -0.004142 0.000000 0.004731 0.000000
# 2 0.000710 0.009193 -0.010308 0.000000 0.003395 0.000000
# 3 -0.004142 -0.010308 0.025799 0.000000 -0.015918 0.000000
# 4 0.000000 0.000000 0.000000 0.016332 0.000000 -0.006186
# 5 0.004731 0.003395 -0.015918 0.000000 0.115211 0.000000
# 6 0.000000 0.000000 0.000000 -0.006186 0.000000 0.032787
#
#
# Mechanical properties :
#
#
# Convention : Reuss Voigt Hill
#
# Bulk Modulus (GPa) = 47.70281 66.67461 57.18871
# Shear Modulus (GPa) = 20.22314 38.02965 29.12639
#
# Velocity S-wave (km/s) = 2.81697 3.86294 3.38065
# Velocity P-wave (km/s) = 5.41279 6.78666 6.13828
#
# Compressibility (1/GPa) = 0.02096312
#
# Stress axis : x y z
#
# Youngs Moduli (GPa) = 74.34314 108.77314 38.76134
#
# Poissons Ratio (x) = -0.07722 0.16054
# Poissons Ratio (y) = -0.05278 0.39956
# Poissons Ratio (z) = 0.30791 1.12127
#
# Static dielectric constant tensor:
#      x y z
#    x 2.004040 0.000000 -0.010930 
#    y 0.000000 2.022510 0.000000 
#    z -0.010930 0.000000 2.204860 
# 
# From -- ./inp_files/137615.got.cif
#   From: 2010.05.17/outbox.cif.g08.bks.cpg/sg15_69_cif.got.tgz:137615.got - 2010.06.03 18:47:42.
