data_PCOD9280393
_publ_section_title
;
Structure prediction by ZEFSAII (Michael W. Deem and Ramdas Pophale) SiO2 
 PCOD9280393
Probable space group: C 2/C
;
_chemical_formula_sum "Si O2"
_cell_formula_units_Z 32
_cell_length_a 9.425176
_cell_length_b 14.204970
_cell_length_c 12.447777
_cell_angle_alpha 90.000000
_cell_angle_beta 130.178711
_cell_angle_gamma 90.000000
_cell_volume 1273.313372
_symmetry_space_group_name_H-M "C 2/C"
_symmetry_group_IT_number 15
_symmetry_cell_setting 'monoclinic'
loop_
_space_group_symop_operation_xyz
x,y,z
-x,y,1/2-z
-x,-y,-z
x,-y,1/2+z
1/2+x,1/2+y,z
1/2-x,1/2+y,1/2-z
1/2-x,1/2-y,-z
1/2+x,1/2-y,1/2+z
loop_
_atom_site_type_symbol
_atom_site_label
_atom_site_fract_x
_atom_site_fract_y
_atom_site_fract_z
Si Si1 0.904545 0.327052 0.920029
Si Si2 0.340675 0.841800 0.260285
Si Si3 0.622595 0.468394 0.903722
Si Si4 0.252365 0.557006 0.335912
O O1 0.826220 0.224568 0.856452
O O2 0.760608 0.391096 0.921522
O O3 0.889340 0.377767 0.797084
O O4 0.084658 0.323549 0.083050
O O5 0.500000 0.819942 0.250000
O O6 0.295522 0.951249 0.225845
O O7 0.500000 0.513813 0.750000
O O8 0.461066 0.420331 0.896457
O O9 0.729995 0.543498 0.028184
#
# Coordination Sequence:
#
# PCOD9280393 Si02
#       4
#     8   8   8   8
#     4  11  24  39  62  96 123 156 206 252 304 361
#     4  12  23  37  63  94 125 155 203 260 303 352
#     4   9  19  36  59  87 119 156 200 243 302 356
#     4  10  21  37  59  87 127 163 195 246 310 360
#
# _framework density 25.131283
#
# number of rings (size 3 to 8) (size 9 to 14) (size 15 to 20)
#    0.000    1.500    2.500    3.750   10.500    0.000 
#    0.000    0.000    0.000   10.500    0.000    0.000 
#    0.000    0.000    0.000    0.000    0.000    0.000 
#
# Total GULP energy -89523.686329 kJ/mol
# GULP energy per Si atom -5595.230396 kJ/mol
# Density = 2.507408 g / cm^3
# Si number density = 25.131283 Si / 1000 Ang^3
#
#
#
# Elastic Constant Matrix: (Units=GPa)
#
#
# Indices 1 2 3 4 5 6 
#
# 1 49.6461 -2.4657 11.8593 0.0000 -0.7527 0.0000
# 2 -2.4657 79.5739 66.8586 0.0000 -22.0982 0.0000
# 3 11.8593 66.8586 241.2102 0.0000 -10.8232 0.0000
# 4 0.0000 0.0000 0.0000 41.5178 0.0000 3.9957
# 5 -0.7527 -22.0982 -10.8232 0.0000 26.2332 0.0000
# 6 0.0000 0.0000 0.0000 3.9957 0.0000 2.2010
#
#
#
# Elastic Compliance Matrix: (Units=1/GPa)
#
#
# Indices 1 2 3 4 5 6 
#
# 1 0.020698 0.002612 -0.001647 0.000000 0.002115 0.000000
# 2 0.002612 0.021663 -0.005411 0.000000 0.016091 0.000000
# 3 -0.001647 -0.005411 0.005624 0.000000 -0.002285 0.000000
# 4 0.000000 0.000000 0.000000 0.029185 0.000000 -0.052984
# 5 0.002115 0.016091 -0.002285 0.000000 0.050792 0.000000
# 6 0.000000 0.000000 0.000000 -0.052984 0.000000 0.550535
#
#
# Mechanical properties :
#
#
# Convention : Reuss Voigt Hill
#
# Bulk Modulus (GPa) = 25.57955 58.10385 41.84170
# Shear Modulus (GPa) = 7.13859 33.60226 20.37043
#
# Velocity S-wave (km/s) = 1.68721 3.66056 2.85012
# Velocity P-wave (km/s) = 3.74113 6.40598 5.24560
#
# Compressibility (1/GPa) = 0.03909373
#
# Stress axis : x y z
#
# Youngs Moduli (GPa) = 48.31434 46.16244 177.80949
#
# Poissons Ratio (x) = -0.12059 0.29282
# Poissons Ratio (y) = -0.12622 0.96211
# Poissons Ratio (z) = 0.07957 0.24978
#
# Static dielectric constant tensor:
#      x y z
#    x 2.092200 0.000000 -0.038860 
#    y 0.000000 1.925380 0.000000 
#    z -0.038860 0.000000 2.011350 
# 
# From -- ./inp_files/28437.got.cif
#   From: 2010.05.17/outbox.cif.g08.bks.cpg/sg15_15_cif.got.tgz:28437.got - 2010.06.03 18:47:42.
