data_PCOD9280787
_publ_section_title
;
Structure prediction by ZEFSAII (Michael W. Deem and Ramdas Pophale) SiO2 
 PCOD9280787
Probable space group: C 2/C
;
_chemical_formula_sum "Si O2"
_cell_formula_units_Z 60
_cell_length_a 18.056485
_cell_length_b 15.675646
_cell_length_c 11.550415
_cell_angle_alpha 90.000000
_cell_angle_beta 68.325984
_cell_angle_gamma 90.000000
_cell_volume 3038.171311
_symmetry_space_group_name_H-M "C 2/C"
_symmetry_group_IT_number 15
_symmetry_cell_setting 'monoclinic'
loop_
_space_group_symop_operation_xyz
x,y,z
-x,y,1/2-z
-x,-y,-z
x,-y,1/2+z
1/2+x,1/2+y,z
1/2-x,1/2+y,1/2-z
1/2-x,1/2-y,-z
1/2+x,1/2-y,1/2+z
loop_
_atom_site_type_symbol
_atom_site_label
_atom_site_fract_x
_atom_site_fract_y
_atom_site_fract_z
Si Si1 0.796984 0.344669 0.729747
Si Si2 0.108056 0.372586 0.384766
Si Si3 0.723613 0.482457 0.941374
Si Si4 0.088744 0.095905 0.680342
Si Si5 0.920292 0.709026 0.355062
Si Si6 0.124197 0.467035 0.000206
Si Si7 0.000000 0.387922 0.250000
Si Si8 0.285184 0.352923 0.198394
O O1 0.737847 0.415604 0.824970
O O2 0.850548 0.318419 0.809253
O O3 0.841130 0.391210 0.598427
O O4 0.777407 0.249827 0.690561
O O5 0.090906 0.323311 0.510709
O O6 0.086593 0.469561 0.427790
O O7 0.201208 0.373911 0.306201
O O8 0.056459 0.339084 0.307750
O O9 0.712129 0.580627 0.908688
O O10 0.648269 0.453815 0.061079
O O11 0.803352 0.486062 0.974090
O O12 0.073850 0.189541 0.637322
O O13 0.139670 0.118546 0.766274
O O14 0.000000 0.057528 0.750000
O O15 0.000000 0.674731 0.250000
O O16 0.062057 0.439462 0.134194
#
# Coordination Sequence:
#
# PCOD9280787 Si02
#       8
#     8   8   8   8   8   8   4   8
#     4  11  22  40  65  93 127 171 213 268 319 377
#     4  12  22  39  61  93 131 169 214 257 312 391
#     4  12  21  42  65  96 128 170 218 261 325 383
#     4  10  22  41  67  95 123 162 220 277 321 371
#     4  10  21  37  63  96 126 165 213 268 318 377
#     4  12  23  40  63  92 132 172 213 258 316 392
#     4  12  26  38  58  94 134 176 206 254 320 378
#     4  11  23  41  65  94 125 168 218 265 322 380
#
# _framework density 19.748721
#
# number of rings (size 3 to 8) (size 9 to 14) (size 15 to 20)
#    0.000    0.800    5.333    2.000    0.933    3.200 
#    0.000    0.000    1.467    0.000    0.000    0.000 
#    0.000    0.000    0.000    0.000    0.000    0.000 
#
# Total GULP energy -167202.128762 kJ/mol
# GULP energy per Si atom -5573.404292 kJ/mol
# Density = 1.970377 g / cm^3
# Si number density = 19.748721 Si / 1000 Ang^3
#
#
#
# Elastic Constant Matrix: (Units=GPa)
#
#
# Indices 1 2 3 4 5 6 
#
# 1 84.9418 7.5871 30.9207 0.0000 -12.6529 0.0000
# 2 7.5871 88.5253 37.5956 0.0000 2.3783 0.0000
# 3 30.9207 37.5956 110.2371 0.0000 -13.9347 0.0000
# 4 0.0000 0.0000 0.0000 41.3096 0.0000 11.2068
# 5 -12.6529 2.3783 -13.9347 0.0000 26.0610 0.0000
# 6 0.0000 0.0000 0.0000 11.2068 0.0000 19.1606
#
#
#
# Elastic Compliance Matrix: (Units=1/GPa)
#
#
# Indices 1 2 3 4 5 6 
#
# 1 0.013676 0.000073 -0.003242 0.000000 0.004900 0.000000
# 2 0.000073 0.013585 -0.005154 0.000000 -0.003960 0.000000
# 3 -0.003242 -0.005154 0.012440 0.000000 0.005548 0.000000
# 4 0.000000 0.000000 0.000000 0.028773 0.000000 -0.016829
# 5 0.004900 -0.003960 0.005548 0.000000 0.044078 0.000000
# 6 0.000000 0.000000 0.000000 -0.016829 0.000000 0.062034
#
#
# Mechanical properties :
#
#
# Convention : Reuss Voigt Hill
#
# Bulk Modulus (GPa) = 43.37380 48.43456 45.90418
# Shear Modulus (GPa) = 25.13612 31.14628 28.14120
#
# Velocity S-wave (km/s) = 3.57150 3.97562 3.77896
# Velocity P-wave (km/s) = 6.24644 6.75668 6.50656
#
# Compressibility (1/GPa) = 0.02305539
#
# Stress axis : x y z
#
# Youngs Moduli (GPa) = 73.12003 73.60894 80.38774
#
# Poissons Ratio (x) = -0.00536 0.26058
# Poissons Ratio (y) = -0.00533 0.41434
# Poissons Ratio (z) = 0.23702 0.37940
#
# Static dielectric constant tensor:
#      x y z
#    x 1.742610 0.000000 -0.008920 
#    y 0.000000 1.742900 0.000000 
#    z -0.008920 0.000000 1.684460 
# 
# From -- ./inp_files/105705.got.cif
#   From: 2010.05.17/outbox.cif.g08.bks.cpg/sg15_53_cif.got.tgz:105705.got - 2010.06.03 18:47:42.
