data_PCOD9280779
_publ_section_title
;
Structure prediction by ZEFSAII (Michael W. Deem and Ramdas Pophale) SiO2 
 PCOD9280779
Probable space group: C 2/C
;
_chemical_formula_sum "Si O2"
_cell_formula_units_Z 24
_cell_length_a 22.591023
_cell_length_b 7.033421
_cell_length_c 12.834064
_cell_angle_alpha 90.000000
_cell_angle_beta 149.742737
_cell_angle_gamma 90.000000
_cell_volume 1027.535484
_symmetry_space_group_name_H-M "C 2/C"
_symmetry_group_IT_number 15
_symmetry_cell_setting 'monoclinic'
loop_
_space_group_symop_operation_xyz
x,y,z
-x,y,1/2-z
-x,-y,-z
x,-y,1/2+z
1/2+x,1/2+y,z
1/2-x,1/2+y,1/2-z
1/2-x,1/2-y,-z
1/2+x,1/2-y,1/2+z
loop_
_atom_site_type_symbol
_atom_site_label
_atom_site_fract_x
_atom_site_fract_y
_atom_site_fract_z
Si Si1 0.740343 0.455836 0.435595
Si Si2 0.568722 0.764937 0.165325
Si Si3 0.589704 0.045753 0.479187
O O1 0.750000 0.250000 0.500000
O O2 0.613765 0.553636 0.253277
O O3 0.832995 0.593940 0.635095
O O4 0.783948 0.453173 0.382353
O O5 0.449301 0.838137 0.036694
O O6 0.571710 0.815508 0.048441
O O7 0.500000 0.096973 0.250000
#
# Coordination Sequence:
#
# PCOD9280779 Si02
#       3
#     8   8   8
#     4  10  21  37  63  95 122 164 219 256 317 372
#     4   9  20  40  59  87 130 167 201 265 314 370
#     4   9  19  39  61  88 130 166 204 257 315 381
#
# _framework density 23.356857000000002
#
# number of rings (size 3 to 8) (size 9 to 14) (size 15 to 20)
#    0.000    2.667    0.000    0.000    4.667    0.000 
#    0.000   40.000    0.000    0.000    0.000    0.000 
#    0.000    0.000    0.000    0.000    0.000    0.000 
#
# Total GULP energy -67084.990516 kJ/mol
# GULP energy per Si atom -5590.415876 kJ/mol
# Density = 2.330370 g / cm^3
# Si number density = 23.356857 Si / 1000 Ang^3
#
#
#
# Elastic Constant Matrix: (Units=GPa)
#
#
# Indices 1 2 3 4 5 6 
#
# 1 137.7964 69.8398 24.8397 0.0000 -8.4346 0.0000
# 2 69.8398 169.0677 27.1371 0.0000 18.7775 0.0000
# 3 24.8397 27.1371 41.4952 0.0000 -5.5007 0.0000
# 4 0.0000 0.0000 0.0000 29.5362 0.0000 14.3445
# 5 -8.4346 18.7775 -5.5007 0.0000 40.3952 0.0000
# 6 0.0000 0.0000 0.0000 14.3445 0.0000 3.5235
#
#
#
# Elastic Compliance Matrix: (Units=1/GPa)
#
#
# Indices 1 2 3 4 5 6 
#
# 1 0.010076 -0.004104 -0.002867 0.000000 0.003621 0.000000
# 2 -0.004104 0.008882 -0.004086 0.000000 -0.005542 0.000000
# 3 -0.002867 -0.004086 0.029187 0.000000 0.005275 0.000000
# 4 0.000000 0.000000 0.000000 -0.034649 0.000000 0.141058
# 5 0.003621 -0.005542 0.005275 0.000000 0.028806 0.000000
# 6 0.000000 0.000000 0.000000 0.141058 0.000000 -0.290447
#
#
# Mechanical properties :
#
#
# Convention : Reuss Voigt Hill
#
# Bulk Modulus (GPa) = 38.41873 65.77695 52.09784
# Shear Modulus (GPa) = -23.00402 29.79383 3.39490
#
# Velocity S-wave (km/s) = -3.14171 3.57542 1.20692
# Velocity P-wave (km/s) = 1.82315 6.72813 4.92907
#
# Compressibility (1/GPa) = 0.02602897
#
# Stress axis : x y z
#
# Youngs Moduli (GPa) = 99.24854 112.59325 34.26149
#
# Poissons Ratio (x) = 0.46209 0.09824
# Poissons Ratio (y) = 0.40732 0.14000
# Poissons Ratio (z) = 0.28459 0.46008
#
# Static dielectric constant tensor:
#      x y z
#    x 1.889280 0.000000 0.052380 
#    y 0.000000 1.879730 0.000000 
#    z 0.052380 0.000000 1.960080 
# 
# From -- ./inp_files/149603.got.cif
#   From: 2010.05.17/outbox.cif.g08.bks.cpg/sg15_75_cif.got.tgz:149603.got - 2010.06.03 18:47:42.
