data_PCOD9280685
_publ_section_title
;
Structure prediction by ZEFSAII (Michael W. Deem and Ramdas Pophale) SiO2 
 PCOD9280685
Probable space group: C 2/C
;
_chemical_formula_sum "Si O2"
_cell_formula_units_Z 48
_cell_length_a 20.512344
_cell_length_b 24.352209
_cell_length_c 13.588435
_cell_angle_alpha 90.000000
_cell_angle_beta 159.561844
_cell_angle_gamma 90.000000
_cell_volume 2370.241200
_symmetry_space_group_name_H-M "C 2/C"
_symmetry_group_IT_number 15
_symmetry_cell_setting 'monoclinic'
loop_
_space_group_symop_operation_xyz
x,y,z
-x,y,1/2-z
-x,-y,-z
x,-y,1/2+z
1/2+x,1/2+y,z
1/2-x,1/2+y,1/2-z
1/2-x,1/2-y,-z
1/2+x,1/2-y,1/2+z
loop_
_atom_site_type_symbol
_atom_site_label
_atom_site_fract_x
_atom_site_fract_y
_atom_site_fract_z
Si Si1 0.980846 0.585555 0.340717
Si Si2 0.911963 0.072939 0.949481
Si Si3 0.624476 0.683610 0.297399
Si Si4 0.078849 0.291983 0.752657
Si Si5 0.895826 0.037494 0.700445
Si Si6 0.774018 0.759903 0.367199
O O1 0.896744 0.645352 0.251177
O O2 0.000000 0.584698 0.250000
O O3 0.195221 0.577452 0.677497
O O4 0.823555 0.539866 0.138737
O O5 0.914226 0.068781 0.832390
O O6 0.029019 0.126069 0.145193
O O7 0.013189 0.020981 0.142453
O O8 0.766232 0.702627 0.413957
O O9 0.713633 0.693432 0.530208
O O10 0.454618 0.728184 0.057296
O O11 0.000000 0.299124 0.750000
O O12 0.911384 0.265390 0.455936
O O13 0.250000 0.250000 0.000000
O O14 0.000000 0.059127 0.750000
#
# Coordination Sequence:
#
# PCOD9280685 Si02
#       6
#     8   8   8   8   8   8
#     4   9  20  39  60  88 126 164 207 264 318 382
#     4  10  21  43  66  87 128 173 212 263 331 387
#     4  10  21  40  64  88 126 166 207 258 310 380
#     4  11  22  35  58  92 126 166 203 250 313 376
#     4  10  23  39  64  94 122 164 219 280 318 374
#     4  10  21  37  62  93 121 165 210 251 308 380
#
# _framework density 20.251103000000001
#
# number of rings (size 3 to 8) (size 9 to 14) (size 15 to 20)
#    0.000    2.000    1.667    1.000    7.000    1.333 
#    3.000    0.000   33.000    0.000    0.000    0.000 
#    0.000    0.000    0.000    0.000    0.000    0.000 
#
# Total GULP energy -133713.002268 kJ/mol
# GULP energy per Si atom -5571.375095 kJ/mol
# Density = 2.020501 g / cm^3
# Si number density = 20.251103 Si / 1000 Ang^3
#
#
#
# Elastic Constant Matrix: (Units=GPa)
#
#
# Indices 1 2 3 4 5 6 
#
# 1 62.9644 6.6404 22.9330 0.0000 2.7057 0.0000
# 2 6.6404 78.0608 67.3124 0.0000 10.5193 0.0000
# 3 22.9330 67.3124 142.1160 -0.0001 0.3079 0.0000
# 4 0.0000 0.0000 -0.0001 34.5995 0.0000 2.3655
# 5 2.7057 10.5193 0.3079 0.0000 30.2274 0.0000
# 6 0.0000 0.0000 0.0000 2.3655 0.0000 15.7431
#
#
#
# Elastic Compliance Matrix: (Units=1/GPa)
#
#
# Indices 1 2 3 4 5 6 
#
# 1 0.017120 0.002062 -0.003734 0.000000 -0.002212 0.000000
# 2 0.002062 0.023712 -0.011546 0.000000 -0.008319 0.000000
# 3 -0.003734 -0.011546 0.013099 0.000000 0.004219 0.000000
# 4 0.000000 0.000000 0.000000 0.029202 0.000000 -0.004388
# 5 -0.002212 -0.008319 0.004219 0.000000 0.036133 0.000000
# 6 0.000000 0.000000 0.000000 -0.004388 0.000000 0.064179
#
#
# Mechanical properties :
#
#
# Convention : Reuss Voigt Hill
#
# Bulk Modulus (GPa) = 36.37163 52.99032 44.68098
# Shear Modulus (GPa) = 22.82627 28.53102 25.67865
#
# Velocity S-wave (km/s) = 3.36097 3.75755 3.56478
# Velocity P-wave (km/s) = 5.74985 6.71186 6.24939
#
# Compressibility (1/GPa) = 0.02749395
#
# Stress axis : x y z
#
# Youngs Moduli (GPa) = 58.41205 42.17225 76.34382
#
# Poissons Ratio (x) = -0.08696 0.28510
# Poissons Ratio (y) = -0.12044 0.88146
# Poissons Ratio (z) = 0.21814 0.48692
#
# Static dielectric constant tensor:
#      x y z
#    x 1.724780 0.000000 0.015460 
#    y 0.000000 1.749740 0.000000 
#    z 0.015460 0.000000 1.733810 
# 
# From -- ./inp_files/169714.got.cif
#   From: 2010.05.17/outbox.cif.g08.bks.cpg/sg15_85_cif.got.tgz:169714.got - 2010.06.03 18:47:42.
