data_PCOD9280022
_publ_section_title
;
Structure prediction by ZEFSAII (Michael W. Deem and Ramdas Pophale) SiO2 
 PCOD9280022
Probable space group: C 2/C
;
_chemical_formula_sum "Si O2"
_cell_formula_units_Z 44
_cell_length_a 18.158402
_cell_length_b 22.603299
_cell_length_c 5.742245
_cell_angle_alpha 90.000000
_cell_angle_beta 116.148084
_cell_angle_gamma 90.000000
_cell_volume 2115.641637
_symmetry_space_group_name_H-M "C 2/C"
_symmetry_group_IT_number 15
_symmetry_cell_setting 'monoclinic'
loop_
_space_group_symop_operation_xyz
x,y,z
-x,y,1/2-z
-x,-y,-z
x,-y,1/2+z
1/2+x,1/2+y,z
1/2-x,1/2+y,1/2-z
1/2-x,1/2-y,-z
1/2+x,1/2-y,1/2+z
loop_
_atom_site_type_symbol
_atom_site_label
_atom_site_fract_x
_atom_site_fract_y
_atom_site_fract_z
Si Si1 0.500000 0.735421 0.250000
Si Si2 0.440192 0.366655 0.971476
Si Si3 0.613042 0.526928 0.345587
Si Si4 0.273444 0.649655 0.519039
Si Si5 0.318789 0.247038 0.397482
Si Si6 0.796131 0.483055 0.561000
O O1 0.518033 0.693352 0.054513
O O2 0.587470 0.766808 0.403717
O O3 0.420291 0.407600 0.724814
O O4 0.500000 0.393331 0.250000
O O5 0.350807 0.359186 0.958654
O O6 0.588241 0.502422 0.562879
O O7 0.711513 0.520678 0.468755
O O8 0.312606 0.686700 0.785036
O O9 0.209751 0.696205 0.319944
O O10 0.231501 0.585910 0.499369
O O11 0.250000 0.250000 0.500000
O O12 0.836384 0.504606 0.372576
#
# Coordination Sequence:
#
# PCOD9280022 Si02
#       6
#     4   8   8   8   8   8
#     4  12  26  40  64  90 124 168 226 270 322 382
#     4  12  24  37  58  85 131 170 212 265 314 382
#     4  10  22  36  53  86 125 175 217 247 308 375
#     4  11  23  42  60  91 128 174 221 267 327 388
#     4  11  25  41  66  90 124 175 222 275 326 383
#     4  10  21  36  63  91 129 167 222 260 323 390
#
# _framework density 20.797474000000001
#
# number of rings (size 3 to 8) (size 9 to 14) (size 15 to 20)
#    0.000    1.091    7.273    0.000   10.182    0.727 
#    0.000    0.000    0.000    0.000    0.000    1.273 
#    0.000    0.000    0.000    0.000    0.000    0.000 
#
# Total GULP energy -122735.802146 kJ/mol
# GULP energy per Si atom -5578.900098 kJ/mol
# Density = 2.075014 g / cm^3
# Si number density = 20.797474 Si / 1000 Ang^3
#
#
#
# Elastic Constant Matrix: (Units=GPa)
#
#
# Indices 1 2 3 4 5 6 
#
# 1 59.5926 8.6380 35.9728 0.0000 2.8856 0.0000
# 2 8.6380 67.7458 26.0939 0.0000 2.4792 0.0000
# 3 35.9728 26.0939 107.0653 0.0000 -8.3512 0.0000
# 4 0.0000 0.0000 0.0000 38.2662 0.0000 -6.2127
# 5 2.8856 2.4792 -8.3512 0.0000 42.5472 0.0000
# 6 0.0000 0.0000 0.0000 -6.2127 0.0000 10.8718
#
#
#
# Elastic Compliance Matrix: (Units=1/GPa)
#
#
# Indices 1 2 3 4 5 6 
#
# 1 0.021402 0.000261 -0.007484 0.000000 -0.002936 0.000000
# 2 0.000261 0.016424 -0.004231 0.000000 -0.001805 0.000000
# 3 -0.007484 -0.004231 0.013146 0.000000 0.003334 0.000000
# 4 0.000000 0.000000 0.000000 0.028805 0.000000 0.016461
# 5 -0.002936 -0.001805 0.003334 0.000000 0.024462 0.000000
# 6 0.000000 0.000000 0.000000 0.016461 0.000000 0.101388
#
#
# Mechanical properties :
#
#
# Convention : Reuss Voigt Hill
#
# Bulk Modulus (GPa) = 35.63267 41.75700 38.69484
# Shear Modulus (GPa) = 21.01817 29.25031 25.13424
#
# Velocity S-wave (km/s) = 3.18246 3.75432 3.48015
# Velocity P-wave (km/s) = 5.53845 6.23816 5.89869
#
# Compressibility (1/GPa) = 0.02806413
#
# Stress axis : x y z
#
# Youngs Moduli (GPa) = 46.72391 60.88793 76.06993
#
# Poissons Ratio (x) = -0.01589 0.56927
# Poissons Ratio (y) = -0.01219 0.32187
# Poissons Ratio (z) = 0.34966 0.25763
#
# Static dielectric constant tensor:
#      x y z
#    x 1.778130 0.000000 -0.022130 
#    y 0.000000 1.773120 0.000000 
#    z -0.022130 0.000000 1.859530 
# 
# From -- ./inp_files/10276.got.cif
#   From: 2010.05.17/outbox.cif.g08.bks.cpg/sg15_6_cif.got.tgz:10276.got - 2010.06.03 18:47:42.
