data_PCOD9280642
_publ_section_title
;
Structure prediction by ZEFSAII (Michael W. Deem and Ramdas Pophale) SiO2 
 PCOD9280642
Probable space group: C 2/C
;
_chemical_formula_sum "Si O2"
_cell_formula_units_Z 40
_cell_length_a 7.815690
_cell_length_b 12.651486
_cell_length_c 15.835405
_cell_angle_alpha 90.000000
_cell_angle_beta 90.588076
_cell_angle_gamma 90.000000
_cell_volume 1565.723837
_symmetry_space_group_name_H-M "C 2/C"
_symmetry_group_IT_number 15
_symmetry_cell_setting 'monoclinic'
loop_
_space_group_symop_operation_xyz
x,y,z
-x,y,1/2-z
-x,-y,-z
x,-y,1/2+z
1/2+x,1/2+y,z
1/2-x,1/2+y,1/2-z
1/2-x,1/2-y,-z
1/2+x,1/2-y,1/2+z
loop_
_atom_site_type_symbol
_atom_site_label
_atom_site_fract_x
_atom_site_fract_y
_atom_site_fract_z
Si Si1 0.145480 0.479915 0.306263
Si Si2 0.607334 0.193191 0.383871
Si Si3 0.026835 0.645513 0.936125
Si Si4 0.999145 0.147884 0.352914
Si Si5 0.662744 0.428567 0.352381
O O1 0.080686 0.598292 0.319350
O O2 0.301603 0.460428 0.245380
O O3 0.000000 0.421083 0.250000
O O4 0.161437 0.438633 0.401066
O O5 0.502784 0.168009 0.467145
O O6 0.813514 0.175805 0.392573
O O7 0.575589 0.313767 0.357091
O O8 0.095772 0.751108 0.890168
O O9 0.843879 0.594864 0.902128
O O10 0.000000 0.155572 0.250000
O O11 0.069631 0.034861 0.383375
#
# Coordination Sequence:
#
# PCOD9280642 Si02
#       5
#     8   8   8   8   8
#     4  10  21  39  59  80 118 158 198 247 305 363
#     4  11  22  38  59  89 120 154 199 252 306 360
#     4  10  22  38  60  86 121 157 197 249 310 359
#     4  11  20  37  62  88 117 158 202 249 296 363
#     4  10  21  37  62  86 116 157 202 248 294 362
#
# _framework density 25.547291000000001
#
# number of rings (size 3 to 8) (size 9 to 14) (size 15 to 20)
#    0.000    1.600    2.000    6.000    0.000    4.000 
#    0.000    0.000    0.000    6.000    0.000    0.000 
#    0.000    0.000    0.000    0.000    0.000    0.000 
#
# Total GULP energy -111485.724391 kJ/mol
# GULP energy per Si atom -5574.286220 kJ/mol
# Density = 2.548914 g / cm^3
# Si number density = 25.547291 Si / 1000 Ang^3
#
#
#
# Elastic Constant Matrix: (Units=GPa)
#
#
# Indices 1 2 3 4 5 6 
#
# 1 39.2084 18.0481 -16.5217 0.0000 -4.4724 0.0000
# 2 18.0481 263.7977 143.1958 0.0000 -12.0923 0.0000
# 3 -16.5217 143.1958 416.7328 0.0000 -41.7243 0.0000
# 4 0.0000 0.0000 0.0000 27.3867 0.0000 -6.2473
# 5 -4.4724 -12.0923 -41.7243 0.0000 22.9651 0.0000
# 6 0.0000 0.0000 0.0000 -6.2473 0.0000 33.8385
#
#
#
# Elastic Compliance Matrix: (Units=1/GPa)
#
#
# Indices 1 2 3 4 5 6 
#
# 1 0.029617 -0.003380 0.003343 0.000000 0.010062 0.000000
# 2 -0.003380 0.005051 -0.002041 0.000000 -0.001706 0.000000
# 3 0.003343 -0.002041 0.003900 0.000000 0.006663 0.000000
# 4 0.000000 0.000000 0.000000 0.038119 0.000000 0.007038
# 5 0.010062 -0.001706 0.006663 0.000000 0.056712 0.000000
# 6 0.000000 0.000000 0.000000 0.007038 0.000000 0.030851
#
#
# Mechanical properties :
#
#
# Convention : Reuss Voigt Hill
#
# Bulk Modulus (GPa) = 29.05779 112.13147 70.59463
# Shear Modulus (GPa) = 27.79674 55.17250 41.48462
#
# Velocity S-wave (km/s) = 3.30214 4.65222 4.03406
# Velocity P-wave (km/s) = 5.09290 8.53490 7.02788
#
# Compressibility (1/GPa) = 0.03441418
#
# Stress axis : x y z
#
# Youngs Moduli (GPa) = 33.76457 197.96223 256.38184
#
# Poissons Ratio (x) = 0.66904 -0.85706
# Poissons Ratio (y) = 0.11411 0.52315
# Poissons Ratio (z) = -0.11287 0.40395
#
# Static dielectric constant tensor:
#      x y z
#    x 2.856800 0.000000 0.375450 
#    y 0.000000 1.727270 0.000000 
#    z 0.375450 0.000000 2.192710 
# 
# From -- ./inp_files/195553.got.cif
#   From: 2010.05.17/outbox.cif.g08.bks.cpg/sg15_98_cif.got.tgz:195553.got - 2010.06.03 18:47:42.
