data_PCOD9280819
_publ_section_title
;
Structure prediction by ZEFSAII (Michael W. Deem and Ramdas Pophale) SiO2 
 PCOD9280819
Probable space group: C 2/C
;
_chemical_formula_sum "Si O2"
_cell_formula_units_Z 40
_cell_length_a 16.662337
_cell_length_b 12.261292
_cell_length_c 9.106329
_cell_angle_alpha 90.000000
_cell_angle_beta 126.399974
_cell_angle_gamma 90.000000
_cell_volume 1497.456488
_symmetry_space_group_name_H-M "C 2/C"
_symmetry_group_IT_number 15
_symmetry_cell_setting 'monoclinic'
loop_
_space_group_symop_operation_xyz
x,y,z
-x,y,1/2-z
-x,-y,-z
x,-y,1/2+z
1/2+x,1/2+y,z
1/2-x,1/2+y,1/2-z
1/2-x,1/2-y,-z
1/2+x,1/2-y,1/2+z
loop_
_atom_site_type_symbol
_atom_site_label
_atom_site_fract_x
_atom_site_fract_y
_atom_site_fract_z
Si Si1 0.165572 0.632228 0.825080
Si Si2 0.365512 0.393902 0.370478
Si Si3 0.098737 0.467512 0.956909
Si Si4 0.119959 0.242972 0.884381
Si Si5 0.900597 0.868092 0.834791
O O1 0.276996 0.608602 0.890709
O O2 0.148019 0.581466 0.966295
O O3 0.097825 0.568737 0.626360
O O4 0.136323 0.759078 0.787561
O O5 0.348466 0.297077 0.238457
O O6 0.478808 0.377581 0.550444
O O7 0.365173 0.507693 0.279838
O O8 0.158066 0.364317 0.954839
O O9 0.000000 0.468889 0.750000
O O10 0.000000 0.249662 0.750000
O O11 0.133348 0.161919 0.035015
#
# Coordination Sequence:
#
# PCOD9280819 Si02
#       5
#     8   8   8   8   8
#     4  11  24  40  70  98 128 174 218 270 326 393
#     4  10  21  37  64  92 126 169 222 270 315 390
#     4  10  22  42  65  96 131 167 216 272 329 386
#     4   8  17  36  62  84 116 169 216 259 306 381
#     4   9  21  42  60  92 133 174 218 265 327 385
#
# _framework density 26.711960999999999
#
# number of rings (size 3 to 8) (size 9 to 14) (size 15 to 20)
#    0.000    2.400    0.000    1.800    5.600    1.600 
#    0.000    8.000    0.000    0.000    0.000    0.000 
#    0.000    0.000    0.000    0.000    0.000    0.000 
#
# Total GULP energy -111868.113191 kJ/mol
# GULP energy per Si atom -5593.405660 kJ/mol
# Density = 2.665116 g / cm^3
# Si number density = 26.711961 Si / 1000 Ang^3
#
#
#
# Elastic Constant Matrix: (Units=GPa)
#
#
# Indices 1 2 3 4 5 6 
#
# 1 62.8159 19.6377 36.4275 0.0000 33.2717 0.0000
# 2 19.6377 152.7821 30.7975 0.0000 -12.0013 0.0000
# 3 36.4275 30.7975 87.2985 0.0000 1.6909 0.0000
# 4 0.0000 0.0000 0.0000 37.0828 0.0000 -19.2665
# 5 33.2717 -12.0013 1.6909 0.0000 52.8970 0.0000
# 6 0.0000 0.0000 0.0000 -19.2665 0.0000 -125.3332
#
#
#
# Elastic Compliance Matrix: (Units=1/GPa)
#
#
# Indices 1 2 3 4 5 6 
#
# 1 0.038417 -0.004023 -0.014134 0.000000 -0.024625 0.000000
# 2 -0.004023 0.007620 -0.001093 0.000000 0.004294 0.000000
# 3 -0.014134 -0.001093 0.017582 0.000000 0.008080 0.000000
# 4 0.000000 0.000000 0.000000 0.024972 0.000000 -0.003839
# 5 -0.024625 0.004294 0.008080 0.000000 0.035109 0.000000
# 6 0.000000 0.000000 0.000000 -0.003839 0.000000 -0.007389
#
#
# Mechanical properties :
#
#
# Convention : Reuss Voigt Hill
#
# Bulk Modulus (GPa) = 39.81091 52.95798 46.38444
# Shear Modulus (GPa) = 30.64035 7.33158 18.98597
#
# Velocity S-wave (km/s) = 3.39051 1.65851 2.66891
# Velocity P-wave (km/s) = 5.50123 4.85140 5.18650
#
# Compressibility (1/GPa) = 0.02511874
#
# Stress axis : x y z
#
# Youngs Moduli (GPa) = 26.03043 131.23476 56.87735
#
# Poissons Ratio (x) = 0.52796 0.80391
# Poissons Ratio (y) = 0.10472 0.06215
# Poissons Ratio (z) = 0.36792 0.14339
#
# Static dielectric constant tensor:
#      x y z
#    x 2.090440 0.000000 0.089270 
#    y 0.000000 2.031570 0.000000 
#    z 0.089270 0.000000 2.209030 
# 
# From -- ./inp_files/103930.got.cif
#   From: 2010.05.17/outbox.cif.g08.bks.cpg/sg15_52_cif.got.tgz:103930.got - 2010.06.03 18:47:42.
