data_PCOD9280144
_publ_section_title
;
Structure prediction by ZEFSAII (Michael W. Deem and Ramdas Pophale) SiO2 
 PCOD9280144
Probable space group: C 2/C
;
_chemical_formula_sum "Si O2"
_cell_formula_units_Z 60
_cell_length_a 18.704621
_cell_length_b 15.007860
_cell_length_c 10.437617
_cell_angle_alpha 90.000000
_cell_angle_beta 103.180883
_cell_angle_gamma 90.000000
_cell_volume 2852.818585
_symmetry_space_group_name_H-M "C 2/C"
_symmetry_group_IT_number 15
_symmetry_cell_setting 'monoclinic'
loop_
_space_group_symop_operation_xyz
x,y,z
-x,y,1/2-z
-x,-y,-z
x,-y,1/2+z
1/2+x,1/2+y,z
1/2-x,1/2+y,1/2-z
1/2-x,1/2-y,-z
1/2+x,1/2-y,1/2+z
loop_
_atom_site_type_symbol
_atom_site_label
_atom_site_fract_x
_atom_site_fract_y
_atom_site_fract_z
Si Si1 0.853543 0.786871 0.530985
Si Si2 0.373689 0.046358 0.219443
Si Si3 0.514276 0.284774 0.525463
Si Si4 0.235588 0.345002 0.669453
Si Si5 0.396137 0.146722 0.765428
Si Si6 0.703903 0.877926 0.043971
Si Si7 0.000000 0.689576 0.250000
Si Si8 0.331828 0.677051 0.465178
O O1 0.814770 0.738913 0.394402
O O2 0.795390 0.851175 0.578775
O O3 0.869537 0.705549 0.636537
O O4 0.935642 0.821947 0.537019
O O5 0.316912 0.073139 0.310528
O O6 0.431039 0.125815 0.239485
O O7 0.416945 0.953817 0.243037
O O8 0.331402 0.051494 0.066614
O O9 0.543839 0.204352 0.630810
O O10 0.504661 0.246620 0.379882
O O11 0.586083 0.346633 0.542603
O O12 0.282306 0.327037 0.817009
O O13 0.325750 0.124773 0.825806
O O14 0.674024 0.779256 0.988271
O O15 0.790586 0.879547 0.055830
#
# Coordination Sequence:
#
# PCOD9280144 Si02
#       8
#     8   8   8   8   8   8   4   8
#     4  11  22  35  54  81 116 145 181 232 275 324
#     4  11  23  35  53  77 115 155 188 219 268 330
#     4  11  22  36  54  83 112 146 188 225 279 332
#     4  10  21  37  54  76 111 149 188 228 267 323
#     4  11  23  35  54  80 116 151 184 221 275 339
#     4   9  18  35  53  73 101 147 190 225 263 318
#     4  12  22  34  50  76 114 154 182 222 266 334
#     4   9  17  35  58  73 102 142 191 231 268 319
#
# _framework density 21.031832999999999
#
# number of rings (size 3 to 8) (size 9 to 14) (size 15 to 20)
#    0.000    1.600    6.667    0.400    3.733    0.533 
#    0.000    0.000    0.000    0.000    0.000    0.933 
#   16.000    0.133    0.000    0.000    0.000    0.000 
#
# Total GULP energy -167178.351052 kJ/mol
# GULP energy per Si atom -5572.611702 kJ/mol
# Density = 2.098396 g / cm^3
# Si number density = 21.031833 Si / 1000 Ang^3
#
#
#
# Elastic Constant Matrix: (Units=GPa)
#
#
# Indices 1 2 3 4 5 6 
#
# 1 172.7567 2.7799 12.5521 0.0000 -1.9901 0.0000
# 2 2.7799 14.0526 1.6159 0.0000 1.3152 0.0000
# 3 12.5521 1.6159 65.8628 0.0000 1.0916 0.0000
# 4 0.0000 0.0000 0.0000 11.0781 0.0000 -2.0665
# 5 -1.9901 1.3152 1.0916 0.0000 25.6944 0.0000
# 6 0.0000 0.0000 0.0000 -2.0665 0.0000 4.9392
#
#
#
# Elastic Compliance Matrix: (Units=1/GPa)
#
#
# Indices 1 2 3 4 5 6 
#
# 1 0.005893 -0.001091 -0.001106 0.000000 0.000559 0.000000
# 2 -0.001091 0.071895 -0.001495 0.000000 -0.003701 0.000000
# 3 -0.001106 -0.001495 0.015441 0.000000 -0.000665 0.000000
# 4 0.000000 0.000000 0.000000 0.097910 0.000000 0.040965
# 5 0.000559 -0.003701 -0.000665 0.000000 0.039180 0.000000
# 6 0.000000 0.000000 0.000000 0.040965 0.000000 0.219601
#
#
# Mechanical properties :
#
#
# Convention : Reuss Voigt Hill
#
# Bulk Modulus (GPa) = 11.64860 31.84088 21.74474
# Shear Modulus (GPa) = 10.28978 24.05728 17.17353
#
# Velocity S-wave (km/s) = 2.21429 3.38576 2.86063
# Velocity P-wave (km/s) = 3.47679 5.51876 4.61220
#
# Compressibility (1/GPa) = 0.08584721
#
# Stress axis : x y z
#
# Youngs Moduli (GPa) = 169.69828 13.90913 64.76068
#
# Poissons Ratio (x) = 0.01517 0.07160
# Poissons Ratio (y) = 0.18513 0.09680
# Poissons Ratio (z) = 0.18761 0.02079
#
# Static dielectric constant tensor:
#      x y z
#    x 1.873540 0.000000 -0.022950 
#    y 0.000000 1.757740 0.000000 
#    z -0.022950 0.000000 1.787690 
# 
# From -- ./inp_files/106448.got.cif
#   From: 2010.05.17/outbox.cif.g08.bks.cpg/sg15_54_cif.got.tgz:106448.got - 2010.06.03 18:47:42.
