data_PCOD9280296
_publ_section_title
;
Structure prediction by ZEFSAII (Michael W. Deem and Ramdas Pophale) SiO2 
 PCOD9280296
Probable space group: C 2/C
;
_chemical_formula_sum "Si O2"
_cell_formula_units_Z 52
_cell_length_a 11.925236
_cell_length_b 27.473748
_cell_length_c 11.022838
_cell_angle_alpha 90.000000
_cell_angle_beta 44.964425
_cell_angle_gamma 90.000000
_cell_volume 2552.075383
_symmetry_space_group_name_H-M "C 2/C"
_symmetry_group_IT_number 15
_symmetry_cell_setting 'monoclinic'
loop_
_space_group_symop_operation_xyz
x,y,z
-x,y,1/2-z
-x,-y,-z
x,-y,1/2+z
1/2+x,1/2+y,z
1/2-x,1/2+y,1/2-z
1/2-x,1/2-y,-z
1/2+x,1/2-y,1/2+z
loop_
_atom_site_type_symbol
_atom_site_label
_atom_site_fract_x
_atom_site_fract_y
_atom_site_fract_z
Si Si1 0.779280 0.759027 0.620747
Si Si2 0.357726 0.512352 0.260177
Si Si3 0.567159 0.320372 0.334535
Si Si4 0.591466 0.422735 0.438434
Si Si5 0.173979 0.309424 0.922982
Si Si6 0.655219 0.085598 0.548416
Si Si7 0.000000 0.242365 0.250000
O O1 0.750000 0.750000 0.500000
O O2 0.737708 0.706164 0.708183
O O3 0.665365 0.794884 0.786862
O O4 0.946235 0.785788 0.498177
O O5 0.500000 0.503582 0.250000
O O6 0.327609 0.463039 0.209802
O O7 0.204943 0.537182 0.437057
O O8 0.433188 0.551594 0.109672
O O9 0.500000 0.321610 0.250000
O O10 0.562964 0.373789 0.388685
O O11 0.698682 0.408740 0.470452
O O12 0.350445 0.291165 0.827783
O O13 0.148665 0.366203 0.970413
O O14 0.059407 0.278181 0.097645
O O15 0.500000 0.080852 0.750000
#
# Coordination Sequence:
#
# PCOD9280296 Si02
#       7
#     8   8   8   8   8   8   4
#     4  10  22  36  56  83 119 163 202 249 300 363
#     4   9  20  39  63  88 114 151 205 257 312 381
#     4  10  21  37  58  85 119 159 203 246 303 369
#     4  10  21  38  63  87 114 157 203 258 313 370
#     4  11  22  38  56  88 125 161 211 251 311 372
#     4  11  24  38  59  91 124 159 203 258 327 377
#     4  10  24  34  58  86 124 168 202 256 302 368
#
# _framework density 20.375574
#
# number of rings (size 3 to 8) (size 9 to 14) (size 15 to 20)
#    0.000    1.846    0.769    2.308    9.692    1.846 
#    0.000    0.000    0.000    4.615    0.000    0.000 
#    0.000    0.000    0.000    0.000    0.000    0.000 
#
# Total GULP energy -145077.122688 kJ/mol
# GULP energy per Si atom -5579.889334 kJ/mol
# Density = 2.032920 g / cm^3
# Si number density = 20.375574 Si / 1000 Ang^3
#
#
#
# Elastic Constant Matrix: (Units=GPa)
#
#
# Indices 1 2 3 4 5 6 
#
# 1 25.6375 32.9150 29.9030 0.0000 8.8729 0.0000
# 2 32.9150 122.8694 51.8574 0.0000 7.3868 0.0000
# 3 29.9030 51.8574 127.8611 0.0000 10.9427 0.0000
# 4 0.0000 0.0000 0.0000 572.6470 0.0000 231.5532
# 5 8.8729 7.3868 10.9427 0.0000 31.8560 0.0000
# 6 0.0000 0.0000 0.0000 231.5532 0.0000 114.3258
#
#
#
# Elastic Compliance Matrix: (Units=1/GPa)
#
#
# Indices 1 2 3 4 5 6 
#
# 1 0.074946 -0.014896 -0.010298 0.000000 -0.013883 0.000000
# 2 -0.014896 0.012807 -0.001866 0.000000 0.001820 0.000000
# 3 -0.010298 -0.001866 0.011028 0.000000 -0.000487 0.000000
# 4 0.000000 0.000000 0.000000 0.009647 0.000000 -0.019538
# 5 -0.013883 0.001820 -0.000487 0.000000 0.035003 0.000000
# 6 0.000000 0.000000 0.000000 -0.019538 0.000000 0.048319
#
#
# Mechanical properties :
#
#
# Convention : Reuss Voigt Hill
#
# Bulk Modulus (GPa) = 22.39110 56.19098 39.29104
# Shear Modulus (GPa) = 19.17483 154.54527 86.86005
#
# Velocity S-wave (km/s) = 3.07101 8.71854 6.53621
# Velocity P-wave (km/s) = 4.85674 11.35729 8.73430
#
# Compressibility (1/GPa) = 0.04466060
#
# Stress axis : x y z
#
# Youngs Moduli (GPa) = 13.34290 78.07943 90.67766
#
# Poissons Ratio (x) = 1.16308 0.93381
# Poissons Ratio (y) = 0.19876 0.16924
# Poissons Ratio (z) = 0.13741 0.14573
#
# Static dielectric constant tensor:
#      x y z
#    x 1.791890 0.000000 0.012160 
#    y 0.000000 1.691440 0.000000 
#    z 0.012160 0.000000 1.786090 
# 
# From -- ./inp_files/100616.got.cif
#   From: 2010.05.17/outbox.cif.g08.bks.cpg/sg15_51_cif.got.tgz:100616.got - 2010.06.03 18:47:42.
