data_PCOD9280443
_publ_section_title
;
Structure prediction by ZEFSAII (Michael W. Deem and Ramdas Pophale) SiO2 
 PCOD9280443
Probable space group: C 2/C
;
_chemical_formula_sum "Si O2"
_cell_formula_units_Z 40
_cell_length_a 20.089160
_cell_length_b 13.163029
_cell_length_c 12.388235
_cell_angle_alpha 90.000000
_cell_angle_beta 143.592665
_cell_angle_gamma 90.000000
_cell_volume 1944.302421
_symmetry_space_group_name_H-M "C 2/C"
_symmetry_group_IT_number 15
_symmetry_cell_setting 'monoclinic'
loop_
_space_group_symop_operation_xyz
x,y,z
-x,y,1/2-z
-x,-y,-z
x,-y,1/2+z
1/2+x,1/2+y,z
1/2-x,1/2+y,1/2-z
1/2-x,1/2-y,-z
1/2+x,1/2-y,1/2+z
loop_
_atom_site_type_symbol
_atom_site_label
_atom_site_fract_x
_atom_site_fract_y
_atom_site_fract_z
Si Si1 0.935417 0.608309 0.054609
Si Si2 0.613084 0.896032 0.599889
Si Si3 0.690583 0.682575 0.685137
Si Si4 0.041863 0.072404 0.648602
Si Si5 0.830407 0.983821 0.987131
O O1 0.000000 0.632201 0.250000
O O2 0.007392 0.625221 0.039281
O O3 0.909978 0.486962 0.013698
O O4 0.817974 0.666998 0.889850
O O5 0.660106 0.794599 0.606304
O O6 0.710150 0.937150 0.806806
O O7 0.609386 0.662574 0.681704
O O8 0.666509 0.593539 0.566697
O O9 0.926416 0.089848 0.561786
O O10 0.130268 0.012527 0.838759
O O11 0.000000 0.000000 0.500000
#
# Coordination Sequence:
#
# PCOD9280443 Si02
#       5
#     8   8   8   8   8
#     4  10  22  40  60  85 123 154 192 250 292 342
#     4  10  22  39  59  86 118 154 200 235 294 355
#     4  10  21  37  60  86 113 156 199 232 293 355
#     4   9  18  34  56  84 113 144 186 242 285 336
#     4   9  19  36  57  82 120 145 185 248 289 333
#
# _framework density 20.572932000000002
#
# number of rings (size 3 to 8) (size 9 to 14) (size 15 to 20)
#    0.000    2.400    0.000    1.200    2.800    3.200 
#    7.200    0.000    0.000    7.200    0.000    0.000 
#    0.000    0.000    0.000    0.000    0.000    0.000 
#
# Total GULP energy -111533.653745 kJ/mol
# GULP energy per Si atom -5576.682687 kJ/mol
# Density = 2.052611 g / cm^3
# Si number density = 20.572932 Si / 1000 Ang^3
#
#
#
# Elastic Constant Matrix: (Units=GPa)
#
#
# Indices 1 2 3 4 5 6 
#
# 1 28.9428 16.8822 0.0568 0.0000 18.6654 0.0000
# 2 16.8822 98.6634 1.2988 0.0000 15.1467 0.0000
# 3 0.0568 1.2988 70.3766 0.0000 3.2301 0.0000
# 4 0.0000 0.0000 0.0000 12.2531 0.0000 3.6385
# 5 18.6654 15.1467 3.2301 0.0000 35.4444 0.0000
# 6 0.0000 0.0000 0.0000 3.6385 0.0000 10.1001
#
#
#
# Elastic Compliance Matrix: (Units=1/GPa)
#
#
# Indices 1 2 3 4 5 6 
#
# 1 0.054900 -0.005302 0.001282 0.000000 -0.026762 0.000000
# 2 -0.005302 0.011359 -0.000111 0.000000 -0.002052 0.000000
# 3 0.001282 -0.000111 0.014299 0.000000 -0.001931 0.000000
# 4 0.000000 0.000000 0.000000 0.091388 0.000000 -0.032922
# 5 -0.026762 -0.002052 -0.001931 0.000000 0.043359 0.000000
# 6 0.000000 0.000000 0.000000 -0.032922 0.000000 0.110869
#
#
# Mechanical properties :
#
#
# Convention : Reuss Voigt Hill
#
# Bulk Modulus (GPa) = 13.83223 26.05091 19.94157
# Shear Modulus (GPa) = 13.94561 23.54251 18.74406
#
# Velocity S-wave (km/s) = 2.60640 3.38649 3.02172
# Velocity P-wave (km/s) = 3.97440 5.28973 4.67852
#
# Compressibility (1/GPa) = 0.07229491
#
# Stress axis : x y z
#
# Youngs Moduli (GPa) = 18.21488 88.03433 69.93543
#
# Poissons Ratio (x) = 0.46679 -0.08965
# Poissons Ratio (y) = 0.09658 0.00778
# Poissons Ratio (z) = -0.02335 0.00979
#
# Static dielectric constant tensor:
#      x y z
#    x 1.793140 0.000000 -0.001320 
#    y 0.000000 1.758850 0.000000 
#    z -0.001320 0.000000 1.701770 
# 
# From -- ./inp_files/95805.got.cif
#   From: 2010.05.17/outbox.cif.g08.bks.cpg/sg15_48_cif.got.tgz:95805.got - 2010.06.03 18:47:42.
