data_PCOD9280549
_publ_section_title
;
Structure prediction by ZEFSAII (Michael W. Deem and Ramdas Pophale) SiO2 
 PCOD9280549
Probable space group: C 2/C
;
_chemical_formula_sum "Si O2"
_cell_formula_units_Z 40
_cell_length_a 7.142279
_cell_length_b 24.857767
_cell_length_c 16.281413
_cell_angle_alpha 90.000000
_cell_angle_beta 144.690643
_cell_angle_gamma 90.000000
_cell_volume 1670.752110
_symmetry_space_group_name_H-M "C 2/C"
_symmetry_group_IT_number 15
_symmetry_cell_setting 'monoclinic'
loop_
_space_group_symop_operation_xyz
x,y,z
-x,y,1/2-z
-x,-y,-z
x,-y,1/2+z
1/2+x,1/2+y,z
1/2-x,1/2+y,1/2-z
1/2-x,1/2-y,-z
1/2+x,1/2-y,1/2+z
loop_
_atom_site_type_symbol
_atom_site_label
_atom_site_fract_x
_atom_site_fract_y
_atom_site_fract_z
Si Si1 0.771399 0.067625 0.477083
Si Si2 0.370059 0.880175 0.398326
Si Si3 0.159372 0.285259 0.581565
Si Si4 0.248347 0.017156 0.761667
Si Si5 0.728778 0.682365 0.083068
O O1 0.642366 0.089457 0.519124
O O2 0.868823 0.119881 0.460102
O O3 0.058212 0.029087 0.610143
O O4 0.480241 0.033061 0.337770
O O5 0.619501 0.831916 0.499175
O O6 0.422637 0.926783 0.350185
O O7 0.000000 0.859038 0.250000
O O8 0.500000 0.283287 0.750000
O O9 0.903500 0.303276 0.559624
O O10 0.045810 0.227609 0.507993
O O11 0.000000 0.007710 0.750000
O O12 0.000000 0.688379 0.250000
#
# Coordination Sequence:
#
# PCOD9280549 Si02
#       5
#     8   8   8   8   8
#     4   9  18  31  50  76 110 148 182 227 284 335
#     4   8  15  29  52  82 113 139 176 241 295 323
#     4  10  21  37  61  87 109 146 198 240 281 338
#     4   9  16  29  52  82 112 142 189 241 278 324
#     4  10  22  40  56  80 121 154 183 233 292 345
#
# _framework density 23.941313999999998
#
# number of rings (size 3 to 8) (size 9 to 14) (size 15 to 20)
#    0.000    3.200    0.000    3.000    0.000    8.800 
#    0.000    3.000    0.000    0.000    0.000    0.000 
#    0.000    0.000    0.000    0.000    0.000    0.000 
#
# Total GULP energy -111811.382314 kJ/mol
# GULP energy per Si atom -5590.569116 kJ/mol
# Density = 2.388682 g / cm^3
# Si number density = 23.941314 Si / 1000 Ang^3
#
#
#
# Elastic Constant Matrix: (Units=GPa)
#
#
# Indices 1 2 3 4 5 6 
#
# 1 65.8534 21.9998 1.8681 -0.0002 -6.0178 0.0001
# 2 21.9998 144.5223 110.6393 -0.0002 13.9704 0.0000
# 3 1.8681 110.6393 152.6079 -0.0010 0.8608 0.0003
# 4 -0.0002 -0.0002 -0.0010 122.5663 -0.0004 -27.1305
# 5 -6.0178 13.9704 0.8608 -0.0004 22.8680 0.0002
# 6 0.0001 0.0000 0.0003 -27.1305 0.0002 32.6421
#
#
#
# Elastic Compliance Matrix: (Units=1/GPa)
#
#
# Indices 1 2 3 4 5 6 
#
# 1 0.018550 -0.007931 0.005469 0.000000 0.009521 0.000000
# 2 -0.007931 0.021084 -0.015107 0.000000 -0.014399 0.000000
# 3 0.005469 -0.015107 0.017382 0.000000 0.010014 0.000000
# 4 0.000000 0.000000 0.000000 0.009998 0.000000 0.008310
# 5 0.009521 -0.014399 0.010014 0.000000 0.054654 0.000000
# 6 0.000000 0.000000 0.000000 0.008310 0.000000 0.037542
#
#
# Mechanical properties :
#
#
# Convention : Reuss Voigt Hill
#
# Bulk Modulus (GPa) = 45.70978 70.22202 57.96590
# Shear Modulus (GPa) = 24.79656 50.84704 37.82180
#
# Velocity S-wave (km/s) = 3.22176 4.61349 3.97895
# Velocity P-wave (km/s) = 5.74225 7.60090 6.73599
#
# Compressibility (1/GPa) = 0.02187716
#
# Stress axis : x y z
#
# Youngs Moduli (GPa) = 53.90964 47.42945 57.53076
#
# Poissons Ratio (x) = 0.37615 -0.31463
# Poissons Ratio (y) = 0.42755 0.86914
# Poissons Ratio (z) = -0.29483 0.71653
#
# Static dielectric constant tensor:
#      x y z
#    x 1.986450 0.000000 0.033430 
#    y 0.000000 1.921740 0.000000 
#    z 0.033430 0.000000 1.903170 
# 
# From -- ./inp_files/271183.got.cif
#   From: 2010.05.17/outbox.cif.g08.bks.cpg/sg15_136_cif.got.tgz:271183.got - 2010.06.03 18:47:42.
