data_PCOD9280021
_publ_section_title
;
Structure prediction by ZEFSAII (Michael W. Deem and Ramdas Pophale) SiO2 
 PCOD9280021
Probable space group: C 2/C
;
_chemical_formula_sum "Si O2"
_cell_formula_units_Z 48
_cell_length_a 8.644407
_cell_length_b 11.543498
_cell_length_c 25.650740
_cell_angle_alpha 90.000000
_cell_angle_beta 132.277776
_cell_angle_gamma 90.000000
_cell_volume 1893.829689
_symmetry_space_group_name_H-M "C 2/C"
_symmetry_group_IT_number 15
_symmetry_cell_setting 'monoclinic'
loop_
_space_group_symop_operation_xyz
x,y,z
-x,y,1/2-z
-x,-y,-z
x,-y,1/2+z
1/2+x,1/2+y,z
1/2-x,1/2+y,1/2-z
1/2-x,1/2-y,-z
1/2+x,1/2-y,1/2+z
loop_
_atom_site_type_symbol
_atom_site_label
_atom_site_fract_x
_atom_site_fract_y
_atom_site_fract_z
Si Si1 0.649628 0.184753 0.621282
Si Si2 0.554105 0.796648 0.323566
Si Si3 0.633949 0.205339 0.420912
Si Si4 0.095293 0.063226 0.621225
Si Si5 0.855908 0.480716 0.018800
Si Si6 0.933798 0.042225 0.175886
O O1 0.642088 0.201275 0.681372
O O2 0.728966 0.284150 0.600503
O O3 0.787318 0.070460 0.640157
O O4 0.416950 0.146364 0.551597
O O5 0.500000 0.801915 0.250000
O O6 0.649385 0.669278 0.358372
O O7 0.702966 0.907644 0.366692
O O8 0.750000 0.250000 0.500000
O O9 0.460473 0.304011 0.374843
O O10 0.576567 0.076220 0.423132
O O11 0.888242 0.006830 0.548219
O O12 0.122861 0.988151 0.679374
O O13 0.000000 0.500000 0.000000
O O14 0.000000 0.052579 0.250000
#
# Coordination Sequence:
#
# PCOD9280021 Si02
#       6
#     8   8   8   8   8   8
#     4  11  22  39  65  90 127 172 211 265 328 379
#     4  11  25  42  61  93 129 163 219 274 318 383
#     4   9  18  35  61  91 125 167 211 250 312 391
#     4  10  21  36  63  91 128 168 216 260 319 391
#     4  11  19  36  64  95 130 172 210 262 329 387
#     4  10  21  41  65  86 122 172 218 267 321 372
#
# _framework density 25.345468
#
# number of rings (size 3 to 8) (size 9 to 14) (size 15 to 20)
#    0.000    1.667    5.000    2.000    0.000    2.000 
#    0.000    5.833    0.000    8.000    0.000    0.000 
#    0.000    0.000    0.000    0.000    0.000    0.000 
#
# Total GULP energy -133938.089211 kJ/mol
# GULP energy per Si atom -5580.753717 kJ/mol
# Density = 2.528778 g / cm^3
# Si number density = 25.345468 Si / 1000 Ang^3
#
#
#
# Elastic Constant Matrix: (Units=GPa)
#
#
# Indices 1 2 3 4 5 6 
#
# 1 126.5943 37.3166 21.7836 0.0000 -38.4009 0.0000
# 2 37.3166 92.8667 -0.5490 0.0000 -2.9245 0.0000
# 3 21.7836 -0.5490 40.2472 0.0000 -18.1805 0.0000
# 4 0.0000 0.0000 0.0000 16.4998 0.0000 -3.5014
# 5 -38.4009 -2.9245 -18.1805 0.0000 44.0482 0.0000
# 6 0.0000 0.0000 0.0000 -3.5014 0.0000 52.4678
#
#
#
# Elastic Compliance Matrix: (Units=1/GPa)
#
#
# Indices 1 2 3 4 5 6 
#
# 1 0.012699 -0.004813 -0.002560 0.000000 0.009695 0.000000
# 2 -0.004813 0.012626 0.001549 0.000000 -0.002718 0.000000
# 3 -0.002560 0.001549 0.031088 0.000000 0.010703 0.000000
# 4 0.000000 0.000000 0.000000 0.061478 0.000000 0.004103
# 5 0.009695 -0.002718 0.010703 0.000000 0.035391 0.000000
# 6 0.000000 0.000000 0.000000 0.004103 0.000000 0.019333
#
#
# Mechanical properties :
#
#
# Convention : Reuss Voigt Hill
#
# Bulk Modulus (GPa) = 22.33819 41.86786 32.10303
# Shear Modulus (GPa) = 25.10260 36.01363 30.55811
#
# Velocity S-wave (km/s) = 3.15050 3.77359 3.47603
# Velocity P-wave (km/s) = 4.69754 5.96165 5.36694
#
# Compressibility (1/GPa) = 0.04476638
#
# Stress axis : x y z
#
# Youngs Moduli (GPa) = 78.74477 79.20411 32.16725
#
# Poissons Ratio (x) = 0.38119 0.08233
# Poissons Ratio (y) = 0.37898 -0.04984
# Poissons Ratio (z) = 0.20155 -0.12271
#
# Static dielectric constant tensor:
#      x y z
#    x 2.170130 0.000000 0.033210 
#    y 0.000000 2.001540 0.000000 
#    z 0.033210 0.000000 2.057710 
# 
# From -- ./inp_files/287779.got.cif
#   From: 2010.05.17/outbox.cif.g08.bks.cpg/sg15_144_cif.got.tgz:287779.got - 2010.06.03 18:47:42.
