data_PCOD9280956
_publ_section_title
;
Structure prediction by ZEFSAII (Michael W. Deem and Ramdas Pophale) SiO2 
 PCOD9280956
Probable space group: C 2/C
;
_chemical_formula_sum "Si O2"
_cell_formula_units_Z 56
_cell_length_a 20.692391
_cell_length_b 13.977878
_cell_length_c 17.260058
_cell_angle_alpha 90.000000
_cell_angle_beta 148.406573
_cell_angle_gamma 90.000000
_cell_volume 2615.367860
_symmetry_space_group_name_H-M "C 2/C"
_symmetry_group_IT_number 15
_symmetry_cell_setting 'monoclinic'
loop_
_space_group_symop_operation_xyz
x,y,z
-x,y,1/2-z
-x,-y,-z
x,-y,1/2+z
1/2+x,1/2+y,z
1/2-x,1/2+y,1/2-z
1/2-x,1/2-y,-z
1/2+x,1/2-y,1/2+z
loop_
_atom_site_type_symbol
_atom_site_label
_atom_site_fract_x
_atom_site_fract_y
_atom_site_fract_z
Si Si1 0.385552 0.948547 0.340863
Si Si2 0.365822 0.342501 0.636231
Si Si3 0.004654 0.108819 0.662166
Si Si4 0.545108 0.593788 0.122281
Si Si5 0.219194 0.878993 0.661950
Si Si6 0.823285 0.824171 0.296115
Si Si7 0.883726 0.376477 0.173552
O O1 0.298080 0.887430 0.309018
O O2 0.412510 0.881924 0.293935
O O3 0.500000 0.000000 0.500000
O O4 0.309588 0.037811 0.228207
O O5 0.500000 0.378753 0.750000
O O6 0.369644 0.346079 0.732498
O O7 0.257656 0.405460 0.488488
O O8 0.370682 0.229680 0.621512
O O9 0.116326 0.156902 0.726980
O O10 0.000000 0.112012 0.750000
O O11 0.877053 0.153813 0.501134
O O12 0.009638 0.001424 0.632173
O O13 0.634133 0.573665 0.141528
O O14 0.426408 0.647570 0.966071
O O15 0.289514 0.787103 0.766136
O O16 0.000000 0.424485 0.250000
#
# Coordination Sequence:
#
# PCOD9280956 Si02
#       7
#     8   8   8   8   8   8   8
#     4  12  26  43  65 100 138 181 222 279 349 413
#     4  10  21  37  68  98 130 174 217 277 350 410
#     4  11  24  45  73 100 134 182 235 289 342 406
#     4  11  21  42  72  98 128 174 232 288 335 397
#     4  11  25  43  69  99 134 179 233 281 343 407
#     4  11  24  46  69 101 136 175 236 286 335 414
#     4  10  24  41  59 100 142 172 217 276 354 422
#
# _framework density 21.411901
#
# number of rings (size 3 to 8) (size 9 to 14) (size 15 to 20)
#    0.000    1.143    2.857    3.000   10.000    1.714 
#    0.000    0.714    0.000    0.000    0.000    0.000 
#    0.000    0.000    0.000    0.000    0.000    0.000 
#
# Total GULP energy -156114.922599 kJ/mol
# GULP energy per Si atom -5575.532950 kJ/mol
# Density = 2.136317 g / cm^3
# Si number density = 21.411901 Si / 1000 Ang^3
#
#
#
# Elastic Constant Matrix: (Units=GPa)
#
#
# Indices 1 2 3 4 5 6 
#
# 1 111.7396 -1.1180 47.5964 0.0000 -8.6921 0.0000
# 2 -1.1180 59.5137 -1.0524 0.0000 6.5769 0.0000
# 3 47.5964 -1.0524 96.9418 0.0000 1.7379 0.0000
# 4 0.0000 0.0000 0.0000 28.7981 0.0000 -11.4086
# 5 -8.6921 6.5769 1.7379 0.0000 33.8397 0.0000
# 6 0.0000 0.0000 0.0000 -11.4086 0.0000 95.8498
#
#
#
# Elastic Compliance Matrix: (Units=1/GPa)
#
#
# Indices 1 2 3 4 5 6 
#
# 1 0.011676 -0.000253 -0.005795 0.000000 0.003346 0.000000
# 2 -0.000253 0.017183 0.000372 0.000000 -0.003424 0.000000
# 3 -0.005795 0.000372 0.013205 0.000000 -0.002239 0.000000
# 4 0.000000 0.000000 0.000000 0.036443 0.000000 0.004338
# 5 0.003346 -0.003424 -0.002239 0.000000 0.031191 0.000000
# 6 0.000000 0.000000 0.000000 0.004338 0.000000 0.010949
#
#
# Mechanical properties :
#
#
# Convention : Reuss Voigt Hill
#
# Bulk Modulus (GPa) = 32.56099 39.89412 36.22755
# Shear Modulus (GPa) = 35.15285 46.54880 40.85083
#
# Velocity S-wave (km/s) = 4.05624 4.66764 4.37264
# Velocity P-wave (km/s) = 6.09733 6.90807 6.51532
#
# Compressibility (1/GPa) = 0.03071160
#
# Stress axis : x y z
#
# Youngs Moduli (GPa) = 85.64843 58.19694 75.72902
#
# Poissons Ratio (x) = 0.01472 0.43887
# Poissons Ratio (y) = 0.02166 -0.02818
# Poissons Ratio (z) = 0.49635 -0.02165
#
# Static dielectric constant tensor:
#      x y z
#    x 1.808490 0.000000 0.078390 
#    y 0.000000 1.793710 0.000000 
#    z 0.078390 0.000000 1.858250 
# 
# From -- ./inp_files/215766.got.cif
#   From: 2010.05.17/outbox.cif.g08.bks.cpg/sg15_108_cif.got.tgz:215766.got - 2010.06.03 18:47:42.
