data_PCOD9280398
_publ_section_title
;
Structure prediction by ZEFSAII (Michael W. Deem and Ramdas Pophale) SiO2 
 PCOD9280398
Probable space group: C 2/C
;
_chemical_formula_sum "Si O2"
_cell_formula_units_Z 56
_cell_length_a 13.770796
_cell_length_b 8.914149
_cell_length_c 26.578846
_cell_angle_alpha 90.000000
_cell_angle_beta 120.855144
_cell_angle_gamma 90.000000
_cell_volume 2800.905789
_symmetry_space_group_name_H-M "C 2/C"
_symmetry_group_IT_number 15
_symmetry_cell_setting 'monoclinic'
loop_
_space_group_symop_operation_xyz
x,y,z
-x,y,1/2-z
-x,-y,-z
x,-y,1/2+z
1/2+x,1/2+y,z
1/2-x,1/2+y,1/2-z
1/2-x,1/2-y,-z
1/2+x,1/2-y,1/2+z
loop_
_atom_site_type_symbol
_atom_site_label
_atom_site_fract_x
_atom_site_fract_y
_atom_site_fract_z
Si Si1 0.966254 0.172761 0.073085
Si Si2 0.006802 0.834567 0.389363
Si Si3 0.311303 0.712757 0.120259
Si Si4 0.105369 0.907741 0.314963
Si Si5 0.948571 0.346156 0.966800
Si Si6 0.199975 0.757579 0.690723
Si Si7 0.743535 0.098641 0.802042
O O1 0.867010 0.242788 0.081077
O O2 0.083521 0.222474 0.130051
O O3 0.962562 0.225594 0.015043
O O4 0.959569 0.993086 0.076444
O O5 0.009305 0.707562 0.432022
O O6 0.876267 0.854064 0.337081
O O7 0.082147 0.815634 0.359915
O O8 0.383800 0.580715 0.165479
O O9 0.185081 0.648154 0.079874
O O10 0.303234 0.852343 0.156054
O O11 0.217253 0.853960 0.316738
O O12 0.000000 0.889152 0.250000
O O13 0.000000 0.500000 0.000000
O O14 0.183288 0.691062 0.741873
O O15 0.258084 0.921476 0.708285
#
# Coordination Sequence:
#
# PCOD9280398 Si02
#       7
#     8   8   8   8   8   8   8
#     4  10  22  40  61  84 120 165 199 242 303 371
#     4   9  21  40  61  86 117 165 197 239 309 364
#     4  10  23  39  63  88 121 161 203 246 306 366
#     4  11  21  40  62  87 121 160 198 250 312 368
#     4  11  22  40  62  92 121 155 205 262 292 345
#     4  11  22  38  59  89 122 159 203 248 308 360
#     4  10  21  37  59  88 122 156 200 252 298 361
#
# _framework density 19.993531999999998
#
# number of rings (size 3 to 8) (size 9 to 14) (size 15 to 20)
#    0.000    1.714    1.429    2.571    4.000    2.286 
#    2.571    7.857    0.000    0.000    0.000    0.000 
#    0.000    0.000    0.000    0.000    0.000    0.000 
#
# Total GULP energy -156480.215337 kJ/mol
# GULP energy per Si atom -5588.579119 kJ/mol
# Density = 1.994803 g / cm^3
# Si number density = 19.993532 Si / 1000 Ang^3
#
#
#
# Elastic Constant Matrix: (Units=GPa)
#
#
# Indices 1 2 3 4 5 6 
#
# 1 45.7596 -7.0305 18.0800 0.0000 -3.7074 0.0000
# 2 -7.0305 31.8771 16.8983 0.0000 -0.9718 0.0000
# 3 18.0800 16.8983 78.3718 0.0000 -20.1568 0.0000
# 4 0.0000 0.0000 0.0000 26.7318 0.0000 -5.0486
# 5 -3.7074 -0.9718 -20.1568 0.0000 14.4188 0.0000
# 6 0.0000 0.0000 0.0000 -5.0486 0.0000 21.4212
#
#
#
# Elastic Compliance Matrix: (Units=1/GPa)
#
#
# Indices 1 2 3 4 5 6 
#
# 1 0.027185 0.011350 -0.010499 0.000000 -0.006922 0.000000
# 2 0.011350 0.041775 -0.015850 0.000000 -0.016423 0.000000
# 3 -0.010499 -0.015850 0.027528 0.000000 0.034714 0.000000
# 4 0.000000 0.000000 0.000000 0.039151 0.000000 0.009227
# 5 -0.006922 -0.016423 0.034714 0.000000 0.114995 0.000000
# 6 0.000000 0.000000 0.000000 0.009227 0.000000 0.048857
#
#
# Mechanical properties :
#
#
# Convention : Reuss Voigt Hill
#
# Bulk Modulus (GPa) = 15.03990 23.54491 19.29240
# Shear Modulus (GPa) = 14.21861 21.05175 17.63518
#
# Velocity S-wave (km/s) = 2.66965 3.24841 2.97314
# Velocity P-wave (km/s) = 4.12813 5.08639 4.63210
#
# Compressibility (1/GPa) = 0.06648982
#
# Stress axis : x y z
#
# Youngs Moduli (GPa) = 36.78562 23.93772 36.32727
#
# Poissons Ratio (x) = -0.27169 0.38140
# Poissons Ratio (y) = -0.41752 0.57578
# Poissons Ratio (z) = 0.38621 0.37941
#
# Static dielectric constant tensor:
#      x y z
#    x 1.697350 0.000000 -0.008550 
#    y 0.000000 1.688160 0.000000 
#    z -0.008550 0.000000 1.688440 
# 
# From -- ./inp_files/273253.got.cif
#   From: 2010.05.17/outbox.cif.g08.bks.cpg/sg15_137_cif.got.tgz:273253.got - 2010.06.03 18:47:42.
