data_PCOD9280630
_publ_section_title
;
Structure prediction by ZEFSAII (Michael W. Deem and Ramdas Pophale) SiO2 
 PCOD9280630
Probable space group: C 2/C
;
_chemical_formula_sum "Si O2"
_cell_formula_units_Z 24
_cell_length_a 5.352190
_cell_length_b 17.388794
_cell_length_c 10.451250
_cell_angle_alpha 90.000000
_cell_angle_beta 67.831261
_cell_angle_gamma 90.000000
_cell_volume 900.774601
_symmetry_space_group_name_H-M "C 2/C"
_symmetry_group_IT_number 15
_symmetry_cell_setting 'monoclinic'
loop_
_space_group_symop_operation_xyz
x,y,z
-x,y,1/2-z
-x,-y,-z
x,-y,1/2+z
1/2+x,1/2+y,z
1/2-x,1/2+y,1/2-z
1/2-x,1/2-y,-z
1/2+x,1/2-y,1/2+z
loop_
_atom_site_type_symbol
_atom_site_label
_atom_site_fract_x
_atom_site_fract_y
_atom_site_fract_z
Si Si1 0.728991 0.342829 0.502804
Si Si2 0.313002 0.475580 0.161338
Si Si3 0.338211 0.178307 0.399445
O O1 0.750000 0.250000 0.500000
O O2 0.734060 0.385132 0.366655
O O3 0.426598 0.358960 0.609670
O O4 0.971142 0.371575 0.545483
O O5 0.500000 0.482662 0.250000
O O6 0.000000 0.504539 0.250000
O O7 0.500000 0.500000 0.000000
O O8 0.500000 0.209379 0.250000
O O9 0.250000 0.250000 0.500000
#
# Coordination Sequence:
#
# PCOD9280630 Si02
#       3
#     8   8   8
#     4  10  23  41  68 104 145 190 245 313 383 455
#     4  12  28  52  81 116 158 212 270 330 399 483
#     4  10  21  37  61  98 141 188 240 305 378 452
#
# _framework density 26.643733000000001
#
# number of rings (size 3 to 8) (size 9 to 14) (size 15 to 20)
#    0.000    1.333    0.000    4.000    0.000   20.000 
#    0.000    0.000    0.000    0.000    0.000    0.000 
#    0.000    0.000    0.000    0.000    0.000    0.000 
#
# Total GULP energy -66935.897347 kJ/mol
# GULP energy per Si atom -5577.991446 kJ/mol
# Density = 2.658309 g / cm^3
# Si number density = 26.643733 Si / 1000 Ang^3
#
#
#
# Elastic Constant Matrix: (Units=GPa)
#
#
# Indices 1 2 3 4 5 6 
#
# 1 312.0100 27.9177 95.0032 0.0000 -9.4991 0.0000
# 2 27.9177 103.5371 46.1134 0.0000 10.0752 0.0000
# 3 95.0032 46.1134 195.2053 0.0000 -12.7539 0.0000
# 4 0.0000 0.0000 0.0000 38.6904 0.0000 22.0841
# 5 -9.4991 10.0752 -12.7539 0.0000 62.2900 0.0000
# 6 0.0000 0.0000 0.0000 22.0841 0.0000 26.4010
#
#
#
# Elastic Compliance Matrix: (Units=1/GPa)
#
#
# Indices 1 2 3 4 5 6 
#
# 1 0.003771 -0.000259 -0.001757 0.000000 0.000257 0.000000
# 2 -0.000259 0.011147 -0.002663 0.000000 -0.002388 0.000000
# 3 -0.001757 -0.002663 0.006708 0.000000 0.001536 0.000000
# 4 0.000000 0.000000 0.000000 0.049463 0.000000 -0.041375
# 5 0.000257 -0.002388 0.001536 0.000000 0.016794 0.000000
# 6 0.000000 0.000000 0.000000 -0.041375 0.000000 0.072487
#
#
# Mechanical properties :
#
#
# Convention : Reuss Voigt Hill
#
# Bulk Modulus (GPa) = 81.52465 105.42453 93.47459
# Shear Modulus (GPa) = 28.76594 54.92415 41.84504
#
# Velocity S-wave (km/s) = 3.28937 4.54522 3.96730
# Velocity P-wave (km/s) = 6.71499 8.19753 7.49302
#
# Compressibility (1/GPa) = 0.01226623
#
# Stress axis : x y z
#
# Youngs Moduli (GPa) = 265.17267 89.71280 149.08641
#
# Poissons Ratio (x) = 0.02325 0.26199
# Poissons Ratio (y) = 0.06873 0.39702
# Poissons Ratio (z) = 0.46599 0.23891
#
# Static dielectric constant tensor:
#      x y z
#    x 2.232980 0.000000 -0.132030 
#    y 0.000000 1.993100 0.000000 
#    z -0.132030 0.000000 2.080070 
# 
# From -- ./inp_files/72086.got.cif
#   From: 2010.05.17/outbox.cif.g08.bks.cpg/sg15_37_cif.got.tgz:72086.got - 2010.06.03 18:47:42.
