data_PCOD9280677
_publ_section_title
;
Structure prediction by ZEFSAII (Michael W. Deem and Ramdas Pophale) SiO2 
 PCOD9280677
Probable space group: C 2/C
;
_chemical_formula_sum "Si O2"
_cell_formula_units_Z 48
_cell_length_a 8.728421
_cell_length_b 25.139587
_cell_length_c 20.061308
_cell_angle_alpha 90.000000
_cell_angle_beta 148.206865
_cell_angle_gamma 90.000000
_cell_volume 2319.227323
_symmetry_space_group_name_H-M "C 2/C"
_symmetry_group_IT_number 15
_symmetry_cell_setting 'monoclinic'
loop_
_space_group_symop_operation_xyz
x,y,z
-x,y,1/2-z
-x,-y,-z
x,-y,1/2+z
1/2+x,1/2+y,z
1/2-x,1/2+y,1/2-z
1/2-x,1/2-y,-z
1/2+x,1/2-y,1/2+z
loop_
_atom_site_type_symbol
_atom_site_label
_atom_site_fract_x
_atom_site_fract_y
_atom_site_fract_z
Si Si1 0.279040 0.807022 0.977052
Si Si2 0.372207 0.317539 0.129665
Si Si3 0.767936 0.888992 0.978962
Si Si4 0.649998 0.993614 0.876116
Si Si5 0.385207 0.794689 0.784545
Si Si6 0.863863 0.613464 0.628177
O O1 0.946903 0.814157 0.831501
O O2 0.250000 0.750000 0.000000
O O3 0.530047 0.805271 0.014610
O O4 0.385062 0.848104 0.073111
O O5 0.500000 0.325581 0.250000
O O6 0.540517 0.265415 0.163479
O O7 0.403963 0.371383 0.099393
O O8 0.609303 0.945555 0.913171
O O9 0.570576 0.839057 0.889184
O O10 0.021449 0.889066 0.018095
O O11 0.500000 0.978777 0.750000
O O12 0.536059 0.052960 0.849968
O O13 0.000000 0.000000 0.000000
O O14 0.500000 0.793971 0.750000
O O15 0.000000 0.630584 0.750000
#
# Coordination Sequence:
#
# PCOD9280677 Si02
#       6
#     8   8   8   8   8   8
#     4  12  22  39  59  88 125 162 204 253 306 370
#     4  11  23  39  58  89 126 162 206 251 312 370
#     4  11  21  38  61  87 119 161 202 257 309 365
#     4   9  20  37  64  94 119 155 208 262 309 364
#     4  11  21  37  61  86 122 162 206 254 305 368
#     4  10  21  37  62  92 118 155 209 254 301 367
#
# _framework density 20.696549000000001
#
# number of rings (size 3 to 8) (size 9 to 14) (size 15 to 20)
#    0.000    1.333    5.000    2.000    2.333    0.667 
#    0.000    0.833    0.000    0.000    0.000    0.000 
#    0.000    0.000    0.000    0.000    0.000    0.000 
#
# Total GULP energy -133842.576687 kJ/mol
# GULP energy per Si atom -5576.774029 kJ/mol
# Density = 2.064944 g / cm^3
# Si number density = 20.696549 Si / 1000 Ang^3
#
#
#
# Elastic Constant Matrix: (Units=GPa)
#
#
# Indices 1 2 3 4 5 6 
#
# 1 53.3676 38.2506 17.4398 0.0005 7.9574 -0.0002
# 2 38.2506 148.7508 40.7848 -0.0013 -30.5140 0.0005
# 3 17.4398 40.7848 100.4581 0.0046 0.1458 -0.0005
# 4 0.0005 -0.0013 0.0046 29.6917 0.0009 -7.6753
# 5 7.9574 -30.5140 0.1458 0.0009 32.1779 -0.0008
# 6 -0.0002 0.0005 -0.0005 -7.6753 -0.0008 22.2148
#
#
#
# Elastic Compliance Matrix: (Units=1/GPa)
#
#
# Indices 1 2 3 4 5 6 
#
# 1 0.029534 -0.011083 -0.000602 0.000000 -0.017811 0.000000
# 2 -0.011083 0.013854 -0.003724 0.000001 0.015896 0.000000
# 3 -0.000602 -0.003724 0.011576 -0.000002 -0.003435 0.000000
# 4 0.000000 0.000001 -0.000002 0.036982 0.000000 0.012778
# 5 -0.017811 0.015896 -0.003435 0.000000 0.050571 0.000001
# 6 0.000000 0.000000 0.000000 0.012778 0.000001 0.049430
#
#
# Mechanical properties :
#
#
# Convention : Reuss Voigt Hill
#
# Bulk Modulus (GPa) = 41.41333 55.05858 48.23596
# Shear Modulus (GPa) = 21.66249 30.55698 26.10974
#
# Velocity S-wave (km/s) = 3.23874 3.84660 3.55568
# Velocity P-wave (km/s) = 5.83431 6.81095 6.34146
#
# Compressibility (1/GPa) = 0.02414681
#
# Stress axis : x y z
#
# Youngs Moduli (GPa) = 33.85914 72.17917 86.38846
#
# Poissons Ratio (x) = 0.79998 0.05198
# Poissons Ratio (y) = 0.37527 0.32169
# Poissons Ratio (z) = 0.02037 0.26877
#
# Static dielectric constant tensor:
#      x y z
#    x 1.633510 0.000000 -0.116900 
#    y 0.000000 1.784590 0.000000 
#    z -0.116900 0.000000 1.716120 
# 
# From -- ./inp_files/234818.got.cif
#   From: 2010.05.17/outbox.cif.g08.bks.cpg/sg15_118_cif.got.tgz:234818.got - 2010.06.03 18:47:42.
