data_PCOD9280066
_publ_section_title
;
Structure prediction by ZEFSAII (Michael W. Deem and Ramdas Pophale) SiO2 
 PCOD9280066
Probable space group: C 2/C
;
_chemical_formula_sum "Si O2"
_cell_formula_units_Z 44
_cell_length_a 11.011040
_cell_length_b 19.188280
_cell_length_c 14.489154
_cell_angle_alpha 90.000000
_cell_angle_beta 133.803022
_cell_angle_gamma 90.000000
_cell_volume 2209.420582
_symmetry_space_group_name_H-M "C 2/C"
_symmetry_group_IT_number 15
_symmetry_cell_setting 'monoclinic'
loop_
_space_group_symop_operation_xyz
x,y,z
-x,y,1/2-z
-x,-y,-z
x,-y,1/2+z
1/2+x,1/2+y,z
1/2-x,1/2+y,1/2-z
1/2-x,1/2-y,-z
1/2+x,1/2-y,1/2+z
loop_
_atom_site_type_symbol
_atom_site_label
_atom_site_fract_x
_atom_site_fract_y
_atom_site_fract_z
Si Si1 0.348475 0.531541 0.860103
Si Si2 0.334517 0.689736 0.902588
Si Si3 0.859919 0.817994 0.053100
Si Si4 0.178667 0.393322 0.796597
Si Si5 0.500000 0.420566 0.250000
Si Si6 0.910444 0.193105 0.289372
O O1 0.298900 0.607074 0.874571
O O2 0.200693 0.474721 0.786664
O O3 0.423323 0.539360 0.796206
O O4 0.500000 0.500000 0.000000
O O5 0.454006 0.705118 0.877220
O O6 0.173262 0.738029 0.800635
O O7 0.449112 0.704065 0.055063
O O8 0.857338 0.866929 0.139879
O O9 0.750000 0.750000 0.000000
O O10 0.805377 0.868812 0.942800
O O11 0.253896 0.350449 0.749714
O O12 0.000000 0.377107 0.750000
O O13 0.000000 0.155485 0.250000
#
# Coordination Sequence:
#
# PCOD9280066 Si02
#       6
#     8   8   8   8   4   8
#     4  11  21  44  64  93 130 184 218 268 339 408
#     4  10  23  39  67  94 133 172 225 274 336 403
#     4  10  21  36  64  94 132 168 214 273 334 392
#     4  11  24  42  65  97 132 168 222 282 333 395
#     4  10  22  36  68  94 122 180 220 256 332 406
#     4  11  23  42  66  98 131 178 219 277 337 406
#
# _framework density 19.914724
#
# number of rings (size 3 to 8) (size 9 to 14) (size 15 to 20)
#    0.000    1.455    5.455    1.636   12.727    0.727 
#    0.000    0.909    0.000    0.000    0.000    0.000 
#    0.000    0.000    0.000    0.000    0.000    0.000 
#
# Total GULP energy -122526.881593 kJ/mol
# GULP energy per Si atom -5569.403709 kJ/mol
# Density = 1.986940 g / cm^3
# Si number density = 19.914724 Si / 1000 Ang^3
#
#
#
# Elastic Constant Matrix: (Units=GPa)
#
#
# Indices 1 2 3 4 5 6 
#
# 1 129.0480 43.4524 45.1880 0.0000 -9.3713 0.0000
# 2 43.4524 125.8388 35.9660 0.0000 -0.4240 0.0000
# 3 45.1880 35.9660 63.4466 0.0001 -16.3480 0.0002
# 4 0.0000 0.0000 0.0001 36.9749 0.0000 4.5753
# 5 -9.3713 -0.4240 -16.3480 0.0000 34.3302 0.0001
# 6 0.0000 0.0000 0.0002 4.5753 0.0001 28.7086
#
#
#
# Elastic Compliance Matrix: (Units=1/GPa)
#
#
# Indices 1 2 3 4 5 6 
#
# 1 0.010658 -0.001779 -0.006655 0.000000 -0.000282 0.000000
# 2 -0.001779 0.010019 -0.005136 0.000000 -0.002808 0.000000
# 3 -0.006655 -0.005136 0.026135 0.000000 0.010565 0.000000
# 4 0.000000 0.000000 0.000000 0.027589 0.000000 -0.004397
# 5 -0.000282 -0.002808 0.010565 0.000000 0.034048 0.000000
# 6 0.000000 0.000000 0.000000 -0.004397 0.000000 0.035534
#
#
# Mechanical properties :
#
#
# Convention : Reuss Voigt Hill
#
# Bulk Modulus (GPa) = 50.83331 63.06070 56.94701
# Shear Modulus (GPa) = 28.14029 32.91787 30.52908
#
# Velocity S-wave (km/s) = 3.76312 4.07005 3.91959
# Velocity P-wave (km/s) = 6.66801 7.33629 7.01012
#
# Compressibility (1/GPa) = 0.01967214
#
# Stress axis : x y z
#
# Youngs Moduli (GPa) = 93.82658 99.80552 38.26318
#
# Poissons Ratio (x) = 0.17757 0.25464
# Poissons Ratio (y) = 0.16693 0.19652
# Poissons Ratio (z) = 0.62440 0.51261
#
# Static dielectric constant tensor:
#      x y z
#    x 1.808850 0.000000 0.080850 
#    y 0.000000 1.750220 0.000000 
#    z 0.080850 0.000000 1.866620 
# 
# From -- ./inp_files/147270.got.cif
#   From: 2010.05.17/outbox.cif.g08.bks.cpg/sg15_74_cif.got.tgz:147270.got - 2010.06.03 18:47:42.
