data_PCOD9280579
_publ_section_title
;
Structure prediction by ZEFSAII (Michael W. Deem and Ramdas Pophale) SiO2 
 PCOD9280579
Probable space group: C 2/C
;
_chemical_formula_sum "Si O2"
_cell_formula_units_Z 48
_cell_length_a 31.726054
_cell_length_b 14.852490
_cell_length_c 15.929576
_cell_angle_alpha 90.000000
_cell_angle_beta 19.604425
_cell_angle_gamma 90.000000
_cell_volume 2518.509277
_symmetry_space_group_name_H-M "C 2/C"
_symmetry_group_IT_number 15
_symmetry_cell_setting 'monoclinic'
loop_
_space_group_symop_operation_xyz
x,y,z
-x,y,1/2-z
-x,-y,-z
x,-y,1/2+z
1/2+x,1/2+y,z
1/2-x,1/2+y,1/2-z
1/2-x,1/2-y,-z
1/2+x,1/2-y,1/2+z
loop_
_atom_site_type_symbol
_atom_site_label
_atom_site_fract_x
_atom_site_fract_y
_atom_site_fract_z
Si Si1 0.751403 0.726554 0.136001
Si Si2 0.858126 0.427818 0.550758
Si Si3 0.949352 0.772032 0.628001
Si Si4 0.849808 0.364778 0.042651
Si Si5 0.411495 0.084053 0.146351
Si Si6 0.718408 0.335479 0.117867
O O1 0.779288 0.646193 0.148363
O O2 0.652241 0.698738 0.250328
O O3 0.694397 0.809932 0.293809
O O4 0.877259 0.756908 0.850878
O O5 0.816014 0.529965 0.612581
O O6 0.863986 0.414181 0.639762
O O7 0.000000 0.420188 0.250000
O O8 0.005941 0.674351 0.496398
O O9 0.068738 0.837896 0.407794
O O10 0.781124 0.324243 0.090556
O O11 0.000000 0.358191 0.750000
O O12 0.293020 0.084811 0.431422
O O13 0.500000 0.000000 0.000000
O O14 0.750000 0.250000 0.000000
#
# Coordination Sequence:
#
# PCOD9280579 Si02
#       6
#     8   8   8   8   8   8
#     4  11  22  39  67  88 133 166 214 263 323 395
#     4  11  22  39  64  94 120 163 217 263 309 379
#     4  10  22  39  62  92 122 173 208 255 335 381
#     4  11  23  40  64  95 122 162 217 266 316 378
#     4  11  20  37  66  93 124 159 218 265 315 379
#     4  10  21  37  61  90 122 162 206 263 316 379
#
# _framework density 19.058893000000001
#
# number of rings (size 3 to 8) (size 9 to 14) (size 15 to 20)
#    0.000    1.333    1.667    7.000    0.000    0.000 
#    0.000    0.833    7.333    0.000    0.000    0.000 
#    0.000    0.000    0.000    0.000    0.000    0.000 
#
# Total GULP energy -134064.582291 kJ/mol
# GULP energy per Si atom -5586.024262 kJ/mol
# Density = 1.901551 g / cm^3
# Si number density = 19.058893 Si / 1000 Ang^3
#
#
#
# Elastic Constant Matrix: (Units=GPa)
#
#
# Indices 1 2 3 4 5 6 
#
# 1 117.4651 22.1295 36.6440 0.0000 -1.2343 0.0000
# 2 22.1295 85.6019 37.8293 0.0000 -7.6804 0.0000
# 3 36.6440 37.8293 137.7712 0.0000 3.8711 0.0000
# 4 0.0000 0.0000 0.0000 27.0804 0.0000 1.1626
# 5 -1.2343 -7.6804 3.8711 0.0000 25.0791 0.0000
# 6 0.0000 0.0000 0.0000 1.1626 0.0000 14.5871
#
#
#
# Elastic Compliance Matrix: (Units=1/GPa)
#
#
# Indices 1 2 3 4 5 6 
#
# 1 0.009456 -0.001478 -0.002119 0.000000 0.000340 0.000000
# 2 -0.001478 0.014090 -0.003611 0.000000 0.004800 0.000000
# 3 -0.002119 -0.003611 0.008886 0.000000 -0.002582 0.000000
# 4 0.000000 0.000000 0.000000 0.037054 0.000000 -0.002953
# 5 0.000340 0.004800 -0.002582 0.000000 0.041759 0.000000
# 6 0.000000 0.000000 0.000000 -0.002953 0.000000 0.068789
#
#
# Mechanical properties :
#
#
# Convention : Reuss Voigt Hill
#
# Bulk Modulus (GPa) = 55.50099 59.33822 57.41960
# Shear Modulus (GPa) = 24.94327 29.63167 27.28747
#
# Velocity S-wave (km/s) = 3.62159 3.94730 3.78795
# Velocity P-wave (km/s) = 6.83168 7.20948 7.02312
#
# Compressibility (1/GPa) = 0.01801770
#
# Stress axis : x y z
#
# Youngs Moduli (GPa) = 105.75141 70.97082 112.53677
#
# Poissons Ratio (x) = 0.10487 0.23846
# Poissons Ratio (y) = 0.15627 0.40634
# Poissons Ratio (z) = 0.22408 0.25626
#
# Static dielectric constant tensor:
#      x y z
#    x 1.673370 0.000000 0.001140 
#    y 0.000000 1.679000 0.000000 
#    z 0.001140 0.000000 1.689130 
# 
# From -- ./inp_files/182414.got.cif
#   From: 2010.05.17/outbox.cif.g08.bks.cpg/sg15_92_cif.got.tgz:182414.got - 2010.06.03 18:47:42.
