data_PCOD9280194
_publ_section_title
;
Structure prediction by ZEFSAII (Michael W. Deem and Ramdas Pophale) SiO2 
 PCOD9280194
Probable space group: C 2/C
;
_chemical_formula_sum "Si O2"
_cell_formula_units_Z 40
_cell_length_a 12.614574
_cell_length_b 23.545709
_cell_length_c 8.945696
_cell_angle_alpha 90.000000
_cell_angle_beta 142.746380
_cell_angle_gamma 90.000000
_cell_volume 1608.425460
_symmetry_space_group_name_H-M "C 2/C"
_symmetry_group_IT_number 15
_symmetry_cell_setting 'monoclinic'
loop_
_space_group_symop_operation_xyz
x,y,z
-x,y,1/2-z
-x,-y,-z
x,-y,1/2+z
1/2+x,1/2+y,z
1/2-x,1/2+y,1/2-z
1/2-x,1/2-y,-z
1/2+x,1/2-y,1/2+z
loop_
_atom_site_type_symbol
_atom_site_label
_atom_site_fract_x
_atom_site_fract_y
_atom_site_fract_z
Si Si1 0.033598 0.809254 0.610646
Si Si2 0.171756 0.524632 0.338699
Si Si3 0.330388 0.634256 0.653103
Si Si4 0.105834 0.690184 0.160056
Si Si5 0.947359 0.411919 0.354859
O O1 0.233878 0.818460 0.780393
O O2 0.000000 0.803316 0.750000
O O3 0.905984 0.857845 0.403384
O O4 0.968084 0.752102 0.453871
O O5 0.290226 0.569084 0.560783
O O6 0.205422 0.459006 0.334826
O O7 0.000000 0.521470 0.250000
O O8 0.108432 0.554527 0.115485
O O9 0.500000 0.651652 0.750000
O O10 0.185876 0.674619 0.411487
O O11 0.950859 0.644720 0.956035
O O12 0.000000 0.393711 0.250000
#
# Coordination Sequence:
#
# PCOD9280194 Si02
#       5
#     8   8   8   8   8
#     4  11  22  35  55  84 118 151 190 234 280 336
#     4   9  18  33  58  83 106 142 188 231 277 337
#     4   9  20  37  56  81 117 153 184 230 288 341
#     4  10  21  37  56  80 116 155 188 230 283 339
#     4   9  18  34  56  80 108 143 184 231 280 328
#
# _framework density 24.869042
#
# number of rings (size 3 to 8) (size 9 to 14) (size 15 to 20)
#    0.000    2.400    0.000    1.800    0.000    4.800 
#    0.000    1.000    0.000   68.400    0.000    0.000 
#    0.000    0.000    0.000    0.000    0.000    0.000 
#
# Total GULP energy -111609.683549 kJ/mol
# GULP energy per Si atom -5580.484177 kJ/mol
# Density = 2.481244 g / cm^3
# Si number density = 24.869042 Si / 1000 Ang^3
#
#
#
# Elastic Constant Matrix: (Units=GPa)
#
#
# Indices 1 2 3 4 5 6 
#
# 1 72.2957 18.6385 34.9614 0.0000 -4.6142 0.0000
# 2 18.6385 151.8711 79.5814 0.0000 -7.8523 0.0000
# 3 34.9614 79.5814 100.2025 0.0000 -13.6478 0.0000
# 4 0.0000 0.0000 0.0000 35.6854 0.0000 -2.1269
# 5 -4.6142 -7.8523 -13.6478 0.0000 52.3581 0.0000
# 6 0.0000 0.0000 0.0000 -2.1269 0.0000 25.4031
#
#
#
# Elastic Compliance Matrix: (Units=1/GPa)
#
#
# Indices 1 2 3 4 5 6 
#
# 1 0.016905 0.001745 -0.007305 0.000000 -0.000153 0.000000
# 2 0.001745 0.011481 -0.009820 0.000000 -0.000684 0.000000
# 3 -0.007305 -0.009820 0.020777 0.000000 0.003299 0.000000
# 4 0.000000 0.000000 0.000000 0.028163 0.000000 0.002358
# 5 -0.000153 -0.000684 0.003299 0.000000 0.019843 0.000000
# 6 0.000000 0.000000 0.000000 0.002358 0.000000 0.039563
#
#
# Mechanical properties :
#
#
# Convention : Reuss Voigt Hill
#
# Bulk Modulus (GPa) = 54.33924 65.63690 59.98807
# Shear Modulus (GPa) = 28.79727 35.43518 32.11622
#
# Velocity S-wave (km/s) = 3.40657 3.77884 3.59752
# Velocity P-wave (km/s) = 6.11314 6.74462 6.43663
#
# Compressibility (1/GPa) = 0.01840291
#
# Stress axis : x y z
#
# Youngs Moduli (GPa) = 59.15360 87.10125 48.12901
#
# Poissons Ratio (x) = -0.15203 0.35160
# Poissons Ratio (y) = -0.10325 0.47265
# Poissons Ratio (z) = 0.43214 0.85537
#
# Static dielectric constant tensor:
#      x y z
#    x 0.654350 0.000000 -2.082170 
#    y 0.000000 2.045930 0.000000 
#    z -2.082170 0.000000 -1.104820 
# 
# From -- ./inp_files/42415.got.cif
#   From: 2010.05.17/outbox.cif.g08.bks.cpg/sg15_22_cif.got.tgz:42415.got - 2010.06.03 18:47:42.
