data_PCOD9280962
_publ_section_title
;
Structure prediction by ZEFSAII (Michael W. Deem and Ramdas Pophale) SiO2 
 PCOD9280962
Probable space group: C 2/C
;
_chemical_formula_sum "Si O2"
_cell_formula_units_Z 64
_cell_length_a 12.726446
_cell_length_b 31.587223
_cell_length_c 19.131980
_cell_angle_alpha 90.000000
_cell_angle_beta 154.041762
_cell_angle_gamma 90.000000
_cell_volume 3366.439699
_symmetry_space_group_name_H-M "C 2/C"
_symmetry_group_IT_number 15
_symmetry_cell_setting 'monoclinic'
loop_
_space_group_symop_operation_xyz
x,y,z
-x,y,1/2-z
-x,-y,-z
x,-y,1/2+z
1/2+x,1/2+y,z
1/2-x,1/2+y,1/2-z
1/2-x,1/2-y,-z
1/2+x,1/2-y,1/2+z
loop_
_atom_site_type_symbol
_atom_site_label
_atom_site_fract_x
_atom_site_fract_y
_atom_site_fract_z
Si Si1 0.861910 0.126155 0.776174
Si Si2 0.736760 0.031180 0.073068
Si Si3 0.872160 0.437160 0.472520
Si Si4 0.214913 0.295696 0.737639
Si Si5 0.069300 0.625762 0.369642
Si Si6 0.016784 0.596404 0.842572
Si Si7 0.073325 0.712447 0.577663
Si Si8 0.842956 0.173811 0.087375
O O1 0.796834 0.092505 0.676526
O O2 0.733757 0.108095 0.769238
O O3 0.731228 0.169957 0.678052
O O4 0.143734 0.132987 0.954412
O O5 0.000000 0.046535 0.250000
O O6 0.742290 0.980550 0.068148
O O7 0.575189 0.046343 0.041169
O O8 0.621902 0.053335 0.937300
O O9 0.975841 0.409303 0.597603
O O10 0.268534 0.253463 0.812820
O O11 0.471599 0.310843 0.860251
O O12 0.082632 0.332514 0.701452
O O13 0.051287 0.285771 0.572254
O O14 0.000000 0.612255 0.250000
O O15 0.000000 0.595184 0.750000
O O16 0.199067 0.633246 0.975112
O O17 0.858468 0.707149 0.506370
O O18 0.000000 0.163378 0.250000
#
# Coordination Sequence:
#
# PCOD9280962 Si02
#       8
#     8   8   8   8   8   8   8   8
#     4  10  22  44  61  83 122 168 210 243 313 376
#     4  10  21  37  69  98 120 160 216 255 301 376
#     4  10  22  44  65  90 124 170 208 254 312 371
#     4  11  24  39  62  90 124 162 207 261 309 372
#     4  12  27  40  60  88 122 170 208 253 313 373
#     4  10  22  35  63  97 128 158 195 263 314 363
#     4  10  22  40  63  91 118 159 207 265 308 363
#     4   9  20  39  63  90 125 165 205 247 318 379
#
# _framework density 19.011182000000002
#
# number of rings (size 3 to 8) (size 9 to 14) (size 15 to 20)
#    0.000    1.750    1.250    1.875    7.000    2.000 
#    0.000    0.625    0.000    6.000    0.000    0.000 
#    0.000    0.000    0.000    0.000    0.000    0.000 
#
# Total GULP energy -178744.221602 kJ/mol
# GULP energy per Si atom -5585.756925 kJ/mol
# Density = 1.896791 g / cm^3
# Si number density = 19.011182 Si / 1000 Ang^3
#
#
#
# Elastic Constant Matrix: (Units=GPa)
#
#
# Indices 1 2 3 4 5 6 
#
# 1 74.1766 53.1930 30.3833 0.0007 -17.8350 0.0024
# 2 53.1930 117.5625 47.8831 0.0001 -5.1022 0.0000
# 3 30.3833 47.8831 78.1402 0.0010 1.9831 0.0067
# 4 0.0007 0.0001 0.0010 28.5549 0.0004 2.4423
# 5 -17.8350 -5.1022 1.9831 0.0004 29.1147 0.0024
# 6 0.0024 0.0000 0.0067 2.4423 0.0024 11.6193
#
#
#
# Elastic Compliance Matrix: (Units=1/GPa)
#
#
# Indices 1 2 3 4 5 6 
#
# 1 0.025177 -0.008851 -0.004726 0.000000 0.014194 -0.000005
# 2 -0.008851 0.014626 -0.005458 0.000000 -0.002487 0.000006
# 3 -0.004726 -0.005458 0.018109 0.000000 -0.005085 -0.000009
# 4 0.000000 0.000000 0.000000 0.035661 0.000000 -0.007496
# 5 0.014194 -0.002487 -0.005085 0.000000 0.042952 -0.000009
# 6 -0.000005 0.000006 -0.000009 -0.007496 -0.000009 0.087639
#
#
# Mechanical properties :
#
#
# Convention : Reuss Voigt Hill
#
# Bulk Modulus (GPa) = 50.39854 59.19979 54.79917
# Shear Modulus (GPa) = 18.59790 23.08579 20.84185
#
# Velocity S-wave (km/s) = 3.13111 3.48850 3.31463
# Velocity P-wave (km/s) = 6.29597 6.88718 6.59820
#
# Compressibility (1/GPa) = 0.01984184
#
# Stress axis : x y z
#
# Youngs Moduli (GPa) = 39.71899 68.37209 55.22177
#
# Poissons Ratio (x) = 0.60514 0.26099
# Poissons Ratio (y) = 0.35154 0.30140
# Poissons Ratio (z) = 0.18772 0.37317
#
# Static dielectric constant tensor:
#      x y z
#    x 1.670170 0.000000 0.030670 
#    y 0.000000 1.650300 0.000000 
#    z 0.030670 0.000000 1.634330 
# 
# From -- ./inp_files/201503.got.cif
#   From: 2010.05.17/outbox.cif.g08.bks.cpg/sg15_101_cif.got.tgz:201503.got - 2010.06.03 18:47:42.
