data_PCOD9280115
_publ_section_title
;
Structure prediction by ZEFSAII (Michael W. Deem and Ramdas Pophale) SiO2 
 PCOD9280115
Probable space group: C 2/C
;
_chemical_formula_sum "Si O2"
_cell_formula_units_Z 52
_cell_length_a 24.596812
_cell_length_b 14.479075
_cell_length_c 8.635253
_cell_angle_alpha 90.000000
_cell_angle_beta 48.148368
_cell_angle_gamma 90.000000
_cell_volume 2290.752318
_symmetry_space_group_name_H-M "C 2/C"
_symmetry_group_IT_number 15
_symmetry_cell_setting 'monoclinic'
loop_
_space_group_symop_operation_xyz
x,y,z
-x,y,1/2-z
-x,-y,-z
x,-y,1/2+z
1/2+x,1/2+y,z
1/2-x,1/2+y,1/2-z
1/2-x,1/2-y,-z
1/2+x,1/2-y,1/2+z
loop_
_atom_site_type_symbol
_atom_site_label
_atom_site_fract_x
_atom_site_fract_y
_atom_site_fract_z
Si Si1 0.500000 0.957035 0.250000
Si Si2 0.211190 0.901831 0.823593
Si Si3 0.000000 0.065032 0.250000
Si Si4 0.721613 0.930879 0.127555
Si Si5 0.500000 0.737291 0.750000
Si Si6 0.099027 0.565439 0.306025
Si Si7 0.333354 0.207475 0.527029
Si Si8 0.060660 0.905220 0.926695
O O1 0.452148 0.897608 0.460068
O O2 0.548964 0.022608 0.266406
O O3 0.268960 0.909973 0.572817
O O4 0.202822 0.806829 0.935039
O O5 0.138065 0.891962 0.859111
O O6 0.221527 0.992667 0.911027
O O7 0.060763 0.109597 0.242825
O O8 0.960757 0.002661 0.453546
O O9 0.713970 0.840788 0.248163
O O10 0.643971 0.981189 0.291859
O O11 0.579297 0.784481 0.595438
O O12 0.501738 0.668164 0.601062
O O13 0.158264 0.637095 0.130972
#
# Coordination Sequence:
#
# PCOD9280115 Si02
#       8
#     4   8   4   8   4   8   8   8
#     4  10  21  36  68  98 135 176 221 278 348 400
#     4  11  24  41  66  94 137 182 225 271 330 405
#     4   9  16  32  64  88 119 158 218 267 328 386
#     4  12  23  43  65  95 135 183 229 265 334 405
#     4   9  21  38  60  88 128 162 211 271 346 374
#     4  11  21  40  65  99 131 180 220 278 336 402
#     4  11  23  42  68  96 135 175 220 284 335 397
#     4   9  18  35  59  92 122 164 210 270 327 388
#
# _framework density 22.699967000000001
#
# number of rings (size 3 to 8) (size 9 to 14) (size 15 to 20)
#    0.000    1.538    3.077    1.846    2.154    1.846 
#    0.000    0.769    3.385    0.000    0.000    0.000 
#    0.000    0.000    0.000    0.000    0.000    0.000 
#
# Total GULP energy -144807.100913 kJ/mol
# GULP energy per Si atom -5569.503881 kJ/mol
# Density = 2.264830 g / cm^3
# Si number density = 22.699967 Si / 1000 Ang^3
#
#
#
# Elastic Constant Matrix: (Units=GPa)
#
#
# Indices 1 2 3 4 5 6 
#
# 1 96.5483 9.4011 -13.1261 0.0000 7.8739 0.0000
# 2 9.4011 64.8498 4.6962 0.0000 -2.5570 0.0000
# 3 -13.1261 4.6962 81.9060 0.0000 14.3365 0.0000
# 4 0.0000 0.0000 0.0000 14.8547 0.0000 -4.1868
# 5 7.8739 -2.5570 14.3365 0.0000 28.6281 0.0000
# 6 0.0000 0.0000 0.0000 -4.1868 0.0000 17.8223
#
#
#
# Elastic Compliance Matrix: (Units=1/GPa)
#
#
# Indices 1 2 3 4 5 6 
#
# 1 0.011308 -0.002022 0.002745 0.000000 -0.004665 0.000000
# 2 -0.002022 0.015952 -0.001738 0.000000 0.002851 0.000000
# 3 0.002745 -0.001738 0.014148 0.000000 -0.007995 0.000000
# 4 0.000000 0.000000 0.000000 0.072092 0.000000 0.016936
# 5 -0.004665 0.002851 -0.007995 0.000000 0.040472 0.000000
# 6 0.000000 0.000000 0.000000 0.016936 0.000000 0.060088
#
#
# Mechanical properties :
#
#
# Convention : Reuss Voigt Hill
#
# Bulk Modulus (GPa) = 25.39503 27.24960 26.32231
# Shear Modulus (GPa) = 21.81348 28.41656 25.11502
#
# Velocity S-wave (km/s) = 3.10328 3.54196 3.32985
# Velocity P-wave (km/s) = 4.90428 5.36262 5.13856
#
# Compressibility (1/GPa) = 0.03937778
#
# Stress axis : x y z
#
# Youngs Moduli (GPa) = 88.43278 62.68951 70.68108
#
# Poissons Ratio (x) = 0.12676 -0.19400
# Poissons Ratio (y) = 0.17881 0.12282
# Poissons Ratio (z) = -0.24272 0.10893
#
# Static dielectric constant tensor:
#      x y z
#    x 2.353100 0.000000 0.116660 
#    y 0.000000 1.934540 0.000000 
#    z 0.116660 0.000000 1.983730 
# 
# From -- ./inp_files/55364.got.cif
#   From: 2010.05.17/outbox.cif.g08.bks.cpg/sg15_28_cif.got.tgz:55364.got - 2010.06.03 18:47:42.
