data_PCOD9280726
_publ_section_title
;
Structure prediction by ZEFSAII (Michael W. Deem and Ramdas Pophale) SiO2 
 PCOD9280726
Probable space group: C 2/C
;
_chemical_formula_sum "Si O2"
_cell_formula_units_Z 64
_cell_length_a 8.830187
_cell_length_b 26.754141
_cell_length_c 18.432378
_cell_angle_alpha 90.000000
_cell_angle_beta 133.283610
_cell_angle_gamma 90.000000
_cell_volume 3169.969722
_symmetry_space_group_name_H-M "C 2/C"
_symmetry_group_IT_number 15
_symmetry_cell_setting 'monoclinic'
loop_
_space_group_symop_operation_xyz
x,y,z
-x,y,1/2-z
-x,-y,-z
x,-y,1/2+z
1/2+x,1/2+y,z
1/2-x,1/2+y,1/2-z
1/2-x,1/2-y,-z
1/2+x,1/2-y,1/2+z
loop_
_atom_site_type_symbol
_atom_site_label
_atom_site_fract_x
_atom_site_fract_y
_atom_site_fract_z
Si Si1 0.282967 0.453337 0.220769
Si Si2 0.075376 0.051551 0.058139
Si Si3 0.568850 0.391739 0.690459
Si Si4 0.462472 0.053218 0.335398
Si Si5 0.737246 0.818275 0.544371
Si Si6 0.592523 0.099474 0.524290
Si Si7 0.530628 0.624250 0.605621
Si Si8 0.704925 0.213043 0.867730
O O1 0.500000 0.464510 0.250000
O O2 0.175323 0.503354 0.213941
O O3 0.133094 0.428333 0.112670
O O4 0.331723 0.412874 0.299238
O O5 0.989505 0.065561 0.108882
O O6 0.325802 0.050358 0.139942
O O7 0.006122 0.095594 0.981886
O O8 0.000000 0.000000 0.000000
O O9 0.500000 0.400056 0.750000
O O10 0.816904 0.398882 0.771490
O O11 0.471240 0.340168 0.629959
O O12 0.537946 0.060552 0.443166
O O13 0.589436 0.860967 0.526781
O O14 0.677348 0.809037 0.440614
O O15 0.719068 0.768729 0.587166
O O16 0.807377 0.126669 0.571723
O O17 0.636156 0.676882 0.622577
O O18 0.500000 0.215080 0.750000
#
# Coordination Sequence:
#
# PCOD9280726 Si02
#       8
#     8   8   8   8   8   8   8   8
#     4  10  21  37  63 100 136 180 224 266 330 401
#     4  11  25  41  61  95 136 176 225 274 331 400
#     4  12  23  41  66  92 131 176 222 279 331 393
#     4  11  23  37  63  96 137 183 225 268 329 400
#     4  11  24  43  69  98 130 171 223 288 333 400
#     4  10  22  39  63  94 135 175 217 271 331 394
#     4  10  22  42  62  91 133 170 215 278 326 401
#     4  11  24  43  70  98 127 169 228 278 347 401
#
# _framework density 20.189467
#
# number of rings (size 3 to 8) (size 9 to 14) (size 15 to 20)
#    0.000    1.250    2.500    3.000    1.750    3.500 
#    0.000    0.000    0.000    0.000    0.000    0.000 
#    0.000    0.000    0.000    0.000    0.000    0.000 
#
# Total GULP energy -178799.466576 kJ/mol
# GULP energy per Si atom -5587.483330 kJ/mol
# Density = 2.014352 g / cm^3
# Si number density = 20.189467 Si / 1000 Ang^3
#
#
#
# Elastic Constant Matrix: (Units=GPa)
#
#
# Indices 1 2 3 4 5 6 
#
# 1 62.8514 40.5940 38.9166 0.0000 -14.7982 0.0000
# 2 40.5940 99.7095 40.8280 0.0000 3.2074 0.0000
# 3 38.9166 40.8280 111.9017 0.0000 -9.6962 0.0000
# 4 0.0000 0.0000 0.0000 32.1937 0.0000 -3.7305
# 5 -14.7982 3.2074 -9.6962 0.0000 37.5351 0.0000
# 6 0.0000 0.0000 0.0000 -3.7305 0.0000 32.7911
#
#
#
# Elastic Compliance Matrix: (Units=1/GPa)
#
#
# Indices 1 2 3 4 5 6 
#
# 1 0.027744 -0.009460 -0.005298 0.000000 0.010378 0.000000
# 2 -0.009460 0.015191 -0.002750 0.000000 -0.005738 0.000000
# 3 -0.005298 -0.002750 0.011888 0.000000 0.001217 0.000000
# 4 0.000000 0.000000 0.000000 0.031477 0.000000 0.003581
# 5 0.010378 -0.005738 0.001217 0.000000 0.031538 0.000000
# 6 0.000000 0.000000 0.000000 0.003581 0.000000 0.030903
#
#
# Mechanical properties :
#
#
# Convention : Reuss Voigt Hill
#
# Bulk Modulus (GPa) = 50.48565 57.23775 53.86170
# Shear Modulus (GPa) = 26.26616 30.77892 28.52254
#
# Velocity S-wave (km/s) = 3.61083 3.90873 3.76273
# Velocity P-wave (km/s) = 6.51493 6.98446 6.75378
#
# Compressibility (1/GPa) = 0.01980761
#
# Stress axis : x y z
#
# Youngs Moduli (GPa) = 36.04352 65.82867 84.12053
#
# Poissons Ratio (x) = 0.62272 0.44568
# Poissons Ratio (y) = 0.34096 0.23132
# Poissons Ratio (z) = 0.19096 0.18102
#
# Static dielectric constant tensor:
#      x y z
#    x 1.720990 0.000000 -0.011720 
#    y 0.000000 1.688080 0.000000 
#    z -0.011720 0.000000 1.773210 
# 
# From -- ./inp_files/194276.got.cif
#   From: 2010.05.17/outbox.cif.g08.bks.cpg/sg15_98_cif.got.tgz:194276.got - 2010.06.03 18:47:42.
