data_PCOD9280957
_publ_section_title
;
Structure prediction by ZEFSAII (Michael W. Deem and Ramdas Pophale) SiO2 
 PCOD9280957
Probable space group: C 2/C
;
_chemical_formula_sum "Si O2"
_cell_formula_units_Z 56
_cell_length_a 10.328935
_cell_length_b 11.588801
_cell_length_c 19.797536
_cell_angle_alpha 90.000000
_cell_angle_beta 90.156226
_cell_angle_gamma 90.000000
_cell_volume 2369.755701
_symmetry_space_group_name_H-M "C 2/C"
_symmetry_group_IT_number 15
_symmetry_cell_setting 'monoclinic'
loop_
_space_group_symop_operation_xyz
x,y,z
-x,y,1/2-z
-x,-y,-z
x,-y,1/2+z
1/2+x,1/2+y,z
1/2-x,1/2+y,1/2-z
1/2-x,1/2-y,-z
1/2+x,1/2-y,1/2+z
loop_
_atom_site_type_symbol
_atom_site_label
_atom_site_fract_x
_atom_site_fract_y
_atom_site_fract_z
Si Si1 0.642833 0.855994 0.810384
Si Si2 0.923450 0.884611 0.145678
Si Si3 0.381715 0.995214 0.052326
Si Si4 0.565545 0.379815 0.648731
Si Si5 0.593325 0.825286 0.339756
Si Si6 0.886705 0.094089 0.497316
Si Si7 0.834340 0.447275 0.287103
O O1 0.574073 0.733176 0.813190
O O2 0.604960 0.925576 0.879591
O O3 0.799804 0.848155 0.816709
O O4 0.628634 0.928270 0.741699
O O5 0.791512 0.946985 0.168112
O O6 0.901027 0.844403 0.068408
O O7 0.033715 0.983204 0.152175
O O8 0.252605 0.035920 0.013737
O O9 0.364096 0.868895 0.086738
O O10 0.500000 0.000000 0.000000
O O11 0.441442 0.307468 0.671249
O O12 0.586329 0.338675 0.571300
O O13 0.454728 0.887729 0.324514
O O14 0.686720 0.873581 0.281871
O O15 0.000000 0.000000 0.500000
#
# Coordination Sequence:
#
# PCOD9280957 Si02
#       7
#     8   8   8   8   8   8   8
#     4  10  23  41  63  96 133 178 233 288 340 427
#     4  11  22  39  68  97 130 178 231 284 341 415
#     4  10  21  37  68  98 133 180 227 279 362 408
#     4  10  22  40  70  96 130 182 230 279 358 417
#     4  10  21  40  63  93 131 178 224 286 341 420
#     4   9  21  41  65  99 136 171 231 283 339 424
#     4  10  22  38  61  89 133 175 227 279 348 402
#
# _framework density 23.631125999999998
#
# number of rings (size 3 to 8) (size 9 to 14) (size 15 to 20)
#    0.000    2.000    1.429    0.857    4.000    1.714 
#    0.000    8.571   31.429    0.000    0.000    0.000 
#    0.000    0.000    0.000    0.000    0.000    0.000 
#
# Total GULP energy -156408.377554 kJ/mol
# GULP energy per Si atom -5586.013484 kJ/mol
# Density = 2.357734 g / cm^3
# Si number density = 23.631126 Si / 1000 Ang^3
#
#
#
# Elastic Constant Matrix: (Units=GPa)
#
#
# Indices 1 2 3 4 5 6 
#
# 1 59.6389 6.7873 21.1616 0.0000 -2.9122 0.0000
# 2 6.7873 114.6742 7.2474 0.0000 5.2098 0.0000
# 3 21.1616 7.2474 74.9001 0.0000 -12.2299 0.0000
# 4 0.0000 0.0000 0.0000 24.0837 0.0000 -1.7938
# 5 -2.9122 5.2098 -12.2299 0.0000 38.6540 0.0000
# 6 0.0000 0.0000 0.0000 -1.7938 0.0000 25.6008
#
#
#
# Elastic Compliance Matrix: (Units=1/GPa)
#
#
# Indices 1 2 3 4 5 6 
#
# 1 0.018705 -0.000770 -0.005234 0.000000 -0.000143 0.000000
# 2 -0.000770 0.008892 -0.000894 0.000000 -0.001539 0.000000
# 3 -0.005234 -0.000894 0.015682 0.000000 0.004688 0.000000
# 4 0.000000 0.000000 0.000000 0.041740 0.000000 0.002925
# 5 -0.000143 -0.001539 0.004688 0.000000 0.027550 0.000000
# 6 0.000000 0.000000 0.000000 0.002925 0.000000 0.039266
#
#
# Mechanical properties :
#
#
# Convention : Reuss Voigt Hill
#
# Bulk Modulus (GPa) = 33.91694 35.51175 34.71435
# Shear Modulus (GPa) = 28.49663 31.93548 30.21606
#
# Velocity S-wave (km/s) = 3.47637 3.68015 3.57971
# Velocity P-wave (km/s) = 5.52244 5.75484 5.63983
#
# Compressibility (1/GPa) = 0.02948379
#
# Stress axis : x y z
#
# Youngs Moduli (GPa) = 53.46087 112.45576 63.76834
#
# Poissons Ratio (x) = 0.08658 0.33374
# Poissons Ratio (y) = 0.04116 0.05703
# Poissons Ratio (z) = 0.27980 0.10057
#
# Static dielectric constant tensor:
#      x y z
#    x 1.896220 0.000000 0.017430 
#    y 0.000000 1.965150 0.000000 
#    z 0.017430 0.000000 1.551830 
# 
# From -- ./inp_files/236950.got.cif
#   From: 2010.05.17/outbox.cif.g08.bks.cpg/sg15_119_cif.got.tgz:236950.got - 2010.06.03 18:47:42.
