data_PCOD9280639
_publ_section_title
;
Structure prediction by ZEFSAII (Michael W. Deem and Ramdas Pophale) SiO2 
 PCOD9280639
Probable space group: C 2/C
;
_chemical_formula_sum "Si O2"
_cell_formula_units_Z 56
_cell_length_a 19.012928
_cell_length_b 19.887246
_cell_length_c 11.478789
_cell_angle_alpha 90.000000
_cell_angle_beta 142.292582
_cell_angle_gamma 90.000000
_cell_volume 2654.655242
_symmetry_space_group_name_H-M "C 2/C"
_symmetry_group_IT_number 15
_symmetry_cell_setting 'monoclinic'
loop_
_space_group_symop_operation_xyz
x,y,z
-x,y,1/2-z
-x,-y,-z
x,-y,1/2+z
1/2+x,1/2+y,z
1/2-x,1/2+y,1/2-z
1/2-x,1/2-y,-z
1/2+x,1/2-y,1/2+z
loop_
_atom_site_type_symbol
_atom_site_label
_atom_site_fract_x
_atom_site_fract_y
_atom_site_fract_z
Si Si1 0.665851 0.029942 0.463089
Si Si2 0.082174 0.348153 0.719995
Si Si3 0.758741 0.606870 0.711006
Si Si4 0.125336 0.623436 0.882371
Si Si5 0.631720 0.482327 0.456480
Si Si6 0.232504 0.142196 0.223814
Si Si7 0.160993 0.282522 0.049051
O O1 0.586197 0.077133 0.278746
O O2 0.682348 0.062683 0.610346
O O3 0.786017 0.028953 0.548073
O O4 0.624036 0.954558 0.419482
O O5 0.144335 0.353594 0.679449
O O6 0.958894 0.314028 0.561999
O O7 0.159258 0.304263 0.911706
O O8 0.840548 0.621395 0.708128
O O9 0.657217 0.558266 0.533817
O O10 0.738731 0.677721 0.750264
O O11 0.000000 0.652688 0.750000
O O12 0.233654 0.651772 0.097639
O O13 0.500000 0.472826 0.250000
O O14 0.672585 0.427458 0.606603
O O15 0.162901 0.204566 0.079998
#
# Coordination Sequence:
#
# PCOD9280639 Si02
#       7
#     8   8   8   8   8   8   8
#     4   9  20  38  60  89 118 150 199 256 290 351
#     4   9  20  37  62  89 114 152 200 250 306 331
#     4  10  21  41  55  88 120 157 198 241 292 359
#     4  11  23  36  62  89 122 159 195 243 302 351
#     4  10  22  39  62  86 120 156 199 247 300 348
#     4  11  22  40  58  91 120 152 199 248 294 357
#     4  10  21  37  62  85 119 156 196 248 297 349
#
# _framework density 21.095016999999999
#
# number of rings (size 3 to 8) (size 9 to 14) (size 15 to 20)
#    0.000    2.000    1.429    1.286    6.000    1.714 
#    0.000    0.714    0.000    0.000    0.000    0.000 
#    0.000    0.000    0.000    0.000    0.000    0.000 
#
# Total GULP energy -156220.065985 kJ/mol
# GULP energy per Si atom -5579.288071 kJ/mol
# Density = 2.104700 g / cm^3
# Si number density = 21.095017 Si / 1000 Ang^3
#
#
#
# Elastic Constant Matrix: (Units=GPa)
#
#
# Indices 1 2 3 4 5 6 
#
# 1 48.2699 -18.4673 30.5699 0.0000 -3.0042 0.0000
# 2 -18.4673 61.4046 5.8533 0.0000 3.0674 0.0000
# 3 30.5699 5.8533 87.9036 0.0000 -3.6062 0.0000
# 4 0.0000 0.0000 0.0000 15.4025 0.0000 3.8747
# 5 -3.0042 3.0674 -3.6062 0.0000 43.9578 0.0000
# 6 0.0000 0.0000 0.0000 3.8747 0.0000 -1.0394
#
#
#
# Elastic Compliance Matrix: (Units=1/GPa)
#
#
# Indices 1 2 3 4 5 6 
#
# 1 0.032531 0.010906 -0.012020 0.000000 0.000476 0.000000
# 2 0.010906 0.020113 -0.005176 0.000000 -0.001083 0.000000
# 3 -0.012020 -0.005176 0.015936 0.000000 0.000847 0.000000
# 4 0.000000 0.000000 0.000000 0.033504 0.000000 0.124901
# 5 0.000476 -0.001083 0.000847 0.000000 0.022927 0.000000
# 6 0.000000 0.000000 0.000000 0.124901 0.000000 -0.496502
#
#
# Mechanical properties :
#
#
# Convention : Reuss Voigt Hill
#
# Bulk Modulus (GPa) = 17.85764 25.94333 21.90048
# Shear Modulus (GPa) = -14.69530 23.63900 4.47185
#
# Velocity S-wave (km/s) = -2.64223 3.35116 1.45755
# Velocity P-wave (km/s) = 0.90817 5.22482 3.63827
#
# Compressibility (1/GPa) = 0.05599844
#
# Stress axis : x y z
#
# Youngs Moduli (GPa) = 30.73982 49.71965 62.75246
#
# Poissons Ratio (x) = -0.54222 0.75428
# Poissons Ratio (y) = -0.33524 0.32483
# Poissons Ratio (z) = 0.36949 0.25736
#
# Static dielectric constant tensor:
#      x y z
#    x 1.767710 0.000000 -0.008920 
#    y 0.000000 1.777860 0.000000 
#    z -0.008920 0.000000 1.802650 
# 
# From -- ./inp_files/114107.got.cif
#   From: 2010.05.17/outbox.cif.g08.bks.cpg/sg15_58_cif.got.tgz:114107.got - 2010.06.03 18:47:42.
