data_PCOD9280358
_publ_section_title
;
Structure prediction by ZEFSAII (Michael W. Deem and Ramdas Pophale) SiO2 
 PCOD9280358
Probable space group: C 2/C
;
_chemical_formula_sum "Si O2"
_cell_formula_units_Z 36
_cell_length_a 9.352921
_cell_length_b 11.589096
_cell_length_c 14.839768
_cell_angle_alpha 90.000000
_cell_angle_beta 110.233090
_cell_angle_gamma 90.000000
_cell_volume 1509.254991
_symmetry_space_group_name_H-M "C 2/C"
_symmetry_group_IT_number 15
_symmetry_cell_setting 'monoclinic'
loop_
_space_group_symop_operation_xyz
x,y,z
-x,y,1/2-z
-x,-y,-z
x,-y,1/2+z
1/2+x,1/2+y,z
1/2-x,1/2+y,1/2-z
1/2-x,1/2-y,-z
1/2+x,1/2-y,1/2+z
loop_
_atom_site_type_symbol
_atom_site_label
_atom_site_fract_x
_atom_site_fract_y
_atom_site_fract_z
Si Si1 0.914911 0.406588 0.608003
Si Si2 0.206214 0.715409 0.261312
Si Si3 0.000000 0.071802 0.750000
Si Si4 0.548935 0.858658 0.456179
Si Si5 0.875280 0.138767 0.127131
O O1 0.783849 0.355017 0.642538
O O2 0.945804 0.542745 0.618460
O O3 0.062129 0.342271 0.678922
O O4 0.918252 0.379903 0.502033
O O5 0.146096 0.845871 0.263207
O O6 0.336617 0.692939 0.217058
O O7 0.952860 0.984967 0.659468
O O8 0.712832 0.872588 0.540747
O O9 0.537418 0.732996 0.412537
#
# Coordination Sequence:
#
# PCOD9280358 Si02
#       5
#     8   8   4   8   8
#     4   8  16  35  59  80 115 150 185 236 294 326
#     4   9  20  38  57  83 120 152 192 241 277 354
#     4  10  22  40  56  88 116 154 194 236 292 348
#     4   9  18  35  58  88 112 148 192 243 286 344
#     4  10  21  37  59  84 118 151 193 236 294 345
#
# _framework density 23.852827999999999
#
# number of rings (size 3 to 8) (size 9 to 14) (size 15 to 20)
#    0.000    3.111    0.000    0.000    3.111    1.778 
#    8.000   22.222    0.000    0.000    0.000    0.000 
#    0.000    0.000    0.000    0.000    0.000    0.000 
#
# Total GULP energy -100462.023697 kJ/mol
# GULP energy per Si atom -5581.223539 kJ/mol
# Density = 2.379854 g / cm^3
# Si number density = 23.852828 Si / 1000 Ang^3
#
#
#
# Elastic Constant Matrix: (Units=GPa)
#
#
# Indices 1 2 3 4 5 6 
#
# 1 87.6584 34.3592 20.4425 0.0000 -26.9819 0.0000
# 2 34.3592 172.3251 50.7102 0.0000 -15.6348 0.0000
# 3 20.4425 50.7102 70.0130 0.0000 -4.2589 0.0000
# 4 0.0000 0.0000 0.0000 -16.0648 0.0000 -48.9741
# 5 -26.9819 -15.6348 -4.2589 0.0000 37.7905 0.0000
# 6 0.0000 0.0000 0.0000 -48.9741 0.0000 -18.4844
#
#
#
# Elastic Compliance Matrix: (Units=1/GPa)
#
#
# Indices 1 2 3 4 5 6 
#
# 1 0.015841 -0.001320 -0.003036 0.000000 0.010422 0.000000
# 2 -0.001320 0.007720 -0.005105 0.000000 0.001677 0.000000
# 3 -0.003036 -0.005105 0.018735 0.000000 -0.002168 0.000000
# 4 0.000000 0.000000 0.000000 0.008796 0.000000 -0.023304
# 5 0.010422 0.001677 -0.002168 0.000000 0.034352 0.000000
# 6 0.000000 0.000000 0.000000 -0.023304 0.000000 0.007644
#
#
# Mechanical properties :
#
#
# Convention : Reuss Voigt Hill
#
# Bulk Modulus (GPa) = 42.77744 60.11335 51.44539
# Shear Modulus (GPa) = 41.73611 15.61389 28.67500
#
# Velocity S-wave (km/s) = 4.18752 2.56128 3.47098
# Velocity P-wave (km/s) = 6.43065 5.83124 6.13827
#
# Compressibility (1/GPa) = 0.02337681
#
# Stress axis : x y z
#
# Youngs Moduli (GPa) = 63.12677 129.52825 53.37688
#
# Poissons Ratio (x) = 0.17093 0.16203
# Poissons Ratio (y) = 0.08330 0.27246
# Poissons Ratio (z) = 0.19162 0.66118
#
# Static dielectric constant tensor:
#      x y z
#    x 2.008100 0.000000 0.012790 
#    y 0.000000 1.889890 0.000000 
#    z 0.012790 0.000000 1.976720 
# 
# From -- ./inp_files/141971.got.cif
#   From: 2010.05.17/outbox.cif.g08.bks.cpg/sg15_71_cif.got.tgz:141971.got - 2010.06.03 18:47:42.
