data_PCOD9280135
_publ_section_title
;
Structure prediction by ZEFSAII (Michael W. Deem and Ramdas Pophale) SiO2 
 PCOD9280135
Probable space group: C 2/C
;
_chemical_formula_sum "Si O2"
_cell_formula_units_Z 52
_cell_length_a 26.124060
_cell_length_b 8.829174
_cell_length_c 8.620292
_cell_angle_alpha 90.000000
_cell_angle_beta 107.923194
_cell_angle_gamma 90.000000
_cell_volume 1891.811152
_symmetry_space_group_name_H-M "C 2/C"
_symmetry_group_IT_number 15
_symmetry_cell_setting 'monoclinic'
loop_
_space_group_symop_operation_xyz
x,y,z
-x,y,1/2-z
-x,-y,-z
x,-y,1/2+z
1/2+x,1/2+y,z
1/2-x,1/2+y,1/2-z
1/2-x,1/2-y,-z
1/2+x,1/2-y,1/2+z
loop_
_atom_site_type_symbol
_atom_site_label
_atom_site_fract_x
_atom_site_fract_y
_atom_site_fract_z
Si Si1 0.175671 0.664793 0.346123
Si Si2 0.925793 0.534284 0.443235
Si Si3 0.421300 0.291232 0.113990
Si Si4 0.278427 0.924069 0.917160
Si Si5 0.338325 0.351027 0.573661
Si Si6 0.000000 0.412840 0.250000
Si Si7 0.090304 0.031346 0.629140
O O1 0.128000 0.581131 0.199066
O O2 0.142260 0.802806 0.391385
O O3 0.200076 0.589001 0.523082
O O4 0.220819 0.649077 0.253848
O O5 0.922765 0.370844 0.529433
O O6 0.967807 0.510236 0.344648
O O7 0.951482 0.649773 0.596031
O O8 0.440038 0.423922 0.019221
O O9 0.442787 0.344715 0.302853
O O10 0.321958 0.824837 0.054457
O O11 0.219549 0.917816 0.934870
O O12 0.382676 0.404584 0.735201
O O13 0.361617 0.393472 0.426987
#
# Coordination Sequence:
#
# PCOD9280135 Si02
#       7
#     8   8   8   8   8   4   8
#     4  12  21  37  59  93 118 153 205 256 306 359
#     4  11  21  40  65  99 124 152 185 248 318 370
#     4  11  22  40  62  87 119 162 211 249 288 369
#     4  11  22  34  55  85 122 156 203 263 310 342
#     4  10  21  37  52  80 121 165 207 251 302 357
#     4  10  22  38  66 104 128 144 172 248 334 374
#     4  10  22  40  57  79 118 172 217 240 292 341
#
# _framework density 27.486886999999999
#
# number of rings (size 3 to 8) (size 9 to 14) (size 15 to 20)
#    0.000    1.231    4.615    1.846    0.000    0.000 
#    0.000    2.308    0.000    2.769    0.000    0.000 
#    0.000    0.000    0.000    0.000    0.000    0.000 
#
# Total GULP energy -144931.674659 kJ/mol
# GULP energy per Si atom -5574.295179 kJ/mol
# Density = 2.742433 g / cm^3
# Si number density = 27.486887 Si / 1000 Ang^3
#
#
#
# Elastic Constant Matrix: (Units=GPa)
#
#
# Indices 1 2 3 4 5 6 
#
# 1 98.7769 24.7062 36.5144 0.0000 -29.1763 0.0000
# 2 24.7062 77.7608 32.1191 0.0000 -5.7009 0.0000
# 3 36.5144 32.1191 134.8979 0.0000 -25.4411 0.0000
# 4 0.0000 0.0000 0.0000 53.8469 0.0000 -10.5385
# 5 -29.1763 -5.7009 -25.4411 0.0000 37.8817 0.0000
# 6 0.0000 0.0000 0.0000 -10.5385 0.0000 12.2607
#
#
#
# Elastic Compliance Matrix: (Units=1/GPa)
#
#
# Indices 1 2 3 4 5 6 
#
# 1 0.014264 -0.003307 -0.001255 0.000000 0.009646 0.000000
# 2 -0.003307 0.015030 -0.003134 0.000000 -0.002390 0.000000
# 3 -0.001255 -0.003134 0.009421 0.000000 0.004889 0.000000
# 4 0.000000 0.000000 0.000000 0.022327 0.000000 0.019191
# 5 0.009646 -0.002390 0.004889 0.000000 0.036751 0.000000
# 6 0.000000 0.000000 0.000000 0.019191 0.000000 0.098056
#
#
# Mechanical properties :
#
#
# Convention : Reuss Voigt Hill
#
# Bulk Modulus (GPa) = 42.87452 55.34614 49.11033
# Shear Modulus (GPa) = 22.82956 35.33758 29.08357
#
# Velocity S-wave (km/s) = 2.88507 3.58944 3.25636
# Velocity P-wave (km/s) = 5.17013 6.11211 5.66075
#
# Compressibility (1/GPa) = 0.02332387
#
# Stress axis : x y z
#
# Youngs Moduli (GPa) = 70.10793 66.53395 106.14664
#
# Poissons Ratio (x) = 0.22000 0.13316
# Poissons Ratio (y) = 0.23182 0.33270
# Poissons Ratio (z) = 0.08795 0.20854
#
# Static dielectric constant tensor:
#      x y z
#    x 2.217930 0.000000 0.012580 
#    y 0.000000 2.278490 0.000000 
#    z 0.012580 0.000000 2.250810 
# 
# From -- ./inp_files/68884.got.cif
#   From: 2010.05.17/outbox.cif.g08.bks.cpg/sg15_35_cif.got.tgz:68884.got - 2010.06.03 18:47:42.
