data_PCOD9280316
_publ_section_title
;
Structure prediction by ZEFSAII (Michael W. Deem and Ramdas Pophale) SiO2 
 PCOD9280316
Probable space group: C 2/C
;
_chemical_formula_sum "Si O2"
_cell_formula_units_Z 32
_cell_length_a 6.270831
_cell_length_b 9.385528
_cell_length_c 23.808746
_cell_angle_alpha 90.000000
_cell_angle_beta 66.250710
_cell_angle_gamma 90.000000
_cell_volume 1282.601091
_symmetry_space_group_name_H-M "C 2/C"
_symmetry_group_IT_number 15
_symmetry_cell_setting 'monoclinic'
loop_
_space_group_symop_operation_xyz
x,y,z
-x,y,1/2-z
-x,-y,-z
x,-y,1/2+z
1/2+x,1/2+y,z
1/2-x,1/2+y,1/2-z
1/2-x,1/2-y,-z
1/2+x,1/2-y,1/2+z
loop_
_atom_site_type_symbol
_atom_site_label
_atom_site_fract_x
_atom_site_fract_y
_atom_site_fract_z
Si Si1 0.262127 0.042413 0.304805
Si Si2 0.355122 0.747179 0.337755
Si Si3 0.948847 0.654836 0.950465
Si Si4 0.848688 0.360708 0.921375
O O1 0.500000 0.094492 0.250000
O O2 0.037849 0.122400 0.304020
O O3 0.258044 0.079834 0.371168
O O4 0.279134 0.870108 0.301826
O O5 0.688019 0.777232 0.448353
O O6 0.115080 0.680852 0.384106
O O7 0.964700 0.677421 0.881245
O O8 0.750000 0.750000 0.000000
O O9 0.138812 0.507740 0.036793
#
# Coordination Sequence:
#
# PCOD9280316 Si02
#       4
#     8   8   8   8
#     4  10  23  38  58  86 116 156 201 255 307 371
#     4  10  22  40  58  87 120 153 206 250 305 374
#     4  10  21  37  58  87 120 154 200 250 304 369
#     4  10  21  38  57  85 117 156 199 252 302 372
#
# _framework density 24.949301999999999
#
# number of rings (size 3 to 8) (size 9 to 14) (size 15 to 20)
#    0.000    2.000    0.000    2.250    3.500    2.000 
#    0.000    0.000    0.000    0.000    0.000    0.000 
#    0.000    0.000    0.000    0.000    0.000    0.000 
#
# Total GULP energy -89375.451518 kJ/mol
# GULP energy per Si atom -5585.965720 kJ/mol
# Density = 2.489252 g / cm^3
# Si number density = 24.949302 Si / 1000 Ang^3
#
#
#
# Elastic Constant Matrix: (Units=GPa)
#
#
# Indices 1 2 3 4 5 6 
#
# 1 157.0777 98.4903 33.7250 0.0000 -25.4359 0.0000
# 2 98.4903 222.0801 60.1803 0.0000 -21.0115 0.0000
# 3 33.7250 60.1803 69.8701 0.0000 -1.1849 0.0000
# 4 0.0000 0.0000 0.0000 28.3063 0.0000 -14.1049
# 5 -25.4359 -21.0115 -1.1849 0.0000 64.1543 0.0000
# 6 0.0000 0.0000 0.0000 -14.1049 0.0000 39.3382
#
#
#
# Elastic Compliance Matrix: (Units=1/GPa)
#
#
# Indices 1 2 3 4 5 6 
#
# 1 0.009263 -0.003484 -0.001428 0.000000 0.002505 0.000000
# 2 -0.003484 0.007408 -0.004682 0.000000 0.000958 0.000000
# 3 -0.001428 -0.004682 0.019005 0.000000 -0.001749 0.000000
# 4 0.000000 0.000000 0.000000 0.043013 0.000000 0.015422
# 5 0.002505 0.000958 -0.001749 0.000000 0.016862 0.000000
# 6 0.000000 0.000000 0.000000 0.015422 0.000000 0.030950
#
#
# Mechanical properties :
#
#
# Convention : Reuss Voigt Hill
#
# Bulk Modulus (GPa) = 60.65347 92.64657 76.65002
# Shear Modulus (GPa) = 33.07217 43.46857 38.27037
#
# Velocity S-wave (km/s) = 3.64479 4.17859 3.92078
# Velocity P-wave (km/s) = 6.48661 7.77787 7.16141
#
# Compressibility (1/GPa) = 0.01648710
#
# Stress axis : x y z
#
# Youngs Moduli (GPa) = 107.95497 134.99708 52.61874
#
# Poissons Ratio (x) = 0.47036 0.07512
# Poissons Ratio (y) = 0.37614 0.24637
# Poissons Ratio (z) = 0.15412 0.63209
#
# Static dielectric constant tensor:
#      x y z
#    x 1.955900 0.000000 0.073800 
#    y 0.000000 2.030600 0.000000 
#    z 0.073800 0.000000 2.016200 
# 
# From -- ./inp_files/259682.got.cif
#   From: 2010.05.17/outbox.cif.g08.bks.cpg/sg15_130_cif.got.tgz:259682.got - 2010.06.03 18:47:42.
