data_PCOD9280576
_publ_section_title
;
Structure prediction by ZEFSAII (Michael W. Deem and Ramdas Pophale) SiO2 
 PCOD9280576
Probable space group: C 2/C
;
_chemical_formula_sum "Si O2"
_cell_formula_units_Z 56
_cell_length_a 12.986379
_cell_length_b 20.990696
_cell_length_c 13.433108
_cell_angle_alpha 90.000000
_cell_angle_beta 40.107806
_cell_angle_gamma 90.000000
_cell_volume 2359.016103
_symmetry_space_group_name_H-M "C 2/C"
_symmetry_group_IT_number 15
_symmetry_cell_setting 'monoclinic'
loop_
_space_group_symop_operation_xyz
x,y,z
-x,y,1/2-z
-x,-y,-z
x,-y,1/2+z
1/2+x,1/2+y,z
1/2-x,1/2+y,1/2-z
1/2-x,1/2-y,-z
1/2+x,1/2-y,1/2+z
loop_
_atom_site_type_symbol
_atom_site_label
_atom_site_fract_x
_atom_site_fract_y
_atom_site_fract_z
Si Si1 0.130978 0.072661 0.241816
Si Si2 0.500012 0.217877 0.500002
Si Si3 0.678213 0.930116 0.578262
Si Si4 0.821789 0.569875 0.921739
Si Si5 0.369020 0.572675 0.758185
Si Si6 0.266571 0.668776 0.168807
Si Si7 0.766554 0.831223 0.168807
O O1 0.138840 0.127722 0.317527
O O2 0.000000 0.080120 0.250000
O O3 0.119352 0.999993 0.290121
O O4 0.297142 0.077203 0.057201
O O5 0.355083 0.265467 0.577679
O O6 0.588289 0.180649 0.345465
O O7 0.411733 0.180648 0.654537
O O8 0.644943 0.265466 0.422325
O O9 0.500000 0.931134 0.750000
O O10 0.702858 0.922785 0.442801
O O11 0.760926 0.874176 0.576169
O O12 0.748324 0.999996 0.551146
O O13 0.739078 0.625817 0.923832
O O14 0.000000 0.568856 0.750000
O O15 0.500000 0.580134 0.750000
O O16 0.361149 0.627733 0.682478
#
# Coordination Sequence:
#
# PCOD9280576 Si02
#       7
#     8   8   8   8   8   8   8
#     4  10  21  37  61  90 113 142 187 234 289 345
#     4  10  24  38  58  82 112 156 204 220 264 346
#     4  10  21  37  61  90 113 142 187 234 289 345
#     4  10  21  37  61  90 113 142 187 234 289 345
#     4  10  21  37  61  90 113 142 187 234 289 345
#     4  11  21  42  58  80 119 153 184 240 278 319
#     4  11  21  42  58  80 119 153 184 240 278 319
#
# _framework density 23.738709
#
# number of rings (size 3 to 8) (size 9 to 14) (size 15 to 20)
#    0.000    1.714    0.000    4.286    0.000    0.000 
#    0.000   40.000    0.000    0.000    0.000    0.000 
#    0.000    0.000    0.000    0.000    0.000    0.000 
#
# Total GULP energy -156431.052493 kJ/mol
# GULP energy per Si atom -5586.823303 kJ/mol
# Density = 2.368468 g / cm^3
# Si number density = 23.738709 Si / 1000 Ang^3
#
#
#
# Elastic Constant Matrix: (Units=GPa)
#
#
# Indices 1 2 3 4 5 6 
#
# 1 23.8267 19.1909 7.3068 -0.0024 1.0473 0.0013
# 2 19.1909 89.9153 19.0016 -0.0019 13.3259 0.0006
# 3 7.3068 19.0016 138.3878 -0.0058 -16.8203 0.0033
# 4 -0.0024 -0.0019 -0.0058 45.9209 0.0038 -8.0179
# 5 1.0473 13.3259 -16.8203 0.0038 31.6088 -0.0024
# 6 0.0013 0.0006 0.0033 -8.0179 -0.0024 27.3565
#
#
#
# Elastic Compliance Matrix: (Units=1/GPa)
#
#
# Indices 1 2 3 4 5 6 
#
# 1 0.051055 -0.011087 -0.000867 0.000002 0.002521 -0.000001
# 2 -0.011087 0.015060 -0.002362 0.000000 -0.007239 0.000000
# 3 -0.000867 -0.002362 0.008255 0.000000 0.005417 0.000000
# 4 0.000002 0.000000 0.000000 0.022951 -0.000002 0.006727
# 5 0.002521 -0.007239 0.005417 -0.000002 0.037488 0.000002
# 6 -0.000001 0.000000 0.000000 0.006727 0.000002 0.038526
#
#
# Mechanical properties :
#
#
# Convention : Reuss Voigt Hill
#
# Bulk Modulus (GPa) = 21.86429 38.12538 29.99483
# Shear Modulus (GPa) = 23.01892 34.75260 28.88576
#
# Velocity S-wave (km/s) = 3.11734 3.83033 3.49208
# Velocity P-wave (km/s) = 4.71036 5.97136 5.37795
#
# Compressibility (1/GPa) = 0.04573668
#
# Stress axis : x y z
#
# Youngs Moduli (GPa) = 19.58678 66.40098 121.14401
#
# Poissons Ratio (x) = 0.73621 0.10501
# Poissons Ratio (y) = 0.21716 0.28618
# Poissons Ratio (z) = 0.01698 0.15686
#
# Static dielectric constant tensor:
#      x y z
#    x 1.886950 0.000000 -0.095200 
#    y 0.000000 1.894130 0.000000 
#    z -0.095200 0.000000 2.009340 
# 
# From -- ./inp_files/156168.got.cif
#   From: 2010.05.17/outbox.cif.g08.bks.cpg/sg15_79_cif.got.tgz:156168.got - 2010.06.03 18:47:42.
