data_PCOD9280215
_publ_section_title
;
Structure prediction by ZEFSAII (Michael W. Deem and Ramdas Pophale) SiO2 
 PCOD9280215
Probable space group: C 2/C
;
_chemical_formula_sum "Si O2"
_cell_formula_units_Z 60
_cell_length_a 22.872333
_cell_length_b 18.794485
_cell_length_c 13.439432
_cell_angle_alpha 90.000000
_cell_angle_beta 31.982597
_cell_angle_gamma 90.000000
_cell_volume 3059.992357
_symmetry_space_group_name_H-M "C 2/C"
_symmetry_group_IT_number 15
_symmetry_cell_setting 'monoclinic'
loop_
_space_group_symop_operation_xyz
x,y,z
-x,y,1/2-z
-x,-y,-z
x,-y,1/2+z
1/2+x,1/2+y,z
1/2-x,1/2+y,1/2-z
1/2-x,1/2-y,-z
1/2+x,1/2-y,1/2+z
loop_
_atom_site_type_symbol
_atom_site_label
_atom_site_fract_x
_atom_site_fract_y
_atom_site_fract_z
Si Si1 0.340342 0.199988 0.420892
Si Si2 0.797411 0.102443 0.559539
Si Si3 0.759758 0.092485 0.387838
Si Si4 0.503537 0.401802 0.444679
Si Si5 0.260401 0.248065 0.103031
Si Si6 0.000000 0.995612 0.250000
Si Si7 0.548741 0.244119 0.036790
Si Si8 0.754532 0.935446 0.332640
O O1 0.250000 0.250000 0.500000
O O2 0.384997 0.240818 0.454789
O O3 0.295762 0.124393 0.522729
O O4 0.446538 0.190979 0.196588
O O5 0.740900 0.098618 0.533192
O O6 0.835601 0.184490 0.522901
O O7 0.727947 0.081342 0.756564
O O8 0.895020 0.046369 0.408232
O O9 0.714381 0.166149 0.405049
O O10 0.720715 0.015737 0.407204
O O11 0.891531 0.092309 0.171244
O O12 0.499998 0.448001 0.349231
O O13 0.506481 0.320161 0.405491
O O14 0.612660 0.425211 0.346211
O O15 0.140911 0.267024 0.320859
O O16 0.250000 0.250000 0.000000
#
# Coordination Sequence:
#
# PCOD9280215 Si02
#       8
#     8   8   8   8   8   4   8   8
#     4  11  22  37  59  88 124 161 202 251 302 364
#     4  11  21  35  56  87 119 161 202 235 305 382
#     4  10  21  37  56  84 124 159 194 255 312 362
#     4  11  21  34  57  91 127 151 189 253 330 369
#     4   9  20  39  60  82 117 166 201 241 301 363
#     4  12  20  32  58  88 128 150 188 252 326 370
#     4  10  21  39  59  88 124 162 200 251 305 363
#     4  12  21  36  58  91 119 151 206 246 306 381
#
# _framework density 19.607892
#
# number of rings (size 3 to 8) (size 9 to 14) (size 15 to 20)
#    0.000    1.333    5.333    2.000    0.000    0.000 
#    0.000    0.000    0.000    4.800    0.000    0.000 
#    0.000    0.000    0.000    0.000    0.000    0.000 
#
# Total GULP energy -167278.306293 kJ/mol
# GULP energy per Si atom -5575.943543 kJ/mol
# Density = 1.956326 g / cm^3
# Si number density = 19.607892 Si / 1000 Ang^3
#
#
#
# Elastic Constant Matrix: (Units=GPa)
#
#
# Indices 1 2 3 4 5 6 
#
# 1 45.9144 17.1863 23.5236 0.0000 17.0853 0.0000
# 2 17.1863 136.0530 24.0723 0.0000 26.8737 0.0000
# 3 23.5236 24.0723 81.5232 0.0000 26.9062 0.0000
# 4 0.0000 0.0000 0.0000 29.7699 0.0000 18.3668
# 5 17.0853 26.8737 26.9062 0.0000 22.0629 0.0000
# 6 0.0000 0.0000 0.0000 18.3668 0.0000 -5.4668
#
#
#
# Elastic Compliance Matrix: (Units=1/GPa)
#
#
# Indices 1 2 3 4 5 6 
#
# 1 0.030828 0.000952 -0.001531 0.000000 -0.023166 0.000000
# 2 0.000952 0.009856 0.001708 0.000000 -0.014825 0.000000
# 3 -0.001531 0.001708 0.020919 0.000000 -0.026406 0.000000
# 4 0.000000 0.000000 0.000000 0.010932 0.000000 0.036727
# 5 -0.023166 -0.014825 -0.026406 0.000000 0.113525 0.000000
# 6 0.000000 0.000000 0.000000 0.036727 0.000000 -0.059529
#
#
# Mechanical properties :
#
#
# Convention : Reuss Voigt Hill
#
# Bulk Modulus (GPa) = 15.65878 43.67278 29.66578
# Shear Modulus (GPa) = 34.35042 22.52041 28.43542
#
# Velocity S-wave (km/s) = 4.19007 3.39269 3.81228
# Velocity P-wave (km/s) = 5.60466 6.13747 5.87711
#
# Compressibility (1/GPa) = 0.06386194
#
# Stress axis : x y z
#
# Youngs Moduli (GPa) = 32.43819 101.46171 47.80338
#
# Poissons Ratio (x) = -0.09664 0.07318
# Poissons Ratio (y) = -0.03090 -0.08164
# Poissons Ratio (z) = 0.04966 -0.17329
#
# Static dielectric constant tensor:
#      x y z
#    x 1.727110 0.000000 0.035120 
#    y 0.000000 1.746070 0.000000 
#    z 0.035120 0.000000 1.721400 
# 
# From -- ./inp_files/178700.got.cif
#   From: 2010.05.17/outbox.cif.g08.bks.cpg/sg15_90_cif.got.tgz:178700.got - 2010.06.03 18:47:42.
