data_PCOD9280348
_publ_section_title
;
Structure prediction by ZEFSAII (Michael W. Deem and Ramdas Pophale) SiO2 
 PCOD9280348
Probable space group: C 2/C
;
_chemical_formula_sum "Si O2"
_cell_formula_units_Z 52
_cell_length_a 7.105327
_cell_length_b 14.769546
_cell_length_c 26.569796
_cell_angle_alpha 90.000000
_cell_angle_beta 57.666798
_cell_angle_gamma 90.000000
_cell_volume 2355.979437
_symmetry_space_group_name_H-M "C 2/C"
_symmetry_group_IT_number 15
_symmetry_cell_setting 'monoclinic'
loop_
_space_group_symop_operation_xyz
x,y,z
-x,y,1/2-z
-x,-y,-z
x,-y,1/2+z
1/2+x,1/2+y,z
1/2-x,1/2+y,1/2-z
1/2-x,1/2-y,-z
1/2+x,1/2-y,1/2+z
loop_
_atom_site_type_symbol
_atom_site_label
_atom_site_fract_x
_atom_site_fract_y
_atom_site_fract_z
Si Si1 0.500000 0.499999 0.750000
Si Si2 0.500000 0.754389 0.250000
Si Si3 0.225909 0.826962 0.930862
Si Si4 0.949353 0.173037 0.569139
Si Si5 0.484097 0.924341 0.677786
Si Si6 0.304757 0.575659 0.677787
Si Si7 0.454562 0.249999 0.647718
Si Si8 0.500000 0.245610 0.250000
O O1 0.733504 0.451897 0.706027
O O2 0.442383 0.548101 0.706028
O O3 0.306545 0.827760 0.291506
O O4 0.514628 0.701946 0.301474
O O5 0.395782 0.750001 0.927110
O O6 0.383266 0.909595 0.892749
O O7 0.103233 0.800659 0.895805
O O8 0.050259 0.844330 0.000000
O O9 0.954264 0.090405 0.607251
O O10 0.686452 0.199338 0.604195
O O11 0.472573 0.827760 0.708493
O O12 0.622871 0.000000 0.688564
O O13 0.220523 0.201945 0.698526
#
# Coordination Sequence:
#
# PCOD9280348 Si02
#       8
#     4   4   8   8   8   8   8   4
#     4  12  22  38  62  84 132 168 200 274 332 376
#     4  10  21  37  58  97 131 154 208 258 328 392
#     4  10  24  44  65  92 125 168 222 265 313 384
#     4  10  24  44  65  92 125 168 222 265 313 384
#     4  11  23  40  58  92 126 165 209 261 321 395
#     4  11  23  40  58  92 126 165 209 261 321 395
#     4  10  23  36  62  94 129 162 198 266 328 374
#     4  10  21  37  58  97 131 154 208 258 328 392
#
# _framework density 22.071501000000001
#
# number of rings (size 3 to 8) (size 9 to 14) (size 15 to 20)
#    0.000    1.538    3.077    0.462   12.923    0.615 
#    0.000    0.769    0.000    0.000    0.000    0.000 
#    0.000    0.000    0.000    0.000    0.000    0.000 
#
# Total GULP energy -144841.797497 kJ/mol
# GULP energy per Si atom -5570.838365 kJ/mol
# Density = 2.202127 g / cm^3
# Si number density = 22.071501 Si / 1000 Ang^3
#
#
#
# Elastic Constant Matrix: (Units=GPa)
#
#
# Indices 1 2 3 4 5 6 
#
# 1 154.6945 45.9680 90.6246 -0.0003 1.3520 0.0002
# 2 45.9680 55.0441 45.5212 -0.0002 -0.0158 0.0001
# 3 90.6246 45.5212 257.7340 -0.0006 2.3023 0.0004
# 4 -0.0003 -0.0002 -0.0006 25.3512 0.0005 -0.0032
# 5 1.3520 -0.0158 2.3023 0.0005 51.1280 -0.0003
# 6 0.0002 0.0001 0.0004 -0.0032 -0.0003 25.4277
#
#
#
# Elastic Compliance Matrix: (Units=1/GPa)
#
#
# Indices 1 2 3 4 5 6 
#
# 1 0.009642 -0.006147 -0.002303 0.000000 -0.000153 0.000000
# 2 -0.006147 0.025196 -0.002291 0.000000 0.000274 0.000000
# 3 -0.002303 -0.002291 0.005096 0.000000 -0.000169 0.000000
# 4 0.000000 0.000000 0.000000 0.039446 0.000000 0.000005
# 5 -0.000153 0.000274 -0.000169 0.000000 0.019571 0.000000
# 6 0.000000 0.000000 0.000000 0.000005 0.000000 0.039327
#
#
# Mechanical properties :
#
#
# Convention : Reuss Voigt Hill
#
# Bulk Modulus (GPa) = 54.19915 92.41115 73.30515
# Shear Modulus (GPa) = 30.13693 39.40530 34.77112
#
# Velocity S-wave (km/s) = 3.69917 4.22992 3.97342
# Velocity P-wave (km/s) = 6.54635 8.11272 7.37126
#
# Compressibility (1/GPa) = 0.01845047
#
# Stress axis : x y z
#
# Youngs Moduli (GPa) = 103.71768 39.68952 196.23466
#
# Poissons Ratio (x) = 0.24398 0.45194
# Poissons Ratio (y) = 0.63757 0.44958
# Poissons Ratio (z) = 0.23887 0.09093
#
# Static dielectric constant tensor:
#      x y z
#    x 1.839830 0.000000 -0.001520 
#    y 0.000000 1.979150 0.000000 
#    z -0.001520 0.000000 1.797020 
# 
# From -- ./inp_files/286005.got.cif
#   From: 2010.05.17/outbox.cif.g08.bks.cpg/sg15_144_cif.got.tgz:286005.got - 2010.06.03 18:47:42.
