data_PCOD9280611
_publ_section_title
;
Structure prediction by ZEFSAII (Michael W. Deem and Ramdas Pophale) SiO2 
 PCOD9280611
Probable space group: C 2/C
;
_chemical_formula_sum "Si O2"
_cell_formula_units_Z 52
_cell_length_a 14.170382
_cell_length_b 19.815092
_cell_length_c 9.297271
_cell_angle_alpha 90.000000
_cell_angle_beta 98.436265
_cell_angle_gamma 90.000000
_cell_volume 2582.309686
_symmetry_space_group_name_H-M "C 2/C"
_symmetry_group_IT_number 15
_symmetry_cell_setting 'monoclinic'
loop_
_space_group_symop_operation_xyz
x,y,z
-x,y,1/2-z
-x,-y,-z
x,-y,1/2+z
1/2+x,1/2+y,z
1/2-x,1/2+y,1/2-z
1/2-x,1/2-y,-z
1/2+x,1/2-y,1/2+z
loop_
_atom_site_type_symbol
_atom_site_label
_atom_site_fract_x
_atom_site_fract_y
_atom_site_fract_z
Si Si1 0.716506 0.958865 0.813061
Si Si2 0.297010 0.669499 0.158567
Si Si3 0.458498 0.835966 0.499691
Si Si4 0.176502 0.193792 0.659910
Si Si5 0.500000 0.744551 0.750000
Si Si6 0.768377 0.412176 0.371480
Si Si7 0.000000 0.571047 0.250000
Si Si8 0.500000 0.261827 0.750000
O O1 0.754137 0.895792 0.727127
O O2 0.600796 0.963416 0.801411
O O3 0.742972 0.028860 0.746385
O O4 0.755687 0.943851 0.980173
O O5 0.229802 0.734353 0.171109
O O6 0.403654 0.693298 0.230612
O O7 0.299760 0.659724 0.986871
O O8 0.430674 0.788503 0.630154
O O9 0.373931 0.879583 0.412546
O O10 0.522497 0.887320 0.607330
O O11 0.503103 0.789034 0.387634
O O12 0.064640 0.204375 0.654933
O O13 0.207657 0.150204 0.802579
#
# Coordination Sequence:
#
# PCOD9280611 Si02
#       8
#     8   8   8   8   4   8   4   4
#     4  11  25  42  63  95 135 176 222 263 331 394
#     4  11  24  40  63  96 135 166 219 271 330 386
#     4  10  21  37  61  95 126 164 217 265 324 384
#     4  11  23  40  65  94 129 172 213 280 323 389
#     4  11  22  40  63  95 132 161 220 272 341 378
#     4  11  24  41  65  92 132 179 219 268 322 389
#     4   9  22  41  60  90 131 173 204 274 323 393
#     4  12  22  37  63 101 125 176 206 280 312 391
#
# _framework density 20.137013
#
# number of rings (size 3 to 8) (size 9 to 14) (size 15 to 20)
#    0.000    1.231    3.077    3.692    4.308    5.538 
#    0.000    0.769    0.000    3.692    0.000    0.000 
#    0.000    0.000    0.000    0.000    0.000    0.000 
#
# Total GULP energy -144958.045357 kJ/mol
# GULP energy per Si atom -5575.309437 kJ/mol
# Density = 2.009118 g / cm^3
# Si number density = 20.137013 Si / 1000 Ang^3
#
#
#
# Elastic Constant Matrix: (Units=GPa)
#
#
# Indices 1 2 3 4 5 6 
#
# 1 62.9816 13.7645 12.8275 0.0000 -6.0703 0.0000
# 2 13.7645 73.1140 29.0478 0.0000 -4.5208 0.0000
# 3 12.8275 29.0478 98.5790 0.0000 -5.1983 0.0000
# 4 0.0000 0.0000 0.0000 19.4648 0.0000 -11.2850
# 5 -6.0703 -4.5208 -5.1983 0.0000 29.1532 0.0000
# 6 0.0000 0.0000 0.0000 -11.2850 0.0000 -18.3718
#
#
#
# Elastic Compliance Matrix: (Units=1/GPa)
#
#
# Indices 1 2 3 4 5 6 
#
# 1 0.016972 -0.002490 -0.001321 0.000000 0.002912 0.000000
# 2 -0.002490 0.015931 -0.004308 0.000000 0.001184 0.000000
# 3 -0.001321 -0.004308 0.011645 0.000000 0.001133 0.000000
# 4 0.000000 0.000000 0.000000 0.037883 0.000000 -0.023270
# 5 0.002912 0.001184 0.001133 0.000000 0.035294 0.000000
# 6 0.000000 0.000000 0.000000 -0.023270 0.000000 -0.040137
#
#
# Mechanical properties :
#
#
# Convention : Reuss Voigt Hill
#
# Bulk Modulus (GPa) = 35.32388 38.43933 36.88160
# Shear Modulus (GPa) = 48.42070 17.98492 33.20281
#
# Velocity S-wave (km/s) = 4.90895 2.99177 4.06500
# Velocity P-wave (km/s) = 7.05055 5.57356 6.35511
#
# Compressibility (1/GPa) = 0.02830946
#
# Stress axis : x y z
#
# Youngs Moduli (GPa) = 58.92196 62.77182 85.87256
#
# Poissons Ratio (x) = 0.15631 0.11344
# Poissons Ratio (y) = 0.14672 0.36992
# Poissons Ratio (z) = 0.07784 0.27041
#
# Static dielectric constant tensor:
#      x y z
#    x 1.729050 0.000000 0.035550 
#    y 0.000000 1.726610 0.000000 
#    z 0.035550 0.000000 1.776460 
# 
# From -- ./inp_files/40863.got.cif
#   From: 2010.05.17/outbox.cif.g08.bks.cpg/sg15_21_cif.got.tgz:40863.got - 2010.06.03 18:47:42.
