data_PCOD9280360
_publ_section_title
;
Structure prediction by ZEFSAII (Michael W. Deem and Ramdas Pophale) SiO2 
 PCOD9280360
Probable space group: C 2/C
;
_chemical_formula_sum "Si O2"
_cell_formula_units_Z 40
_cell_length_a 11.533963
_cell_length_b 6.626080
_cell_length_c 22.304004
_cell_angle_alpha 90.000000
_cell_angle_beta 79.452678
_cell_angle_gamma 90.000000
_cell_volume 1675.782121
_symmetry_space_group_name_H-M "C 2/C"
_symmetry_group_IT_number 15
_symmetry_cell_setting 'monoclinic'
loop_
_space_group_symop_operation_xyz
x,y,z
-x,y,1/2-z
-x,-y,-z
x,-y,1/2+z
1/2+x,1/2+y,z
1/2-x,1/2+y,1/2-z
1/2-x,1/2-y,-z
1/2+x,1/2-y,1/2+z
loop_
_atom_site_type_symbol
_atom_site_label
_atom_site_fract_x
_atom_site_fract_y
_atom_site_fract_z
Si Si1 0.230029 0.142385 0.088656
Si Si2 0.950279 0.726817 0.996209
Si Si3 0.910591 0.503948 0.204500
Si Si4 0.718022 0.626408 0.810190
Si Si5 0.151008 0.245450 0.398929
O O1 0.137043 0.225075 0.050587
O O2 0.203218 0.221712 0.157139
O O3 0.249867 0.901309 0.086500
O O4 0.358555 0.237228 0.059752
O O5 0.071219 0.833082 0.962166
O O6 0.000000 0.500000 0.000000
O O7 0.785277 0.435062 0.244080
O O8 0.898056 0.742694 0.193017
O O9 0.924985 0.382854 0.141098
O O10 0.000000 0.466646 0.250000
O O11 0.699537 0.432106 0.853337
#
# Coordination Sequence:
#
# PCOD9280360 Si02
#       5
#     8   8   8   8   8
#     4   9  20  37  60  84 120 155 198 249 295 362
#     4   9  18  38  60  86 118 158 196 247 303 351
#     4  11  23  39  59  85 120 159 202 251 303 360
#     4  11  22  39  58  88 119 156 208 247 300 364
#     4  10  21  37  59  84 119 156 197 250 299 355
#
# _framework density 23.869451999999999
#
# number of rings (size 3 to 8) (size 9 to 14) (size 15 to 20)
#    0.000    2.000    2.000    1.200    0.000    3.200 
#    0.000    9.000    0.000    0.000    0.000    0.000 
#    0.000    0.000    0.000    0.000    0.000    0.000 
#
# Total GULP energy -111503.559659 kJ/mol
# GULP energy per Si atom -5575.177983 kJ/mol
# Density = 2.381512 g / cm^3
# Si number density = 23.869452 Si / 1000 Ang^3
#
#
#
# Elastic Constant Matrix: (Units=GPa)
#
#
# Indices 1 2 3 4 5 6 
#
# 1 57.0065 32.2285 15.8079 0.0000 12.3352 0.0000
# 2 32.2285 90.9978 22.5795 0.0000 -7.9698 0.0000
# 3 15.8079 22.5795 104.7075 0.0000 0.1513 0.0000
# 4 0.0000 0.0000 0.0000 51.6079 0.0000 -0.8680
# 5 12.3352 -7.9698 0.1513 0.0000 48.0657 0.0000
# 6 0.0000 0.0000 0.0000 -0.8680 0.0000 18.0646
#
#
#
# Elastic Compliance Matrix: (Units=1/GPa)
#
#
# Indices 1 2 3 4 5 6 
#
# 1 0.024858 -0.009049 -0.001790 0.000000 -0.007874 0.000000
# 2 -0.009049 0.015087 -0.001894 0.000000 0.004830 0.000000
# 3 -0.001790 -0.001894 0.010229 0.000000 0.000113 0.000000
# 4 0.000000 0.000000 0.000000 0.019393 0.000000 0.000932
# 5 -0.007874 0.004830 0.000113 0.000000 0.023626 0.000000
# 6 0.000000 0.000000 0.000000 0.000932 0.000000 0.055402
#
#
# Mechanical properties :
#
#
# Convention : Reuss Voigt Hill
#
# Bulk Modulus (GPa) = 40.47436 43.77152 42.12294
# Shear Modulus (GPa) = 27.42760 35.68736 31.55748
#
# Velocity S-wave (km/s) = 3.39347 3.87085 3.64000
# Velocity P-wave (km/s) = 5.68749 6.19320 5.94572
#
# Compressibility (1/GPa) = 0.02470700
#
# Stress axis : x y z
#
# Youngs Moduli (GPa) = 40.22815 66.28057 97.76146
#
# Poissons Ratio (x) = 0.59980 0.17500
# Poissons Ratio (y) = 0.36404 0.18519
# Poissons Ratio (z) = 0.07201 0.12555
#
# Static dielectric constant tensor:
#      x y z
#    x 1.935140 0.000000 -0.037880 
#    y 0.000000 1.962880 0.000000 
#    z -0.037880 0.000000 1.877140 
# 
# From -- ./inp_files/290510.got.cif
#   From: 2010.05.17/outbox.cif.g08.bks.cpg/sg15_146_cif.got.tgz:290510.got - 2010.06.03 18:47:42.
