data_PCOD9280911
_publ_section_title
;
Structure prediction by ZEFSAII (Michael W. Deem and Ramdas Pophale) SiO2 
 PCOD9280911
Probable space group: C 2/C
;
_chemical_formula_sum "Si O2"
_cell_formula_units_Z 60
_cell_length_a 6.379632
_cell_length_b 30.155213
_cell_length_c 16.998117
_cell_angle_alpha 90.000000
_cell_angle_beta 104.358196
_cell_angle_gamma 90.000000
_cell_volume 3167.940323
_symmetry_space_group_name_H-M "C 2/C"
_symmetry_group_IT_number 15
_symmetry_cell_setting 'monoclinic'
loop_
_space_group_symop_operation_xyz
x,y,z
-x,y,1/2-z
-x,-y,-z
x,-y,1/2+z
1/2+x,1/2+y,z
1/2-x,1/2+y,1/2-z
1/2-x,1/2-y,-z
1/2+x,1/2-y,1/2+z
loop_
_atom_site_type_symbol
_atom_site_label
_atom_site_fract_x
_atom_site_fract_y
_atom_site_fract_z
Si Si1 0.000000 0.052823 0.250000
Si Si2 0.771368 0.979813 0.881887
Si Si3 0.473484 0.659499 0.952605
Si Si4 0.855045 0.771642 0.162085
Si Si5 0.610898 0.087100 0.114675
Si Si6 0.081037 0.286546 0.451711
Si Si7 0.137590 0.678443 0.411042
Si Si8 0.355478 0.566282 0.978895
O O1 0.134417 0.024871 0.197574
O O2 0.173508 0.082243 0.313353
O O3 0.551697 0.952343 0.875298
O O4 0.753323 0.029936 0.911446
O O5 0.952229 0.956725 0.953905
O O6 0.567369 0.692818 0.896241
O O7 0.226776 0.673567 0.936762
O O8 0.465483 0.606849 0.942083
O O9 0.611380 0.668205 0.045427
O O10 0.593111 0.773614 0.130883
O O11 0.897934 0.719719 0.149153
O O12 0.000000 0.783541 0.250000
O O13 0.487949 0.133296 0.118602
O O14 0.685313 0.082366 0.030252
O O15 0.250000 0.250000 0.500000
O O16 0.952814 0.302225 0.515860
#
# Coordination Sequence:
#
# PCOD9280911 Si02
#       8
#     4   8   8   8   8   8   8   8
#     4  10  24  40  58  90 132 164 190 242 330 370
#     4  10  21  40  61  90 123 155 198 256 303 374
#     4  11  20  40  64  88 118 157 208 260 301 364
#     4  11  25  39  56  92 127 162 201 256 317 370
#     4  11  21  38  63  92 125 158 202 261 308 364
#     4  11  19  39  65  82 115 161 206 248 298 365
#     4  11  21  37  63  91 119 159 205 253 308 369
#     4  10  21  37  66  92 110 156 215 252 304 365
#
# _framework density 18.939751000000001
#
# number of rings (size 3 to 8) (size 9 to 14) (size 15 to 20)
#    0.000    1.333    5.333    1.600    0.000    1.600 
#    3.600    0.000    2.933    0.000    0.000    0.000 
#    0.000    0.000    0.000    0.000    0.000    0.000 
#
# Total GULP energy -167150.297231 kJ/mol
# GULP energy per Si atom -5571.676574 kJ/mol
# Density = 1.889664 g / cm^3
# Si number density = 18.939751 Si / 1000 Ang^3
#
#
#
# Elastic Constant Matrix: (Units=GPa)
#
#
# Indices 1 2 3 4 5 6 
#
# 1 73.3192 18.3775 32.1385 0.0000 15.0728 0.0000
# 2 18.3775 119.0462 40.7385 0.0000 -0.6571 0.0000
# 3 32.1385 40.7385 96.7943 0.0000 15.8021 0.0000
# 4 0.0000 0.0000 0.0000 5.5708 0.0000 8.6581
# 5 15.0728 -0.6571 15.8021 0.0000 17.6881 0.0000
# 6 0.0000 0.0000 0.0000 8.6581 0.0000 24.5000
#
#
#
# Elastic Compliance Matrix: (Units=1/GPa)
#
#
# Indices 1 2 3 4 5 6 
#
# 1 0.018077 -0.001765 -0.003200 0.000000 -0.012610 0.000000
# 2 -0.001765 0.010338 -0.004769 0.000000 0.006149 0.000000
# 3 -0.003200 -0.004769 0.015202 0.000000 -0.011031 0.000000
# 4 0.000000 0.000000 0.000000 0.398231 0.000000 -0.140732
# 5 -0.012610 0.006149 -0.011031 0.000000 0.077364 0.000000
# 6 0.000000 0.000000 0.000000 -0.140732 0.000000 0.090550
#
#
# Mechanical properties :
#
#
# Convention : Reuss Voigt Hill
#
# Bulk Modulus (GPa) = 41.41104 52.40763 46.90934
# Shear Modulus (GPa) = 7.84585 22.74547 15.29566
#
# Velocity S-wave (km/s) = 2.03753 3.46922 2.84491
# Velocity P-wave (km/s) = 5.23903 6.61650 5.96764
#
# Compressibility (1/GPa) = 0.02414815
#
# Stress axis : x y z
#
# Youngs Moduli (GPa) = 55.32004 96.72593 65.78154
#
# Poissons Ratio (x) = 0.17071 0.21053
# Poissons Ratio (y) = 0.09764 0.31371
# Poissons Ratio (z) = 0.17705 0.46129
#
# Static dielectric constant tensor:
#      x y z
#    x 1.705920 0.000000 0.011740 
#    y 0.000000 1.701210 0.000000 
#    z 0.011740 0.000000 1.693510 
# 
# From -- ./inp_files/186753.got.cif
#   From: 2010.05.17/outbox.cif.g08.bks.cpg/sg15_94_cif.got.tgz:186753.got - 2010.06.03 18:47:42.
