data_PCOD9280791
_publ_section_title
;
Structure prediction by ZEFSAII (Michael W. Deem and Ramdas Pophale) SiO2 
 PCOD9280791
Probable space group: C 2/C
;
_chemical_formula_sum "Si O2"
_cell_formula_units_Z 48
_cell_length_a 15.902220
_cell_length_b 12.378498
_cell_length_c 11.046497
_cell_angle_alpha 90.000000
_cell_angle_beta 105.672494
_cell_angle_gamma 90.000000
_cell_volume 2093.611456
_symmetry_space_group_name_H-M "C 2/C"
_symmetry_group_IT_number 15
_symmetry_cell_setting 'monoclinic'
loop_
_space_group_symop_operation_xyz
x,y,z
-x,y,1/2-z
-x,-y,-z
x,-y,1/2+z
1/2+x,1/2+y,z
1/2-x,1/2+y,1/2-z
1/2-x,1/2-y,-z
1/2+x,1/2-y,1/2+z
loop_
_atom_site_type_symbol
_atom_site_label
_atom_site_fract_x
_atom_site_fract_y
_atom_site_fract_z
Si Si1 0.869285 0.640776 0.732491
Si Si2 0.557868 0.656686 0.381450
Si Si3 0.043002 0.710590 0.492433
Si Si4 0.374555 0.083386 0.357038
Si Si5 0.761865 0.050981 0.981239
Si Si6 0.801082 0.323192 0.614279
O O1 0.917590 0.722066 0.658897
O O2 0.889269 0.690093 0.870868
O O3 0.893651 0.514965 0.769587
O O4 0.774239 0.630723 0.636740
O O5 0.500000 0.608993 0.250000
O O6 0.503823 0.678687 0.483431
O O7 0.645136 0.589960 0.437024
O O8 0.100325 0.693870 0.396717
O O9 0.964628 0.625092 0.447031
O O10 0.310064 0.046935 0.439101
O O11 0.321174 0.176459 0.264892
O O12 0.754862 0.932994 0.922239
O O13 0.750000 0.250000 0.500000
#
# Coordination Sequence:
#
# PCOD9280791 Si02
#       6
#     8   8   8   8   8   8
#     4  10  21  37  63  97 128 163 211 277 328 382
#     4  10  23  39  68  95 129 165 221 281 323 393
#     4  11  22  40  64  98 131 166 218 276 333 392
#     4  11  23  38  67  96 132 169 217 271 333 405
#     4  11  23  42  65  99 124 174 224 270 337 397
#     4  11  27  44  63  91 135 180 221 271 338 398
#
# _framework density 22.926891000000001
#
# number of rings (size 3 to 8) (size 9 to 14) (size 15 to 20)
#    0.000    1.333    3.333    1.500    4.667    2.667 
#    0.000    2.500    0.000    0.000    0.000    0.000 
#    0.000    0.000    0.000    0.000    0.000    0.000 
#
# Total GULP energy -133680.319029 kJ/mol
# GULP energy per Si atom -5570.013293 kJ/mol
# Density = 2.287471 g / cm^3
# Si number density = 22.926891 Si / 1000 Ang^3
#
#
#
# Elastic Constant Matrix: (Units=GPa)
#
#
# Indices 1 2 3 4 5 6 
#
# 1 64.5483 20.0533 8.9098 0.0000 25.2735 0.0000
# 2 20.0533 28.5684 6.6644 0.0000 4.8505 0.0000
# 3 8.9098 6.6644 90.9915 0.0000 24.4055 0.0000
# 4 0.0000 0.0000 0.0000 27.2663 0.0000 4.7894
# 5 25.2735 4.8505 24.4055 0.0000 42.8516 0.0000
# 6 0.0000 0.0000 0.0000 4.7894 0.0000 2.5652
#
#
#
# Elastic Compliance Matrix: (Units=1/GPa)
#
#
# Indices 1 2 3 4 5 6 
#
# 1 0.026122 -0.016403 0.002689 0.000000 -0.015081 0.000000
# 2 -0.016403 0.046243 -0.003507 0.000000 0.006437 0.000000
# 3 0.002689 -0.003507 0.013340 0.000000 -0.008786 0.000000
# 4 0.000000 0.000000 0.000000 0.054573 0.000000 -0.101892
# 5 -0.015081 0.006437 -0.008786 0.000000 0.036507 0.000000
# 6 0.000000 0.000000 0.000000 -0.101892 0.000000 0.580082
#
#
# Mechanical properties :
#
#
# Convention : Reuss Voigt Hill
#
# Bulk Modulus (GPa) = 19.50769 28.37371 23.94070
# Shear Modulus (GPa) = 6.18509 24.43532 15.31020
#
# Velocity S-wave (km/s) = 1.64426 3.26819 2.58695
# Velocity P-wave (km/s) = 3.48309 5.16178 4.40318
#
# Compressibility (1/GPa) = 0.05126182
#
# Stress axis : x y z
#
# Youngs Moduli (GPa) = 38.28217 21.62512 74.96054
#
# Poissons Ratio (x) = 0.35471 -0.20153
# Poissons Ratio (y) = 0.62793 0.26291
# Poissons Ratio (z) = -0.10292 0.07585
#
# Static dielectric constant tensor:
#      x y z
#    x 1.949090 0.000000 -0.020820 
#    y 0.000000 1.927100 0.000000 
#    z -0.020820 0.000000 1.853860 
# 
# From -- ./inp_files/97180.got.cif
#   From: 2010.05.17/outbox.cif.g08.bks.cpg/sg15_49_cif.got.tgz:97180.got - 2010.06.03 18:47:42.
