data_PCOD9280993
_publ_section_title
;
Structure prediction by ZEFSAII (Michael W. Deem and Ramdas Pophale) SiO2 
 PCOD9280993
Probable space group: C 2/C
;
_chemical_formula_sum "Si O2"
_cell_formula_units_Z 56
_cell_length_a 12.908761
_cell_length_b 24.179218
_cell_length_c 18.803309
_cell_angle_alpha 90.000000
_cell_angle_beta 147.106136
_cell_angle_gamma 90.000000
_cell_volume 3187.340970
_symmetry_space_group_name_H-M "C 2/C"
_symmetry_group_IT_number 15
_symmetry_cell_setting 'monoclinic'
loop_
_space_group_symop_operation_xyz
x,y,z
-x,y,1/2-z
-x,-y,-z
x,-y,1/2+z
1/2+x,1/2+y,z
1/2-x,1/2+y,1/2-z
1/2-x,1/2-y,-z
1/2+x,1/2-y,1/2+z
loop_
_atom_site_type_symbol
_atom_site_label
_atom_site_fract_x
_atom_site_fract_y
_atom_site_fract_z
Si Si1 0.015266 0.686866 0.844282
Si Si2 0.940265 0.031456 0.599977
Si Si3 0.798344 0.526521 0.170138
Si Si4 0.816793 0.577508 0.766249
Si Si5 0.653118 0.578254 0.223680
Si Si6 0.659212 0.022164 0.038300
Si Si7 0.456341 0.312954 0.640694
O O1 0.986834 0.750905 0.849756
O O2 0.000000 0.684157 0.750000
O O3 0.861305 0.641975 0.782435
O O4 0.233335 0.675834 0.995154
O O5 0.844299 0.049991 0.471283
O O6 0.144416 0.062877 0.722204
O O7 0.791027 0.025372 0.578912
O O8 0.986873 0.966488 0.617305
O O9 0.758079 0.462145 0.166509
O O10 0.794353 0.559998 0.241948
O O11 0.000000 0.529403 0.250000
O O12 0.026664 0.553196 0.905401
O O13 0.724325 0.564331 0.344469
O O14 0.581244 0.639889 0.176176
O O15 0.500000 0.000000 0.000000
O O16 0.500000 0.316136 0.750000
#
# Coordination Sequence:
#
# PCOD9280993 Si02
#       7
#     8   8   8   8   8   8   8
#     4  10  22  35  56  82 112 147 188 232 284 330
#     4  11  22  33  52  81 113 140 185 221 280 338
#     4  11  21  35  50  81 112 144 180 224 276 337
#     4  11  21  33  55  78 112 146 179 223 278 334
#     4  11  21  33  56  77 108 147 178 226 275 332
#     4  12  21  36  52  81 112 147 181 221 282 339
#     4  10  21  38  54  81 114 146 187 233 281 336
#
# _framework density 17.569503999999998
#
# number of rings (size 3 to 8) (size 9 to 14) (size 15 to 20)
#    0.000    1.143    4.286    5.143    4.000    0.000 
#    0.000    0.000    0.000    0.000    3.714    2.000 
#    0.000    0.000    0.000    0.000    0.000    0.000 
#
# Total GULP energy -155896.141700 kJ/mol
# GULP energy per Si atom -5567.719346 kJ/mol
# Density = 1.752951 g / cm^3
# Si number density = 17.569504 Si / 1000 Ang^3
#
#
#
# Elastic Constant Matrix: (Units=GPa)
#
#
# Indices 1 2 3 4 5 6 
#
# 1 105.5742 46.8020 30.7561 0.0012 15.0203 0.0002
# 2 46.8020 119.8900 19.4875 0.0017 15.4623 0.0005
# 3 30.7561 19.4875 94.3233 0.0054 -1.2669 0.0027
# 4 0.0012 0.0017 0.0054 17.9823 0.0019 8.5216
# 5 15.0203 15.4623 -1.2669 0.0019 27.8549 0.0006
# 6 0.0002 0.0005 0.0027 8.5216 0.0006 17.2856
#
#
#
# Elastic Compliance Matrix: (Units=1/GPa)
#
#
# Indices 1 2 3 4 5 6 
#
# 1 0.012890 -0.003823 -0.003480 0.000001 -0.004987 0.000000
# 2 -0.003823 0.010481 -0.000970 0.000000 -0.003801 0.000000
# 3 -0.003480 -0.000970 0.011977 -0.000003 0.002960 0.000000
# 4 0.000001 0.000000 -0.000003 0.072562 -0.000005 -0.035772
# 5 -0.004987 -0.003801 0.002960 -0.000005 0.040834 0.000001
# 6 0.000000 0.000000 0.000000 -0.035772 0.000001 0.075487
#
#
# Mechanical properties :
#
#
# Convention : Reuss Voigt Hill
#
# Bulk Modulus (GPa) = 53.18669 57.09764 55.14217
# Shear Modulus (GPa) = 20.23924 27.47405 23.85664
#
# Velocity S-wave (km/s) = 3.39772 3.95870 3.68889
# Velocity P-wave (km/s) = 6.76244 7.31189 7.04253
#
# Compressibility (1/GPa) = 0.01880170
#
# Stress axis : x y z
#
# Youngs Moduli (GPa) = 77.57819 95.40832 83.49498
#
# Poissons Ratio (x) = 0.36476 0.29058
# Poissons Ratio (y) = 0.29659 0.08098
# Poissons Ratio (z) = 0.26999 0.09254
#
# Static dielectric constant tensor:
#      x y z
#    x 1.675510 0.000000 -0.024550 
#    y 0.000000 1.601390 0.000000 
#    z -0.024550 0.000000 1.700890 
# 
# From -- ./inp_files/200805.got.cif
#   From: 2010.05.17/outbox.cif.g08.bks.cpg/sg15_101_cif.got.tgz:200805.got - 2010.06.03 18:47:42.
