data_PCOD9280965
_publ_section_title
;
Structure prediction by ZEFSAII (Michael W. Deem and Ramdas Pophale) SiO2 
 PCOD9280965
Probable space group: C 2/C
;
_chemical_formula_sum "Si O2"
_cell_formula_units_Z 44
_cell_length_a 21.424749
_cell_length_b 13.433887
_cell_length_c 15.597758
_cell_angle_alpha 90.000000
_cell_angle_beta 155.261767
_cell_angle_gamma 90.000000
_cell_volume 1878.656083
_symmetry_space_group_name_H-M "C 2/C"
_symmetry_group_IT_number 15
_symmetry_cell_setting 'monoclinic'
loop_
_space_group_symop_operation_xyz
x,y,z
-x,y,1/2-z
-x,-y,-z
x,-y,1/2+z
1/2+x,1/2+y,z
1/2-x,1/2+y,1/2-z
1/2-x,1/2-y,-z
1/2+x,1/2-y,1/2+z
loop_
_atom_site_type_symbol
_atom_site_label
_atom_site_fract_x
_atom_site_fract_y
_atom_site_fract_z
Si Si1 0.500000 0.506730 0.750000
Si Si2 0.422470 0.170097 0.741571
Si Si3 0.625874 0.621998 0.272936
Si Si4 0.746766 0.368692 0.623419
Si Si5 0.957007 0.690701 0.096158
Si Si6 0.170368 0.481613 0.609831
O O1 0.500177 0.439545 0.835217
O O2 0.355267 0.576715 0.574044
O O3 0.500000 0.207400 0.750000
O O4 0.419526 0.263910 0.801663
O O5 0.258758 0.135342 0.509399
O O6 0.522498 0.079319 0.897185
O O7 0.696640 0.562637 0.282734
O O8 0.638114 0.290190 0.533608
O O9 0.801346 0.451474 0.757747
O O10 0.887612 0.312698 0.760216
O O11 0.000000 0.680339 0.250000
O O12 0.859836 0.596292 0.945553
#
# Coordination Sequence:
#
# PCOD9280965 Si02
#       6
#     4   8   8   8   8   8
#     4  12  24  44  66 100 140 188 242 288 352 418
#     4   9  18  39  61  99 135 178 224 280 355 413
#     4  10  21  37  69  99 136 182 228 291 346 424
#     4  12  29  45  73 104 139 186 241 295 348 423
#     4  12  26  52  75 100 143 193 235 284 358 428
#     4  11  25  43  71 101 140 182 231 295 351 410
#
# _framework density 23.420998000000001
#
# number of rings (size 3 to 8) (size 9 to 14) (size 15 to 20)
#    0.000    1.091    1.818    4.909    5.091    2.182 
#    0.000    0.000    0.000    0.000    0.000    0.000 
#    0.000    0.000    0.000    0.000    0.000    0.000 
#
# Total GULP energy -123216.814279 kJ/mol
# GULP energy per Si atom -5600.764285 kJ/mol
# Density = 2.336769 g / cm^3
# Si number density = 23.420998 Si / 1000 Ang^3
#
#
#
# Elastic Constant Matrix: (Units=GPa)
#
#
# Indices 1 2 3 4 5 6 
#
# 1 58.6604 -13.0991 19.1843 0.0000 16.8909 0.0000
# 2 -13.0991 82.0890 4.5234 0.0000 2.7500 0.0000
# 3 19.1843 4.5234 34.3664 0.0000 4.8421 0.0000
# 4 0.0000 0.0000 0.0000 26.6763 0.0000 11.7164
# 5 16.8909 2.7500 4.8421 0.0000 36.2262 0.0000
# 6 0.0000 0.0000 0.0000 11.7164 0.0000 32.8807
#
#
#
# Elastic Compliance Matrix: (Units=1/GPa)
#
#
# Indices 1 2 3 4 5 6 
#
# 1 0.025670 0.005195 -0.013527 0.000000 -0.010556 0.000000
# 2 0.005195 0.013341 -0.004252 0.000000 -0.002867 0.000000
# 3 -0.013527 -0.004252 0.036971 0.000000 0.001688 0.000000
# 4 0.000000 0.000000 0.000000 0.044442 0.000000 -0.015836
# 5 -0.010556 -0.002867 0.001688 0.000000 0.032518 0.000000
# 6 0.000000 0.000000 0.000000 -0.015836 0.000000 0.036056
#
#
# Mechanical properties :
#
#
# Convention : Reuss Voigt Hill
#
# Bulk Modulus (GPa) = 19.67896 21.81476 20.74686
# Shear Modulus (GPa) = 21.63531 30.12379 25.87955
#
# Velocity S-wave (km/s) = 3.04263 3.59024 3.32772
# Velocity P-wave (km/s) = 4.55675 5.14984 4.86235
#
# Compressibility (1/GPa) = 0.05081569
#
# Stress axis : x y z
#
# Youngs Moduli (GPa) = 38.95524 74.95533 27.04826
#
# Poissons Ratio (x) = -0.38941 0.36587
# Poissons Ratio (y) = -0.20238 0.11502
# Poissons Ratio (z) = 0.52693 0.31873
#
# Static dielectric constant tensor:
#      x y z
#    x 1.870030 0.000000 0.011210 
#    y 0.000000 1.866480 0.000000 
#    z 0.011210 0.000000 1.903810 
# 
# From -- ./inp_files/219763.got.cif
#   From: 2010.05.17/outbox.cif.g08.bks.cpg/sg15_110_cif.got.tgz:219763.got - 2010.06.03 18:47:42.
