data_PCOD9280743
_publ_section_title
;
Structure prediction by ZEFSAII (Michael W. Deem and Ramdas Pophale) SiO2 
 PCOD9280743
Probable space group: C 2/C
;
_chemical_formula_sum "Si O2"
_cell_formula_units_Z 48
_cell_length_a 12.018677
_cell_length_b 14.125083
_cell_length_c 19.599963
_cell_angle_alpha 90.000000
_cell_angle_beta 140.341661
_cell_angle_gamma 90.000000
_cell_volume 2123.563758
_symmetry_space_group_name_H-M "C 2/C"
_symmetry_group_IT_number 15
_symmetry_cell_setting 'monoclinic'
loop_
_space_group_symop_operation_xyz
x,y,z
-x,y,1/2-z
-x,-y,-z
x,-y,1/2+z
1/2+x,1/2+y,z
1/2-x,1/2+y,1/2-z
1/2-x,1/2-y,-z
1/2+x,1/2-y,1/2+z
loop_
_atom_site_type_symbol
_atom_site_label
_atom_site_fract_x
_atom_site_fract_y
_atom_site_fract_z
Si Si1 0.302215 0.323135 0.638536
Si Si2 0.973058 0.153080 0.834138
Si Si3 0.210871 0.017724 0.480760
Si Si4 0.431541 0.356363 0.473722
Si Si5 0.763248 0.730708 0.890593
Si Si6 0.483293 0.924234 0.930857
O O1 0.500000 0.301194 0.750000
O O2 0.288803 0.392203 0.567915
O O3 0.197140 0.229620 0.568189
O O4 0.211416 0.381949 0.658722
O O5 0.915521 0.144732 0.884419
O O6 0.812129 0.170993 0.708390
O O7 0.104972 0.236282 0.870253
O O8 0.090311 0.058749 0.883974
O O9 0.128960 0.051922 0.513185
O O10 0.405412 0.972672 0.576920
O O11 0.633189 0.324815 0.581738
O O12 0.907821 0.666834 0.994545
O O13 0.500000 0.000000 0.000000
#
# Coordination Sequence:
#
# PCOD9280743 Si02
#       6
#     8   8   8   8   8   8
#     4  10  22  37  60  91 119 162 214 251 310 385
#     4  10  21  38  63  90 122 169 217 251 307 379
#     4  10  21  37  63  89 124 162 208 258 318 366
#     4  11  22  39  60  93 132 161 199 274 324 356
#     4   9  20  37  60  89 122 168 216 251 299 382
#     4   8  17  35  58  83 116 153 200 258 299 357
#
# _framework density 22.603513
#
# number of rings (size 3 to 8) (size 9 to 14) (size 15 to 20)
#    0.000    2.333    0.000    1.500    9.333    0.000 
#    0.000    0.000    0.000    0.000    4.333    0.000 
#    0.000    0.000    0.000    0.000    0.000    0.000 
#
# Total GULP energy -133796.533310 kJ/mol
# GULP energy per Si atom -5574.855555 kJ/mol
# Density = 2.255207 g / cm^3
# Si number density = 22.603513 Si / 1000 Ang^3
#
#
#
# Elastic Constant Matrix: (Units=GPa)
#
#
# Indices 1 2 3 4 5 6 
#
# 1 144.3021 36.5490 49.5753 0.0000 0.4757 0.0000
# 2 36.5490 60.3515 13.3895 0.0000 2.9421 0.0000
# 3 49.5753 13.3895 63.1720 0.0000 -2.8024 0.0000
# 4 0.0000 0.0000 0.0000 14.0815 0.0000 7.4093
# 5 0.4757 2.9421 -2.8024 0.0000 31.5895 0.0000
# 6 0.0000 0.0000 0.0000 7.4093 0.0000 48.8701
#
#
#
# Elastic Compliance Matrix: (Units=1/GPa)
#
#
# Indices 1 2 3 4 5 6 
#
# 1 0.010687 -0.004816 -0.007382 0.000000 -0.000367 0.000000
# 2 -0.004816 0.019679 -0.000471 0.000000 -0.001802 0.000000
# 3 -0.007382 -0.000471 0.021816 0.000000 0.002090 0.000000
# 4 0.000000 0.000000 0.000000 0.077171 0.000000 -0.011700
# 5 -0.000367 -0.001802 0.002090 0.000000 0.032015 0.000000
# 6 0.000000 0.000000 0.000000 -0.011700 0.000000 0.022236
#
#
# Mechanical properties :
#
#
# Convention : Reuss Voigt Hill
#
# Bulk Modulus (GPa) = 37.25516 51.87258 44.56387
# Shear Modulus (GPa) = 22.94715 30.12901 26.53808
#
# Velocity S-wave (km/s) = 3.18968 3.65490 3.43019
# Velocity P-wave (km/s) = 5.48482 6.38825 5.95370
#
# Compressibility (1/GPa) = 0.02684192
#
# Stress axis : x y z
#
# Youngs Moduli (GPa) = 93.56897 50.81596 45.83815
#
# Poissons Ratio (x) = 0.24475 0.33840
# Poissons Ratio (y) = 0.45067 0.02159
# Poissons Ratio (z) = 0.69077 0.02394
#
# Static dielectric constant tensor:
#      x y z
#    x 1.965930 0.000000 0.025410 
#    y 0.000000 1.880320 0.000000 
#    z 0.025410 0.000000 1.840430 
# 
# From -- ./inp_files/239018.got.cif
#   From: 2010.05.17/outbox.cif.g08.bks.cpg/sg15_120_cif.got.tgz:239018.got - 2010.06.03 18:47:42.
