data_PCOD9280196
_publ_section_title
;
Structure prediction by ZEFSAII (Michael W. Deem and Ramdas Pophale) SiO2 
 PCOD9280196
Probable space group: C 2/C
;
_chemical_formula_sum "Si O2"
_cell_formula_units_Z 56
_cell_length_a 19.192051
_cell_length_b 15.955019
_cell_length_c 9.406234
_cell_angle_alpha 90.000000
_cell_angle_beta 96.481994
_cell_angle_gamma 90.000000
_cell_volume 2861.866051
_symmetry_space_group_name_H-M "C 2/C"
_symmetry_group_IT_number 15
_symmetry_cell_setting 'monoclinic'
loop_
_space_group_symop_operation_xyz
x,y,z
-x,y,1/2-z
-x,-y,-z
x,-y,1/2+z
1/2+x,1/2+y,z
1/2-x,1/2+y,1/2-z
1/2-x,1/2-y,-z
1/2+x,1/2-y,1/2+z
loop_
_atom_site_type_symbol
_atom_site_label
_atom_site_fract_x
_atom_site_fract_y
_atom_site_fract_z
Si Si1 0.213914 0.469577 0.882347
Si Si2 0.824666 0.296814 0.529134
Si Si3 0.927142 0.687814 0.316215
Si Si4 0.760951 0.885641 0.600090
Si Si5 0.927434 0.497720 0.814712
Si Si6 0.854251 0.258040 0.039920
Si Si7 0.072074 0.318023 0.180716
O O1 0.197741 0.394438 0.988632
O O2 0.252416 0.428708 0.753019
O O3 0.139217 0.500008 0.804279
O O4 0.250641 0.543699 0.977153
O O5 0.750000 0.250000 0.500000
O O6 0.865519 0.294689 0.688723
O O7 0.884944 0.269241 0.431392
O O8 0.919697 0.593737 0.382500
O O9 0.918987 0.748909 0.446608
O O10 0.000000 0.693672 0.250000
O O11 0.830881 0.832322 0.590090
O O12 0.704028 0.811140 0.560149
O O13 0.935270 0.588420 0.887408
O O14 0.000000 0.489992 0.750000
O O15 0.873038 0.314132 0.178440
O O16 0.000000 0.296374 0.250000
#
# Coordination Sequence:
#
# PCOD9280196 Si02
#       7
#     8   8   8   8   8   8   8
#     4  11  21  39  55  82 116 157 197 240 295 350
#     4  11  23  36  56  87 119 154 204 254 294 352
#     4  10  21  37  56  80 118 163 201 237 294 362
#     4  11  23  37  57  83 115 155 194 246 286 345
#     4   9  18  31  49  77 113 154 189 219 268 353
#     4  11  22  37  57  83 120 152 197 237 294 344
#     4  11  22  35  56  85 122 161 198 241 297 361
#
# _framework density 19.567653
#
# number of rings (size 3 to 8) (size 9 to 14) (size 15 to 20)
#    0.000    1.429    4.286    2.571    2.000    0.000 
#    0.000    6.429    0.000    0.000    0.000   17.000 
#    0.000    0.000    0.000    0.000    0.000    0.000 
#
# Total GULP energy -155882.512013 kJ/mol
# GULP energy per Si atom -5567.232572 kJ/mol
# Density = 1.952312 g / cm^3
# Si number density = 19.567653 Si / 1000 Ang^3
#
#
#
# Elastic Constant Matrix: (Units=GPa)
#
#
# Indices 1 2 3 4 5 6 
#
# 1 75.3644 45.0887 38.5784 0.0000 -14.6992 0.0000
# 2 45.0887 74.2039 26.9443 0.0000 -13.9400 0.0000
# 3 38.5784 26.9443 95.6596 0.0000 -24.9869 0.0000
# 4 0.0000 0.0000 0.0000 53.8097 0.0000 -23.8164
# 5 -14.6992 -13.9400 -24.9869 0.0000 33.4612 0.0000
# 6 0.0000 0.0000 0.0000 -23.8164 0.0000 39.0662
#
#
#
# Elastic Compliance Matrix: (Units=1/GPa)
#
#
# Indices 1 2 3 4 5 6 
#
# 1 0.023708 -0.012079 -0.005905 0.000000 0.000973 0.000000
# 2 -0.012079 0.021575 -0.000303 0.000000 0.003456 0.000000
# 3 -0.005905 -0.000303 0.015169 0.000000 0.008607 0.000000
# 4 0.000000 0.000000 0.000000 0.025452 0.000000 0.015516
# 5 0.000973 0.003456 0.008607 0.000000 0.038180 0.000000
# 6 0.000000 0.000000 0.000000 0.015516 0.000000 0.035057
#
#
# Mechanical properties :
#
#
# Convention : Reuss Voigt Hill
#
# Bulk Modulus (GPa) = 41.87883 51.82787 46.85335
# Shear Modulus (GPa) = 24.54932 34.24185 29.39558
#
# Velocity S-wave (km/s) = 3.54586 4.18774 3.88010
# Velocity P-wave (km/s) = 6.18164 7.06590 6.63851
#
# Compressibility (1/GPa) = 0.02387841
#
# Stress axis : x y z
#
# Youngs Moduli (GPa) = 42.18069 46.34986 65.92589
#
# Poissons Ratio (x) = 0.55984 0.38926
# Poissons Ratio (y) = 0.50948 0.01999
# Poissons Ratio (z) = 0.24906 0.01405
#
# Static dielectric constant tensor:
#      x y z
#    x 1.808010 0.000000 0.026220 
#    y 0.000000 1.713510 0.000000 
#    z 0.026220 0.000000 1.816050 
# 
# From -- ./inp_files/55606.got.cif
#   From: 2010.05.17/outbox.cif.g08.bks.cpg/sg15_28_cif.got.tgz:55606.got - 2010.06.03 18:47:42.
