data_PCOD9280649
_publ_section_title
;
Structure prediction by ZEFSAII (Michael W. Deem and Ramdas Pophale) SiO2 
 PCOD9280649
Probable space group: C 2/C
;
_chemical_formula_sum "Si O2"
_cell_formula_units_Z 32
_cell_length_a 10.802953
_cell_length_b 28.511372
_cell_length_c 5.153245
_cell_angle_alpha 90.000000
_cell_angle_beta 125.174196
_cell_angle_gamma 90.000000
_cell_volume 1297.413390
_symmetry_space_group_name_H-M "C 2/C"
_symmetry_group_IT_number 15
_symmetry_cell_setting 'monoclinic'
loop_
_space_group_symop_operation_xyz
x,y,z
-x,y,1/2-z
-x,-y,-z
x,-y,1/2+z
1/2+x,1/2+y,z
1/2-x,1/2+y,1/2-z
1/2-x,1/2-y,-z
1/2+x,1/2-y,1/2+z
loop_
_atom_site_type_symbol
_atom_site_label
_atom_site_fract_x
_atom_site_fract_y
_atom_site_fract_z
Si Si1 0.894084 0.722161 0.867348
Si Si2 0.605618 0.329596 0.634724
Si Si3 0.184778 0.526964 0.498070
Si Si4 0.818648 0.369214 0.521864
O O1 0.836357 0.775605 0.769858
O O2 0.000000 0.712108 0.750000
O O3 0.790154 0.677714 0.816506
O O4 0.000000 0.726274 0.250000
O O5 0.500000 0.341950 0.750000
O O6 0.747591 0.360733 0.719543
O O7 0.500000 0.332545 0.250000
O O8 0.235554 0.490724 0.778743
O O9 0.233739 0.579637 0.630065
O O10 0.000000 0.526652 0.250000
O O11 0.000000 0.371849 0.750000
#
# Coordination Sequence:
#
# PCOD9280649 Si02
#       4
#     8   8   8   8
#     4   9  19  34  54  83 115 147 185 228 274 329
#     4  10  22  39  57  82 120 155 182 224 284 339
#     4   9  19  34  53  80 111 140 178 234 287 324
#     4  10  21  37  62  87 111 147 195 235 274 333
#
# _framework density 24.664460999999999
#
# number of rings (size 3 to 8) (size 9 to 14) (size 15 to 20)
#    0.000    2.500    0.000    0.750    0.000   13.000 
#    0.000   15.000    0.000    4.500    0.000    0.000 
#    0.000    0.000    0.000    0.000    0.000    0.000 
#
# Total GULP energy -89466.299686 kJ/mol
# GULP energy per Si atom -5591.643730 kJ/mol
# Density = 2.460832 g / cm^3
# Si number density = 24.664461 Si / 1000 Ang^3
#
#
#
# Elastic Constant Matrix: (Units=GPa)
#
#
# Indices 1 2 3 4 5 6 
#
# 1 159.3095 33.0108 44.5199 0.0000 -33.2184 0.0000
# 2 33.0108 140.4158 19.5212 0.0000 -19.2888 0.0000
# 3 44.5199 19.5212 84.0259 0.0000 -35.5360 0.0000
# 4 0.0000 0.0000 0.0000 29.4969 0.0000 -6.9368
# 5 -33.2184 -19.2888 -35.5360 0.0000 46.8225 0.0000
# 6 0.0000 0.0000 0.0000 -6.9368 0.0000 10.3297
#
#
#
# Elastic Compliance Matrix: (Units=1/GPa)
#
#
# Indices 1 2 3 4 5 6 
#
# 1 0.007884 -0.001055 -0.002578 0.000000 0.003202 0.000000
# 2 -0.001055 0.007714 -0.000303 0.000000 0.002199 0.000000
# 3 -0.002578 -0.000303 0.018425 0.000000 0.012030 0.000000
# 4 0.000000 0.000000 0.000000 0.040260 0.000000 0.027036
# 5 0.003202 0.002199 0.012030 0.000000 0.033665 0.000000
# 6 0.000000 0.000000 0.000000 0.027036 0.000000 0.114964
#
#
# Mechanical properties :
#
#
# Convention : Reuss Voigt Hill
#
# Bulk Modulus (GPa) = 38.23939 64.20611 51.22275
# Shear Modulus (GPa) = 20.87672 36.44312 28.65992
#
# Velocity S-wave (km/s) = 2.91250 3.84807 3.41250
# Velocity P-wave (km/s) = 5.18148 6.76992 6.02825
#
# Compressibility (1/GPa) = 0.02615104
#
# Stress axis : x y z
#
# Youngs Moduli (GPa) = 126.84266 129.63430 54.27408
#
# Poissons Ratio (x) = 0.13679 0.13990
# Poissons Ratio (y) = 0.13384 0.01644
# Poissons Ratio (z) = 0.32697 0.03927
#
# Static dielectric constant tensor:
#      x y z
#    x 1.947720 0.000000 0.077980 
#    y 0.000000 1.935890 0.000000 
#    z 0.077980 0.000000 2.167910 
# 
# From -- ./inp_files/3965.got.cif
#   From: 2010.05.17/outbox.cif.g08.bks.cpg/sg15_2_cif.got.tgz:3965.got - 2010.06.03 18:47:42.
