data_PCOD9280954
_publ_section_title
;
Structure prediction by ZEFSAII (Michael W. Deem and Ramdas Pophale) SiO2 
 PCOD9280954
Probable space group: C 2/C
;
_chemical_formula_sum "Si O2"
_cell_formula_units_Z 52
_cell_length_a 8.137939
_cell_length_b 19.622813
_cell_length_c 14.235921
_cell_angle_alpha 90.000000
_cell_angle_beta 107.698464
_cell_angle_gamma 90.000000
_cell_volume 2165.726377
_symmetry_space_group_name_H-M "C 2/C"
_symmetry_group_IT_number 15
_symmetry_cell_setting 'monoclinic'
loop_
_space_group_symop_operation_xyz
x,y,z
-x,y,1/2-z
-x,-y,-z
x,-y,1/2+z
1/2+x,1/2+y,z
1/2-x,1/2+y,1/2-z
1/2-x,1/2-y,-z
1/2+x,1/2-y,1/2+z
loop_
_atom_site_type_symbol
_atom_site_label
_atom_site_fract_x
_atom_site_fract_y
_atom_site_fract_z
Si Si1 0.733250 0.176787 0.690456
Si Si2 0.568969 0.991636 0.908634
Si Si3 0.875898 0.349982 0.638711
Si Si4 0.497895 0.705782 0.112352
Si Si5 0.026735 0.779137 0.101101
Si Si6 0.500000 0.591861 0.250000
Si Si7 0.249760 0.475731 0.271397
O O1 0.546589 0.214791 0.647212
O O2 0.826193 0.212033 0.795995
O O3 0.856029 0.187504 0.620050
O O4 0.755917 0.096999 0.720170
O O5 0.659747 0.919467 0.919111
O O6 0.401334 0.988605 0.813966
O O7 0.695222 0.039642 0.869727
O O8 0.500000 0.000000 0.000000
O O9 0.694965 0.320527 0.639842
O O10 0.000000 0.355850 0.750000
O O11 0.971339 0.299112 0.585678
O O12 0.411724 0.648828 0.165494
O O13 0.424610 0.699483 0.994765
O O14 0.393249 0.535182 0.291392
#
# Coordination Sequence:
#
# PCOD9280954 Si02
#       7
#     8   8   8   8   8   4   8
#     4  10  21  41  63  98 137 171 219 283 336 403
#     4  11  25  42  67  93 126 181 225 267 328 412
#     4  11  17  41  66  90 124 170 226 265 323 401
#     4  11  23  39  67  97 129 176 223 276 334 401
#     4  10  21  37  68  95 129 176 221 269 339 406
#     4  12  24  44  68 100 138 176 222 290 340 408
#     4  11  25  44  66  97 140 176 219 279 349 397
#
# _framework density 24.010421000000001
#
# number of rings (size 3 to 8) (size 9 to 14) (size 15 to 20)
#    0.000    1.231    6.154    2.769    4.308    2.462 
#    0.000    3.077    0.000    0.000    0.000    0.000 
#    0.000    0.000    0.000    0.000    0.000    0.000 
#
# Total GULP energy -144822.521048 kJ/mol
# GULP energy per Si atom -5570.096963 kJ/mol
# Density = 2.395577 g / cm^3
# Si number density = 24.010421 Si / 1000 Ang^3
#
#
#
# Elastic Constant Matrix: (Units=GPa)
#
#
# Indices 1 2 3 4 5 6 
#
# 1 38.7826 4.6541 14.9832 0.0000 -19.2390 0.0000
# 2 4.6541 130.4958 18.2545 0.0000 -20.9541 0.0000
# 3 14.9832 18.2545 137.3113 0.0000 -33.2732 0.0000
# 4 0.0000 0.0000 0.0000 18.2030 0.0000 -4.2217
# 5 -19.2390 -20.9541 -33.2732 0.0000 40.2041 0.0000
# 6 0.0000 0.0000 0.0000 -4.2217 0.0000 13.8166
#
#
#
# Elastic Compliance Matrix: (Units=1/GPa)
#
#
# Indices 1 2 3 4 5 6 
#
# 1 0.034098 0.001530 0.000279 0.000000 0.017345 0.000000
# 2 0.001530 0.008432 -0.000057 0.000000 0.005080 0.000000
# 3 0.000279 -0.000057 0.009112 0.000000 0.007645 0.000000
# 4 0.000000 0.000000 0.000000 0.059126 0.000000 0.018066
# 5 0.017345 0.005080 0.007645 0.000000 0.042148 0.000000
# 6 0.000000 0.000000 0.000000 0.018066 0.000000 0.077897
#
#
# Mechanical properties :
#
#
# Convention : Reuss Voigt Hill
#
# Bulk Modulus (GPa) = 18.13351 42.48593 30.30972
# Shear Modulus (GPa) = 20.35074 32.35794 26.35434
#
# Velocity S-wave (km/s) = 2.91448 3.67503 3.31663
# Velocity P-wave (km/s) = 4.34676 5.97838 5.22663
#
# Compressibility (1/GPa) = 0.05514651
#
# Stress axis : x y z
#
# Youngs Moduli (GPa) = 29.32738 118.59357 109.73962
#
# Poissons Ratio (x) = -0.18146 -0.03061
# Poissons Ratio (y) = -0.04487 0.00626
# Poissons Ratio (z) = -0.00818 0.00676
#
# Static dielectric constant tensor:
#      x y z
#    x 2.015830 0.000000 -0.067780 
#    y 0.000000 2.054880 0.000000 
#    z -0.067780 0.000000 1.966970 
# 
# From -- ./inp_files/136119.got.cif
#   From: 2010.05.17/outbox.cif.g08.bks.cpg/sg15_69_cif.got.tgz:136119.got - 2010.06.03 18:47:42.
