data_PCOD9280771
_publ_section_title
;
Structure prediction by ZEFSAII (Michael W. Deem and Ramdas Pophale) SiO2 
 PCOD9280771
Probable space group: C 2/C
;
_chemical_formula_sum "Si O2"
_cell_formula_units_Z 36
_cell_length_a 22.254454
_cell_length_b 15.672539
_cell_length_c 7.639091
_cell_angle_alpha 90.000000
_cell_angle_beta 147.272196
_cell_angle_gamma 90.000000
_cell_volume 1440.499406
_symmetry_space_group_name_H-M "C 2/C"
_symmetry_group_IT_number 15
_symmetry_cell_setting 'monoclinic'
loop_
_space_group_symop_operation_xyz
x,y,z
-x,y,1/2-z
-x,-y,-z
x,-y,1/2+z
1/2+x,1/2+y,z
1/2-x,1/2+y,1/2-z
1/2-x,1/2-y,-z
1/2+x,1/2-y,1/2+z
loop_
_atom_site_type_symbol
_atom_site_label
_atom_site_fract_x
_atom_site_fract_y
_atom_site_fract_z
Si Si1 0.498407 0.720988 0.551531
Si Si2 0.377264 0.397724 0.357993
Si Si3 0.109515 0.384301 0.310987
Si Si4 0.681520 0.580616 0.416037
Si Si5 0.500000 0.989875 0.750000
O O1 0.500000 0.758698 0.750000
O O2 0.609480 0.685734 0.731126
O O3 0.431919 0.788134 0.268343
O O4 0.424239 0.636827 0.394733
O O5 0.349022 0.481603 0.178786
O O6 0.295246 0.396099 0.323954
O O7 0.500000 0.407861 0.750000
O O8 0.222711 0.392080 0.482376
O O9 0.101707 0.444881 0.461140
O O10 0.021067 0.429175 0.964692
#
# Coordination Sequence:
#
# PCOD9280771 Si02
#       5
#     8   8   8   8   4
#     4  11  22  39  60  90 127 159 193 250 305 359
#     4  10  21  37  63  94 125 157 196 246 312 358
#     4  11  23  42  63  88 120 158 210 245 303 357
#     4  11  21  38  64  94 119 158 202 252 293 365
#     4  10  24  42  64  80 118 168 196 250 306 368
#
# _framework density 24.991333000000001
#
# number of rings (size 3 to 8) (size 9 to 14) (size 15 to 20)
#    0.000    1.333    1.111    6.667    4.667    0.000 
#    0.000    1.111    0.000    0.000    0.000    0.000 
#    0.000    0.000    0.000    0.000    0.000    0.000 
#
# Total GULP energy -100612.108870 kJ/mol
# GULP energy per Si atom -5589.561604 kJ/mol
# Density = 2.493445 g / cm^3
# Si number density = 24.991333 Si / 1000 Ang^3
#
#
#
# Elastic Constant Matrix: (Units=GPa)
#
#
# Indices 1 2 3 4 5 6 
#
# 1 163.8759 46.1174 4.9713 0.0000 15.5110 0.0000
# 2 46.1174 112.5022 6.4303 0.0000 1.5323 0.0000
# 3 4.9713 6.4303 21.9518 0.0000 -1.4134 0.0000
# 4 0.0000 0.0000 0.0000 -2.9638 0.0000 10.0675
# 5 15.5110 1.5323 -1.4134 0.0000 35.0332 0.0000
# 6 0.0000 0.0000 0.0000 10.0675 0.0000 28.0531
#
#
#
# Elastic Compliance Matrix: (Units=1/GPa)
#
#
# Indices 1 2 3 4 5 6 
#
# 1 0.007234 -0.002866 -0.001000 0.000000 -0.003118 0.000000
# 2 -0.002866 0.010184 -0.002287 0.000000 0.000731 0.000000
# 3 -0.001000 -0.002287 0.046607 0.000000 0.002423 0.000000
# 4 0.000000 0.000000 0.000000 -0.152052 0.000000 0.054567
# 5 -0.003118 0.000731 0.002423 0.000000 0.029991 0.000000
# 6 0.000000 0.000000 0.000000 0.054567 0.000000 0.016064
#
#
# Mechanical properties :
#
#
# Convention : Reuss Voigt Hill
#
# Bulk Modulus (GPa) = 19.33490 45.92978 32.63234
# Shear Modulus (GPa) = -402.34401 28.07858 -187.13271
#
# Velocity S-wave (km/s) = -12.70208 3.35555 -8.66266
# Velocity P-wave (km/s) = 14.40036 5.78197 9.32575
#
# Compressibility (1/GPa) = 0.05171994
#
# Stress axis : x y z
#
# Youngs Moduli (GPa) = 138.23405 98.19068 21.45617
#
# Poissons Ratio (x) = 0.28140 0.02145
# Poissons Ratio (y) = 0.39616 0.04907
# Poissons Ratio (z) = 0.13817 0.22458
#
# Static dielectric constant tensor:
#      x y z
#    x 2.135890 0.000000 -0.045350 
#    y 0.000000 1.930160 0.000000 
#    z -0.045350 0.000000 2.022230 
# 
# From -- ./inp_files/37517.got.cif
#   From: 2010.05.17/outbox.cif.g08.bks.cpg/sg15_19_cif.got.tgz:37517.got - 2010.06.03 18:47:42.
