data_PCOD9280515
_publ_section_title
;
Structure prediction by ZEFSAII (Michael W. Deem and Ramdas Pophale) SiO2 
 PCOD9280515
Probable space group: C 2/C
;
_chemical_formula_sum "Si O2"
_cell_formula_units_Z 56
_cell_length_a 13.460768
_cell_length_b 23.688604
_cell_length_c 9.677505
_cell_angle_alpha 90.000000
_cell_angle_beta 109.760544
_cell_angle_gamma 90.000000
_cell_volume 2904.122017
_symmetry_space_group_name_H-M "C 2/C"
_symmetry_group_IT_number 15
_symmetry_cell_setting 'monoclinic'
loop_
_space_group_symop_operation_xyz
x,y,z
-x,y,1/2-z
-x,-y,-z
x,-y,1/2+z
1/2+x,1/2+y,z
1/2-x,1/2+y,1/2-z
1/2-x,1/2-y,-z
1/2+x,1/2-y,1/2+z
loop_
_atom_site_type_symbol
_atom_site_label
_atom_site_fract_x
_atom_site_fract_y
_atom_site_fract_z
Si Si1 0.380554 0.644606 0.736719
Si Si2 0.584691 0.829539 0.099386
Si Si3 0.380370 0.959964 0.737159
Si Si4 0.855913 0.343353 0.886693
Si Si5 0.875818 0.734853 0.154082
Si Si6 0.250568 0.809322 0.082747
Si Si7 0.195864 0.557860 0.600830
O O1 0.500000 0.630330 0.750000
O O2 0.353865 0.699138 0.629931
O O3 0.350948 0.671342 0.874277
O O4 0.303758 0.591701 0.680836
O O5 0.650572 0.810496 0.263867
O O6 0.606154 0.895996 0.094595
O O7 0.459989 0.821811 0.018447
O O8 0.634969 0.798146 0.992189
O O9 0.500000 0.975832 0.750000
O O10 0.383262 0.898960 0.812649
O O11 0.315121 0.956290 0.565010
O O12 0.327670 0.004347 0.815644
O O13 0.821355 0.296687 0.757075
O O14 0.771778 0.353143 0.967913
O O15 0.000000 0.730938 0.250000
O O16 0.250000 0.750000 0.000000
#
# Coordination Sequence:
#
# PCOD9280515 Si02
#       7
#     8   8   8   8   8   8   8
#     4  10  23  44  66  87 128 171 221 261 317 377
#     4  10  21  37  60  95 129 171 204 245 327 400
#     4  12  24  42  64  97 134 161 210 265 332 393
#     4  11  20  38  61  93 137 158 200 262 325 390
#     4   9  17  36  65  89 122 166 202 251 312 389
#     4  11  23  36  60  98 130 166 209 263 314 373
#     4  11  25  39  65  94 121 174 216 258 322 389
#
# _framework density 19.282938000000001
#
# number of rings (size 3 to 8) (size 9 to 14) (size 15 to 20)
#    0.000    1.429    4.286    1.286    4.000    3.429 
#    0.000    0.714    0.000    0.000    0.000    0.000 
#    0.000    0.000    0.000    0.000    0.000    0.000 
#
# Total GULP energy -156141.130919 kJ/mol
# GULP energy per Si atom -5576.468961 kJ/mol
# Density = 1.923905 g / cm^3
# Si number density = 19.282938 Si / 1000 Ang^3
#
#
#
# Elastic Constant Matrix: (Units=GPa)
#
#
# Indices 1 2 3 4 5 6 
#
# 1 90.2496 31.8894 48.4136 0.0000 -14.8060 0.0000
# 2 31.8894 74.7406 43.2450 0.0000 0.1300 0.0000
# 3 48.4136 43.2450 123.0427 0.0000 -21.1419 0.0000
# 4 0.0000 0.0000 0.0000 31.9511 0.0000 -11.3347
# 5 -14.8060 0.1300 -21.1419 0.0000 27.4436 0.0000
# 6 0.0000 0.0000 0.0000 -11.3347 0.0000 29.7381
#
#
#
# Elastic Compliance Matrix: (Units=1/GPa)
#
#
# Indices 1 2 3 4 5 6 
#
# 1 0.015524 -0.004601 -0.003514 0.000000 0.005690 0.000000
# 2 -0.004601 0.018864 -0.006064 0.000000 -0.007243 0.000000
# 3 -0.003514 -0.006064 0.013048 0.000000 0.008185 0.000000
# 4 0.000000 0.000000 0.000000 0.036191 0.000000 0.013794
# 5 0.005690 -0.007243 0.008185 0.000000 0.045848 0.000000
# 6 0.000000 0.000000 0.000000 0.013794 0.000000 0.038885
#
#
# Mechanical properties :
#
#
# Convention : Reuss Voigt Hill
#
# Bulk Modulus (GPa) = 52.41484 59.45876 55.93680
# Shear Modulus (GPa) = 24.62123 28.79221 26.70672
#
# Velocity S-wave (km/s) = 3.57717 3.86831 3.72559
# Velocity P-wave (km/s) = 6.65601 7.13118 6.89769
#
# Compressibility (1/GPa) = 0.01907857
#
# Stress axis : x y z
#
# Youngs Moduli (GPa) = 64.41456 53.01097 76.64302
#
# Poissons Ratio (x) = 0.24389 0.26930
# Poissons Ratio (y) = 0.29635 0.46479
# Poissons Ratio (z) = 0.22633 0.32148
#
# Static dielectric constant tensor:
#      x y z
#    x 1.744010 0.000000 -0.006330 
#    y 0.000000 1.695640 0.000000 
#    z -0.006330 0.000000 1.688920 
# 
# From -- ./inp_files/42282.got.cif
#   From: 2010.05.17/outbox.cif.g08.bks.cpg/sg15_22_cif.got.tgz:42282.got - 2010.06.03 18:47:42.
