data_PCOD9280288
_publ_section_title
;
Structure prediction by ZEFSAII (Michael W. Deem and Ramdas Pophale) SiO2 
 PCOD9280288
Probable space group: C 2/C
;
_chemical_formula_sum "Si O2"
_cell_formula_units_Z 48
_cell_length_a 12.309239
_cell_length_b 18.306758
_cell_length_c 21.726527
_cell_angle_alpha 90.000000
_cell_angle_beta 151.160061
_cell_angle_gamma 90.000000
_cell_volume 2361.610134
_symmetry_space_group_name_H-M "C 2/C"
_symmetry_group_IT_number 15
_symmetry_cell_setting 'monoclinic'
loop_
_space_group_symop_operation_xyz
x,y,z
-x,y,1/2-z
-x,-y,-z
x,-y,1/2+z
1/2+x,1/2+y,z
1/2-x,1/2+y,1/2-z
1/2-x,1/2-y,-z
1/2+x,1/2-y,1/2+z
loop_
_atom_site_type_symbol
_atom_site_label
_atom_site_fract_x
_atom_site_fract_y
_atom_site_fract_z
Si Si1 0.459932 0.962936 0.096534
Si Si2 0.816401 0.085067 0.604391
Si Si3 0.537164 0.207733 0.419841
Si Si4 0.849437 0.408837 0.734999
Si Si5 0.618570 0.426054 0.035874
Si Si6 0.191304 0.142106 0.698935
O O1 0.281495 0.942967 0.060865
O O2 0.604416 0.889353 0.157737
O O3 0.637588 0.020903 0.214010
O O4 0.321997 0.010050 0.977301
O O5 0.636036 0.152150 0.520901
O O6 0.000000 0.079788 0.750000
O O7 0.966787 0.106464 0.618590
O O8 0.750000 0.250000 0.500000
O O9 0.461928 0.154626 0.328717
O O10 0.351483 0.271751 0.333367
O O11 0.601080 0.382611 0.594828
O O12 0.000000 0.425511 0.750000
O O13 0.729646 0.389333 0.149717
O O14 0.500000 0.500000 0.000000
#
# Coordination Sequence:
#
# PCOD9280288 Si02
#       6
#     8   8   8   8   8   8
#     4  11  20  35  58  89 118 147 192 251 301 345
#     4  10  21  37  58  83 118 160 203 239 290 350
#     4   9  21  35  52  81 114 154 191 239 289 347
#     4  11  18  32  58  85 114 144 192 246 297 341
#     4  12  19  33  60  91 114 143 192 250 297 344
#     4  11  21  35  55  86 122 150 196 243 298 348
#
# _framework density 20.325118
#
# number of rings (size 3 to 8) (size 9 to 14) (size 15 to 20)
#    0.000    1.333    5.000    2.500    0.000    6.000 
#    0.000    0.833    0.000    2.000    0.000    0.000 
#    0.000    0.000    0.000    0.000    0.000    0.000 
#
# Total GULP energy -133702.004407 kJ/mol
# GULP energy per Si atom -5570.916850 kJ/mol
# Density = 2.027886 g / cm^3
# Si number density = 20.325118 Si / 1000 Ang^3
#
#
#
# Elastic Constant Matrix: (Units=GPa)
#
#
# Indices 1 2 3 4 5 6 
#
# 1 37.2960 20.9643 9.7427 -0.0005 2.9984 -0.0003
# 2 20.9643 94.2050 59.1185 0.0037 -8.1763 0.0009
# 3 9.7427 59.1185 135.3021 0.0063 -14.6145 0.0016
# 4 -0.0005 0.0037 0.0063 40.3489 0.0004 11.8719
# 5 2.9984 -8.1763 -14.6145 0.0004 34.9103 -0.0005
# 6 -0.0003 0.0009 0.0016 11.8719 -0.0005 18.1509
#
#
#
# Elastic Compliance Matrix: (Units=1/GPa)
#
#
# Indices 1 2 3 4 5 6 
#
# 1 0.031341 -0.007769 0.000681 0.000001 -0.004226 0.000000
# 2 -0.007769 0.016572 -0.006483 -0.000001 0.001834 0.000000
# 3 0.000681 -0.006483 0.010478 -0.000001 0.002809 0.000000
# 4 0.000001 -0.000001 -0.000001 0.030690 -0.000001 -0.020073
# 5 -0.004226 0.001834 0.002809 -0.000001 0.030614 0.000001
# 6 0.000000 0.000000 0.000000 -0.020073 0.000001 0.068223
#
#
# Mechanical properties :
#
#
# Convention : Reuss Voigt Hill
#
# Bulk Modulus (GPa) = 32.00082 49.60601 40.80341
# Shear Modulus (GPa) = 22.17532 30.48053 26.32793
#
# Velocity S-wave (km/s) = 3.30666 3.87673 3.60299
# Velocity P-wave (km/s) = 5.50975 6.67068 6.11781
#
# Compressibility (1/GPa) = 0.03124920
#
# Stress axis : x y z
#
# Youngs Moduli (GPa) = 31.90680 60.34326 95.43747
#
# Poissons Ratio (x) = 0.46881 -0.06502
# Poissons Ratio (y) = 0.24788 0.61875
# Poissons Ratio (z) = -0.02174 0.39122
#
# Static dielectric constant tensor:
#      x y z
#    x 1.710840 0.000000 0.060020 
#    y 0.000000 1.728180 0.000000 
#    z 0.060020 0.000000 1.131830 
# 
# From -- ./inp_files/87885.got.cif
#   From: 2010.05.17/outbox.cif.g08.bks.cpg/sg15_44_cif.got.tgz:87885.got - 2010.06.03 18:47:42.
