data_PCOD9280205
_publ_section_title
;
Structure prediction by ZEFSAII (Michael W. Deem and Ramdas Pophale) SiO2 
 PCOD9280205
Probable space group: C 2/C
;
_chemical_formula_sum "Si O2"
_cell_formula_units_Z 24
_cell_length_a 6.968190
_cell_length_b 24.665553
_cell_length_c 5.246064
_cell_angle_alpha 90.000000
_cell_angle_beta 80.158947
_cell_angle_gamma 90.000000
_cell_volume 888.396011
_symmetry_space_group_name_H-M "C 2/C"
_symmetry_group_IT_number 15
_symmetry_cell_setting 'monoclinic'
loop_
_space_group_symop_operation_xyz
x,y,z
-x,y,1/2-z
-x,-y,-z
x,-y,1/2+z
1/2+x,1/2+y,z
1/2-x,1/2+y,1/2-z
1/2-x,1/2-y,-z
1/2+x,1/2-y,1/2+z
loop_
_atom_site_type_symbol
_atom_site_label
_atom_site_fract_x
_atom_site_fract_y
_atom_site_fract_z
Si Si1 0.222208 0.480010 0.274432
Si Si2 0.769727 0.193837 0.341034
Si Si3 0.266362 0.641829 0.833614
O O1 0.309196 0.519509 0.469122
O O2 0.232513 0.420866 0.399199
O O3 0.000000 0.493898 0.250000
O O4 0.750000 0.250000 0.500000
O O5 0.688000 0.151886 0.566662
O O6 0.000000 0.185808 0.250000
O O7 0.694381 0.182872 0.071450
O O8 0.500000 0.649822 0.750000
#
# Coordination Sequence:
#
# PCOD9280205 Si02
#       3
#     8   8   8
#     4  10  21  37  56  82 115 149 189 235 283 339
#     4  10  21  38  58  84 116 149 191 239 286 340
#     4  10  21  37  58  84 114 149 191 237 283 339
#
# _framework density 27.014977999999999
#
# number of rings (size 3 to 8) (size 9 to 14) (size 15 to 20)
#    0.000    2.000    0.000    3.000    0.000    2.667 
#    0.000    3.333    0.000    0.000    0.000    0.000 
#    0.000    0.000    0.000    0.000    0.000    0.000 
#
# Total GULP energy -67031.715249 kJ/mol
# GULP energy per Si atom -5585.976271 kJ/mol
# Density = 2.695349 g / cm^3
# Si number density = 27.014978 Si / 1000 Ang^3
#
#
#
# Elastic Constant Matrix: (Units=GPa)
#
#
# Indices 1 2 3 4 5 6 
#
# 1 96.4287 -29.2736 40.8644 0.0000 2.2307 0.0000
# 2 -29.2736 112.4515 60.8546 0.0000 5.1105 0.0000
# 3 40.8644 60.8546 231.8997 0.0000 20.2586 0.0000
# 4 0.0000 0.0000 0.0000 50.2857 0.0000 2.8252
# 5 2.2307 5.1105 20.2586 0.0000 43.6875 0.0000
# 6 0.0000 0.0000 0.0000 2.8252 0.0000 25.8022
#
#
#
# Elastic Compliance Matrix: (Units=1/GPa)
#
#
# Indices 1 2 3 4 5 6 
#
# 1 0.013774 0.005711 -0.003967 0.000000 0.000468 0.000000
# 2 0.005711 0.012733 -0.004369 0.000000 0.000245 0.000000
# 3 -0.003967 -0.004369 0.006353 0.000000 -0.002232 0.000000
# 4 0.000000 0.000000 0.000000 0.020009 0.000000 -0.002191
# 5 0.000468 0.000245 -0.002232 0.000000 0.023872 0.000000
# 6 0.000000 0.000000 0.000000 -0.002191 0.000000 0.038996
#
#
# Mechanical properties :
#
#
# Convention : Reuss Voigt Hill
#
# Bulk Modulus (GPa) = 36.21820 65.07452 50.64636
# Shear Modulus (GPa) = 38.40508 48.51072 43.45790
#
# Velocity S-wave (km/s) = 3.77453 4.24216 4.01516
# Velocity P-wave (km/s) = 5.69490 6.93795 6.34693
#
# Compressibility (1/GPa) = 0.02761043
#
# Stress axis : x y z
#
# Youngs Moduli (GPa) = 72.59831 78.53765 157.41145
#
# Poissons Ratio (x) = -0.44855 0.62444
# Poissons Ratio (y) = -0.41463 0.68775
# Poissons Ratio (z) = 0.28799 0.34314
#
# Static dielectric constant tensor:
#      x y z
#    x 2.186330 0.000000 -0.067350 
#    y 0.000000 2.206440 0.000000 
#    z -0.067350 0.000000 2.244360 
# 
# From -- ./inp_files/3215.got.cif
#   From: 2010.05.17/outbox.cif.g08.bks.cpg/sg15_2_cif.got.tgz:3215.got - 2010.06.03 18:47:42.
