data_PCOD9280039
_publ_section_title
;
Structure prediction by ZEFSAII (Michael W. Deem and Ramdas Pophale) SiO2 
 PCOD9280039
Probable space group: C 2/C
;
_chemical_formula_sum "Si O2"
_cell_formula_units_Z 40
_cell_length_a 8.028067
_cell_length_b 23.655720
_cell_length_c 9.214246
_cell_angle_alpha 90.000000
_cell_angle_beta 87.370188
_cell_angle_gamma 90.000000
_cell_volume 1748.031827
_symmetry_space_group_name_H-M "C 2/C"
_symmetry_group_IT_number 15
_symmetry_cell_setting 'monoclinic'
loop_
_space_group_symop_operation_xyz
x,y,z
-x,y,1/2-z
-x,-y,-z
x,-y,1/2+z
1/2+x,1/2+y,z
1/2-x,1/2+y,1/2-z
1/2-x,1/2-y,-z
1/2+x,1/2-y,1/2+z
loop_
_atom_site_type_symbol
_atom_site_label
_atom_site_fract_x
_atom_site_fract_y
_atom_site_fract_z
Si Si1 0.784862 0.925076 0.980699
Si Si2 0.114149 0.573569 0.989346
Si Si3 0.822052 0.195628 0.577451
Si Si4 0.282196 0.502273 0.731312
Si Si5 0.219542 0.192330 0.589686
O O1 0.860117 0.959715 0.845223
O O2 0.584499 0.932566 0.993623
O O3 0.795016 0.858533 0.978076
O O4 0.867420 0.951949 0.121702
O O5 0.172388 0.542485 0.840105
O O6 0.185959 0.637631 0.980867
O O7 0.189944 0.539734 0.122858
O O8 0.750000 0.250000 0.500000
O O9 0.737158 0.192783 0.740134
O O10 0.019578 0.190993 0.592534
O O11 0.250000 0.250000 0.500000
#
# Coordination Sequence:
#
# PCOD9280039 Si02
#       5
#     8   8   8   8   8
#     4  11  20  38  64  94 128 166 210 257 305 367
#     4  11  20  38  64  94 128 166 210 257 305 367
#     4  11  26  46  66  92 125 165 213 264 318 377
#     4  10  21  36  63  96 129 168 209 250 305 372
#     4  11  26  46  66  92 125 165 213 264 318 377
#
# _framework density 22.882878999999999
#
# number of rings (size 3 to 8) (size 9 to 14) (size 15 to 20)
#    0.000    1.200    2.000    6.000    2.800    2.400 
#    0.000    6.000    0.000    0.000    0.000    0.000 
#    0.000    0.000    0.000    0.000    0.000    0.000 
#
# Total GULP energy -111714.077715 kJ/mol
# GULP energy per Si atom -5585.703886 kJ/mol
# Density = 2.283080 g / cm^3
# Si number density = 22.882879 Si / 1000 Ang^3
#
#
#
# Elastic Constant Matrix: (Units=GPa)
#
#
# Indices 1 2 3 4 5 6 
#
# 1 50.1405 22.8870 24.1966 0.0000 -10.8751 0.0000
# 2 22.8870 210.0434 47.1190 0.0000 -3.2784 0.0000
# 3 24.1966 47.1190 106.8164 0.0000 -1.8287 0.0000
# 4 0.0000 0.0000 0.0000 32.1503 0.0000 1.4241
# 5 -10.8751 -3.2784 -1.8287 0.0000 28.9916 0.0000
# 6 0.0000 0.0000 0.0000 1.4241 0.0000 39.8029
#
#
#
# Elastic Compliance Matrix: (Units=1/GPa)
#
#
# Indices 1 2 3 4 5 6 
#
# 1 0.024874 -0.001489 -0.004826 0.000000 0.008858 0.000000
# 2 -0.001489 0.005379 -0.002037 0.000000 -0.000079 0.000000
# 3 -0.004826 -0.002037 0.011331 0.000000 -0.001326 0.000000
# 4 0.000000 0.000000 0.000000 0.031153 0.000000 -0.001115
# 5 0.008858 -0.000079 -0.001326 0.000000 0.037723 0.000000
# 6 0.000000 0.000000 0.000000 -0.001115 0.000000 0.025164
#
#
# Mechanical properties :
#
#
# Convention : Reuss Voigt Hill
#
# Bulk Modulus (GPa) = 40.19389 61.71174 50.95281
# Shear Modulus (GPa) = 31.12928 38.37547 34.75237
#
# Velocity S-wave (km/s) = 3.69233 4.09961 3.90129
# Velocity P-wave (km/s) = 5.98171 7.03108 6.52752
#
# Compressibility (1/GPa) = 0.02487940
#
# Stress axis : x y z
#
# Youngs Moduli (GPa) = 40.20288 185.91242 88.25531
#
# Poissons Ratio (x) = 0.27692 0.42591
# Poissons Ratio (y) = 0.05988 0.17975
# Poissons Ratio (z) = 0.19401 0.37864
#
# Static dielectric constant tensor:
#      x y z
#    x 1.872630 0.000000 0.029510 
#    y 0.000000 1.885160 0.000000 
#    z 0.029510 0.000000 1.849960 
# 
# From -- ./inp_files/23413.got.cif
#   From: 2010.05.17/outbox.cif.g08.bks.cpg/sg15_12_cif.got.tgz:23413.got - 2010.06.03 18:47:42.
