data_PCOD9280582
_publ_section_title
;
Structure prediction by ZEFSAII (Michael W. Deem and Ramdas Pophale) SiO2 
 PCOD9280582
Probable space group: C 2/C
;
_chemical_formula_sum "Si O2"
_cell_formula_units_Z 44
_cell_length_a 23.253871
_cell_length_b 12.820518
_cell_length_c 6.010488
_cell_angle_alpha 90.000000
_cell_angle_beta 99.854928
_cell_angle_gamma 90.000000
_cell_volume 1765.446186
_symmetry_space_group_name_H-M "C 2/C"
_symmetry_group_IT_number 15
_symmetry_cell_setting 'monoclinic'
loop_
_space_group_symop_operation_xyz
x,y,z
-x,y,1/2-z
-x,-y,-z
x,-y,1/2+z
1/2+x,1/2+y,z
1/2-x,1/2+y,1/2-z
1/2-x,1/2-y,-z
1/2+x,1/2-y,1/2+z
loop_
_atom_site_type_symbol
_atom_site_label
_atom_site_fract_x
_atom_site_fract_y
_atom_site_fract_z
Si Si1 0.448639 0.249542 0.337192
Si Si2 0.661317 0.238458 0.000842
Si Si3 0.886998 0.118822 0.411820
Si Si4 0.000000 0.898401 0.750000
Si Si5 0.669482 0.018835 0.039517
Si Si6 0.776688 0.136863 0.591964
O O1 0.500000 0.187975 0.250000
O O2 0.396959 0.191116 0.422475
O O3 0.475981 0.325173 0.539717
O O4 0.419238 0.322541 0.133383
O O5 0.688921 0.329109 0.164206
O O6 0.698537 0.134259 0.035434
O O7 0.637817 0.289600 0.762935
O O8 0.939155 0.054720 0.316880
O O9 0.826235 0.078662 0.473762
O O10 0.722014 0.936800 0.075634
O O11 0.641342 0.998323 0.270361
O O12 0.750000 0.250000 0.500000
#
# Coordination Sequence:
#
# PCOD9280582 Si02
#       6
#     8   8   8   4   8   8
#     4   8  15  30  55  89 122 160 205 255 313 376
#     4  10  21  37  61  90 127 169 212 264 316 376
#     4   9  18  32  58  89 125 162 210 261 318 376
#     4   8  14  30  54  90 122 156 206 258 316 380
#     4  12  27  42  62  89 125 172 217 265 315 377
#     4  11  22  39  59  88 125 169 216 264 319 379
#
# _framework density 24.922878999999998
#
# number of rings (size 3 to 8) (size 9 to 14) (size 15 to 20)
#    0.000    2.182    1.818    1.091    5.091    1.455 
#    0.000    0.000    0.000    1.091    2.364    1.273 
#    0.000    0.000    0.000    0.000    0.000   20.364 
#
# Total GULP energy -122537.482644 kJ/mol
# GULP energy per Si atom -5569.885575 kJ/mol
# Density = 2.486615 g / cm^3
# Si number density = 24.922879 Si / 1000 Ang^3
#
#
#
# Elastic Constant Matrix: (Units=GPa)
#
#
# Indices 1 2 3 4 5 6 
#
# 1 82.2332 -17.1222 12.1131 0.0000 -12.7723 0.0000
# 2 -17.1222 91.0676 24.2359 0.0000 13.8504 0.0000
# 3 12.1131 24.2359 179.2041 0.0000 11.0599 0.0000
# 4 0.0000 0.0000 0.0000 8.7237 0.0000 -6.0588
# 5 -12.7723 13.8504 11.0599 0.0000 42.0409 0.0000
# 6 0.0000 0.0000 0.0000 -6.0588 0.0000 -14.6790
#
#
#
# Elastic Compliance Matrix: (Units=1/GPa)
#
#
# Indices 1 2 3 4 5 6 
#
# 1 0.013438 0.002352 -0.001454 0.000000 0.003690 0.000000
# 2 0.002352 0.012302 -0.001643 0.000000 -0.002906 0.000000
# 3 -0.001454 -0.001643 0.005992 0.000000 -0.001477 0.000000
# 4 0.000000 0.000000 0.000000 0.089091 0.000000 -0.036773
# 5 0.003690 -0.002906 -0.001477 0.000000 0.026253 0.000000
# 6 0.000000 0.000000 0.000000 -0.036773 0.000000 -0.052946
#
#
# Mechanical properties :
#
#
# Convention : Reuss Voigt Hill
#
# Bulk Modulus (GPa) = 33.06729 43.43983 38.25356
# Shear Modulus (GPa) = 47.30321 29.43564 38.36942
#
# Velocity S-wave (km/s) = 4.36131 3.44040 3.92794
# Velocity P-wave (km/s) = 6.21756 5.76622 5.99614
#
# Compressibility (1/GPa) = 0.03024136
#
# Stress axis : x y z
#
# Youngs Moduli (GPa) = 74.41779 81.28443 166.89133
#
# Poissons Ratio (x) = -0.19120 0.24269
# Poissons Ratio (y) = -0.17505 0.27428
# Poissons Ratio (z) = 0.10822 0.13359
#
# Static dielectric constant tensor:
#      x y z
#    x 2.121290 0.000000 -0.120030 
#    y 0.000000 1.897240 0.000000 
#    z -0.120030 0.000000 2.075500 
# 
# From -- ./inp_files/15111.got.cif
#   From: 2010.05.17/outbox.cif.g08.bks.cpg/sg15_8_cif.got.tgz:15111.got - 2010.06.03 18:47:42.
