data_PCOD9280000
_publ_section_title
;
Structure prediction by ZEFSAII (Michael W. Deem and Ramdas Pophale) SiO2 
 PCOD9280000
Probable space group: C 2/C
;
_chemical_formula_sum "Si O2"
_cell_formula_units_Z 40
_cell_length_a 25.618058
_cell_length_b 15.672249
_cell_length_c 23.406752
_cell_angle_alpha 90.000000
_cell_angle_beta 168.692646
_cell_angle_gamma 90.000000
_cell_volume 1842.613605
_symmetry_space_group_name_H-M "C 2/C"
_symmetry_group_IT_number 15
_symmetry_cell_setting 'monoclinic'
loop_
_space_group_symop_operation_xyz
x,y,z
-x,y,1/2-z
-x,-y,-z
x,-y,1/2+z
1/2+x,1/2+y,z
1/2-x,1/2+y,1/2-z
1/2-x,1/2-y,-z
1/2+x,1/2-y,1/2+z
loop_
_atom_site_type_symbol
_atom_site_label
_atom_site_fract_x
_atom_site_fract_y
_atom_site_fract_z
Si Si1 0.000000 0.554275 0.750000
Si Si2 0.172140 0.489572 0.241517
Si Si3 0.711130 0.655022 0.933593
Si Si4 0.500000 0.337125 0.750000
Si Si5 0.192440 0.204236 0.579001
Si Si6 0.751922 0.449798 0.379020
O O1 0.764970 0.607356 0.526899
O O2 0.831203 0.512829 0.516006
O O3 0.206611 0.391812 0.299869
O O4 0.474005 0.520073 0.554681
O O5 0.000000 0.500000 0.000000
O O6 0.006403 0.545008 0.110769
O O7 0.500000 0.613544 0.750000
O O8 0.671685 0.639995 0.824513
O O9 0.750000 0.750000 0.000000
O O10 0.000000 0.615522 0.250000
O O11 0.440210 0.289565 0.626553
O O12 0.949561 0.234511 0.358346
#
# Coordination Sequence:
#
# PCOD9280000 Si02
#       6
#     4   8   8   4   8   8
#     4  12  20  35  66 101 136 162 212 276 346 395
#     4  12  27  47  71  95 130 191 249 278 321 404
#     4  10  21  36  62  98 137 172 205 272 361 408
#     4  12  22  39  62 109 136 166 206 262 354 431
#     4  12  24  42  68  98 142 172 212 284 356 408
#     4  12  22  41  70  98 135 176 229 287 334 413
#
# _framework density 21.708293999999999
#
# number of rings (size 3 to 8) (size 9 to 14) (size 15 to 20)
#    0.000    0.400    5.000    4.800    1.400    0.000 
#    0.000    0.000   26.400    0.000    0.000    0.000 
#    0.000    0.000    0.000    0.000    0.000    0.000 
#
# Total GULP energy -111415.153828 kJ/mol
# GULP energy per Si atom -5570.757691 kJ/mol
# Density = 2.165888 g / cm^3
# Si number density = 21.708294 Si / 1000 Ang^3
#
#
#
# Elastic Constant Matrix: (Units=GPa)
#
#
# Indices 1 2 3 4 5 6 
#
# 1 47.0679 5.4047 17.4054 -0.0082 0.8794 -0.0364
# 2 5.4047 39.2452 20.1598 -0.1728 -14.1260 -0.1189
# 3 17.4054 20.1598 156.5997 0.1665 11.3319 0.2584
# 4 -0.0082 -0.1728 0.1665 16.7592 -0.1249 11.8231
# 5 0.8794 -14.1260 11.3319 -0.1249 41.2730 -0.2112
# 6 -0.0364 -0.1189 0.2584 11.8231 -0.2112 32.2203
#
#
#
# Elastic Compliance Matrix: (Units=1/GPa)
#
#
# Indices 1 2 3 4 5 6 
#
# 1 0.022305 -0.002196 -0.002150 -0.000022 -0.000636 0.000038
# 2 -0.002196 0.032851 -0.004900 0.000419 0.012637 0.000087
# 3 -0.002150 -0.004900 0.007523 -0.000108 -0.003698 -0.000066
# 4 -0.000022 0.000419 -0.000108 0.080517 0.000266 -0.029541
# 5 -0.000636 0.012637 -0.003698 0.000266 0.029585 0.000172
# 6 0.000038 0.000087 -0.000066 -0.029541 0.000172 0.041878
#
#
# Mechanical properties :
#
#
# Convention : Reuss Voigt Hill
#
# Bulk Modulus (GPa) = 22.63141 36.53918 29.58530
# Shear Modulus (GPa) = 20.17092 31.38003 25.77547
#
# Velocity S-wave (km/s) = 3.05155 3.80614 3.44954
# Velocity P-wave (km/s) = 4.78161 6.01532 5.43359
#
# Compressibility (1/GPa) = 0.04418638
#
# Stress axis : x y z
#
# Youngs Moduli (GPa) = 44.83260 30.44031 132.92037
#
# Poissons Ratio (x) = 0.06685 0.28583
# Poissons Ratio (y) = 0.09846 0.65131
# Poissons Ratio (z) = 0.09641 0.14916
#
# Static dielectric constant tensor:
#      x y z
#    x 1.837750 -0.000090 0.035480 
#    y -0.000090 1.706870 -0.000230 
#    z 0.035480 -0.000230 1.776020 
# 
# From -- ./inp_files/283755.got.cif
#   From: 2010.05.17/outbox.cif.g08.bks.cpg/sg15_142_cif.got.tgz:283755.got - 2010.06.03 18:47:42.
