data_PCOD9280811
_publ_section_title
;
Structure prediction by ZEFSAII (Michael W. Deem and Ramdas Pophale) SiO2 
 PCOD9280811
Probable space group: C 2/C
;
_chemical_formula_sum "Si O2"
_cell_formula_units_Z 44
_cell_length_a 11.685435
_cell_length_b 8.676262
_cell_length_c 18.729204
_cell_angle_alpha 90.000000
_cell_angle_beta 113.515827
_cell_angle_gamma 90.000000
_cell_volume 1741.175171
_symmetry_space_group_name_H-M "C 2/C"
_symmetry_group_IT_number 15
_symmetry_cell_setting 'monoclinic'
loop_
_space_group_symop_operation_xyz
x,y,z
-x,y,1/2-z
-x,-y,-z
x,-y,1/2+z
1/2+x,1/2+y,z
1/2-x,1/2+y,1/2-z
1/2-x,1/2-y,-z
1/2+x,1/2-y,1/2+z
loop_
_atom_site_type_symbol
_atom_site_label
_atom_site_fract_x
_atom_site_fract_y
_atom_site_fract_z
Si Si1 0.318808 0.065872 0.645788
Si Si2 0.401957 0.213579 0.525041
Si Si3 0.839281 0.580908 0.938348
Si Si4 0.894868 0.728832 0.107637
Si Si5 0.958128 0.983128 0.885094
Si Si6 0.500000 0.297876 0.750000
O O1 0.410105 0.919742 0.659828
O O2 0.185835 0.988211 0.628214
O O3 0.316317 0.161019 0.570152
O O4 0.378940 0.187806 0.713855
O O5 0.541555 0.141991 0.574554
O O6 0.443394 0.392573 0.538426
O O7 0.353785 0.102833 0.449220
O O8 0.708339 0.654511 0.884435
O O9 0.854643 0.652100 0.022073
O O10 0.006969 0.839292 0.116280
O O11 0.981377 0.899768 0.815489
#
# Coordination Sequence:
#
# PCOD9280811 Si02
#       6
#     8   8   8   8   8   4
#     4  10  22  44  62  87 121 157 199 261 301 361
#     4   9  19  39  60  90 131 160 197 238 297 357
#     4   9  18  39  59  91 133 167 188 242 296 362
#     4  10  21  37  64  91 124 162 203 239 301 359
#     4  11  23  42  62  93 115 157 210 254 295 372
#     4  10  26  44  60  86 116 154 204 260 324 338
#
# _framework density 25.270288999999998
#
# number of rings (size 3 to 8) (size 9 to 14) (size 15 to 20)
#    0.000    2.182    1.818    0.000    0.000    5.091 
#   19.636    0.000    0.000    0.000    0.000    0.000 
#    0.000    0.000    0.000    0.000    0.000    0.000 
#
# Total GULP energy -122933.666276 kJ/mol
# GULP energy per Si atom -5587.893922 kJ/mol
# Density = 2.521277 g / cm^3
# Si number density = 25.270289 Si / 1000 Ang^3
#
#
#
# Elastic Constant Matrix: (Units=GPa)
#
#
# Indices 1 2 3 4 5 6 
#
# 1 93.8311 38.2993 -9.9477 0.0000 -11.1873 0.0000
# 2 38.2993 176.9393 36.6977 0.0000 -7.6728 0.0000
# 3 -9.9477 36.6977 44.2818 0.0000 0.7042 0.0000
# 4 0.0000 0.0000 0.0000 20.4285 0.0000 0.1936
# 5 -11.1873 -7.6728 0.7042 0.0000 14.9586 0.0000
# 6 0.0000 0.0000 0.0000 0.1936 0.0000 58.6042
#
#
#
# Elastic Compliance Matrix: (Units=1/GPa)
#
#
# Indices 1 2 3 4 5 6 
#
# 1 0.013902 -0.003961 0.006277 0.000000 0.008070 0.000000
# 2 -0.003961 0.008173 -0.007688 0.000000 0.001591 0.000000
# 3 0.006277 -0.007688 0.030375 0.000000 -0.000679 0.000000
# 4 0.000000 0.000000 0.000000 0.048953 0.000000 -0.000162
# 5 0.008070 0.001591 -0.000679 0.000000 0.073734 0.000000
# 6 0.000000 0.000000 0.000000 -0.000162 0.000000 0.017064
#
#
# Mechanical properties :
#
#
# Convention : Reuss Voigt Hill
#
# Bulk Modulus (GPa) = 23.97740 49.46119 36.71930
# Shear Modulus (GPa) = 23.05781 35.46513 29.26147
#
# Velocity S-wave (km/s) = 3.02395 3.75030 3.40654
# Velocity P-wave (km/s) = 4.65847 6.19422 5.48041
#
# Compressibility (1/GPa) = 0.04170594
#
# Stress axis : x y z
#
# Youngs Moduli (GPa) = 71.93239 122.36003 32.92184
#
# Poissons Ratio (x) = 0.48469 -0.20666
# Poissons Ratio (y) = 0.28494 0.25310
# Poissons Ratio (z) = -0.45155 0.94071
#
# Static dielectric constant tensor:
#      x y z
#    x 2.075030 0.000000 0.040540 
#    y 0.000000 2.000470 0.000000 
#    z 0.040540 0.000000 2.064890 
# 
# From -- ./inp_files/267854.got.cif
#   From: 2010.05.17/outbox.cif.g08.bks.cpg/sg15_134_cif.got.tgz:267854.got - 2010.06.03 18:47:42.
