data_PCOD9280504
_publ_section_title
;
Structure prediction by ZEFSAII (Michael W. Deem and Ramdas Pophale) SiO2 
 PCOD9280504
Probable space group: C 2/C
;
_chemical_formula_sum "Si O2"
_cell_formula_units_Z 52
_cell_length_a 7.853908
_cell_length_b 13.013747
_cell_length_c 22.463561
_cell_angle_alpha 90.000000
_cell_angle_beta 83.265248
_cell_angle_gamma 90.000000
_cell_volume 2280.130079
_symmetry_space_group_name_H-M "C 2/C"
_symmetry_group_IT_number 15
_symmetry_cell_setting 'monoclinic'
loop_
_space_group_symop_operation_xyz
x,y,z
-x,y,1/2-z
-x,-y,-z
x,-y,1/2+z
1/2+x,1/2+y,z
1/2-x,1/2+y,1/2-z
1/2-x,1/2-y,-z
1/2+x,1/2-y,1/2+z
loop_
_atom_site_type_symbol
_atom_site_label
_atom_site_fract_x
_atom_site_fract_y
_atom_site_fract_z
Si Si1 0.467658 0.979434 0.866162
Si Si2 0.818237 0.499868 0.540456
Si Si3 0.628208 0.537346 0.826433
Si Si4 0.220440 0.841831 0.955437
Si Si5 0.000000 0.790516 0.250000
Si Si6 0.258828 0.127167 0.226261
Si Si7 0.585061 0.635167 0.110666
O O1 0.311648 0.050145 0.850721
O O2 0.372498 0.886815 0.906786
O O3 0.575634 0.927321 0.809612
O O4 0.612871 0.038241 0.898246
O O5 0.693610 0.563052 0.502713
O O6 0.741832 0.388619 0.560039
O O7 0.000000 0.500000 0.500000
O O8 0.540424 0.637514 0.804228
O O9 0.668753 0.457264 0.771020
O O10 0.499107 0.477638 0.874619
O O11 0.065291 0.809921 0.918517
O O12 0.250000 0.750000 0.000000
O O13 0.830860 0.720580 0.262144
O O14 0.149245 0.166366 0.173659
#
# Coordination Sequence:
#
# PCOD9280504 Si02
#       7
#     8   8   8   8   4   8   8
#     4   9  20  39  63  83 134 170 200 277 331 375
#     4   9  19  38  60  85 117 169 207 256 332 374
#     4  11  21  41  62  96 131 170 218 268 325 398
#     4  10  21  37  60  93 125 163 222 272 316 395
#     4  12  24  36  70  92 126 182 212 256 338 380
#     4  11  21  42  62  94 136 164 218 276 314 403
#     4  10  21  39  65  86 131 173 207 278 331 380
#
# _framework density 22.805717000000001
#
# number of rings (size 3 to 8) (size 9 to 14) (size 15 to 20)
#    0.000    1.846    3.077    0.462    0.000    2.462 
#    0.000   10.000    0.000    0.000    0.000    0.000 
#    0.000    0.000    0.000    0.000    0.000    0.000 
#
# Total GULP energy -144866.341297 kJ/mol
# GULP energy per Si atom -5571.782358 kJ/mol
# Density = 2.275381 g / cm^3
# Si number density = 22.805717 Si / 1000 Ang^3
#
#
#
# Elastic Constant Matrix: (Units=GPa)
#
#
# Indices 1 2 3 4 5 6 
#
# 1 105.7809 9.7384 26.5894 0.0000 22.4683 0.0000
# 2 9.7384 43.9348 20.9403 0.0000 4.9637 0.0000
# 3 26.5894 20.9403 91.3115 0.0000 8.8322 0.0000
# 4 0.0000 0.0000 0.0000 39.0163 0.0000 27.6892
# 5 22.4683 4.9637 8.8322 0.0000 55.4622 0.0000
# 6 0.0000 0.0000 0.0000 27.6892 0.0000 15.4851
#
#
#
# Elastic Compliance Matrix: (Units=1/GPa)
#
#
# Indices 1 2 3 4 5 6 
#
# 1 0.011035 -0.000728 -0.002661 0.000000 -0.003981 0.000000
# 2 -0.000728 0.025706 -0.005575 0.000000 -0.001118 0.000000
# 3 -0.002661 -0.005575 0.013054 0.000000 -0.000502 0.000000
# 4 0.000000 0.000000 0.000000 -0.095281 0.000000 0.170374
# 5 -0.003981 -0.001118 -0.000502 0.000000 0.019823 0.000000
# 6 0.000000 0.000000 0.000000 0.170374 0.000000 -0.240070
#
#
# Mechanical properties :
#
#
# Convention : Reuss Voigt Hill
#
# Bulk Modulus (GPa) = 31.38117 39.50705 35.44411
# Shear Modulus (GPa) = -21.08073 34.24334 6.58131
#
# Velocity S-wave (km/s) = -3.04363 3.87915 1.70061
# Velocity P-wave (km/s) = 1.19938 6.11757 4.40813
#
# Compressibility (1/GPa) = 0.03186625
#
# Stress axis : x y z
#
# Youngs Moduli (GPa) = 90.61952 38.90176 76.60763
#
# Poissons Ratio (x) = 0.02831 0.20388
# Poissons Ratio (y) = 0.06595 0.42709
# Poissons Ratio (z) = 0.24117 0.21688
#
# Static dielectric constant tensor:
#      x y z
#    x 1.964320 0.000000 0.112020 
#    y 0.000000 1.890270 0.000000 
#    z 0.112020 0.000000 2.117420 
# 
# From -- ./inp_files/263939.got.cif
#   From: 2010.05.17/outbox.cif.g08.bks.cpg/sg15_132_cif.got.tgz:263939.got - 2010.06.03 18:47:42.
