data_PCOD9280551
_publ_section_title
;
Structure prediction by ZEFSAII (Michael W. Deem and Ramdas Pophale) SiO2 
 PCOD9280551
Probable space group: C 2/C
;
_chemical_formula_sum "Si O2"
_cell_formula_units_Z 48
_cell_length_a 21.763403
_cell_length_b 10.925625
_cell_length_c 12.707352
_cell_angle_alpha 90.000000
_cell_angle_beta 120.506689
_cell_angle_gamma 90.000000
_cell_volume 2603.266762
_symmetry_space_group_name_H-M "C 2/C"
_symmetry_group_IT_number 15
_symmetry_cell_setting 'monoclinic'
loop_
_space_group_symop_operation_xyz
x,y,z
-x,y,1/2-z
-x,-y,-z
x,-y,1/2+z
1/2+x,1/2+y,z
1/2-x,1/2+y,1/2-z
1/2-x,1/2-y,-z
1/2+x,1/2-y,1/2+z
loop_
_atom_site_type_symbol
_atom_site_label
_atom_site_fract_x
_atom_site_fract_y
_atom_site_fract_z
Si Si1 0.129132 0.879209 0.403874
Si Si2 0.083358 0.640131 0.452126
Si Si3 0.253157 0.888288 0.340524
Si Si4 0.063212 0.751595 0.658795
Si Si5 0.298529 0.364109 0.805597
Si Si6 0.500000 0.439666 0.750000
Si Si7 0.500000 0.056497 0.750000
O O1 0.090509 0.747369 0.372094
O O2 0.195533 0.883866 0.383205
O O3 0.161116 0.890702 0.549172
O O4 0.069993 0.978725 0.325105
O O5 0.165139 0.604784 0.549400
O O6 0.051058 0.697551 0.531475
O O7 0.039631 0.528230 0.368633
O O8 0.249290 0.755817 0.279582
O O9 0.237561 0.010710 0.261418
O O10 0.140218 0.816452 0.720545
O O11 0.009322 0.853786 0.655550
O O12 0.055553 0.642094 0.735502
#
# Coordination Sequence:
#
# PCOD9280551 Si02
#       7
#     8   8   8   8   8   4   4
#     4  10  21  37  61  87 117 159 200 250 302 360
#     4  10  22  38  61  87 122 158 200 246 306 360
#     4  10  21  41  60  87 123 159 203 253 302 360
#     4   9  21  38  59  83 126 152 194 255 297 355
#     4  10  21  40  59  89 119 163 201 254 302 358
#     4  11  19  38  62  88 119 155 202 248 304 355
#     4  11  21  40  60  92 115 161 200 248 306 363
#
# _framework density 18.438372000000001
#
# number of rings (size 3 to 8) (size 9 to 14) (size 15 to 20)
#    0.000    2.333    1.667    3.000    0.000    8.000 
#    9.000    1.667    0.000    0.000    0.000    0.000 
#    0.000    0.000    0.000    0.000    0.000    0.000 
#
# Total GULP energy -133781.738755 kJ/mol
# GULP energy per Si atom -5574.239115 kJ/mol
# Density = 1.839641 g / cm^3
# Si number density = 18.438372 Si / 1000 Ang^3
#
#
#
# Elastic Constant Matrix: (Units=GPa)
#
#
# Indices 1 2 3 4 5 6 
#
# 1 117.2314 53.7840 34.6177 0.0000 -16.6202 0.0000
# 2 53.7840 141.4494 58.0252 0.0000 -4.4944 0.0000
# 3 34.6177 58.0252 43.5648 0.0000 -4.1924 0.0000
# 4 0.0000 0.0000 0.0000 37.4124 0.0000 3.4040
# 5 -16.6202 -4.4944 -4.1924 0.0000 14.6976 0.0000
# 6 0.0000 0.0000 0.0000 3.4040 0.0000 27.5710
#
#
#
# Elastic Compliance Matrix: (Units=1/GPa)
#
#
# Indices 1 2 3 4 5 6 
#
# 1 0.013125 -0.001780 -0.006872 0.000000 0.012337 0.000000
# 2 -0.001780 0.015847 -0.019968 0.000000 -0.002862 0.000000
# 3 -0.006872 -0.019968 0.055190 0.000000 0.001866 0.000000
# 4 0.000000 0.000000 0.000000 0.027033 0.000000 -0.003338
# 5 0.012337 -0.002862 0.001866 0.000000 0.081647 0.000000
# 6 0.000000 0.000000 0.000000 -0.003338 0.000000 0.036682
#
#
# Mechanical properties :
#
#
# Convention : Reuss Voigt Hill
#
# Bulk Modulus (GPa) = 37.14285 66.12213 51.63249
# Shear Modulus (GPa) = 16.90701 26.32413 21.61557
#
# Velocity S-wave (km/s) = 3.03140 3.78257 3.42762
# Velocity P-wave (km/s) = 5.69566 7.41728 6.61274
#
# Compressibility (1/GPa) = 0.02692308
#
# Stress axis : x y z
#
# Youngs Moduli (GPa) = 76.19106 63.10529 18.11925
#
# Poissons Ratio (x) = 0.11230 0.12451
# Poissons Ratio (y) = 0.13559 0.36180
# Poissons Ratio (z) = 0.52357 1.26007
#
# Static dielectric constant tensor:
#      x y z
#    x 1.634440 0.000000 -0.019170 
#    y 0.000000 1.658720 0.000000 
#    z -0.019170 0.000000 1.617070 
# 
# From -- ./inp_files/110553.got.cif
#   From: 2010.05.17/outbox.cif.g08.bks.cpg/sg15_56_cif.got.tgz:110553.got - 2010.06.03 18:47:42.
