data_PCOD9280773
_publ_section_title
;
Structure prediction by ZEFSAII (Michael W. Deem and Ramdas Pophale) SiO2 
 PCOD9280773
Probable space group: C 2/C
;
_chemical_formula_sum "Si O2"
_cell_formula_units_Z 48
_cell_length_a 13.609050
_cell_length_b 18.577270
_cell_length_c 18.023008
_cell_angle_alpha 90.000000
_cell_angle_beta 26.599745
_cell_angle_gamma 90.000000
_cell_volume 2040.222476
_symmetry_space_group_name_H-M "C 2/C"
_symmetry_group_IT_number 15
_symmetry_cell_setting 'monoclinic'
loop_
_space_group_symop_operation_xyz
x,y,z
-x,y,1/2-z
-x,-y,-z
x,-y,1/2+z
1/2+x,1/2+y,z
1/2-x,1/2+y,1/2-z
1/2-x,1/2-y,-z
1/2+x,1/2-y,1/2+z
loop_
_atom_site_type_symbol
_atom_site_label
_atom_site_fract_x
_atom_site_fract_y
_atom_site_fract_z
Si Si1 0.969074 0.098769 0.683903
Si Si2 0.962464 0.419114 0.496800
Si Si3 0.994178 0.777544 0.062144
Si Si4 0.289319 0.145384 0.246716
Si Si5 0.886378 0.364061 0.248989
Si Si6 0.741073 0.011669 0.121188
O O1 0.711832 0.106749 0.842302
O O2 0.065107 0.170419 0.581189
O O3 0.000000 0.089518 0.750000
O O4 0.084622 0.035805 0.558155
O O5 0.938232 0.398459 0.427074
O O6 0.000000 0.500000 0.500000
O O7 0.770032 0.384500 0.676012
O O8 0.998869 0.697181 0.090318
O O9 0.751874 0.799226 0.193677
O O10 0.139051 0.799241 0.893563
O O11 0.291021 0.073816 0.295588
O O12 0.716431 0.431454 0.376324
O O13 0.000000 0.344801 0.250000
O O14 0.500000 0.005016 0.250000
#
# Coordination Sequence:
#
# PCOD9280773 Si02
#       6
#     8   8   8   8   8   8
#     4  10  22  36  60  92 128 160 204 253 309 378
#     4  11  22  38  62  90 123 161 204 256 310 366
#     4  10  23  40  63  90 128 169 208 257 317 374
#     4  11  22  41  63  90 123 166 212 257 316 374
#     4  10  22  41  62  92 129 164 210 264 310 369
#     4  10  21  37  63  94 127 164 207 262 318 372
#
# _framework density 23.526845000000002
#
# number of rings (size 3 to 8) (size 9 to 14) (size 15 to 20)
#    0.000    1.667    1.667    3.000    4.667    2.667 
#    0.000    8.333    0.000    0.000    0.000    0.000 
#    0.000    0.000    0.000    0.000    0.000    0.000 
#
# Total GULP energy -133741.853617 kJ/mol
# GULP energy per Si atom -5572.577234 kJ/mol
# Density = 2.347330 g / cm^3
# Si number density = 23.526845 Si / 1000 Ang^3
#
#
#
# Elastic Constant Matrix: (Units=GPa)
#
#
# Indices 1 2 3 4 5 6 
#
# 1 104.4271 -5.3872 36.5761 0.0066 28.2688 0.0140
# 2 -5.3872 46.9025 21.2225 -0.0332 5.6991 0.0335
# 3 36.5761 21.2225 122.6202 -0.1069 42.1491 0.0316
# 4 0.0066 -0.0332 -0.1069 38.7001 -0.0112 3.3586
# 5 28.2688 5.6991 42.1491 -0.0112 46.1230 0.0014
# 6 0.0140 0.0335 0.0316 3.3586 0.0014 15.3360
#
#
#
# Elastic Compliance Matrix: (Units=1/GPa)
#
#
# Indices 1 2 3 4 5 6 
#
# 1 0.012054 0.003052 -0.002121 -0.000006 -0.005827 -0.000011
# 2 0.003052 0.023948 -0.004950 0.000010 -0.000306 -0.000047
# 3 -0.002121 -0.004950 0.013104 0.000031 -0.010063 -0.000020
# 4 -0.000006 0.000010 0.000031 0.026340 -0.000019 -0.005769
# 5 -0.005827 -0.000306 -0.010063 -0.000019 0.034486 0.000028
# 6 -0.000011 -0.000047 -0.000020 -0.005769 0.000028 0.066470
#
#
# Mechanical properties :
#
#
# Convention : Reuss Voigt Hill
#
# Bulk Modulus (GPa) = 24.34962 42.08586 33.21774
# Shear Modulus (GPa) = 25.23608 34.80105 30.01856
#
# Velocity S-wave (km/s) = 3.27869 3.85022 3.57589
# Velocity P-wave (km/s) = 4.97044 6.13945 5.58561
#
# Compressibility (1/GPa) = 0.04106840
#
# Stress axis : x y z
#
# Youngs Moduli (GPa) = 82.96237 41.75642 76.31409
#
# Poissons Ratio (x) = -0.12745 0.16185
# Poissons Ratio (y) = -0.25321 0.37775
# Poissons Ratio (z) = 0.17595 0.20669
#
# Static dielectric constant tensor:
#      x y z
#    x 1.950020 0.000020 0.075110 
#    y 0.000020 2.019070 0.000140 
#    z 0.075110 0.000140 2.047430 
# 
# From -- ./inp_files/206673.got.cif
#   From: 2010.05.17/outbox.cif.g08.bks.cpg/sg15_104_cif.got.tgz:206673.got - 2010.06.03 18:47:42.
