data_PCOD9280548
_publ_section_title
;
Structure prediction by ZEFSAII (Michael W. Deem and Ramdas Pophale) SiO2 
 PCOD9280548
Probable space group: C 2/C
;
_chemical_formula_sum "Si O2"
_cell_formula_units_Z 60
_cell_length_a 11.897823
_cell_length_b 27.666854
_cell_length_c 7.410446
_cell_angle_alpha 90.000000
_cell_angle_beta 88.710139
_cell_angle_gamma 90.000000
_cell_volume 2438.717914
_symmetry_space_group_name_H-M "C 2/C"
_symmetry_group_IT_number 15
_symmetry_cell_setting 'monoclinic'
loop_
_space_group_symop_operation_xyz
x,y,z
-x,y,1/2-z
-x,-y,-z
x,-y,1/2+z
1/2+x,1/2+y,z
1/2-x,1/2+y,1/2-z
1/2-x,1/2-y,-z
1/2+x,1/2-y,1/2+z
loop_
_atom_site_type_symbol
_atom_site_label
_atom_site_fract_x
_atom_site_fract_y
_atom_site_fract_z
Si Si1 0.593690 0.040195 0.048063
Si Si2 0.323386 0.693872 0.765004
Si Si3 0.732652 0.660807 0.105938
Si Si4 0.882277 0.935406 0.941375
Si Si5 0.138349 0.707919 0.065415
Si Si6 0.031500 0.634006 0.539760
Si Si7 0.500000 0.391263 0.250000
Si Si8 0.738048 0.487247 0.239566
O O1 0.660001 0.023894 0.221726
O O2 0.530048 0.089959 0.053888
O O3 0.701423 0.045160 0.911239
O O4 0.500000 0.000000 0.000000
O O5 0.313264 0.697166 0.547361
O O6 0.383083 0.737549 0.869263
O O7 0.392927 0.644024 0.782091
O O8 0.203741 0.697995 0.873414
O O9 0.648396 0.616191 0.144954
O O10 0.837869 0.635858 0.002563
O O11 0.779694 0.685436 0.284094
O O12 0.789731 0.954479 0.089285
O O13 0.984922 0.923683 0.071568
O O14 0.869838 0.979797 0.803978
O O15 0.021230 0.681804 0.043305
O O16 0.000000 0.629471 0.750000
#
# Coordination Sequence:
#
# PCOD9280548 Si02
#       8
#     8   8   8   8   8   8   4   8
#     4  11  21  34  58  91 131 172 206 259 324 395
#     4  10  24  47  65  96 129 168 219 277 336 387
#     4  11  22  41  67  96 133 171 216 265 336 400
#     4  10  22  42  62  96 122 177 218 275 326 384
#     4  11  24  42  69  96 132 170 212 270 339 401
#     4  12  22  36  61  98 133 169 211 261 324 405
#     4  10  24  44  74  86 132 168 232 280 330 388
#     4  10  21  37  61  86 133 167 219 264 320 389
#
# _framework density 24.603090000000002
#
# number of rings (size 3 to 8) (size 9 to 14) (size 15 to 20)
#    0.000    1.333    1.333    5.200    3.733    1.600 
#    0.000    2.667    0.000    0.000    0.000    0.000 
#    0.000    0.000    0.000    0.000    0.000    0.000 
#
# Total GULP energy -167627.294904 kJ/mol
# GULP energy per Si atom -5587.576497 kJ/mol
# Density = 2.454709 g / cm^3
# Si number density = 24.603090 Si / 1000 Ang^3
#
#
#
# Elastic Constant Matrix: (Units=GPa)
#
#
# Indices 1 2 3 4 5 6 
#
# 1 48.0533 14.7778 -4.9887 0.0000 12.8938 0.0000
# 2 14.7778 91.9032 4.9776 0.0000 15.7813 0.0000
# 3 -4.9887 4.9776 76.9662 0.0000 1.2614 0.0000
# 4 0.0000 0.0000 0.0000 20.3153 0.0000 18.6100
# 5 12.8938 15.7813 1.2614 0.0000 42.6166 0.0000
# 6 0.0000 0.0000 0.0000 18.6100 0.0000 29.3600
#
#
#
# Elastic Compliance Matrix: (Units=1/GPa)
#
#
# Indices 1 2 3 4 5 6 
#
# 1 0.023509 -0.002827 0.001807 0.000000 -0.006119 0.000000
# 2 -0.002827 0.011996 -0.000901 0.000000 -0.003560 0.000000
# 3 0.001807 -0.000901 0.013178 0.000000 -0.000603 0.000000
# 4 0.000000 0.000000 0.000000 0.117381 0.000000 -0.074402
# 5 -0.006119 -0.003560 -0.000603 0.000000 0.026653 0.000000
# 6 0.000000 0.000000 0.000000 -0.074402 0.000000 0.081220
#
#
# Mechanical properties :
#
#
# Convention : Reuss Voigt Hill
#
# Bulk Modulus (GPa) = 22.30112 27.38399 24.84255
# Shear Modulus (GPa) = 17.08086 31.93547 24.50816
#
# Velocity S-wave (km/s) = 2.63773 3.60672 3.15960
# Velocity P-wave (km/s) = 4.28496 5.33845 4.84045
#
# Compressibility (1/GPa) = 0.04484080
#
# Stress axis : x y z
#
# Youngs Moduli (GPa) = 42.53647 83.36291 75.88421
#
# Poissons Ratio (x) = 0.23569 -0.13712
# Poissons Ratio (y) = 0.12026 0.06835
# Poissons Ratio (z) = -0.07686 0.07509
#
# Static dielectric constant tensor:
#      x y z
#    x 1.943690 0.000000 -0.034830 
#    y 0.000000 2.101680 0.000000 
#    z -0.034830 0.000000 2.075520 
# 
# From -- ./inp_files/35269.got.cif
#   From: 2010.05.17/outbox.cif.g08.bks.cpg/sg15_18_cif.got.tgz:35269.got - 2010.06.03 18:47:42.
