data_PCOD9280564
_publ_section_title
;
Structure prediction by ZEFSAII (Michael W. Deem and Ramdas Pophale) SiO2 
 PCOD9280564
Probable space group: C 2/C
;
_chemical_formula_sum "Si O2"
_cell_formula_units_Z 56
_cell_length_a 5.904032
_cell_length_b 16.217364
_cell_length_c 26.213539
_cell_angle_alpha 90.000000
_cell_angle_beta 99.789891
_cell_angle_gamma 90.000000
_cell_volume 2473.340405
_symmetry_space_group_name_H-M "C 2/C"
_symmetry_group_IT_number 15
_symmetry_cell_setting 'monoclinic'
loop_
_space_group_symop_operation_xyz
x,y,z
-x,y,1/2-z
-x,-y,-z
x,-y,1/2+z
1/2+x,1/2+y,z
1/2-x,1/2+y,1/2-z
1/2-x,1/2-y,-z
1/2+x,1/2-y,1/2+z
loop_
_atom_site_type_symbol
_atom_site_label
_atom_site_fract_x
_atom_site_fract_y
_atom_site_fract_z
Si Si1 0.740267 0.580898 0.235023
Si Si2 0.456245 0.579882 0.127367
Si Si3 0.821580 0.245707 0.391722
Si Si4 0.116291 0.026216 0.556676
Si Si5 0.997951 0.388732 0.914389
Si Si6 0.125093 0.667217 0.978809
Si Si7 0.264116 0.224373 0.769785
O O1 0.500000 0.546404 0.250000
O O2 0.664985 0.575837 0.173578
O O3 0.748798 0.678929 0.247920
O O4 0.000000 0.547104 0.250000
O O5 0.500415 0.667526 0.100727
O O6 0.443418 0.496067 0.094813
O O7 0.196139 0.590717 0.134933
O O8 0.594027 0.199971 0.402050
O O9 0.805997 0.276683 0.332841
O O10 0.901853 0.310161 0.437177
O O11 0.212984 0.115871 0.552688
O O12 0.317180 0.961184 0.576744
O O13 0.000000 0.000000 0.500000
O O14 0.921269 0.382389 0.970827
O O15 0.250000 0.750000 0.000000
O O16 0.500000 0.192263 0.750000
O O17 0.000000 0.191322 0.750000
#
# Coordination Sequence:
#
# PCOD9280564 Si02
#       7
#     8   8   8   8   8   8   8
#     4   9  19  32  56  91 123 156 208 266 321 375
#     4  10  21  37  61  88 124 166 203 264 323 385
#     4  10  22  35  59  91 120 163 209 265 322 378
#     4  11  23  40  59  87 123 165 211 254 322 391
#     4  11  22  39  61  87 131 164 209 260 328 388
#     4  12  22  40  60  90 125 164 212 262 311 388
#     4   9  19  33  56  87 124 161 207 265 324 380
#
# _framework density 22.641445999999998
#
# number of rings (size 3 to 8) (size 9 to 14) (size 15 to 20)
#    0.000    1.714    2.857    1.714   12.000    0.000 
#    0.000    0.000    0.000    0.857    0.000    0.000 
#    0.000    0.000    0.000    0.000    0.000    0.000 
#
# Total GULP energy -155960.903048 kJ/mol
# GULP energy per Si atom -5570.032252 kJ/mol
# Density = 2.258991 g / cm^3
# Si number density = 22.641446 Si / 1000 Ang^3
#
#
#
# Elastic Constant Matrix: (Units=GPa)
#
#
# Indices 1 2 3 4 5 6 
#
# 1 132.0746 12.5569 48.9862 0.0000 28.3361 0.0000
# 2 12.5569 39.7288 11.3566 0.0000 8.9521 0.0000
# 3 48.9862 11.3566 92.4951 0.0000 24.7411 0.0000
# 4 0.0000 0.0000 0.0000 11.8789 0.0000 -2.5020
# 5 28.3361 8.9521 24.7411 0.0000 39.5814 0.0000
# 6 0.0000 0.0000 0.0000 -2.5020 0.0000 25.2933
#
#
#
# Elastic Compliance Matrix: (Units=1/GPa)
#
#
# Indices 1 2 3 4 5 6 
#
# 1 0.010131 -0.001035 -0.004036 0.000000 -0.004496 0.000000
# 2 -0.001035 0.026935 -0.001594 0.000000 -0.004354 0.000000
# 3 -0.004036 -0.001594 0.014740 0.000000 -0.005964 0.000000
# 4 0.000000 0.000000 0.000000 0.085974 0.000000 0.008504
# 5 -0.004496 -0.004354 -0.005964 0.000000 0.033196 0.000000
# 6 0.000000 0.000000 0.000000 0.008504 0.000000 0.040377
#
#
# Mechanical properties :
#
#
# Convention : Reuss Voigt Hill
#
# Bulk Modulus (GPa) = 25.99076 45.56645 35.77860
# Shear Modulus (GPa) = 21.05183 28.11062 24.58122
#
# Velocity S-wave (km/s) = 3.05256 3.52739 3.29853
# Velocity P-wave (km/s) = 4.89166 6.06292 5.50851
#
# Compressibility (1/GPa) = 0.03847522
#
# Stress axis : x y z
#
# Youngs Moduli (GPa) = 98.70236 37.12681 67.84389
#
# Poissons Ratio (x) = 0.03844 0.27381
# Poissons Ratio (y) = 0.10220 0.10814
# Poissons Ratio (z) = 0.39836 0.05918
#
# Static dielectric constant tensor:
#      x y z
#    x 2.030790 0.000000 -0.095910 
#    y 0.000000 1.822850 0.000000 
#    z -0.095910 0.000000 1.958780 
# 
# From -- ./inp_files/286100.got.cif
#   From: 2010.05.17/outbox.cif.g08.bks.cpg/sg15_144_cif.got.tgz:286100.got - 2010.06.03 18:47:42.
