data_PCOD9280836
_publ_section_title
;
Structure prediction by ZEFSAII (Michael W. Deem and Ramdas Pophale) SiO2 
 PCOD9280836
Probable space group: C 2/C
;
_chemical_formula_sum "Si O2"
_cell_formula_units_Z 32
_cell_length_a 15.546068
_cell_length_b 5.226239
_cell_length_c 16.274341
_cell_angle_alpha 90.000000
_cell_angle_beta 68.851157
_cell_angle_gamma 90.000000
_cell_volume 1233.190632
_symmetry_space_group_name_H-M "C 2/C"
_symmetry_group_IT_number 15
_symmetry_cell_setting 'monoclinic'
loop_
_space_group_symop_operation_xyz
x,y,z
-x,y,1/2-z
-x,-y,-z
x,-y,1/2+z
1/2+x,1/2+y,z
1/2-x,1/2+y,1/2-z
1/2-x,1/2-y,-z
1/2+x,1/2-y,1/2+z
loop_
_atom_site_type_symbol
_atom_site_label
_atom_site_fract_x
_atom_site_fract_y
_atom_site_fract_z
Si Si1 0.852114 0.929990 0.177843
Si Si2 0.142053 0.562170 0.754960
Si Si3 0.588332 0.628739 0.013783
Si Si4 0.349977 0.156209 0.430569
O O1 0.900148 0.171082 0.202830
O O2 0.840008 0.933885 0.084614
O O3 0.903306 0.667936 0.179932
O O4 0.748439 0.911620 0.250191
O O5 0.144044 0.471860 0.661010
O O6 0.104421 0.428009 0.029105
O O7 0.500000 0.500000 0.000000
O O8 0.602994 0.436594 0.084489
O O9 0.250000 0.250000 0.500000
#
# Coordination Sequence:
#
# PCOD9280836 Si02
#       4
#     8   8   8   8
#     4  10  21  38  62  93 132 166 214 274 342 390
#     4  10  21  37  64  96 124 165 223 281 323 387
#     4  12  26  44  65  98 140 179 215 277 355 412
#     4  12  24  42  70  99 129 172 237 277 323 403
#
# _framework density 25.948947
#
# number of rings (size 3 to 8) (size 9 to 14) (size 15 to 20)
#    0.000    1.000    2.500    4.500    7.000    0.000 
#    0.000    7.500    0.000    0.000    0.000    0.000 
#    0.000    0.000    0.000    0.000    0.000    0.000 
#
# Total GULP energy -89176.647705 kJ/mol
# GULP energy per Si atom -5573.540482 kJ/mol
# Density = 2.588989 g / cm^3
# Si number density = 25.948947 Si / 1000 Ang^3
#
#
#
# Elastic Constant Matrix: (Units=GPa)
#
#
# Indices 1 2 3 4 5 6 
#
# 1 40.9818 33.7084 -10.1276 0.0013 -2.7111 0.0009
# 2 33.7084 210.9954 39.2118 0.0057 -0.8137 0.0028
# 3 -10.1276 39.2118 106.2679 0.0013 13.2391 0.0012
# 4 0.0013 0.0057 0.0013 56.7308 0.0009 7.4571
# 5 -2.7111 -0.8137 13.2391 0.0009 23.1637 0.0006
# 6 0.0009 0.0028 0.0012 7.4571 0.0006 27.4621
#
#
#
# Elastic Compliance Matrix: (Units=1/GPa)
#
#
# Indices 1 2 3 4 5 6 
#
# 1 0.030418 -0.005781 0.004967 0.000000 0.000518 -0.000001
# 2 -0.005781 0.006226 -0.003005 0.000000 0.001260 0.000000
# 3 0.004967 -0.003005 0.011771 0.000000 -0.006252 0.000000
# 4 0.000000 0.000000 0.000000 0.018280 -0.000001 -0.004964
# 5 0.000518 0.001260 -0.006252 -0.000001 0.046849 -0.000001
# 6 -0.000001 0.000000 0.000000 -0.004964 -0.000001 0.037762
#
#
# Mechanical properties :
#
#
# Convention : Reuss Voigt Hill
#
# Bulk Modulus (GPa) = 24.52295 53.75891 39.14093
# Shear Modulus (GPa) = 28.97955 41.16816 35.07386
#
# Velocity S-wave (km/s) = 3.34547 3.98742 3.68047
# Velocity P-wave (km/s) = 4.93901 6.47777 5.76001
#
# Compressibility (1/GPa) = 0.04077812
#
# Stress axis : x y z
#
# Youngs Moduli (GPa) = 32.87576 160.60865 84.95157
#
# Poissons Ratio (x) = 0.92842 -0.42198
# Poissons Ratio (y) = 0.19004 0.25531
# Poissons Ratio (z) = -0.16331 0.48268
#
# Static dielectric constant tensor:
#      x y z
#    x 2.321780 -0.000010 -0.117070 
#    y -0.000010 2.156820 0.000000 
#    z -0.117070 0.000000 2.108100 
# 
# From -- ./inp_files/158220.got.cif
#   From: 2010.05.17/outbox.cif.g08.bks.cpg/sg15_80_cif.got.tgz:158220.got - 2010.06.03 18:47:42.
