data_PCOD9280097
_publ_section_title
;
Structure prediction by ZEFSAII (Michael W. Deem and Ramdas Pophale) SiO2 
 PCOD9280097
Probable space group: C 2/C
;
_chemical_formula_sum "Si O2"
_cell_formula_units_Z 52
_cell_length_a 25.679605
_cell_length_b 8.864800
_cell_length_c 11.296437
_cell_angle_alpha 90.000000
_cell_angle_beta 99.937236
_cell_angle_gamma 90.000000
_cell_volume 2532.992141
_symmetry_space_group_name_H-M "C 2/C"
_symmetry_group_IT_number 15
_symmetry_cell_setting 'monoclinic'
loop_
_space_group_symop_operation_xyz
x,y,z
-x,y,1/2-z
-x,-y,-z
x,-y,1/2+z
1/2+x,1/2+y,z
1/2-x,1/2+y,1/2-z
1/2-x,1/2-y,-z
1/2+x,1/2-y,1/2+z
loop_
_atom_site_type_symbol
_atom_site_label
_atom_site_fract_x
_atom_site_fract_y
_atom_site_fract_z
Si Si1 0.125252 0.768533 0.194816
Si Si2 0.311074 0.778525 0.998855
Si Si3 0.103155 0.477099 0.888405
Si Si4 0.500000 0.154197 0.750000
Si Si5 0.057079 0.056717 0.486925
Si Si6 0.415759 0.755509 0.405415
Si Si7 0.875063 0.910319 0.687869
O O1 0.112509 0.644588 0.287842
O O2 0.078214 0.811013 0.081990
O O3 0.135356 0.928546 0.260918
O O4 0.174236 0.718238 0.133431
O O5 0.337692 0.630463 0.065936
O O6 0.345518 0.915788 0.069606
O O7 0.250000 0.750000 0.000000
O O8 0.049366 0.561633 0.827493
O O9 0.093360 0.391754 0.009251
O O10 0.529301 0.225960 0.645485
O O11 0.067464 0.091554 0.353725
O O12 0.087952 0.899979 0.523204
O O13 0.000000 0.000000 0.500000
O O14 0.373807 0.721163 0.284989
#
# Coordination Sequence:
#
# PCOD9280097 Si02
#       7
#     8   8   8   4   8   8   8
#     4  10  24  43  67  97 133 176 223 279 335 404
#     4  11  26  47  70  96 130 171 228 286 343 404
#     4  12  25  43  68 101 137 180 225 278 343 403
#     4  12  24  38  62 100 146 172 222 272 332 408
#     4  10  21  36  66  95 137 180 227 264 329 397
#     4  11  22  39  64  96 137 183 216 268 330 399
#     4  10  21  46  64  94 134 171 226 274 327 402
#
# _framework density 20.529081999999999
#
# number of rings (size 3 to 8) (size 9 to 14) (size 15 to 20)
#    0.000    1.231    3.077    2.308    4.308    3.077 
#    0.000    0.769    0.000    0.000    0.000    0.000 
#    0.000    0.000    0.000    0.000    0.000    0.000 
#
# Total GULP energy -144897.882077 kJ/mol
# GULP energy per Si atom -5572.995464 kJ/mol
# Density = 2.048236 g / cm^3
# Si number density = 20.529082 Si / 1000 Ang^3
#
#
#
# Elastic Constant Matrix: (Units=GPa)
#
#
# Indices 1 2 3 4 5 6 
#
# 1 111.7423 46.6525 41.5208 0.0000 -19.1453 0.0000
# 2 46.6525 113.3447 64.7331 0.0000 -7.5331 0.0000
# 3 41.5208 64.7331 132.9915 0.0000 -20.4720 0.0000
# 4 0.0000 0.0000 0.0000 59.6188 0.0000 -1.0298
# 5 -19.1453 -7.5331 -20.4720 0.0000 21.1668 0.0000
# 6 0.0000 0.0000 0.0000 -1.0298 0.0000 12.4899
#
#
#
# Elastic Compliance Matrix: (Units=1/GPa)
#
#
# Indices 1 2 3 4 5 6 
#
# 1 0.012497 -0.004318 -0.000348 0.000000 0.009430 0.000000
# 2 -0.004318 0.013761 -0.006106 0.000000 -0.004914 0.000000
# 3 -0.000348 -0.006106 0.012004 0.000000 0.009122 0.000000
# 4 0.000000 0.000000 0.000000 0.016797 0.000000 0.001385
# 5 0.009430 -0.004914 0.009122 0.000000 0.062847 0.000000
# 6 0.000000 0.000000 0.000000 0.001385 0.000000 0.080179
#
#
# Mechanical properties :
#
#
# Convention : Reuss Voigt Hill
#
# Bulk Modulus (GPa) = 59.81968 73.76570 66.79269
# Shear Modulus (GPa) = 22.20213 32.33323 27.26768
#
# Velocity S-wave (km/s) = 3.29218 3.97293 3.64847
# Velocity P-wave (km/s) = 6.60708 7.55353 7.09610
#
# Compressibility (1/GPa) = 0.01671691
#
# Stress axis : x y z
#
# Youngs Moduli (GPa) = 80.01878 72.67007 83.30230
#
# Poissons Ratio (x) = 0.31380 0.02901
# Poissons Ratio (y) = 0.34553 0.50867
# Poissons Ratio (z) = 0.02786 0.44375
#
# Static dielectric constant tensor:
#      x y z
#    x 1.808090 0.000000 0.002190 
#    y 0.000000 1.830320 0.000000 
#    z 0.002190 0.000000 1.797370 
# 
# From -- ./inp_files/121500.got.cif
#   From: 2010.05.17/outbox.cif.g08.bks.cpg/sg15_61_cif.got.tgz:121500.got - 2010.06.03 18:47:42.
