data_PCOD9280501
_publ_section_title
;
Structure prediction by ZEFSAII (Michael W. Deem and Ramdas Pophale) SiO2 
 PCOD9280501
Probable space group: C 2/C
;
_chemical_formula_sum "Si O2"
_cell_formula_units_Z 60
_cell_length_a 16.214028
_cell_length_b 23.706450
_cell_length_c 17.600623
_cell_angle_alpha 90.000000
_cell_angle_beta 156.422036
_cell_angle_gamma 90.000000
_cell_volume 2706.086967
_symmetry_space_group_name_H-M "C 2/C"
_symmetry_group_IT_number 15
_symmetry_cell_setting 'monoclinic'
loop_
_space_group_symop_operation_xyz
x,y,z
-x,y,1/2-z
-x,-y,-z
x,-y,1/2+z
1/2+x,1/2+y,z
1/2-x,1/2+y,1/2-z
1/2-x,1/2-y,-z
1/2+x,1/2-y,1/2+z
loop_
_atom_site_type_symbol
_atom_site_label
_atom_site_fract_x
_atom_site_fract_y
_atom_site_fract_z
Si Si1 0.729869 0.499207 0.406526
Si Si2 0.567335 0.093641 0.727051
Si Si3 0.145453 0.725204 0.215986
Si Si4 0.411725 0.623519 0.484415
Si Si5 0.477064 0.544467 0.413671
Si Si6 0.000000 0.281201 0.750000
Si Si7 0.651406 0.166756 0.652080
Si Si8 0.775729 0.114902 0.528125
O O1 0.500000 0.503318 0.250000
O O2 0.672167 0.515887 0.272563
O O3 0.810263 0.436639 0.494868
O O4 0.901013 0.543724 0.576696
O O5 0.500000 0.121506 0.750000
O O6 0.558625 0.136522 0.647996
O O7 0.798945 0.066725 0.925588
O O8 0.322701 0.685826 0.400669
O O9 0.062569 0.751291 0.226117
O O10 0.242003 0.772326 0.243028
O O11 0.996632 0.684082 0.042453
O O12 0.375776 0.596435 0.372383
O O13 0.655316 0.627013 0.706638
O O14 0.302863 0.594006 0.463644
O O15 0.500000 0.500000 0.500000
O O16 0.842361 0.326628 0.579773
O O17 0.000000 0.126178 0.750000
#
# Coordination Sequence:
#
# PCOD9280501 Si02
#       8
#     8   8   8   8   8   4   8   8
#     4  11  22  38  65  95 131 174 213 263 325 392
#     4  11  25  43  66  96 131 175 227 283 325 394
#     4  11  22  42  66  93 128 173 214 273 332 400
#     4  10  22  40  62  92 129 168 210 264 321 396
#     4  11  23  40  65  97 134 174 217 267 335 395
#     4  10  24  38  64 100 132 172 214 258 326 406
#     4  11  23  43  66  92 129 166 220 273 338 379
#     4  10  21  37  60  92 132 166 207 256 312 392
#
# _framework density 22.172236000000002
#
# number of rings (size 3 to 8) (size 9 to 14) (size 15 to 20)
#    0.000    1.333    2.667    3.200    0.933    3.200 
#    1.200    0.667    0.000    0.000    0.000    0.000 
#    0.000    0.000    0.000    0.000    0.000    0.000 
#
# Total GULP energy -167467.736890 kJ/mol
# GULP energy per Si atom -5582.257896 kJ/mol
# Density = 2.212177 g / cm^3
# Si number density = 22.172236 Si / 1000 Ang^3
#
#
#
# Elastic Constant Matrix: (Units=GPa)
#
#
# Indices 1 2 3 4 5 6 
#
# 1 101.2787 31.5482 14.8078 0.0000 -22.6400 0.0001
# 2 31.5482 79.3775 10.9237 0.0001 -5.1057 0.0000
# 3 14.8078 10.9237 94.2679 -0.0001 -13.2414 0.0000
# 4 0.0000 0.0001 -0.0001 10.5322 0.0000 -13.3166
# 5 -22.6400 -5.1057 -13.2414 0.0000 24.0721 0.0000
# 6 0.0001 0.0000 0.0000 -13.3166 0.0000 38.7070
#
#
#
# Elastic Compliance Matrix: (Units=1/GPa)
#
#
# Indices 1 2 3 4 5 6 
#
# 1 0.014115 -0.004829 0.000068 0.000000 0.012289 0.000000
# 2 -0.004829 0.014549 -0.001227 0.000000 -0.002131 0.000000
# 3 0.000068 -0.001227 0.011609 0.000000 0.006190 0.000000
# 4 0.000000 0.000000 0.000000 0.168044 0.000000 0.057813
# 5 0.012289 -0.002131 0.006190 0.000000 0.056052 0.000000
# 6 0.000000 0.000000 0.000000 0.057813 0.000000 0.045725
#
#
# Mechanical properties :
#
#
# Convention : Reuss Voigt Hill
#
# Bulk Modulus (GPa) = 35.33723 43.27595 39.30659
# Shear Modulus (GPa) = 15.08292 29.17189 22.12741
#
# Velocity S-wave (km/s) = 2.61101 3.63119 3.16251
# Velocity P-wave (km/s) = 5.00620 6.09435 5.57688
#
# Compressibility (1/GPa) = 0.02829876
#
# Stress axis : x y z
#
# Youngs Moduli (GPa) = 70.84688 68.73310 86.14055
#
# Poissons Ratio (x) = 0.33191 -0.00590
# Poissons Ratio (y) = 0.34211 0.10566
# Poissons Ratio (z) = -0.00485 0.08431
#
# Static dielectric constant tensor:
#      x y z
#    x 1.325340 -0.000010 0.125520 
#    y -0.000010 2.003270 0.000000 
#    z 0.125520 0.000000 1.862990 
# 
# From -- ./inp_files/157341.got.cif
#   From: 2010.05.17/outbox.cif.g08.bks.cpg/sg15_79_cif.got.tgz:157341.got - 2010.06.03 18:47:42.
