data_PCOD9280941
_publ_section_title
;
Structure prediction by ZEFSAII (Michael W. Deem and Ramdas Pophale) SiO2 
 PCOD9280941
Probable space group: C 2/C
;
_chemical_formula_sum "Si O2"
_cell_formula_units_Z 44
_cell_length_a 22.497316
_cell_length_b 20.167195
_cell_length_c 15.498539
_cell_angle_alpha 90.000000
_cell_angle_beta 15.870782
_cell_angle_gamma 90.000000
_cell_volume 1922.979528
_symmetry_space_group_name_H-M "C 2/C"
_symmetry_group_IT_number 15
_symmetry_cell_setting 'monoclinic'
loop_
_space_group_symop_operation_xyz
x,y,z
-x,y,1/2-z
-x,-y,-z
x,-y,1/2+z
1/2+x,1/2+y,z
1/2-x,1/2+y,1/2-z
1/2-x,1/2-y,-z
1/2+x,1/2-y,1/2+z
loop_
_atom_site_type_symbol
_atom_site_label
_atom_site_fract_x
_atom_site_fract_y
_atom_site_fract_z
Si Si1 0.044608 0.966827 0.347280
Si Si2 0.636240 0.831734 0.239663
Si Si3 0.496970 0.818184 0.886043
Si Si4 0.000000 0.942266 0.750000
Si Si5 0.500000 0.079679 0.250000
Si Si6 0.000000 0.718817 0.750000
Si Si7 0.508607 0.327019 0.338849
O O1 0.947864 0.892498 0.475428
O O2 0.307018 0.960350 0.974309
O O3 0.000000 0.000000 0.500000
O O4 0.957965 0.011228 0.390536
O O5 0.494216 0.835066 0.525382
O O6 0.516650 0.822392 0.315483
O O7 0.790925 0.767375 0.038959
O O8 0.796452 0.894458 0.014689
O O9 0.387385 0.875945 0.983169
O O10 0.403032 0.744267 0.005309
O O11 0.731837 0.816794 0.511957
O O12 0.500000 0.342607 0.250000
#
# Coordination Sequence:
#
# PCOD9280941 Si02
#       7
#     8   8   8   4   4   4   8
#     4  11  24  44  65  88 132 177 210 261 318 377
#     4  10  22  40  64  91 129 167 206 262 321 374
#     4  10  21  37  67  94 125 157 202 273 331 366
#     4  11  24  45  60  91 132 167 220 260 300 395
#     4  10  22  42  64  98 124 160 224 262 316 394
#     4   9  22  39  58  95 128 163 216 256 308 391
#     4  10  21  39  61  96 123 154 212 261 311 385
#
# _framework density 22.881157999999999
#
# number of rings (size 3 to 8) (size 9 to 14) (size 15 to 20)
#    0.000    1.818    1.818    1.091    2.545    5.091 
#    3.273    2.727    0.000    0.000    0.000    0.000 
#    0.000    0.000    0.000    0.000    0.000    0.000 
#
# Total GULP energy -122889.460502 kJ/mol
# GULP energy per Si atom -5585.884568 kJ/mol
# Density = 2.282908 g / cm^3
# Si number density = 22.881158 Si / 1000 Ang^3
#
#
#
# Elastic Constant Matrix: (Units=GPa)
#
#
# Indices 1 2 3 4 5 6 
#
# 1 168.4838 57.3420 21.8620 -0.0549 29.6343 -0.0007
# 2 57.3420 134.4819 25.3215 -0.0156 18.7527 0.0125
# 3 21.8620 25.3215 50.7877 -0.0538 17.3180 -0.0051
# 4 -0.0549 -0.0156 -0.0538 11.6164 0.0473 9.2757
# 5 29.6343 18.7527 17.3180 0.0473 43.6875 -0.0058
# 6 -0.0007 0.0125 -0.0051 9.2757 -0.0058 37.9799
#
#
#
# Elastic Compliance Matrix: (Units=1/GPa)
#
#
# Indices 1 2 3 4 5 6 
#
# 1 0.007559 -0.002570 -0.000694 0.000055 -0.003750 -0.000013
# 2 -0.002570 0.009266 -0.003182 -0.000009 -0.000973 -0.000001
# 3 -0.000694 -0.003182 0.024223 0.000166 -0.007766 -0.000038
# 4 0.000055 -0.000009 0.000166 0.106943 -0.000218 -0.026118
# 5 -0.003750 -0.000973 -0.007766 -0.000218 0.028930 0.000057
# 6 -0.000013 -0.000001 -0.000038 -0.026118 0.000057 0.032709
#
#
# Mechanical properties :
#
#
# Convention : Reuss Voigt Hill
#
# Bulk Modulus (GPa) = 35.51488 62.53382 49.02435
# Shear Modulus (GPa) = 21.56025 35.27194 28.41610
#
# Velocity S-wave (km/s) = 3.07297 3.93049 3.52788
# Velocity P-wave (km/s) = 5.30528 6.92730 6.16983
#
# Compressibility (1/GPa) = 0.02815721
#
# Stress axis : x y z
#
# Youngs Moduli (GPa) = 132.28418 107.91573 41.28261
#
# Poissons Ratio (x) = 0.27731 0.02866
# Poissons Ratio (y) = 0.33993 0.13136
# Poissons Ratio (z) = 0.09183 0.34340
#
# Static dielectric constant tensor:
#      x y z
#    x 1.870640 0.000000 -0.041600 
#    y 0.000000 1.900290 0.000070 
#    z -0.041600 0.000070 1.929520 
# 
# From -- ./inp_files/174202.got.cif
#   From: 2010.05.17/outbox.cif.g08.bks.cpg/sg15_88_cif.got.tgz:174202.got - 2010.06.03 18:47:42.
