data_PCOD9280382
_publ_section_title
;
Structure prediction by ZEFSAII (Michael W. Deem and Ramdas Pophale) SiO2 
 PCOD9280382
Probable space group: C 2/C
;
_chemical_formula_sum "Si O2"
_cell_formula_units_Z 64
_cell_length_a 20.400369
_cell_length_b 9.449339
_cell_length_c 21.913932
_cell_angle_alpha 90.000000
_cell_angle_beta 43.716606
_cell_angle_gamma 90.000000
_cell_volume 2919.413267
_symmetry_space_group_name_H-M "C 2/C"
_symmetry_group_IT_number 15
_symmetry_cell_setting 'monoclinic'
loop_
_space_group_symop_operation_xyz
x,y,z
-x,y,1/2-z
-x,-y,-z
x,-y,1/2+z
1/2+x,1/2+y,z
1/2-x,1/2+y,1/2-z
1/2-x,1/2-y,-z
1/2+x,1/2-y,1/2+z
loop_
_atom_site_type_symbol
_atom_site_label
_atom_site_fract_x
_atom_site_fract_y
_atom_site_fract_z
Si Si1 0.726682 0.087646 0.519307
Si Si2 0.562228 0.276175 0.059709
Si Si3 0.250033 0.834104 0.754092
Si Si4 0.234540 0.930245 0.180208
Si Si5 0.916667 0.465213 0.482241
Si Si6 0.713837 0.466992 0.901069
Si Si7 0.081313 0.209452 0.938273
Si Si8 0.101322 0.914444 0.160578
O O1 0.750000 0.250000 0.500000
O O2 0.627248 0.073650 0.552770
O O3 0.719943 0.028179 0.591531
O O4 0.817046 0.009374 0.426631
O O5 0.488379 0.357112 0.065313
O O6 0.571102 0.307341 0.125801
O O7 0.533927 0.114849 0.063129
O O8 0.662135 0.328527 0.964080
O O9 0.221077 0.684250 0.803081
O O10 0.264617 0.928203 0.804403
O O11 0.340654 0.788834 0.654863
O O12 0.192184 0.936976 0.747449
O O13 0.322138 0.991283 0.083268
O O14 0.155875 0.868366 0.186347
O O15 0.960542 0.330096 0.487528
O O16 0.635958 0.588657 0.939256
O O17 0.000000 0.978827 0.250000
#
# Coordination Sequence:
#
# PCOD9280382 Si02
#       8
#     8   8   8   8   8   8   8   8
#     4  10  21  40  65  88 119 161 204 250 301 357
#     4  11  23  39  62  89 120 158 203 249 302 358
#     4  11  21  36  59  86 118 154 198 244 299 353
#     4  10  21  37  59  87 118 154 198 247 296 360
#     4  10  21  38  61  87 119 158 198 249 301 353
#     4  11  22  37  63  88 115 157 209 247 295 370
#     4  11  22  39  58  88 126 157 195 252 305 353
#     4  10  23  39  62  89 123 157 202 251 303 357
#
# _framework density 21.922211999999998
#
# number of rings (size 3 to 8) (size 9 to 14) (size 15 to 20)
#    0.000    1.500    3.750    1.500    1.750    1.500 
#    0.000    0.000    2.750    0.000    0.000    0.000 
#    0.000    0.000    0.000    0.000    0.000    0.000 
#
# Total GULP energy -178153.228139 kJ/mol
# GULP energy per Si atom -5567.288379 kJ/mol
# Density = 2.187232 g / cm^3
# Si number density = 21.922212 Si / 1000 Ang^3
#
#
#
# Elastic Constant Matrix: (Units=GPa)
#
#
# Indices 1 2 3 4 5 6 
#
# 1 108.9222 23.4698 8.9479 0.0000 23.2843 0.0000
# 2 23.4698 77.5501 2.9617 0.0000 13.5896 -0.0001
# 3 8.9479 2.9617 36.7892 0.0000 17.0456 0.0000
# 4 0.0000 0.0000 0.0000 -6.0023 0.0000 -0.5064
# 5 23.2843 13.5896 17.0456 0.0000 27.4832 0.0000
# 6 0.0000 -0.0001 0.0000 -0.5064 0.0000 26.4127
#
#
#
# Elastic Compliance Matrix: (Units=1/GPa)
#
#
# Indices 1 2 3 4 5 6 
#
# 1 0.011578 -0.001796 0.002052 0.000000 -0.010194 0.000000
# 2 -0.001796 0.014628 0.002674 0.000000 -0.007370 0.000000
# 3 0.002052 0.002674 0.039130 0.000000 -0.027329 0.000000
# 4 0.000000 0.000000 0.000000 -0.166333 0.000000 -0.003189
# 5 -0.010194 -0.007370 -0.027329 0.000000 0.065616 0.000000
# 6 0.000000 0.000000 0.000000 -0.003189 0.000000 0.037799
#
#
# Mechanical properties :
#
#
# Convention : Reuss Voigt Hill
#
# Bulk Modulus (GPa) = 14.04593 32.66893 23.35743
# Shear Modulus (GPa) = 246.39665 22.10419 134.25042
#
# Velocity S-wave (km/s) = 10.61319 3.17882 7.83405
# Velocity P-wave (km/s) = 12.51430 5.32989 9.61809
#
# Compressibility (1/GPa) = 0.07119498
#
# Stress axis : x y z
#
# Youngs Moduli (GPa) = 86.36705 68.36312 25.55567
#
# Poissons Ratio (x) = 0.12279 -0.05243
# Poissons Ratio (y) = 0.15513 -0.06833
# Poissons Ratio (z) = -0.17719 -0.18279
#
# Static dielectric constant tensor:
#      x y z
#    x 1.813820 0.000000 0.043990 
#    y 0.000000 1.774910 0.000000 
#    z 0.043990 0.000000 1.812850 
# 
# From -- ./inp_files/279562.got.cif
#   From: 2010.05.17/outbox.cif.g08.bks.cpg/sg15_140_cif.got.tgz:279562.got - 2010.06.03 18:47:42.
