data_PCOD9280225
_publ_section_title
;
Structure prediction by ZEFSAII (Michael W. Deem and Ramdas Pophale) SiO2 
 PCOD9280225
Probable space group: C 2/C
;
_chemical_formula_sum "Si O2"
_cell_formula_units_Z 40
_cell_length_a 8.777907
_cell_length_b 27.459076
_cell_length_c 12.264331
_cell_angle_alpha 90.000000
_cell_angle_beta 32.754402
_cell_angle_gamma 90.000000
_cell_volume 1599.371668
_symmetry_space_group_name_H-M "C 2/C"
_symmetry_group_IT_number 15
_symmetry_cell_setting 'monoclinic'
loop_
_space_group_symop_operation_xyz
x,y,z
-x,y,1/2-z
-x,-y,-z
x,-y,1/2+z
1/2+x,1/2+y,z
1/2-x,1/2+y,1/2-z
1/2-x,1/2-y,-z
1/2+x,1/2-y,1/2+z
loop_
_atom_site_type_symbol
_atom_site_label
_atom_site_fract_x
_atom_site_fract_y
_atom_site_fract_z
Si Si1 0.760155 0.840699 0.513748
Si Si2 0.420762 0.197057 0.025164
Si Si3 0.205402 0.479083 0.220713
Si Si4 0.796659 0.556482 0.564504
Si Si5 0.889509 0.812382 0.998410
O O1 0.500000 0.828137 0.750000
O O2 0.691420 0.812481 0.440888
O O3 0.741125 0.896468 0.485367
O O4 0.025015 0.835126 0.435891
O O5 0.161526 0.178552 0.256066
O O6 0.366027 0.177574 0.934131
O O7 0.384839 0.254918 0.030610
O O8 0.178411 0.435303 0.322735
O O9 0.000000 0.464084 0.250000
O O10 0.500000 0.500000 0.000000
O O11 0.947857 0.525460 0.132421
O O12 0.500000 0.526887 0.750000
#
# Coordination Sequence:
#
# PCOD9280225 Si02
#       5
#     8   8   8   8   8
#     4  10  21  37  56  88 133 171 214 282 344 397
#     4   9  18  34  56  86 118 172 229 263 329 402
#     4  11  23  46  73  98 132 176 223 281 350 428
#     4  11  24  41  68 102 131 171 227 279 348 427
#     4   9  18  34  57  82 123 173 220 279 323 391
#
# _framework density 25.009822
#
# number of rings (size 3 to 8) (size 9 to 14) (size 15 to 20)
#    0.000    2.000    2.000    1.200    0.000    1.600 
#    3.600    4.000    0.000    0.000    0.000    0.000 
#    0.000    0.000    0.000    0.000    0.000    0.000 
#
# Total GULP energy -111471.089131 kJ/mol
# GULP energy per Si atom -5573.554457 kJ/mol
# Density = 2.495290 g / cm^3
# Si number density = 25.009822 Si / 1000 Ang^3
#
#
#
# Elastic Constant Matrix: (Units=GPa)
#
#
# Indices 1 2 3 4 5 6 
#
# 1 288.5163 57.4151 87.3559 0.0000 34.9127 0.0000
# 2 57.4151 62.4012 10.8850 0.0000 14.6880 0.0000
# 3 87.3559 10.8850 118.5572 0.0000 18.2108 0.0000
# 4 0.0000 0.0000 0.0000 -69.5857 0.0000 -224.8256
# 5 34.9127 14.6880 18.2108 0.0000 69.6095 0.0000
# 6 0.0000 0.0000 0.0000 -224.8256 0.0000 -569.0416
#
#
#
# Elastic Compliance Matrix: (Units=1/GPa)
#
#
# Indices 1 2 3 4 5 6 
#
# 1 0.005479 -0.004208 -0.003506 0.000000 -0.000943 0.000000
# 2 -0.004208 0.020219 0.001641 0.000000 -0.002585 0.000000
# 3 -0.003506 0.001641 0.011096 0.000000 -0.001491 0.000000
# 4 0.000000 0.000000 0.000000 0.051970 0.000000 -0.020533
# 5 -0.000943 -0.002585 -0.001491 0.000000 0.015774 0.000000
# 6 0.000000 0.000000 0.000000 -0.020533 0.000000 0.006355
#
#
# Mechanical properties :
#
#
# Convention : Reuss Voigt Hill
#
# Bulk Modulus (GPa) = 40.56901 86.75410 63.66155
# Shear Modulus (GPa) = 38.09365 -92.88232 -27.39433
#
# Velocity S-wave (km/s) = 3.90699 -6.10073 -3.31319
# Velocity P-wave (km/s) = 6.05055 3.85512 3.29751
#
# Compressibility (1/GPa) = 0.02464936
#
# Stress axis : x y z
#
# Youngs Moduli (GPa) = 182.51728 49.45834 90.12027
#
# Poissons Ratio (x) = 0.20810 0.31595
# Poissons Ratio (y) = 0.76797 -0.14789
# Poissons Ratio (z) = 0.63988 -0.08116
#
# Static dielectric constant tensor:
#      x y z
#    x 2.285390 0.000000 -0.040200 
#    y 0.000000 1.973870 0.000000 
#    z -0.040200 0.000000 2.022900 
# 
# From -- ./inp_files/80459.got.cif
#   From: 2010.05.17/outbox.cif.g08.bks.cpg/sg15_41_cif.got.tgz:80459.got - 2010.06.03 18:47:42.
