data_PCOD9280855
_publ_section_title
;
Structure prediction by ZEFSAII (Michael W. Deem and Ramdas Pophale) SiO2 
 PCOD9280855
Probable space group: C 2/C
;
_chemical_formula_sum "Si O2"
_cell_formula_units_Z 36
_cell_length_a 17.193502
_cell_length_b 13.717670
_cell_length_c 9.366064
_cell_angle_alpha 90.000000
_cell_angle_beta 59.522787
_cell_angle_gamma 90.000000
_cell_volume 1903.811295
_symmetry_space_group_name_H-M "C 2/C"
_symmetry_group_IT_number 15
_symmetry_cell_setting 'monoclinic'
loop_
_space_group_symop_operation_xyz
x,y,z
-x,y,1/2-z
-x,-y,-z
x,-y,1/2+z
1/2+x,1/2+y,z
1/2-x,1/2+y,1/2-z
1/2-x,1/2-y,-z
1/2+x,1/2-y,1/2+z
loop_
_atom_site_type_symbol
_atom_site_label
_atom_site_fract_x
_atom_site_fract_y
_atom_site_fract_z
Si Si1 0.290248 0.973539 0.755086
Si Si2 0.111453 0.099971 0.903433
Si Si3 0.000000 0.013725 0.750000
Si Si4 0.179669 0.297271 0.956265
Si Si5 0.095844 0.509716 0.600081
O O1 0.269403 0.870608 0.699842
O O2 0.379236 0.012001 0.586902
O O3 0.207730 0.045776 0.815088
O O4 0.322865 0.963040 0.885317
O O5 0.127916 0.213070 0.920627
O O6 0.056949 0.053041 0.087379
O O7 0.061838 0.077215 0.800068
O O8 0.250000 0.250000 0.000000
O O9 0.112040 0.373301 0.096396
O O10 0.000000 0.479673 0.750000
#
# Coordination Sequence:
#
# PCOD9280855 Si02
#       5
#     8   8   4   8   8
#     4  10  21  38  63  82 120 155 193 246 296 348
#     4  11  20  43  58  92 118 160 197 244 305 352
#     4  10  24  36  66  86 128 150 198 256 288 360
#     4  10  21  37  65  84 116 162 199 236 301 362
#     4  10  21  38  60  88 115 154 197 247 288 346
#
# _framework density 18.909435999999999
#
# number of rings (size 3 to 8) (size 9 to 14) (size 15 to 20)
#    1.333    0.444    2.222    3.333    1.556    0.000 
#    2.000    4.444    0.000    0.000    0.000    0.000 
#    0.000    0.000    0.000    0.000    0.000    0.000 
#
# Total GULP energy -100224.715564 kJ/mol
# GULP energy per Si atom -5568.039754 kJ/mol
# Density = 1.886640 g / cm^3
# Si number density = 18.909436 Si / 1000 Ang^3
#
#
#
# Elastic Constant Matrix: (Units=GPa)
#
#
# Indices 1 2 3 4 5 6 
#
# 1 66.0645 7.0010 16.0481 0.0000 5.7923 0.0000
# 2 7.0010 71.3787 8.0185 0.0000 4.3095 0.0000
# 3 16.0481 8.0185 67.5590 0.0000 4.5523 0.0000
# 4 0.0000 0.0000 0.0000 27.6071 0.0000 13.9598
# 5 5.7923 4.3095 4.5523 0.0000 40.3501 0.0000
# 6 0.0000 0.0000 0.0000 13.9598 0.0000 22.8547
#
#
#
# Elastic Compliance Matrix: (Units=1/GPa)
#
#
# Indices 1 2 3 4 5 6 
#
# 1 0.016290 -0.001082 -0.003619 0.000000 -0.001815 0.000000
# 2 -0.001082 0.014343 -0.001363 0.000000 -0.001223 0.000000
# 3 -0.003619 -0.001363 0.015899 0.000000 -0.001129 0.000000
# 4 0.000000 0.000000 0.000000 0.052410 0.000000 -0.032013
# 5 -0.001815 -0.001223 -0.001129 0.000000 0.025301 0.000000
# 6 0.000000 0.000000 0.000000 -0.032013 0.000000 0.063308
#
#
# Mechanical properties :
#
#
# Convention : Reuss Voigt Hill
#
# Bulk Modulus (GPa) = 29.06575 29.68195 29.37385
# Shear Modulus (GPa) = 23.68023 29.75801 26.71912
#
# Velocity S-wave (km/s) = 3.54262 3.97131 3.76307
# Velocity P-wave (km/s) = 5.66903 6.06295 5.86930
#
# Compressibility (1/GPa) = 0.03440476
#
# Stress axis : x y z
#
# Youngs Moduli (GPa) = 61.38922 69.72135 62.89575
#
# Poissons Ratio (x) = 0.07541 0.22761
# Poissons Ratio (y) = 0.06640 0.08573
# Poissons Ratio (z) = 0.22216 0.09503
#
# Static dielectric constant tensor:
#      x y z
#    x 1.658470 0.000000 -0.006520 
#    y 0.000000 1.627180 0.000000 
#    z -0.006520 0.000000 1.658580 
# 
# From -- ./inp_files/46640.got.cif
#   From: 2010.05.17/outbox.cif.g08.bks.cpg/sg15_24_cif.got.tgz:46640.got - 2010.06.03 18:47:42.
