data_PCOD9280980
_publ_section_title
;
Structure prediction by ZEFSAII (Michael W. Deem and Ramdas Pophale) SiO2 
 PCOD9280980
Probable space group: C 2/C
;
_chemical_formula_sum "Si O2"
_cell_formula_units_Z 56
_cell_length_a 19.621418
_cell_length_b 5.364352
_cell_length_c 24.015021
_cell_angle_alpha 90.000000
_cell_angle_beta 109.712916
_cell_angle_gamma 90.000000
_cell_volume 2379.590898
_symmetry_space_group_name_H-M "C 2/C"
_symmetry_group_IT_number 15
_symmetry_cell_setting 'monoclinic'
loop_
_space_group_symop_operation_xyz
x,y,z
-x,y,1/2-z
-x,-y,-z
x,-y,1/2+z
1/2+x,1/2+y,z
1/2-x,1/2+y,1/2-z
1/2-x,1/2-y,-z
1/2+x,1/2-y,1/2+z
loop_
_atom_site_type_symbol
_atom_site_label
_atom_site_fract_x
_atom_site_fract_y
_atom_site_fract_z
Si Si1 0.524550 0.749780 0.974134
Si Si2 0.615823 0.196833 0.118649
Si Si3 0.165753 0.026160 0.219370
Si Si4 0.943675 0.347170 0.682717
Si Si5 0.337857 0.299748 0.931511
Si Si6 0.212173 0.749971 0.328446
Si Si7 0.998639 0.162457 0.316561
O O1 0.469509 0.754464 0.907741
O O2 0.500000 0.500000 0.000000
O O3 0.612002 0.735521 0.000058
O O4 0.500000 0.000000 0.000000
O O5 0.648212 0.252496 0.188156
O O6 0.648160 0.420298 0.088340
O O7 0.632537 0.924393 0.100125
O O8 0.189359 0.003135 0.289919
O O9 0.229604 0.136191 0.199201
O O10 0.086200 0.146934 0.191759
O O11 0.863557 0.386811 0.684210
O O12 0.000000 0.330067 0.750000
O O13 0.965853 0.584481 0.652616
O O14 0.951621 0.076056 0.657486
O O15 0.252840 0.248190 0.899131
O O16 0.000000 0.180409 0.250000
#
# Coordination Sequence:
#
# PCOD9280980 Si02
#       7
#     8   8   8   8   8   8   8
#     4   8  14  28  48  66 100 136 166 204 251 314
#     4   9  18  31  47  75 104 135 169 209 263 307
#     4  11  22  33  53  82 109 138 171 224 265 307
#     4  10  21  38  52  68  99 142 182 203 247 315
#     4   9  18  31  47  75 104 135 169 209 263 307
#     4  11  22  33  53  82 109 138 171 224 265 307
#     4  10  21  38  52  68  99 142 182 203 247 315
#
# _framework density 23.533458
#
# number of rings (size 3 to 8) (size 9 to 14) (size 15 to 20)
#    0.000    2.286    2.857    0.857    4.000    4.571 
#    0.000    0.000    0.000    0.000    0.000    2.000 
#    0.000    0.000    0.000    1.571    0.000    0.429 
#
# Total GULP energy -155933.820768 kJ/mol
# GULP energy per Si atom -5569.065027 kJ/mol
# Density = 2.347990 g / cm^3
# Si number density = 23.533458 Si / 1000 Ang^3
#
#
#
# Elastic Constant Matrix: (Units=GPa)
#
#
# Indices 1 2 3 4 5 6 
#
# 1 148.0015 31.9655 25.5140 -0.0005 31.4796 -0.0011
# 2 31.9655 141.7690 -3.5388 -0.0015 -7.3770 -0.0026
# 3 25.5140 -3.5388 48.3049 -0.0005 45.2640 -0.0009
# 4 -0.0005 -0.0015 -0.0005 -57.9682 0.0003 -161.3959
# 5 31.4796 -7.3770 45.2640 0.0003 47.3656 0.0004
# 6 -0.0011 -0.0026 -0.0009 -161.3959 0.0004 -328.0725
#
#
#
# Elastic Compliance Matrix: (Units=1/GPa)
#
#
# Indices 1 2 3 4 5 6 
#
# 1 0.008981 -0.002603 0.009937 0.000000 -0.015871 0.000000
# 2 -0.002603 0.007991 -0.007912 0.000000 0.010535 0.000000
# 3 0.009937 -0.007912 0.212541 0.000001 -0.210947 -0.000001
# 4 0.000000 0.000000 0.000001 0.046662 -0.000001 -0.022955
# 5 -0.015871 0.010535 -0.210947 -0.000001 0.234888 0.000002
# 6 0.000000 0.000000 -0.000001 -0.022955 0.000002 0.008245
#
#
# Mechanical properties :
#
#
# Convention : Reuss Voigt Hill
#
# Bulk Modulus (GPa) = 4.37909 49.55076 26.96492
# Shear Modulus (GPa) = 8.38106 -48.79270 -20.20582
#
# Velocity S-wave (km/s) = 1.88920 -4.55833 -2.93337
# Velocity P-wave (km/s) = 2.57363 2.56969 0.10073
#
# Compressibility (1/GPa) = 0.22835813
#
# Stress axis : x y z
#
# Youngs Moduli (GPa) = 111.34027 125.13563 4.70498
#
# Poissons Ratio (x) = 0.32571 -0.04675
# Poissons Ratio (y) = 0.28981 0.03722
# Poissons Ratio (z) = -1.10637 0.99005
#
# Static dielectric constant tensor:
#      x y z
#    x 1.519960 0.000000 -0.226370 
#    y 0.000000 2.009370 0.000000 
#    z -0.226370 0.000000 1.769470 
# 
# From -- ./inp_files/314916.got.cif
#   From: 2010.05.17/outbox.cif.g08.bks.cpg/sg15_158_cif.got.tgz:314916.got - 2010.06.03 18:47:42.
