data_PCOD9280680
_publ_section_title
;
Structure prediction by ZEFSAII (Michael W. Deem and Ramdas Pophale) SiO2 
 PCOD9280680
Probable space group: C 2/C
;
_chemical_formula_sum "Si O2"
_cell_formula_units_Z 44
_cell_length_a 21.404669
_cell_length_b 18.640850
_cell_length_c 5.478131
_cell_angle_alpha 90.000000
_cell_angle_beta 75.603903
_cell_angle_gamma 90.000000
_cell_volume 2117.147670
_symmetry_space_group_name_H-M "C 2/C"
_symmetry_group_IT_number 15
_symmetry_cell_setting 'monoclinic'
loop_
_space_group_symop_operation_xyz
x,y,z
-x,y,1/2-z
-x,-y,-z
x,-y,1/2+z
1/2+x,1/2+y,z
1/2-x,1/2+y,1/2-z
1/2-x,1/2-y,-z
1/2+x,1/2-y,1/2+z
loop_
_atom_site_type_symbol
_atom_site_label
_atom_site_fract_x
_atom_site_fract_y
_atom_site_fract_z
Si Si1 0.757269 0.855425 0.091501
Si Si2 0.576304 0.752305 0.677490
Si Si3 0.844694 0.001321 0.532257
Si Si4 0.500000 0.955506 0.250000
Si Si5 0.109372 0.662291 0.646173
Si Si6 0.307259 0.658651 0.043868
O O1 0.796944 0.930379 0.077076
O O2 0.683335 0.862462 0.088674
O O3 0.763052 0.821500 0.355745
O O4 0.790589 0.814193 0.831841
O O5 0.500000 0.738298 0.750000
O O6 0.592131 0.798375 0.418452
O O7 0.621512 0.682990 0.602401
O O8 0.595990 0.790909 0.913815
O O9 0.883369 0.000574 0.244564
O O10 0.804305 0.927564 0.570886
O O11 0.437608 0.905228 0.320645
O O12 0.500000 0.000000 0.500000
#
# Coordination Sequence:
#
# PCOD9280680 Si02
#       6
#     8   8   8   4   8   8
#     4  10  21  37  62  92 125 157 208 268 329 373
#     4  12  24  43  65  86 131 172 214 255 308 383
#     4   8  16  32  54  82 121 149 187 249 310 361
#     4  12  26  44  66  92 126 170 224 264 304 374
#     4  12  25  43  65  90 126 169 210 260 320 370
#     4  10  21  37  62  93 123 165 208 258 322 380
#
# _framework density 20.782679000000002
#
# number of rings (size 3 to 8) (size 9 to 14) (size 15 to 20)
#    0.000    1.455    1.818    3.273    0.000    8.727 
#    0.000    0.000    0.000    9.818    0.000    0.000 
#    0.000    0.000    0.000    0.000    0.000    0.000 
#
# Total GULP energy -122681.434493 kJ/mol
# GULP energy per Si atom -5576.428841 kJ/mol
# Density = 2.073538 g / cm^3
# Si number density = 20.782679 Si / 1000 Ang^3
#
#
#
# Elastic Constant Matrix: (Units=GPa)
#
#
# Indices 1 2 3 4 5 6 
#
# 1 83.7876 19.5551 30.3921 0.0000 -4.5618 0.0000
# 2 19.5551 67.7916 24.6496 0.0000 0.3629 0.0000
# 3 30.3921 24.6496 206.8565 0.0000 28.0510 0.0000
# 4 0.0000 0.0000 0.0000 27.7553 0.0000 6.8058
# 5 -4.5618 0.3629 28.0510 0.0000 38.3449 0.0000
# 6 0.0000 0.0000 0.0000 6.8058 0.0000 6.0856
#
#
#
# Elastic Compliance Matrix: (Units=1/GPa)
#
#
# Indices 1 2 3 4 5 6 
#
# 1 0.013592 -0.003195 -0.002042 0.000000 0.003141 0.000000
# 2 -0.003195 0.016232 -0.001546 0.000000 0.000597 0.000000
# 3 -0.002042 -0.001546 0.005939 0.000000 -0.004573 0.000000
# 4 0.000000 0.000000 0.000000 0.049642 0.000000 -0.055517
# 5 0.003141 0.000597 -0.004573 0.000000 0.029792 0.000000
# 6 0.000000 0.000000 0.000000 -0.055517 0.000000 0.226410
#
#
# Mechanical properties :
#
#
# Convention : Reuss Voigt Hill
#
# Bulk Modulus (GPa) = 45.05230 56.40326 50.72778
# Shear Modulus (GPa) = 13.79036 33.35974 23.57505
#
# Velocity S-wave (km/s) = 2.57874 4.01080 3.37168
# Velocity P-wave (km/s) = 5.53095 6.97475 6.29439
#
# Compressibility (1/GPa) = 0.02219642
#
# Stress axis : x y z
#
# Youngs Moduli (GPa) = 73.57019 61.60828 168.38947
#
# Poissons Ratio (x) = 0.19684 0.34390
# Poissons Ratio (y) = 0.23506 0.26028
# Poissons Ratio (z) = 0.15025 0.09523
#
# Static dielectric constant tensor:
#      x y z
#    x 1.678280 0.000000 0.030700 
#    y 0.000000 1.780990 0.000000 
#    z 0.030700 0.000000 1.839000 
# 
# From -- ./inp_files/12911.got.cif
#   From: 2010.05.17/outbox.cif.g08.bks.cpg/sg15_7_cif.got.tgz:12911.got - 2010.06.03 18:47:42.
