data_PCOD9280119
_publ_section_title
;
Structure prediction by ZEFSAII (Michael W. Deem and Ramdas Pophale) SiO2 
 PCOD9280119
Probable space group: C 2/C
;
_chemical_formula_sum "Si O2"
_cell_formula_units_Z 56
_cell_length_a 15.290760
_cell_length_b 11.382127
_cell_length_c 28.404234
_cell_angle_alpha 90.000000
_cell_angle_beta 36.343265
_cell_angle_gamma 90.000000
_cell_volume 2929.631810
_symmetry_space_group_name_H-M "C 2/C"
_symmetry_group_IT_number 15
_symmetry_cell_setting 'monoclinic'
loop_
_space_group_symop_operation_xyz
x,y,z
-x,y,1/2-z
-x,-y,-z
x,-y,1/2+z
1/2+x,1/2+y,z
1/2-x,1/2+y,1/2-z
1/2-x,1/2-y,-z
1/2+x,1/2-y,1/2+z
loop_
_atom_site_type_symbol
_atom_site_label
_atom_site_fract_x
_atom_site_fract_y
_atom_site_fract_z
Si Si1 0.850830 0.684060 0.822756
Si Si2 0.871108 0.025203 0.925970
Si Si3 0.875946 0.649228 0.523572
Si Si4 0.585745 0.432719 0.756851
Si Si5 0.100744 0.537034 0.883270
Si Si6 0.975768 0.897925 0.049137
Si Si7 0.349151 0.151094 0.933467
O O1 0.869746 0.804866 0.784306
O O2 0.696057 0.631191 0.877113
O O3 0.852415 0.690990 0.878380
O O4 0.000000 0.610768 0.750000
O O5 0.779188 0.118251 0.934357
O O6 0.983642 0.073847 0.915014
O O7 0.966056 0.940178 0.850547
O O8 0.748941 0.962874 0.011862
O O9 0.875934 0.599311 0.576469
O O10 0.000003 0.576300 0.440356
O O11 0.925794 0.783530 0.505138
O O12 0.500000 0.492042 0.750000
O O13 0.738435 0.496348 0.703852
O O14 0.006687 0.621171 0.889212
O O15 0.000000 0.000000 0.000000
O O16 0.250000 0.250000 0.000000
#
# Coordination Sequence:
#
# PCOD9280119 Si02
#       7
#     8   8   8   8   8   8   8
#     4  11  24  41  65  94 133 170 219 282 340 391
#     4  11  24  40  68  94 133 177 231 269 343 409
#     4  10  21  42  65  97 126 173 218 277 325 407
#     4  11  21  42  66 100 131 169 224 287 333 393
#     4  10  21  36  69  95 129 168 225 273 342 381
#     4  12  24  44  66  95 135 182 224 271 340 410
#     4  11  22  39  63  97 124 172 220 277 328 407
#
# _framework density 19.115030000000001
#
# number of rings (size 3 to 8) (size 9 to 14) (size 15 to 20)
#    0.000    1.143    4.286    3.000    4.000    0.000 
#    0.000    0.000    3.143    0.000    0.000    0.000 
#    0.000    0.000    0.000    0.000    0.000    0.000 
#
# Total GULP energy -155987.082384 kJ/mol
# GULP energy per Si atom -5570.967228 kJ/mol
# Density = 1.907152 g / cm^3
# Si number density = 19.115030 Si / 1000 Ang^3
#
#
#
# Elastic Constant Matrix: (Units=GPa)
#
#
# Indices 1 2 3 4 5 6 
#
# 1 178.0035 58.7534 59.4859 0.0000 -26.0421 0.0000
# 2 58.7534 94.5262 33.5302 0.0000 -6.2921 0.0000
# 3 59.4859 33.5302 113.6982 0.0000 -15.2011 0.0000
# 4 0.0000 0.0000 0.0000 28.9886 0.0000 -6.1393
# 5 -26.0421 -6.2921 -15.2011 0.0000 37.4765 0.0000
# 6 0.0000 0.0000 0.0000 -6.1393 0.0000 11.5357
#
#
#
# Elastic Compliance Matrix: (Units=1/GPa)
#
#
# Indices 1 2 3 4 5 6 
#
# 1 0.008442 -0.004023 -0.002682 0.000000 0.004103 0.000000
# 2 -0.004023 0.013745 -0.002129 0.000000 -0.001351 0.000000
# 3 -0.002682 -0.002129 0.011133 0.000000 0.002295 0.000000
# 4 0.000000 0.000000 0.000000 0.038878 0.000000 0.020691
# 5 0.004103 -0.001351 0.002295 0.000000 0.030239 0.000000
# 6 0.000000 0.000000 0.000000 0.020691 0.000000 0.097699
#
#
# Mechanical properties :
#
#
# Convention : Reuss Voigt Hill
#
# Bulk Modulus (GPa) = 63.89029 76.64076 70.26552
# Shear Modulus (GPa) = 22.41930 31.23071 26.82500
#
# Velocity S-wave (km/s) = 3.42842 4.04645 3.75019
# Velocity P-wave (km/s) = 7.01205 7.87485 7.45594
#
# Compressibility (1/GPa) = 0.01565183
#
# Stress axis : x y z
#
# Youngs Moduli (GPa) = 118.45164 72.75430 89.82187
#
# Poissons Ratio (x) = 0.29268 0.24090
# Poissons Ratio (y) = 0.47652 0.19127
# Poissons Ratio (z) = 0.31768 0.15492
#
# Static dielectric constant tensor:
#      x y z
#    x 1.681280 0.000000 -0.053410 
#    y 0.000000 0.955430 0.000000 
#    z -0.053410 0.000000 1.755270 
# 
# From -- ./inp_files/295912.got.cif
#   From: 2010.05.17/outbox.cif.g08.bks.cpg/sg15_148_cif.got.tgz:295912.got - 2010.06.03 18:47:42.
