data_PCOD9280601
_publ_section_title
;
Structure prediction by ZEFSAII (Michael W. Deem and Ramdas Pophale) SiO2 
 PCOD9280601
Probable space group: C 2/C
;
_chemical_formula_sum "Si O2"
_cell_formula_units_Z 64
_cell_length_a 11.688346
_cell_length_b 18.928450
_cell_length_c 20.603229
_cell_angle_alpha 90.000000
_cell_angle_beta 137.041994
_cell_angle_gamma 90.000000
_cell_volume 3106.312439
_symmetry_space_group_name_H-M "C 2/C"
_symmetry_group_IT_number 15
_symmetry_cell_setting 'monoclinic'
loop_
_space_group_symop_operation_xyz
x,y,z
-x,y,1/2-z
-x,-y,-z
x,-y,1/2+z
1/2+x,1/2+y,z
1/2-x,1/2+y,1/2-z
1/2-x,1/2-y,-z
1/2+x,1/2-y,1/2+z
loop_
_atom_site_type_symbol
_atom_site_label
_atom_site_fract_x
_atom_site_fract_y
_atom_site_fract_z
Si Si1 0.581459 0.865783 0.537558
Si Si2 0.338975 0.601382 0.047367
Si Si3 0.454522 0.261059 0.897301
Si Si4 0.182219 0.238188 0.297532
Si Si5 0.347287 0.226264 0.136085
Si Si6 0.762545 0.632322 0.981472
Si Si7 0.983897 0.023836 0.918048
Si Si8 0.306434 0.892074 0.152945
O O1 0.719018 0.912214 0.558219
O O2 0.533410 0.808342 0.461881
O O3 0.682162 0.821480 0.633545
O O4 0.411909 0.896376 0.497495
O O5 0.412121 0.680371 0.070316
O O6 0.495365 0.547979 0.113274
O O7 0.235519 0.587327 0.938232
O O8 0.346430 0.242811 0.788970
O O9 0.326271 0.289892 0.897938
O O10 0.235555 0.309187 0.356833
O O11 0.000000 0.216670 0.250000
O O12 0.500000 0.222547 0.250000
O O13 0.351749 0.171144 0.079180
O O14 0.329122 0.304551 0.096914
O O15 0.630673 0.575973 0.954298
O O16 0.808899 0.064672 0.845377
O O17 0.000000 0.000000 0.000000
O O18 0.500000 0.900727 0.250000
#
# Coordination Sequence:
#
# PCOD9280601 Si02
#       8
#     8   8   8   8   8   8   8   8
#     4  11  21  37  61  90 126 158 205 263 312 371
#     4  11  21  40  61  87 127 169 203 247 314 371
#     4  11  21  35  61  92 121 159 208 262 311 362
#     4  11  20  33  61  93 126 152 200 263 310 357
#     4  10  21  37  61  93 126 156 202 263 319 368
#     4  10  23  39  60  92 124 164 206 257 312 370
#     4  10  23  42  65  85 123 172 207 250 308 380
#     4  10  21  37  63  93 118 158 210 255 302 364
#
# _framework density 20.603207999999999
#
# number of rings (size 3 to 8) (size 9 to 14) (size 15 to 20)
#    0.000    1.500    2.500    4.125    5.250    0.500 
#    0.000    8.125    2.750    0.000    0.000    0.000 
#    0.000    0.000    0.000    0.000    0.000    0.000 
#
# Total GULP energy -178671.077899 kJ/mol
# GULP energy per Si atom -5583.471184 kJ/mol
# Density = 2.055631 g / cm^3
# Si number density = 20.603208 Si / 1000 Ang^3
#
#
#
# Elastic Constant Matrix: (Units=GPa)
#
#
# Indices 1 2 3 4 5 6 
#
# 1 133.8813 30.1450 -7.7670 0.0000 9.6834 0.0000
# 2 30.1450 34.0103 0.6934 0.0000 8.9462 0.0000
# 3 -7.7670 0.6934 51.4419 0.0000 -12.4288 0.0000
# 4 0.0000 0.0000 0.0000 8.2678 0.0000 7.0473
# 5 9.6834 8.9462 -12.4288 0.0000 27.1015 0.0000
# 6 0.0000 0.0000 0.0000 7.0473 0.0000 40.8803
#
#
#
# Elastic Compliance Matrix: (Units=1/GPa)
#
#
# Indices 1 2 3 4 5 6 
#
# 1 0.009453 -0.008445 0.001573 0.000000 0.000132 0.000000
# 2 -0.008445 0.040273 -0.004837 0.000000 -0.012495 0.000000
# 3 0.001573 -0.004837 0.022483 0.000000 0.011346 0.000000
# 4 0.000000 0.000000 0.000000 0.141785 0.000000 -0.024442
# 5 0.000132 -0.012495 0.011346 0.000000 0.046179 0.000000
# 6 0.000000 0.000000 0.000000 -0.024442 0.000000 0.028675
#
#
# Mechanical properties :
#
#
# Convention : Reuss Voigt Hill
#
# Bulk Modulus (GPa) = 20.49547 29.49737 24.99642
# Shear Modulus (GPa) = 15.21934 28.33404 21.77669
#
# Velocity S-wave (km/s) = 2.72083 3.71243 3.25461
# Velocity P-wave (km/s) = 4.45420 5.72050 5.12660
#
# Compressibility (1/GPa) = 0.04879128
#
# Stress axis : x y z
#
# Youngs Moduli (GPa) = 105.79205 24.83033 44.47756
#
# Poissons Ratio (x) = 0.20969 -0.06996
# Poissons Ratio (y) = 0.89340 0.21513
# Poissons Ratio (z) = -0.16639 0.12010
#
# Static dielectric constant tensor:
#      x y z
#    x 1.781000 0.000000 -0.008180 
#    y 0.000000 1.763070 0.000000 
#    z -0.008180 0.000000 1.725090 
# 
# From -- ./inp_files/240444.got.cif
#   From: 2010.05.17/outbox.cif.g08.bks.cpg/sg15_121_cif.got.tgz:240444.got - 2010.06.03 18:47:42.
