data_PCOD9280127
_publ_section_title
;
Structure prediction by ZEFSAII (Michael W. Deem and Ramdas Pophale) SiO2 
 PCOD9280127
Probable space group: C 2/C
;
_chemical_formula_sum "Si O2"
_cell_formula_units_Z 40
_cell_length_a 12.408433
_cell_length_b 28.982337
_cell_length_c 5.504003
_cell_angle_alpha 90.000000
_cell_angle_beta 102.264274
_cell_angle_gamma 90.000000
_cell_volume 1934.206245
_symmetry_space_group_name_H-M "C 2/C"
_symmetry_group_IT_number 15
_symmetry_cell_setting 'monoclinic'
loop_
_space_group_symop_operation_xyz
x,y,z
-x,y,1/2-z
-x,-y,-z
x,-y,1/2+z
1/2+x,1/2+y,z
1/2-x,1/2+y,1/2-z
1/2-x,1/2-y,-z
1/2+x,1/2-y,1/2+z
loop_
_atom_site_type_symbol
_atom_site_label
_atom_site_fract_x
_atom_site_fract_y
_atom_site_fract_z
Si Si1 0.625135 0.621211 0.807300
Si Si2 0.819304 0.776478 0.233026
Si Si3 0.111524 0.692281 0.957628
Si Si4 0.254166 0.896317 0.862575
Si Si5 0.043801 0.552305 0.020611
O O1 0.500000 0.604084 0.750000
O O2 0.624529 0.676982 0.830302
O O3 0.683153 0.609690 0.575950
O O4 0.688066 0.604365 0.079038
O O5 0.900252 0.738419 0.386301
O O6 0.721693 0.794341 0.361484
O O7 0.750000 0.750000 0.000000
O O8 0.000000 0.685650 0.750000
O O9 0.154588 0.645399 0.105207
O O10 0.325516 0.942719 0.917833
O O11 0.000000 0.573450 0.250000
O O12 0.000000 0.574082 0.750000
O O13 0.000000 0.500000 0.000000
#
# Coordination Sequence:
#
# PCOD9280127 Si02
#       5
#     8   8   8   8   8
#     4  11  24  39  62  84 124 174 220 264 312 356
#     4  10  21  37  49  77 113 162 222 258 307 361
#     4  10  22  34  54  78 115 161 208 269 321 356
#     4  11  22  41  59  93 127 157 214 263 306 394
#     4  10  21  39  66 100 130 159 188 240 329 399
#
# _framework density 20.680319000000001
#
# number of rings (size 3 to 8) (size 9 to 14) (size 15 to 20)
#    0.000    1.600    2.000    2.400    2.800    1.600 
#    0.000    0.000    0.000    0.000    0.000   56.000 
#    0.000    0.000    0.000    0.000    0.000    0.000 
#
# Total GULP energy -111508.648249 kJ/mol
# GULP energy per Si atom -5575.432412 kJ/mol
# Density = 2.063325 g / cm^3
# Si number density = 20.680319 Si / 1000 Ang^3
#
#
#
# Elastic Constant Matrix: (Units=GPa)
#
#
# Indices 1 2 3 4 5 6 
#
# 1 113.8797 38.3794 64.0153 0.0000 14.1575 0.0000
# 2 38.3794 66.2964 23.2696 0.0000 6.8099 0.0000
# 3 64.0153 23.2696 168.0973 0.0000 12.4645 0.0000
# 4 0.0000 0.0000 0.0000 -11.4867 0.0000 11.1060
# 5 14.1575 6.8099 12.4645 0.0000 47.6635 0.0000
# 6 0.0000 0.0000 0.0000 11.1060 0.0000 23.8237
#
#
#
# Elastic Compliance Matrix: (Units=1/GPa)
#
#
# Indices 1 2 3 4 5 6 
#
# 1 0.013401 -0.006108 -0.004107 0.000000 -0.002034 0.000000
# 2 -0.006108 0.018778 -0.000213 0.000000 -0.000813 0.000000
# 3 -0.004107 -0.000213 0.007597 0.000000 -0.000736 0.000000
# 4 0.000000 0.000000 0.000000 -0.060009 0.000000 0.027975
# 5 -0.002034 -0.000813 -0.000736 0.000000 0.021893 0.000000
# 6 0.000000 0.000000 0.000000 0.027975 0.000000 0.028934
#
#
# Mechanical properties :
#
#
# Convention : Reuss Voigt Hill
#
# Bulk Modulus (GPa) = 52.85341 66.62245 59.73793
# Shear Modulus (GPa) = 86.57057 26.84071 56.70564
#
# Velocity S-wave (km/s) = 6.47705 3.60653 5.24210
# Velocity P-wave (km/s) = 9.03045 7.04472 8.09868
#
# Compressibility (1/GPa) = 0.01892025
#
# Stress axis : x y z
#
# Youngs Moduli (GPa) = 74.62036 53.25435 131.62803
#
# Poissons Ratio (x) = 0.32525 0.54062
# Poissons Ratio (y) = 0.45574 0.02807
# Poissons Ratio (z) = 0.30648 0.01136
#
# Static dielectric constant tensor:
#      x y z
#    x 1.914910 0.000000 -0.126300 
#    y 0.000000 1.775230 0.000000 
#    z -0.126300 0.000000 1.810960 
# 
# From -- ./inp_files/4928.got.cif
#   From: 2010.05.17/outbox.cif.g08.bks.cpg/sg15_3_cif.got.tgz:4928.got - 2010.06.03 18:47:42.
