data_PCOD9280139
_publ_section_title
;
Structure prediction by ZEFSAII (Michael W. Deem and Ramdas Pophale) SiO2 
 PCOD9280139
Probable space group: C 2/C
;
_chemical_formula_sum "Si O2"
_cell_formula_units_Z 56
_cell_length_a 9.329475
_cell_length_b 10.429848
_cell_length_c 28.720130
_cell_angle_alpha 90.000000
_cell_angle_beta 57.919011
_cell_angle_gamma 90.000000
_cell_volume 2367.870066
_symmetry_space_group_name_H-M "C 2/C"
_symmetry_group_IT_number 15
_symmetry_cell_setting 'monoclinic'
loop_
_space_group_symop_operation_xyz
x,y,z
-x,y,1/2-z
-x,-y,-z
x,-y,1/2+z
1/2+x,1/2+y,z
1/2-x,1/2+y,1/2-z
1/2-x,1/2-y,-z
1/2+x,1/2-y,1/2+z
loop_
_atom_site_type_symbol
_atom_site_label
_atom_site_fract_x
_atom_site_fract_y
_atom_site_fract_z
Si Si1 0.624980 0.231444 0.871192
Si Si2 0.730245 0.701395 0.055650
Si Si3 0.300363 0.355810 0.784334
Si Si4 0.676543 0.633992 0.748212
Si Si5 0.505802 0.375633 0.031652
Si Si6 0.410008 0.952422 0.592063
Si Si7 0.190859 0.744108 0.072442
O O1 0.465279 0.323472 0.900053
O O2 0.685568 0.197089 0.809857
O O3 0.780964 0.265407 0.877507
O O4 0.558996 0.100287 0.905667
O O5 0.840376 0.581838 0.053396
O O6 0.750000 0.750000 0.000000
O O7 0.818946 0.817000 0.069469
O O8 0.500000 0.324089 0.750000
O O9 0.282328 0.482283 0.753864
O O10 0.191449 0.230583 0.789003
O O11 0.233002 0.407458 0.845772
O O12 0.500000 0.637973 0.750000
O O13 0.624111 0.277948 0.981527
O O14 0.500000 0.500000 0.000000
O O15 0.598753 0.367407 0.065595
O O16 0.576155 0.873589 0.575663
#
# Coordination Sequence:
#
# PCOD9280139 Si02
#       7
#     8   8   8   8   8   8   8
#     4  11  22  38  62  87 116 157 198 245 302 356
#     4  11  22  37  56  86 118 154 205 241 286 358
#     4  10  21  41  63  89 124 156 198 253 312 368
#     4  10  22  40  64  93 121 156 203 252 308 375
#     4  10  21  37  53  78 113 152 194 237 282 336
#     4  10  23  39  58  86 119 154 196 249 300 356
#     4  10  21  37  55  80 113 148 192 239 283 341
#
# _framework density 23.649947999999998
#
# number of rings (size 3 to 8) (size 9 to 14) (size 15 to 20)
#    0.000    1.714    1.429    2.571    2.000    1.143 
#    0.000    4.286    0.000    0.000    0.000    0.000 
#    0.000    0.000    0.000    0.000    0.000    0.000 
#
# Total GULP energy -156375.726909 kJ/mol
# GULP energy per Si atom -5584.847390 kJ/mol
# Density = 2.359612 g / cm^3
# Si number density = 23.649948 Si / 1000 Ang^3
#
#
#
# Elastic Constant Matrix: (Units=GPa)
#
#
# Indices 1 2 3 4 5 6 
#
# 1 113.4865 31.0757 1.6043 0.0000 0.3966 0.0000
# 2 31.0757 81.1309 -10.2844 0.0000 7.2436 0.0000
# 3 1.6043 -10.2844 37.5681 0.0000 -10.7906 0.0000
# 4 0.0000 0.0000 0.0000 29.9717 0.0000 0.8938
# 5 0.3966 7.2436 -10.7906 0.0000 33.1701 0.0000
# 6 0.0000 0.0000 0.0000 0.8938 0.0000 38.6100
#
#
#
# Elastic Compliance Matrix: (Units=1/GPa)
#
#
# Indices 1 2 3 4 5 6 
#
# 1 0.009929 -0.004012 -0.001439 0.000000 0.000289 0.000000
# 2 -0.004012 0.014490 0.003577 0.000000 -0.001953 0.000000
# 3 -0.001439 0.003577 0.030268 0.000000 0.009082 0.000000
# 4 0.000000 0.000000 0.000000 0.033388 0.000000 -0.000773
# 5 0.000289 -0.001953 0.009082 0.000000 0.033525 0.000000
# 6 0.000000 0.000000 0.000000 -0.000773 0.000000 0.025918
#
#
# Mechanical properties :
#
#
# Convention : Reuss Voigt Hill
#
# Bulk Modulus (GPa) = 19.63084 30.77520 25.20302
# Shear Modulus (GPa) = 29.71850 34.33636 32.02743
#
# Velocity S-wave (km/s) = 3.54870 3.81446 3.68398
# Velocity P-wave (km/s) = 5.01095 5.69572 5.36427
#
# Compressibility (1/GPa) = 0.05094026
#
# Stress axis : x y z
#
# Youngs Moduli (GPa) = 100.71081 69.01272 33.03842
#
# Poissons Ratio (x) = 0.27685 0.04755
# Poissons Ratio (y) = 0.40400 -0.11818
# Poissons Ratio (z) = 0.14494 -0.24687
#
# Static dielectric constant tensor:
#      x y z
#    x 1.698120 0.000000 0.319350 
#    y 0.000000 1.888420 0.000000 
#    z 0.319350 0.000000 1.609200 
# 
# From -- ./inp_files/288052.got.cif
#   From: 2010.05.17/outbox.cif.g08.bks.cpg/sg15_145_cif.got.tgz:288052.got - 2010.06.03 18:47:42.
