data_PCOD9280260
_publ_section_title
;
Structure prediction by ZEFSAII (Michael W. Deem and Ramdas Pophale) SiO2 
 PCOD9280260
Probable space group: C 2/C
;
_chemical_formula_sum "Si O2"
_cell_formula_units_Z 32
_cell_length_a 13.920485
_cell_length_b 18.788742
_cell_length_c 5.204962
_cell_angle_alpha 90.000000
_cell_angle_beta 90.000000
_cell_angle_gamma 90.000000
_cell_volume 1361.349489
_symmetry_space_group_name_H-M "C 2/C"
_symmetry_group_IT_number 15
_symmetry_cell_setting 'monoclinic'
loop_
_space_group_symop_operation_xyz
x,y,z
-x,y,1/2-z
-x,-y,-z
x,-y,1/2+z
1/2+x,1/2+y,z
1/2-x,1/2+y,1/2-z
1/2-x,1/2-y,-z
1/2+x,1/2-y,1/2+z
loop_
_atom_site_type_symbol
_atom_site_label
_atom_site_fract_x
_atom_site_fract_y
_atom_site_fract_z
Si Si1 0.893223 0.971565 0.067019
Si Si2 0.684783 0.829141 0.762936
Si Si3 0.315217 0.329141 0.262936
Si Si4 0.893223 0.471565 0.932981
O O1 0.884936 0.893687 0.188456
O O2 0.848688 0.023337 0.282873
O O3 0.000000 0.000000 0.000000
O O4 0.640606 0.750000 0.749999
O O5 0.767401 0.833719 0.543484
O O6 0.615064 0.893687 0.688456
O O7 0.732599 0.833719 0.043483
O O8 0.848688 0.523337 0.717127
O O9 0.000000 0.500000 0.000000
#
# Coordination Sequence:
#
# PCOD9280260 Si02
#       4
#     8   8   8   8
#     4  10  21  37  57  85 119 156 198 245 300 363
#     4  10  21  37  59  87 119 156 198 247 302 360
#     4  10  21  37  59  87 119 156 198 247 302 360
#     4  10  21  37  57  85 119 156 198 245 300 363
#
# _framework density 23.506086
#
# number of rings (size 3 to 8) (size 9 to 14) (size 15 to 20)
#    0.000    2.000    0.000    3.000    0.000    6.000 
#    0.000    5.000    0.000   12.000    0.000    0.000 
#    0.000    0.000    0.000    0.000    0.000    0.000 
#
# Total GULP energy -89253.785228 kJ/mol
# GULP energy per Si atom -5578.361577 kJ/mol
# Density = 2.345258 g / cm^3
# Si number density = 23.506086 Si / 1000 Ang^3
#
#
#
# Elastic Constant Matrix: (Units=GPa)
#
#
# Indices 1 2 3 4 5 6 
#
# 1 72.7827 38.1338 -11.6820 0.0000 -3.5587 0.0000
# 2 38.1338 234.4524 32.2539 0.0000 -0.4880 0.0000
# 3 -11.6820 32.2539 175.7173 0.0000 12.1017 0.0000
# 4 0.0000 0.0000 0.0000 41.4397 0.0000 0.2274
# 5 -3.5587 -0.4880 12.1017 0.0000 22.0941 0.0000
# 6 0.0000 0.0000 0.0000 0.2274 0.0000 38.6993
#
#
#
# Elastic Compliance Matrix: (Units=1/GPa)
#
#
# Indices 1 2 3 4 5 6 
#
# 1 0.015465 -0.002706 0.001411 0.000000 0.001658 0.000000
# 2 -0.002706 0.004856 -0.001090 0.000000 0.000268 0.000000
# 3 0.001411 -0.001090 0.006205 0.000000 -0.003195 0.000000
# 4 0.000000 0.000000 0.000000 0.024132 0.000000 -0.000142
# 5 0.001658 0.000268 -0.003195 0.000000 0.047284 0.000000
# 6 0.000000 0.000000 0.000000 -0.000142 0.000000 0.025841
#
#
# Mechanical properties :
#
#
# Convention : Reuss Voigt Hill
#
# Bulk Modulus (GPa) = 45.96569 66.70710 56.33640
# Shear Modulus (GPa) = 36.81752 48.72974 42.77363
#
# Velocity S-wave (km/s) = 3.96194 4.55804 4.27040
# Velocity P-wave (km/s) = 6.36605 7.49274 6.95226
#
# Compressibility (1/GPa) = 0.02175536
#
# Stress axis : x y z
#
# Youngs Moduli (GPa) = 64.66305 205.93710 161.16485
#
# Poissons Ratio (x) = 0.55726 -0.22734
# Poissons Ratio (y) = 0.17498 0.17562
# Poissons Ratio (z) = -0.09121 0.22441
#
# Static dielectric constant tensor:
#      x y z
#    x 2.188700 0.000000 -0.010400 
#    y 0.000000 1.919550 0.000000 
#    z -0.010400 0.000000 2.063440 
# 
# From -- ./inp_files/9637.got.cif
#   From: 2010.05.17/outbox.cif.g08.bks.cpg/sg15_5_cif.got.tgz:9637.got - 2010.06.03 18:47:42.
