data_PCOD9280523
_publ_section_title
;
Structure prediction by ZEFSAII (Michael W. Deem and Ramdas Pophale) SiO2 
 PCOD9280523
Probable space group: C 2/C
;
_chemical_formula_sum "Si O2"
_cell_formula_units_Z 60
_cell_length_a 17.227788
_cell_length_b 12.407531
_cell_length_c 12.930747
_cell_angle_alpha 90.000000
_cell_angle_beta 65.108933
_cell_angle_gamma 90.000000
_cell_volume 2507.253741
_symmetry_space_group_name_H-M "C 2/C"
_symmetry_group_IT_number 15
_symmetry_cell_setting 'monoclinic'
loop_
_space_group_symop_operation_xyz
x,y,z
-x,y,1/2-z
-x,-y,-z
x,-y,1/2+z
1/2+x,1/2+y,z
1/2-x,1/2+y,1/2-z
1/2-x,1/2-y,-z
1/2+x,1/2-y,1/2+z
loop_
_atom_site_type_symbol
_atom_site_label
_atom_site_fract_x
_atom_site_fract_y
_atom_site_fract_z
Si Si1 0.000000 0.299133 0.250000
Si Si2 0.934178 0.099156 0.025769
Si Si3 0.162682 0.853191 0.619568
Si Si4 0.647832 0.231493 0.055288
Si Si5 0.896321 0.344695 0.695502
Si Si6 0.963746 0.662951 0.548968
Si Si7 0.727592 0.481021 0.752816
Si Si8 0.699389 0.315869 0.374671
O O1 0.918727 0.220562 0.310237
O O2 0.982277 0.371201 0.156432
O O3 0.903728 0.155764 0.935386
O O4 0.973171 0.206294 0.057465
O O5 0.845692 0.068727 0.131768
O O6 0.000000 0.000000 0.000000
O O7 0.181843 0.963288 0.668714
O O8 0.240952 0.778579 0.615750
O O9 0.165780 0.871699 0.496564
O O10 0.606493 0.174748 0.179626
O O11 0.750000 0.250000 0.000000
O O12 0.625164 0.161157 0.965007
O O13 0.815207 0.418448 0.717634
O O14 0.873314 0.229128 0.658501
O O15 0.971385 0.380731 0.575223
O O16 0.748116 0.599843 0.778154
#
# Coordination Sequence:
#
# PCOD9280523 Si02
#       8
#     4   8   8   8   8   8   8   8
#     4  12  20  42  66  94 130 184 230 290 342 432
#     4  10  21  37  60  96 137 170 226 289 365 430
#     4  10  22  42  65  93 136 180 225 292 354 437
#     4  10  21  40  61  92 135 190 223 284 368 442
#     4  11  20  41  65  96 140 181 234 291 361 439
#     4  10  22  37  63  95 133 181 229 290 361 428
#     4  11  22  40  65  99 137 178 235 294 360 438
#     4  10  23  40  64  98 130 184 233 282 366 426
#
# _framework density 23.930565999999999
#
# number of rings (size 3 to 8) (size 9 to 14) (size 15 to 20)
#    0.800    0.800    4.000    1.200    1.867    1.067 
#    0.000    0.000    2.933    0.800    0.000    0.000 
#    0.000    0.000    0.000    0.000    0.000    0.000 
#
# Total GULP energy -167180.046280 kJ/mol
# GULP energy per Si atom -5572.668209 kJ/mol
# Density = 2.387610 g / cm^3
# Si number density = 23.930566 Si / 1000 Ang^3
#
#
#
# Elastic Constant Matrix: (Units=GPa)
#
#
# Indices 1 2 3 4 5 6 
#
# 1 108.3932 -5.5280 61.1190 0.0000 7.6328 0.0000
# 2 -5.5280 29.6579 17.0780 0.0000 11.9778 0.0000
# 3 61.1190 17.0780 163.3622 0.0000 25.0884 0.0000
# 4 0.0000 0.0000 0.0000 23.9204 0.0000 6.4371
# 5 7.6328 11.9778 25.0884 0.0000 52.5610 0.0000
# 6 0.0000 0.0000 0.0000 6.4371 0.0000 23.1215
#
#
#
# Elastic Compliance Matrix: (Units=1/GPa)
#
#
# Indices 1 2 3 4 5 6 
#
# 1 0.012450 0.005529 -0.005142 0.000000 -0.000614 0.000000
# 2 0.005529 0.040805 -0.005161 0.000000 -0.007638 0.000000
# 3 -0.005142 -0.005161 0.008945 0.000000 -0.002347 0.000000
# 4 0.000000 0.000000 0.000000 0.045191 0.000000 -0.012581
# 5 -0.000614 -0.007638 -0.002347 0.000000 0.021975 0.000000
# 6 0.000000 0.000000 0.000000 -0.012581 0.000000 0.046752
#
#
# Mechanical properties :
#
#
# Convention : Reuss Voigt Hill
#
# Bulk Modulus (GPa) = 18.99240 49.63903 34.31571
# Shear Modulus (GPa) = 24.60410 35.17021 29.88716
#
# Velocity S-wave (km/s) = 3.20995 3.83780 3.53783
# Velocity P-wave (km/s) = 4.65747 6.35816 5.57307
#
# Compressibility (1/GPa) = 0.05265264
#
# Stress axis : x y z
#
# Youngs Moduli (GPa) = 80.32043 24.50659 111.79363
#
# Poissons Ratio (x) = -0.13550 0.57482
# Poissons Ratio (y) = -0.44412 0.57702
# Poissons Ratio (z) = 0.41299 0.12649
#
# Static dielectric constant tensor:
#      x y z
#    x 3.040410 0.000000 -0.793890 
#    y 0.000000 1.971430 0.000000 
#    z -0.793890 0.000000 2.564990 
# 
# From -- ./inp_files/105709.got.cif
#   From: 2010.05.17/outbox.cif.g08.bks.cpg/sg15_53_cif.got.tgz:105709.got - 2010.06.03 18:47:42.
