data_PCOD9280813
_publ_section_title
;
Structure prediction by ZEFSAII (Michael W. Deem and Ramdas Pophale) SiO2 
 PCOD9280813
Probable space group: C 2/C
;
_chemical_formula_sum "Si O2"
_cell_formula_units_Z 40
_cell_length_a 17.922309
_cell_length_b 6.719147
_cell_length_c 15.815527
_cell_angle_alpha 90.000000
_cell_angle_beta 120.190900
_cell_angle_gamma 90.000000
_cell_volume 1646.204410
_symmetry_space_group_name_H-M "C 2/C"
_symmetry_group_IT_number 15
_symmetry_cell_setting 'monoclinic'
loop_
_space_group_symop_operation_xyz
x,y,z
-x,y,1/2-z
-x,-y,-z
x,-y,1/2+z
1/2+x,1/2+y,z
1/2-x,1/2+y,1/2-z
1/2-x,1/2-y,-z
1/2+x,1/2-y,1/2+z
loop_
_atom_site_type_symbol
_atom_site_label
_atom_site_fract_x
_atom_site_fract_y
_atom_site_fract_z
Si Si1 0.944306 0.587657 0.891740
Si Si2 0.909062 0.718070 0.217933
Si Si3 0.229758 0.191179 0.167387
Si Si4 0.391671 0.157808 0.591458
Si Si5 0.247104 0.738043 0.125693
O O1 0.919046 0.416767 0.809326
O O2 0.862520 0.703354 0.881700
O O3 0.013351 0.726698 0.881321
O O4 0.000000 0.500000 0.000000
O O5 0.812302 0.803175 0.173003
O O6 0.902939 0.560391 0.137728
O O7 0.000000 0.827546 0.250000
O O8 0.250380 0.162299 0.278107
O O9 0.227062 0.975560 0.122195
O O10 0.339358 0.277856 0.632300
O O11 0.327478 0.152560 0.475543
#
# Coordination Sequence:
#
# PCOD9280813 Si02
#       5
#     8   8   8   8   8
#     4  11  21  36  64  92 123 167 208 262 323 382
#     4   9  19  39  62  88 124 173 209 255 323 382
#     4  11  20  37  63  93 123 167 211 267 316 376
#     4   9  19  37  61  86 125 171 209 246 326 389
#     4  10  21  37  64  91 126 166 218 262 312 381
#
# _framework density 24.298317999999998
#
# number of rings (size 3 to 8) (size 9 to 14) (size 15 to 20)
#    0.000    2.000    4.000    1.200    0.000    0.800 
#    0.000    9.000    4.400    0.000    0.000    0.000 
#    0.000    0.000    0.000    0.000    0.000    0.000 
#
# Total GULP energy -111741.124156 kJ/mol
# GULP energy per Si atom -5587.056208 kJ/mol
# Density = 2.424301 g / cm^3
# Si number density = 24.298318 Si / 1000 Ang^3
#
#
#
# Elastic Constant Matrix: (Units=GPa)
#
#
# Indices 1 2 3 4 5 6 
#
# 1 277.8310 52.8806 55.2608 0.0000 32.3952 0.0000
# 2 52.8806 54.1462 19.9333 0.0000 -3.6472 0.0000
# 3 55.2608 19.9333 108.5482 0.0000 0.3619 0.0000
# 4 0.0000 0.0000 0.0000 19.1598 0.0000 5.8279
# 5 32.3952 -3.6472 0.3619 0.0000 35.1244 0.0000
# 6 0.0000 0.0000 0.0000 5.8279 0.0000 26.1798
#
#
#
# Elastic Compliance Matrix: (Units=1/GPa)
#
#
# Indices 1 2 3 4 5 6 
#
# 1 0.005629 -0.005184 -0.001894 0.000000 -0.005710 0.000000
# 2 -0.005184 0.024738 -0.001928 0.000000 0.007370 0.000000
# 3 -0.001894 -0.001928 0.010526 0.000000 0.001439 0.000000
# 4 0.000000 0.000000 0.000000 0.055983 0.000000 -0.012462
# 5 -0.005710 0.007370 0.001439 0.000000 0.034487 0.000000
# 6 0.000000 0.000000 0.000000 -0.012462 0.000000 0.040972
#
#
# Mechanical properties :
#
#
# Convention : Reuss Voigt Hill
#
# Bulk Modulus (GPa) = 43.70793 77.40831 60.55812
# Shear Modulus (GPa) = 25.25574 36.92285 31.08929
#
# Velocity S-wave (km/s) = 3.22747 3.90239 3.58087
# Velocity P-wave (km/s) = 5.64942 7.22713 6.48642
#
# Compressibility (1/GPa) = 0.02287914
#
# Stress axis : x y z
#
# Youngs Moduli (GPa) = 177.66189 40.42387 95.00107
#
# Poissons Ratio (x) = 0.20957 0.17997
# Poissons Ratio (y) = 0.92106 0.18317
# Poissons Ratio (z) = 0.33657 0.07794
#
# Static dielectric constant tensor:
#      x y z
#    x 2.009740 0.000000 0.009910 
#    y 0.000000 1.997480 0.000000 
#    z 0.009910 0.000000 1.903660 
# 
# From -- ./inp_files/159507.got.cif
#   From: 2010.05.17/outbox.cif.g08.bks.cpg/sg15_80_cif.got.tgz:159507.got - 2010.06.03 18:47:42.
