data_PCOD9280010
_publ_section_title
;
Structure prediction by ZEFSAII (Michael W. Deem and Ramdas Pophale) SiO2 
 PCOD9280010
Probable space group: C 2/C
;
_chemical_formula_sum "Si O2"
_cell_formula_units_Z 56
_cell_length_a 17.837696
_cell_length_b 8.582973
_cell_length_c 19.851864
_cell_angle_alpha 90.000000
_cell_angle_beta 74.421212
_cell_angle_gamma 90.000000
_cell_volume 2927.670866
_symmetry_space_group_name_H-M "C 2/C"
_symmetry_group_IT_number 15
_symmetry_cell_setting 'monoclinic'
loop_
_space_group_symop_operation_xyz
x,y,z
-x,y,1/2-z
-x,-y,-z
x,-y,1/2+z
1/2+x,1/2+y,z
1/2-x,1/2+y,1/2-z
1/2-x,1/2-y,-z
1/2+x,1/2-y,1/2+z
loop_
_atom_site_type_symbol
_atom_site_label
_atom_site_fract_x
_atom_site_fract_y
_atom_site_fract_z
Si Si1 0.568414 0.743112 0.677010
Si Si2 0.213518 0.235707 0.834717
Si Si3 0.037092 0.191816 0.919787
Si Si4 0.639179 0.599931 0.154148
Si Si5 0.513742 0.667692 0.078700
Si Si6 0.307277 0.061126 0.284365
Si Si7 0.568138 0.832477 0.280936
O O1 0.500000 0.736339 0.750000
O O2 0.524150 0.765219 0.617378
O O3 0.615432 0.579595 0.667658
O O4 0.633811 0.871421 0.674836
O O5 0.124347 0.236922 0.878371
O O6 0.271579 0.345666 0.863556
O O7 0.221325 0.300992 0.756551
O O8 0.243773 0.057316 0.828422
O O9 0.020656 0.228264 0.001474
O O10 0.024224 0.004951 0.914345
O O11 0.597279 0.652871 0.095462
O O12 0.599568 0.691429 0.226539
O O13 0.464227 0.772108 0.141351
O O14 0.363249 0.953385 0.225361
O O15 0.500000 0.902394 0.250000
#
# Coordination Sequence:
#
# PCOD9280010 Si02
#       7
#     8   8   8   8   8   8   8
#     4  11  19  36  61  85 114 150 196 239 280 347
#     4  11  23  36  56  90 117 152 190 242 296 341
#     4  10  21  36  63  87 116 155 198 236 289 346
#     4   9  19  35  60  86 115 152 188 236 295 338
#     4   9  19  38  61  86 116 157 196 235 286 354
#     4  11  23  34  58  86 121 146 193 246 296 334
#     4   9  18  34  59  85 111 147 193 241 279 335
#
# _framework density 19.127832999999999
#
# number of rings (size 3 to 8) (size 9 to 14) (size 15 to 20)
#    0.000    2.000    1.429    3.429    4.000    0.571 
#    0.000    0.714    3.143    2.571    0.000    0.000 
#    0.000    0.000    0.000    0.000    0.000    0.000 
#
# Total GULP energy -156265.264540 kJ/mol
# GULP energy per Si atom -5580.902305 kJ/mol
# Density = 1.908430 g / cm^3
# Si number density = 19.127833 Si / 1000 Ang^3
#
#
#
# Elastic Constant Matrix: (Units=GPa)
#
#
# Indices 1 2 3 4 5 6 
#
# 1 123.6364 43.6211 44.4834 0.0000 18.4880 0.0000
# 2 43.6211 57.2361 33.6702 0.0000 9.2638 0.0000
# 3 44.4834 33.6702 107.8487 0.0000 27.7148 0.0000
# 4 0.0000 0.0000 0.0000 12.6331 0.0000 8.6538
# 5 18.4880 9.2638 27.7148 0.0000 16.1694 0.0000
# 6 0.0000 0.0000 0.0000 8.6538 0.0000 36.6575
#
#
#
# Elastic Compliance Matrix: (Units=1/GPa)
#
#
# Indices 1 2 3 4 5 6 
#
# 1 0.012278 -0.007694 -0.000335 0.000000 -0.009056 0.000000
# 2 -0.007694 0.026243 -0.006106 0.000000 0.004229 0.000000
# 3 -0.000335 -0.006106 0.018443 0.000000 -0.027731 0.000000
# 4 0.000000 0.000000 0.000000 0.094427 0.000000 -0.022292
# 5 -0.009056 0.004229 -0.027731 0.000000 0.117309 0.000000
# 6 0.000000 0.000000 0.000000 -0.022292 0.000000 0.032542
#
#
# Mechanical properties :
#
#
# Convention : Reuss Voigt Hill
#
# Bulk Modulus (GPa) = 34.85121 59.14117 46.99619
# Shear Modulus (GPa) = 14.74595 24.22177 19.48386
#
# Velocity S-wave (km/s) = 2.77955 3.56239 3.19503
# Velocity P-wave (km/s) = 5.34424 6.92148 6.18335
#
# Compressibility (1/GPa) = 0.02869341
#
# Stress axis : x y z
#
# Youngs Moduli (GPa) = 81.44929 38.10504 54.22197
#
# Poissons Ratio (x) = 0.29320 0.01814
# Poissons Ratio (y) = 0.62671 0.33108
# Poissons Ratio (z) = 0.02725 0.23267
#
# Static dielectric constant tensor:
#      x y z
#    x 1.692320 0.000000 0.018490 
#    y 0.000000 1.708080 0.000000 
#    z 0.018490 0.000000 1.629530 
# 
# From -- ./inp_files/251294.got.cif
#   From: 2010.05.17/outbox.cif.g08.bks.cpg/sg15_126_cif.got.tgz:251294.got - 2010.06.03 18:47:42.
