data_PCOD9280580
_publ_section_title
;
Structure prediction by ZEFSAII (Michael W. Deem and Ramdas Pophale) SiO2 
 PCOD9280580
Probable space group: C 2/C
;
_chemical_formula_sum "Si O2"
_cell_formula_units_Z 44
_cell_length_a 29.282180
_cell_length_b 7.078397
_cell_length_c 8.306770
_cell_angle_alpha 90.000000
_cell_angle_beta 99.490878
_cell_angle_gamma 90.000000
_cell_volume 1698.184086
_symmetry_space_group_name_H-M "C 2/C"
_symmetry_group_IT_number 15
_symmetry_cell_setting 'monoclinic'
loop_
_space_group_symop_operation_xyz
x,y,z
-x,y,1/2-z
-x,-y,-z
x,-y,1/2+z
1/2+x,1/2+y,z
1/2-x,1/2+y,1/2-z
1/2-x,1/2-y,-z
1/2+x,1/2-y,1/2+z
loop_
_atom_site_type_symbol
_atom_site_label
_atom_site_fract_x
_atom_site_fract_y
_atom_site_fract_z
Si Si1 0.022364 0.805440 0.590501
Si Si2 0.000000 0.768390 0.250000
Si Si3 0.602803 0.734089 0.738116
Si Si4 0.793652 0.442425 0.142193
Si Si5 0.883234 0.640458 0.892676
Si Si6 0.304300 0.294598 0.323726
O O1 0.076775 0.776336 0.650561
O O2 0.000000 0.769733 0.750000
O O3 0.010900 0.673795 0.427873
O O4 0.000000 0.000000 0.500000
O O5 0.947792 0.851411 0.254764
O O6 0.644519 0.620084 0.674685
O O7 0.599577 0.924522 0.628387
O O8 0.618227 0.809603 0.921461
O O9 0.833800 0.349916 0.275843
O O10 0.741390 0.412552 0.173610
O O11 0.797696 0.666288 0.162758
O O12 0.802493 0.349378 0.974507
#
# Coordination Sequence:
#
# PCOD9280580 Si02
#       6
#     8   4   8   8   8   8
#     4  11  24  42  61  84 125 167 203 260 305 373
#     4  10  24  40  60  96 120 158 218 246 318 366
#     4  10  21  37  61  90 123 154 201 261 305 363
#     4  10  21  39  59  92 118 164 203 254 314 373
#     4  10  22  37  62  90 119 159 206 252 316 364
#     4  10  21  38  62  87 129 157 205 257 310 366
#
# _framework density 25.910032000000001
#
# number of rings (size 3 to 8) (size 9 to 14) (size 15 to 20)
#    0.000    1.818    0.909    4.364    6.364    4.364 
#    3.273    0.000    0.000    0.000    0.000    0.000 
#    0.000    0.000    0.000    0.000    0.000    0.000 
#
# Total GULP energy -122600.885589 kJ/mol
# GULP energy per Si atom -5572.767527 kJ/mol
# Density = 2.585106 g / cm^3
# Si number density = 25.910032 Si / 1000 Ang^3
#
#
#
# Elastic Constant Matrix: (Units=GPa)
#
#
# Indices 1 2 3 4 5 6 
#
# 1 277.6564 39.5058 37.3336 0.0000 -46.1609 0.0000
# 2 39.5058 45.7749 0.9132 0.0000 -5.2183 0.0000
# 3 37.3336 0.9132 111.4289 0.0000 -17.9055 0.0000
# 4 0.0000 0.0000 0.0000 15.9058 0.0000 -0.2321
# 5 -46.1609 -5.2183 -17.9055 0.0000 45.9603 0.0000
# 6 0.0000 0.0000 0.0000 -0.2321 0.0000 36.2201
#
#
#
# Elastic Compliance Matrix: (Units=1/GPa)
#
#
# Indices 1 2 3 4 5 6 
#
# 1 0.004965 -0.003789 -0.000960 0.000000 0.004182 0.000000
# 2 -0.003789 0.025030 0.000970 0.000000 -0.000586 0.000000
# 3 -0.000960 0.000970 0.009762 0.000000 0.002949 0.000000
# 4 0.000000 0.000000 0.000000 0.062876 0.000000 0.000403
# 5 0.004182 -0.000586 0.002949 0.000000 0.027041 0.000000
# 6 0.000000 0.000000 0.000000 0.000403 0.000000 0.027612
#
#
# Mechanical properties :
#
#
# Convention : Reuss Voigt Hill
#
# Bulk Modulus (GPa) = 31.05724 65.59617 48.32670
# Shear Modulus (GPa) = 28.47750 43.42442 35.95096
#
# Velocity S-wave (km/s) = 3.31885 4.09830 3.72900
# Velocity P-wave (km/s) = 5.16710 6.91134 6.10187
#
# Compressibility (1/GPa) = 0.03219861
#
# Stress axis : x y z
#
# Youngs Moduli (GPa) = 201.40178 39.95182 102.43810
#
# Poissons Ratio (x) = 0.15139 0.09838
# Poissons Ratio (y) = 0.76316 -0.09939
# Poissons Ratio (z) = 0.19343 -0.03876
#
# Static dielectric constant tensor:
#      x y z
#    x 2.135220 0.000000 -0.008240 
#    y 0.000000 2.253260 0.000000 
#    z -0.008240 0.000000 2.062250 
# 
# From -- ./inp_files/68391.got.cif
#   From: 2010.05.17/outbox.cif.g08.bks.cpg/sg15_35_cif.got.tgz:68391.got - 2010.06.03 18:47:42.
