data_PCOD9280887
_publ_section_title
;
Structure prediction by ZEFSAII (Michael W. Deem and Ramdas Pophale) SiO2 
 PCOD9280887
Probable space group: C 2/C
;
_chemical_formula_sum "Si O2"
_cell_formula_units_Z 56
_cell_length_a 17.515622
_cell_length_b 8.830116
_cell_length_c 22.421475
_cell_angle_alpha 90.000000
_cell_angle_beta 48.178573
_cell_angle_gamma 90.000000
_cell_volume 2584.309649
_symmetry_space_group_name_H-M "C 2/C"
_symmetry_group_IT_number 15
_symmetry_cell_setting 'monoclinic'
loop_
_space_group_symop_operation_xyz
x,y,z
-x,y,1/2-z
-x,-y,-z
x,-y,1/2+z
1/2+x,1/2+y,z
1/2-x,1/2+y,1/2-z
1/2-x,1/2-y,-z
1/2+x,1/2-y,1/2+z
loop_
_atom_site_type_symbol
_atom_site_label
_atom_site_fract_x
_atom_site_fract_y
_atom_site_fract_z
Si Si1 0.110279 0.574865 0.458785
Si Si2 0.550214 0.637288 0.156804
Si Si3 0.682131 0.099992 0.035965
Si Si4 0.754864 0.687437 0.921158
Si Si5 0.996868 0.797748 0.323628
Si Si6 0.320735 0.151411 0.209775
Si Si7 0.139620 0.325559 0.263725
O O1 0.163133 0.463356 0.479159
O O2 0.141481 0.740005 0.471731
O O3 0.158881 0.599915 0.368624
O O4 0.000000 0.500000 0.500000
O O5 0.500000 0.626767 0.250000
O O6 0.665955 0.694292 0.089564
O O7 0.543168 0.465022 0.138418
O O8 0.475288 0.765468 0.169593
O O9 0.573857 0.160642 0.117263
O O10 0.728545 0.973506 0.056022
O O11 0.750000 0.250000 0.000000
O O12 0.810924 0.686326 0.827515
O O13 0.104323 0.776583 0.301337
O O14 0.000000 0.789113 0.250000
O O15 0.207759 0.219358 0.270749
O O16 0.344793 0.999883 0.231827
#
# Coordination Sequence:
#
# PCOD9280887 Si02
#       7
#     8   8   8   8   8   8   8
#     4  11  24  44  63  91 135 178 214 267 331 387
#     4   9  19  37  62  98 124 163 209 269 326 391
#     4  12  25  43  67  98 129 175 227 269 328 401
#     4  10  22  42  69  91 129 172 222 268 325 397
#     4  11  22  39  65  92 130 165 223 272 326 392
#     4  11  22  39  62  94 133 170 207 276 330 398
#     4  10  21  37  65  97 129 162 217 265 339 389
#
# _framework density 21.669229999999999
#
# number of rings (size 3 to 8) (size 9 to 14) (size 15 to 20)
#    0.000    1.429    1.429    3.857    0.000    5.714 
#    0.000    0.714    0.000    0.000    0.000    0.000 
#    0.000    0.000    0.000    0.000    0.000    0.000 
#
# Total GULP energy -156116.271558 kJ/mol
# GULP energy per Si atom -5575.581127 kJ/mol
# Density = 2.161991 g / cm^3
# Si number density = 21.669230 Si / 1000 Ang^3
#
#
#
# Elastic Constant Matrix: (Units=GPa)
#
#
# Indices 1 2 3 4 5 6 
#
# 1 104.6953 48.5976 14.6932 0.0000 -12.2493 0.0000
# 2 48.5976 130.8915 -2.9112 0.0000 -13.1427 0.0001
# 3 14.6932 -2.9112 28.4180 0.0000 -8.3123 0.0000
# 4 0.0000 0.0000 0.0000 57.8783 0.0000 4.3456
# 5 -12.2493 -13.1427 -8.3123 0.0000 33.7843 0.0000
# 6 0.0000 0.0001 0.0000 4.3456 0.0000 39.6715
#
#
#
# Elastic Compliance Matrix: (Units=1/GPa)
#
#
# Indices 1 2 3 4 5 6 
#
# 1 0.012878 -0.004821 -0.006826 0.000000 0.001114 0.000000
# 2 -0.004821 0.009847 0.004429 0.000000 0.003172 0.000000
# 3 -0.006826 0.004429 0.041973 0.000000 0.009575 0.000000
# 4 0.000000 0.000000 0.000000 0.017421 0.000000 -0.001908
# 5 0.001114 0.003172 0.009575 0.000000 0.033594 0.000000
# 6 0.000000 0.000000 0.000000 -0.001908 0.000000 0.025416
#
#
# Mechanical properties :
#
#
# Convention : Reuss Voigt Hill
#
# Bulk Modulus (GPa) = 19.89593 42.75153 31.32373
# Shear Modulus (GPa) = 29.01603 39.84183 34.42893
#
# Velocity S-wave (km/s) = 3.66326 4.29258 3.99035
# Velocity P-wave (km/s) = 5.20521 6.65885 5.97639
#
# Compressibility (1/GPa) = 0.05026154
#
# Stress axis : x y z
#
# Youngs Moduli (GPa) = 77.65278 101.55347 23.82483
#
# Poissons Ratio (x) = 0.48962 0.16264
# Poissons Ratio (y) = 0.37439 -0.10553
# Poissons Ratio (z) = 0.53009 -0.44983
#
# Static dielectric constant tensor:
#      x y z
#    x 1.690370 0.000000 -0.092090 
#    y 0.000000 1.814530 0.000000 
#    z -0.092090 0.000000 1.801970 
# 
# From -- ./inp_files/276500.got.cif
#   From: 2010.05.17/outbox.cif.g08.bks.cpg/sg15_139_cif.got.tgz:276500.got - 2010.06.03 18:47:42.
