data_PCOD9280142
_publ_section_title
;
Structure prediction by ZEFSAII (Michael W. Deem and Ramdas Pophale) SiO2 
 PCOD9280142
Probable space group: C 2/C
;
_chemical_formula_sum "Si O2"
_cell_formula_units_Z 60
_cell_length_a 20.866100
_cell_length_b 28.228484
_cell_length_c 4.917841
_cell_angle_alpha 90.000000
_cell_angle_beta 85.252916
_cell_angle_gamma 90.000000
_cell_volume 2886.762189
_symmetry_space_group_name_H-M "C 2/C"
_symmetry_group_IT_number 15
_symmetry_cell_setting 'monoclinic'
loop_
_space_group_symop_operation_xyz
x,y,z
-x,y,1/2-z
-x,-y,-z
x,-y,1/2+z
1/2+x,1/2+y,z
1/2-x,1/2+y,1/2-z
1/2-x,1/2-y,-z
1/2+x,1/2-y,1/2+z
loop_
_atom_site_type_symbol
_atom_site_label
_atom_site_fract_x
_atom_site_fract_y
_atom_site_fract_z
Si Si1 0.682528 0.336326 0.867761
Si Si2 0.181844 0.266544 0.158287
Si Si3 0.240621 0.362718 0.176349
Si Si4 0.748691 0.035592 0.895137
Si Si5 0.000000 0.929831 0.250000
Si Si6 0.953922 0.250970 0.531011
Si Si7 0.616428 0.528157 0.438133
Si Si8 0.935715 0.853863 0.946721
O O1 0.671455 0.279365 0.852778
O O2 0.740636 0.355052 0.648246
O O3 0.621141 0.358800 0.746545
O O4 0.696382 0.348988 0.171166
O O5 0.194144 0.318832 0.271106
O O6 0.116962 0.271640 0.002482
O O7 0.250000 0.250000 0.000000
O O8 0.220105 0.415127 0.282604
O O9 0.821556 0.052800 0.951777
O O10 0.735690 0.994894 0.673509
O O11 0.956171 0.957331 0.477888
O O12 0.054130 0.896934 0.360371
O O13 0.936114 0.196202 0.599556
O O14 0.000000 0.252440 0.250000
O O15 0.000000 0.270554 0.750000
O O16 0.623649 0.520317 0.115707
O O17 0.000000 0.853103 0.750000
#
# Coordination Sequence:
#
# PCOD9280142 Si02
#       8
#     8   8   8   8   4   8   8   8
#     4  10  22  35  53  78 113 141 179 231 287 330
#     4   9  21  37  60  89 120 154 196 242 286 339
#     4  11  21  37  58  81 105 140 183 231 285 345
#     4  10  21  37  54  73 101 137 176 230 293 344
#     4  12  22  32  50  66  90 126 188 230 264 316
#     4  10  21  39  55  79 120 158 185 223 279 342
#     4  10  23  37  48  63  89 126 170 227 289 324
#     4  10  23  31  48  72 100 136 183 222 269 320
#
# _framework density 20.784533
#
# number of rings (size 3 to 8) (size 9 to 14) (size 15 to 20)
#    0.000    1.867    0.667    2.400    5.600    9.600 
#    0.000    0.000    0.000    0.000    0.000    0.000 
#    0.000    3.200    0.000    0.000    0.000    0.000 
#
# Total GULP energy -167190.138994 kJ/mol
# GULP energy per Si atom -5573.004633 kJ/mol
# Density = 2.073723 g / cm^3
# Si number density = 20.784533 Si / 1000 Ang^3
#
#
#
# Elastic Constant Matrix: (Units=GPa)
#
#
# Indices 1 2 3 4 5 6 
#
# 1 70.1072 18.4330 18.9694 0.0000 21.5490 0.0000
# 2 18.4330 100.4987 21.1518 0.0000 21.8821 0.0000
# 3 18.9694 21.1518 85.0314 0.0000 5.4867 0.0000
# 4 0.0000 0.0000 0.0000 18.5207 0.0000 13.0308
# 5 21.5490 21.8821 5.4867 0.0000 23.0194 0.0000
# 6 0.0000 0.0000 0.0000 13.0308 0.0000 29.9393
#
#
#
# Elastic Compliance Matrix: (Units=1/GPa)
#
#
# Indices 1 2 3 4 5 6 
#
# 1 0.021114 0.001290 -0.003734 0.000000 -0.020101 0.000000
# 2 0.001290 0.013123 -0.002711 0.000000 -0.013036 0.000000
# 3 -0.003734 -0.002711 0.013077 0.000000 0.002956 0.000000
# 4 0.000000 0.000000 0.000000 0.077826 0.000000 -0.033873
# 5 -0.020101 -0.013036 0.002956 0.000000 0.073946 0.000000
# 6 0.000000 0.000000 0.000000 -0.033873 0.000000 0.048144
#
#
# Mechanical properties :
#
#
# Convention : Reuss Voigt Hill
#
# Bulk Modulus (GPa) = 27.02443 41.41620 34.22031
# Shear Modulus (GPa) = 18.52716 27.43475 22.98096
#
# Velocity S-wave (km/s) = 2.98886 3.63707 3.32878
# Velocity P-wave (km/s) = 4.99414 6.13249 5.59235
#
# Compressibility (1/GPa) = 0.03700355
#
# Stress axis : x y z
#
# Youngs Moduli (GPa) = 47.36283 76.20381 76.47002
#
# Poissons Ratio (x) = -0.09831 0.28554
# Poissons Ratio (y) = -0.06110 0.20731
# Poissons Ratio (z) = 0.17685 0.20659
#
# Static dielectric constant tensor:
#      x y z
#    x 1.773920 0.000000 -0.020990 
#    y 0.000000 1.860950 0.000000 
#    z -0.020990 0.000000 1.831390 
# 
# From -- ./inp_files/14297.got.cif
#   From: 2010.05.17/outbox.cif.g08.bks.cpg/sg15_8_cif.got.tgz:14297.got - 2010.06.03 18:47:42.
