data_PCOD9280370
_publ_section_title
;
Structure prediction by ZEFSAII (Michael W. Deem and Ramdas Pophale) SiO2 
 PCOD9280370
Probable space group: C 2/C
;
_chemical_formula_sum "Si O2"
_cell_formula_units_Z 48
_cell_length_a 19.018672
_cell_length_b 14.603585
_cell_length_c 18.333171
_cell_angle_alpha 90.000000
_cell_angle_beta 151.678362
_cell_angle_gamma 90.000000
_cell_volume 2415.688227
_symmetry_space_group_name_H-M "C 2/C"
_symmetry_group_IT_number 15
_symmetry_cell_setting 'monoclinic'
loop_
_space_group_symop_operation_xyz
x,y,z
-x,y,1/2-z
-x,-y,-z
x,-y,1/2+z
1/2+x,1/2+y,z
1/2-x,1/2+y,1/2-z
1/2-x,1/2-y,-z
1/2+x,1/2-y,1/2+z
loop_
_atom_site_type_symbol
_atom_site_label
_atom_site_fract_x
_atom_site_fract_y
_atom_site_fract_z
Si Si1 0.829328 0.168205 0.114931
Si Si2 0.647554 0.465495 0.350053
Si Si3 0.128761 0.965550 0.169950
Si Si4 0.376524 0.809328 0.576640
Si Si5 0.999840 0.225339 0.959476
Si Si6 0.737016 0.145432 0.199720
O O1 0.785130 0.168992 0.160446
O O2 0.000000 0.181898 0.250000
O O3 0.804016 0.061361 0.069219
O O4 0.750000 0.250000 0.000000
O O5 0.500000 0.421831 0.250000
O O6 0.586917 0.487298 0.214557
O O7 0.787486 0.399789 0.471194
O O8 0.123541 0.856214 0.158181
O O9 0.264550 0.035972 0.284751
O O10 0.000000 0.000000 0.000000
O O11 0.500000 0.830078 0.750000
O O12 0.250000 0.750000 0.500000
O O13 0.446311 0.756972 0.571179
O O14 0.919028 0.308843 0.925170
O O15 0.138169 0.187494 0.132213
#
# Coordination Sequence:
#
# PCOD9280370 Si02
#       6
#     8   8   8   8   8   8
#     4  10  21  39  61  85 116 156 198 242 293 353
#     4  10  21  39  60  86 118 153 198 247 298 360
#     4   9  19  36  59  83 112 151 191 234 292 355
#     4  12  24  39  61  89 120 158 201 251 306 364
#     4  11  21  38  59  85 117 151 193 242 294 353
#     4  10  21  37  59  86 114 151 194 238 291 351
#
# _framework density 19.870113
#
# number of rings (size 3 to 8) (size 9 to 14) (size 15 to 20)
#    0.000    1.667    0.000    5.500    0.000    3.333 
#    0.000    9.167    0.000    0.000    0.000    0.000 
#    0.000    0.000    0.000    0.000    0.000    0.000 
#
# Total GULP energy -133712.669039 kJ/mol
# GULP energy per Si atom -5571.361210 kJ/mol
# Density = 1.982489 g / cm^3
# Si number density = 19.870113 Si / 1000 Ang^3
#
#
#
# Elastic Constant Matrix: (Units=GPa)
#
#
# Indices 1 2 3 4 5 6 
#
# 1 97.8184 31.7278 31.6936 -0.0001 -3.4047 -0.0001
# 2 31.7278 124.7960 36.3473 0.0000 5.7556 0.0000
# 3 31.6936 36.3473 67.7211 -0.0001 -10.5545 0.0000
# 4 -0.0001 0.0000 -0.0001 21.3188 0.0000 0.8272
# 5 -3.4047 5.7556 -10.5545 0.0000 31.6190 0.0000
# 6 -0.0001 0.0000 0.0000 0.8272 0.0000 25.9959
#
#
#
# Elastic Compliance Matrix: (Units=1/GPa)
#
#
# Indices 1 2 3 4 5 6 
#
# 1 0.012357 -0.001730 -0.004850 0.000000 0.000026 0.000000
# 2 -0.001730 0.010149 -0.005227 0.000000 -0.003778 0.000000
# 3 -0.004850 -0.005227 0.021001 0.000000 0.007439 0.000000
# 4 0.000000 0.000000 0.000000 0.046965 0.000000 -0.001495
# 5 0.000026 -0.003778 0.007439 0.000000 0.034800 0.000000
# 6 0.000000 0.000000 0.000000 -0.001495 0.000000 0.038515
#
#
# Mechanical properties :
#
#
# Convention : Reuss Voigt Hill
#
# Bulk Modulus (GPa) = 50.26833 54.43033 52.34933
# Shear Modulus (GPa) = 25.76885 28.49119 27.13002
#
# Velocity S-wave (km/s) = 3.60511 3.79076 3.69910
# Velocity P-wave (km/s) = 6.53318 6.82732 6.68187
#
# Compressibility (1/GPa) = 0.01989324
#
# Stress axis : x y z
#
# Youngs Moduli (GPa) = 80.92843 98.52740 47.61666
#
# Poissons Ratio (x) = 0.17046 0.23095
# Poissons Ratio (y) = 0.14001 0.24887
# Poissons Ratio (z) = 0.39252 0.51497
#
# Static dielectric constant tensor:
#      x y z
#    x 1.690190 0.000000 -0.014930 
#    y 0.000000 1.921030 0.000000 
#    z -0.014930 0.000000 1.679490 
# 
# From -- ./inp_files/66381.got.cif
#   From: 2010.05.17/outbox.cif.g08.bks.cpg/sg15_34_cif.got.tgz:66381.got - 2010.06.03 18:47:42.
