data_PCOD9280556
_publ_section_title
;
Structure prediction by ZEFSAII (Michael W. Deem and Ramdas Pophale) SiO2 
 PCOD9280556
Probable space group: C 2/C
;
_chemical_formula_sum "Si O2"
_cell_formula_units_Z 32
_cell_length_a 5.288398
_cell_length_b 28.606124
_cell_length_c 9.382314
_cell_angle_alpha 90.000000
_cell_angle_beta 111.980851
_cell_angle_gamma 90.000000
_cell_volume 1316.186973
_symmetry_space_group_name_H-M "C 2/C"
_symmetry_group_IT_number 15
_symmetry_cell_setting 'monoclinic'
loop_
_space_group_symop_operation_xyz
x,y,z
-x,y,1/2-z
-x,-y,-z
x,-y,1/2+z
1/2+x,1/2+y,z
1/2-x,1/2+y,1/2-z
1/2-x,1/2-y,-z
1/2+x,1/2-y,1/2+z
loop_
_atom_site_type_symbol
_atom_site_label
_atom_site_fract_x
_atom_site_fract_y
_atom_site_fract_z
Si Si1 0.909653 0.202950 0.385197
Si Si2 0.358954 0.089157 0.899434
Si Si3 0.969387 0.691425 0.936060
Si Si4 0.607406 0.551227 0.557640
O O1 0.859595 0.258881 0.359538
O O2 0.652201 0.187960 0.427065
O O3 0.000000 0.183493 0.250000
O O4 0.205067 0.195180 0.522117
O O5 0.243971 0.058110 0.743548
O O6 0.658956 0.070186 0.996125
O O7 0.157473 0.083333 0.988404
O O8 0.364037 0.142647 0.853004
O O9 0.500000 0.500000 0.500000
#
# Coordination Sequence:
#
# PCOD9280556 Si02
#       4
#     8   8   8   8
#     4  10  21  37  61  87 136 165 205 265 304 360
#     4  10  21  38  65  90 122 161 206 254 303 399
#     4  10  21  38  59  96 121 169 216 250 308 374
#     4  10  21  38  63  94 121 152 202 267 320 371
#
# _framework density 24.312653000000001
#
# number of rings (size 3 to 8) (size 9 to 14) (size 15 to 20)
#    0.000    2.000    0.000    3.000    3.500    0.000 
#    9.000    0.000   55.000    0.000    0.000    0.000 
#    0.000    0.000    0.000    0.000    0.000    0.000 
#
# Total GULP energy -89149.459202 kJ/mol
# GULP energy per Si atom -5571.841200 kJ/mol
# Density = 2.425732 g / cm^3
# Si number density = 24.312653 Si / 1000 Ang^3
#
#
#
# Elastic Constant Matrix: (Units=GPa)
#
#
# Indices 1 2 3 4 5 6 
#
# 1 221.7190 25.5445 12.0985 0.0000 -3.6084 0.0000
# 2 25.5445 138.2993 20.8935 0.0000 16.9656 0.0000
# 3 12.0985 20.8935 50.1253 0.0000 -18.4576 0.0000
# 4 0.0000 0.0000 0.0000 -41.1439 0.0000 -24.6897
# 5 -3.6084 16.9656 -18.4576 0.0000 25.9178 0.0000
# 6 0.0000 0.0000 0.0000 -24.6897 0.0000 18.7571
#
#
#
# Elastic Compliance Matrix: (Units=1/GPa)
#
#
# Indices 1 2 3 4 5 6 
#
# 1 0.004653 -0.000924 -0.000375 0.000000 0.000985 0.000000
# 2 -0.000924 0.010409 -0.009044 0.000000 -0.013383 0.000000
# 3 -0.000375 -0.009044 0.035203 0.000000 0.030938 0.000000
# 4 0.000000 0.000000 0.000000 -0.013579 0.000000 -0.017874
# 5 0.000985 -0.013383 0.030938 0.000000 0.069514 0.000000
# 6 0.000000 0.000000 0.000000 -0.017874 0.000000 0.029786
#
#
# Mechanical properties :
#
#
# Convention : Reuss Voigt Hill
#
# Bulk Modulus (GPa) = 33.80783 58.57963 46.19373
# Shear Modulus (GPa) = 30.02427 24.14665 27.08546
#
# Velocity S-wave (km/s) = 3.51796 3.15488 3.34136
# Velocity P-wave (km/s) = 5.51698 6.11700 5.82472
#
# Compressibility (1/GPa) = 0.02957895
#
# Stress axis : x y z
#
# Youngs Moduli (GPa) = 214.90885 96.06703 28.40694
#
# Poissons Ratio (x) = 0.08873 0.01066
# Poissons Ratio (y) = 0.19848 0.25692
# Poissons Ratio (z) = 0.08068 0.86884
#
# Static dielectric constant tensor:
#      x y z
#    x 2.088440 0.000000 0.173900 
#    y 0.000000 1.925070 0.000000 
#    z 0.173900 0.000000 2.561360 
# 
# From -- ./inp_files/72754.got.cif
#   From: 2010.05.17/outbox.cif.g08.bks.cpg/sg15_37_cif.got.tgz:72754.got - 2010.06.03 18:47:42.
