data_PCOD9280494
_publ_section_title
;
Structure prediction by ZEFSAII (Michael W. Deem and Ramdas Pophale) SiO2 
 PCOD9280494
Probable space group: C 2/C
;
_chemical_formula_sum "Si O2"
_cell_formula_units_Z 44
_cell_length_a 11.716171
_cell_length_b 20.110642
_cell_length_c 8.826137
_cell_angle_alpha 90.000000
_cell_angle_beta 62.275591
_cell_angle_gamma 90.000000
_cell_volume 1840.863156
_symmetry_space_group_name_H-M "C 2/C"
_symmetry_group_IT_number 15
_symmetry_cell_setting 'monoclinic'
loop_
_space_group_symop_operation_xyz
x,y,z
-x,y,1/2-z
-x,-y,-z
x,-y,1/2+z
1/2+x,1/2+y,z
1/2-x,1/2+y,1/2-z
1/2-x,1/2-y,-z
1/2+x,1/2-y,1/2+z
loop_
_atom_site_type_symbol
_atom_site_label
_atom_site_fract_x
_atom_site_fract_y
_atom_site_fract_z
Si Si1 0.888774 0.098182 0.526775
Si Si2 0.378475 0.828138 0.241195
Si Si3 0.378492 0.790981 0.898034
Si Si4 0.682398 0.491580 0.179320
Si Si5 0.500000 0.700442 0.250000
Si Si6 0.851998 0.431857 0.819890
O O1 0.752983 0.134339 0.644546
O O2 0.872053 0.047813 0.397356
O O3 0.985383 0.154500 0.407052
O O4 0.913659 0.052874 0.658721
O O5 0.500000 0.862076 0.250000
O O6 0.382493 0.752316 0.302896
O O7 0.408731 0.820473 0.045184
O O8 0.500000 0.752833 0.750000
O O9 0.354671 0.852531 0.799322
O O10 0.250000 0.750000 0.000000
O O11 0.778994 0.528853 0.234508
O O12 0.768445 0.444841 0.021014
O O13 0.000000 0.453748 0.750000
#
# Coordination Sequence:
#
# PCOD9280494 Si02
#       6
#     8   8   8   8   4   8
#     4  11  23  45  65 100 130 174 235 271 359 404
#     4  10  25  42  70  99 133 181 225 287 342 413
#     4  11  26  42  67 100 141 179 228 287 348 412
#     4  10  23  38  65  90 132 171 212 290 324 425
#     4  10  26  40  74  88 132 180 228 284 334 418
#     4  10  21  37  60  91 127 165 215 264 341 392
#
# _framework density 23.901831000000001
#
# number of rings (size 3 to 8) (size 9 to 14) (size 15 to 20)
#    0.545    1.091    1.818    1.091   10.182    3.636 
#    0.000    0.000    8.000    0.000    0.000    0.000 
#    0.000    0.000    0.000    0.000    0.000    0.000 
#
# Total GULP energy -123049.871294 kJ/mol
# GULP energy per Si atom -5593.175968 kJ/mol
# Density = 2.384743 g / cm^3
# Si number density = 23.901831 Si / 1000 Ang^3
#
#
#
# Elastic Constant Matrix: (Units=GPa)
#
#
# Indices 1 2 3 4 5 6 
#
# 1 67.9759 25.4340 46.4238 0.0000 -7.1939 0.0000
# 2 25.4340 97.3272 41.8996 0.0000 -7.0406 0.0000
# 3 46.4238 41.8996 140.1976 0.0000 -16.9894 0.0000
# 4 0.0000 0.0000 0.0000 43.7507 0.0000 -14.8997
# 5 -7.1939 -7.0406 -16.9894 0.0000 41.5136 0.0000
# 6 0.0000 0.0000 0.0000 -14.8997 0.0000 15.8960
#
#
#
# Elastic Compliance Matrix: (Units=1/GPa)
#
#
# Indices 1 2 3 4 5 6 
#
# 1 0.019614 -0.002659 -0.005622 0.000000 0.000647 0.000000
# 2 -0.002659 0.012166 -0.002695 0.000000 0.000500 0.000000
# 3 -0.005622 -0.002695 0.010129 0.000000 0.002714 0.000000
# 4 0.000000 0.000000 0.000000 0.033574 0.000000 0.031470
# 5 0.000647 0.000500 0.002714 0.000000 0.025396 0.000000
# 6 0.000000 0.000000 0.000000 0.031470 0.000000 0.092406
#
#
# Mechanical properties :
#
#
# Convention : Reuss Voigt Hill
#
# Bulk Modulus (GPa) = 50.10655 59.22396 54.66525
# Shear Modulus (GPa) = 22.53395 33.01496 27.77445
#
# Velocity S-wave (km/s) = 3.07379 3.72058 3.41254
# Velocity P-wave (km/s) = 5.79712 6.57942 6.20062
#
# Compressibility (1/GPa) = 0.01995747
#
# Stress axis : x y z
#
# Youngs Moduli (GPa) = 50.98493 82.19832 98.73021
#
# Poissons Ratio (x) = 0.21853 0.55503
# Poissons Ratio (y) = 0.13555 0.26608
# Poissons Ratio (z) = 0.28662 0.22152
#
# Static dielectric constant tensor:
#      x y z
#    x 1.942470 0.000000 0.006440 
#    y 0.000000 1.946280 0.000000 
#    z 0.006440 0.000000 1.916620 
# 
# From -- ./inp_files/40612.got.cif
#   From: 2010.05.17/outbox.cif.g08.bks.cpg/sg15_21_cif.got.tgz:40612.got - 2010.06.03 18:47:42.
