data_PCOD9280634
_publ_section_title
;
Structure prediction by ZEFSAII (Michael W. Deem and Ramdas Pophale) SiO2 
 PCOD9280634
Probable space group: C 2/C
;
_chemical_formula_sum "Si O2"
_cell_formula_units_Z 40
_cell_length_a 8.387485
_cell_length_b 22.271809
_cell_length_c 16.969762
_cell_angle_alpha 90.000000
_cell_angle_beta 31.268564
_cell_angle_gamma 90.000000
_cell_volume 1645.403379
_symmetry_space_group_name_H-M "C 2/C"
_symmetry_group_IT_number 15
_symmetry_cell_setting 'monoclinic'
loop_
_space_group_symop_operation_xyz
x,y,z
-x,y,1/2-z
-x,-y,-z
x,-y,1/2+z
1/2+x,1/2+y,z
1/2-x,1/2+y,1/2-z
1/2-x,1/2-y,-z
1/2+x,1/2-y,1/2+z
loop_
_atom_site_type_symbol
_atom_site_label
_atom_site_fract_x
_atom_site_fract_y
_atom_site_fract_z
Si Si1 0.551224 0.673079 0.415697
Si Si2 0.191056 0.821524 0.037425
Si Si3 0.385647 0.937238 0.713345
Si Si4 0.675878 0.523361 0.602676
Si Si5 0.582496 0.182835 0.892974
O O1 0.612011 0.659432 0.481053
O O2 0.776371 0.631559 0.269433
O O3 0.592057 0.744154 0.387025
O O4 0.212480 0.659059 0.528219
O O5 0.425847 0.836063 0.011582
O O6 0.876694 0.833552 0.217760
O O7 0.250000 0.750000 0.000000
O O8 0.500000 0.959686 0.750000
O O9 0.082140 0.974688 0.815255
O O10 0.682125 0.942045 0.531444
O O11 0.500000 0.554099 0.750000
O O12 0.000000 0.500000 0.500000
#
# Coordination Sequence:
#
# PCOD9280634 Si02
#       5
#     8   8   8   8   8
#     4  10  21  37  62 102 135 184 238 292 350 436
#     4   9  18  34  60  87 138 189 229 285 350 409
#     4  11  23  42  77 105 140 185 242 299 373 442
#     4   9  21  48  73 102 144 183 230 305 378 440
#     4   9  19  38  60  91 149 190 232 287 354 417
#
# _framework density 24.310147000000001
#
# number of rings (size 3 to 8) (size 9 to 14) (size 15 to 20)
#    0.000    2.400    0.000    1.200    5.600    0.000 
#   10.800   16.000    4.400    0.000    0.000    0.000 
#    0.000    0.000    0.000    0.000    0.000    0.000 
#
# Total GULP energy -111617.702644 kJ/mol
# GULP energy per Si atom -5580.885132 kJ/mol
# Density = 2.425482 g / cm^3
# Si number density = 24.310147 Si / 1000 Ang^3
#
#
#
# Elastic Constant Matrix: (Units=GPa)
#
#
# Indices 1 2 3 4 5 6 
#
# 1 207.7253 61.2056 96.4124 -0.0049 -8.5789 0.0007
# 2 61.2056 65.5878 46.7896 0.0041 11.7813 0.0000
# 3 96.4124 46.7896 185.1484 0.0094 20.5499 0.0051
# 4 -0.0049 0.0041 0.0094 27.3180 0.0001 2.3563
# 5 -8.5789 11.7813 20.5499 0.0001 59.0180 -0.0007
# 6 0.0007 0.0000 0.0051 2.3563 -0.0007 39.9984
#
#
#
# Elastic Compliance Matrix: (Units=1/GPa)
#
#
# Indices 1 2 3 4 5 6 
#
# 1 0.008186 -0.006036 -0.003124 0.000003 0.003483 0.000000
# 2 -0.006036 0.023320 -0.002222 -0.000004 -0.004759 0.000001
# 3 -0.003124 -0.002222 0.007896 -0.000003 -0.002760 -0.000001
# 4 0.000003 -0.000004 -0.000003 0.036793 0.000002 -0.002167
# 5 0.003483 -0.004759 -0.002760 0.000002 0.019361 0.000001
# 6 0.000000 0.000001 -0.000001 -0.002167 0.000001 0.025129
#
#
# Mechanical properties :
#
#
# Convention : Reuss Voigt Hill
#
# Bulk Modulus (GPa) = 60.10513 96.36408 78.23461
# Shear Modulus (GPa) = 33.55832 42.20382 37.88107
#
# Velocity S-wave (km/s) = 3.71944 4.17112 3.95174
# Velocity P-wave (km/s) = 6.57446 7.93241 7.28515
#
# Compressibility (1/GPa) = 0.01663751
#
# Stress axis : x y z
#
# Youngs Moduli (GPa) = 122.15282 42.88234 126.65302
#
# Poissons Ratio (x) = 0.25886 0.39566
# Poissons Ratio (y) = 0.73737 0.28137
# Poissons Ratio (z) = 0.38161 0.09527
#
# Static dielectric constant tensor:
#      x y z
#    x 1.901720 -0.000060 0.027140 
#    y -0.000060 2.255720 0.000040 
#    z 0.027140 0.000040 1.918120 
# 
# From -- ./inp_files/193428.got.cif
#   From: 2010.05.17/outbox.cif.g08.bks.cpg/sg15_97_cif.got.tgz:193428.got - 2010.06.03 18:47:42.
