data_PCOD9280664
_publ_section_title
;
Structure prediction by ZEFSAII (Michael W. Deem and Ramdas Pophale) SiO2 
 PCOD9280664
Probable space group: C 2/C
;
_chemical_formula_sum "Si O2"
_cell_formula_units_Z 48
_cell_length_a 26.483529
_cell_length_b 15.594914
_cell_length_c 14.830069
_cell_angle_alpha 90.000000
_cell_angle_beta 159.413526
_cell_angle_gamma 90.000000
_cell_volume 2153.656301
_symmetry_space_group_name_H-M "C 2/C"
_symmetry_group_IT_number 15
_symmetry_cell_setting 'monoclinic'
loop_
_space_group_symop_operation_xyz
x,y,z
-x,y,1/2-z
-x,-y,-z
x,-y,1/2+z
1/2+x,1/2+y,z
1/2-x,1/2+y,1/2-z
1/2-x,1/2-y,-z
1/2+x,1/2-y,1/2+z
loop_
_atom_site_type_symbol
_atom_site_label
_atom_site_fract_x
_atom_site_fract_y
_atom_site_fract_z
Si Si1 0.337440 0.183791 0.465171
Si Si2 0.426796 0.630480 0.380566
Si Si3 0.050341 0.025026 0.434478
Si Si4 0.337647 0.287969 0.003570
Si Si5 0.261321 0.362959 0.049146
Si Si6 0.160477 0.519717 0.518872
O O1 0.215424 0.185795 0.339824
O O2 0.353391 0.080364 0.480697
O O3 0.500000 0.217778 0.750000
O O4 0.258800 0.220721 0.246044
O O5 0.445433 0.588393 0.313627
O O6 0.436097 0.557423 0.475943
O O7 0.582287 0.671681 0.657372
O O8 0.000000 0.008017 0.250000
O O9 0.215617 0.058458 0.710248
O O10 0.500000 0.310998 0.250000
O O11 0.265054 0.357722 0.948471
O O12 0.341590 0.202819 0.071430
O O13 0.225272 0.455901 0.028824
O O14 0.000000 0.554707 0.250000
#
# Coordination Sequence:
#
# PCOD9280664 Si02
#       6
#     8   8   8   8   8   8
#     4  10  21  39  58  85 121 156 186 237 302 349
#     4   9  18  35  56  82 118 146 195 240 277 349
#     4   9  18  31  57  86 115 153 187 233 292 340
#     4  11  22  39  64  84 115 158 197 240 293 346
#     4  10  21  37  62  90 111 150 207 243 281 342
#     4   9  19  37  56  85 124 147 187 243 285 339
#
# _framework density 22.287678
#
# number of rings (size 3 to 8) (size 9 to 14) (size 15 to 20)
#    0.000    2.333    1.667    1.500    4.667    0.000 
#    3.000    5.833    0.000    0.000    0.000    0.000 
#    0.000    0.000    0.000    0.000    0.000    0.000 
#
# Total GULP energy -133661.191640 kJ/mol
# GULP energy per Si atom -5569.216318 kJ/mol
# Density = 2.223695 g / cm^3
# Si number density = 22.287678 Si / 1000 Ang^3
#
#
#
# Elastic Constant Matrix: (Units=GPa)
#
#
# Indices 1 2 3 4 5 6 
#
# 1 111.4843 23.8157 55.8873 0.0000 -3.5646 0.0000
# 2 23.8157 31.4556 1.3026 0.0000 -3.6649 0.0000
# 3 55.8873 1.3026 131.3512 0.0000 16.8723 0.0000
# 4 0.0000 0.0000 0.0000 7.0828 0.0000 0.0316
# 5 -3.5646 -3.6649 16.8723 0.0000 37.0008 0.0000
# 6 0.0000 0.0000 0.0000 0.0316 0.0000 14.9182
#
#
#
# Elastic Compliance Matrix: (Units=1/GPa)
#
#
# Indices 1 2 3 4 5 6 
#
# 1 0.014561 -0.010364 -0.006523 0.000000 0.003351 0.000000
# 2 -0.010364 0.039613 0.003868 0.000000 0.001162 0.000000
# 3 -0.006523 0.003868 0.011028 0.000000 -0.005274 0.000000
# 4 0.000000 0.000000 0.000000 0.141189 0.000000 -0.000299
# 5 0.003351 0.001162 -0.005274 0.000000 0.029869 0.000000
# 6 0.000000 0.000000 0.000000 -0.000299 0.000000 0.067033
#
#
# Mechanical properties :
#
#
# Convention : Reuss Voigt Hill
#
# Bulk Modulus (GPa) = 25.53453 48.47806 37.00630
# Shear Modulus (GPa) = 14.60342 24.68604 19.64473
#
# Velocity S-wave (km/s) = 2.56251 3.33169 2.97209
# Velocity P-wave (km/s) = 4.49855 6.04967 5.33083
#
# Compressibility (1/GPa) = 0.03916265
#
# Stress axis : x y z
#
# Youngs Moduli (GPa) = 68.67655 25.24443 90.68081
#
# Poissons Ratio (x) = 0.26163 0.59152
# Poissons Ratio (y) = 0.71176 -0.35072
# Poissons Ratio (z) = 0.44798 -0.09764
#
# Static dielectric constant tensor:
#      x y z
#    x 1.853790 0.000000 0.063680 
#    y 0.000000 1.924420 0.000000 
#    z 0.063680 0.000000 1.911910 
# 
# From -- ./inp_files/178948.got.cif
#   From: 2010.05.17/outbox.cif.g08.bks.cpg/sg15_90_cif.got.tgz:178948.got - 2010.06.03 18:47:42.
