data_PCOD9280538
_publ_section_title
;
Structure prediction by ZEFSAII (Michael W. Deem and Ramdas Pophale) SiO2 
 PCOD9280538
Probable space group: C 2/C
;
_chemical_formula_sum "Si O2"
_cell_formula_units_Z 44
_cell_length_a 12.251394
_cell_length_b 14.357461
_cell_length_c 13.372712
_cell_angle_alpha 90.000000
_cell_angle_beta 95.326690
_cell_angle_gamma 90.000000
_cell_volume 2342.087457
_symmetry_space_group_name_H-M "C 2/C"
_symmetry_group_IT_number 15
_symmetry_cell_setting 'monoclinic'
loop_
_space_group_symop_operation_xyz
x,y,z
-x,y,1/2-z
-x,-y,-z
x,-y,1/2+z
1/2+x,1/2+y,z
1/2-x,1/2+y,1/2-z
1/2-x,1/2-y,-z
1/2+x,1/2-y,1/2+z
loop_
_atom_site_type_symbol
_atom_site_label
_atom_site_fract_x
_atom_site_fract_y
_atom_site_fract_z
Si Si1 0.099208 0.240412 0.903882
Si Si2 0.246492 0.406570 0.996383
Si Si3 0.000000 0.483251 0.250000
Si Si4 0.357698 0.065405 0.400309
Si Si5 0.345929 0.745804 0.823985
Si Si6 0.692041 0.915495 0.385554
O O1 0.153450 0.331600 0.959007
O O2 0.144433 0.233189 0.794130
O O3 0.968546 0.244178 0.880990
O O4 0.145608 0.152017 0.969059
O O5 0.251960 0.485007 0.909950
O O6 0.209294 0.470083 0.087670
O O7 0.963070 0.544316 0.341707
O O8 0.895760 0.425025 0.208767
O O9 0.298488 0.151332 0.341933
O O10 0.374549 0.097618 0.516161
O O11 0.274700 0.666522 0.869539
#
# Coordination Sequence:
#
# PCOD9280538 Si02
#       6
#     8   8   4   8   8   8
#     4  10  21  37  61  85 116 160 198 239 288 363
#     4   9  21  39  57  89 116 151 205 241 292 344
#     4  12  20  38  64  84 120 154 206 242 298 344
#     4  10  22  37  59  88 115 154 193 248 290 351
#     4  11  21  37  59  86 120 157 195 238 302 346
#     4  10  23  36  60  89 118 154 193 252 289 350
#
# _framework density 18.786659
#
# number of rings (size 3 to 8) (size 9 to 14) (size 15 to 20)
#    1.091    0.727    0.000    5.455    2.545    0.727 
#    0.000    0.000    0.000    2.182    0.000    0.000 
#    0.000    0.000    0.000    0.000    0.000    0.000 
#
# Total GULP energy -122567.306807 kJ/mol
# GULP energy per Si atom -5571.241218 kJ/mol
# Density = 1.874390 g / cm^3
# Si number density = 18.786659 Si / 1000 Ang^3
#
#
#
# Elastic Constant Matrix: (Units=GPa)
#
#
# Indices 1 2 3 4 5 6 
#
# 1 66.2662 51.3350 35.5594 0.0000 -1.5884 0.0000
# 2 51.3350 121.6912 19.3109 0.0000 -2.3200 0.0000
# 3 35.5594 19.3109 62.5536 0.0000 -3.5422 0.0000
# 4 0.0000 0.0000 0.0000 -11.5722 0.0000 -5.9425
# 5 -1.5884 -2.3200 -3.5422 0.0000 29.3119 0.0000
# 6 0.0000 0.0000 0.0000 -5.9425 0.0000 29.4890
#
#
#
# Elastic Compliance Matrix: (Units=1/GPa)
#
#
# Indices 1 2 3 4 5 6 
#
# 1 0.031296 -0.010923 -0.014470 0.000000 -0.000917 0.000000
# 2 -0.010923 0.012457 0.002403 0.000000 0.000684 0.000000
# 3 -0.014470 0.002403 0.023598 0.000000 0.002258 0.000000
# 4 0.000000 0.000000 0.000000 -0.078310 0.000000 -0.015781
# 5 -0.000917 0.000684 0.002258 0.000000 0.034393 0.000000
# 6 0.000000 0.000000 0.000000 -0.015781 0.000000 0.030731
#
#
# Mechanical properties :
#
#
# Convention : Reuss Voigt Hill
#
# Bulk Modulus (GPa) = 46.79617 51.43572 49.11594
# Shear Modulus (GPa) = 46.61154 19.06611 32.83882
#
# Velocity S-wave (km/s) = 4.98647 3.18917 4.18543
# Velocity P-wave (km/s) = 7.62341 6.40307 7.03974
#
# Compressibility (1/GPa) = 0.02136927
#
# Stress axis : x y z
#
# Youngs Moduli (GPa) = 31.95347 80.27469 42.37606
#
# Poissons Ratio (x) = 0.87685 0.61319
# Poissons Ratio (y) = 0.34903 -0.10181
# Poissons Ratio (z) = 0.46237 -0.19286
#
# Static dielectric constant tensor:
#      x y z
#    x 1.621270 0.000000 -0.010990 
#    y 0.000000 1.690690 0.000000 
#    z -0.010990 0.000000 1.687010 
# 
# From -- ./inp_files/143050.got.cif
#   From: 2010.05.17/outbox.cif.g08.bks.cpg/sg15_72_cif.got.tgz:143050.got - 2010.06.03 18:47:42.
