data_PCOD9280588
_publ_section_title
;
Structure prediction by ZEFSAII (Michael W. Deem and Ramdas Pophale) SiO2 
 PCOD9280588
Probable space group: C 2/C
;
_chemical_formula_sum "Si O2"
_cell_formula_units_Z 60
_cell_length_a 20.182554
_cell_length_b 5.323729
_cell_length_c 25.652959
_cell_angle_alpha 90.000000
_cell_angle_beta 88.843999
_cell_angle_gamma 90.000000
_cell_volume 2755.758335
_symmetry_space_group_name_H-M "C 2/C"
_symmetry_group_IT_number 15
_symmetry_cell_setting 'monoclinic'
loop_
_space_group_symop_operation_xyz
x,y,z
-x,y,1/2-z
-x,-y,-z
x,-y,1/2+z
1/2+x,1/2+y,z
1/2-x,1/2+y,1/2-z
1/2-x,1/2-y,-z
1/2+x,1/2-y,1/2+z
loop_
_atom_site_type_symbol
_atom_site_label
_atom_site_fract_x
_atom_site_fract_y
_atom_site_fract_z
Si Si1 0.745747 0.088979 0.820867
Si Si2 0.340708 0.109885 0.581389
Si Si3 0.321798 0.909303 0.285789
Si Si4 0.000000 0.063089 0.250000
Si Si5 0.397281 0.390117 0.032552
Si Si6 0.934065 0.725410 0.324452
Si Si7 0.464489 0.118364 0.652779
Si Si8 0.459618 0.519701 0.420724
O O1 0.723799 0.079105 0.881533
O O2 0.688863 0.073817 0.776523
O O3 0.779136 0.357901 0.809594
O O4 0.793930 0.855345 0.806638
O O5 0.352825 0.370706 0.550659
O O6 0.396340 0.119250 0.625112
O O7 0.359405 0.867365 0.546617
O O8 0.393595 0.984096 0.306599
O O9 0.061102 0.912303 0.223591
O O10 0.968463 0.219726 0.204119
O O11 0.469550 0.399780 0.061094
O O12 0.417201 0.417039 0.972020
O O13 0.010987 0.653609 0.331331
O O14 0.918632 0.852128 0.379940
O O15 0.517145 0.232947 0.610681
#
# Coordination Sequence:
#
# PCOD9280588 Si02
#       8
#     8   8   8   4   8   8   8   8
#     4  10  23  42  59  88 111 164 206 250 283 359
#     4  11  22  38  64  86 123 150 208 249 303 340
#     4  10  24  40  63  82 120 159 207 238 296 353
#     4  10  24  34  52  94 130 154 196 230 322 366
#     4  10  21  37  61  91 121 161 190 258 294 369
#     4  11  22  38  59  89 123 163 190 248 301 371
#     4  10  22  35  56  93 120 162 188 250 301 376
#     4   9  21  36  57  89 127 152 205 229 317 362
#
# _framework density 21.772590000000001
#
# number of rings (size 3 to 8) (size 9 to 14) (size 15 to 20)
#    0.000    1.867    1.333    1.200    9.333    3.733 
#    0.000    0.000    0.000    4.800    0.000    0.000 
#    0.000    0.000    0.000    0.000    0.000    0.000 
#
# Total GULP energy -167474.678976 kJ/mol
# GULP energy per Si atom -5582.489299 kJ/mol
# Density = 2.172303 g / cm^3
# Si number density = 21.772590 Si / 1000 Ang^3
#
#
#
# Elastic Constant Matrix: (Units=GPa)
#
#
# Indices 1 2 3 4 5 6 
#
# 1 24.4583 16.8640 25.2714 0.0000 -6.7706 0.0000
# 2 16.8640 93.7701 43.2596 0.0000 -17.7376 0.0000
# 3 25.2714 43.2596 140.9896 0.0000 -32.1157 0.0000
# 4 0.0000 0.0000 0.0000 -10.9472 0.0000 17.2677
# 5 -6.7706 -17.7376 -32.1157 0.0000 29.7869 0.0000
# 6 0.0000 0.0000 0.0000 17.2677 0.0000 13.9227
#
#
#
# Elastic Compliance Matrix: (Units=1/GPa)
#
#
# Indices 1 2 3 4 5 6 
#
# 1 0.052919 -0.005960 -0.007589 0.000000 0.000297 0.000000
# 2 -0.005960 0.013536 -0.002065 0.000000 0.004480 0.000000
# 3 -0.007589 -0.002065 0.011152 0.000000 0.009070 0.000000
# 4 0.000000 0.000000 0.000000 -0.030899 0.000000 0.038323
# 5 0.000297 0.004480 0.009070 0.000000 0.046086 0.000000
# 6 0.000000 0.000000 0.000000 0.038323 0.000000 0.024295
#
#
# Mechanical properties :
#
#
# Convention : Reuss Voigt Hill
#
# Bulk Modulus (GPa) = 21.56068 47.77865 34.66967
# Shear Modulus (GPa) = 30.52934 18.14069 24.33502
#
# Velocity S-wave (km/s) = 3.74865 2.88963 3.34681
# Velocity P-wave (km/s) = 5.35356 5.75546 5.55815
#
# Compressibility (1/GPa) = 0.04638072
#
# Stress axis : x y z
#
# Youngs Moduli (GPa) = 18.89687 73.87654 89.66610
#
# Poissons Ratio (x) = 0.44029 0.68047
# Poissons Ratio (y) = 0.11262 0.18512
# Poissons Ratio (z) = 0.14341 0.15252
#
# Static dielectric constant tensor:
#      x y z
#    x 1.894500 0.000000 0.001080 
#    y 0.000000 1.806990 0.000000 
#    z 0.001080 0.000000 1.784880 
# 
# From -- ./inp_files/278959.got.cif
#   From: 2010.05.17/outbox.cif.g08.bks.cpg/sg15_140_cif.got.tgz:278959.got - 2010.06.03 18:47:42.
