data_PCOD9280129
_publ_section_title
;
Structure prediction by ZEFSAII (Michael W. Deem and Ramdas Pophale) SiO2 
 PCOD9280129
Probable space group: C 2/C
;
_chemical_formula_sum "Si O2"
_cell_formula_units_Z 40
_cell_length_a 11.869956
_cell_length_b 30.352879
_cell_length_c 5.243772
_cell_angle_alpha 90.000000
_cell_angle_beta 102.109880
_cell_angle_gamma 90.000000
_cell_volume 1847.222993
_symmetry_space_group_name_H-M "C 2/C"
_symmetry_group_IT_number 15
_symmetry_cell_setting 'monoclinic'
loop_
_space_group_symop_operation_xyz
x,y,z
-x,y,1/2-z
-x,-y,-z
x,-y,1/2+z
1/2+x,1/2+y,z
1/2-x,1/2+y,1/2-z
1/2-x,1/2-y,-z
1/2+x,1/2-y,1/2+z
loop_
_atom_site_type_symbol
_atom_site_label
_atom_site_fract_x
_atom_site_fract_y
_atom_site_fract_z
Si Si1 0.134558 0.520179 0.874929
Si Si2 0.891376 0.696563 0.521609
Si Si3 0.323290 0.278780 0.229646
Si Si4 0.369346 0.376675 0.193959
Si Si5 0.277410 0.109646 0.361667
O O1 0.185253 0.512153 0.616871
O O2 0.000000 0.511942 0.750000
O O3 0.149610 0.568061 0.006535
O O4 0.773284 0.705345 0.616971
O O5 0.909702 0.743483 0.393967
O O6 0.859528 0.652299 0.354101
O O7 0.000000 0.687277 0.750000
O O8 0.372583 0.323728 0.140441
O O9 0.250000 0.250000 0.000000
O O10 0.500000 0.393212 0.250000
O O11 0.311236 0.382922 0.443655
O O12 0.292730 0.396828 0.931635
#
# Coordination Sequence:
#
# PCOD9280129 Si02
#       5
#     8   8   8   8   8
#     4  10  21  39  67  97 126 158 190 239 316 382
#     4  10  22  35  56  82 117 159 198 252 300 349
#     4  10  21  37  51  81 117 157 208 244 292 350
#     4  11  24  39  64  84 122 168 209 251 297 352
#     4  11  22  42  61  92 123 152 206 253 299 365
#
# _framework density 21.654126999999999
#
# number of rings (size 3 to 8) (size 9 to 14) (size 15 to 20)
#    0.000    1.600    2.000    2.400    2.800    0.000 
#    0.000    2.000    0.000   12.000    0.000    0.000 
#    0.000    0.000    0.000    0.000    0.000    0.000 
#
# Total GULP energy -111559.413806 kJ/mol
# GULP energy per Si atom -5577.970690 kJ/mol
# Density = 2.160484 g / cm^3
# Si number density = 21.654127 Si / 1000 Ang^3
#
#
#
# Elastic Constant Matrix: (Units=GPa)
#
#
# Indices 1 2 3 4 5 6 
#
# 1 42.5156 -8.7901 31.7909 0.0000 1.0720 0.0000
# 2 -8.7901 77.1959 26.2992 0.0000 0.3982 0.0000
# 3 31.7909 26.2992 101.4075 0.0000 10.0034 0.0000
# 4 0.0000 0.0000 0.0000 36.7178 0.0000 5.9142
# 5 1.0720 0.3982 10.0034 0.0000 32.1309 0.0000
# 6 0.0000 0.0000 0.0000 5.9142 0.0000 13.4729
#
#
#
# Elastic Compliance Matrix: (Units=1/GPa)
#
#
# Indices 1 2 3 4 5 6 
#
# 1 0.035450 0.008673 -0.013655 0.000000 0.002961 0.000000
# 2 0.008673 0.016363 -0.007133 0.000000 0.001729 0.000000
# 3 -0.013655 -0.007133 0.016443 0.000000 -0.004575 0.000000
# 4 0.000000 0.000000 0.000000 0.029307 0.000000 -0.012865
# 5 0.002961 0.001729 -0.004575 0.000000 0.032427 0.000000
# 6 0.000000 0.000000 0.000000 -0.012865 0.000000 0.079870
#
#
# Mechanical properties :
#
#
# Convention : Reuss Voigt Hill
#
# Bulk Modulus (GPa) = 22.71368 35.52434 29.11901
# Shear Modulus (GPa) = 20.09935 27.91891 24.00913
#
# Velocity S-wave (km/s) = 3.04994 3.59459 3.33341
# Velocity P-wave (km/s) = 4.78696 5.80251 5.31902
#
# Compressibility (1/GPa) = 0.04402632
#
# Stress axis : x y z
#
# Youngs Moduli (GPa) = 28.20905 61.11404 60.81557
#
# Poissons Ratio (x) = -0.53005 0.83042
# Poissons Ratio (y) = -0.24466 0.43380
# Poissons Ratio (z) = 0.38519 0.43593
#
# Static dielectric constant tensor:
#      x y z
#    x 1.765360 0.000000 -0.057710 
#    y 0.000000 1.926030 0.000000 
#    z -0.057710 0.000000 1.867320 
# 
# From -- ./inp_files/4916.got.cif
#   From: 2010.05.17/outbox.cif.g08.bks.cpg/sg15_3_cif.got.tgz:4916.got - 2010.06.03 18:47:42.
