data_PCOD9280806
_publ_section_title
;
Structure prediction by ZEFSAII (Michael W. Deem and Ramdas Pophale) SiO2 
 PCOD9280806
Probable space group: C 2/C
;
_chemical_formula_sum "Si O2"
_cell_formula_units_Z 32
_cell_length_a 23.503366
_cell_length_b 15.088633
_cell_length_c 9.061347
_cell_angle_alpha 90.000000
_cell_angle_beta 153.856706
_cell_angle_gamma 90.000000
_cell_volume 1415.906500
_symmetry_space_group_name_H-M "C 2/C"
_symmetry_group_IT_number 15
_symmetry_cell_setting 'monoclinic'
loop_
_space_group_symop_operation_xyz
x,y,z
-x,y,1/2-z
-x,-y,-z
x,-y,1/2+z
1/2+x,1/2+y,z
1/2-x,1/2+y,1/2-z
1/2-x,1/2-y,-z
1/2+x,1/2-y,1/2+z
loop_
_atom_site_type_symbol
_atom_site_label
_atom_site_fract_x
_atom_site_fract_y
_atom_site_fract_z
Si Si1 0.294013 0.583318 0.952363
Si Si2 0.054466 0.405270 0.089768
Si Si3 0.816539 0.274054 0.501983
Si Si4 0.817876 0.901067 0.838886
O O1 0.143007 0.580977 0.650948
O O2 0.289209 0.669479 0.838393
O O3 0.334073 0.494492 0.960028
O O4 0.362466 0.591643 0.271507
O O5 0.163616 0.383498 0.464832
O O6 0.000000 0.500000 0.000000
O O7 0.941954 0.334564 0.820543
O O8 0.750000 0.250000 0.500000
O O9 0.863577 0.185899 0.528182
#
# Coordination Sequence:
#
# PCOD9280806 Si02
#       4
#     8   8   8   8
#     4  10  21  39  58  91 125 157 204 255 303 364
#     4  10  21  37  64  89 125 158 207 252 307 357
#     4  12  22  35  57  93 129 162 201 257 307 358
#     4  10  22  36  63  92 124 155 208 253 309 358
#
# _framework density 22.600363999999999
#
# number of rings (size 3 to 8) (size 9 to 14) (size 15 to 20)
#    1.500    0.000    2.500    4.500    0.000    3.000 
#    0.000    0.000    0.000    1.500    6.500    0.000 
#    0.000    0.000    0.000    0.000    0.000    0.000 
#
# Total GULP energy -89326.473348 kJ/mol
# GULP energy per Si atom -5582.904584 kJ/mol
# Density = 2.254892 g / cm^3
# Si number density = 22.600364 Si / 1000 Ang^3
#
#
#
# Elastic Constant Matrix: (Units=GPa)
#
#
# Indices 1 2 3 4 5 6 
#
# 1 128.0451 78.9784 39.8925 0.0000 -42.6922 0.0000
# 2 78.9784 194.9396 53.6951 0.0000 -32.0652 0.0000
# 3 39.8925 53.6951 60.9606 0.0000 2.0965 0.0000
# 4 0.0000 0.0000 0.0000 53.3184 0.0000 -9.9290
# 5 -42.6922 -32.0652 2.0965 0.0000 34.6692 0.0000
# 6 0.0000 0.0000 0.0000 -9.9290 0.0000 47.3519
#
#
#
# Elastic Compliance Matrix: (Units=1/GPa)
#
#
# Indices 1 2 3 4 5 6 
#
# 1 0.021827 -0.000124 -0.015127 0.000000 0.027679 0.000000
# 2 -0.000124 0.008742 -0.007908 0.000000 0.008411 0.000000
# 3 -0.015127 -0.007908 0.034232 0.000000 -0.028011 0.000000
# 4 0.000000 0.000000 0.000000 0.019517 0.000000 0.004092
# 5 0.027679 0.008411 -0.028011 0.000000 0.072401 0.000000
# 6 0.000000 0.000000 0.000000 0.004092 0.000000 0.021977
#
#
# Mechanical properties :
#
#
# Convention : Reuss Voigt Hill
#
# Bulk Modulus (GPa) = 54.10142 81.00860 67.55501
# Shear Modulus (GPa) = 21.62873 41.15984 31.39429
#
# Velocity S-wave (km/s) = 3.09691 4.27218 3.73111
# Velocity P-wave (km/s) = 6.06449 7.76255 6.96546
#
# Compressibility (1/GPa) = 0.01848380
#
# Stress axis : x y z
#
# Youngs Moduli (GPa) = 45.81402 114.39481 29.21269
#
# Poissons Ratio (x) = 0.01417 0.44189
# Poissons Ratio (y) = 0.00567 0.23101
# Poissons Ratio (z) = 0.69301 0.90463
#
# Static dielectric constant tensor:
#      x y z
#    x 1.851150 0.000000 -0.046560 
#    y 0.000000 1.774480 0.000000 
#    z -0.046560 0.000000 2.097880 
# 
# From -- ./inp_files/60240.got.cif
#   From: 2010.05.17/outbox.cif.g08.bks.cpg/sg15_31_cif.got.tgz:60240.got - 2010.06.03 18:47:42.
