data_PCOD9280261
_publ_section_title
;
Structure prediction by ZEFSAII (Michael W. Deem and Ramdas Pophale) SiO2 
 PCOD9280261
Probable space group: C 2/C
;
_chemical_formula_sum "Si O2"
_cell_formula_units_Z 52
_cell_length_a 11.296596
_cell_length_b 23.278685
_cell_length_c 8.767189
_cell_angle_alpha 90.000000
_cell_angle_beta 95.862958
_cell_angle_gamma 90.000000
_cell_volume 2293.446857
_symmetry_space_group_name_H-M "C 2/C"
_symmetry_group_IT_number 15
_symmetry_cell_setting 'monoclinic'
loop_
_space_group_symop_operation_xyz
x,y,z
-x,y,1/2-z
-x,-y,-z
x,-y,1/2+z
1/2+x,1/2+y,z
1/2-x,1/2+y,1/2-z
1/2-x,1/2-y,-z
1/2+x,1/2-y,1/2+z
loop_
_atom_site_type_symbol
_atom_site_label
_atom_site_fract_x
_atom_site_fract_y
_atom_site_fract_z
Si Si1 0.231942 0.353172 0.763354
Si Si2 0.092816 0.994880 0.878077
Si Si3 0.648522 0.377232 0.423151
Si Si4 0.059050 0.183384 0.404134
Si Si5 0.854692 0.555951 0.447012
Si Si6 0.135942 0.230370 0.716500
Si Si7 0.500000 0.030305 0.750000
O O1 0.253690 0.382254 0.929746
O O2 0.348861 0.356348 0.673040
O O3 0.135816 0.385976 0.650148
O O4 0.207220 0.285949 0.778886
O O5 0.000000 0.965963 0.750000
O O6 0.217436 0.965393 0.934686
O O7 0.125152 0.061499 0.843104
O O8 0.000000 0.000000 0.000000
O O9 0.534413 0.351967 0.503093
O O10 0.678003 0.328158 0.304013
O O11 0.128852 0.222258 0.533980
O O12 0.000000 0.214968 0.250000
O O13 0.921345 0.508611 0.352958
O O14 0.912188 0.562448 0.621182
O O15 0.000000 0.239634 0.750000
#
# Coordination Sequence:
#
# PCOD9280261 Si02
#       7
#     8   8   8   8   8   8   4
#     4  11  21  37  61  87 118 162 209 258 310 374
#     4  12  23  39  66 100 129 157 204 267 335 396
#     4  10  21  38  60  89 125 161 196 257 327 391
#     4   9  19  36  57  85 123 153 191 259 324 378
#     4  11  24  42  65  92 127 174 219 264 323 381
#     4  10  21  37  57  85 119 163 212 253 307 376
#     4  10  24  46  62  82 132 176 224 268 304 384
#
# _framework density 22.673297000000002
#
# number of rings (size 3 to 8) (size 9 to 14) (size 15 to 20)
#    0.000    1.538    0.000    6.000    1.077    2.462 
#    1.385    0.000    0.000    0.000    0.000    0.000 
#    0.000    0.000    0.000    0.000    0.000    0.000 
#
# Total GULP energy -145084.228045 kJ/mol
# GULP energy per Si atom -5580.162617 kJ/mol
# Density = 2.262169 g / cm^3
# Si number density = 22.673297 Si / 1000 Ang^3
#
#
#
# Elastic Constant Matrix: (Units=GPa)
#
#
# Indices 1 2 3 4 5 6 
#
# 1 68.9574 12.8433 33.1913 0.0000 10.3935 0.0000
# 2 12.8433 98.3183 15.4916 0.0000 17.6823 0.0000
# 3 33.1913 15.4916 140.3975 0.0000 25.8358 0.0000
# 4 0.0000 0.0000 0.0000 -0.4911 0.0000 -11.1560
# 5 10.3935 17.6823 25.8358 0.0000 30.8648 0.0000
# 6 0.0000 0.0000 0.0000 -11.1560 0.0000 8.0273
#
#
#
# Elastic Compliance Matrix: (Units=1/GPa)
#
#
# Indices 1 2 3 4 5 6 
#
# 1 0.016697 -0.001277 -0.003436 0.000000 -0.002015 0.000000
# 2 -0.001277 0.011438 0.000197 0.000000 -0.006287 0.000000
# 3 -0.003436 0.000197 0.009127 0.000000 -0.006596 0.000000
# 4 0.000000 0.000000 0.000000 -0.062519 0.000000 -0.086886
# 5 -0.002015 -0.006287 -0.006596 0.000000 0.042201 0.000000
# 6 0.000000 0.000000 0.000000 -0.086886 0.000000 0.003825
#
#
# Mechanical properties :
#
#
# Convention : Reuss Voigt Hill
#
# Bulk Modulus (GPa) = 35.42416 47.85839 41.64128
# Shear Modulus (GPa) = 127.51915 24.09002 75.80459
#
# Velocity S-wave (km/s) = 7.50760 3.26311 5.78844
# Velocity P-wave (km/s) = 9.52942 5.94566 7.94231
#
# Compressibility (1/GPa) = 0.02822932
#
# Stress axis : x y z
#
# Youngs Moduli (GPa) = 59.89105 87.43071 109.56711
#
# Poissons Ratio (x) = 0.11168 0.37643
# Poissons Ratio (y) = 0.07650 -0.02158
# Poissons Ratio (z) = 0.20576 -0.01722
#
# Static dielectric constant tensor:
#      x y z
#    x 1.895470 0.000000 0.047620 
#    y 0.000000 1.868990 0.000000 
#    z 0.047620 0.000000 1.834220 
# 
# From -- ./inp_files/33705.got.cif
#   From: 2010.05.17/outbox.cif.g08.bks.cpg/sg15_17_cif.got.tgz:33705.got - 2010.06.03 18:47:42.
