data_PCOD9280329
_publ_section_title
;
Structure prediction by ZEFSAII (Michael W. Deem and Ramdas Pophale) SiO2 
 PCOD9280329
Probable space group: C 2/C
;
_chemical_formula_sum "Si O2"
_cell_formula_units_Z 52
_cell_length_a 18.541132
_cell_length_b 17.644960
_cell_length_c 9.396843
_cell_angle_alpha 90.000000
_cell_angle_beta 133.404540
_cell_angle_gamma 90.000000
_cell_volume 2233.503327
_symmetry_space_group_name_H-M "C 2/C"
_symmetry_group_IT_number 15
_symmetry_cell_setting 'monoclinic'
loop_
_space_group_symop_operation_xyz
x,y,z
-x,y,1/2-z
-x,-y,-z
x,-y,1/2+z
1/2+x,1/2+y,z
1/2-x,1/2+y,1/2-z
1/2-x,1/2-y,-z
1/2+x,1/2-y,1/2+z
loop_
_atom_site_type_symbol
_atom_site_label
_atom_site_fract_x
_atom_site_fract_y
_atom_site_fract_z
Si Si1 0.872859 0.961564 0.437833
Si Si2 0.140871 0.252881 0.919185
Si Si3 0.351008 0.227276 0.725565
Si Si4 0.135614 0.911789 0.373445
Si Si5 0.861512 0.558559 0.819930
Si Si6 0.500000 0.329890 0.750000
Si Si7 0.875709 0.586833 0.164466
O O1 0.889625 0.963177 0.294142
O O2 0.757345 0.949983 0.320772
O O3 0.927359 0.887863 0.570859
O O4 0.898325 0.042769 0.535953
O O5 0.095901 0.172824 0.814302
O O6 0.250000 0.250000 0.000000
O O7 0.154048 0.258598 0.109131
O O8 0.089392 0.325958 0.776931
O O9 0.250000 0.250000 0.500000
O O10 0.373987 0.136805 0.749530
O O11 0.437216 0.277273 0.771530
O O12 0.256046 0.907127 0.527046
O O13 0.897956 0.566592 0.031101
O O14 0.902102 0.483048 0.800653
#
# Coordination Sequence:
#
# PCOD9280329 Si02
#       7
#     8   8   8   8   8   4   8
#     4  10  21  37  58  88 129 169 211 255 312 394
#     4   9  19  36  62  93 124 167 219 259 309 375
#     4  11  23  40  66  88 127 170 211 267 322 378
#     4   9  19  35  58  88 132 168 206 255 314 368
#     4   9  17  35  58  88 118 158 205 258 316 361
#     4  12  26  40  60  96 128 164 226 256 318 396
#     4   8  16  30  55  91 116 152 211 254 300 376
#
# _framework density 23.281808999999999
#
# number of rings (size 3 to 8) (size 9 to 14) (size 15 to 20)
#    0.000    2.462    1.538    0.923    2.154    4.308 
#    0.000    0.000    0.000    3.692    0.000    0.000 
#    0.000    0.000    0.000    0.000    0.000    0.000 
#
# Total GULP energy -145259.534164 kJ/mol
# GULP energy per Si atom -5586.905160 kJ/mol
# Density = 2.322882 g / cm^3
# Si number density = 23.281809 Si / 1000 Ang^3
#
#
#
# Elastic Constant Matrix: (Units=GPa)
#
#
# Indices 1 2 3 4 5 6 
#
# 1 117.8043 37.0697 14.9141 0.0000 7.3212 0.0000
# 2 37.0697 215.8810 45.8876 0.0000 -29.0868 0.0000
# 3 14.9141 45.8876 63.5228 0.0000 -11.1200 0.0000
# 4 0.0000 0.0000 0.0000 30.2445 0.0000 -14.9741
# 5 7.3212 -29.0868 -11.1200 0.0000 32.4084 0.0000
# 6 0.0000 0.0000 0.0000 -14.9741 0.0000 26.3330
#
#
#
# Elastic Compliance Matrix: (Units=1/GPa)
#
#
# Indices 1 2 3 4 5 6 
#
# 1 0.009567 -0.001886 -0.001658 0.000000 -0.004423 0.000000
# 2 -0.001886 0.006318 -0.003249 0.000000 0.004982 0.000000
# 3 -0.001658 -0.003249 0.019186 0.000000 0.004042 0.000000
# 4 0.000000 0.000000 0.000000 0.046020 0.000000 0.026169
# 5 -0.004423 0.004982 0.004042 0.000000 0.037713 0.000000
# 6 0.000000 0.000000 0.000000 0.026169 0.000000 0.052856
#
#
# Mechanical properties :
#
#
# Convention : Reuss Voigt Hill
#
# Bulk Modulus (GPa) = 46.54458 65.88344 56.21401
# Shear Modulus (GPa) = 25.98639 37.75297 31.86968
#
# Velocity S-wave (km/s) = 3.34453 4.03123 3.70383
# Velocity P-wave (km/s) = 5.91183 7.07301 6.51833
#
# Compressibility (1/GPa) = 0.02148478
#
# Stress axis : x y z
#
# Youngs Moduli (GPa) = 104.52606 158.28034 52.12109
#
# Poissons Ratio (x) = 0.29857 0.08641
# Poissons Ratio (y) = 0.19717 0.16934
# Poissons Ratio (z) = 0.17328 0.51425
#
# Static dielectric constant tensor:
#      x y z
#    x 1.771950 0.000000 0.038780 
#    y 0.000000 1.857960 0.000000 
#    z 0.038780 0.000000 1.925480 
# 
# From -- ./inp_files/49234.got.cif
#   From: 2010.05.17/outbox.cif.g08.bks.cpg/sg15_25_cif.got.tgz:49234.got - 2010.06.03 18:47:42.
