data_PCOD9280211
_publ_section_title
;
Structure prediction by ZEFSAII (Michael W. Deem and Ramdas Pophale) SiO2 
 PCOD9280211
Probable space group: C 2/C
;
_chemical_formula_sum "Si O2"
_cell_formula_units_Z 40
_cell_length_a 13.187143
_cell_length_b 24.879446
_cell_length_c 12.695273
_cell_angle_alpha 90.000000
_cell_angle_beta 158.271024
_cell_angle_gamma 90.000000
_cell_volume 1542.017669
_symmetry_space_group_name_H-M "C 2/C"
_symmetry_group_IT_number 15
_symmetry_cell_setting 'monoclinic'
loop_
_space_group_symop_operation_xyz
x,y,z
-x,y,1/2-z
-x,-y,-z
x,-y,1/2+z
1/2+x,1/2+y,z
1/2-x,1/2+y,1/2-z
1/2-x,1/2-y,-z
1/2+x,1/2-y,1/2+z
loop_
_atom_site_type_symbol
_atom_site_label
_atom_site_fract_x
_atom_site_fract_y
_atom_site_fract_z
Si Si1 0.343349 0.047333 0.705940
Si Si2 0.548528 0.714614 0.446032
Si Si3 0.754543 0.074204 0.431009
Si Si4 0.389427 0.284327 0.246646
Si Si5 0.817897 0.894982 0.761721
O O1 0.500000 0.062394 0.750000
O O2 0.026727 0.061395 0.415508
O O3 0.355886 0.983009 0.721730
O O4 0.509355 0.084299 0.947674
O O5 0.571984 0.703388 0.594435
O O6 0.400243 0.658638 0.276270
O O7 0.850149 0.737331 0.717100
O O8 0.500000 0.098512 0.250000
O O9 0.848830 0.105954 0.418476
O O10 0.000000 0.063126 0.750000
O O11 0.500000 0.315417 0.250000
O O12 0.575255 0.229888 0.425208
#
# Coordination Sequence:
#
# PCOD9280211 Si02
#       5
#     8   8   8   8   8
#     4  11  23  42  66  95 126 163 214 269 325 384
#     4  10  21  37  56  83 120 164 211 260 309 358
#     4  11  23  41  65 100 138 165 200 255 320 395
#     4   8  14  26  44  66  96 138 185 229 277 337
#     4  12  23  40  68  94 127 173 215 258 319 385
#
# _framework density 25.940041000000001
#
# number of rings (size 3 to 8) (size 9 to 14) (size 15 to 20)
#    0.000    1.600    0.000    6.600    0.000    0.800 
#    0.000    8.000    0.000   12.000    0.000    0.000 
#    0.000    0.000    0.000    0.000    0.000    0.000 
#
# Total GULP energy -111590.719673 kJ/mol
# GULP energy per Si atom -5579.535984 kJ/mol
# Density = 2.588100 g / cm^3
# Si number density = 25.940041 Si / 1000 Ang^3
#
#
#
# Elastic Constant Matrix: (Units=GPa)
#
#
# Indices 1 2 3 4 5 6 
#
# 1 112.1468 13.2100 3.1276 -0.0021 5.6830 -0.0026
# 2 13.2100 85.8287 16.0829 -0.0030 -0.8908 -0.0016
# 3 3.1276 16.0829 96.3028 0.0027 -1.3127 -0.0023
# 4 -0.0021 -0.0030 0.0027 -29.9413 -0.0016 -44.7376
# 5 5.6830 -0.8908 -1.3127 -0.0016 45.0929 -0.0036
# 6 -0.0026 -0.0016 -0.0023 -44.7376 -0.0036 -61.4297
#
#
#
# Elastic Compliance Matrix: (Units=1/GPa)
#
#
# Indices 1 2 3 4 5 6 
#
# 1 0.009144 -0.001405 -0.000078 0.000000 -0.001182 -0.000001
# 2 -0.001405 0.012245 -0.001994 0.000011 0.000361 -0.000008
# 3 -0.000078 -0.001994 0.010723 -0.000019 0.000283 0.000014
# 4 0.000000 0.000011 -0.000019 0.378811 -0.000009 -0.275877
# 5 -0.001182 0.000361 0.000283 -0.000009 0.022341 0.000005
# 6 -0.000001 -0.000008 0.000014 -0.275877 0.000005 0.184635
#
#
# Mechanical properties :
#
#
# Convention : Reuss Voigt Hill
#
# Bulk Modulus (GPa) = 39.75038 39.90216 39.82627
# Shear Modulus (GPa) = 7.89589 8.20156 8.04872
#
# Velocity S-wave (km/s) = 1.74657 1.78006 1.76339
# Velocity P-wave (km/s) = 4.40733 4.43178 4.41957
#
# Compressibility (1/GPa) = 0.02515699
#
# Stress axis : x y z
#
# Youngs Moduli (GPa) = 109.35544 81.66721 93.25414
#
# Poissons Ratio (x) = 0.11474 0.00732
# Poissons Ratio (y) = 0.15365 0.18598
# Poissons Ratio (z) = 0.00858 0.16287
#
# Static dielectric constant tensor:
#      x y z
#    x 2.099010 0.000000 -0.107030 
#    y 0.000000 2.061050 0.000000 
#    z -0.107030 0.000000 2.004940 
# 
# From -- ./inp_files/157277.got.cif
#   From: 2010.05.17/outbox.cif.g08.bks.cpg/sg15_79_cif.got.tgz:157277.got - 2010.06.03 18:47:42.
