data_PCOD9280706
_publ_section_title
;
Structure prediction by ZEFSAII (Michael W. Deem and Ramdas Pophale) SiO2 
 PCOD9280706
Probable space group: C 2/C
;
_chemical_formula_sum "Si O2"
_cell_formula_units_Z 32
_cell_length_a 13.258907
_cell_length_b 14.261409
_cell_length_c 18.177774
_cell_angle_alpha 90.000000
_cell_angle_beta 28.454889
_cell_angle_gamma 90.000000
_cell_volume 1637.734139
_symmetry_space_group_name_H-M "C 2/C"
_symmetry_group_IT_number 15
_symmetry_cell_setting 'monoclinic'
loop_
_space_group_symop_operation_xyz
x,y,z
-x,y,1/2-z
-x,-y,-z
x,-y,1/2+z
1/2+x,1/2+y,z
1/2-x,1/2+y,1/2-z
1/2-x,1/2-y,-z
1/2+x,1/2-y,1/2+z
loop_
_atom_site_type_symbol
_atom_site_label
_atom_site_fract_x
_atom_site_fract_y
_atom_site_fract_z
Si Si1 0.208319 0.615515 0.192865
Si Si2 0.572492 0.632135 0.077683
Si Si3 0.752861 0.057034 0.999718
Si Si4 0.500000 0.289505 0.250000
Si Si5 0.500000 0.218634 0.750000
O O1 0.384310 0.613453 0.141708
O O2 0.122501 0.719853 0.227267
O O3 0.999997 0.556603 0.348377
O O4 0.289973 0.577512 0.062394
O O5 0.635810 0.541638 0.085135
O O6 0.502447 0.715734 0.176416
O O7 0.785514 0.659199 0.896187
O O8 0.844989 0.142377 0.893775
#
# Coordination Sequence:
#
# PCOD9280706 Si02
#       5
#     8   8   8   4   4
#     4  10  21  38  64  86 124 163 198 242 315 351
#     4  11  23  42  62  88 123 165 200 251 302 358
#     4  10  21  39  60  95 121 153 207 253 289 366
#     4  10  21  37  62  96 124 150 206 255 291 362
#     4  10  25  41  60  84 130 158 208 245 303 364
#
# _framework density 19.539190999999999
#
# number of rings (size 3 to 8) (size 9 to 14) (size 15 to 20)
#    0.000    2.000    0.000    6.000    7.000    0.000 
#    4.500    2.500    0.000    0.000    0.000    0.000 
#    0.000    0.000    0.000    0.000    0.000    0.000 
#
# Total GULP energy -89356.303221 kJ/mol
# GULP energy per Si atom -5584.768951 kJ/mol
# Density = 1.949472 g / cm^3
# Si number density = 19.539191 Si / 1000 Ang^3
#
#
#
# Elastic Constant Matrix: (Units=GPa)
#
#
# Indices 1 2 3 4 5 6 
#
# 1 91.3250 16.2052 56.9443 -0.0029 -37.8722 -0.0056
# 2 16.2052 90.4875 29.8104 0.0329 -16.7231 -0.0049
# 3 56.9443 29.8104 87.3740 0.0453 -4.9859 -0.0163
# 4 -0.0029 0.0329 0.0453 18.7583 -0.0076 6.2708
# 5 -37.8722 -16.7231 -4.9859 -0.0076 32.1647 0.0088
# 6 -0.0056 -0.0049 -0.0163 6.2708 0.0088 4.9528
#
#
#
# Elastic Compliance Matrix: (Units=1/GPa)
#
#
# Indices 1 2 3 4 5 6 
#
# 1 0.087726 0.023402 -0.059092 0.000424 0.106300 -0.000797
# 2 0.023402 0.019897 -0.020055 0.000101 0.034791 -0.000209
# 3 -0.059092 -0.020055 0.052701 -0.000349 -0.071836 0.000656
# 4 0.000424 0.000101 -0.000349 0.092434 0.000552 -0.117034
# 5 0.106300 0.034791 -0.071836 0.000552 0.163206 -0.001069
# 6 -0.000797 -0.000209 0.000656 -0.117034 -0.001069 0.350089
#
#
# Mechanical properties :
#
#
# Convention : Reuss Voigt Hill
#
# Bulk Modulus (GPa) = 20.47809 52.78957 36.63383
# Shear Modulus (GPa) = 5.59396 22.25694 13.92545
#
# Velocity S-wave (km/s) = 1.69386 3.37871 2.67253
# Velocity P-wave (km/s) = 3.78534 6.50360 5.32098
#
# Compressibility (1/GPa) = 0.04883267
#
# Stress axis : x y z
#
# Youngs Moduli (GPa) = 11.39917 50.25897 18.97499
#
# Poissons Ratio (x) = -1.17617 1.12128
# Poissons Ratio (y) = -0.26677 0.38055
# Poissons Ratio (z) = 0.67360 1.00795
#
# Static dielectric constant tensor:
#      x y z
#    x 1.625570 0.000010 0.015390 
#    y 0.000010 1.715640 0.000000 
#    z 0.015390 0.000000 1.688790 
# 
# From -- ./inp_files/27681.got.cif
#   From: 2010.05.17/outbox.cif.g08.bks.cpg/sg15_14_cif.got.tgz:27681.got - 2010.06.03 18:47:42.
