data_PCOD9280001
_publ_section_title
;
Structure prediction by ZEFSAII (Michael W. Deem and Ramdas Pophale) SiO2 
 PCOD9280001
Probable space group: C 2/C
;
_chemical_formula_sum "Si O2"
_cell_formula_units_Z 56
_cell_length_a 5.551143
_cell_length_b 24.690316
_cell_length_c 19.878071
_cell_angle_alpha 90.000000
_cell_angle_beta 82.531415
_cell_angle_gamma 90.000000
_cell_volume 2701.364262
_symmetry_space_group_name_H-M "C 2/C"
_symmetry_group_IT_number 15
_symmetry_cell_setting 'monoclinic'
loop_
_space_group_symop_operation_xyz
x,y,z
-x,y,1/2-z
-x,-y,-z
x,-y,1/2+z
1/2+x,1/2+y,z
1/2-x,1/2+y,1/2-z
1/2-x,1/2-y,-z
1/2+x,1/2-y,1/2+z
loop_
_atom_site_type_symbol
_atom_site_label
_atom_site_fract_x
_atom_site_fract_y
_atom_site_fract_z
Si Si1 0.362842 0.127094 0.383296
Si Si2 0.081811 0.227142 0.444172
Si Si3 0.500000 0.942649 0.750000
Si Si4 0.487082 0.161363 0.622401
Si Si5 0.485244 0.392553 0.144749
Si Si6 0.199016 0.645461 0.476053
Si Si7 0.500000 0.511429 0.750000
Si Si8 0.442574 0.437733 0.507488
O O1 0.173268 0.176062 0.396100
O O2 0.416586 0.096345 0.313598
O O3 0.587464 0.158051 0.408548
O O4 0.287785 0.081025 0.440918
O O5 0.250000 0.250000 0.500000
O O6 0.027079 0.275094 0.394211
O O7 0.864264 0.196322 0.490205
O O8 0.255142 0.977283 0.739149
O O9 0.225964 0.140714 0.658741
O O10 0.521339 0.137882 0.545304
O O11 0.727584 0.140129 0.653178
O O12 0.473655 0.447559 0.188034
O O13 0.535709 0.410199 0.066061
O O14 0.341082 0.590392 0.459980
O O15 0.500000 0.500000 0.500000
#
# Coordination Sequence:
#
# PCOD9280001 Si02
#       8
#     8   8   4   8   8   8   4   8
#     4  11  24  42  65 101 134 184 231 284 334 432
#     4  11  21  38  67 101 141 182 218 279 356 411
#     4  12  30  48  73  94 141 190 236 276 352 424
#     4  11  21  40  65 104 133 174 218 287 338 405
#     4  11  24  42  68  97 132 167 236 278 339 419
#     4  10  21  36  62  99 141 168 226 278 346 409
#     4  12  28  54  71  94 135 198 226 290 366 418
#     4  10  21  37  61  98 128 170 217 298 336 396
#
# _framework density 20.730267000000001
#
# number of rings (size 3 to 8) (size 9 to 14) (size 15 to 20)
#    0.000    1.143    2.857    3.857    8.000    1.714 
#    0.000    0.714    3.143    0.000    0.000    0.000 
#    0.000    0.000    0.000    0.000    0.000    0.000 
#
# Total GULP energy -155885.529238 kJ/mol
# GULP energy per Si atom -5567.340330 kJ/mol
# Density = 2.068308 g / cm^3
# Si number density = 20.730267 Si / 1000 Ang^3
#
#
#
# Elastic Constant Matrix: (Units=GPa)
#
#
# Indices 1 2 3 4 5 6 
#
# 1 131.4603 67.4509 25.2158 0.0000 -1.3911 0.0000
# 2 67.4509 137.7646 23.5121 0.0000 -10.7365 0.0000
# 3 25.2158 23.5121 78.4659 0.0000 -4.9450 0.0000
# 4 0.0000 0.0000 0.0000 42.9543 0.0000 -1.7250
# 5 -1.3911 -10.7365 -4.9450 0.0000 16.9397 0.0000
# 6 0.0000 0.0000 0.0000 -1.7250 0.0000 26.9232
#
#
#
# Elastic Compliance Matrix: (Units=1/GPa)
#
#
# Indices 1 2 3 4 5 6 
#
# 1 0.010562 -0.005047 -0.002067 0.000000 -0.002935 0.000000
# 2 -0.005047 0.010376 -0.001119 0.000000 0.005835 0.000000
# 3 -0.002067 -0.001119 0.013945 0.000000 0.003192 0.000000
# 4 0.000000 0.000000 0.000000 0.023341 0.000000 0.001495
# 5 -0.002935 0.005835 0.003192 0.000000 0.063422 0.000000
# 6 0.000000 0.000000 0.000000 0.001495 0.000000 0.037238
#
#
# Mechanical properties :
#
#
# Convention : Reuss Voigt Hill
#
# Bulk Modulus (GPa) = 54.30039 64.44983 59.37511
# Shear Modulus (GPa) = 27.54987 32.79757 30.17372
#
# Velocity S-wave (km/s) = 3.64946 3.98189 3.81929
# Velocity P-wave (km/s) = 6.63390 7.23172 6.93925
#
# Compressibility (1/GPa) = 0.01841607
#
# Stress axis : x y z
#
# Youngs Moduli (GPa) = 94.67989 96.37905 71.70971
#
# Poissons Ratio (x) = 0.48645 0.14821
# Poissons Ratio (y) = 0.47787 0.08027
# Poissons Ratio (z) = 0.19568 0.10788
#
# Static dielectric constant tensor:
#      x y z
#    x 2.034870 0.000000 0.011560 
#    y 0.000000 1.732100 0.000000 
#    z 0.011560 0.000000 1.734590 
# 
# From -- ./inp_files/227874.got.cif
#   From: 2010.05.17/outbox.cif.g08.bks.cpg/sg15_114_cif.got.tgz:227874.got - 2010.06.03 18:47:42.
