data_PCOD9280510
_publ_section_title
;
Structure prediction by ZEFSAII (Michael W. Deem and Ramdas Pophale) SiO2 
 PCOD9280510
Probable space group: C 2/C
;
_chemical_formula_sum "Si O2"
_cell_formula_units_Z 56
_cell_length_a 11.488876
_cell_length_b 27.553138
_cell_length_c 8.175319
_cell_angle_alpha 90.000000
_cell_angle_beta 54.864274
_cell_angle_gamma 90.000000
_cell_volume 2116.389779
_symmetry_space_group_name_H-M "C 2/C"
_symmetry_group_IT_number 15
_symmetry_cell_setting 'monoclinic'
loop_
_space_group_symop_operation_xyz
x,y,z
-x,y,1/2-z
-x,-y,-z
x,-y,1/2+z
1/2+x,1/2+y,z
1/2-x,1/2+y,1/2-z
1/2-x,1/2-y,-z
1/2+x,1/2-y,1/2+z
loop_
_atom_site_type_symbol
_atom_site_label
_atom_site_fract_x
_atom_site_fract_y
_atom_site_fract_z
Si Si1 0.000000 0.839565 0.250000
Si Si2 0.162975 0.349835 0.133440
Si Si3 0.161002 0.921474 0.312328
Si Si4 0.833567 0.777235 0.189048
Si Si5 0.166272 0.318447 0.639506
Si Si6 0.298810 0.484252 0.912533
Si Si7 0.206760 0.589475 0.269806
Si Si8 0.500000 0.023388 0.250000
O O1 0.058838 0.879541 0.333873
O O2 0.009701 0.796185 0.387214
O O3 0.198244 0.390389 0.245665
O O4 0.265647 0.304446 0.090313
O O5 0.000000 0.333942 0.250000
O O6 0.191729 0.378563 0.944028
O O7 0.131044 0.954251 0.497901
O O8 0.167811 0.960824 0.162199
O O9 0.825277 0.719840 0.219134
O O10 0.740241 0.797843 0.418249
O O11 0.242360 0.369785 0.608263
O O12 0.000000 0.328032 0.750000
O O13 0.313109 0.452664 0.736161
O O14 0.130552 0.489787 0.090710
O O15 0.066856 0.560010 0.328395
#
# Coordination Sequence:
#
# PCOD9280510 Si02
#       8
#     4   8   8   8   8   8   8   4
#     4  10  22  43  64  90 120 174 219 254 304 386
#     4  10  21  37  60  94 127 164 209 263 321 378
#     4  10  23  37  62  87 123 171 212 259 308 375
#     4  10  23  42  69  92 131 168 207 269 320 382
#     4  11  22  41  67 100 123 164 216 263 326 382
#     4  11  23  38  56  92 130 168 210 259 323 373
#     4  11  23  34  59  92 126 165 208 265 317 385
#     4  12  22  35  60  92 134 166 203 272 320 386
#
# _framework density 26.460153999999999
#
# number of rings (size 3 to 8) (size 9 to 14) (size 15 to 20)
#    0.000    1.429    2.857    2.143    8.000    1.143 
#    0.000    0.000    0.000    0.000    0.000    0.000 
#    0.000    0.000    0.000    0.000    0.000    0.000 
#
# Total GULP energy -156240.319306 kJ/mol
# GULP energy per Si atom -5580.011404 kJ/mol
# Density = 2.639993 g / cm^3
# Si number density = 26.460154 Si / 1000 Ang^3
#
#
#
# Elastic Constant Matrix: (Units=GPa)
#
#
# Indices 1 2 3 4 5 6 
#
# 1 164.4729 51.8483 34.9732 0.0000 13.5119 0.0000
# 2 51.8483 178.7147 24.0491 0.0000 13.9454 0.0000
# 3 34.9732 24.0491 50.6874 0.0000 20.6098 0.0000
# 4 0.0000 0.0000 0.0000 19.6922 0.0000 19.5699
# 5 13.5119 13.9454 20.6098 0.0000 40.5480 0.0000
# 6 0.0000 0.0000 0.0000 19.5699 0.0000 34.1506
#
#
#
# Elastic Compliance Matrix: (Units=1/GPa)
#
#
# Indices 1 2 3 4 5 6 
#
# 1 0.007528 -0.001596 -0.004589 0.000000 0.000372 0.000000
# 2 -0.001596 0.006335 -0.001557 0.000000 -0.000856 0.000000
# 3 -0.004589 -0.001557 0.028732 0.000000 -0.012539 0.000000
# 4 0.000000 0.000000 0.000000 0.117955 0.000000 -0.067594
# 5 0.000372 -0.000856 -0.012539 0.000000 0.031206 0.000000
# 6 0.000000 0.000000 0.000000 -0.067594 0.000000 0.068017
#
#
# Mechanical properties :
#
#
# Convention : Reuss Voigt Hill
#
# Bulk Modulus (GPa) = 36.88269 68.40178 52.64224
# Shear Modulus (GPa) = 17.58753 37.74513 27.66633
#
# Velocity S-wave (km/s) = 2.58094 3.78099 3.23706
# Velocity P-wave (km/s) = 4.78026 6.70583 5.82319
#
# Compressibility (1/GPa) = 0.02711299
#
# Stress axis : x y z
#
# Youngs Moduli (GPa) = 132.83458 157.86124 34.80434
#
# Poissons Ratio (x) = 0.25189 0.15971
# Poissons Ratio (y) = 0.21196 0.05418
# Poissons Ratio (z) = 0.60953 0.24573
#
# Static dielectric constant tensor:
#      x y z
#    x 3.296340 0.000000 -0.093100 
#    y 0.000000 2.051360 0.000000 
#    z -0.093100 0.000000 2.204300 
# 
# From -- ./inp_files/34239.got.cif
#   From: 2010.05.17/outbox.cif.g08.bks.cpg/sg15_18_cif.got.tgz:34239.got - 2010.06.03 18:47:42.
