data_PCOD9280552
_publ_section_title
;
Structure prediction by ZEFSAII (Michael W. Deem and Ramdas Pophale) SiO2 
 PCOD9280552
Probable space group: C 2/C
;
_chemical_formula_sum "Si O2"
_cell_formula_units_Z 60
_cell_length_a 24.700299
_cell_length_b 25.511356
_cell_length_c 9.450707
_cell_angle_alpha 90.000000
_cell_angle_beta 150.450399
_cell_angle_gamma 90.000000
_cell_volume 2936.991766
_symmetry_space_group_name_H-M "C 2/C"
_symmetry_group_IT_number 15
_symmetry_cell_setting 'monoclinic'
loop_
_space_group_symop_operation_xyz
x,y,z
-x,y,1/2-z
-x,-y,-z
x,-y,1/2+z
1/2+x,1/2+y,z
1/2-x,1/2+y,1/2-z
1/2-x,1/2-y,-z
1/2+x,1/2-y,1/2+z
loop_
_atom_site_type_symbol
_atom_site_label
_atom_site_fract_x
_atom_site_fract_y
_atom_site_fract_z
Si Si1 0.119303 0.432966 0.982297
Si Si2 0.192572 0.150543 0.636245
Si Si3 0.688196 0.028479 0.341727
Si Si4 0.419301 0.516526 0.440271
Si Si5 0.704632 0.372349 0.499486
Si Si6 0.718637 0.257897 0.595137
Si Si7 0.549223 0.371327 0.556988
Si Si8 0.500000 0.279577 0.250000
O O1 0.210285 0.387401 0.197732
O O2 0.147812 0.480579 0.154163
O O3 0.117433 0.455106 0.816891
O O4 0.000000 0.411950 0.750000
O O5 0.191932 0.139920 0.802577
O O6 0.216808 0.212472 0.676436
O O7 0.086118 0.136551 0.302253
O O8 0.713722 0.079089 0.302440
O O9 0.806935 0.014650 0.678883
O O10 0.500000 0.500000 0.500000
O O11 0.389862 0.577795 0.363089
O O12 0.500000 0.505111 0.750000
O O13 0.742229 0.319836 0.665319
O O14 0.579361 0.384295 0.255269
O O15 0.750000 0.250000 0.500000
O O16 0.591485 0.251608 0.359155
O O17 0.565195 0.318136 0.505904
#
# Coordination Sequence:
#
# PCOD9280552 Si02
#       8
#     8   8   8   8   8   8   8   4
#     4  11  24  40  60  85 118 167 218 261 296 356
#     4  10  21  37  61  87 117 160 208 253 305 366
#     4  11  22  38  61  89 123 166 205 251 316 371
#     4  12  23  34  57  92 134 159 191 244 309 389
#     4   9  20  36  61  87 123 159 191 249 325 377
#     4   9  20  40  60  85 118 157 204 253 305 368
#     4  11  20  35  56  93 124 152 194 247 313 384
#     4  10  22  36  62  84 120 164 196 250 322 364
#
# _framework density 20.429067
#
# number of rings (size 3 to 8) (size 9 to 14) (size 15 to 20)
#    0.000    1.600    3.333    1.600    2.800    0.533 
#    0.000    0.000    0.000    4.800    0.000    0.000 
#    0.000    0.000    0.000    0.000    0.000    0.000 
#
# Total GULP energy -167270.067858 kJ/mol
# GULP energy per Si atom -5575.668929 kJ/mol
# Density = 2.038257 g / cm^3
# Si number density = 20.429067 Si / 1000 Ang^3
#
#
#
# Elastic Constant Matrix: (Units=GPa)
#
#
# Indices 1 2 3 4 5 6 
#
# 1 98.9929 4.0762 14.2578 0.0000 7.5799 0.0000
# 2 4.0762 83.5889 13.6241 0.0000 -1.5430 0.0000
# 3 14.2578 13.6241 26.9988 0.0000 -6.9295 0.0000
# 4 0.0000 0.0000 0.0000 26.3155 0.0000 -5.6540
# 5 7.5799 -1.5430 -6.9295 0.0000 27.9692 0.0000
# 6 0.0000 0.0000 0.0000 -5.6540 0.0000 22.5181
#
#
#
# Elastic Compliance Matrix: (Units=1/GPa)
#
#
# Indices 1 2 3 4 5 6 
#
# 1 0.011569 0.000598 -0.007697 0.000000 -0.005009 0.000000
# 2 0.000598 0.013091 -0.007238 0.000000 -0.001233 0.000000
# 3 -0.007697 -0.007238 0.048257 0.000000 0.013643 0.000000
# 4 0.000000 0.000000 0.000000 0.040167 0.000000 0.010086
# 5 -0.005009 -0.001233 0.013643 0.000000 0.040423 0.000000
# 6 0.000000 0.000000 0.000000 0.010086 0.000000 0.046941
#
#
# Mechanical properties :
#
#
# Convention : Reuss Voigt Hill
#
# Bulk Modulus (GPa) = 22.60238 30.38853 26.49546
# Shear Modulus (GPa) = 20.50256 27.20206 23.85231
#
# Velocity S-wave (km/s) = 3.17140 3.65298 3.42068
# Velocity P-wave (km/s) = 4.94957 5.71837 5.34780
#
# Compressibility (1/GPa) = 0.04424312
#
# Stress axis : x y z
#
# Youngs Moduli (GPa) = 86.43590 76.38752 20.72218
#
# Poissons Ratio (x) = -0.04567 0.15950
# Poissons Ratio (y) = -0.05168 0.14999
# Poissons Ratio (z) = 0.66530 0.55291
#
# Static dielectric constant tensor:
#      x y z
#    x 1.778870 0.000000 0.002040 
#    y 0.000000 1.750440 0.000000 
#    z 0.002040 0.000000 1.675820 
# 
# From -- ./inp_files/64126.got.cif
#   From: 2010.05.17/outbox.cif.g08.bks.cpg/sg15_33_cif.got.tgz:64126.got - 2010.06.03 18:47:42.
