data_PCOD9280633
_publ_section_title
;
Structure prediction by ZEFSAII (Michael W. Deem and Ramdas Pophale) SiO2 
 PCOD9280633
Probable space group: C 2/C
;
_chemical_formula_sum "Si O2"
_cell_formula_units_Z 60
_cell_length_a 5.387793
_cell_length_b 20.749297
_cell_length_c 23.019796
_cell_angle_alpha 90.000000
_cell_angle_beta 85.233437
_cell_angle_gamma 90.000000
_cell_volume 2564.549928
_symmetry_space_group_name_H-M "C 2/C"
_symmetry_group_IT_number 15
_symmetry_cell_setting 'monoclinic'
loop_
_space_group_symop_operation_xyz
x,y,z
-x,y,1/2-z
-x,-y,-z
x,-y,1/2+z
1/2+x,1/2+y,z
1/2-x,1/2+y,1/2-z
1/2-x,1/2-y,-z
1/2+x,1/2-y,1/2+z
loop_
_atom_site_type_symbol
_atom_site_label
_atom_site_fract_x
_atom_site_fract_y
_atom_site_fract_z
Si Si1 0.914668 0.907012 0.579349
Si Si2 0.967560 0.857408 0.359571
Si Si3 0.000000 0.639025 0.250000
Si Si4 0.657026 0.470843 0.801069
Si Si5 0.518367 0.921969 0.150617
Si Si6 0.821519 0.316121 0.527504
Si Si7 0.573085 0.209240 0.135919
Si Si8 0.693280 0.092456 0.967170
O O1 0.971695 0.952148 0.634114
O O2 0.773769 0.843755 0.609038
O O3 0.756333 0.938392 0.528761
O O4 0.147254 0.877903 0.540346
O O5 0.757046 0.896660 0.327592
O O6 0.868517 0.784431 0.359545
O O7 0.933263 0.886556 0.425141
O O8 0.257704 0.870682 0.341691
O O9 0.226895 0.593568 0.228273
O O10 0.953290 0.683542 0.196601
O O11 0.500000 0.497796 0.750000
O O12 0.884104 0.515836 0.817543
O O13 0.477511 0.935686 0.081871
O O14 0.750000 0.250000 0.500000
O O15 0.866804 0.294296 0.591558
O O16 0.062132 0.341511 0.489358
#
# Coordination Sequence:
#
# PCOD9280633 Si02
#       8
#     8   8   4   8   8   8   8   8
#     4  10  21  37  62 102 134 180 224 278 347 404
#     4  10  22  43  67 104 137 177 222 276 343 411
#     4  10  24  46  66  96 126 176 232 286 344 396
#     4  11  25  45  69  89 131 183 240 291 334 412
#     4  10  24  43  69  94 136 181 223 279 333 406
#     4  11  19  32  62  97 138 179 213 272 344 418
#     4  10  21  38  65  95 138 172 222 281 338 408
#     4   9  20  36  61 100 136 171 224 266 346 401
#
# _framework density 23.395917000000001
#
# number of rings (size 3 to 8) (size 9 to 14) (size 15 to 20)
#    0.800    1.067    0.000    4.000    3.733    2.667 
#    1.200    1.333    0.000    0.000    0.000    0.000 
#    0.000    0.000    0.000    0.000    0.000    0.000 
#
# Total GULP energy -167077.773998 kJ/mol
# GULP energy per Si atom -5569.259133 kJ/mol
# Density = 2.334267 g / cm^3
# Si number density = 23.395917 Si / 1000 Ang^3
#
#
#
# Elastic Constant Matrix: (Units=GPa)
#
#
# Indices 1 2 3 4 5 6 
#
# 1 65.2198 17.9151 36.1876 0.0000 18.4766 0.0000
# 2 17.9151 68.3345 54.6034 0.0000 24.7030 0.0000
# 3 36.1876 54.6034 137.2376 0.0000 32.0395 0.0000
# 4 0.0000 0.0000 0.0000 11.2535 0.0000 -8.7662
# 5 18.4766 24.7030 32.0395 0.0000 27.6163 0.0000
# 6 0.0000 0.0000 0.0000 -8.7662 0.0000 -6.9329
#
#
#
# Elastic Compliance Matrix: (Units=1/GPa)
#
#
# Indices 1 2 3 4 5 6 
#
# 1 0.019789 0.001221 -0.003234 0.000000 -0.010580 0.000000
# 2 0.001221 0.025385 -0.006761 0.000000 -0.015679 0.000000
# 3 -0.003234 -0.006761 0.012223 0.000000 -0.005969 0.000000
# 4 0.000000 0.000000 0.000000 0.044767 0.000000 -0.056605
# 5 -0.010580 -0.015679 -0.005969 0.000000 0.064239 0.000000
# 6 0.000000 0.000000 0.000000 -0.056605 0.000000 -0.072666
#
#
# Mechanical properties :
#
#
# Convention : Reuss Voigt Hill
#
# Bulk Modulus (GPa) = 25.09552 54.24489 39.67021
# Shear Modulus (GPa) = 40.13843 17.19309 28.66576
#
# Velocity S-wave (km/s) = 4.14649 2.71380 3.50415
# Velocity P-wave (km/s) = 5.80296 5.74940 5.77624
#
# Compressibility (1/GPa) = 0.03984775
#
# Stress axis : x y z
#
# Youngs Moduli (GPa) = 50.53304 39.39396 81.81264
#
# Poissons Ratio (x) = -0.04808 0.26456
# Poissons Ratio (y) = -0.06168 0.55316
# Poissons Ratio (z) = 0.16341 0.26635
#
# Static dielectric constant tensor:
#      x y z
#    x 1.706860 0.000000 0.125730 
#    y 0.000000 2.414790 0.000000 
#    z 0.125730 0.000000 1.838460 
# 
# From -- ./inp_files/261388.got.cif
#   From: 2010.05.17/outbox.cif.g08.bks.cpg/sg15_131_cif.got.tgz:261388.got - 2010.06.03 18:47:42.
