data_PCOD9280972
_publ_section_title
;
Structure prediction by ZEFSAII (Michael W. Deem and Ramdas Pophale) SiO2 
 PCOD9280972
Probable space group: C 2/C
;
_chemical_formula_sum "Si O2"
_cell_formula_units_Z 44
_cell_length_a 14.304189
_cell_length_b 5.376303
_cell_length_c 21.375197
_cell_angle_alpha 90.000000
_cell_angle_beta 105.916559
_cell_angle_gamma 90.000000
_cell_volume 1580.809728
_symmetry_space_group_name_H-M "C 2/C"
_symmetry_group_IT_number 15
_symmetry_cell_setting 'monoclinic'
loop_
_space_group_symop_operation_xyz
x,y,z
-x,y,1/2-z
-x,-y,-z
x,-y,1/2+z
1/2+x,1/2+y,z
1/2-x,1/2+y,1/2-z
1/2-x,1/2-y,-z
1/2+x,1/2-y,1/2+z
loop_
_atom_site_type_symbol
_atom_site_label
_atom_site_fract_x
_atom_site_fract_y
_atom_site_fract_z
Si Si1 0.359155 0.856785 0.136761
Si Si2 0.765317 0.538726 0.918237
Si Si3 0.000000 0.622350 0.250000
Si Si4 0.101020 0.256484 0.965446
Si Si5 0.721176 0.744036 0.207405
Si Si6 0.473588 0.510918 0.855569
O O1 0.251114 0.739355 0.111449
O O2 0.424185 0.607547 0.144621
O O3 0.410065 0.969950 0.206713
O O4 0.387385 0.021230 0.082503
O O5 0.691145 0.572274 0.963310
O O6 0.738010 0.723363 0.856082
O O7 0.870247 0.621545 0.963535
O O8 0.958748 0.780106 0.300363
O O9 0.999203 0.125581 0.928532
O O10 0.750734 0.500203 0.252670
O O11 0.608319 0.693421 0.169927
#
# Coordination Sequence:
#
# PCOD9280972 Si02
#       6
#     8   8   4   8   8   8
#     4  10  21  37  71 101 133 187 247 304 359 427
#     4  10  23  44  67 105 137 187 240 305 362 437
#     4  10  22  36  70  98 150 182 258 302 354 436
#     4   9  21  43  75  98 135 181 253 301 360 423
#     4  12  32  46  68 104 156 195 239 297 385 437
#     4  10  24  41  64 105 133 193 239 300 365 439
#
# _framework density 27.833836000000002
#
# number of rings (size 3 to 8) (size 9 to 14) (size 15 to 20)
#    0.000    1.818    0.000    1.091   17.818    0.727 
#    0.000    0.909    0.000    0.000    0.000    0.000 
#    0.000    0.000    0.000    0.000    0.000    0.000 
#
# Total GULP energy -123003.472976 kJ/mol
# GULP energy per Si atom -5591.066953 kJ/mol
# Density = 2.777048 g / cm^3
# Si number density = 27.833836 Si / 1000 Ang^3
#
#
#
# Elastic Constant Matrix: (Units=GPa)
#
#
# Indices 1 2 3 4 5 6 
#
# 1 48.4706 -18.5046 12.7184 0.0000 11.4806 0.0000
# 2 -18.5046 90.0721 51.9814 0.0000 9.9964 0.0000
# 3 12.7184 51.9814 201.2501 0.0000 23.0662 0.0000
# 4 0.0000 0.0000 0.0000 53.4738 0.0000 16.2941
# 5 11.4806 9.9964 23.0662 0.0000 36.0806 0.0000
# 6 0.0000 0.0000 0.0000 16.2941 0.0000 24.0397
#
#
#
# Elastic Compliance Matrix: (Units=1/GPa)
#
#
# Indices 1 2 3 4 5 6 
#
# 1 0.026514 0.008007 -0.002722 0.000000 -0.008915 0.000000
# 2 0.008007 0.015549 -0.004032 0.000000 -0.004278 0.000000
# 3 -0.002722 -0.004032 0.006426 0.000000 -0.002125 0.000000
# 4 0.000000 0.000000 0.000000 0.023568 0.000000 -0.015975
# 5 -0.008915 -0.004278 -0.002125 0.000000 0.033096 0.000000
# 6 0.000000 0.000000 0.000000 -0.015975 0.000000 0.052425
#
#
# Mechanical properties :
#
#
# Convention : Reuss Voigt Hill
#
# Bulk Modulus (GPa) = 19.60956 48.02036 33.81496
# Shear Modulus (GPa) = 29.05793 42.29199 35.67496
#
# Velocity S-wave (km/s) = 3.23457 3.90224 3.58398
# Velocity P-wave (km/s) = 4.58372 6.13133 5.41312
#
# Compressibility (1/GPa) = 0.05099554
#
# Stress axis : x y z
#
# Youngs Moduli (GPa) = 37.71617 64.31320 155.62004
#
# Poissons Ratio (x) = -0.51498 0.42361
# Poissons Ratio (y) = -0.30201 0.62744
# Poissons Ratio (z) = 0.10267 0.25930
#
# Static dielectric constant tensor:
#      x y z
#    x 2.288660 0.000000 -0.016270 
#    y 0.000000 2.311490 0.000000 
#    z -0.016270 0.000000 2.203570 
# 
# From -- ./inp_files/275926.got.cif
#   From: 2010.05.17/outbox.cif.g08.bks.cpg/sg15_138_cif.got.tgz:275926.got - 2010.06.03 18:47:42.
