data_PCOD9280381
_publ_section_title
;
Structure prediction by ZEFSAII (Michael W. Deem and Ramdas Pophale) SiO2 
 PCOD9280381
Probable space group: C 2/C
;
_chemical_formula_sum "Si O2"
_cell_formula_units_Z 48
_cell_length_a 14.427291
_cell_length_b 20.746906
_cell_length_c 7.959216
_cell_angle_alpha 90.000000
_cell_angle_beta 64.146763
_cell_angle_gamma 90.000000
_cell_volume 2143.924177
_symmetry_space_group_name_H-M "C 2/C"
_symmetry_group_IT_number 15
_symmetry_cell_setting 'monoclinic'
loop_
_space_group_symop_operation_xyz
x,y,z
-x,y,1/2-z
-x,-y,-z
x,-y,1/2+z
1/2+x,1/2+y,z
1/2-x,1/2+y,1/2-z
1/2-x,1/2-y,-z
1/2+x,1/2-y,1/2+z
loop_
_atom_site_type_symbol
_atom_site_label
_atom_site_fract_x
_atom_site_fract_y
_atom_site_fract_z
Si Si1 0.807925 0.411811 0.006835
Si Si2 0.045331 0.932884 0.899437
Si Si3 0.617220 0.346521 0.338953
Si Si4 0.823324 0.285618 0.809555
Si Si5 0.118296 0.540114 0.694825
Si Si6 0.233457 0.130460 0.102553
O O1 0.694402 0.386738 0.155162
O O2 0.865571 0.432344 0.131859
O O3 0.859049 0.351357 0.870518
O O4 0.814724 0.475913 0.889633
O O5 0.163980 0.917527 0.771451
O O6 0.000000 0.925971 0.750000
O O7 0.992751 0.879656 0.056974
O O8 0.000000 0.000000 0.000000
O O9 0.603023 0.272040 0.303817
O O10 0.673819 0.351759 0.477371
O O11 0.760133 0.308838 0.696269
O O12 0.750000 0.250000 0.000000
O O13 0.163517 0.593811 0.533814
O O14 0.000000 0.525952 0.750000
#
# Coordination Sequence:
#
# PCOD9280381 Si02
#       6
#     8   8   8   8   8   8
#     4  10  21  37  59  87 118 154 195 246 296 353
#     4  10  21  37  61  91 118 153 198 245 297 349
#     4   9  20  39  62  88 119 157 198 242 299 357
#     4  10  21  39  60  85 120 158 195 240 297 356
#     4  11  22  39  61  87 118 154 199 246 298 354
#     4  10  21  39  61  86 120 158 197 247 295 353
#
# _framework density 22.388852
#
# number of rings (size 3 to 8) (size 9 to 14) (size 15 to 20)
#    0.000    2.000    0.000    3.000    0.000    5.333 
#    0.000   12.500    0.000    0.000    0.000    0.000 
#    0.000    0.000    0.000    0.000    0.000    0.000 
#
# Total GULP energy -134109.780577 kJ/mol
# GULP energy per Si atom -5587.907524 kJ/mol
# Density = 2.233789 g / cm^3
# Si number density = 22.388852 Si / 1000 Ang^3
#
#
#
# Elastic Constant Matrix: (Units=GPa)
#
#
# Indices 1 2 3 4 5 6 
#
# 1 58.4962 -2.7944 31.5789 0.0000 4.6067 0.0000
# 2 -2.7944 100.8588 42.7642 0.0000 7.0644 0.0000
# 3 31.5789 42.7642 103.7566 0.0000 5.4976 0.0000
# 4 0.0000 0.0000 0.0000 60.1783 0.0000 5.1285
# 5 4.6067 7.0644 5.4976 0.0000 26.7505 0.0000
# 6 0.0000 0.0000 0.0000 5.1285 0.0000 26.4358
#
#
#
# Elastic Compliance Matrix: (Units=1/GPa)
#
#
# Indices 1 2 3 4 5 6 
#
# 1 0.022067 0.004378 -0.008349 0.000000 -0.003241 0.000000
# 2 0.004378 0.013010 -0.006544 0.000000 -0.002845 0.000000
# 3 -0.008349 -0.006544 0.014870 0.000000 0.000110 0.000000
# 4 0.000000 0.000000 0.000000 0.016897 0.000000 -0.003278
# 5 -0.003241 -0.002845 0.000110 0.000000 0.038669 0.000000
# 6 0.000000 0.000000 0.000000 -0.003278 0.000000 0.038463
#
#
# Mechanical properties :
#
#
# Convention : Reuss Voigt Hill
#
# Bulk Modulus (GPa) = 34.58091 45.13434 39.85763
# Shear Modulus (GPa) = 28.62950 35.44377 32.03664
#
# Velocity S-wave (km/s) = 3.57983 3.98313 3.78685
# Velocity P-wave (km/s) = 5.70666 6.43093 6.07959
#
# Compressibility (1/GPa) = 0.02891769
#
# Stress axis : x y z
#
# Youngs Moduli (GPa) = 45.31728 76.86333 67.24786
#
# Poissons Ratio (x) = -0.33653 0.56145
# Poissons Ratio (y) = -0.19841 0.44007
# Poissons Ratio (z) = 0.37835 0.50300
#
# Static dielectric constant tensor:
#      x y z
#    x 1.824430 0.000000 0.012140 
#    y 0.000000 1.738540 0.000000 
#    z 0.012140 0.000000 1.879750 
# 
# From -- ./inp_files/48341.got.cif
#   From: 2010.05.17/outbox.cif.g08.bks.cpg/sg15_25_cif.got.tgz:48341.got - 2010.06.03 18:47:42.
