data_PCOD9280002
_publ_section_title
;
Structure prediction by ZEFSAII (Michael W. Deem and Ramdas Pophale) SiO2 
 PCOD9280002
Probable space group: C 2/C
;
_chemical_formula_sum "Si O2"
_cell_formula_units_Z 36
_cell_length_a 7.503797
_cell_length_b 17.403005
_cell_length_c 13.797095
_cell_angle_alpha 90.000000
_cell_angle_beta 48.499605
_cell_angle_gamma 90.000000
_cell_volume 1349.417909
_symmetry_space_group_name_H-M "C 2/C"
_symmetry_group_IT_number 15
_symmetry_cell_setting 'monoclinic'
loop_
_space_group_symop_operation_xyz
x,y,z
-x,y,1/2-z
-x,-y,-z
x,-y,1/2+z
1/2+x,1/2+y,z
1/2-x,1/2+y,1/2-z
1/2-x,1/2-y,-z
1/2+x,1/2-y,1/2+z
loop_
_atom_site_type_symbol
_atom_site_label
_atom_site_fract_x
_atom_site_fract_y
_atom_site_fract_z
Si Si1 0.817563 0.365941 0.470726
Si Si2 0.907516 0.515568 0.172918
Si Si3 0.500000 0.374106 0.750000
Si Si4 0.774052 0.190407 0.903324
Si Si5 0.464072 0.428650 0.086508
O O1 0.592081 0.340968 0.616662
O O2 0.707243 0.366508 0.403203
O O3 0.907467 0.456540 0.444395
O O4 0.041250 0.316944 0.421773
O O5 0.755108 0.585566 0.185285
O O6 0.684603 0.458891 0.270953
O O7 0.000000 0.533545 0.250000
O O8 0.000000 0.202593 0.750000
O O9 0.804558 0.111131 0.954690
O O10 0.750000 0.250000 0.000000
O O11 0.500000 0.500000 0.000000
#
# Coordination Sequence:
#
# PCOD9280002 Si02
#       5
#     8   8   4   8   8
#     4  11  25  41  68 104 146 198 244 308 377 454
#     4  10  21  36  63 100 148 187 229 295 382 442
#     4  12  22  34  64 106 148 184 240 300 370 462
#     4  12  29  53  78 105 151 210 260 317 387 466
#     4  11  23  44  76 113 147 192 247 315 388 458
#
# _framework density 26.678172
#
# number of rings (size 3 to 8) (size 9 to 14) (size 15 to 20)
#    0.000    0.889    4.444    2.000    6.222    2.667 
#    0.000    0.000    0.000    0.000    0.000    0.000 
#    0.000    0.000    0.000    0.000    0.000    0.000 
#
# Total GULP energy -100440.927744 kJ/mol
# GULP energy per Si atom -5580.051541 kJ/mol
# Density = 2.661745 g / cm^3
# Si number density = 26.678172 Si / 1000 Ang^3
#
#
#
# Elastic Constant Matrix: (Units=GPa)
#
#
# Indices 1 2 3 4 5 6 
#
# 1 173.7581 31.0651 9.5220 0.0000 -6.2493 0.0000
# 2 31.0651 83.2621 17.5912 0.0000 7.5912 0.0000
# 3 9.5220 17.5912 129.2783 0.0000 -17.7094 0.0000
# 4 0.0000 0.0000 0.0000 13.3651 0.0000 17.6074
# 5 -6.2493 7.5912 -17.7094 0.0000 46.8962 0.0000
# 6 0.0000 0.0000 0.0000 17.6074 0.0000 24.4880
#
#
#
# Elastic Compliance Matrix: (Units=1/GPa)
#
#
# Indices 1 2 3 4 5 6 
#
# 1 0.006235 -0.002449 0.000044 0.000000 0.001244 0.000000
# 2 -0.002449 0.013682 -0.002140 0.000000 -0.003349 0.000000
# 3 0.000044 -0.002140 0.008512 0.000000 0.003567 0.000000
# 4 0.000000 0.000000 0.000000 1.418315 0.000000 -1.019798
# 5 0.001244 -0.003349 0.003567 0.000000 0.023379 0.000000
# 6 0.000000 0.000000 0.000000 -1.019798 0.000000 0.774092
#
#
# Mechanical properties :
#
#
# Convention : Reuss Voigt Hill
#
# Bulk Modulus (GPa) = 51.70915 55.85054 53.77985
# Shear Modulus (GPa) = 2.21263 38.82456 20.51860
#
# Velocity S-wave (km/s) = 0.91169 3.81897 2.77630
# Velocity P-wave (km/s) = 4.53132 6.35818 5.52084
#
# Compressibility (1/GPa) = 0.01933894
#
# Stress axis : x y z
#
# Youngs Moduli (GPa) = 160.37675 73.09103 117.48447
#
# Poissons Ratio (x) = 0.17902 -0.00522
# Poissons Ratio (y) = 0.39280 0.25143
# Poissons Ratio (z) = -0.00713 0.15642
#
# Static dielectric constant tensor:
#      x y z
#    x 2.141020 0.000000 -0.076980 
#    y 0.000000 2.347840 0.000000 
#    z -0.076980 0.000000 2.345190 
# 
# From -- ./inp_files/134158.got.cif
#   From: 2010.05.17/outbox.cif.g08.bks.cpg/sg15_68_cif.got.tgz:134158.got - 2010.06.03 18:47:42.
