data_PCOD9280697
_publ_section_title
;
Structure prediction by ZEFSAII (Michael W. Deem and Ramdas Pophale) SiO2 
 PCOD9280697
Probable space group: C 2/C
;
_chemical_formula_sum "Si O2"
_cell_formula_units_Z 64
_cell_length_a 22.768324
_cell_length_b 7.370580
_cell_length_c 22.429660
_cell_angle_alpha 90.000000
_cell_angle_beta 129.991277
_cell_angle_gamma 90.000000
_cell_volume 2883.798132
_symmetry_space_group_name_H-M "C 2/C"
_symmetry_group_IT_number 15
_symmetry_cell_setting 'monoclinic'
loop_
_space_group_symop_operation_xyz
x,y,z
-x,y,1/2-z
-x,-y,-z
x,-y,1/2+z
1/2+x,1/2+y,z
1/2-x,1/2+y,1/2-z
1/2-x,1/2-y,-z
1/2+x,1/2-y,1/2+z
loop_
_atom_site_type_symbol
_atom_site_label
_atom_site_fract_x
_atom_site_fract_y
_atom_site_fract_z
Si Si1 0.141708 0.536899 0.220102
Si Si2 0.792322 0.085137 0.773171
Si Si3 0.636271 0.831059 0.497160
Si Si4 0.998212 0.557953 0.066665
Si Si5 0.916207 0.322945 0.165566
Si Si6 0.572780 0.393928 0.069772
Si Si7 0.696617 0.554985 0.355296
Si Si8 0.910543 0.276161 0.691913
O O1 0.177755 0.707795 0.207435
O O2 0.214956 0.410807 0.260944
O O3 0.064525 0.448376 0.144027
O O4 0.114508 0.632252 0.262221
O O5 0.861017 0.990668 0.854754
O O6 0.787045 0.014415 0.701772
O O7 0.607474 0.746658 0.415399
O O8 0.611119 0.708790 0.537846
O O9 0.724657 0.886153 0.561232
O O10 0.586474 0.014657 0.469799
O O11 0.031020 0.759222 0.089953
O O12 0.000000 0.500000 0.000000
O O13 0.858268 0.229714 0.174291
O O14 0.906635 0.540296 0.150740
O O15 0.000000 0.295527 0.250000
O O16 0.500000 0.500000 0.000000
O O17 0.648068 0.390164 0.354592
O O18 0.000000 0.214999 0.750000
#
# Coordination Sequence:
#
# PCOD9280697 Si02
#       8
#     8   8   8   8   8   8   8   8
#     4  10  21  37  62  94 126 167 226 286 332 422
#     4  10  22  38  64  99 127 176 220 279 357 401
#     4  11  24  44  63 101 136 179 232 282 351 406
#     4   9  18  37  59  82 130 171 209 271 336 402
#     4  11  25  44  70  97 134 190 233 285 340 415
#     4  10  23  39  62 101 137 172 228 285 342 424
#     4  11  24  44  69  97 141 176 232 292 345 407
#     4  10  23  43  66  99 131 180 236 274 340 418
#
# _framework density 22.192955000000001
#
# number of rings (size 3 to 8) (size 9 to 14) (size 15 to 20)
#    0.000    1.750    0.000    4.500    5.250    4.500 
#    4.500    0.000    0.000    0.000    0.000    0.000 
#    0.000    0.000    0.000    0.000    0.000    0.000 
#
# Total GULP energy -178212.962454 kJ/mol
# GULP energy per Si atom -5569.155077 kJ/mol
# Density = 2.214244 g / cm^3
# Si number density = 22.192955 Si / 1000 Ang^3
#
#
#
# Elastic Constant Matrix: (Units=GPa)
#
#
# Indices 1 2 3 4 5 6 
#
# 1 114.9270 22.8161 56.3952 0.0000 27.9083 0.0000
# 2 22.8161 50.3384 19.8480 0.0000 19.6241 0.0001
# 3 56.3952 19.8480 141.3063 0.0000 22.4942 0.0000
# 4 0.0000 0.0000 0.0000 20.5722 0.0000 6.0923
# 5 27.9083 19.6241 22.4942 0.0000 54.0038 0.0000
# 6 0.0000 0.0001 0.0000 6.0923 0.0000 34.8202
#
#
#
# Elastic Compliance Matrix: (Units=1/GPa)
#
#
# Indices 1 2 3 4 5 6 
#
# 1 0.011974 -0.002474 -0.003844 0.000000 -0.003688 0.000000
# 2 -0.002474 0.024222 -0.001304 0.000000 -0.006980 0.000000
# 3 -0.003844 -0.001304 0.008999 0.000000 -0.001288 0.000000
# 4 0.000000 0.000000 0.000000 0.051266 0.000000 -0.008970
# 5 -0.003688 -0.006980 -0.001288 0.000000 0.023496 0.000000
# 6 0.000000 0.000000 0.000000 -0.008970 0.000000 0.030288
#
#
# Mechanical properties :
#
#
# Convention : Reuss Voigt Hill
#
# Bulk Modulus (GPa) = 33.38709 56.07671 44.73190
# Shear Modulus (GPa) = 28.49429 35.71339 32.10384
#
# Velocity S-wave (km/s) = 3.58709 4.01586 3.80752
# Velocity P-wave (km/s) = 5.67741 6.84292 6.28723
#
# Compressibility (1/GPa) = 0.02995170
#
# Stress axis : x y z
#
# Youngs Moduli (GPa) = 83.51214 41.28450 111.12007
#
# Poissons Ratio (x) = 0.10213 0.42719
# Poissons Ratio (y) = 0.20660 0.14487
# Poissons Ratio (z) = 0.32105 0.05382
#
# Static dielectric constant tensor:
#      x y z
#    x 1.832270 0.000000 -0.049920 
#    y 0.000000 1.980970 0.000000 
#    z -0.049920 0.000000 2.080600 
# 
# From -- ./inp_files/279587.got.cif
#   From: 2010.05.17/outbox.cif.g08.bks.cpg/sg15_140_cif.got.tgz:279587.got - 2010.06.03 18:47:42.
