data_PCOD9280571
_publ_section_title
;
Structure prediction by ZEFSAII (Michael W. Deem and Ramdas Pophale) SiO2 
 PCOD9280571
Probable space group: C 2/C
;
_chemical_formula_sum "Si O2"
_cell_formula_units_Z 56
_cell_length_a 15.611871
_cell_length_b 28.389945
_cell_length_c 5.171259
_cell_angle_alpha 90.000000
_cell_angle_beta 83.042883
_cell_angle_gamma 90.000000
_cell_volume 2275.130393
_symmetry_space_group_name_H-M "C 2/C"
_symmetry_group_IT_number 15
_symmetry_cell_setting 'monoclinic'
loop_
_space_group_symop_operation_xyz
x,y,z
-x,y,1/2-z
-x,-y,-z
x,-y,1/2+z
1/2+x,1/2+y,z
1/2-x,1/2+y,1/2-z
1/2-x,1/2-y,-z
1/2+x,1/2-y,1/2+z
loop_
_atom_site_type_symbol
_atom_site_label
_atom_site_fract_x
_atom_site_fract_y
_atom_site_fract_z
Si Si1 0.399767 0.825082 0.271415
Si Si2 0.169690 0.921217 0.932118
Si Si3 0.173039 0.773099 0.688620
Si Si4 0.207694 0.345939 0.679302
Si Si5 0.000000 0.926039 0.750000
Si Si6 0.417279 0.651429 0.647756
Si Si7 0.335688 0.028102 0.519725
Si Si8 0.000000 0.534147 0.250000
O O1 0.500000 0.838732 0.250000
O O2 0.389312 0.769235 0.207559
O O3 0.358004 0.833049 0.568003
O O4 0.342575 0.851047 0.073244
O O5 0.235406 0.890008 0.734083
O O6 0.085631 0.947693 0.849300
O O7 0.237608 0.955886 0.033037
O O8 0.138147 0.879376 0.132033
O O9 0.250000 0.750000 0.500000
O O10 0.224175 0.802801 0.884691
O O11 0.127480 0.811247 0.521027
O O12 0.041964 0.890847 0.531369
O O13 0.500000 0.675696 0.750000
O O14 0.410739 0.060227 0.354633
O O15 0.345653 0.016197 0.817523
O O16 0.000000 0.500000 0.500000
#
# Coordination Sequence:
#
# PCOD9280571 Si02
#       8
#     8   8   8   8   4   8   8   4
#     4  11  25  41  61  91 135 169 219 278 336 394
#     4  11  23  41  70  91 135 169 222 267 333 387
#     4  10  21  37  61  89 121 169 221 272 334 377
#     4  11  23  42  64  90 127 174 219 269 327 395
#     4  10  22  40  64  92 128 165 232 266 323 388
#     4  10  22  39  62  93 124 172 225 278 319 400
#     4  10  23  41  71 102 134 169 211 263 323 386
#     4   8  16  38  62  94 130 159 206 252 297 374
#
# _framework density 24.613975
#
# number of rings (size 3 to 8) (size 9 to 14) (size 15 to 20)
#    0.000    1.714    1.429    2.571    3.000    3.429 
#    2.571    0.714    3.143    0.000    0.000    0.000 
#    0.000    0.000    0.000    0.000    0.000    0.000 
#
# Total GULP energy -156104.232898 kJ/mol
# GULP energy per Si atom -5575.151175 kJ/mol
# Density = 2.455795 g / cm^3
# Si number density = 24.613975 Si / 1000 Ang^3
#
#
#
# Elastic Constant Matrix: (Units=GPa)
#
#
# Indices 1 2 3 4 5 6 
#
# 1 177.3646 12.7153 33.6054 0.0000 22.8816 0.0000
# 2 12.7153 9.8664 8.8780 0.0000 -0.5573 0.0000
# 3 33.6054 8.8780 84.1967 0.0000 4.8206 0.0000
# 4 0.0000 0.0000 0.0000 -8.9518 0.0000 -4.4208
# 5 22.8816 -0.5573 4.8206 0.0000 46.0723 0.0000
# 6 0.0000 0.0000 0.0000 -4.4208 0.0000 21.5808
#
#
#
# Elastic Compliance Matrix: (Units=1/GPa)
#
#
# Indices 1 2 3 4 5 6 
#
# 1 0.006950 -0.007538 -0.001787 0.000000 -0.003356 0.000000
# 2 -0.007538 0.120467 -0.010052 0.000000 0.006253 0.000000
# 3 -0.001787 -0.010052 0.013688 0.000000 -0.000666 0.000000
# 4 0.000000 0.000000 0.000000 -0.101447 0.000000 -0.020781
# 5 -0.003356 0.006253 -0.000666 0.000000 0.023517 0.000000
# 6 0.000000 0.000000 0.000000 -0.020781 0.000000 0.042080
#
#
# Mechanical properties :
#
#
# Convention : Reuss Voigt Hill
#
# Bulk Modulus (GPa) = 9.77031 42.42501 26.09766
# Shear Modulus (GPa) = 28.06998 26.15553 27.11275
#
# Velocity S-wave (km/s) = 3.38066 3.26334 3.32251
# Velocity P-wave (km/s) = 4.38366 5.61005 5.03434
#
# Compressibility (1/GPa) = 0.10235088
#
# Stress axis : x y z
#
# Youngs Moduli (GPa) = 143.88368 8.30106 73.05558
#
# Poissons Ratio (x) = 0.06258 0.13055
# Poissons Ratio (y) = 1.08466 0.73432
# Poissons Ratio (z) = 0.25711 0.08344
#
# Static dielectric constant tensor:
#      x y z
#    x 2.203480 0.000000 0.039030 
#    y 0.000000 2.070420 0.000000 
#    z 0.039030 0.000000 1.994820 
# 
# From -- ./inp_files/9109.got.cif
#   From: 2010.05.17/outbox.cif.g08.bks.cpg/sg15_5_cif.got.tgz:9109.got - 2010.06.03 18:47:42.
