data_PCOD9280323
_publ_section_title
;
Structure prediction by ZEFSAII (Michael W. Deem and Ramdas Pophale) SiO2 
 PCOD9280323
Probable space group: C 2/C
;
_chemical_formula_sum "Si O2"
_cell_formula_units_Z 48
_cell_length_a 18.041399
_cell_length_b 5.017245
_cell_length_c 25.991338
_cell_angle_alpha 90.000000
_cell_angle_beta 79.984306
_cell_angle_gamma 90.000000
_cell_volume 2316.832431
_symmetry_space_group_name_H-M "C 2/C"
_symmetry_group_IT_number 15
_symmetry_cell_setting 'monoclinic'
loop_
_space_group_symop_operation_xyz
x,y,z
-x,y,1/2-z
-x,-y,-z
x,-y,1/2+z
1/2+x,1/2+y,z
1/2-x,1/2+y,1/2-z
1/2-x,1/2-y,-z
1/2+x,1/2-y,1/2+z
loop_
_atom_site_type_symbol
_atom_site_label
_atom_site_fract_x
_atom_site_fract_y
_atom_site_fract_z
Si Si1 0.260847 0.675817 0.583497
Si Si2 0.900818 0.669199 0.118862
Si Si3 0.335462 0.174274 0.542718
Si Si4 0.090805 0.289415 0.132406
Si Si5 0.515803 0.734712 0.689284
Si Si6 0.036407 0.356602 0.543734
O O1 0.320824 0.689519 0.623516
O O2 0.269768 0.381462 0.560958
O O3 0.178659 0.753000 0.611326
O O4 0.297963 0.885410 0.539137
O O5 0.882588 0.392972 0.089971
O O6 0.966671 0.805521 0.075971
O O7 0.939461 0.667418 0.169450
O O8 0.389159 0.269502 0.490095
O O9 0.059100 0.429802 0.084437
O O10 0.050706 0.019327 0.155311
O O11 0.073387 0.518536 0.176500
O O12 0.500000 0.668448 0.750000
O O13 0.000000 0.500000 0.500000
#
# Coordination Sequence:
#
# PCOD9280323 Si02
#       6
#     8   8   8   8   8   8
#     4  10  21  37  58  87 127 156 191 243 301 347
#     4   8  21  37  61  85 119 155 200 247 284 348
#     4   9  20  34  59  86 123 159 200 225 292 348
#     4  11  24  41  61  90 126 150 198 257 301 355
#     4  11  24  43  66  88 112 156 204 252 309 359
#     4   9  19  37  57  92 119 167 201 239 282 357
#
# _framework density 20.717941
#
# number of rings (size 3 to 8) (size 9 to 14) (size 15 to 20)
#    1.000    1.333    0.000    1.500    7.000    4.667 
#    0.000    1.667    0.000    0.000    0.000    0.000 
#    0.000    0.000    0.000    0.000    0.000    0.000 
#
# Total GULP energy -133633.040498 kJ/mol
# GULP energy per Si atom -5568.043354 kJ/mol
# Density = 2.067079 g / cm^3
# Si number density = 20.717941 Si / 1000 Ang^3
#
#
#
# Elastic Constant Matrix: (Units=GPa)
#
#
# Indices 1 2 3 4 5 6 
#
# 1 121.3021 15.6429 43.8601 0.0000 -4.7124 0.0000
# 2 15.6429 81.4966 2.6209 0.0000 -5.9853 0.0000
# 3 43.8601 2.6209 75.2721 0.0000 6.7984 0.0000
# 4 0.0000 0.0000 0.0000 25.9658 0.0000 -9.3093
# 5 -4.7124 -5.9853 6.7984 0.0000 23.5125 0.0000
# 6 0.0000 0.0000 0.0000 -9.3093 0.0000 23.2150
#
#
#
# Elastic Compliance Matrix: (Units=1/GPa)
#
#
# Indices 1 2 3 4 5 6 
#
# 1 0.011022 -0.001626 -0.006703 0.000000 0.003733 0.000000
# 2 -0.001626 0.012785 0.000244 0.000000 0.002858 0.000000
# 3 -0.006703 0.000244 0.017762 0.000000 -0.006417 0.000000
# 4 0.000000 0.000000 0.000000 0.044979 0.000000 0.018037
# 5 0.003733 0.002858 -0.006417 0.000000 0.045862 0.000000
# 6 0.000000 0.000000 0.000000 0.018037 0.000000 0.050308
#
#
# Mechanical properties :
#
#
# Convention : Reuss Voigt Hill
#
# Bulk Modulus (GPa) = 39.37149 44.70206 42.03678
# Shear Modulus (GPa) = 24.11335 28.93511 26.52423
#
# Velocity S-wave (km/s) = 3.41528 3.74119 3.58195
# Velocity P-wave (km/s) = 5.88192 6.34708 6.11892
#
# Compressibility (1/GPa) = 0.02539909
#
# Stress axis : x y z
#
# Youngs Moduli (GPa) = 90.72521 78.21925 56.29982
#
# Poissons Ratio (x) = 0.12718 0.37739
# Poissons Ratio (y) = 0.14751 -0.01375
# Poissons Ratio (z) = 0.60814 -0.01910
#
# Static dielectric constant tensor:
#      x y z
#    x 1.811940 0.000000 0.028830 
#    y 0.000000 1.773040 0.000000 
#    z 0.028830 0.000000 1.755440 
# 
# From -- ./inp_files/275845.got.cif
#   From: 2010.05.17/outbox.cif.g08.bks.cpg/sg15_138_cif.got.tgz:275845.got - 2010.06.03 18:47:42.
