data_PCOD9280707
_publ_section_title
;
Structure prediction by ZEFSAII (Michael W. Deem and Ramdas Pophale) SiO2 
 PCOD9280707
Probable space group: C 2/C
;
_chemical_formula_sum "Si O2"
_cell_formula_units_Z 44
_cell_length_a 7.035149
_cell_length_b 20.019065
_cell_length_c 15.206478
_cell_angle_alpha 90.000000
_cell_angle_beta 114.174042
_cell_angle_gamma 90.000000
_cell_volume 1953.827125
_symmetry_space_group_name_H-M "C 2/C"
_symmetry_group_IT_number 15
_symmetry_cell_setting 'monoclinic'
loop_
_space_group_symop_operation_xyz
x,y,z
-x,y,1/2-z
-x,-y,-z
x,-y,1/2+z
1/2+x,1/2+y,z
1/2-x,1/2+y,1/2-z
1/2-x,1/2-y,-z
1/2+x,1/2-y,1/2+z
loop_
_atom_site_type_symbol
_atom_site_label
_atom_site_fract_x
_atom_site_fract_y
_atom_site_fract_z
Si Si1 0.000000 0.131476 0.250000
Si Si2 0.110857 0.413303 0.030456
Si Si3 0.179970 0.593273 0.857807
Si Si4 0.454831 0.160929 0.341861
Si Si5 0.477856 0.498015 0.645273
Si Si6 0.526880 0.308628 0.360414
O O1 0.207677 0.172603 0.298870
O O2 0.990626 0.080419 0.331526
O O3 0.252063 0.479331 0.068823
O O4 0.279031 0.354612 0.078610
O O5 0.935806 0.406904 0.071493
O O6 0.018360 0.399003 0.917331
O O7 0.341117 0.531755 0.876813
O O8 0.324139 0.658057 0.867082
O O9 0.000000 0.588484 0.750000
O O10 0.500000 0.143819 0.250000
O O11 0.557402 0.230921 0.387779
O O12 0.500000 0.526278 0.750000
O O13 0.500000 0.311001 0.250000
#
# Coordination Sequence:
#
# PCOD9280707 Si02
#       6
#     4   8   8   8   8   8
#     4  10  24  44  62  90 130 174 214 252 312 382
#     4  11  21  39  66  95 118 165 213 261 318 365
#     4  11  17  33  67  95 120 154 200 271 315 354
#     4  11  27  43  59  84 135 175 207 255 315 377
#     4   9  20  39  62  93 122 148 214 264 300 371
#     4  10  21  37  62  96 127 158 206 261 313 383
#
# _framework density 22.519904
#
# number of rings (size 3 to 8) (size 9 to 14) (size 15 to 20)
#    0.545    1.091    3.636    1.636    1.273    6.545 
#    0.000    1.818    0.000    0.000    0.000    0.000 
#    0.000    0.000    0.000    0.000    0.000    0.000 
#
# Total GULP energy -123065.258046 kJ/mol
# GULP energy per Si atom -5593.875366 kJ/mol
# Density = 2.246865 g / cm^3
# Si number density = 22.519904 Si / 1000 Ang^3
#
#
#
# Elastic Constant Matrix: (Units=GPa)
#
#
# Indices 1 2 3 4 5 6 
#
# 1 137.4966 18.8131 48.8525 0.0000 -19.5978 0.0000
# 2 18.8131 71.3807 30.3355 0.0000 -15.5518 0.0000
# 3 48.8525 30.3355 92.3717 0.0000 -6.4802 0.0000
# 4 0.0000 0.0000 0.0000 97.2890 0.0000 -18.2966
# 5 -19.5978 -15.5518 -6.4802 0.0000 21.2714 0.0000
# 6 0.0000 0.0000 0.0000 -18.2966 0.0000 28.1779
#
#
#
# Elastic Compliance Matrix: (Units=1/GPa)
#
#
# Indices 1 2 3 4 5 6 
#
# 1 0.010205 0.001481 -0.005261 0.000000 0.008883 0.000000
# 2 0.001481 0.019168 -0.006130 0.000000 0.013511 0.000000
# 3 -0.005261 -0.006130 0.015294 0.000000 -0.004670 0.000000
# 4 0.000000 0.000000 0.000000 0.011708 0.000000 0.007603
# 5 0.008883 0.013511 -0.004670 0.000000 0.063651 0.000000
# 6 0.000000 0.000000 0.000000 0.007603 0.000000 0.040425
#
#
# Mechanical properties :
#
#
# Convention : Reuss Voigt Hill
#
# Bulk Modulus (GPa) = 40.24557 55.25013 47.74785
# Shear Modulus (GPa) = 26.51765 42.89752 34.70758
#
# Velocity S-wave (km/s) = 3.43522 4.36922 3.93007
# Velocity P-wave (km/s) = 5.80037 7.07394 6.46857
#
# Compressibility (1/GPa) = 0.02484745
#
# Stress axis : x y z
#
# Youngs Moduli (GPa) = 97.98713 52.17045 65.38654
#
# Poissons Ratio (x) = -0.07728 0.34397
# Poissons Ratio (y) = -0.14514 0.40085
# Poissons Ratio (z) = 0.51547 0.31983
#
# Static dielectric constant tensor:
#      x y z
#    x 1.817340 0.000000 -0.012070 
#    y 0.000000 1.840880 0.000000 
#    z -0.012070 0.000000 1.835330 
# 
# From -- ./inp_files/129477.got.cif
#   From: 2010.05.17/outbox.cif.g08.bks.cpg/sg15_65_cif.got.tgz:129477.got - 2010.06.03 18:47:42.
