data_PCOD9280577
_publ_section_title
;
Structure prediction by ZEFSAII (Michael W. Deem and Ramdas Pophale) SiO2 
 PCOD9280577
Probable space group: C 2/C
;
_chemical_formula_sum "Si O2"
_cell_formula_units_Z 40
_cell_length_a 16.460263
_cell_length_b 18.394334
_cell_length_c 10.285984
_cell_angle_alpha 90.000000
_cell_angle_beta 40.485032
_cell_angle_gamma 90.000000
_cell_volume 2021.986372
_symmetry_space_group_name_H-M "C 2/C"
_symmetry_group_IT_number 15
_symmetry_cell_setting 'monoclinic'
loop_
_space_group_symop_operation_xyz
x,y,z
-x,y,1/2-z
-x,-y,-z
x,-y,1/2+z
1/2+x,1/2+y,z
1/2-x,1/2+y,1/2-z
1/2-x,1/2-y,-z
1/2+x,1/2-y,1/2+z
loop_
_atom_site_type_symbol
_atom_site_label
_atom_site_fract_x
_atom_site_fract_y
_atom_site_fract_z
Si Si1 0.266826 0.293682 0.659529
Si Si2 0.065610 0.917163 0.032817
Si Si3 0.143270 0.782918 0.535119
Si Si4 0.671828 0.568397 0.864584
Si Si5 0.641988 0.144624 0.052537
O O1 0.352224 0.352433 0.624825
O O2 0.160084 0.260019 0.878512
O O3 0.352123 0.224354 0.520821
O O4 0.214367 0.336599 0.598258
O O5 0.000000 0.898425 0.250000
O O6 0.952417 0.926376 0.071501
O O7 0.154929 0.987525 0.941371
O O8 0.250000 0.750000 0.500000
O O9 0.169674 0.868029 0.474232
O O10 0.000000 0.774152 0.750000
O O11 0.785168 0.588054 0.628685
O O12 0.500000 0.122402 0.250000
#
# Coordination Sequence:
#
# PCOD9280577 Si02
#       5
#     8   8   8   8   8
#     4  10  22  36  63  89 116 158 204 246 305 362
#     4  11  20  39  64  95 120 155 206 257 313 362
#     4  11  24  41  61  90 127 166 207 259 311 372
#     4  10  23  38  64  91 123 159 203 257 306 369
#     4  10  21  37  61  90 121 154 200 254 299 365
#
# _framework density 19.782526000000001
#
# number of rings (size 3 to 8) (size 9 to 14) (size 15 to 20)
#    0.000    1.600    2.000    2.400   11.200    1.600 
#    0.000    2.000    0.000    0.000    0.000    0.000 
#    0.000    0.000    0.000    0.000    0.000    0.000 
#
# Total GULP energy -111584.190844 kJ/mol
# GULP energy per Si atom -5579.209542 kJ/mol
# Density = 1.973750 g / cm^3
# Si number density = 19.782526 Si / 1000 Ang^3
#
#
#
# Elastic Constant Matrix: (Units=GPa)
#
#
# Indices 1 2 3 4 5 6 
#
# 1 27.5890 13.4227 4.8231 0.0000 -6.3195 0.0000
# 2 13.4227 75.0329 56.2882 0.0000 -10.2829 0.0000
# 3 4.8231 56.2882 150.7475 0.0000 -19.1540 0.0000
# 4 0.0000 0.0000 0.0000 11.5395 0.0000 2.4737
# 5 -6.3195 -10.2829 -19.1540 0.0000 26.1742 0.0000
# 6 0.0000 0.0000 0.0000 2.4737 0.0000 24.5788
#
#
#
# Elastic Compliance Matrix: (Units=1/GPa)
#
#
# Indices 1 2 3 4 5 6 
#
# 1 0.041913 -0.008499 0.002970 0.000000 0.008954 0.000000
# 2 -0.008499 0.020379 -0.007256 0.000000 0.000645 0.000000
# 3 0.002970 -0.007256 0.009897 0.000000 0.005109 0.000000
# 4 0.000000 0.000000 0.000000 0.088570 0.000000 -0.008914
# 5 0.008954 0.000645 0.005109 0.000000 0.044359 0.000000
# 6 0.000000 0.000000 0.000000 -0.008914 0.000000 0.041583
#
#
# Mechanical properties :
#
#
# Convention : Reuss Voigt Hill
#
# Bulk Modulus (GPa) = 21.44983 44.71526 33.08255
# Shear Modulus (GPa) = 17.37255 24.38085 20.87670
#
# Velocity S-wave (km/s) = 2.96662 3.51443 3.25208
# Velocity P-wave (km/s) = 4.75403 6.25466 5.55525
#
# Compressibility (1/GPa) = 0.04662042
#
# Stress axis : x y z
#
# Youngs Moduli (GPa) = 23.85895 49.06940 101.04099
#
# Poissons Ratio (x) = 0.41704 -0.30011
# Poissons Ratio (y) = 0.20277 0.73312
# Poissons Ratio (z) = -0.07086 0.35603
#
# Static dielectric constant tensor:
#      x y z
#    x 1.739210 0.000000 0.031090 
#    y 0.000000 1.706410 0.000000 
#    z 0.031090 0.000000 1.700400 
# 
# From -- ./inp_files/106805.got.cif
#   From: 2010.05.17/outbox.cif.g08.bks.cpg/sg15_54_cif.got.tgz:106805.got - 2010.06.03 18:47:42.
