data_PCOD9280856
_publ_section_title
;
Structure prediction by ZEFSAII (Michael W. Deem and Ramdas Pophale) SiO2 
 PCOD9280856
Probable space group: C 2/C
;
_chemical_formula_sum "Si O2"
_cell_formula_units_Z 48
_cell_length_a 19.307497
_cell_length_b 19.687147
_cell_length_c 12.919082
_cell_angle_alpha 90.000000
_cell_angle_beta 148.846980
_cell_angle_gamma 90.000000
_cell_volume 2540.412726
_symmetry_space_group_name_H-M "C 2/C"
_symmetry_group_IT_number 15
_symmetry_cell_setting 'monoclinic'
loop_
_space_group_symop_operation_xyz
x,y,z
-x,y,1/2-z
-x,-y,-z
x,-y,1/2+z
1/2+x,1/2+y,z
1/2-x,1/2+y,1/2-z
1/2-x,1/2-y,-z
1/2+x,1/2-y,1/2+z
loop_
_atom_site_type_symbol
_atom_site_label
_atom_site_fract_x
_atom_site_fract_y
_atom_site_fract_z
Si Si1 0.000000 0.882610 0.750000
Si Si2 0.076473 0.664950 0.545631
Si Si3 0.298542 0.070289 0.636177
Si Si4 0.500000 0.842280 0.250000
Si Si5 0.753056 0.194860 0.593251
Si Si6 0.378827 0.920420 0.679579
Si Si7 0.037245 0.766499 0.961315
O O1 0.860499 0.922269 0.580937
O O2 0.994724 0.832665 0.644595
O O3 0.166898 0.605120 0.709005
O O4 0.120501 0.695514 0.493509
O O5 0.935159 0.629179 0.341717
O O6 0.080886 0.726366 0.631928
O O7 0.392064 0.112222 0.674152
O O8 0.340562 0.992445 0.677707
O O9 0.422622 0.791711 0.071234
O O10 0.750000 0.250000 0.500000
O O11 0.743563 0.119675 0.531277
O O12 0.865235 0.212248 0.821071
O O13 0.500000 0.929863 0.750000
#
# Coordination Sequence:
#
# PCOD9280856 Si02
#       7
#     4   8   8   4   8   8   8
#     4  11  24  38  64  90 135 160 200 260 319 366
#     4  10  21  37  65  88 120 165 207 257 303 368
#     4  11  21  41  61  92 124 164 209 253 308 367
#     4   9  22  36  66  90 123 162 214 256 301 366
#     4  11  21  38  60  93 124 153 205 257 312 363
#     4  10  21  38  62  88 120 161 211 257 299 365
#     4  10  21  38  59  92 123 163 201 256 314 365
#
# _framework density 18.894566999999999
#
# number of rings (size 3 to 8) (size 9 to 14) (size 15 to 20)
#    0.000    1.667    4.167    0.500    2.333    2.000 
#    0.000    2.500    0.000    0.000    0.000    0.000 
#    0.000    0.000    0.000    0.000    0.000    0.000 
#
# Total GULP energy -133625.567326 kJ/mol
# GULP energy per Si atom -5567.731972 kJ/mol
# Density = 1.885156 g / cm^3
# Si number density = 18.894567 Si / 1000 Ang^3
#
#
#
# Elastic Constant Matrix: (Units=GPa)
#
#
# Indices 1 2 3 4 5 6 
#
# 1 79.6265 39.2097 23.1305 0.0000 -9.2025 0.0000
# 2 39.2097 95.4566 37.5967 0.0000 3.4593 0.0000
# 3 23.1305 37.5967 99.9830 0.0000 -12.9740 0.0000
# 4 0.0000 0.0000 0.0000 106.0434 0.0000 76.9638
# 5 -9.2025 3.4593 -12.9740 0.0000 31.6142 0.0000
# 6 0.0000 0.0000 0.0000 76.9638 0.0000 97.9752
#
#
#
# Elastic Compliance Matrix: (Units=1/GPa)
#
#
# Indices 1 2 3 4 5 6 
#
# 1 0.016713 -0.006821 -0.000606 0.000000 0.005363 0.000000
# 2 -0.006821 0.015442 -0.004970 0.000000 -0.005715 0.000000
# 3 -0.000606 -0.004970 0.012737 0.000000 0.005595 0.000000
# 4 0.000000 0.000000 0.000000 0.021937 0.000000 -0.017233
# 5 0.005363 -0.005715 0.005595 0.000000 0.036114 0.000000
# 6 0.000000 0.000000 0.000000 -0.017233 0.000000 0.023744
#
#
# Mechanical properties :
#
#
# Convention : Reuss Voigt Hill
#
# Bulk Modulus (GPa) = 49.75542 52.77107 51.26325
# Shear Modulus (GPa) = 31.60947 58.80182 45.20564
#
# Velocity S-wave (km/s) = 4.09460 5.58467 4.89665
# Velocity P-wave (km/s) = 6.98174 8.34114 7.69153
#
# Compressibility (1/GPa) = 0.02009831
#
# Stress axis : x y z
#
# Youngs Moduli (GPa) = 59.83335 64.75644 78.51223
#
# Poissons Ratio (x) = 0.44169 0.04756
# Poissons Ratio (y) = 0.40811 0.39024
# Poissons Ratio (z) = 0.03624 0.32187
#
# Static dielectric constant tensor:
#      x y z
#    x 1.713750 0.000000 0.000480 
#    y 0.000000 1.640720 0.000000 
#    z 0.000480 0.000000 1.703610 
# 
# From -- ./inp_files/168921.got.cif
#   From: 2010.05.17/outbox.cif.g08.bks.cpg/sg15_85_cif.got.tgz:168921.got - 2010.06.03 18:47:42.
