data_PCOD9280899
_publ_section_title
;
Structure prediction by ZEFSAII (Michael W. Deem and Ramdas Pophale) SiO2 
 PCOD9280899
Probable space group: C 2/C
;
_chemical_formula_sum "Si O2"
_cell_formula_units_Z 28
_cell_length_a 11.317391
_cell_length_b 20.893892
_cell_length_c 5.413140
_cell_angle_alpha 90.000000
_cell_angle_beta 58.053592
_cell_angle_gamma 90.000000
_cell_volume 1086.147931
_symmetry_space_group_name_H-M "C 2/C"
_symmetry_group_IT_number 15
_symmetry_cell_setting 'monoclinic'
loop_
_space_group_symop_operation_xyz
x,y,z
-x,y,1/2-z
-x,-y,-z
x,-y,1/2+z
1/2+x,1/2+y,z
1/2-x,1/2+y,1/2-z
1/2-x,1/2-y,-z
1/2+x,1/2-y,1/2+z
loop_
_atom_site_type_symbol
_atom_site_label
_atom_site_fract_x
_atom_site_fract_y
_atom_site_fract_z
Si Si1 0.500000 0.421379 0.250000
Si Si2 0.820821 0.150776 0.363227
Si Si3 0.734029 0.016195 0.586002
Si Si4 0.122745 0.735193 0.316041
O O1 0.434708 0.374345 0.534958
O O2 0.371172 0.471897 0.380123
O O3 0.783655 0.088853 0.563234
O O4 0.869249 0.210102 0.479804
O O5 0.675447 0.171576 0.395563
O O6 0.658847 0.989495 0.907605
O O7 0.000000 0.730103 0.250000
O O8 0.250000 0.750000 0.000000
#
# Coordination Sequence:
#
# PCOD9280899 Si02
#       4
#     4   8   8   8
#     4  10  22  42  72 116 148 194 242 326 390 442
#     4  10  24  45  70 106 158 188 252 317 379 451
#     4  10  21  37  66 110 146 189 239 315 393 440
#     4  11  28  48  73 104 145 211 257 310 377 448
#
# _framework density 25.779176
#
# number of rings (size 3 to 8) (size 9 to 14) (size 15 to 20)
#    0.000    1.714    0.000    3.429   10.000    9.143 
#    0.000    0.000    0.000    6.857    0.000    0.000 
#    0.000    0.000    0.000    0.000    0.000    0.000 
#
# Total GULP energy -78125.369205 kJ/mol
# GULP energy per Si atom -5580.383515 kJ/mol
# Density = 2.572050 g / cm^3
# Si number density = 25.779176 Si / 1000 Ang^3
#
#
#
# Elastic Constant Matrix: (Units=GPa)
#
#
# Indices 1 2 3 4 5 6 
#
# 1 176.5829 45.4234 24.7182 0.0000 31.6748 0.0000
# 2 45.4234 163.1778 34.9732 0.0000 21.7922 0.0000
# 3 24.7182 34.9732 116.2915 0.0000 18.0747 0.0000
# 4 0.0000 0.0000 0.0000 56.1399 0.0000 16.3154
# 5 31.6748 21.7922 18.0747 0.0000 36.3037 0.0000
# 6 0.0000 0.0000 0.0000 16.3154 0.0000 33.4217
#
#
#
# Elastic Compliance Matrix: (Units=1/GPa)
#
#
# Indices 1 2 3 4 5 6 
#
# 1 0.006940 -0.001170 -0.000316 0.000000 -0.005196 0.000000
# 2 -0.001170 0.007110 -0.001501 0.000000 -0.002499 0.000000
# 3 -0.000316 -0.001501 0.009684 0.000000 -0.003645 0.000000
# 4 0.000000 0.000000 0.000000 0.020758 0.000000 -0.010133
# 5 -0.005196 -0.002499 -0.003645 0.000000 0.035394 0.000000
# 6 0.000000 0.000000 0.000000 -0.010133 0.000000 0.034867
#
#
# Mechanical properties :
#
#
# Convention : Reuss Voigt Hill
#
# Bulk Modulus (GPa) = 56.30630 74.03131 65.16880
# Shear Modulus (GPa) = 39.47997 48.56888 44.02443
#
# Velocity S-wave (km/s) = 3.91764 4.34526 4.13698
# Velocity P-wave (km/s) = 6.50793 7.34540 6.93931
#
# Compressibility (1/GPa) = 0.01776000
#
# Stress axis : x y z
#
# Youngs Moduli (GPa) = 144.08596 140.65600 103.26218
#
# Poissons Ratio (x) = 0.16463 0.03260
# Poissons Ratio (y) = 0.16864 0.15498
# Poissons Ratio (z) = 0.04548 0.21111
#
# Static dielectric constant tensor:
#      x y z
#    x 2.026020 0.000000 0.104550 
#    y 0.000000 2.247590 0.000000 
#    z 0.104550 0.000000 2.040840 
# 
# From -- ./inp_files/3502.got.cif
#   From: 2010.05.17/outbox.cif.g08.bks.cpg/sg15_2_cif.got.tgz:3502.got - 2010.06.03 18:47:42.
