data_PCOD9280410
_publ_section_title
;
Structure prediction by ZEFSAII (Michael W. Deem and Ramdas Pophale) SiO2 
 PCOD9280410
Probable space group: C 2/C
;
_chemical_formula_sum "Si O2"
_cell_formula_units_Z 44
_cell_length_a 27.068762
_cell_length_b 4.989326
_cell_length_c 17.362257
_cell_angle_alpha 90.000000
_cell_angle_beta 121.014038
_cell_angle_gamma 90.000000
_cell_volume 2009.639219
_symmetry_space_group_name_H-M "C 2/C"
_symmetry_group_IT_number 15
_symmetry_cell_setting 'monoclinic'
loop_
_space_group_symop_operation_xyz
x,y,z
-x,y,1/2-z
-x,-y,-z
x,-y,1/2+z
1/2+x,1/2+y,z
1/2-x,1/2+y,1/2-z
1/2-x,1/2-y,-z
1/2+x,1/2-y,1/2+z
loop_
_atom_site_type_symbol
_atom_site_label
_atom_site_fract_x
_atom_site_fract_y
_atom_site_fract_z
Si Si1 0.322493 0.997492 0.523196
Si Si2 0.810826 0.001753 0.612329
Si Si3 0.440795 0.066450 0.056882
Si Si4 0.403685 0.265933 0.792174
Si Si5 0.500000 0.807167 0.250000
Si Si6 0.552808 0.263296 0.090177
O O1 0.327485 0.802676 0.601715
O O2 0.258336 0.984776 0.437364
O O3 0.328046 0.303892 0.555487
O O4 0.372874 0.894668 0.508790
O O5 0.843207 0.863249 0.709023
O O6 0.462274 0.972746 0.158201
O O7 0.487565 0.284154 0.069237
O O8 0.448700 0.844232 0.997233
O O9 0.451646 0.333652 0.764404
O O10 0.416182 0.458064 0.873665
O O11 0.415642 0.964325 0.831015
#
# Coordination Sequence:
#
# PCOD9280410 Si02
#       6
#     8   8   8   8   4   8
#     4  10  21  37  61  85 119 150 194 249 288 336
#     4  10  21  37  59  90 115 149 197 248 287 336
#     4  10  22  42  58  92 116 163 191 245 292 360
#     4  11  22  40  58  91 118 158 192 250 283 361
#     4  10  22  34  66  88 114 156 204 244 286 348
#     4  10  25  38  60  84 132 151 191 237 310 344
#
# _framework density 21.894477999999999
#
# number of rings (size 3 to 8) (size 9 to 14) (size 15 to 20)
#    0.000    1.818    1.818    1.091    5.091    8.727 
#    0.000    1.818    0.000    0.000    0.000    0.000 
#    0.000    0.000    0.000    0.000    0.000    0.000 
#
# Total GULP energy -122779.034509 kJ/mol
# GULP energy per Si atom -5580.865205 kJ/mol
# Density = 2.184465 g / cm^3
# Si number density = 21.894478 Si / 1000 Ang^3
#
#
#
# Elastic Constant Matrix: (Units=GPa)
#
#
# Indices 1 2 3 4 5 6 
#
# 1 83.9286 11.5078 23.8146 0.0000 16.8683 0.0000
# 2 11.5078 75.3088 14.2754 -0.0002 11.8134 0.0001
# 3 23.8146 14.2754 99.4667 0.0000 6.3494 0.0000
# 4 0.0000 -0.0002 0.0000 25.6742 0.0000 10.2938
# 5 16.8683 11.8134 6.3494 0.0000 29.4924 0.0000
# 6 0.0000 0.0001 0.0000 10.2938 0.0000 -2.2288
#
#
#
# Elastic Compliance Matrix: (Units=1/GPa)
#
#
# Indices 1 2 3 4 5 6 
#
# 1 0.014276 -0.000482 -0.002879 0.000000 -0.007352 0.000000
# 2 -0.000482 0.014473 -0.001632 0.000000 -0.005170 0.000000
# 3 -0.002879 -0.001632 0.010981 0.000000 -0.000064 0.000000
# 4 0.000000 0.000000 0.000000 0.013658 0.000000 0.063080
# 5 -0.007352 -0.005170 -0.000064 0.000000 0.040197 0.000000
# 6 0.000000 0.000000 0.000000 0.063080 0.000000 -0.157331
#
#
# Mechanical properties :
#
#
# Convention : Reuss Voigt Hill
#
# Bulk Modulus (GPa) = 33.62152 39.76663 36.69407
# Shear Modulus (GPa) = -114.03515 24.52799 -44.75358
#
# Velocity S-wave (km/s) = -7.22475 3.35069 -4.52603
# Velocity P-wave (km/s) = 7.36251 5.75950 3.24305
#
# Compressibility (1/GPa) = 0.02974285
#
# Stress axis : x y z
#
# Youngs Moduli (GPa) = 70.04924 69.09596 91.06443
#
# Poissons Ratio (x) = 0.03333 0.26221
# Poissons Ratio (y) = 0.03379 0.14858
# Poissons Ratio (z) = 0.20170 0.11274
#
# Static dielectric constant tensor:
#      x y z
#    x 1.808590 0.000000 0.010420 
#    y 0.000000 1.797350 0.000000 
#    z 0.010420 0.000000 1.820090 
# 
# From -- ./inp_files/175526.got.cif
#   From: 2010.05.17/outbox.cif.g08.bks.cpg/sg15_88_cif.got.tgz:175526.got - 2010.06.03 18:47:42.
