data_PCOD9280979
_publ_section_title
;
Structure prediction by ZEFSAII (Michael W. Deem and Ramdas Pophale) SiO2 
 PCOD9280979
Probable space group: C 2/C
;
_chemical_formula_sum "Si O2"
_cell_formula_units_Z 48
_cell_length_a 22.486117
_cell_length_b 8.818121
_cell_length_c 22.559184
_cell_angle_alpha 90.000000
_cell_angle_beta 158.585445
_cell_angle_gamma 90.000000
_cell_volume 1633.208190
_symmetry_space_group_name_H-M "C 2/C"
_symmetry_group_IT_number 15
_symmetry_cell_setting 'monoclinic'
loop_
_space_group_symop_operation_xyz
x,y,z
-x,y,1/2-z
-x,-y,-z
x,-y,1/2+z
1/2+x,1/2+y,z
1/2-x,1/2+y,1/2-z
1/2-x,1/2-y,-z
1/2+x,1/2-y,1/2+z
loop_
_atom_site_type_symbol
_atom_site_label
_atom_site_fract_x
_atom_site_fract_y
_atom_site_fract_z
Si Si1 0.692129 0.569182 0.415656
Si Si2 0.107692 0.257378 0.798726
Si Si3 0.229280 0.415692 0.381845
Si Si4 0.657147 0.179047 0.184405
Si Si5 0.459995 0.406517 0.046797
Si Si6 0.568039 0.913933 0.472308
O O1 0.500000 0.601275 0.250000
O O2 0.693856 0.384600 0.410099
O O3 0.779027 0.623589 0.556963
O O4 0.790314 0.604907 0.446350
O O5 0.202077 0.399124 0.859685
O O6 0.000000 0.328358 0.750000
O O7 0.005085 0.179135 0.651116
O O8 0.327822 0.638436 0.373272
O O9 0.408281 0.425254 0.519332
O O10 0.090260 0.356105 0.210573
O O11 0.508940 0.077939 0.076907
O O12 0.626263 0.357410 0.168384
O O13 0.637278 0.151236 0.096950
#
# Coordination Sequence:
#
# PCOD9280979 Si02
#       6
#     8   8   8   8   8   8
#     4  11  21  32  54  85 116 145 181 230 278 329
#     4  11  19  27  48  81 117 143 177 219 267 332
#     4  11  20  31  53  83 112 148 178 223 282 332
#     4  10  23  36  55  76 113 157 191 222 262 337
#     4  11  19  34  52  79 110 149 191 218 266 326
#     4  10  21  38  51  77 118 154 183 218 283 335
#
# _framework density 29.390008000000002
#
# number of rings (size 3 to 8) (size 9 to 14) (size 15 to 20)
#    0.000    1.333    6.667    3.000    0.000    0.000 
#    0.000    2.500    0.000    0.000    0.000    8.167 
#    0.000    0.000    0.000    0.000    0.000    0.000 
#
# Total GULP energy -134097.666219 kJ/mol
# GULP energy per Si atom -5587.402759 kJ/mol
# Density = 2.932312 g / cm^3
# Si number density = 29.390008 Si / 1000 Ang^3
#
#
#
# Elastic Constant Matrix: (Units=GPa)
#
#
# Indices 1 2 3 4 5 6 
#
# 1 184.6554 43.9304 70.2870 0.0006 -45.9889 0.0007
# 2 43.9304 79.0727 55.3936 -0.0003 -10.6847 0.0002
# 3 70.2870 55.3936 179.5661 -0.0018 -34.5307 0.0004
# 4 0.0006 -0.0003 -0.0018 50.8187 -0.0005 5.9553
# 5 -45.9889 -10.6847 -34.5307 -0.0005 56.5184 0.0002
# 6 0.0007 0.0002 0.0004 5.9553 0.0002 62.8602
#
#
#
# Elastic Compliance Matrix: (Units=1/GPa)
#
#
# Indices 1 2 3 4 5 6 
#
# 1 0.007811 -0.002801 -0.001216 0.000000 0.005083 0.000000
# 2 -0.002801 0.017137 -0.004539 0.000000 -0.001812 0.000000
# 3 -0.001216 -0.004539 0.008034 0.000000 0.003061 0.000000
# 4 0.000000 0.000000 0.000000 0.019899 0.000000 -0.001885
# 5 0.005083 -0.001812 0.003061 0.000000 0.023357 0.000000
# 6 0.000000 0.000000 0.000000 -0.001885 0.000000 0.016087
#
#
# Mechanical properties :
#
#
# Convention : Reuss Voigt Hill
#
# Bulk Modulus (GPa) = 63.00863 86.94624 74.97743
# Shear Modulus (GPa) = 43.58241 52.28503 47.93372
#
# Velocity S-wave (km/s) = 3.85502 4.22240 4.04289
# Velocity P-wave (km/s) = 6.42653 7.30886 6.88185
#
# Compressibility (1/GPa) = 0.01587084
#
# Stress axis : x y z
#
# Youngs Moduli (GPa) = 128.03204 58.35205 124.47633
#
# Poissons Ratio (x) = 0.16343 0.15133
# Poissons Ratio (y) = 0.35858 0.56498
# Poissons Ratio (z) = 0.15566 0.26485
#
# Static dielectric constant tensor:
#      x y z
#    x 2.985330 0.000000 0.439210 
#    y 0.000000 2.673610 0.000000 
#    z 0.439210 0.000000 2.386050 
# 
# From -- ./inp_files/211633.got.cif
#   From: 2010.05.17/outbox.cif.g08.bks.cpg/sg15_106_cif.got.tgz:211633.got - 2010.06.03 18:47:42.
