data_PCOD9280414
_publ_section_title
;
Structure prediction by ZEFSAII (Michael W. Deem and Ramdas Pophale) SiO2 
 PCOD9280414
Probable space group: C 2/C
;
_chemical_formula_sum "Si O2"
_cell_formula_units_Z 48
_cell_length_a 8.699251
_cell_length_b 11.070330
_cell_length_c 25.115463
_cell_angle_alpha 90.000000
_cell_angle_beta 64.752068
_cell_angle_gamma 90.000000
_cell_volume 2187.651023
_symmetry_space_group_name_H-M "C 2/C"
_symmetry_group_IT_number 15
_symmetry_cell_setting 'monoclinic'
loop_
_space_group_symop_operation_xyz
x,y,z
-x,y,1/2-z
-x,-y,-z
x,-y,1/2+z
1/2+x,1/2+y,z
1/2-x,1/2+y,1/2-z
1/2-x,1/2-y,-z
1/2+x,1/2-y,1/2+z
loop_
_atom_site_type_symbol
_atom_site_label
_atom_site_fract_x
_atom_site_fract_y
_atom_site_fract_z
Si Si1 0.149671 0.397747 0.479740
Si Si2 0.163264 0.545854 0.093539
Si Si3 0.964632 0.712592 0.912424
Si Si4 0.970635 0.964391 0.942025
Si Si5 0.628606 0.077613 0.280217
Si Si6 0.352859 0.189475 0.727693
O O1 0.163515 0.371601 0.540645
O O2 0.088095 0.306632 0.444395
O O3 0.340357 0.440129 0.437305
O O4 0.000000 0.500000 0.500000
O O5 0.333091 0.550946 0.104328
O O6 0.152227 0.405550 0.076232
O O7 0.992663 0.572744 0.150478
O O8 0.064989 0.717902 0.841949
O O9 0.879351 0.838785 0.939987
O O10 0.000000 0.000000 0.000000
O O11 0.500000 0.082295 0.250000
O O12 0.736916 0.198845 0.261806
O O13 0.723308 0.947023 0.264190
O O14 0.500000 0.181352 0.750000
#
# Coordination Sequence:
#
# PCOD9280414 Si02
#       6
#     8   8   8   8   8   8
#     4   9  20  37  59  90 122 158 201 248 306 374
#     4   9  20  38  60  87 124 166 208 257 312 376
#     4  10  21  40  60  87 124 160 205 259 313 375
#     4  10  21  37  59  90 125 161 200 246 308 376
#     4  10  21  42  63  90 125 163 214 267 317 376
#     4  10  23  41  64  91 124 165 214 268 321 376
#
# _framework density 21.941344000000001
#
# number of rings (size 3 to 8) (size 9 to 14) (size 15 to 20)
#    0.000    2.333    0.000    1.000    0.000   13.333 
#    0.000   21.667    0.000    0.000    0.000    0.000 
#    0.000    0.000    0.000    0.000    0.000    0.000 
#
# Total GULP energy -133791.458614 kJ/mol
# GULP energy per Si atom -5574.644109 kJ/mol
# Density = 2.189140 g / cm^3
# Si number density = 21.941344 Si / 1000 Ang^3
#
#
#
# Elastic Constant Matrix: (Units=GPa)
#
#
# Indices 1 2 3 4 5 6 
#
# 1 67.3975 35.1410 10.2495 0.0000 -4.6102 0.0000
# 2 35.1410 112.6945 37.2821 0.0000 -14.4221 0.0000
# 3 10.2495 37.2821 81.8029 0.0000 -4.8009 0.0000
# 4 0.0000 0.0000 0.0000 -35.5342 0.0000 124.4988
# 5 -4.6102 -14.4221 -4.8009 0.0000 27.3999 0.0000
# 6 0.0000 0.0000 0.0000 124.4988 0.0000 -164.2898
#
#
#
# Elastic Compliance Matrix: (Units=1/GPa)
#
#
# Indices 1 2 3 4 5 6 
#
# 1 0.017727 -0.005634 0.000351 0.000000 0.000079 0.000000
# 2 -0.005634 0.012879 -0.004872 0.000000 0.004977 0.000000
# 3 0.000351 -0.004872 0.014402 0.000000 0.000018 0.000000
# 4 0.000000 0.000000 0.000000 0.017004 0.000000 0.012885
# 5 0.000079 0.004977 0.000018 0.000000 0.039133 0.000000
# 6 0.000000 0.000000 0.000000 0.012885 0.000000 0.003678
#
#
# Mechanical properties :
#
#
# Convention : Reuss Voigt Hill
#
# Bulk Modulus (GPa) = 40.48727 47.47110 43.97918
# Shear Modulus (GPa) = 37.49160 -22.53667 7.47747
#
# Velocity S-wave (km/s) = 4.13815 -3.20837 1.84806
# Velocity P-wave (km/s) = 6.42845 2.82092 4.96400
#
# Compressibility (1/GPa) = 0.02469912
#
# Stress axis : x y z
#
# Youngs Moduli (GPa) = 56.41186 77.64624 69.43554
#
# Poissons Ratio (x) = 0.43744 -0.02438
# Poissons Ratio (y) = 0.31781 0.33826
# Poissons Ratio (z) = -0.01981 0.37826
#
# Static dielectric constant tensor:
#      x y z
#    x 1.784060 0.000000 -0.055750 
#    y 0.000000 1.858840 0.000000 
#    z -0.055750 0.000000 1.844150 
# 
# From -- ./inp_files/263244.got.cif
#   From: 2010.05.17/outbox.cif.g08.bks.cpg/sg15_132_cif.got.tgz:263244.got - 2010.06.03 18:47:42.
