data_PCOD9280950
_publ_section_title
;
Structure prediction by ZEFSAII (Michael W. Deem and Ramdas Pophale) SiO2 
 PCOD9280950
Probable space group: C 2/C
;
_chemical_formula_sum "Si O2"
_cell_formula_units_Z 56
_cell_length_a 6.367948
_cell_length_b 13.191887
_cell_length_c 28.593387
_cell_angle_alpha 90.000000
_cell_angle_beta 63.271911
_cell_angle_gamma 90.000000
_cell_volume 2145.343921
_symmetry_space_group_name_H-M "C 2/C"
_symmetry_group_IT_number 15
_symmetry_cell_setting 'monoclinic'
loop_
_space_group_symop_operation_xyz
x,y,z
-x,y,1/2-z
-x,-y,-z
x,-y,1/2+z
1/2+x,1/2+y,z
1/2-x,1/2+y,1/2-z
1/2-x,1/2-y,-z
1/2+x,1/2-y,1/2+z
loop_
_atom_site_type_symbol
_atom_site_label
_atom_site_fract_x
_atom_site_fract_y
_atom_site_fract_z
Si Si1 0.470184 0.748825 0.104002
Si Si2 0.849409 0.112754 0.332000
Si Si3 0.559821 0.037855 0.067870
Si Si4 0.113072 0.347018 0.475246
Si Si5 0.005612 0.715836 0.302753
Si Si6 0.287853 0.999506 0.797459
Si Si7 0.139825 0.910575 0.407244
O O1 0.551633 0.657065 0.128623
O O2 0.468977 0.751396 0.047568
O O3 0.649456 0.835361 0.101661
O O4 0.199982 0.767551 0.146594
O O5 0.629495 0.047560 0.371982
O O6 0.745183 0.199639 0.308198
O O7 0.068525 0.047780 0.291281
O O8 0.494099 0.943512 0.041563
O O9 0.806777 0.011532 0.067484
O O10 0.550165 0.136554 0.035650
O O11 0.391333 0.363513 0.444109
O O12 0.000000 0.758336 0.250000
O O13 0.922819 0.599213 0.303778
O O14 0.500000 0.056581 0.750000
O O15 0.169918 0.062091 0.850309
#
# Coordination Sequence:
#
# PCOD9280950 Si02
#       7
#     8   8   8   8   8   8   8
#     4  10  24  39  61  92 131 164 204 264 315 376
#     4  11  21  43  66  90 126 162 209 266 306 377
#     4  10  21  37  68  91 122 173 213 259 313 373
#     4  10  21  40  61  96 128 166 212 257 321 372
#     4  10  22  43  64  92 120 169 213 254 314 375
#     4  10  22  38  65  96 118 160 209 259 315 371
#     4  11  20  42  60  94 130 163 209 267 311 376
#
# _framework density 26.103041999999999
#
# number of rings (size 3 to 8) (size 9 to 14) (size 15 to 20)
#    0.000    1.714    2.857    1.286    0.000    5.714 
#    5.143    2.857    0.000    0.000    0.000    0.000 
#    0.000    0.000    0.000    0.000    0.000    0.000 
#
# Total GULP energy -156513.918782 kJ/mol
# GULP energy per Si atom -5589.782814 kJ/mol
# Density = 2.604363 g / cm^3
# Si number density = 26.103042 Si / 1000 Ang^3
#
#
#
# Elastic Constant Matrix: (Units=GPa)
#
#
# Indices 1 2 3 4 5 6 
#
# 1 150.2281 11.7706 44.4910 0.0001 6.7704 -0.0001
# 2 11.7706 34.2951 -5.4469 0.0001 9.1054 0.0000
# 3 44.4910 -5.4469 90.9162 0.0000 -16.7588 0.0001
# 4 0.0001 0.0001 0.0000 15.1685 0.0000 14.6664
# 5 6.7704 9.1054 -16.7588 0.0000 38.9468 0.0000
# 6 -0.0001 0.0000 0.0001 14.6664 0.0000 18.5988
#
#
#
# Elastic Compliance Matrix: (Units=1/GPa)
#
#
# Indices 1 2 3 4 5 6 
#
# 1 0.008446 -0.002905 -0.004836 0.000000 -0.002870 0.000000
# 2 -0.002905 0.032115 0.002232 -0.000001 -0.006043 0.000001
# 3 -0.004836 0.002232 0.014726 0.000001 0.006656 -0.000001
# 4 0.000000 -0.000001 0.000001 0.277542 0.000001 -0.218861
# 5 -0.002870 -0.006043 0.006656 0.000001 0.030452 -0.000001
# 6 0.000000 0.000001 -0.000001 -0.218861 -0.000001 0.226354
#
#
# Mechanical properties :
#
#
# Convention : Reuss Voigt Hill
#
# Bulk Modulus (GPa) = 22.58966 41.89652 32.24309
# Shear Modulus (GPa) = 8.12468 29.51780 18.82124
#
# Velocity S-wave (km/s) = 1.76615 3.36641 2.68813
# Velocity P-wave (km/s) = 3.58216 5.58530 4.69188
#
# Compressibility (1/GPa) = 0.04426804
#
# Stress axis : x y z
#
# Youngs Moduli (GPa) = 118.40310 31.13857 67.90568
#
# Poissons Ratio (x) = 0.09045 0.32840
# Poissons Ratio (y) = 0.34394 -0.15154
# Poissons Ratio (z) = 0.57261 -0.06949
#
# Static dielectric constant tensor:
#      x y z
#    x 2.073460 0.000000 0.050390 
#    y 0.000000 2.114970 0.000000 
#    z 0.050390 0.000000 2.112630 
# 
# From -- ./inp_files/305755.got.cif
#   From: 2010.05.17/outbox.cif.g08.bks.cpg/sg15_153_cif.got.tgz:305755.got - 2010.06.03 18:47:42.
