data_PCOD9280529
_publ_section_title
;
Structure prediction by ZEFSAII (Michael W. Deem and Ramdas Pophale) SiO2 
 PCOD9280529
Probable space group: C 2/C
;
_chemical_formula_sum "Si O2"
_cell_formula_units_Z 64
_cell_length_a 9.204440
_cell_length_b 19.223066
_cell_length_c 30.532682
_cell_angle_alpha 90.000000
_cell_angle_beta 27.791694
_cell_angle_gamma 90.000000
_cell_volume 2518.904208
_symmetry_space_group_name_H-M "C 2/C"
_symmetry_group_IT_number 15
_symmetry_cell_setting 'monoclinic'
loop_
_space_group_symop_operation_xyz
x,y,z
-x,y,1/2-z
-x,-y,-z
x,-y,1/2+z
1/2+x,1/2+y,z
1/2-x,1/2+y,1/2-z
1/2-x,1/2-y,-z
1/2+x,1/2-y,1/2+z
loop_
_atom_site_type_symbol
_atom_site_label
_atom_site_fract_x
_atom_site_fract_y
_atom_site_fract_z
Si Si1 0.075163 0.972043 0.658111
Si Si2 0.181497 0.682275 0.427660
Si Si3 0.249772 0.372627 0.044653
Si Si4 0.499882 0.982820 0.874503
Si Si5 0.858419 0.905768 0.165646
Si Si6 0.292116 0.671279 0.151618
Si Si7 0.298217 0.315326 0.363981
Si Si8 0.297633 0.657210 0.009229
O O1 0.213734 0.897822 0.609489
O O2 0.738775 0.970153 0.771263
O O3 0.039941 0.022893 0.626803
O O4 0.304239 0.001486 0.634063
O O5 0.501545 0.705937 0.364916
O O6 0.933036 0.683170 0.532921
O O7 0.997297 0.701069 0.431418
O O8 0.210769 0.449129 0.075891
O O9 0.910446 0.347552 0.119222
O O10 0.476316 0.371237 0.941574
O O11 0.427094 0.320492 0.031045
O O12 0.344312 0.909102 0.927119
O O13 0.500000 0.916542 0.250000
O O14 0.911010 0.859605 0.195768
O O15 0.020335 0.869182 0.081688
O O16 0.149363 0.735315 0.162103
O O17 0.000000 0.630918 0.250000
#
# Coordination Sequence:
#
# PCOD9280529 Si02
#       8
#     8   8   8   8   8   8   8   8
#     4  10  21  37  65  99 137 176 222 271 335 416
#     4   9  21  42  67  92 134 172 221 273 338 398
#     4  11  21  41  66  92 136 178 222 265 343 404
#     4  10  21  37  60  99 136 182 213 264 335 408
#     4  11  23  40  64 100 133 172 224 281 341 404
#     4  11  26  44  68  97 124 180 239 285 329 394
#     4  10  23  46  69  89 130 176 235 280 334 398
#     4  10  23  37  61  97 135 172 212 268 338 407
#
# _framework density 25.407872000000001
#
# number of rings (size 3 to 8) (size 9 to 14) (size 15 to 20)
#    0.000    1.750    1.250    2.625    5.250    4.000 
#    0.000    6.875    0.000    0.000    0.000    0.000 
#    0.000    0.000    0.000    0.000    0.000    0.000 
#
# Total GULP energy -178874.050926 kJ/mol
# GULP energy per Si atom -5589.814091 kJ/mol
# Density = 2.535004 g / cm^3
# Si number density = 25.407872 Si / 1000 Ang^3
#
#
#
# Elastic Constant Matrix: (Units=GPa)
#
#
# Indices 1 2 3 4 5 6 
#
# 1 152.0386 13.4259 16.2979 -0.0543 -19.6245 0.1207
# 2 13.4259 54.2851 1.4572 -0.1690 5.4571 0.1172
# 3 16.2979 1.4572 72.0728 0.0072 0.2946 0.1820
# 4 -0.0543 -0.1690 0.0072 27.6506 -0.0915 3.3110
# 5 -19.6245 5.4571 0.2946 -0.0915 33.3136 -0.0580
# 6 0.1207 0.1172 0.1820 3.3110 -0.0580 47.6191
#
#
#
# Elastic Compliance Matrix: (Units=1/GPa)
#
#
# Indices 1 2 3 4 5 6 
#
# 1 0.007592 -0.002321 -0.001690 0.000018 0.004867 -0.000002
# 2 -0.002321 0.019450 0.000150 0.000106 -0.004555 -0.000055
# 3 -0.001690 0.000150 0.014259 -0.000004 -0.001146 -0.000052
# 4 0.000018 0.000106 -0.000004 0.036470 0.000089 -0.002536
# 5 0.004867 -0.004555 -0.001146 0.000089 0.033642 0.000038
# 6 -0.000002 -0.000055 -0.000052 -0.002536 0.000038 0.021177
#
#
# Mechanical properties :
#
#
# Convention : Reuss Voigt Hill
#
# Bulk Modulus (GPa) = 29.78075 37.86205 33.82140
# Shear Modulus (GPa) = 33.00267 38.19770 35.60018
#
# Velocity S-wave (km/s) = 3.60796 3.88155 3.74725
# Velocity P-wave (km/s) = 5.39472 5.91799 5.66240
#
# Compressibility (1/GPa) = 0.03357874
#
# Stress axis : x y z
#
# Youngs Moduli (GPa) = 131.72326 51.41463 70.13251
#
# Poissons Ratio (x) = 0.11936 0.11850
# Poissons Ratio (y) = 0.30579 -0.01055
# Poissons Ratio (z) = 0.22257 -0.00774
#
# Static dielectric constant tensor:
#      x y z
#    x 2.106090 -0.000060 -0.057170 
#    y -0.000060 2.059090 0.000100 
#    z -0.057170 0.000100 1.957130 
# 
# From -- ./inp_files/309089.got.cif
#   From: 2010.05.17/outbox.cif.g08.bks.cpg/sg15_155_cif.got.tgz:309089.got - 2010.06.03 18:47:42.
