data_PCOD9280769
_publ_section_title
;
Structure prediction by ZEFSAII (Michael W. Deem and Ramdas Pophale) SiO2 
 PCOD9280769
Probable space group: C 2/C
;
_chemical_formula_sum "Si O2"
_cell_formula_units_Z 36
_cell_length_a 21.460092
_cell_length_b 9.441553
_cell_length_c 15.847422
_cell_angle_alpha 90.000000
_cell_angle_beta 155.052022
_cell_angle_gamma 90.000000
_cell_volume 1354.363596
_symmetry_space_group_name_H-M "C 2/C"
_symmetry_group_IT_number 15
_symmetry_cell_setting 'monoclinic'
loop_
_space_group_symop_operation_xyz
x,y,z
-x,y,1/2-z
-x,-y,-z
x,-y,1/2+z
1/2+x,1/2+y,z
1/2-x,1/2+y,1/2-z
1/2-x,1/2-y,-z
1/2+x,1/2-y,1/2+z
loop_
_atom_site_type_symbol
_atom_site_label
_atom_site_fract_x
_atom_site_fract_y
_atom_site_fract_z
Si Si1 0.500000 0.876266 0.750000
Si Si2 0.311073 0.569302 0.672654
Si Si3 0.437726 0.304992 0.765003
Si Si4 0.393667 0.983860 0.289752
Si Si5 0.868346 0.965826 0.925216
O O1 0.327693 0.832941 0.519004
O O2 0.530660 0.956145 0.700342
O O3 0.326981 0.440154 0.624624
O O4 0.301468 0.484274 0.750137
O O5 0.480976 0.627763 0.883413
O O6 0.500000 0.263630 0.750000
O O7 0.372362 0.181087 0.740765
O O8 0.571718 0.376095 0.980733
O O9 0.248371 0.061232 0.145945
O O10 0.500000 0.000000 0.500000
#
# Coordination Sequence:
#
# PCOD9280769 Si02
#       5
#     4   8   8   8   8
#     4  12  22  36  60  88 126 154 214 250 306 376
#     4   9  21  39  59  90 126 160 200 254 314 379
#     4  10  21  37  63  94 124 158 210 262 310 371
#     4  12  24  36  59  96 125 164 204 261 317 364
#     4   9  21  40  58  89 129 164 193 254 322 371
#
# _framework density 26.580748
#
# number of rings (size 3 to 8) (size 9 to 14) (size 15 to 20)
#    1.333    0.444    3.333    1.333    3.111    1.778 
#    0.000    0.000    0.000    1.333   11.556    0.000 
#    0.000    0.000    0.000    0.000    0.000    0.000 
#
# Total GULP energy -100349.862699 kJ/mol
# GULP energy per Si atom -5574.992372 kJ/mol
# Density = 2.652025 g / cm^3
# Si number density = 26.580748 Si / 1000 Ang^3
#
#
#
# Elastic Constant Matrix: (Units=GPa)
#
#
# Indices 1 2 3 4 5 6 
#
# 1 192.6910 28.5544 58.7397 0.0000 13.3734 0.0000
# 2 28.5544 60.9957 32.1818 0.0000 2.6942 0.0000
# 3 58.7397 32.1818 168.4441 0.0000 14.9275 0.0000
# 4 0.0000 0.0000 0.0000 -2.3461 0.0000 3.2055
# 5 13.3734 2.6942 14.9275 0.0000 55.9642 0.0000
# 6 0.0000 0.0000 0.0000 3.2055 0.0000 24.2958
#
#
#
# Elastic Compliance Matrix: (Units=1/GPa)
#
#
# Indices 1 2 3 4 5 6 
#
# 1 0.006043 -0.001912 -0.001661 0.000000 -0.000909 0.000000
# 2 -0.001912 0.018838 -0.002962 0.000000 0.000340 0.000000
# 3 -0.001661 -0.002962 0.007204 0.000000 -0.001382 0.000000
# 4 0.000000 0.000000 0.000000 -0.361136 0.000000 0.047646
# 5 -0.000909 0.000340 -0.001382 0.000000 0.018438 0.000000
# 6 0.000000 0.000000 0.000000 0.047646 0.000000 0.034873
#
#
# Mechanical properties :
#
#
# Convention : Reuss Voigt Hill
#
# Bulk Modulus (GPa) = 52.59522 73.45361 63.02442
# Shear Modulus (GPa) = -19.50605 35.75976 8.12685
#
# Velocity S-wave (km/s) = -2.71189 3.67185 1.75045
# Velocity P-wave (km/s) = 3.16609 6.75801 5.27707
#
# Compressibility (1/GPa) = 0.01901314
#
# Stress axis : x y z
#
# Youngs Moduli (GPa) = 165.49440 53.08521 138.80289
#
# Poissons Ratio (x) = 0.10150 0.23059
# Poissons Ratio (y) = 0.31644 0.41119
# Poissons Ratio (z) = 0.27493 0.15726
#
# Static dielectric constant tensor:
#      x y z
#    x 2.047250 0.000000 0.038750 
#    y 0.000000 2.036670 0.000000 
#    z 0.038750 0.000000 2.216170 
# 
# From -- ./inp_files/168178.got.cif
#   From: 2010.05.17/outbox.cif.g08.bks.cpg/sg15_85_cif.got.tgz:168178.got - 2010.06.03 18:47:42.
