data_PCOD9280041
_publ_section_title
;
Structure prediction by ZEFSAII (Michael W. Deem and Ramdas Pophale) SiO2 
 PCOD9280041
Probable space group: C 2/C
;
_chemical_formula_sum "Si O2"
_cell_formula_units_Z 48
_cell_length_a 29.010040
_cell_length_b 9.225924
_cell_length_c 13.594469
_cell_angle_alpha 90.000000
_cell_angle_beta 142.648656
_cell_angle_gamma 90.000000
_cell_volume 2207.471770
_symmetry_space_group_name_H-M "C 2/C"
_symmetry_group_IT_number 15
_symmetry_cell_setting 'monoclinic'
loop_
_space_group_symop_operation_xyz
x,y,z
-x,y,1/2-z
-x,-y,-z
x,-y,1/2+z
1/2+x,1/2+y,z
1/2-x,1/2+y,1/2-z
1/2-x,1/2-y,-z
1/2+x,1/2-y,1/2+z
loop_
_atom_site_type_symbol
_atom_site_label
_atom_site_fract_x
_atom_site_fract_y
_atom_site_fract_z
Si Si1 0.815614 0.309681 0.541503
Si Si2 0.785080 0.786745 0.403068
Si Si3 0.296849 0.509136 0.274565
Si Si4 0.933241 0.149194 0.381118
Si Si5 0.153635 0.406092 0.313211
Si Si6 0.554102 0.578146 0.747804
O O1 0.750000 0.250000 0.500000
O O2 0.769175 0.408096 0.384466
O O3 0.860953 0.431012 0.680749
O O4 0.872688 0.180104 0.610419
O O5 0.743508 0.661435 0.267270
O O6 0.830039 0.902508 0.413802
O O7 0.823435 0.689246 0.552129
O O8 0.723725 0.886102 0.356869
O O9 0.363417 0.560721 0.314109
O O10 0.914315 0.317987 0.349030
O O11 0.007884 0.132767 0.572963
O O12 0.933785 0.084566 0.271989
O O13 0.500000 0.584838 0.750000
#
# Coordination Sequence:
#
# PCOD9280041 Si02
#       6
#     8   8   8   8   8   8
#     4  11  23  41  64  95 127 173 216 268 327 389
#     4   9  20  33  60  97 125 160 210 276 317 375
#     4  10  21  36  63  97 125 164 225 262 323 385
#     4  10  23  44  63  96 125 175 223 259 339 393
#     4   9  21  39  60  91 129 167 211 272 324 381
#     4  11  26  42  66  94 134 173 215 274 331 401
#
# _framework density 21.744330999999999
#
# number of rings (size 3 to 8) (size 9 to 14) (size 15 to 20)
#    0.000    2.000    1.667    1.000    9.333    0.667 
#    0.000    0.833    3.667    0.000    0.000    0.000 
#    0.000    0.000    0.000    0.000    0.000    0.000 
#
# Total GULP energy -133823.703864 kJ/mol
# GULP energy per Si atom -5575.987661 kJ/mol
# Density = 2.169484 g / cm^3
# Si number density = 21.744331 Si / 1000 Ang^3
#
#
#
# Elastic Constant Matrix: (Units=GPa)
#
#
# Indices 1 2 3 4 5 6 
#
# 1 82.5662 41.7347 4.6944 0.0000 3.9106 0.0000
# 2 41.7347 94.8764 14.9386 0.0000 0.9919 0.0000
# 3 4.6944 14.9386 66.7418 0.0000 0.8716 0.0000
# 4 0.0000 0.0000 0.0000 39.1806 0.0000 -6.9897
# 5 3.9106 0.9919 0.8716 0.0000 26.1559 0.0000
# 6 0.0000 0.0000 0.0000 -6.9897 0.0000 15.1656
#
#
#
# Elastic Compliance Matrix: (Units=1/GPa)
#
#
# Indices 1 2 3 4 5 6 
#
# 1 0.015702 -0.006961 0.000481 0.000000 -0.002100 0.000000
# 2 -0.006961 0.014014 -0.002655 0.000000 0.000598 0.000000
# 3 0.000481 -0.002655 0.015550 0.000000 -0.000489 0.000000
# 4 0.000000 0.000000 0.000000 0.027809 0.000000 0.012817
# 5 -0.002100 0.000598 -0.000489 0.000000 0.038540 0.000000
# 6 0.000000 0.000000 0.000000 0.012817 0.000000 0.071846
#
#
# Mechanical properties :
#
#
# Convention : Reuss Voigt Hill
#
# Bulk Modulus (GPa) = 37.04210 40.76887 38.90548
# Shear Modulus (GPa) = 23.72710 28.28820 26.00765
#
# Velocity S-wave (km/s) = 3.30689 3.61078 3.46217
# Velocity P-wave (km/s) = 5.62610 6.01444 5.82351
#
# Compressibility (1/GPa) = 0.02699631
#
# Stress axis : x y z
#
# Youngs Moduli (GPa) = 63.68574 71.35836 64.30909
#
# Poissons Ratio (x) = 0.49672 -0.03093
# Poissons Ratio (y) = 0.44331 0.17073
# Poissons Ratio (z) = -0.03063 0.18945
#
# Static dielectric constant tensor:
#      x y z
#    x 1.798020 0.000000 -0.037770 
#    y 0.000000 1.836180 0.000000 
#    z -0.037770 0.000000 1.966690 
# 
# From -- ./inp_files/180911.got.cif
#   From: 2010.05.17/outbox.cif.g08.bks.cpg/sg15_91_cif.got.tgz:180911.got - 2010.06.03 18:47:42.
