data_PCOD9280282
_publ_section_title
;
Structure prediction by ZEFSAII (Michael W. Deem and Ramdas Pophale) SiO2 
 PCOD9280282
Probable space group: C 2/C
;
_chemical_formula_sum "Si O2"
_cell_formula_units_Z 36
_cell_length_a 10.687359
_cell_length_b 7.820618
_cell_length_c 24.435574
_cell_angle_alpha 90.000000
_cell_angle_beta 46.638391
_cell_angle_gamma 90.000000
_cell_volume 1484.872861
_symmetry_space_group_name_H-M "C 2/C"
_symmetry_group_IT_number 15
_symmetry_cell_setting 'monoclinic'
loop_
_space_group_symop_operation_xyz
x,y,z
-x,y,1/2-z
-x,-y,-z
x,-y,1/2+z
1/2+x,1/2+y,z
1/2-x,1/2+y,1/2-z
1/2-x,1/2-y,-z
1/2+x,1/2-y,1/2+z
loop_
_atom_site_type_symbol
_atom_site_label
_atom_site_fract_x
_atom_site_fract_y
_atom_site_fract_z
Si Si1 0.104279 0.137550 0.073980
Si Si2 0.506281 0.976627 0.350979
Si Si3 0.293029 0.075487 0.610224
Si Si4 0.000000 0.314682 0.750000
Si Si5 0.349592 0.356820 0.516692
O O1 0.982893 0.273350 0.141399
O O2 0.198967 0.036601 0.093610
O O3 0.250000 0.250000 0.000000
O O4 0.035747 0.992966 0.051564
O O5 0.604062 0.036548 0.376566
O O6 0.573670 0.062366 0.275712
O O7 0.306845 0.032610 0.410857
O O8 0.146979 0.189757 0.682961
O O9 0.410606 0.212388 0.541215
O O10 0.250000 0.250000 0.500000
#
# Coordination Sequence:
#
# PCOD9280282 Si02
#       5
#     8   8   8   4   8
#     4   9  19  35  57  86 112 136 181 231 272 334
#     4  10  21  37  58  81 110 150 187 226 275 327
#     4  10  21  38  59  79 112 153 182 227 284 326
#     4  10  24  40  52  80 114 144 196 236 262 326
#     4   8  17  35  55  84 116 137 175 228 274 333
#
# _framework density 24.244503000000002
#
# number of rings (size 3 to 8) (size 9 to 14) (size 15 to 20)
#    0.000    2.667    0.000    0.000    0.000   13.333 
#    0.000   15.556    0.000    0.000    0.000    0.000 
#    0.000    0.000    0.000    0.000    0.000    0.000 
#
# Total GULP energy -100462.793894 kJ/mol
# GULP energy per Si atom -5581.266327 kJ/mol
# Density = 2.418932 g / cm^3
# Si number density = 24.244503 Si / 1000 Ang^3
#
#
#
# Elastic Constant Matrix: (Units=GPa)
#
#
# Indices 1 2 3 4 5 6 
#
# 1 91.8513 14.8007 50.4506 0.0000 21.7096 0.0000
# 2 14.8007 90.5011 61.7981 0.0000 12.2881 0.0000
# 3 50.4506 61.7981 95.2772 0.0000 30.7945 0.0000
# 4 0.0000 0.0000 0.0000 65.5606 0.0000 17.6996
# 5 21.7096 12.2881 30.7945 0.0000 35.6673 0.0000
# 6 0.0000 0.0000 0.0000 17.6996 0.0000 50.0923
#
#
#
# Elastic Compliance Matrix: (Units=1/GPa)
#
#
# Indices 1 2 3 4 5 6 
#
# 1 0.017101 0.005795 -0.012213 0.000000 -0.001861 0.000000
# 2 0.005795 0.022745 -0.019625 0.000000 0.005580 0.000000
# 3 -0.012213 -0.019625 0.034820 0.000000 -0.015869 0.000000
# 4 0.000000 0.000000 0.000000 0.016862 0.000000 -0.005958
# 5 -0.001861 0.005580 -0.015869 0.000000 0.040948 0.000000
# 6 0.000000 0.000000 0.000000 -0.005958 0.000000 0.022068
#
#
# Mechanical properties :
#
#
# Convention : Reuss Voigt Hill
#
# Bulk Modulus (GPa) = 44.28324 59.08094 51.68209
# Shear Modulus (GPa) = 23.34742 40.30270 31.82506
#
# Velocity S-wave (km/s) = 3.10659 4.08161 3.62701
# Velocity P-wave (km/s) = 5.58326 6.82894 6.23727
#
# Compressibility (1/GPa) = 0.02258190
#
# Stress axis : x y z
#
# Youngs Moduli (GPa) = 58.47525 43.96587 28.71879
#
# Poissons Ratio (x) = -0.25479 0.35073
# Poissons Ratio (y) = -0.33888 0.56361
# Poissons Ratio (z) = 0.71414 0.86283
#
# Static dielectric constant tensor:
#      x y z
#    x 1.964890 0.000000 -0.025600 
#    y 0.000000 1.991320 0.000000 
#    z -0.025600 0.000000 1.923450 
# 
# From -- ./inp_files/194965.got.cif
#   From: 2010.05.17/outbox.cif.g08.bks.cpg/sg15_98_cif.got.tgz:194965.got - 2010.06.03 18:47:42.
