data_PCOD9280876
_publ_section_title
;
Structure prediction by ZEFSAII (Michael W. Deem and Ramdas Pophale) SiO2 
 PCOD9280876
Probable space group: C 2/C
;
_chemical_formula_sum "Si O2"
_cell_formula_units_Z 52
_cell_length_a 20.457364
_cell_length_b 17.980008
_cell_length_c 8.803673
_cell_angle_alpha 90.000000
_cell_angle_beta 53.325190
_cell_angle_gamma 90.000000
_cell_volume 2597.159192
_symmetry_space_group_name_H-M "C 2/C"
_symmetry_group_IT_number 15
_symmetry_cell_setting 'monoclinic'
loop_
_space_group_symop_operation_xyz
x,y,z
-x,y,1/2-z
-x,-y,-z
x,-y,1/2+z
1/2+x,1/2+y,z
1/2-x,1/2+y,1/2-z
1/2-x,1/2-y,-z
1/2+x,1/2-y,1/2+z
loop_
_atom_site_type_symbol
_atom_site_label
_atom_site_fract_x
_atom_site_fract_y
_atom_site_fract_z
Si Si1 0.500000 0.793597 0.750000
Si Si2 0.741162 0.176858 0.711109
Si Si3 0.915356 0.586993 0.572031
Si Si4 0.000000 0.536229 0.750000
Si Si5 0.015473 0.919672 0.049125
Si Si6 0.000000 0.746356 0.750000
Si Si7 0.353460 0.320963 0.768441
Si Si8 0.900913 0.215087 0.650046
O O1 0.535602 0.846172 0.572302
O O2 0.428369 0.745524 0.775047
O O3 0.678001 0.109951 0.822570
O O4 0.690331 0.252810 0.755545
O O5 0.791186 0.157045 0.488242
O O6 0.807708 0.196220 0.746409
O O7 0.943402 0.514724 0.437717
O O8 0.943217 0.580578 0.709538
O O9 0.000000 0.922368 0.250000
O O10 0.949550 0.862641 0.069260
O O11 0.105481 0.886287 0.887081
O O12 0.000000 0.000000 0.000000
O O13 0.068475 0.786690 0.755124
O O14 0.063659 0.725504 0.523952
#
# Coordination Sequence:
#
# PCOD9280876 Si02
#       8
#     4   8   8   4   8   4   8   8
#     4  11  22  38  65  93 117 162 218 260 319 386
#     4  10  21  37  65  93 131 157 201 278 333 363
#     4  10  21  41  65  90 122 166 209 260 317 378
#     4   9  22  43  64  86 124 168 218 246 301 408
#     4  11  24  41  65  87 125 176 220 255 305 400
#     4   8  16  33  61  75 125 156 196 236 300 380
#     4   9  20  39  60  97 125 159 212 262 319 377
#     4  10  21  39  60  95 121 159 211 265 313 381
#
# _framework density 20.021877
#
# number of rings (size 3 to 8) (size 9 to 14) (size 15 to 20)
#    0.000    2.154    0.769    1.846    6.462    5.538 
#    2.769    0.000    0.000    0.000    0.000    0.000 
#    0.000    0.000    0.000    0.000    0.000    0.000 
#
# Total GULP energy -144760.843572 kJ/mol
# GULP energy per Si atom -5567.724753 kJ/mol
# Density = 1.997631 g / cm^3
# Si number density = 20.021877 Si / 1000 Ang^3
#
#
#
# Elastic Constant Matrix: (Units=GPa)
#
#
# Indices 1 2 3 4 5 6 
#
# 1 160.1076 51.3665 62.6404 0.0000 1.9301 0.0000
# 2 51.3665 83.2195 38.1565 0.0000 -1.4678 0.0000
# 3 62.6404 38.1565 85.4610 0.0000 -8.8008 0.0000
# 4 0.0000 0.0000 0.0000 18.5482 0.0000 10.9822
# 5 1.9301 -1.4678 -8.8008 0.0000 35.5326 0.0000
# 6 0.0000 0.0000 0.0000 10.9822 0.0000 -19.9133
#
#
#
# Elastic Compliance Matrix: (Units=1/GPa)
#
#
# Indices 1 2 3 4 5 6 
#
# 1 0.009589 -0.003313 -0.005764 0.000000 -0.002085 0.000000
# 2 -0.003313 0.016294 -0.004884 0.000000 -0.000357 0.000000
# 3 -0.005764 -0.004884 0.018592 0.000000 0.004716 0.000000
# 4 0.000000 0.000000 0.000000 0.040642 0.000000 0.022414
# 5 -0.002085 -0.000357 0.004716 0.000000 0.029410 0.000000
# 6 0.000000 0.000000 0.000000 0.022414 0.000000 -0.037856
#
#
# Mechanical properties :
#
#
# Convention : Reuss Voigt Hill
#
# Bulk Modulus (GPa) = 60.40646 70.34609 65.37628
# Shear Modulus (GPa) = 45.40924 18.60848 32.00886
#
# Velocity S-wave (km/s) = 4.76750 3.05193 4.00271
# Velocity P-wave (km/s) = 7.78082 6.90144 7.35428
#
# Compressibility (1/GPa) = 0.01655452
#
# Stress axis : x y z
#
# Youngs Moduli (GPa) = 104.28812 61.37260 53.78572
#
# Poissons Ratio (x) = 0.20330 0.31003
# Poissons Ratio (y) = 0.34546 0.26267
# Poissons Ratio (z) = 0.60113 0.29972
#
# Static dielectric constant tensor:
#      x y z
#    x 1.719580 0.000000 -0.003290 
#    y 0.000000 1.758700 0.000000 
#    z -0.003290 0.000000 1.845750 
# 
# From -- ./inp_files/56972.got.cif
#   From: 2010.05.17/outbox.cif.g08.bks.cpg/sg15_29_cif.got.tgz:56972.got - 2010.06.03 18:47:42.
