data_PCOD9280964
_publ_section_title
;
Structure prediction by ZEFSAII (Michael W. Deem and Ramdas Pophale) SiO2 
 PCOD9280964
Probable space group: C 2/C
;
_chemical_formula_sum "Si O2"
_cell_formula_units_Z 40
_cell_length_a 19.285835
_cell_length_b 5.570459
_cell_length_c 17.651273
_cell_angle_alpha 90.000000
_cell_angle_beta 60.037051
_cell_angle_gamma 90.000000
_cell_volume 1642.850769
_symmetry_space_group_name_H-M "C 2/C"
_symmetry_group_IT_number 15
_symmetry_cell_setting 'monoclinic'
loop_
_space_group_symop_operation_xyz
x,y,z
-x,y,1/2-z
-x,-y,-z
x,-y,1/2+z
1/2+x,1/2+y,z
1/2-x,1/2+y,1/2-z
1/2-x,1/2-y,-z
1/2+x,1/2-y,1/2+z
loop_
_atom_site_type_symbol
_atom_site_label
_atom_site_fract_x
_atom_site_fract_y
_atom_site_fract_z
Si Si1 0.168854 0.089937 0.361544
Si Si2 0.050519 0.481476 0.359504
Si Si3 0.251060 0.499403 0.953578
Si Si4 0.160129 0.782537 0.216945
Si Si5 0.409535 0.212063 0.010907
O O1 0.121181 0.300915 0.345587
O O2 0.259616 0.127987 0.336956
O O3 0.172483 0.892622 0.293255
O O4 0.121497 0.980413 0.458814
O O5 0.080411 0.625441 0.269818
O O6 0.044067 0.659932 0.435486
O O7 0.967907 0.336101 0.408808
O O8 0.327091 0.521220 0.855416
O O9 0.167397 0.462714 0.953653
O O10 0.250000 0.750000 0.000000
O O11 0.250000 0.250000 0.000000
#
# Coordination Sequence:
#
# PCOD9280964 Si02
#       5
#     8   8   8   8   8
#     4  11  18  35  68 100 136 168 219 307 356 418
#     4  10  21  37  69  98 134 162 216 312 361 401
#     4  12  27  45  69  90 137 195 236 271 321 424
#     4  11  21  37  64  98 131 172 234 275 354 404
#     4  10  22  40  62 103 131 169 228 283 366 406
#
# _framework density 24.347920999999999
#
# number of rings (size 3 to 8) (size 9 to 14) (size 15 to 20)
#    0.000    1.200    4.000    3.000    2.800    0.000 
#    0.000    1.000    0.000    0.000    0.000    0.000 
#    0.000    0.000    0.000    0.000    0.000    0.000 
#
# Total GULP energy -111583.534175 kJ/mol
# GULP energy per Si atom -5579.176709 kJ/mol
# Density = 2.429250 g / cm^3
# Si number density = 24.347921 Si / 1000 Ang^3
#
#
#
# Elastic Constant Matrix: (Units=GPa)
#
#
# Indices 1 2 3 4 5 6 
#
# 1 31.3028 17.3468 24.3079 -0.0002 1.7358 0.0084
# 2 17.3468 97.9964 55.7678 -0.0257 0.9386 0.0075
# 3 24.3079 55.7678 175.0034 -0.0048 -24.2521 -0.0021
# 4 -0.0002 -0.0257 -0.0048 65.4357 0.0004 -1.4163
# 5 1.7358 0.9386 -24.2521 0.0004 25.8788 0.0018
# 6 0.0084 0.0075 -0.0021 -1.4163 0.0018 28.1224
#
#
#
# Elastic Compliance Matrix: (Units=1/GPa)
#
#
# Indices 1 2 3 4 5 6 
#
# 1 0.038445 -0.003818 -0.005127 -0.000002 -0.007245 -0.000011
# 2 -0.003818 0.013385 -0.004329 0.000005 -0.004286 -0.000002
# 3 -0.005127 -0.004329 0.009051 -0.000001 0.008983 0.000003
# 4 -0.000002 0.000005 -0.000001 0.015299 -0.000001 0.000770
# 5 -0.007245 -0.004286 0.008983 -0.000001 0.047701 0.000001
# 6 -0.000011 -0.000002 0.000003 0.000770 0.000001 0.035598
#
#
# Mechanical properties :
#
#
# Convention : Reuss Voigt Hill
#
# Bulk Modulus (GPa) = 29.12738 55.46086 42.29412
# Shear Modulus (GPa) = 25.32013 37.67940 31.49977
#
# Velocity S-wave (km/s) = 3.22829 3.93815 3.60076
# Velocity P-wave (km/s) = 5.08771 6.59595 5.89031
#
# Compressibility (1/GPa) = 0.03433196
#
# Stress axis : x y z
#
# Youngs Moduli (GPa) = 26.01099 74.71098 110.48866
#
# Poissons Ratio (x) = 0.28525 0.56652
# Poissons Ratio (y) = 0.09931 0.47830
# Poissons Ratio (z) = 0.13337 0.32342
#
# Static dielectric constant tensor:
#      x y z
#    x 2.013700 0.000000 -0.001150 
#    y 0.000000 2.095340 0.000000 
#    z -0.001150 0.000000 2.011660 
# 
# From -- ./inp_files/251006.got.cif
#   From: 2010.05.17/outbox.cif.g08.bks.cpg/sg15_126_cif.got.tgz:251006.got - 2010.06.03 18:47:42.
