data_PCOD9280204
_publ_section_title
;
Structure prediction by ZEFSAII (Michael W. Deem and Ramdas Pophale) SiO2 
 PCOD9280204
Probable space group: C 2/C
;
_chemical_formula_sum "Si O2"
_cell_formula_units_Z 52
_cell_length_a 25.515824
_cell_length_b 9.044861
_cell_length_c 9.160465
_cell_angle_alpha 90.000000
_cell_angle_beta 100.997361
_cell_angle_gamma 90.000000
_cell_volume 2075.293276
_symmetry_space_group_name_H-M "C 2/C"
_symmetry_group_IT_number 15
_symmetry_cell_setting 'monoclinic'
loop_
_space_group_symop_operation_xyz
x,y,z
-x,y,1/2-z
-x,-y,-z
x,-y,1/2+z
1/2+x,1/2+y,z
1/2-x,1/2+y,1/2-z
1/2-x,1/2-y,-z
1/2+x,1/2-y,1/2+z
loop_
_atom_site_type_symbol
_atom_site_label
_atom_site_fract_x
_atom_site_fract_y
_atom_site_fract_z
Si Si1 0.158324 0.261408 0.472987
Si Si2 0.116712 0.419804 0.902302
Si Si3 0.784664 0.586304 0.256364
Si Si4 0.930643 0.078017 0.989533
Si Si5 0.973276 0.245890 0.539891
Si Si6 0.192620 0.265374 0.170715
Si Si7 0.500000 0.742958 0.250000
O O1 0.119320 0.406037 0.440439
O O2 0.208143 0.326447 0.588341
O O3 0.129357 0.132797 0.546738
O O4 0.170568 0.213064 0.315281
O O5 0.057542 0.354739 0.869735
O O6 0.145972 0.322248 0.042235
O O7 0.157368 0.402485 0.789384
O O8 0.775140 0.415991 0.281029
O O9 0.736049 0.650013 0.137817
O O10 0.939729 0.904567 0.990449
O O11 0.954452 0.137260 0.156931
O O12 0.968956 0.169793 0.899336
O O13 0.979261 0.324424 0.383509
#
# Coordination Sequence:
#
# PCOD9280204 Si02
#       7
#     8   8   8   8   8   8   4
#     4  10  21  37  56  82 113 143 180 224 273 321
#     4  10  21  37  56  82 113 143 180 224 273 321
#     4  10  22  37  55  84 111 141 181 229 273 318
#     4   9  19  34  54  79 106 143 183 223 265 317
#     4   9  19  34  54  79 106 143 183 223 265 317
#     4  10  21  38  58  78 111 147 180 226 267 328
#     4   8  16  34  52  72 106 140 180 218 264 308
#
# _framework density 25.056701
#
# number of rings (size 3 to 8) (size 9 to 14) (size 15 to 20)
#    0.923    1.538    0.000    1.846    0.000    4.308 
#    0.000    0.000    0.000    0.000    0.000    0.000 
#    0.000    0.000    0.000    0.000    0.000    0.000 
#
# Total GULP energy -145152.680767 kJ/mol
# GULP energy per Si atom -5582.795414 kJ/mol
# Density = 2.499967 g / cm^3
# Si number density = 25.056701 Si / 1000 Ang^3
#
#
#
# Elastic Constant Matrix: (Units=GPa)
#
#
# Indices 1 2 3 4 5 6 
#
# 1 49.3840 34.7129 2.8083 0.0000 -9.1877 0.0000
# 2 34.7129 21.2499 17.4109 0.0000 -3.1169 0.0000
# 3 2.8083 17.4109 44.9222 0.0000 -7.9079 0.0000
# 4 0.0000 0.0000 0.0000 10.6791 0.0000 1.8346
# 5 -9.1877 -3.1169 -7.9079 0.0000 22.6355 0.0000
# 6 0.0000 0.0000 0.0000 1.8346 0.0000 47.8579
#
#
#
# Elastic Compliance Matrix: (Units=1/GPa)
#
#
# Indices 1 2 3 4 5 6 
#
# 1 -0.031042 0.071930 -0.028143 0.000000 -0.012527 0.000000
# 2 0.071930 -0.097720 0.038517 0.000000 0.029196 0.000000
# 3 -0.028143 0.038517 0.008540 0.000000 -0.003136 0.000000
# 4 0.000000 0.000000 0.000000 0.094261 0.000000 -0.003613
# 5 -0.012527 0.029196 -0.003136 0.000000 0.042018 0.000000
# 6 0.000000 0.000000 0.000000 -0.003613 0.000000 0.021034
#
#
# Mechanical properties :
#
#
# Convention : Reuss Voigt Hill
#
# Bulk Modulus (GPa) = 22.52952 25.04669 23.78811
# Shear Modulus (GPa) = -44.35728 20.27610 -12.04059
#
# Velocity S-wave (km/s) = -4.21203 2.84775 -2.19449
# Velocity P-wave (km/s) = 3.82675 4.56405 1.75878
#
# Compressibility (1/GPa) = 0.04438620
#
# Stress axis : x y z
#
# Youngs Moduli (GPa) = -32.21457 -10.23336 117.10229
#
# Poissons Ratio (x) = 0.73609 3.29566
# Poissons Ratio (y) = 2.31721 -4.51044
# Poissons Ratio (z) = -0.90663 0.39416
#
# Static dielectric constant tensor:
#      x y z
#    x 2.012760 0.000000 -0.035160 
#    y 0.000000 1.917110 0.000000 
#    z -0.035160 0.000000 1.999220 
# 
# From -- ./inp_files/121539.got.cif
#   From: 2010.05.17/outbox.cif.g08.bks.cpg/sg15_61_cif.got.tgz:121539.got - 2010.06.03 18:47:42.
