data_PCOD9280859
_publ_section_title
;
Structure prediction by ZEFSAII (Michael W. Deem and Ramdas Pophale) SiO2 
 PCOD9280859
Probable space group: C 2/C
;
_chemical_formula_sum "Si O2"
_cell_formula_units_Z 48
_cell_length_a 21.333480
_cell_length_b 11.958256
_cell_length_c 23.184103
_cell_angle_alpha 90.000000
_cell_angle_beta 21.275975
_cell_angle_gamma 90.000000
_cell_volume 2146.147541
_symmetry_space_group_name_H-M "C 2/C"
_symmetry_group_IT_number 15
_symmetry_cell_setting 'monoclinic'
loop_
_space_group_symop_operation_xyz
x,y,z
-x,y,1/2-z
-x,-y,-z
x,-y,1/2+z
1/2+x,1/2+y,z
1/2-x,1/2+y,1/2-z
1/2-x,1/2-y,-z
1/2+x,1/2-y,1/2+z
loop_
_atom_site_type_symbol
_atom_site_label
_atom_site_fract_x
_atom_site_fract_y
_atom_site_fract_z
Si Si1 0.378120 0.726925 0.509693
Si Si2 0.025186 0.972016 0.638080
Si Si3 0.664588 0.124035 0.791257
Si Si4 0.513637 0.910505 0.875740
Si Si5 0.167490 0.176713 0.736176
Si Si6 0.213779 0.580513 0.492709
O O1 0.491255 0.618050 0.398370
O O2 0.481642 0.816047 0.459379
O O3 0.223450 0.677486 0.679958
O O4 0.335481 0.795260 0.487270
O O5 0.207222 0.943747 0.512451
O O6 0.872312 0.947767 0.813991
O O7 0.990198 0.097341 0.648192
O O8 0.798657 0.156214 0.725335
O O9 0.629330 0.992705 0.815731
O O10 0.622042 0.804507 0.762549
O O11 0.344226 0.863658 0.053951
O O12 0.438620 0.994038 0.891300
#
# Coordination Sequence:
#
# PCOD9280859 Si02
#       6
#     8   8   8   8   8   8
#     4  11  21  39  64  96 123 163 208 263 320 365
#     4  10  21  37  65  89 125 166 207 260 315 369
#     4  11  24  39  65  94 131 160 211 260 315 379
#     4  10  24  42  62  91 127 166 211 257 311 374
#     4  11  24  41  64  89 130 170 207 255 316 379
#     4   9  20  42  61  92 123 161 213 264 310 367
#
# _framework density 22.365656000000001
#
# number of rings (size 3 to 8) (size 9 to 14) (size 15 to 20)
#    0.000    1.667    1.667    2.000    4.667    1.333 
#    0.000    0.000    0.000    0.000    0.000    0.000 
#    0.000    0.000    0.000    0.000    0.000    0.000 
#
# Total GULP energy -134008.194499 kJ/mol
# GULP energy per Si atom -5583.674771 kJ/mol
# Density = 2.231475 g / cm^3
# Si number density = 22.365656 Si / 1000 Ang^3
#
#
#
# Elastic Constant Matrix: (Units=GPa)
#
#
# Indices 1 2 3 4 5 6 
#
# 1 43.9454 10.9491 21.7475 -0.0008 -13.8788 0.0001
# 2 10.9491 153.9823 49.0164 -0.0007 -2.0115 -0.0001
# 3 21.7475 49.0164 45.4593 -0.0016 -4.1220 -0.0004
# 4 -0.0008 -0.0007 -0.0016 45.5104 0.0009 -3.1840
# 5 -13.8788 -2.0115 -4.1220 0.0009 17.9922 -0.0003
# 6 0.0001 -0.0001 -0.0004 -3.1840 -0.0003 12.1456
#
#
#
# Elastic Compliance Matrix: (Units=1/GPa)
#
#
# Indices 1 2 3 4 5 6 
#
# 1 0.041109 0.004428 -0.021977 -0.000001 0.027171 0.000000
# 2 0.004428 0.010398 -0.013189 0.000000 0.001556 0.000000
# 3 -0.021977 -0.013189 0.046017 0.000001 -0.007885 0.000002
# 4 -0.000001 0.000000 0.000001 0.022383 -0.000001 0.005868
# 5 0.027171 0.001556 -0.007885 -0.000001 0.074906 0.000001
# 6 0.000000 0.000000 0.000002 0.005868 0.000001 0.083873
#
#
# Mechanical properties :
#
#
# Convention : Reuss Voigt Hill
#
# Bulk Modulus (GPa) = 27.74036 45.20145 36.47091
# Shear Modulus (GPa) = 14.19729 25.90791 20.05260
#
# Velocity S-wave (km/s) = 2.52222 3.40719 2.99754
# Velocity P-wave (km/s) = 4.57298 5.97768 5.32188
#
# Compressibility (1/GPa) = 0.03604855
#
# Stress axis : x y z
#
# Youngs Moduli (GPa) = 24.32534 96.17176 21.73098
#
# Poissons Ratio (x) = -0.42581 0.47758
# Poissons Ratio (y) = -0.10770 0.28660
# Poissons Ratio (z) = 0.53460 1.26839
#
# Static dielectric constant tensor:
#      x y z
#    x 1.868610 0.000000 0.003960 
#    y 0.000000 1.785470 0.000000 
#    z 0.003960 0.000000 1.862310 
# 
# From -- ./inp_files/60619.got.cif
#   From: 2010.05.17/outbox.cif.g08.bks.cpg/sg15_31_cif.got.tgz:60619.got - 2010.06.03 18:47:42.
