data_PCOD9280217
_publ_section_title
;
Structure prediction by ZEFSAII (Michael W. Deem and Ramdas Pophale) SiO2 
 PCOD9280217
Probable space group: C 2/C
;
_chemical_formula_sum "Si O2"
_cell_formula_units_Z 56
_cell_length_a 20.474236
_cell_length_b 15.209435
_cell_length_c 8.441915
_cell_angle_alpha 90.000000
_cell_angle_beta 100.916811
_cell_angle_gamma 90.000000
_cell_volume 2581.252154
_symmetry_space_group_name_H-M "C 2/C"
_symmetry_group_IT_number 15
_symmetry_cell_setting 'monoclinic'
loop_
_space_group_symop_operation_xyz
x,y,z
-x,y,1/2-z
-x,-y,-z
x,-y,1/2+z
1/2+x,1/2+y,z
1/2-x,1/2+y,1/2-z
1/2-x,1/2-y,-z
1/2+x,1/2-y,1/2+z
loop_
_atom_site_type_symbol
_atom_site_label
_atom_site_fract_x
_atom_site_fract_y
_atom_site_fract_z
Si Si1 0.500000 0.071474 0.250000
Si Si2 0.477639 0.760388 0.904404
Si Si3 0.787826 0.842064 0.013582
Si Si4 0.000000 0.723541 0.750000
Si Si5 0.296775 0.987085 0.411212
Si Si6 0.705483 0.352656 0.818597
Si Si7 0.610546 0.926030 0.311268
Si Si8 0.671107 0.715572 0.638692
O O1 0.493838 0.139662 0.101333
O O2 0.562174 0.008455 0.259444
O O3 0.500000 0.715974 0.750000
O O4 0.398271 0.764238 0.864833
O O5 0.500642 0.725658 0.084273
O O6 0.829368 0.843542 0.869423
O O7 0.750000 0.750000 0.000000
O O8 0.732025 0.917623 0.977088
O O9 0.820150 0.846902 0.202960
O O10 0.065167 0.660190 0.788292
O O11 0.330906 0.929079 0.290731
O O12 0.236178 0.050380 0.341451
O O13 0.352415 0.050987 0.509504
O O14 0.766939 0.282826 0.840571
O O15 0.668789 0.331871 0.966497
#
# Coordination Sequence:
#
# PCOD9280217 Si02
#       8
#     4   8   8   4   8   8   8   8
#     4   9  20  36  48  84 120 159 206 240 273 360
#     4  10  23  37  56  80 117 155 203 241 293 352
#     4  10  23  37  56  85 118 158 209 251 307 363
#     4  11  22  36  52  86 120 165 204 234 283 354
#     4  12  21  36  58  87 121 165 205 247 303 367
#     4  10  21  37  56  85 119 154 209 247 305 366
#     4  11  21  31  56  81 122 164 196 237 289 354
#     4  10  21  39  58  82 120 162 199 259 301 358
#
# _framework density 21.694897999999998
#
# number of rings (size 3 to 8) (size 9 to 14) (size 15 to 20)
#    0.429    1.143    1.429    4.286    2.000    5.714 
#    0.000    0.000    0.000    0.000    0.000    1.000 
#    0.000    0.000    0.000    0.000    0.000    0.000 
#
# Total GULP energy -156206.963546 kJ/mol
# GULP energy per Si atom -5578.820127 kJ/mol
# Density = 2.164552 g / cm^3
# Si number density = 21.694898 Si / 1000 Ang^3
#
#
#
# Elastic Constant Matrix: (Units=GPa)
#
#
# Indices 1 2 3 4 5 6 
#
# 1 46.8662 7.4020 27.8888 0.0000 -20.7224 0.0000
# 2 7.4020 42.0568 13.3837 0.0000 -7.1104 0.0000
# 3 27.8888 13.3837 164.3707 0.0000 -34.5465 0.0000
# 4 0.0000 0.0000 0.0000 16.0108 0.0000 -1.4532
# 5 -20.7224 -7.1104 -34.5465 0.0000 29.7591 0.0000
# 6 0.0000 0.0000 0.0000 -1.4532 0.0000 11.5631
#
#
#
# Elastic Compliance Matrix: (Units=1/GPa)
#
#
# Indices 1 2 3 4 5 6 
#
# 1 0.031068 -0.001774 -0.000885 0.000000 0.020183 0.000000
# 2 -0.001774 0.025010 -0.000978 0.000000 0.003605 0.000000
# 3 -0.000885 -0.000978 0.008115 0.000000 0.008570 0.000000
# 4 0.000000 0.000000 0.000000 0.063179 0.000000 0.007940
# 5 0.020183 0.003605 0.008570 0.000000 0.058468 0.000000
# 6 0.000000 0.000000 0.000000 0.007940 0.000000 0.087480
#
#
# Mechanical properties :
#
#
# Convention : Reuss Voigt Hill
#
# Bulk Modulus (GPa) = 17.56857 38.96028 28.26442
# Shear Modulus (GPa) = 16.69079 25.10788 20.89934
#
# Velocity S-wave (km/s) = 2.77671 3.40563 3.10712
# Velocity P-wave (km/s) = 4.28903 5.78460 5.09202
#
# Compressibility (1/GPa) = 0.05691983
#
# Stress axis : x y z
#
# Youngs Moduli (GPa) = 32.18721 39.98358 123.23060
#
# Poissons Ratio (x) = 0.07094 0.10906
# Poissons Ratio (y) = 0.05710 0.12048
# Poissons Ratio (z) = 0.02849 0.03909
#
# Static dielectric constant tensor:
#      x y z
#    x 1.764700 0.000000 -0.010020 
#    y 0.000000 1.866670 0.000000 
#    z -0.010020 0.000000 1.921880 
# 
# From -- ./inp_files/56192.got.cif
#   From: 2010.05.17/outbox.cif.g08.bks.cpg/sg15_29_cif.got.tgz:56192.got - 2010.06.03 18:47:42.
