data_PCOD9280146
_publ_section_title
;
Structure prediction by ZEFSAII (Michael W. Deem and Ramdas Pophale) SiO2 
 PCOD9280146
Probable space group: C 2/C
;
_chemical_formula_sum "Si O2"
_cell_formula_units_Z 60
_cell_length_a 17.577048
_cell_length_b 19.449490
_cell_length_c 17.757790
_cell_angle_alpha 90.000000
_cell_angle_beta 35.573068
_cell_angle_gamma 90.000000
_cell_volume 3531.608278
_symmetry_space_group_name_H-M "C 2/C"
_symmetry_group_IT_number 15
_symmetry_cell_setting 'monoclinic'
loop_
_space_group_symop_operation_xyz
x,y,z
-x,y,1/2-z
-x,-y,-z
x,-y,1/2+z
1/2+x,1/2+y,z
1/2-x,1/2+y,1/2-z
1/2-x,1/2-y,-z
1/2+x,1/2-y,1/2+z
loop_
_atom_site_type_symbol
_atom_site_label
_atom_site_fract_x
_atom_site_fract_y
_atom_site_fract_z
Si Si1 0.649771 0.475918 0.960605
Si Si2 0.364109 0.562915 0.678555
Si Si3 0.608301 0.153007 0.059415
Si Si4 0.136677 0.494460 0.593858
Si Si5 0.500000 0.739530 0.750000
Si Si6 0.303459 0.704484 0.781508
Si Si7 0.634681 0.030109 0.426982
Si Si8 0.683614 0.137306 0.261524
O O1 0.634990 0.529960 0.904696
O O2 0.743050 0.509782 0.947832
O O3 0.720242 0.408805 0.867056
O O4 0.504885 0.453606 0.101876
O O5 0.335618 0.643816 0.698198
O O6 0.248748 0.524635 0.816439
O O7 0.667911 0.083729 0.043281
O O8 0.605078 0.211098 0.125341
O O9 0.459514 0.133481 0.160403
O O10 0.676982 0.182334 0.930672
O O11 0.123536 0.535831 0.526139
O O12 0.000000 0.496676 0.750000
O O13 0.422514 0.702249 0.746405
O O14 0.286818 0.781317 0.763002
O O15 0.671717 0.099400 0.351733
O O16 0.500000 0.000000 0.500000
#
# Coordination Sequence:
#
# PCOD9280146 Si02
#       8
#     8   8   8   8   4   8   8   8
#     4  10  22  37  54  77 116 147 184 228 281 322
#     4  10  22  38  53  79 111 151 187 225 270 338
#     4  11  19  34  49  79 111 147 174 217 274 344
#     4  12  19  33  60  82 109 146 188 235 275 324
#     4  10  22  30  44  78 114 138 174 214 280 332
#     4  11  22  32  52  77 110 145 185 220 273 339
#     4  11  20  38  58  80 112 144 190 230 277 332
#     4  10  21  37  54  77 115 148 179 231 280 327
#
# _framework density 16.989426999999999
#
# number of rings (size 3 to 8) (size 9 to 14) (size 15 to 20)
#    0.000    1.333    4.667    2.000    5.600    0.533 
#    0.000    0.000    0.000    0.800    0.000    0.000 
#    0.000    0.000    0.000    0.000    0.000    0.000 
#
# Total GULP energy -167336.524935 kJ/mol
# GULP energy per Si atom -5577.884165 kJ/mol
# Density = 1.695076 g / cm^3
# Si number density = 16.989427 Si / 1000 Ang^3
#
#
#
# Elastic Constant Matrix: (Units=GPa)
#
#
# Indices 1 2 3 4 5 6 
#
# 1 92.5736 30.6454 41.7993 0.0001 -1.5565 0.0011
# 2 30.6454 94.2380 32.1502 0.0001 5.0326 0.0010
# 3 41.7993 32.1502 89.4324 0.0000 -1.3314 0.0014
# 4 0.0001 0.0001 0.0000 0.9152 0.0000 -20.6598
# 5 -1.5565 5.0326 -1.3314 0.0000 26.5552 -0.0011
# 6 0.0011 0.0010 0.0014 -20.6598 -0.0011 -7.2760
#
#
#
# Elastic Compliance Matrix: (Units=1/GPa)
#
#
# Indices 1 2 3 4 5 6 
#
# 1 0.014298 -0.002773 -0.005670 0.000000 0.001079 0.000000
# 2 -0.002773 0.012802 -0.003347 0.000000 -0.002757 0.000000
# 3 -0.005670 -0.003347 0.015051 0.000001 0.001057 0.000000
# 4 0.000000 0.000000 0.000001 0.016785 -0.000002 -0.047660
# 5 0.001079 -0.002757 0.001057 -0.000002 0.038296 0.000000
# 6 0.000000 0.000000 0.000000 -0.047660 0.000000 -0.002111
#
#
# Mechanical properties :
#
#
# Convention : Reuss Voigt Hill
#
# Bulk Modulus (GPa) = 53.84735 53.93710 53.89223
# Shear Modulus (GPa) = 40.03453 15.48215 27.75834
#
# Velocity S-wave (km/s) = 4.85958 3.02202 4.04649
# Velocity P-wave (km/s) = 7.95304 6.63273 7.32270
#
# Compressibility (1/GPa) = 0.01857102
#
# Stress axis : x y z
#
# Youngs Moduli (GPa) = 69.93763 78.11051 66.44197
#
# Poissons Ratio (x) = 0.21660 0.37672
# Poissons Ratio (y) = 0.19394 0.22240
# Poissons Ratio (z) = 0.39654 0.26146
#
# Static dielectric constant tensor:
#      x y z
#    x 1.588480 0.000000 -0.007130 
#    y 0.000000 1.583770 0.000000 
#    z -0.007130 0.000000 1.617750 
# 
# From -- ./inp_files/156355.got.cif
#   From: 2010.05.17/outbox.cif.g08.bks.cpg/sg15_79_cif.got.tgz:156355.got - 2010.06.03 18:47:42.
