data_PCOD9280271
_publ_section_title
;
Structure prediction by ZEFSAII (Michael W. Deem and Ramdas Pophale) SiO2 
 PCOD9280271
Probable space group: C 2/C
;
_chemical_formula_sum "Si O2"
_cell_formula_units_Z 32
_cell_length_a 7.602161
_cell_length_b 38.107162
_cell_length_c 5.084151
_cell_angle_alpha 90.000000
_cell_angle_beta 110.218748
_cell_angle_gamma 90.000000
_cell_volume 1382.104390
_symmetry_space_group_name_H-M "C 2/C"
_symmetry_group_IT_number 15
_symmetry_cell_setting 'monoclinic'
loop_
_space_group_symop_operation_xyz
x,y,z
-x,y,1/2-z
-x,-y,-z
x,-y,1/2+z
1/2+x,1/2+y,z
1/2-x,1/2+y,1/2-z
1/2-x,1/2-y,-z
1/2+x,1/2-y,1/2+z
loop_
_atom_site_type_symbol
_atom_site_label
_atom_site_fract_x
_atom_site_fract_y
_atom_site_fract_z
Si Si1 0.792609 0.486019 0.975946
Si Si2 0.135660 0.084318 0.568755
Si Si3 0.864389 0.837925 0.428961
Si Si4 0.388286 0.222489 0.933550
O O1 0.702030 0.487695 0.640766
O O2 0.775902 0.447984 0.097145
O O3 0.000000 0.500000 0.000000
O O4 0.225149 0.123164 0.607001
O O5 0.000000 0.080919 0.750000
O O6 0.000000 0.083561 0.250000
O O7 0.716907 0.807961 0.282429
O O8 0.000000 0.838561 0.250000
O O9 0.000000 0.831991 0.750000
O O10 0.500000 0.240864 0.750000
O O11 0.500000 0.208610 0.250000
O O12 0.250000 0.250000 0.000000
#
# Coordination Sequence:
#
# PCOD9280271 Si02
#       4
#     8   8   8   8
#     4  10  21  37  57  89 126 169 215 268 341 386
#     4  10  21  38  65  93 125 174 224 275 335 403
#     4  10  22  44  70  97 139 182 226 285 345 409
#     4  12  26  45  71 108 140 184 231 285 347 415
#
# _framework density 23.153096999999999
#
# number of rings (size 3 to 8) (size 9 to 14) (size 15 to 20)
#    0.000    1.500    0.000    4.500    0.000    5.000 
#    4.500    0.000    0.000    0.000    0.000    0.000 
#    0.000    0.000    0.000    0.000    0.000    0.000 
#
# Total GULP energy -89289.930832 kJ/mol
# GULP energy per Si atom -5580.620677 kJ/mol
# Density = 2.310040 g / cm^3
# Si number density = 23.153097 Si / 1000 Ang^3
#
#
#
# Elastic Constant Matrix: (Units=GPa)
#
#
# Indices 1 2 3 4 5 6 
#
# 1 88.7200 67.5132 57.0638 0.0000 -19.9514 0.0000
# 2 67.5132 175.6332 57.4515 0.0000 -0.3737 0.0000
# 3 57.0638 57.4515 201.1782 0.0000 -39.6773 0.0000
# 4 0.0000 0.0000 0.0000 34.2341 0.0000 9.2736
# 5 -19.9514 -0.3737 -39.6773 0.0000 49.8907 0.0000
# 6 0.0000 0.0000 0.0000 9.2736 0.0000 12.4947
#
#
#
# Elastic Compliance Matrix: (Units=1/GPa)
#
#
# Indices 1 2 3 4 5 6 
#
# 1 0.019068 -0.006522 -0.002434 0.000000 0.005641 0.000000
# 2 -0.006522 0.008626 -0.001322 0.000000 -0.003595 0.000000
# 3 -0.002434 -0.001322 0.006932 0.000000 0.004530 0.000000
# 4 0.000000 0.000000 0.000000 0.036562 0.000000 -0.027136
# 5 0.005641 -0.003595 0.004530 0.000000 0.025875 0.000000
# 6 0.000000 0.000000 0.000000 -0.027136 0.000000 0.100175
#
#
# Mechanical properties :
#
#
# Convention : Reuss Voigt Hill
#
# Bulk Modulus (GPa) = 71.07219 92.17649 81.62434
# Shear Modulus (GPa) = 22.47365 38.22408 30.34887
#
# Velocity S-wave (km/s) = 3.11891 4.06757 3.62441
# Velocity P-wave (km/s) = 6.61312 7.87136 7.26952
#
# Compressibility (1/GPa) = 0.01407020
#
# Stress axis : x y z
#
# Youngs Moduli (GPa) = 52.44369 115.93466 144.25720
#
# Poissons Ratio (x) = 0.75609 0.35107
# Poissons Ratio (y) = 0.34202 0.19077
# Poissons Ratio (z) = 0.12763 0.15332
#
# Static dielectric constant tensor:
#      x y z
#    x 0.419120 0.000000 -0.533100 
#    y 0.000000 1.980150 0.000000 
#    z -0.533100 0.000000 1.871360 
# 
# From -- ./inp_files/2714.got.cif
#   From: 2010.05.17/outbox.cif.g08.bks.cpg/sg15_2_cif.got.tgz:2714.got - 2010.06.03 18:47:42.
