data_PCOD9280270
_publ_section_title
;
Structure prediction by ZEFSAII (Michael W. Deem and Ramdas Pophale) SiO2 
 PCOD9280270
Probable space group: C 2/C
;
_chemical_formula_sum "Si O2"
_cell_formula_units_Z 56
_cell_length_a 27.700595
_cell_length_b 17.729282
_cell_length_c 9.473880
_cell_angle_alpha 90.000000
_cell_angle_beta 143.120490
_cell_angle_gamma 90.000000
_cell_volume 2792.264183
_symmetry_space_group_name_H-M "C 2/C"
_symmetry_group_IT_number 15
_symmetry_cell_setting 'monoclinic'
loop_
_space_group_symop_operation_xyz
x,y,z
-x,y,1/2-z
-x,-y,-z
x,-y,1/2+z
1/2+x,1/2+y,z
1/2-x,1/2+y,1/2-z
1/2-x,1/2-y,-z
1/2+x,1/2-y,1/2+z
loop_
_atom_site_type_symbol
_atom_site_label
_atom_site_fract_x
_atom_site_fract_y
_atom_site_fract_z
Si Si1 0.825991 0.146534 0.111555
Si Si2 0.146551 0.877461 0.147753
Si Si3 0.842009 0.262509 0.660070
Si Si4 0.847459 0.419694 0.326666
Si Si5 0.553274 0.476295 0.493217
Si Si6 0.591097 0.233928 0.495784
Si Si7 0.826537 0.571978 0.112526
O O1 0.876358 0.076140 0.287396
O O2 0.861821 0.217305 0.278383
O O3 0.838169 0.153938 0.972495
O O4 0.733467 0.123330 0.913909
O O5 0.114445 0.808968 0.168266
O O6 0.230659 0.911599 0.404226
O O7 0.087979 0.947992 0.005533
O O8 0.750000 0.250000 0.500000
O O9 0.856325 0.259834 0.525541
O O10 0.865511 0.348446 0.753211
O O11 0.913003 0.353777 0.466609
O O12 0.854479 0.497812 0.259598
O O13 0.839600 0.437380 0.475226
O O14 0.500000 0.500000 0.500000
O O15 0.500000 0.436361 0.250000
O O16 0.500000 0.258837 0.250000
#
# Coordination Sequence:
#
# PCOD9280270 Si02
#       7
#     8   8   8   8   8   8   8
#     4  11  23  39  61  90 123 167 207 246 310 383
#     4  10  21  37  57  87 125 161 209 247 300 378
#     4   9  21  40  62  88 124 163 206 256 309 368
#     4  10  21  39  63  88 119 155 206 253 304 373
#     4  12  24  36  54  89 132 167 198 250 313 378
#     4  11  25  42  63  93 125 163 209 263 316 365
#     4   9  19  37  60  89 113 154 207 257 299 356
#
# _framework density 20.055409999999998
#
# number of rings (size 3 to 8) (size 9 to 14) (size 15 to 20)
#    0.000    1.714    2.857    1.714    4.000    3.429 
#    0.000    2.857    0.000    0.857    0.000    0.000 
#    0.000    0.000    0.000    0.000    0.000    0.000 
#
# Total GULP energy -156208.657853 kJ/mol
# GULP energy per Si atom -5578.880638 kJ/mol
# Density = 2.000976 g / cm^3
# Si number density = 20.055410 Si / 1000 Ang^3
#
#
#
# Elastic Constant Matrix: (Units=GPa)
#
#
# Indices 1 2 3 4 5 6 
#
# 1 45.3986 21.8549 0.7310 0.0000 -9.6724 0.0000
# 2 21.8549 159.1043 32.3684 0.0000 -19.5424 0.0000
# 3 0.7310 32.3684 52.6196 0.0000 -9.2191 0.0000
# 4 0.0000 0.0000 0.0000 10.9317 0.0000 -30.5220
# 5 -9.6724 -19.5424 -9.2191 0.0000 20.5908 0.0000
# 6 0.0000 0.0000 0.0000 -30.5220 0.0000 10.8002
#
#
#
# Elastic Compliance Matrix: (Units=1/GPa)
#
#
# Indices 1 2 3 4 5 6 
#
# 1 0.025658 -0.002869 0.003302 0.000000 0.010808 0.000000
# 2 -0.002869 0.008069 -0.004143 0.000000 0.004456 0.000000
# 3 0.003302 -0.004143 0.022885 0.000000 0.007865 0.000000
# 4 0.000000 0.000000 0.000000 -0.013276 0.000000 -0.037518
# 5 0.010808 0.004456 0.007865 0.000000 0.061393 0.000000
# 6 0.000000 0.000000 0.000000 -0.037518 0.000000 -0.013438
#
#
# Mechanical properties :
#
#
# Convention : Reuss Voigt Hill
#
# Bulk Modulus (GPa) = 20.32849 40.78123 30.55486
# Shear Modulus (GPa) = 43.43685 21.94241 32.68963
#
# Velocity S-wave (km/s) = 4.65891 3.31129 4.04166
# Velocity P-wave (km/s) = 6.25290 5.91591 6.08674
#
# Compressibility (1/GPa) = 0.04919205
#
# Stress axis : x y z
#
# Youngs Moduli (GPa) = 38.97476 123.92412 43.69654
#
# Poissons Ratio (x) = 0.35548 -0.14427
# Poissons Ratio (y) = 0.11180 0.18105
# Poissons Ratio (z) = -0.12868 0.51345
#
# Static dielectric constant tensor:
#      x y z
#    x 1.667960 0.000000 0.024830 
#    y 0.000000 1.716890 0.000000 
#    z 0.024830 0.000000 1.697020 
# 
# From -- ./inp_files/62765.got.cif
#   From: 2010.05.17/outbox.cif.g08.bks.cpg/sg15_32_cif.got.tgz:62765.got - 2010.06.03 18:47:42.
