data_PCOD9280240
_publ_section_title
;
Structure prediction by ZEFSAII (Michael W. Deem and Ramdas Pophale) SiO2 
 PCOD9280240
Probable space group: C 2/C
;
_chemical_formula_sum "Si O2"
_cell_formula_units_Z 56
_cell_length_a 7.405156
_cell_length_b 11.741539
_cell_length_c 26.172155
_cell_angle_alpha 90.000000
_cell_angle_beta 110.456980
_cell_angle_gamma 90.000000
_cell_volume 2132.102726
_symmetry_space_group_name_H-M "C 2/C"
_symmetry_group_IT_number 15
_symmetry_cell_setting 'monoclinic'
loop_
_space_group_symop_operation_xyz
x,y,z
-x,y,1/2-z
-x,-y,-z
x,-y,1/2+z
1/2+x,1/2+y,z
1/2-x,1/2+y,1/2-z
1/2-x,1/2-y,-z
1/2+x,1/2-y,1/2+z
loop_
_atom_site_type_symbol
_atom_site_label
_atom_site_fract_x
_atom_site_fract_y
_atom_site_fract_z
Si Si1 0.561294 0.014974 0.619491
Si Si2 0.011935 0.159646 0.489697
Si Si3 0.849013 0.262013 0.090207
Si Si4 0.765976 0.617231 0.956620
Si Si5 0.723755 0.247083 0.754459
Si Si6 0.205263 0.486383 0.741764
Si Si7 0.997598 0.287250 0.869884
O O1 0.490294 0.141962 0.626177
O O2 0.634161 0.023482 0.568616
O O3 0.702520 0.979047 0.679201
O O4 0.411000 0.910643 0.609288
O O5 0.919346 0.287618 0.489721
O O6 0.868609 0.082390 0.509367
O O7 0.045442 0.164719 0.432316
O O8 0.217821 0.165521 0.537460
O O9 0.699731 0.219773 0.116844
O O10 0.630735 0.686584 0.903253
O O11 0.500000 0.235588 0.750000
O O12 0.700550 0.372218 0.724993
O O13 0.920928 0.276810 0.805625
O O14 0.778902 0.114871 0.752788
O O15 0.000000 0.489959 0.750000
#
# Coordination Sequence:
#
# PCOD9280240 Si02
#       7
#     8   8   8   8   8   8   8
#     4  10  21  37  57  82 112 147 186 232 285 340
#     4   8  16  32  54  80 112 148 184 232 274 330
#     4   9  16  34  57  78 114 150 183 230 280 325
#     4   9  18  36  55  78 114 146 185 232 278 331
#     4  10  22  39  59  86 117 151 193 240 291 349
#     4  10  22  39  59  86 117 151 193 240 291 349
#     4  10  21  37  57  82 112 147 186 232 285 340
#
# _framework density 26.265153999999999
#
# number of rings (size 3 to 8) (size 9 to 14) (size 15 to 20)
#    0.000    2.571    0.000    1.714    0.000    5.143 
#    0.000   32.857    0.000    0.000    0.000    0.000 
#    0.000    0.000    0.000    0.000    0.000    0.000 
#
# Total GULP energy -155905.104193 kJ/mol
# GULP energy per Si atom -5568.039435 kJ/mol
# Density = 2.620537 g / cm^3
# Si number density = 26.265154 Si / 1000 Ang^3
#
#
#
# Elastic Constant Matrix: (Units=GPa)
#
#
# Indices 1 2 3 4 5 6 
#
# 1 86.3063 8.4823 -2.1905 0.0000 -10.9470 0.0000
# 2 8.4823 156.9706 5.9293 0.0000 -4.8569 0.0000
# 3 -2.1905 5.9293 24.3907 0.0000 -4.6665 0.0000
# 4 0.0000 0.0000 0.0000 42.1649 0.0000 -12.6464
# 5 -10.9470 -4.8569 -4.6665 0.0000 27.7904 0.0000
# 6 0.0000 0.0000 0.0000 -12.6464 0.0000 35.0325
#
#
#
# Elastic Compliance Matrix: (Units=1/GPa)
#
#
# Indices 1 2 3 4 5 6 
#
# 1 0.012353 -0.000593 0.002237 0.000000 0.005138 0.000000
# 2 -0.000593 0.006479 -0.001505 0.000000 0.000646 0.000000
# 3 0.002237 -0.001505 0.043068 0.000000 0.007850 0.000000
# 4 0.000000 0.000000 0.000000 0.026596 0.000000 0.009601
# 5 0.005138 0.000646 0.007850 0.000000 0.039439 0.000000
# 6 0.000000 0.000000 0.000000 0.009601 0.000000 0.032011
#
#
# Mechanical properties :
#
#
# Convention : Reuss Voigt Hill
#
# Bulk Modulus (GPa) = 16.08281 32.45666 24.26973
# Shear Modulus (GPa) = 27.71701 38.02731 32.87216
#
# Velocity S-wave (km/s) = 3.25203 3.80916 3.54156
# Velocity P-wave (km/s) = 4.49861 5.63297 5.09744
#
# Compressibility (1/GPa) = 0.06217818
#
# Stress axis : x y z
#
# Youngs Moduli (GPa) = 80.94938 154.33293 23.21923
#
# Poissons Ratio (x) = 0.09153 -0.05193
# Poissons Ratio (y) = 0.04801 0.03494
# Poissons Ratio (z) = -0.18105 0.23224
#
# Static dielectric constant tensor:
#      x y z
#    x 2.071600 0.000000 -0.027400 
#    y 0.000000 2.281750 0.000000 
#    z -0.027400 0.000000 2.119190 
# 
# From -- ./inp_files/307260.got.cif
#   From: 2010.05.17/outbox.cif.g08.bks.cpg/sg15_154_cif.got.tgz:307260.got - 2010.06.03 18:47:42.
