data_PCOD9280835
_publ_section_title
;
Structure prediction by ZEFSAII (Michael W. Deem and Ramdas Pophale) SiO2 
 PCOD9280835
Probable space group: C 2/C
;
_chemical_formula_sum "Si O2"
_cell_formula_units_Z 40
_cell_length_a 11.621711
_cell_length_b 25.601580
_cell_length_c 5.590224
_cell_angle_alpha 90.000000
_cell_angle_beta 90.668774
_cell_angle_gamma 90.000000
_cell_volume 1663.169320
_symmetry_space_group_name_H-M "C 2/C"
_symmetry_group_IT_number 15
_symmetry_cell_setting 'monoclinic'
loop_
_space_group_symop_operation_xyz
x,y,z
-x,y,1/2-z
-x,-y,-z
x,-y,1/2+z
1/2+x,1/2+y,z
1/2-x,1/2+y,1/2-z
1/2-x,1/2-y,-z
1/2+x,1/2-y,1/2+z
loop_
_atom_site_type_symbol
_atom_site_label
_atom_site_fract_x
_atom_site_fract_y
_atom_site_fract_z
Si Si1 0.500000 0.643161 0.750000
Si Si2 0.280413 0.689710 0.500216
Si Si3 0.836534 0.894640 0.619445
Si Si4 0.690761 0.030416 0.345309
Si Si5 0.119965 0.374831 0.320987
Si Si6 0.000000 0.619389 0.250000
O O1 0.392078 0.677552 0.664666
O O2 0.547200 0.609637 0.527422
O O3 0.250000 0.750000 0.500000
O O4 0.311261 0.660155 0.253446
O O5 0.171031 0.661511 0.619515
O O6 0.813629 0.940606 0.809063
O O7 0.733691 0.903301 0.421449
O O8 0.599368 0.077668 0.324707
O O9 0.675865 0.005059 0.606521
O O10 0.065226 0.346613 0.552593
O O11 0.000000 0.404031 0.250000
#
# Coordination Sequence:
#
# PCOD9280835 Si02
#       6
#     4   8   8   8   8   4
#     4  10  24  46  73  92 136 180 230 289 356 420
#     4  11  25  44  70 101 136 180 234 287 356 427
#     4  10  24  44  68  95 139 183 231 294 351 422
#     4  11  25  41  68 103 144 187 245 295 360 432
#     4  10  21  37  64  95 139 176 225 280 357 415
#     4  10  22  36  63  94 144 188 226 293 358 426
#
# _framework density 24.050470000000001
#
# number of rings (size 3 to 8) (size 9 to 14) (size 15 to 20)
#    0.000    1.600    0.000    3.600   14.000    6.400 
#    0.000    2.000    0.000    0.000    0.000    0.000 
#    0.000    0.000    0.000    0.000    0.000    0.000 
#
# Total GULP energy -111454.198612 kJ/mol
# GULP energy per Si atom -5572.709931 kJ/mol
# Density = 2.399573 g / cm^3
# Si number density = 24.050470 Si / 1000 Ang^3
#
#
#
# Elastic Constant Matrix: (Units=GPa)
#
#
# Indices 1 2 3 4 5 6 
#
# 1 151.5075 39.3110 43.9134 0.0000 -15.2499 0.0000
# 2 39.3110 89.0561 56.5883 0.0000 -7.3479 0.0000
# 3 43.9134 56.5883 162.7189 0.0000 -48.2143 0.0000
# 4 0.0000 0.0000 0.0000 14.3202 0.0000 5.1880
# 5 -15.2499 -7.3479 -48.2143 0.0000 64.8411 0.0000
# 6 0.0000 0.0000 0.0000 5.1880 0.0000 23.0961
#
#
#
# Elastic Compliance Matrix: (Units=1/GPa)
#
#
# Indices 1 2 3 4 5 6 
#
# 1 0.007650 -0.002767 -0.000849 0.000000 0.000854 0.000000
# 2 -0.002767 0.015789 -0.005652 0.000000 -0.003064 0.000000
# 3 -0.000849 -0.005652 0.010378 0.000000 0.006877 0.000000
# 4 0.000000 0.000000 0.000000 0.076017 0.000000 -0.017075
# 5 0.000854 -0.003064 0.006877 0.000000 0.020389 0.000000
# 6 0.000000 0.000000 0.000000 -0.017075 0.000000 0.047133
#
#
# Mechanical properties :
#
#
# Convention : Reuss Voigt Hill
#
# Bulk Modulus (GPa) = 65.44232 75.87865 70.66049
# Shear Modulus (GPa) = 24.87725 38.01615 31.44670
#
# Velocity S-wave (km/s) = 3.21966 3.98009 3.61990
# Velocity P-wave (km/s) = 6.41024 7.26222 6.84948
#
# Compressibility (1/GPa) = 0.01528063
#
# Stress axis : x y z
#
# Youngs Moduli (GPa) = 130.71231 63.33577 96.35838
#
# Poissons Ratio (x) = 0.17524 0.08184
# Poissons Ratio (y) = 0.36167 0.54463
# Poissons Ratio (z) = 0.11101 0.35798
#
# Static dielectric constant tensor:
#      x y z
#    x 2.014190 0.000000 0.132540 
#    y 0.000000 1.909010 0.000000 
#    z 0.132540 0.000000 2.240750 
# 
# From -- ./inp_files/4972.got.cif
#   From: 2010.05.17/outbox.cif.g08.bks.cpg/sg15_3_cif.got.tgz:4972.got - 2010.06.03 18:47:42.
