data_PCOD9280608
_publ_section_title
;
Structure prediction by ZEFSAII (Michael W. Deem and Ramdas Pophale) SiO2 
 PCOD9280608
Probable space group: C 2/C
;
_chemical_formula_sum "Si O2"
_cell_formula_units_Z 48
_cell_length_a 10.953234
_cell_length_b 20.872793
_cell_length_c 9.466201
_cell_angle_alpha 90.000000
_cell_angle_beta 57.045288
_cell_angle_gamma 90.000000
_cell_volume 1815.987229
_symmetry_space_group_name_H-M "C 2/C"
_symmetry_group_IT_number 15
_symmetry_cell_setting 'monoclinic'
loop_
_space_group_symop_operation_xyz
x,y,z
-x,y,1/2-z
-x,-y,-z
x,-y,1/2+z
1/2+x,1/2+y,z
1/2-x,1/2+y,1/2-z
1/2-x,1/2-y,-z
1/2+x,1/2-y,1/2+z
loop_
_atom_site_type_symbol
_atom_site_label
_atom_site_fract_x
_atom_site_fract_y
_atom_site_fract_z
Si Si1 0.727844 0.613521 0.578215
Si Si2 0.500000 0.501576 0.250000
Si Si3 0.269861 0.673468 0.416653
Si Si4 0.006083 0.762077 0.561260
Si Si5 0.207325 0.934649 0.799004
Si Si6 0.500000 0.721017 0.750000
Si Si7 0.418632 0.952979 0.159568
O O1 0.632581 0.547762 0.646442
O O2 0.747617 0.614884 0.397621
O O3 0.636244 0.673915 0.681742
O O4 0.860779 0.603896 0.598777
O O5 0.455814 0.545395 0.144335
O O6 0.114222 0.705288 0.542632
O O7 0.379527 0.678928 0.480195
O O8 0.246166 0.602675 0.372361
O O9 0.363668 0.714175 0.237478
O O10 0.976971 0.746872 0.415829
O O11 0.288272 0.999656 0.788045
O O12 0.500000 0.934701 0.250000
O O13 0.500000 0.000000 0.000000
#
# Coordination Sequence:
#
# PCOD9280608 Si02
#       7
#     8   4   8   8   8   4   8
#     4  10  21  37  61  94 127 162 216 264 318 381
#     4   9  20  32  62  94 124 158 210 265 308 368
#     4  10  22  43  67  93 130 174 219 270 334 396
#     4  10  22  42  66  95 131 166 217 281 331 387
#     4  11  20  38  64  90 125 171 215 257 328 387
#     4  11  22  40  66  96 124 158 224 277 324 382
#     4  11  23  41  59  88 134 172 210 264 319 397
#
# _framework density 26.431902999999998
#
# number of rings (size 3 to 8) (size 9 to 14) (size 15 to 20)
#    0.000    1.667    3.333    1.500    0.000    2.000 
#    4.500    0.000    0.000    0.000    0.000    0.000 
#    0.000    0.000    0.000    0.000    0.000    0.000 
#
# Total GULP energy -134061.509231 kJ/mol
# GULP energy per Si atom -5585.896218 kJ/mol
# Density = 2.637174 g / cm^3
# Si number density = 26.431903 Si / 1000 Ang^3
#
#
#
# Elastic Constant Matrix: (Units=GPa)
#
#
# Indices 1 2 3 4 5 6 
#
# 1 143.3415 29.9091 50.7707 0.0000 31.6554 0.0000
# 2 29.9091 65.5778 5.6132 0.0000 0.5245 0.0000
# 3 50.7707 5.6132 107.3057 0.0000 31.1154 0.0000
# 4 0.0000 0.0000 0.0000 41.6016 0.0000 -2.6345
# 5 31.6554 0.5245 31.1154 0.0000 48.5001 0.0000
# 6 0.0000 0.0000 0.0000 -2.6345 0.0000 20.0305
#
#
#
# Elastic Compliance Matrix: (Units=1/GPa)
#
#
# Indices 1 2 3 4 5 6 
#
# 1 0.009973 -0.004237 -0.003222 0.000000 -0.004396 0.000000
# 2 -0.004237 0.017125 0.000443 0.000000 0.002296 0.000000
# 3 -0.003222 0.000443 0.012546 0.000000 -0.005951 0.000000
# 4 0.000000 0.000000 0.000000 0.024239 0.000000 0.003188
# 5 -0.004396 0.002296 -0.005951 0.000000 0.027281 0.000000
# 6 0.000000 0.000000 0.000000 0.003188 0.000000 0.050343
#
#
# Mechanical properties :
#
#
# Convention : Reuss Voigt Hill
#
# Bulk Modulus (GPa) = 39.04491 54.31234 46.67862
# Shear Modulus (GPa) = 30.47354 37.35522 33.91438
#
# Velocity S-wave (km/s) = 3.39913 3.76342 3.58590
# Velocity P-wave (km/s) = 5.49631 6.28308 5.90282
#
# Compressibility (1/GPa) = 0.02561153
#
# Stress axis : x y z
#
# Youngs Moduli (GPa) = 100.27523 58.39292 79.70670
#
# Poissons Ratio (x) = 0.24743 0.25682
# Poissons Ratio (y) = 0.42490 -0.03533
# Poissons Ratio (z) = 0.32309 -0.02588
#
# Static dielectric constant tensor:
#      x y z
#    x 2.117870 0.000000 0.005930 
#    y 0.000000 2.043810 0.000000 
#    z 0.005930 0.000000 2.226000 
# 
# From -- ./inp_files/32575.got.cif
#   From: 2010.05.17/outbox.cif.g08.bks.cpg/sg15_17_cif.got.tgz:32575.got - 2010.06.03 18:47:42.
