data_PCOD9280471
_publ_section_title
;
Structure prediction by ZEFSAII (Michael W. Deem and Ramdas Pophale) SiO2 
 PCOD9280471
Probable space group: C 2/C
;
_chemical_formula_sum "Si O2"
_cell_formula_units_Z 44
_cell_length_a 13.964617
_cell_length_b 14.387559
_cell_length_c 10.030337
_cell_angle_alpha 90.000000
_cell_angle_beta 89.483785
_cell_angle_gamma 90.000000
_cell_volume 2015.180929
_symmetry_space_group_name_H-M "C 2/C"
_symmetry_group_IT_number 15
_symmetry_cell_setting 'monoclinic'
loop_
_space_group_symop_operation_xyz
x,y,z
-x,y,1/2-z
-x,-y,-z
x,-y,1/2+z
1/2+x,1/2+y,z
1/2-x,1/2+y,1/2-z
1/2-x,1/2-y,-z
1/2+x,1/2-y,1/2+z
loop_
_atom_site_type_symbol
_atom_site_label
_atom_site_fract_x
_atom_site_fract_y
_atom_site_fract_z
Si Si1 0.614773 0.890920 0.353838
Si Si2 0.000000 0.317409 0.750000
Si Si3 0.804703 0.103555 0.972366
Si Si4 0.506859 0.725374 0.476164
Si Si5 0.641013 0.967245 0.626186
Si Si6 0.561997 0.544016 0.118799
O O1 0.719664 0.849107 0.389136
O O2 0.536607 0.813711 0.388068
O O3 0.606112 0.968890 0.472114
O O4 0.620068 0.942313 0.213332
O O5 0.971796 0.256493 0.622295
O O6 0.084984 0.383258 0.697277
O O7 0.893373 0.169419 0.001708
O O8 0.751662 0.062684 0.103883
O O9 0.841598 0.014702 0.888518
O O10 0.434295 0.654019 0.407544
O O11 0.500000 0.527775 0.250000
O O12 0.500000 0.500000 0.000000
#
# Coordination Sequence:
#
# PCOD9280471 Si02
#       6
#     8   4   8   8   8   8
#     4   9  20  38  60  84 115 161 195 250 289 357
#     4  10  22  38  58  90 110 168 196 244 298 376
#     4   9  21  37  62  86 119 156 200 244 304 365
#     4  10  21  37  60  89 121 154 204 247 300 357
#     4   9  21  37  59  84 117 151 210 233 305 357
#     4  10  23  38  60  92 122 156 196 249 304 360
#
# _framework density 21.834268000000002
#
# number of rings (size 3 to 8) (size 9 to 14) (size 15 to 20)
#    1.091    1.455    0.000    0.545   10.182    2.909 
#    4.909    0.000    0.000    3.273    0.000    0.000 
#    0.000    0.000    0.000    0.000    0.000    0.000 
#
# Total GULP energy -122700.728063 kJ/mol
# GULP energy per Si atom -5577.305821 kJ/mol
# Density = 2.178457 g / cm^3
# Si number density = 21.834268 Si / 1000 Ang^3
#
#
#
# Elastic Constant Matrix: (Units=GPa)
#
#
# Indices 1 2 3 4 5 6 
#
# 1 52.6037 12.0158 20.7363 0.0000 -23.5194 0.0000
# 2 12.0158 64.7448 32.2709 0.0000 -8.7254 0.0000
# 3 20.7363 32.2709 109.6184 0.0000 -22.5537 0.0000
# 4 0.0000 0.0000 0.0000 24.1716 0.0000 -9.8548
# 5 -23.5194 -8.7254 -22.5537 0.0000 35.2397 0.0000
# 6 0.0000 0.0000 0.0000 -9.8548 0.0000 32.4922
#
#
#
# Elastic Compliance Matrix: (Units=1/GPa)
#
#
# Indices 1 2 3 4 5 6 
#
# 1 0.027637 -0.002307 -0.001004 0.000000 0.017232 0.000000
# 2 -0.002307 0.018341 -0.005004 0.000000 -0.000201 0.000000
# 3 -0.001004 -0.005004 0.011969 0.000000 0.005751 0.000000
# 4 0.000000 0.000000 0.000000 0.047208 0.000000 0.014318
# 5 0.017232 -0.000201 0.005751 0.000000 0.043509 0.000000
# 6 0.000000 0.000000 0.000000 0.014318 0.000000 0.035119
#
#
# Mechanical properties :
#
#
# Convention : Reuss Voigt Hill
#
# Bulk Modulus (GPa) = 24.20291 39.66812 31.93551
# Shear Modulus (GPa) = 23.34435 29.17697 26.26066
#
# Velocity S-wave (km/s) = 3.27335 3.65950 3.47180
# Velocity P-wave (km/s) = 5.03938 6.00526 5.54340
#
# Compressibility (1/GPa) = 0.04131735
#
# Stress axis : x y z
#
# Youngs Moduli (GPa) = 36.18346 54.52393 83.54918
#
# Poissons Ratio (x) = 0.12576 0.08385
# Poissons Ratio (y) = 0.08346 0.41811
# Poissons Ratio (z) = 0.03631 0.27286
#
# Static dielectric constant tensor:
#      x y z
#    x 1.848100 0.000000 0.051250 
#    y 0.000000 1.839050 0.000000 
#    z 0.051250 0.000000 1.817010 
# 
# From -- ./inp_files/47115.got.cif
#   From: 2010.05.17/outbox.cif.g08.bks.cpg/sg15_24_cif.got.tgz:47115.got - 2010.06.03 18:47:42.
