data_PCOD9280790
_publ_section_title
;
Structure prediction by ZEFSAII (Michael W. Deem and Ramdas Pophale) SiO2 
 PCOD9280790
Probable space group: C 2/C
;
_chemical_formula_sum "Si O2"
_cell_formula_units_Z 56
_cell_length_a 12.079084
_cell_length_b 14.089403
_cell_length_c 14.558269
_cell_angle_alpha 90.000000
_cell_angle_beta 87.940217
_cell_angle_gamma 90.000000
_cell_volume 2476.028451
_symmetry_space_group_name_H-M "C 2/C"
_symmetry_group_IT_number 15
_symmetry_cell_setting 'monoclinic'
loop_
_space_group_symop_operation_xyz
x,y,z
-x,y,1/2-z
-x,-y,-z
x,-y,1/2+z
1/2+x,1/2+y,z
1/2-x,1/2+y,1/2-z
1/2-x,1/2-y,-z
1/2+x,1/2-y,1/2+z
loop_
_atom_site_type_symbol
_atom_site_label
_atom_site_fract_x
_atom_site_fract_y
_atom_site_fract_z
Si Si1 0.243464 0.008633 0.701156
Si Si2 0.648632 0.516739 0.898901
Si Si3 0.954934 0.871834 0.849983
Si Si4 0.541340 0.900618 0.852112
Si Si5 0.544734 0.288391 0.458759
Si Si6 0.816682 0.392681 0.947510
Si Si7 0.293813 0.299759 0.391490
O O1 0.156066 0.931893 0.665015
O O2 0.364020 0.978425 0.662928
O O3 0.230711 0.004325 0.810938
O O4 0.210550 0.117356 0.682019
O O5 0.542744 0.450605 0.884184
O O6 0.613032 0.622191 0.919659
O O7 0.724237 0.469917 0.974145
O O8 0.000000 0.836240 0.750000
O O9 0.945138 0.794692 0.931131
O O10 0.500000 0.874611 0.750000
O O11 0.581362 0.807660 0.906751
O O12 0.434188 0.931841 0.914322
O O13 0.417315 0.305218 0.431171
O O14 0.781292 0.312551 0.872173
O O15 0.807676 0.327641 0.038385
#
# Coordination Sequence:
#
# PCOD9280790 Si02
#       7
#     8   8   8   8   8   8   8
#     4  11  23  38  61  94 135 171 210 269 330 385
#     4  11  20  35  65  97 127 158 211 276 325 369
#     4  10  21  37  63  97 128 160 212 280 340 372
#     4  11  25  42  62  94 135 176 220 260 322 398
#     4  11  22  38  69 100 124 170 226 271 321 391
#     4  10  21  39  65  91 125 167 218 264 317 384
#     4  10  21  38  66  97 120 167 224 268 312 386
#
# _framework density 22.616864
#
# number of rings (size 3 to 8) (size 9 to 14) (size 15 to 20)
#    0.000    1.429    4.286    1.286    4.000    1.143 
#    0.000    0.000    3.143    0.857    0.000    0.000 
#    0.000    0.000    0.000    0.000    0.000    0.000 
#
# Total GULP energy -156284.911659 kJ/mol
# GULP energy per Si atom -5581.603988 kJ/mol
# Density = 2.256539 g / cm^3
# Si number density = 22.616864 Si / 1000 Ang^3
#
#
#
# Elastic Constant Matrix: (Units=GPa)
#
#
# Indices 1 2 3 4 5 6 
#
# 1 91.7502 21.0144 7.9535 0.0000 -22.3478 0.0000
# 2 21.0144 83.3694 20.1755 0.0000 9.4778 0.0000
# 3 7.9535 20.1755 69.7056 0.0000 -3.9106 0.0000
# 4 0.0000 0.0000 0.0000 23.1091 0.0000 -4.3854
# 5 -22.3478 9.4778 -3.9106 0.0000 24.5929 0.0000
# 6 0.0000 0.0000 0.0000 -4.3854 0.0000 33.6756
#
#
#
# Elastic Compliance Matrix: (Units=1/GPa)
#
#
# Indices 1 2 3 4 5 6 
#
# 1 0.016606 -0.006433 0.000961 0.000000 0.017722 0.000000
# 2 -0.006433 0.016207 -0.004677 0.000000 -0.012836 0.000000
# 3 0.000961 -0.004677 0.015882 0.000000 0.005202 0.000000
# 4 0.000000 0.000000 0.000000 0.044370 0.000000 0.005778
# 5 0.017722 -0.012836 0.005202 0.000000 0.062540 0.000000
# 6 0.000000 0.000000 0.000000 0.005778 0.000000 0.030448
#
#
# Mechanical properties :
#
#
# Convention : Reuss Voigt Hill
#
# Bulk Modulus (GPa) = 35.21417 38.12354 36.66886
# Shear Modulus (GPa) = 23.16788 29.32097 26.24442
#
# Velocity S-wave (km/s) = 3.20404 3.60449 3.41015
# Velocity P-wave (km/s) = 5.41216 5.84944 5.63505
#
# Compressibility (1/GPa) = 0.02839766
#
# Stress axis : x y z
#
# Youngs Moduli (GPa) = 60.21967 61.70000 62.96476
#
# Poissons Ratio (x) = 0.39692 -0.06054
# Poissons Ratio (y) = 0.38740 0.29449
# Poissons Ratio (z) = -0.05790 0.28858
#
# Static dielectric constant tensor:
#      x y z
#    x 1.844560 0.000000 0.023240 
#    y 0.000000 2.000320 0.000000 
#    z 0.023240 0.000000 1.943380 
# 
# From -- ./inp_files/144268.got.cif
#   From: 2010.05.17/outbox.cif.g08.bks.cpg/sg15_73_cif.got.tgz:144268.got - 2010.06.03 18:47:42.
