data_PCOD9280473
_publ_section_title
;
Structure prediction by ZEFSAII (Michael W. Deem and Ramdas Pophale) SiO2 
 PCOD9280473
Probable space group: C 2/C
;
_chemical_formula_sum "Si O2"
_cell_formula_units_Z 44
_cell_length_a 23.188013
_cell_length_b 10.537023
_cell_length_c 12.795989
_cell_angle_alpha 90.000000
_cell_angle_beta 35.125765
_cell_angle_gamma 90.000000
_cell_volume 1798.891117
_symmetry_space_group_name_H-M "C 2/C"
_symmetry_group_IT_number 15
_symmetry_cell_setting 'monoclinic'
loop_
_space_group_symop_operation_xyz
x,y,z
-x,y,1/2-z
-x,-y,-z
x,-y,1/2+z
1/2+x,1/2+y,z
1/2-x,1/2+y,1/2-z
1/2-x,1/2-y,-z
1/2+x,1/2-y,1/2+z
loop_
_atom_site_type_symbol
_atom_site_label
_atom_site_fract_x
_atom_site_fract_y
_atom_site_fract_z
Si Si1 0.120039 0.809604 0.482790
Si Si2 0.000000 0.399490 0.250000
Si Si3 0.317738 0.300820 0.753309
Si Si4 0.673579 0.576502 0.483724
Si Si5 0.895026 0.057364 0.700107
Si Si6 0.395113 0.032696 0.713037
O O1 0.203838 0.739210 0.423853
O O2 0.145183 0.847256 0.327624
O O3 0.035836 0.704236 0.611365
O O4 0.113430 0.946613 0.545498
O O5 0.079480 0.479442 0.200216
O O6 0.337959 0.338183 0.602336
O O7 0.332588 0.427329 0.797670
O O8 0.373665 0.177385 0.709686
O O9 0.617945 0.623959 0.669921
O O10 0.792431 0.542674 0.329189
O O11 0.000000 0.000000 0.500000
O O12 0.500000 0.000000 0.500000
#
# Coordination Sequence:
#
# PCOD9280473 Si02
#       6
#     8   4   8   8   8   8
#     4  10  21  37  60  89 122 166 214 257 316 386
#     4  12  22  40  68  92 128 172 212 266 320 370
#     4  10  22  41  62  89 128 165 210 267 320 377
#     4  10  22  40  63  90 127 168 209 267 324 374
#     4  11  22  38  60  91 124 162 217 262 311 383
#     4  11  24  42  67  97 128 167 217 262 318 388
#
# _framework density 24.459513000000001
#
# number of rings (size 3 to 8) (size 9 to 14) (size 15 to 20)
#    0.000    1.455    0.000    5.455    0.000    8.727 
#    0.000    5.455    0.000    0.000    0.000    0.000 
#    0.000    0.000    0.000    0.000    0.000    0.000 
#
# Total GULP energy -122789.619926 kJ/mol
# GULP energy per Si atom -5581.346360 kJ/mol
# Density = 2.440384 g / cm^3
# Si number density = 24.459513 Si / 1000 Ang^3
#
#
#
# Elastic Constant Matrix: (Units=GPa)
#
#
# Indices 1 2 3 4 5 6 
#
# 1 137.6536 16.3110 30.0041 0.0000 11.8513 0.0000
# 2 16.3110 45.3931 0.7040 0.0000 -0.4813 0.0000
# 3 30.0041 0.7040 76.3632 0.0000 6.2458 0.0000
# 4 0.0000 0.0000 0.0000 8.3872 0.0000 -4.0247
# 5 11.8513 -0.4813 6.2458 0.0000 51.2764 0.0000
# 6 0.0000 0.0000 0.0000 -4.0247 0.0000 -16.2036
#
#
#
# Elastic Compliance Matrix: (Units=1/GPa)
#
#
# Indices 1 2 3 4 5 6 
#
# 1 0.008447 -0.003003 -0.003161 0.000000 -0.001595 0.000000
# 2 -0.003003 0.023103 0.000901 0.000000 0.000801 0.000000
# 3 -0.003161 0.000901 0.014412 0.000000 -0.001017 0.000000
# 4 0.000000 0.000000 0.000000 0.106531 0.000000 -0.026461
# 5 -0.001595 0.000801 -0.001017 0.000000 0.020002 0.000000
# 6 0.000000 0.000000 0.000000 -0.026461 0.000000 -0.055142
#
#
# Mechanical properties :
#
#
# Convention : Reuss Voigt Hill
#
# Bulk Modulus (GPa) = 28.21867 39.27201 33.74534
# Shear Modulus (GPa) = 35.79339 22.85139 29.32239
#
# Velocity S-wave (km/s) = 3.82956 3.05987 3.46614
# Velocity P-wave (km/s) = 5.57817 5.34552 5.46308
#
# Compressibility (1/GPa) = 0.03543754
#
# Stress axis : x y z
#
# Youngs Moduli (GPa) = 118.38898 43.28375 69.38663
#
# Poissons Ratio (x) = 0.12998 0.21931
# Poissons Ratio (y) = 0.35553 -0.06255
# Poissons Ratio (z) = 0.37419 -0.03902
#
# Static dielectric constant tensor:
#      x y z
#    x 2.028870 0.000000 -0.029850 
#    y 0.000000 1.979540 0.000000 
#    z -0.029850 0.000000 2.109050 
# 
# From -- ./inp_files/95088.got.cif
#   From: 2010.05.17/outbox.cif.g08.bks.cpg/sg15_48_cif.got.tgz:95088.got - 2010.06.03 18:47:42.
