data_PCOD9280439
_publ_section_title
;
Structure prediction by ZEFSAII (Michael W. Deem and Ramdas Pophale) SiO2 
 PCOD9280439
Probable space group: C 2/C
;
_chemical_formula_sum "Si O2"
_cell_formula_units_Z 56
_cell_length_a 18.586441
_cell_length_b 21.470391
_cell_length_c 15.323451
_cell_angle_alpha 90.000000
_cell_angle_beta 156.015101
_cell_angle_gamma 90.000000
_cell_volume 2485.701041
_symmetry_space_group_name_H-M "C 2/C"
_symmetry_group_IT_number 15
_symmetry_cell_setting 'monoclinic'
loop_
_space_group_symop_operation_xyz
x,y,z
-x,y,1/2-z
-x,-y,-z
x,-y,1/2+z
1/2+x,1/2+y,z
1/2-x,1/2+y,1/2-z
1/2-x,1/2-y,-z
1/2+x,1/2-y,1/2+z
loop_
_atom_site_type_symbol
_atom_site_label
_atom_site_fract_x
_atom_site_fract_y
_atom_site_fract_z
Si Si1 0.003851 0.162050 0.151197
Si Si2 0.994355 0.325036 0.642189
Si Si3 0.833655 0.545010 0.916196
Si Si4 0.600838 0.308393 0.455920
Si Si5 0.943457 0.423781 0.004243
Si Si6 0.101131 0.296920 0.453584
Si Si7 0.029740 0.912291 0.512047
O O1 0.202533 0.182283 0.349854
O O2 0.000000 0.145624 0.250000
O O3 0.895732 0.225469 0.011873
O O4 0.971360 0.108420 0.044785
O O5 0.000000 0.312353 0.750000
O O6 0.895785 0.390158 0.525483
O O7 0.904430 0.261407 0.510047
O O8 0.194493 0.327074 0.829437
O O9 0.928269 0.481926 0.054489
O O10 0.621395 0.540149 0.686776
O O11 0.909669 0.556615 0.902619
O O12 0.500000 0.313673 0.250000
O O13 0.512361 0.353697 0.427603
O O14 0.740155 0.426106 0.742541
O O15 0.975689 0.353688 0.073578
O O16 0.000000 0.294762 0.250000
#
# Coordination Sequence:
#
# PCOD9280439 Si02
#       7
#     8   8   8   8   8   8   8
#     4  10  22  36  59  95 119 155 197 244 311 362
#     4  11  22  39  62  91 126 158 203 250 308 374
#     4  11  23  40  64  83 124 163 207 253 301 353
#     4  11  22  39  61  98 126 154 202 252 313 370
#     4  10  24  41  58  91 116 166 211 249 297 364
#     4  10  21  37  60  85 123 152 197 253 298 363
#     4  11  23  40  67  89 124 161 202 258 307 363
#
# _framework density 22.528856000000001
#
# number of rings (size 3 to 8) (size 9 to 14) (size 15 to 20)
#    0.000    1.429    1.429    5.571    6.000    1.714 
#    0.000    0.000    0.000    1.714    0.000    0.000 
#    0.000    0.000    0.000    0.000    0.000    0.000 
#
# Total GULP energy -156167.358609 kJ/mol
# GULP energy per Si atom -5577.405665 kJ/mol
# Density = 2.247758 g / cm^3
# Si number density = 22.528856 Si / 1000 Ang^3
#
#
#
# Elastic Constant Matrix: (Units=GPa)
#
#
# Indices 1 2 3 4 5 6 
#
# 1 70.3268 13.1738 -6.4576 0.0000 6.3095 0.0000
# 2 13.1738 59.7306 3.2812 0.0000 -2.8086 0.0000
# 3 -6.4576 3.2812 64.2119 0.0000 11.6036 0.0000
# 4 0.0000 0.0000 0.0000 39.5378 0.0000 2.8163
# 5 6.3095 -2.8086 11.6036 0.0000 23.8115 0.0000
# 6 0.0000 0.0000 0.0000 2.8163 0.0000 43.1791
#
#
#
# Elastic Compliance Matrix: (Units=1/GPa)
#
#
# Indices 1 2 3 4 5 6 
#
# 1 0.015759 -0.003918 0.002876 0.000000 -0.006040 0.000000
# 2 -0.003918 0.017914 -0.002060 0.000000 0.004155 0.000000
# 3 0.002876 -0.002060 0.017709 0.000000 -0.009635 0.000000
# 4 0.000000 0.000000 0.000000 0.025410 0.000000 -0.001657
# 5 -0.006040 0.004155 -0.009635 0.000000 0.048782 0.000000
# 6 0.000000 0.000000 0.000000 -0.001657 0.000000 0.023267
#
#
# Mechanical properties :
#
#
# Convention : Reuss Voigt Hill
#
# Bulk Modulus (GPa) = 22.13387 23.80713 22.97050
# Shear Modulus (GPa) = 29.39349 33.59049 31.49199
#
# Velocity S-wave (km/s) = 3.61599 3.86553 3.74284
# Velocity P-wave (km/s) = 5.22301 5.52390 5.37556
#
# Compressibility (1/GPa) = 0.04517964
#
# Stress axis : x y z
#
# Youngs Moduli (GPa) = 63.45503 55.82084 56.46813
#
# Poissons Ratio (x) = 0.21869 -0.16243
# Poissons Ratio (y) = 0.24860 0.11634
# Poissons Ratio (z) = -0.18253 0.11501
#
# Static dielectric constant tensor:
#      x y z
#    x 1.840820 0.000000 -0.025890 
#    y 0.000000 2.052010 0.000000 
#    z -0.025890 0.000000 1.875180 
# 
# From -- ./inp_files/57454.got.cif
#   From: 2010.05.17/outbox.cif.g08.bks.cpg/sg15_29_cif.got.tgz:57454.got - 2010.06.03 18:47:42.
