data_PCOD9280081
_publ_section_title
;
Structure prediction by ZEFSAII (Michael W. Deem and Ramdas Pophale) SiO2 
 PCOD9280081
Probable space group: C 2/C
;
_chemical_formula_sum "Si O2"
_cell_formula_units_Z 32
_cell_length_a 5.257063
_cell_length_b 18.551535
_cell_length_c 14.534758
_cell_angle_alpha 90.000000
_cell_angle_beta 87.215851
_cell_angle_gamma 90.000000
_cell_volume 1415.852131
_symmetry_space_group_name_H-M "C 2/C"
_symmetry_group_IT_number 15
_symmetry_cell_setting 'monoclinic'
loop_
_space_group_symop_operation_xyz
x,y,z
-x,y,1/2-z
-x,-y,-z
x,-y,1/2+z
1/2+x,1/2+y,z
1/2-x,1/2+y,1/2-z
1/2-x,1/2-y,-z
1/2+x,1/2-y,1/2+z
loop_
_atom_site_type_symbol
_atom_site_label
_atom_site_fract_x
_atom_site_fract_y
_atom_site_fract_z
Si Si1 0.667308 0.423893 0.050844
Si Si2 0.007531 0.216383 0.454255
Si Si3 0.165967 0.536381 0.598975
Si Si4 0.500000 0.322291 0.750000
Si Si5 0.000000 0.420679 0.750000
O O1 0.439607 0.434460 0.127312
O O2 0.943260 0.405081 0.088730
O O3 0.549599 0.367633 0.980692
O O4 0.748072 0.497483 0.997450
O O5 0.250000 0.250000 0.500000
O O6 0.750000 0.250000 0.500000
O O7 0.015891 0.221894 0.344276
O O8 0.059000 0.473635 0.664723
O O9 0.247195 0.371559 0.761814
#
# Coordination Sequence:
#
# PCOD9280081 Si02
#       5
#     8   8   8   4   4
#     4  10  21  40  60  95 127 171 209 270 338 406
#     4  12  26  46  69  97 136 190 235 284 339 403
#     4  10  21  36  65  94 134 158 208 278 345 395
#     4  12  26  44  69 100 133 176 246 284 326 424
#     4  12  22  40  67 106 131 168 228 286 340 418
#
# _framework density 22.601230000000001
#
# number of rings (size 3 to 8) (size 9 to 14) (size 15 to 20)
#    0.000    1.000    2.500    4.500    7.000    0.000 
#    0.000    7.500    0.000    0.000    0.000    0.000 
#    0.000    0.000    0.000    0.000    0.000    0.000 
#
# Total GULP energy -89312.989716 kJ/mol
# GULP energy per Si atom -5582.061857 kJ/mol
# Density = 2.254979 g / cm^3
# Si number density = 22.601230 Si / 1000 Ang^3
#
#
#
# Elastic Constant Matrix: (Units=GPa)
#
#
# Indices 1 2 3 4 5 6 
#
# 1 248.2637 37.8485 73.4885 0.0000 -9.2480 0.0000
# 2 37.8485 60.8537 39.9948 0.0000 3.2137 0.0000
# 3 73.4885 39.9948 148.8807 0.0000 0.0356 0.0000
# 4 0.0000 0.0000 0.0000 19.9011 0.0000 14.4659
# 5 -9.2480 3.2137 0.0356 0.0000 26.6650 0.0000
# 6 0.0000 0.0000 0.0000 14.4659 0.0000 39.8771
#
#
#
# Elastic Compliance Matrix: (Units=1/GPa)
#
#
# Indices 1 2 3 4 5 6 
#
# 1 0.004967 -0.001920 -0.001936 0.000000 0.001957 0.000000
# 2 -0.001920 0.020853 -0.004653 0.000000 -0.003173 0.000000
# 3 -0.001936 -0.004653 0.008923 0.000000 -0.000123 0.000000
# 4 0.000000 0.000000 0.000000 0.068243 0.000000 -0.024756
# 5 0.001957 -0.003173 -0.000123 0.000000 0.038563 0.000000
# 6 0.000000 0.000000 0.000000 -0.024756 0.000000 0.034058
#
#
# Mechanical properties :
#
#
# Convention : Reuss Voigt Hill
#
# Bulk Modulus (GPa) = 56.42366 84.51796 70.47081
# Shear Modulus (GPa) = 25.18465 37.73306 31.45885
#
# Velocity S-wave (km/s) = 3.34174 4.09040 3.73488
# Velocity P-wave (km/s) = 6.31733 7.73207 7.06023
#
# Compressibility (1/GPa) = 0.01772306
#
# Stress axis : x y z
#
# Youngs Moduli (GPa) = 201.34052 47.95513 112.07378
#
# Poissons Ratio (x) = 0.09206 0.21701
# Poissons Ratio (y) = 0.38653 0.52153
# Poissons Ratio (z) = 0.38986 0.22316
#
# Static dielectric constant tensor:
#      x y z
#    x 2.003020 0.000000 0.084630 
#    y 0.000000 1.895690 0.000000 
#    z 0.084630 0.000000 1.786020 
# 
# From -- ./inp_files/128165.got.cif
#   From: 2010.05.17/outbox.cif.g08.bks.cpg/sg15_65_cif.got.tgz:128165.got - 2010.06.03 18:47:42.
