data_PCOD9280999
_publ_section_title
;
Structure prediction by ZEFSAII (Michael W. Deem and Ramdas Pophale) SiO2 
 PCOD9280999
Probable space group: C 2/C
;
_chemical_formula_sum "Si O2"
_cell_formula_units_Z 52
_cell_length_a 21.391613
_cell_length_b 23.028613
_cell_length_c 5.751431
_cell_angle_alpha 90.000000
_cell_angle_beta 65.773042
_cell_angle_gamma 90.000000
_cell_volume 2583.731449
_symmetry_space_group_name_H-M "C 2/C"
_symmetry_group_IT_number 15
_symmetry_cell_setting 'monoclinic'
loop_
_space_group_symop_operation_xyz
x,y,z
-x,y,1/2-z
-x,-y,-z
x,-y,1/2+z
1/2+x,1/2+y,z
1/2-x,1/2+y,1/2-z
1/2-x,1/2-y,-z
1/2+x,1/2-y,1/2+z
loop_
_atom_site_type_symbol
_atom_site_label
_atom_site_fract_x
_atom_site_fract_y
_atom_site_fract_z
Si Si1 0.793827 0.667663 0.281526
Si Si2 0.171200 0.236904 0.395514
Si Si3 0.193012 0.074168 0.573734
Si Si4 0.057873 0.819199 0.347938
Si Si5 0.575458 0.209308 0.651280
Si Si6 0.000000 0.921816 0.750000
Si Si7 0.854136 0.945134 0.853871
O O1 0.801741 0.710245 0.489536
O O2 0.737315 0.700992 0.205414
O O3 0.763554 0.606753 0.410412
O O4 0.867338 0.668115 0.049558
O O5 0.131560 0.189160 0.614268
O O6 0.113784 0.265454 0.319674
O O7 0.151488 0.083184 0.392210
O O8 0.189538 0.004035 0.592220
O O9 0.169359 0.089340 0.876590
O O10 0.063252 0.768161 0.525342
O O11 0.031004 0.878325 0.506827
O O12 0.000000 0.804419 0.250000
O O13 0.500000 0.181246 0.750000
O O14 0.065117 0.958033 0.734899
#
# Coordination Sequence:
#
# PCOD9280999 Si02
#       7
#     8   8   8   8   8   4   8
#     4  10  23  35  62  84 123 165 211 258 321 379
#     4  10  21  38  54  89 120 163 213 253 310 393
#     4  10  23  45  60  88 119 168 208 279 312 368
#     4  11  21  35  54  84 128 174 205 254 318 370
#     4  11  21  37  58  89 125 164 205 262 314 391
#     4  12  24  34  60  92 122 180 214 266 316 376
#     4  10  25  41  65  89 126 161 226 266 320 375
#
# _framework density 20.12593
#
# number of rings (size 3 to 8) (size 9 to 14) (size 15 to 20)
#    0.000    1.538    2.308    1.385    8.615    2.462 
#    0.000    0.000    0.000    0.000    0.000    4.308 
#    0.000    0.000    0.000    0.000    0.000    0.000 
#
# Total GULP energy -144748.595692 kJ/mol
# GULP energy per Si atom -5567.253680 kJ/mol
# Density = 2.008012 g / cm^3
# Si number density = 20.125930 Si / 1000 Ang^3
#
#
#
# Elastic Constant Matrix: (Units=GPa)
#
#
# Indices 1 2 3 4 5 6 
#
# 1 111.7640 29.2791 25.6556 0.0000 -15.3045 0.0000
# 2 29.2791 81.2671 16.2469 0.0000 -10.1086 0.0000
# 3 25.6556 16.2469 56.4396 0.0000 1.8916 0.0000
# 4 0.0000 0.0000 0.0000 1.3855 0.0000 21.1229
# 5 -15.3045 -10.1086 1.8916 0.0000 56.5816 0.0000
# 6 0.0000 0.0000 0.0000 21.1229 0.0000 -14.0623
#
#
#
# Elastic Compliance Matrix: (Units=1/GPa)
#
#
# Indices 1 2 3 4 5 6 
#
# 1 0.011023 -0.002786 -0.004297 0.000000 0.002628 0.000000
# 2 -0.002786 0.014112 -0.002859 0.000000 0.001863 0.000000
# 3 -0.004297 -0.002859 0.020573 0.000000 -0.002361 0.000000
# 4 0.000000 0.000000 0.000000 0.030199 0.000000 0.045361
# 5 0.002628 0.001863 -0.002361 0.000000 0.018796 0.000000
# 6 0.000000 0.000000 0.000000 0.045361 0.000000 -0.002975
#
#
# Mechanical properties :
#
#
# Convention : Reuss Voigt Hill
#
# Bulk Modulus (GPa) = 38.72020 43.53709 41.12864
# Shear Modulus (GPa) = 41.59067 20.66689 31.12878
#
# Velocity S-wave (km/s) = 4.55083 3.20797 3.93708
# Velocity P-wave (km/s) = 6.84793 5.94985 6.41463
#
# Compressibility (1/GPa) = 0.02582631
#
# Stress axis : x y z
#
# Youngs Moduli (GPa) = 90.71611 70.86193 48.60653
#
# Poissons Ratio (x) = 0.19739 0.20887
# Poissons Ratio (y) = 0.25270 0.13894
# Poissons Ratio (z) = 0.38981 0.20256
#
# Static dielectric constant tensor:
#      x y z
#    x 1.773390 0.000000 0.037160 
#    y 0.000000 1.715030 0.000000 
#    z 0.037160 0.000000 1.722310 
# 
# From -- ./inp_files/13648.got.cif
#   From: 2010.05.17/outbox.cif.g08.bks.cpg/sg15_7_cif.got.tgz:13648.got - 2010.06.03 18:47:42.
