data_PCOD9280690
_publ_section_title
;
Structure prediction by ZEFSAII (Michael W. Deem and Ramdas Pophale) SiO2 
 PCOD9280690
Probable space group: C 2/C
;
_chemical_formula_sum "Si O2"
_cell_formula_units_Z 56
_cell_length_a 5.497505
_cell_length_b 19.338990
_cell_length_c 24.917931
_cell_angle_alpha 90.000000
_cell_angle_beta 71.820050
_cell_angle_gamma 90.000000
_cell_volume 2516.935968
_symmetry_space_group_name_H-M "C 2/C"
_symmetry_group_IT_number 15
_symmetry_cell_setting 'monoclinic'
loop_
_space_group_symop_operation_xyz
x,y,z
-x,y,1/2-z
-x,-y,-z
x,-y,1/2+z
1/2+x,1/2+y,z
1/2-x,1/2+y,1/2-z
1/2-x,1/2-y,-z
1/2+x,1/2-y,1/2+z
loop_
_atom_site_type_symbol
_atom_site_label
_atom_site_fract_x
_atom_site_fract_y
_atom_site_fract_z
Si Si1 0.030821 0.391933 0.389958
Si Si2 0.871958 0.477264 0.564473
Si Si3 0.976741 0.817152 0.310458
Si Si4 0.731412 0.041735 0.691916
Si Si5 0.322322 0.419675 0.612503
Si Si6 0.394915 0.779259 0.904744
Si Si7 0.459486 0.192481 0.991087
O O1 0.216914 0.451737 0.399724
O O2 0.185886 0.333060 0.348098
O O3 0.853018 0.426459 0.358955
O O4 0.889630 0.365647 0.452780
O O5 0.612186 0.434241 0.573225
O O6 0.000000 0.500000 0.500000
O O7 0.098770 0.448383 0.587714
O O8 0.100271 0.893773 0.298335
O O9 0.000000 0.785420 0.250000
O O10 0.067191 0.764954 0.351450
O O11 0.500000 0.035053 0.750000
O O12 0.811199 0.963619 0.669111
O O13 0.263919 0.337437 0.616909
O O14 0.222738 0.722792 0.948284
O O15 0.515810 0.819333 0.947389
O O16 0.250000 0.250000 0.000000
#
# Coordination Sequence:
#
# PCOD9280690 Si02
#       7
#     8   8   8   8   8   8   8
#     4  10  21  37  62  94 119 174 220 276 327 404
#     4  11  23  40  64  94 135 173 218 268 334 406
#     4  11  21  41  66  89 128 166 233 280 336 403
#     4  11  22  40  66  93 127 172 229 283 342 408
#     4  11  25  42  63  97 135 173 218 278 342 408
#     4  10  24  39  61  97 129 174 220 277 343 409
#     4  10  21  39  63  88 133 173 219 270 341 406
#
# _framework density 22.249276999999999
#
# number of rings (size 3 to 8) (size 9 to 14) (size 15 to 20)
#    0.000    1.429    2.857    2.143    4.000    0.571 
#    0.000    0.000    0.000    0.000    0.000    0.000 
#    0.000    0.000    0.000    0.000    0.000    0.000 
#
# Total GULP energy -155914.263390 kJ/mol
# GULP energy per Si atom -5568.366550 kJ/mol
# Density = 2.219864 g / cm^3
# Si number density = 22.249277 Si / 1000 Ang^3
#
#
#
# Elastic Constant Matrix: (Units=GPa)
#
#
# Indices 1 2 3 4 5 6 
#
# 1 60.6722 15.6731 34.1366 0.0000 -6.0228 0.0000
# 2 15.6731 81.3136 54.6947 0.0000 0.9969 0.0000
# 3 34.1366 54.6947 151.7436 0.0000 3.6910 0.0000
# 4 0.0000 0.0000 0.0000 38.2763 0.0000 3.5030
# 5 -6.0228 0.9969 3.6910 0.0000 26.3627 0.0000
# 6 0.0000 0.0000 0.0000 3.5030 0.0000 2.9140
#
#
#
# Elastic Compliance Matrix: (Units=1/GPa)
#
#
# Indices 1 2 3 4 5 6 
#
# 1 0.019596 -0.001044 -0.004156 0.000000 0.005098 0.000000
# 2 -0.001044 0.016291 -0.005635 0.000000 -0.000066 0.000000
# 3 -0.004156 -0.005635 0.009607 0.000000 -0.002081 0.000000
# 4 0.000000 0.000000 0.000000 0.029355 0.000000 -0.035289
# 5 0.005098 -0.000066 -0.002081 0.000000 0.039391 0.000000
# 6 0.000000 0.000000 0.000000 -0.035289 0.000000 0.385589
#
#
# Mechanical properties :
#
#
# Convention : Reuss Voigt Hill
#
# Bulk Modulus (GPa) = 41.97680 55.85979 48.91830
# Shear Modulus (GPa) = 9.44391 26.12561 17.78476
#
# Velocity S-wave (km/s) = 2.06248 3.43041 2.83033
# Velocity P-wave (km/s) = 4.95775 6.39149 5.71972
#
# Compressibility (1/GPa) = 0.02382268
#
# Stress axis : x y z
#
# Youngs Moduli (GPa) = 51.03028 61.38480 104.09211
#
# Poissons Ratio (x) = 0.06409 0.43262
# Poissons Ratio (y) = 0.05328 0.58660
# Poissons Ratio (z) = 0.21209 0.34593
#
# Static dielectric constant tensor:
#      x y z
#    x 1.858060 0.000000 0.011930 
#    y 0.000000 1.872640 0.000000 
#    z 0.011930 0.000000 1.901580 
# 
# From -- ./inp_files/261138.got.cif
#   From: 2010.05.17/outbox.cif.g08.bks.cpg/sg15_131_cif.got.tgz:261138.got - 2010.06.03 18:47:42.
