data_PCOD9280912
_publ_section_title
;
Structure prediction by ZEFSAII (Michael W. Deem and Ramdas Pophale) SiO2 
 PCOD9280912
Probable space group: C 2/C
;
_chemical_formula_sum "Si O2"
_cell_formula_units_Z 60
_cell_length_a 6.430584
_cell_length_b 16.934155
_cell_length_c 28.850987
_cell_angle_alpha 90.000000
_cell_angle_beta 81.696261
_cell_angle_gamma 90.000000
_cell_volume 3108.834502
_symmetry_space_group_name_H-M "C 2/C"
_symmetry_group_IT_number 15
_symmetry_cell_setting 'monoclinic'
loop_
_space_group_symop_operation_xyz
x,y,z
-x,y,1/2-z
-x,-y,-z
x,-y,1/2+z
1/2+x,1/2+y,z
1/2-x,1/2+y,1/2-z
1/2-x,1/2-y,-z
1/2+x,1/2-y,1/2+z
loop_
_atom_site_type_symbol
_atom_site_label
_atom_site_fract_x
_atom_site_fract_y
_atom_site_fract_z
Si Si1 0.697790 0.572046 0.342050
Si Si2 0.869141 0.570815 0.897421
Si Si3 0.402862 0.169673 0.207483
Si Si4 0.000000 0.930928 0.750000
Si Si5 0.952956 0.809423 0.918940
Si Si6 0.665877 0.288428 0.369441
Si Si7 0.964993 0.908188 0.011045
Si Si8 0.761243 0.653899 0.576747
O O1 0.775411 0.506179 0.376272
O O2 0.584809 0.537503 0.298572
O O3 0.554286 0.635708 0.374941
O O4 0.910982 0.616485 0.319726
O O5 0.835489 0.642220 0.862599
O O6 0.726133 0.594038 0.946276
O O7 0.106609 0.579865 0.907396
O O8 0.500000 0.207262 0.250000
O O9 0.202355 0.118262 0.227508
O O10 0.334874 0.236924 0.175502
O O11 0.100057 0.733749 0.926429
O O12 0.736289 0.771223 0.907988
O O13 0.921975 0.861732 0.965380
O O14 0.441215 0.326883 0.385757
O O15 0.166725 0.869963 0.030085
O O16 0.000000 0.000000 0.000000
#
# Coordination Sequence:
#
# PCOD9280912 Si02
#       8
#     8   8   8   4   8   8   8   8
#     4  11  21  40  64  93 121 164 204 255 317 372
#     4  10  24  40  60  90 129 161 207 256 311 368
#     4  10  21  37  66  92 115 155 208 249 311 380
#     4  10  22  40  68  94 124 148 212 262 306 390
#     4  11  21  38  65  87 123 165 211 254 306 370
#     4  10  21  40  62  89 118 165 200 256 313 365
#     4  11  23  39  59  93 125 167 211 257 308 365
#     4  10  23  40  58  88 125 162 208 253 304 371
#
# _framework density 19.299838000000001
#
# number of rings (size 3 to 8) (size 9 to 14) (size 15 to 20)
#    0.000    1.600    4.000    0.400    0.000    9.600 
#    1.200    0.000    4.400    0.000    0.000    0.000 
#    0.000    0.000    0.000    0.000    0.000    0.000 
#
# Total GULP energy -167178.859883 kJ/mol
# GULP energy per Si atom -5572.628663 kJ/mol
# Density = 1.925591 g / cm^3
# Si number density = 19.299838 Si / 1000 Ang^3
#
#
#
# Elastic Constant Matrix: (Units=GPa)
#
#
# Indices 1 2 3 4 5 6 
#
# 1 83.6927 10.4369 33.4061 0.0000 6.3483 0.0000
# 2 10.4369 63.4436 28.1917 0.0000 10.1504 0.0000
# 3 33.4061 28.1917 97.0773 0.0000 11.3915 0.0000
# 4 0.0000 0.0000 0.0000 28.5027 0.0000 17.0171
# 5 6.3483 10.1504 11.3915 0.0000 23.3916 0.0000
# 6 0.0000 0.0000 0.0000 17.0171 0.0000 20.3697
#
#
#
# Elastic Compliance Matrix: (Units=1/GPa)
#
#
# Indices 1 2 3 4 5 6 
#
# 1 0.013902 0.000005 -0.004606 0.000000 -0.001532 0.000000
# 2 0.000005 0.018820 -0.004782 0.000000 -0.005839 0.000000
# 3 -0.004606 -0.004782 0.013665 0.000000 -0.003330 0.000000
# 4 0.000000 0.000000 0.000000 0.069997 0.000000 -0.058476
# 5 -0.001532 -0.005839 -0.003330 0.000000 0.047322 0.000000
# 6 0.000000 0.000000 0.000000 -0.058476 0.000000 0.097944
#
#
# Mechanical properties :
#
#
# Convention : Reuss Voigt Hill
#
# Bulk Modulus (GPa) = 36.20252 43.14256 39.67254
# Shear Modulus (GPa) = 17.26374 25.93140 21.59757
#
# Velocity S-wave (km/s) = 2.99407 3.66950 3.34886
# Velocity P-wave (km/s) = 5.54538 6.35264 5.96269
#
# Compressibility (1/GPa) = 0.02762239
#
# Stress axis : x y z
#
# Youngs Moduli (GPa) = 71.92971 53.13389 73.17745
#
# Poissons Ratio (x) = -0.00025 0.33703
# Poissons Ratio (y) = -0.00033 0.34993
# Poissons Ratio (z) = 0.33128 0.25408
#
# Static dielectric constant tensor:
#      x y z
#    x 1.692160 0.000000 0.030550 
#    y 0.000000 1.675160 0.000000 
#    z 0.030550 0.000000 1.705630 
# 
# From -- ./inp_files/305669.got.cif
#   From: 2010.05.17/outbox.cif.g08.bks.cpg/sg15_153_cif.got.tgz:305669.got - 2010.06.03 18:47:42.
