data_PCOD9280883
_publ_section_title
;
Structure prediction by ZEFSAII (Michael W. Deem and Ramdas Pophale) SiO2 
 PCOD9280883
Probable space group: C 2/C
;
_chemical_formula_sum "Si O2"
_cell_formula_units_Z 40
_cell_length_a 12.996528
_cell_length_b 13.747656
_cell_length_c 11.620235
_cell_angle_alpha 90.000000
_cell_angle_beta 114.377789
_cell_angle_gamma 90.000000
_cell_volume 1891.101284
_symmetry_space_group_name_H-M "C 2/C"
_symmetry_group_IT_number 15
_symmetry_cell_setting 'monoclinic'
loop_
_space_group_symop_operation_xyz
x,y,z
-x,y,1/2-z
-x,-y,-z
x,-y,1/2+z
1/2+x,1/2+y,z
1/2-x,1/2+y,1/2-z
1/2-x,1/2-y,-z
1/2+x,1/2-y,1/2+z
loop_
_atom_site_type_symbol
_atom_site_label
_atom_site_fract_x
_atom_site_fract_y
_atom_site_fract_z
Si Si1 0.673543 0.167879 0.401780
Si Si2 0.412337 0.491949 0.304428
Si Si3 0.076402 0.332081 0.605565
Si Si4 0.274282 0.976055 0.944492
Si Si5 0.075630 0.861488 0.966331
O O1 0.750000 0.250000 0.500000
O O2 0.549137 0.169579 0.400985
O O3 0.657374 0.180349 0.256219
O O4 0.717773 0.060093 0.456392
O O5 0.500000 0.452332 0.250000
O O6 0.289410 0.481617 0.195765
O O7 0.421132 0.427727 0.419514
O O8 0.459921 0.600567 0.352989
O O9 0.112972 0.427353 0.551227
O O10 0.081954 0.246593 0.514504
O O11 0.184856 0.894007 0.944341
#
# Coordination Sequence:
#
# PCOD9280883 Si02
#       5
#     8   8   8   8   8
#     4  11  26  42  66  95 129 173 219 265 318 387
#     4   9  20  35  64  93 130 167 216 266 321 370
#     4  11  25  41  66  94 131 169 217 261 328 390
#     4  11  22  42  63  92 134 169 209 267 328 384
#     4  10  21  37  65  95 129 164 219 269 314 380
#
# _framework density 21.151695
#
# number of rings (size 3 to 8) (size 9 to 14) (size 15 to 20)
#    0.000    1.600    0.000    3.600   14.000    0.000 
#    0.000    0.000   13.200    0.000    0.000    0.000 
#    0.000    0.000    0.000    0.000    0.000    0.000 
#
# Total GULP energy -111604.927908 kJ/mol
# GULP energy per Si atom -5580.246395 kJ/mol
# Density = 2.110355 g / cm^3
# Si number density = 21.151695 Si / 1000 Ang^3
#
#
#
# Elastic Constant Matrix: (Units=GPa)
#
#
# Indices 1 2 3 4 5 6 
#
# 1 54.2054 12.1138 0.0098 0.0000 7.0231 0.0000
# 2 12.1138 56.0024 7.2250 0.0000 11.5210 0.0000
# 3 0.0098 7.2250 71.5150 0.0000 6.4426 0.0000
# 4 0.0000 0.0000 0.0000 32.4774 0.0000 1.1637
# 5 7.0231 11.5210 6.4426 0.0000 31.4644 0.0000
# 6 0.0000 0.0000 0.0000 1.1637 0.0000 41.6379
#
#
#
# Elastic Compliance Matrix: (Units=1/GPa)
#
#
# Indices 1 2 3 4 5 6 
#
# 1 0.019684 -0.003689 0.000656 0.000000 -0.003177 0.000000
# 2 -0.003689 0.020129 -0.001470 0.000000 -0.006246 0.000000
# 3 0.000656 -0.001470 0.014361 0.000000 -0.002549 0.000000
# 4 0.000000 0.000000 0.000000 0.030822 0.000000 -0.000861
# 5 -0.003177 -0.006246 -0.002549 0.000000 0.035300 0.000000
# 6 0.000000 0.000000 0.000000 -0.000861 0.000000 0.024041
#
#
# Mechanical properties :
#
#
# Convention : Reuss Voigt Hill
#
# Bulk Modulus (GPa) = 22.13942 24.49111 23.31526
# Shear Modulus (GPa) = 29.69140 31.94087 30.81614
#
# Velocity S-wave (km/s) = 3.75071 3.89020 3.82109
# Velocity P-wave (km/s) = 5.40803 5.63756 5.52399
#
# Compressibility (1/GPa) = 0.04516830
#
# Stress axis : x y z
#
# Youngs Moduli (GPa) = 50.80193 49.67960 69.63229
#
# Poissons Ratio (x) = 0.18326 -0.04570
# Poissons Ratio (y) = 0.18740 0.10239
# Poissons Ratio (z) = -0.03334 0.07305
#
# Static dielectric constant tensor:
#      x y z
#    x 1.788660 0.000000 0.020270 
#    y 0.000000 1.795190 0.000000 
#    z 0.020270 0.000000 1.817740 
# 
# From -- ./inp_files/86253.got.cif
#   From: 2010.05.17/outbox.cif.g08.bks.cpg/sg15_44_cif.got.tgz:86253.got - 2010.06.03 18:47:42.
