data_PCOD9280147
_publ_section_title
;
Structure prediction by ZEFSAII (Michael W. Deem and Ramdas Pophale) SiO2 
 PCOD9280147
Probable space group: C 2/C
;
_chemical_formula_sum "Si O2"
_cell_formula_units_Z 56
_cell_length_a 12.781005
_cell_length_b 32.281173
_cell_length_c 7.914345
_cell_angle_alpha 90.000000
_cell_angle_beta 77.416584
_cell_angle_gamma 90.000000
_cell_volume 3186.912551
_symmetry_space_group_name_H-M "C 2/C"
_symmetry_group_IT_number 15
_symmetry_cell_setting 'monoclinic'
loop_
_space_group_symop_operation_xyz
x,y,z
-x,y,1/2-z
-x,-y,-z
x,-y,1/2+z
1/2+x,1/2+y,z
1/2-x,1/2+y,1/2-z
1/2-x,1/2-y,-z
1/2+x,1/2-y,1/2+z
loop_
_atom_site_type_symbol
_atom_site_label
_atom_site_fract_x
_atom_site_fract_y
_atom_site_fract_z
Si Si1 0.813347 0.752039 0.236414
Si Si2 0.500000 0.997677 0.250000
Si Si3 0.603568 0.060182 0.434750
Si Si4 0.611964 0.792395 0.117298
Si Si5 0.500000 0.126306 0.250000
Si Si6 0.750967 0.368584 0.518737
Si Si7 0.378519 0.655976 0.762741
Si Si8 0.229744 0.665912 0.124363
O O1 0.703600 0.768785 0.190815
O O2 0.874720 0.793771 0.261667
O O3 0.780235 0.715657 0.376243
O O4 0.883673 0.728695 0.068100
O O5 0.449638 0.967207 0.403578
O O6 0.596062 0.027716 0.281614
O O7 0.527964 0.097247 0.398071
O O8 0.709569 0.084697 0.456653
O O9 0.500000 0.789450 0.250000
O O10 0.650554 0.839674 0.080437
O O11 0.607225 0.150706 0.168612
O O12 0.665236 0.362072 0.399684
O O13 0.721316 0.348094 0.710957
O O14 0.500000 0.642241 0.750000
O O15 0.297517 0.647012 0.946807
#
# Coordination Sequence:
#
# PCOD9280147 Si02
#       8
#     8   4   8   8   4   8   8   8
#     4   9  20  34  46  76 102 136 195 237 287 320
#     4   9  18  30  54  88 120 146 168 206 290 340
#     4   9  18  33  53  85 120 144 172 216 270 358
#     4   9  18  32  53  73  99 143 186 228 284 329
#     4   9  20  34  56  84 114 150 186 216 284 334
#     4   9  21  38  53  79 109 143 188 221 278 334
#     4  11  24  36  53  80 104 149 199 238 283 322
#     4  10  21  37  54  78 110 146 190 238 280 335
#
# _framework density 17.571864999999999
#
# number of rings (size 3 to 8) (size 9 to 14) (size 15 to 20)
#    0.000    2.571    0.000    1.286    6.000    6.286 
#    0.000    0.000    0.000    0.000    0.000    1.000 
#    0.000    0.143    0.000    0.000    0.000    0.000 
#
# Total GULP energy -155919.685251 kJ/mol
# GULP energy per Si atom -5568.560188 kJ/mol
# Density = 1.753187 g / cm^3
# Si number density = 17.571865 Si / 1000 Ang^3
#
#
#
# Elastic Constant Matrix: (Units=GPa)
#
#
# Indices 1 2 3 4 5 6 
#
# 1 96.8816 33.9207 57.5909 0.0000 4.7680 0.0000
# 2 33.9207 89.4917 20.0201 0.0000 10.2294 0.0000
# 3 57.5909 20.0201 73.1560 0.0000 4.2909 0.0000
# 4 0.0000 0.0000 0.0000 79.0048 0.0000 105.3470
# 5 4.7680 10.2294 4.2909 0.0000 27.2920 0.0000
# 6 0.0000 0.0000 0.0000 105.3470 0.0000 193.3854
#
#
#
# Elastic Compliance Matrix: (Units=1/GPa)
#
#
# Indices 1 2 3 4 5 6 
#
# 1 0.021006 -0.004590 -0.015307 0.000000 0.000457 0.000000
# 2 -0.004590 0.013352 0.000208 0.000000 -0.004235 0.000000
# 3 -0.015307 0.000208 0.025748 0.000000 -0.001452 0.000000
# 4 0.000000 0.000000 0.000000 0.046260 0.000000 -0.025200
# 5 0.000457 -0.004235 -0.001452 0.000000 0.038377 0.000000
# 6 0.000000 0.000000 0.000000 -0.025200 0.000000 0.018899
#
#
# Mechanical properties :
#
#
# Convention : Reuss Voigt Hill
#
# Bulk Modulus (GPa) = 48.24626 53.62141 50.93383
# Shear Modulus (GPa) = 23.81766 69.80295 46.81030
#
# Velocity S-wave (km/s) = 3.68563 6.30956 5.16693
# Velocity P-wave (km/s) = 6.75485 9.14672 8.04022
#
# Compressibility (1/GPa) = 0.02072700
#
# Stress axis : x y z
#
# Youngs Moduli (GPa) = 47.60610 74.89767 38.83790
#
# Poissons Ratio (x) = 0.34377 0.59450
# Poissons Ratio (y) = 0.21851 -0.00807
# Poissons Ratio (z) = 0.72872 -0.01557
#
# Static dielectric constant tensor:
#      x y z
#    x 1.612680 0.000000 0.048740 
#    y 0.000000 1.600460 0.000000 
#    z 0.048740 0.000000 1.654280 
# 
# From -- ./inp_files/35186.got.cif
#   From: 2010.05.17/outbox.cif.g08.bks.cpg/sg15_18_cif.got.tgz:35186.got - 2010.06.03 18:47:42.
