data_PCOD9280223
_publ_section_title
;
Structure prediction by ZEFSAII (Michael W. Deem and Ramdas Pophale) SiO2 
 PCOD9280223
Probable space group: C 2/C
;
_chemical_formula_sum "Si O2"
_cell_formula_units_Z 44
_cell_length_a 7.807332
_cell_length_b 27.617941
_cell_length_c 11.113593
_cell_angle_alpha 90.000000
_cell_angle_beta 121.955579
_cell_angle_gamma 90.000000
_cell_volume 2033.195465
_symmetry_space_group_name_H-M "C 2/C"
_symmetry_group_IT_number 15
_symmetry_cell_setting 'monoclinic'
loop_
_space_group_symop_operation_xyz
x,y,z
-x,y,1/2-z
-x,-y,-z
x,-y,1/2+z
1/2+x,1/2+y,z
1/2-x,1/2+y,1/2-z
1/2-x,1/2-y,-z
1/2+x,1/2-y,1/2+z
loop_
_atom_site_type_symbol
_atom_site_label
_atom_site_fract_x
_atom_site_fract_y
_atom_site_fract_z
Si Si1 0.307856 0.867887 0.096223
Si Si2 0.274172 0.222030 0.726447
Si Si3 0.500000 0.122338 0.250000
Si Si4 0.017554 0.306748 0.966374
Si Si5 0.257977 0.030182 0.221638
Si Si6 0.784013 0.026762 0.023821
O O1 0.500000 0.881544 0.250000
O O2 0.195619 0.827983 0.136698
O O3 0.384196 0.838901 0.008452
O O4 0.214933 0.917387 0.017758
O O5 0.500000 0.230092 0.750000
O O6 0.125502 0.265031 0.639051
O O7 0.311612 0.215160 0.882373
O O8 0.417953 0.157151 0.114786
O O9 0.324026 0.086076 0.229019
O O10 0.309262 0.018713 0.379096
O O11 0.020994 0.016820 0.127347
O O12 0.322169 0.003840 0.121072
#
# Coordination Sequence:
#
# PCOD9280223 Si02
#       6
#     8   8   4   8   8   8
#     4   9  18  35  62  89 113 153 209 255 302 371
#     4   9  19  36  59  87 118 159 208 261 301 375
#     4  12  24  38  58  94 126 166 204 258 314 376
#     4  10  21  37  56  88 124 160 206 251 315 364
#     4  10  24  39  63  89 127 160 211 254 315 375
#     4  10  21  43  61  91 119 167 205 261 311 378
#
# _framework density 21.640812
#
# number of rings (size 3 to 8) (size 9 to 14) (size 15 to 20)
#    0.000    2.545    1.818    2.182    1.273    7.273 
#    0.000    0.000    0.000    0.000    0.000    0.000 
#    0.000    0.000    0.000    0.000    0.000    0.000 
#
# Total GULP energy -122647.124025 kJ/mol
# GULP energy per Si atom -5574.869274 kJ/mol
# Density = 2.159156 g / cm^3
# Si number density = 21.640812 Si / 1000 Ang^3
#
#
#
# Elastic Constant Matrix: (Units=GPa)
#
#
# Indices 1 2 3 4 5 6 
#
# 1 69.0431 10.9897 50.1596 0.0000 -30.7788 0.0000
# 2 10.9897 70.2798 74.4093 0.0000 -26.9553 0.0000
# 3 50.1596 74.4093 181.1633 0.0000 -49.7537 0.0000
# 4 0.0000 0.0000 0.0000 34.9375 0.0000 -20.5997
# 5 -30.7788 -26.9553 -49.7537 0.0000 29.2637 0.0000
# 6 0.0000 0.0000 0.0000 -20.5997 0.0000 16.7079
#
#
#
# Elastic Compliance Matrix: (Units=1/GPa)
#
#
# Indices 1 2 3 4 5 6 
#
# 1 0.034405 0.015550 -0.003829 0.000000 0.044000 0.000000
# 2 0.015550 0.034060 -0.009731 0.000000 0.031184 0.000000
# 3 -0.003829 -0.009731 0.013149 0.000000 0.009365 0.000000
# 4 0.000000 0.000000 0.000000 0.104828 0.000000 0.129245
# 5 0.044000 0.031184 0.009365 0.000000 0.125096 0.000000
# 6 0.000000 0.000000 0.000000 0.129245 0.000000 0.219202
#
#
# Mechanical properties :
#
#
# Convention : Reuss Voigt Hill
#
# Bulk Modulus (GPa) = 11.68305 65.73372 38.70838
# Shear Modulus (GPa) = 9.00430 28.51033 18.75731
#
# Velocity S-wave (km/s) = 2.04202 3.63358 2.94727
# Velocity P-wave (km/s) = 3.31212 6.93143 5.43207
#
# Compressibility (1/GPa) = 0.08559412
#
# Stress axis : x y z
#
# Youngs Moduli (GPa) = 29.06566 29.35978 76.05399
#
# Poissons Ratio (x) = -0.45653 0.29119
# Poissons Ratio (y) = -0.45196 0.74005
# Poissons Ratio (z) = 0.11128 0.28569
#
# Static dielectric constant tensor:
#      x y z
#    x 1.946650 0.000000 0.092240 
#    y 0.000000 1.757520 0.000000 
#    z 0.092240 0.000000 1.909690 
# 
# From -- ./inp_files/81567.got.cif
#   From: 2010.05.17/outbox.cif.g08.bks.cpg/sg15_41_cif.got.tgz:81567.got - 2010.06.03 18:47:42.
