data_PCOD9280148
_publ_section_title
;
Structure prediction by ZEFSAII (Michael W. Deem and Ramdas Pophale) SiO2 
 PCOD9280148
Probable space group: C 2/C
;
_chemical_formula_sum "Si O2"
_cell_formula_units_Z 56
_cell_length_a 16.538222
_cell_length_b 29.378519
_cell_length_c 5.277939
_cell_angle_alpha 90.000000
_cell_angle_beta 92.345203
_cell_angle_gamma 90.000000
_cell_volume 2562.236272
_symmetry_space_group_name_H-M "C 2/C"
_symmetry_group_IT_number 15
_symmetry_cell_setting 'monoclinic'
loop_
_space_group_symop_operation_xyz
x,y,z
-x,y,1/2-z
-x,-y,-z
x,-y,1/2+z
1/2+x,1/2+y,z
1/2-x,1/2+y,1/2-z
1/2-x,1/2-y,-z
1/2+x,1/2-y,1/2+z
loop_
_atom_site_type_symbol
_atom_site_label
_atom_site_fract_x
_atom_site_fract_y
_atom_site_fract_z
Si Si1 0.947859 0.266739 0.490169
Si Si2 0.189064 0.399124 0.464369
Si Si3 0.535995 0.948604 0.503578
Si Si4 0.122730 0.166480 0.991856
Si Si5 0.410981 0.484336 0.310160
Si Si6 0.185454 0.658024 0.457278
Si Si7 0.379857 0.388915 0.514264
O O1 0.920163 0.214280 0.471998
O O2 0.870084 0.298972 0.495217
O O3 0.000000 0.278092 0.250000
O O4 0.000000 0.273038 0.750000
O O5 0.132304 0.443105 0.498894
O O6 0.175810 0.378190 0.184333
O O7 0.285218 0.404001 0.508882
O O8 0.164577 0.364086 0.683678
O O9 0.500000 0.925616 0.250000
O O10 0.500000 0.000000 0.500000
O O11 0.500000 0.926553 0.750000
O O12 0.097539 0.130779 0.208682
O O13 0.219750 0.171358 0.034804
O O14 0.108461 0.148208 0.705777
O O15 0.500000 0.502663 0.250000
O O16 0.369476 0.513340 0.528614
O O17 0.421648 0.434129 0.419528
#
# Coordination Sequence:
#
# PCOD9280148 Si02
#       7
#     8   8   8   8   8   8   8
#     4  12  25  39  59  94 124 152 204 249 303 357
#     4  10  21  38  60  86 113 154 210 244 290 359
#     4  10  21  37  54  79 116 153 191 243 302 353
#     4  10  22  41  62  84 124 157 200 245 304 360
#     4  10  21  38  58  86 119 151 189 236 297 361
#     4  10  22  40  62  84 118 164 198 245 298 359
#     4  10  21  39  62  89 113 158 202 245 296 360
#
# _framework density 21.855906000000001
#
# number of rings (size 3 to 8) (size 9 to 14) (size 15 to 20)
#    0.000    1.714    0.000    3.857    0.000    5.143 
#    5.143    5.714    0.000    0.000    0.000    0.000 
#    0.000    0.000    0.000    0.000    0.000    0.000 
#
# Total GULP energy -156408.810157 kJ/mol
# GULP energy per Si atom -5586.028934 kJ/mol
# Density = 2.180616 g / cm^3
# Si number density = 21.855906 Si / 1000 Ang^3
#
#
#
# Elastic Constant Matrix: (Units=GPa)
#
#
# Indices 1 2 3 4 5 6 
#
# 1 51.1593 18.5585 19.6563 0.0000 -18.9145 0.0000
# 2 18.5585 50.1235 2.8514 0.0000 -13.9219 0.0000
# 3 19.6563 2.8514 158.7584 0.0000 -27.5876 0.0000
# 4 0.0000 0.0000 0.0000 37.5046 0.0000 -12.3316
# 5 -18.9145 -13.9219 -27.5876 0.0000 20.7142 0.0000
# 6 0.0000 0.0000 0.0000 -12.3316 0.0000 43.9057
#
#
#
# Elastic Compliance Matrix: (Units=1/GPa)
#
#
# Indices 1 2 3 4 5 6 
#
# 1 0.030343 -0.004021 0.000859 0.000000 0.026149 0.000000
# 2 -0.004021 0.026340 0.003205 0.000000 0.018300 0.000000
# 3 0.000859 0.003205 0.008647 0.000000 0.014454 0.000000
# 4 0.000000 0.000000 0.000000 0.029376 0.000000 0.008251
# 5 0.026149 0.018300 0.014454 0.000000 0.103702 0.000000
# 6 0.000000 0.000000 0.000000 0.008251 0.000000 0.025093
#
#
# Mechanical properties :
#
#
# Convention : Reuss Voigt Hill
#
# Bulk Modulus (GPa) = 15.28677 38.01928 26.65303
# Shear Modulus (GPa) = 20.38984 35.02323 27.70653
#
# Velocity S-wave (km/s) = 3.05769 4.00742 3.56433
# Velocity P-wave (km/s) = 4.41310 6.23263 5.40006
#
# Compressibility (1/GPa) = 0.06541604
#
# Stress axis : x y z
#
# Youngs Moduli (GPa) = 32.95672 37.96534 115.65161
#
# Poissons Ratio (x) = 0.15264 -0.09938
# Poissons Ratio (y) = 0.13251 -0.37062
# Poissons Ratio (z) = -0.02832 -0.12167
#
# Static dielectric constant tensor:
#      x y z
#    x 1.825040 0.000000 0.043530 
#    y 0.000000 1.763040 0.000000 
#    z 0.043530 0.000000 1.899780 
# 
# From -- ./inp_files/9069.got.cif
#   From: 2010.05.17/outbox.cif.g08.bks.cpg/sg15_5_cif.got.tgz:9069.got - 2010.06.03 18:47:42.
