data_PCOD9280829
_publ_section_title
;
Structure prediction by ZEFSAII (Michael W. Deem and Ramdas Pophale) SiO2 
 PCOD9280829
Probable space group: C 2/C
;
_chemical_formula_sum "Si O2"
_cell_formula_units_Z 40
_cell_length_a 16.670856
_cell_length_b 20.084747
_cell_length_c 10.814165
_cell_angle_alpha 90.000000
_cell_angle_beta 147.804150
_cell_angle_gamma 90.000000
_cell_volume 1929.273002
_symmetry_space_group_name_H-M "C 2/C"
_symmetry_group_IT_number 15
_symmetry_cell_setting 'monoclinic'
loop_
_space_group_symop_operation_xyz
x,y,z
-x,y,1/2-z
-x,-y,-z
x,-y,1/2+z
1/2+x,1/2+y,z
1/2-x,1/2+y,1/2-z
1/2-x,1/2-y,-z
1/2+x,1/2-y,1/2+z
loop_
_atom_site_type_symbol
_atom_site_label
_atom_site_fract_x
_atom_site_fract_y
_atom_site_fract_z
Si Si1 0.631156 0.223600 0.684994
Si Si2 0.182380 0.057279 0.990080
Si Si3 0.202509 0.705551 0.322496
Si Si4 0.323724 0.518202 0.256593
Si Si5 0.142917 0.853416 0.859261
O O1 0.735346 0.257320 0.717602
O O2 0.476491 0.200033 0.423710
O O3 0.597027 0.283559 0.736389
O O4 0.720279 0.165686 0.872249
O O5 0.000000 0.052869 0.750000
O O6 0.239306 0.029348 0.933161
O O7 0.225713 0.133402 0.066802
O O8 0.237879 0.017372 0.184229
O O9 0.250000 0.750000 0.500000
O O10 0.500000 0.500000 0.500000
O O11 0.314561 0.592511 0.187979
O O12 0.000000 0.879537 0.750000
#
# Coordination Sequence:
#
# PCOD9280829 Si02
#       5
#     8   8   8   8   8
#     4  11  24  40  64  95 128 169 211 267 328 384
#     4  10  21  39  62  94 128 170 220 267 320 387
#     4  12  24  41  64  96 136 169 211 270 332 392
#     4  10  21  37  64  94 127 171 220 269 320 386
#     4  11  21  39  65  92 125 166 221 268 312 389
#
# _framework density 20.733198000000002
#
# number of rings (size 3 to 8) (size 9 to 14) (size 15 to 20)
#    0.000    1.200    4.000    3.600    2.800    1.600 
#    0.000    1.000    0.000    2.400    0.000    0.000 
#    0.000    0.000    0.000    0.000    0.000    0.000 
#
# Total GULP energy -111777.543474 kJ/mol
# GULP energy per Si atom -5588.877174 kJ/mol
# Density = 2.068601 g / cm^3
# Si number density = 20.733198 Si / 1000 Ang^3
#
#
#
# Elastic Constant Matrix: (Units=GPa)
#
#
# Indices 1 2 3 4 5 6 
#
# 1 58.7775 29.6116 41.2434 0.0000 -26.3116 0.0000
# 2 29.6116 74.3109 41.5515 0.0000 -22.8780 0.0000
# 3 41.2434 41.5515 114.6418 0.0000 -26.5241 0.0000
# 4 0.0000 0.0000 0.0000 37.1416 0.0000 -15.7667
# 5 -26.3116 -22.8780 -26.5241 0.0000 34.1857 0.0000
# 6 0.0000 0.0000 0.0000 -15.7667 0.0000 34.4331
#
#
#
# Elastic Compliance Matrix: (Units=1/GPa)
#
#
# Indices 1 2 3 4 5 6 
#
# 1 0.030249 -0.003844 -0.005726 0.000000 0.016267 0.000000
# 2 -0.003844 0.019364 -0.004049 0.000000 0.006859 0.000000
# 3 -0.005726 -0.004049 0.012924 0.000000 0.002911 0.000000
# 4 0.000000 0.000000 0.000000 0.033420 0.000000 0.015303
# 5 0.016267 0.006859 0.002911 0.000000 0.048621 0.000000
# 6 0.000000 0.000000 0.000000 0.015303 0.000000 0.036049
#
#
# Mechanical properties :
#
#
# Convention : Reuss Voigt Hill
#
# Bulk Modulus (GPa) = 28.32821 52.50481 40.41651
# Shear Modulus (GPa) = 22.76547 30.17366 26.46957
#
# Velocity S-wave (km/s) = 3.31723 3.81902 3.57694
# Velocity P-wave (km/s) = 5.32587 6.69519 6.04940
#
# Compressibility (1/GPa) = 0.03530050
#
# Stress axis : x y z
#
# Youngs Moduli (GPa) = 33.05852 51.64128 77.37825
#
# Poissons Ratio (x) = 0.19852 0.44303
# Poissons Ratio (y) = 0.12709 0.31327
# Poissons Ratio (z) = 0.18928 0.20907
#
# Static dielectric constant tensor:
#      x y z
#    x 1.794910 0.000000 -0.024350 
#    y 0.000000 1.749920 0.000000 
#    z -0.024350 0.000000 1.708120 
# 
# From -- ./inp_files/30510.got.cif
#   From: 2010.05.17/outbox.cif.g08.bks.cpg/sg15_16_cif.got.tgz:30510.got - 2010.06.03 18:47:42.
