data_PCOD9280758
_publ_section_title
;
Structure prediction by ZEFSAII (Michael W. Deem and Ramdas Pophale) SiO2 
 PCOD9280758
Probable space group: C 2/C
;
_chemical_formula_sum "Si O2"
_cell_formula_units_Z 48
_cell_length_a 16.586997
_cell_length_b 7.551772
_cell_length_c 33.242223
_cell_angle_alpha 90.000000
_cell_angle_beta 153.804456
_cell_angle_gamma 90.000000
_cell_volume 1838.122753
_symmetry_space_group_name_H-M "C 2/C"
_symmetry_group_IT_number 15
_symmetry_cell_setting 'monoclinic'
loop_
_space_group_symop_operation_xyz
x,y,z
-x,y,1/2-z
-x,-y,-z
x,-y,1/2+z
1/2+x,1/2+y,z
1/2-x,1/2+y,1/2-z
1/2-x,1/2-y,-z
1/2+x,1/2-y,1/2+z
loop_
_atom_site_type_symbol
_atom_site_label
_atom_site_fract_x
_atom_site_fract_y
_atom_site_fract_z
Si Si1 0.121909 0.008886 0.178525
Si Si2 0.922196 0.726626 0.041423
Si Si3 0.430238 0.350187 0.163235
Si Si4 0.938694 0.337512 0.068527
Si Si5 0.906414 0.269689 0.446403
Si Si6 0.852555 0.493478 0.710729
O O1 0.288214 0.937186 0.225296
O O2 0.097584 0.215158 0.157810
O O3 0.069401 0.976002 0.201406
O O4 0.967620 0.906292 0.083691
O O5 0.967601 0.547943 0.086234
O O6 0.787607 0.782096 0.065709
O O7 0.007614 0.728077 0.034574
O O8 0.275424 0.396128 0.127751
O O9 0.540067 0.183337 0.227725
O O10 0.960385 0.318749 0.030020
O O11 0.750000 0.250000 0.000000
O O12 0.812028 0.083596 0.390799
O O13 0.000000 0.598881 0.750000
#
# Coordination Sequence:
#
# PCOD9280758 Si02
#       6
#     8   8   8   8   8   8
#     4  11  22  39  64  90 122 159 207 253 310 358
#     4  10  21  37  63  92 124 155 199 260 309 360
#     4   9  19  38  62  86 122 166 198 249 313 359
#     4  11  20  34  59  93 117 151 198 249 300 367
#     4   8  19  35  62  85 123 160 198 247 310 360
#     4   9  19  40  61  85 121 172 212 249 308 377
#
# _framework density 26.113599000000001
#
# number of rings (size 3 to 8) (size 9 to 14) (size 15 to 20)
#    1.000    1.333    1.667    1.000    0.000    2.667 
#    6.000    0.000    3.667    1.000    0.000    0.000 
#    0.000    0.000    0.000    0.000    0.000    0.000 
#
# Total GULP energy -133601.710936 kJ/mol
# GULP energy per Si atom -5566.737956 kJ/mol
# Density = 2.605416 g / cm^3
# Si number density = 26.113599 Si / 1000 Ang^3
#
#
#
# Elastic Constant Matrix: (Units=GPa)
#
#
# Indices 1 2 3 4 5 6 
#
# 1 246.4691 28.6912 12.4566 0.0001 3.9766 -0.0001
# 2 28.6912 89.8648 16.6925 -0.0005 -7.1419 0.0009
# 3 12.4566 16.6925 23.3697 -0.0004 -1.0750 0.0006
# 4 0.0001 -0.0005 -0.0004 25.7422 0.0006 -5.1974
# 5 3.9766 -7.1419 -1.0750 0.0006 33.1533 -0.0003
# 6 -0.0001 0.0009 0.0006 -5.1974 -0.0003 41.8560
#
#
#
# Elastic Compliance Matrix: (Units=1/GPa)
#
#
# Indices 1 2 3 4 5 6 
#
# 1 0.004280 -0.001153 -0.001495 0.000000 -0.000810 0.000000
# 2 -0.001153 0.013346 -0.008793 0.000000 0.002728 0.000000
# 3 -0.001495 -0.008793 0.049863 0.000001 -0.000098 -0.000001
# 4 0.000000 0.000000 0.000001 0.039846 -0.000001 0.004948
# 5 -0.000810 0.002728 -0.000098 -0.000001 0.030845 0.000000
# 6 0.000000 0.000000 -0.000001 0.004948 0.000000 0.024506
#
#
# Mechanical properties :
#
#
# Convention : Reuss Voigt Hill
#
# Bulk Modulus (GPa) = 22.41759 52.82047 37.61903
# Shear Modulus (GPa) = 24.94556 40.27453 32.61004
#
# Velocity S-wave (km/s) = 3.09410 3.93145 3.53764
# Velocity P-wave (km/s) = 4.62254 6.39371 5.57886
#
# Compressibility (1/GPa) = 0.04460782
#
# Stress axis : x y z
#
# Youngs Moduli (GPa) = 233.63495 74.92832 20.05486
#
# Poissons Ratio (x) = 0.08641 0.02998
# Poissons Ratio (y) = 0.26944 0.17633
# Poissons Ratio (z) = 0.34928 0.65882
#
# Static dielectric constant tensor:
#      x y z
#    x 2.425240 0.000000 0.019080 
#    y 0.000000 2.013940 0.000000 
#    z 0.019080 0.000000 2.117500 
# 
# From -- ./inp_files/312982.got.cif
#   From: 2010.05.17/outbox.cif.g08.bks.cpg/sg15_157_cif.got.tgz:312982.got - 2010.06.03 18:47:42.
