data_PCOD9280916
_publ_section_title
;
Structure prediction by ZEFSAII (Michael W. Deem and Ramdas Pophale) SiO2 
 PCOD9280916
Probable space group: C 2/C
;
_chemical_formula_sum "Si O2"
_cell_formula_units_Z 48
_cell_length_a 11.560361
_cell_length_b 13.805103
_cell_length_c 19.011403
_cell_angle_alpha 90.000000
_cell_angle_beta 37.974349
_cell_angle_gamma 90.000000
_cell_volume 1866.887805
_symmetry_space_group_name_H-M "C 2/C"
_symmetry_group_IT_number 15
_symmetry_cell_setting 'monoclinic'
loop_
_space_group_symop_operation_xyz
x,y,z
-x,y,1/2-z
-x,-y,-z
x,-y,1/2+z
1/2+x,1/2+y,z
1/2-x,1/2+y,1/2-z
1/2-x,1/2-y,-z
1/2+x,1/2-y,1/2+z
loop_
_atom_site_type_symbol
_atom_site_label
_atom_site_fract_x
_atom_site_fract_y
_atom_site_fract_z
Si Si1 0.594904 0.832325 0.079911
Si Si2 0.693905 0.302929 0.282204
Si Si3 0.336168 0.046975 0.422948
Si Si4 0.134734 0.983729 0.752009
Si Si5 0.506321 0.861452 0.961997
Si Si6 0.252536 0.119425 0.322523
O O1 0.404760 0.808239 0.213525
O O2 0.681843 0.932968 0.062855
O O3 0.750000 0.750000 0.000000
O O4 0.509135 0.849624 0.043291
O O5 0.636273 0.409247 0.284786
O O6 0.570018 0.239806 0.395689
O O7 0.702423 0.231406 0.210596
O O8 0.328758 0.100170 0.502065
O O9 0.208792 0.090675 0.422624
O O10 0.551435 0.067284 0.293720
O O11 0.000000 0.975067 0.750000
O O12 0.333624 0.943379 0.627831
O O13 0.104999 0.913805 0.834044
#
# Coordination Sequence:
#
# PCOD9280916 Si02
#       6
#     8   8   8   8   8   8
#     4  12  25  38  65  96 125 167 220 265 319 378
#     4  10  22  42  61  95 124 166 217 254 318 384
#     4   9  19  41  61  87 125 166 205 258 317 379
#     4  10  21  37  66  93 126 169 212 260 319 377
#     4  10  24  41  64  91 131 168 213 262 327 377
#     4   9  20  38  65  89 125 168 204 259 318 376
#
# _framework density 25.711238999999999
#
# number of rings (size 3 to 8) (size 9 to 14) (size 15 to 20)
#    0.000    2.333    3.333    0.500   11.667    0.000 
#    0.000    3.333    0.000    0.000    0.000    0.000 
#    0.000    0.000    0.000    0.000    0.000    0.000 
#
# Total GULP energy -134243.351920 kJ/mol
# GULP energy per Si atom -5593.472997 kJ/mol
# Density = 2.565272 g / cm^3
# Si number density = 25.711239 Si / 1000 Ang^3
#
#
#
# Elastic Constant Matrix: (Units=GPa)
#
#
# Indices 1 2 3 4 5 6 
#
# 1 124.1685 17.0637 13.1925 -0.0002 17.7928 0.0000
# 2 17.0637 130.9222 15.6903 -0.0006 2.0846 0.0002
# 3 13.1925 15.6903 42.3909 -0.0019 -8.3047 0.0005
# 4 -0.0002 -0.0006 -0.0019 37.6621 0.0005 -0.2662
# 5 17.7928 2.0846 -8.3047 0.0005 36.6932 -0.0001
# 6 0.0000 0.0002 0.0005 -0.2662 -0.0001 6.2918
#
#
#
# Elastic Compliance Matrix: (Units=1/GPa)
#
#
# Indices 1 2 3 4 5 6 
#
# 1 0.009299 -0.000687 -0.003678 0.000000 -0.005302 0.000000
# 2 -0.000687 0.008092 -0.002937 0.000000 -0.000791 0.000000
# 3 -0.003678 -0.002937 0.027420 0.000001 0.008156 -0.000002
# 4 0.000000 0.000000 0.000001 0.026560 0.000000 0.001124
# 5 -0.005302 -0.000791 0.008156 0.000000 0.031715 0.000000
# 6 0.000000 0.000000 -0.000002 0.001124 0.000000 0.158985
#
#
# Mechanical properties :
#
#
# Convention : Reuss Voigt Hill
#
# Bulk Modulus (GPa) = 33.10491 43.26384 38.18438
# Shear Modulus (GPa) = 17.43722 32.89843 25.16782
#
# Velocity S-wave (km/s) = 2.60704 3.58094 3.13208
# Velocity P-wave (km/s) = 4.68677 5.82759 5.28804
#
# Compressibility (1/GPa) = 0.03020700
#
# Stress axis : x y z
#
# Youngs Moduli (GPa) = 107.54335 123.57665 36.47035
#
# Poissons Ratio (x) = 0.08485 0.13415
# Poissons Ratio (y) = 0.07385 0.10710
# Poissons Ratio (z) = 0.39559 0.36288
#
# Static dielectric constant tensor:
#      x y z
#    x 2.074240 0.000000 0.024990 
#    y 0.000000 2.001080 0.000000 
#    z 0.024990 0.000000 2.262910 
# 
# From -- ./inp_files/237441.got.cif
#   From: 2010.05.17/outbox.cif.g08.bks.cpg/sg15_119_cif.got.tgz:237441.got - 2010.06.03 18:47:42.
