data_PCOD9280918
_publ_section_title
;
Structure prediction by ZEFSAII (Michael W. Deem and Ramdas Pophale) SiO2 
 PCOD9280918
Probable space group: C 2/C
;
_chemical_formula_sum "Si O2"
_cell_formula_units_Z 60
_cell_length_a 8.039819
_cell_length_b 17.103489
_cell_length_c 20.336557
_cell_angle_alpha 90.000000
_cell_angle_beta 59.167327
_cell_angle_gamma 90.000000
_cell_volume 2401.228955
_symmetry_space_group_name_H-M "C 2/C"
_symmetry_group_IT_number 15
_symmetry_cell_setting 'monoclinic'
loop_
_space_group_symop_operation_xyz
x,y,z
-x,y,1/2-z
-x,-y,-z
x,-y,1/2+z
1/2+x,1/2+y,z
1/2-x,1/2+y,1/2-z
1/2-x,1/2-y,-z
1/2+x,1/2-y,1/2+z
loop_
_atom_site_type_symbol
_atom_site_label
_atom_site_fract_x
_atom_site_fract_y
_atom_site_fract_z
Si Si1 0.085374 0.355419 0.879352
Si Si2 0.657524 0.510115 0.381453
Si Si3 0.247800 0.770671 0.270005
Si Si4 0.487851 0.829978 0.049455
Si Si5 0.940805 0.896288 0.339172
Si Si6 0.000000 0.405547 0.250000
Si Si7 0.581602 0.009542 0.558742
Si Si8 0.210939 0.185046 0.369191
O O1 0.073429 0.450378 0.873741
O O2 0.888562 0.326302 0.883219
O O3 0.262449 0.303569 0.815746
O O4 0.056402 0.335904 0.960925
O O5 0.481978 0.466133 0.381341
O O6 0.840217 0.462086 0.313424
O O7 0.715781 0.516176 0.447308
O O8 0.646511 0.599339 0.361562
O O9 0.078820 0.824882 0.331929
O O10 0.404752 0.838645 0.223024
O O11 0.207928 0.730332 0.209696
O O12 0.605109 0.897164 0.063127
O O13 0.465645 0.739158 0.070976
O O14 0.273084 0.865754 0.104501
O O15 0.000000 0.912908 0.250000
O O16 0.500000 0.000000 0.500000
#
# Coordination Sequence:
#
# PCOD9280918 Si02
#       8
#     8   8   8   8   8   4   8   8
#     4  10  21  37  66  94 122 169 216 260 315 391
#     4  10  24  39  64  95 126 168 217 262 326 387
#     4  11  21  40  63  94 124 162 219 268 324 381
#     4  11  21  39  69  92 128 170 217 262 321 381
#     4  11  22  39  63  97 127 166 213 272 322 381
#     4  10  24  40  64  88 132 170 204 268 328 388
#     4   9  21  41  65  92 125 177 212 257 324 396
#     4  11  21  37  64  94 122 162 217 267 314 385
#
# _framework density 24.987204999999999
#
# number of rings (size 3 to 8) (size 9 to 14) (size 15 to 20)
#    0.000    1.600    2.667    1.600    5.600    0.000 
#    3.600    6.000    2.933    4.000    0.000    0.000 
#    0.000    0.000    0.000    0.000    0.000    0.000 
#
# Total GULP energy -167114.597377 kJ/mol
# GULP energy per Si atom -5570.486579 kJ/mol
# Density = 2.493033 g / cm^3
# Si number density = 24.987205 Si / 1000 Ang^3
#
#
#
# Elastic Constant Matrix: (Units=GPa)
#
#
# Indices 1 2 3 4 5 6 
#
# 1 36.9902 19.2158 3.3098 0.0000 12.6731 0.0000
# 2 19.2158 206.3314 34.8801 0.0000 16.9319 0.0000
# 3 3.3098 34.8801 91.3706 0.0000 10.0387 0.0000
# 4 0.0000 0.0000 0.0000 34.8538 0.0000 8.7754
# 5 12.6731 16.9319 10.0387 0.0000 15.0917 0.0000
# 6 0.0000 0.0000 0.0000 8.7754 0.0000 35.8580
#
#
#
# Elastic Compliance Matrix: (Units=1/GPa)
#
#
# Indices 1 2 3 4 5 6 
#
# 1 0.038744 -0.001377 0.002726 0.000000 -0.032804 0.000000
# 2 -0.001377 0.005581 -0.001640 0.000000 -0.004015 0.000000
# 3 0.002726 -0.001640 0.012429 0.000000 -0.008718 0.000000
# 4 0.000000 0.000000 0.000000 0.030575 0.000000 -0.007483
# 5 -0.032804 -0.004015 -0.008718 0.000000 0.104111 0.000000
# 6 0.000000 0.000000 0.000000 -0.007483 0.000000 0.029719
#
#
# Mechanical properties :
#
#
# Convention : Reuss Voigt Hill
#
# Bulk Modulus (GPa) = 17.80179 49.94484 33.87331
# Shear Modulus (GPa) = 20.79291 35.64647 28.21969
#
# Velocity S-wave (km/s) = 2.88782 3.78112 3.36425
# Velocity P-wave (km/s) = 4.27307 6.25252 5.35505
#
# Compressibility (1/GPa) = 0.05617413
#
# Stress axis : x y z
#
# Youngs Moduli (GPa) = 25.81013 179.16358 80.45436
#
# Poissons Ratio (x) = 0.24676 -0.21935
# Poissons Ratio (y) = 0.03555 0.13192
# Poissons Ratio (z) = -0.07037 0.29378
#
# Static dielectric constant tensor:
#      x y z
#    x 2.200670 0.000000 0.010460 
#    y 0.000000 2.061370 0.000000 
#    z 0.010460 0.000000 2.029200 
# 
# From -- ./inp_files/232650.got.cif
#   From: 2010.05.17/outbox.cif.g08.bks.cpg/sg15_117_cif.got.tgz:232650.got - 2010.06.03 18:47:42.
