data_PCOD9280708
_publ_section_title
;
Structure prediction by ZEFSAII (Michael W. Deem and Ramdas Pophale) SiO2 
 PCOD9280708
Probable space group: C 2/C
;
_chemical_formula_sum "Si O2"
_cell_formula_units_Z 60
_cell_length_a 14.524713
_cell_length_b 24.878759
_cell_length_c 14.586010
_cell_angle_alpha 90.000000
_cell_angle_beta 32.503804
_cell_angle_gamma 90.000000
_cell_volume 2832.269402
_symmetry_space_group_name_H-M "C 2/C"
_symmetry_group_IT_number 15
_symmetry_cell_setting 'monoclinic'
loop_
_space_group_symop_operation_xyz
x,y,z
-x,y,1/2-z
-x,-y,-z
x,-y,1/2+z
1/2+x,1/2+y,z
1/2-x,1/2+y,1/2-z
1/2-x,1/2-y,-z
1/2+x,1/2-y,1/2+z
loop_
_atom_site_type_symbol
_atom_site_label
_atom_site_fract_x
_atom_site_fract_y
_atom_site_fract_z
Si Si1 0.273106 0.790276 0.761176
Si Si2 0.237260 0.531649 0.971797
Si Si3 0.000000 0.940073 0.750000
Si Si4 0.160864 0.673305 0.898883
Si Si5 0.115678 0.886478 0.837376
Si Si6 0.162108 0.538186 0.239885
Si Si7 0.798184 0.311384 0.937821
Si Si8 0.691772 0.568753 0.785447
O O1 0.256857 0.726232 0.780525
O O2 0.467928 0.806155 0.576023
O O3 0.148371 0.823079 0.800917
O O4 0.218720 0.817330 0.904828
O O5 0.333789 0.476226 0.911129
O O6 0.336021 0.552173 0.797686
O O7 0.224432 0.556489 0.085287
O O8 0.041034 0.529250 0.101269
O O9 0.051391 0.907128 0.795011
O O10 0.179166 0.619545 0.825309
O O11 0.236825 0.659535 0.937100
O O12 0.288223 0.916456 0.727949
O O13 0.977242 0.907493 0.026647
O O14 0.245029 0.483205 0.210355
O O15 0.000000 0.317219 0.750000
O O16 0.750000 0.250000 0.000000
#
# Coordination Sequence:
#
# PCOD9280708 Si02
#       8
#     8   8   4   8   8   8   8   8
#     4  10  21  39  61  90 134 176 219 273 333 399
#     4  11  24  41  67  94 135 164 219 271 337 409
#     4  12  24  44  66  92 132 176 224 280 330 388
#     4  10  21  37  62  96 129 174 221 273 333 401
#     4  12  25  42  66  94 136 179 226 278 334 398
#     4  11  24  43  64  97 130 176 216 274 338 403
#     4   8  16  32  53  82 121 158 201 252 317 386
#     4  12  23  40  65  97 132 174 220 271 335 401
#
# _framework density 21.184425999999998
#
# number of rings (size 3 to 8) (size 9 to 14) (size 15 to 20)
#    0.000    1.333    2.667    3.200    3.733    1.067 
#    0.000    0.000    0.000    4.800    0.000    0.000 
#    0.000    0.000    0.000    0.000    0.000    0.000 
#
# Total GULP energy -167389.542617 kJ/mol
# GULP energy per Si atom -5579.651421 kJ/mol
# Density = 2.113621 g / cm^3
# Si number density = 21.184426 Si / 1000 Ang^3
#
#
#
# Elastic Constant Matrix: (Units=GPa)
#
#
# Indices 1 2 3 4 5 6 
#
# 1 97.6500 26.3509 27.7280 0.0070 10.7713 0.0034
# 2 26.3509 84.7307 10.1154 0.0126 3.4695 0.0054
# 3 27.7280 10.1154 52.7659 0.0318 3.0138 0.0174
# 4 0.0070 0.0126 0.0318 19.3448 -0.0014 -8.7574
# 5 10.7713 3.4695 3.0138 -0.0014 23.3917 -0.0017
# 6 0.0034 0.0054 0.0174 -8.7574 -0.0017 18.9876
#
#
#
# Elastic Compliance Matrix: (Units=1/GPa)
#
#
# Indices 1 2 3 4 5 6 
#
# 1 0.013397 -0.003233 -0.006140 0.000011 -0.004898 0.000009
# 2 -0.003233 0.012911 -0.000758 -0.000009 -0.000329 -0.000007
# 3 -0.006140 -0.000758 0.022320 -0.000054 0.000064 -0.000044
# 4 0.000011 -0.000009 -0.000054 0.065335 0.000009 0.030133
# 5 -0.004898 -0.000329 0.000064 0.000009 0.045046 0.000009
# 6 0.000009 -0.000007 -0.000044 0.030133 0.000009 0.066564
#
#
# Mechanical properties :
#
#
# Convention : Reuss Voigt Hill
#
# Bulk Modulus (GPa) = 35.25262 40.39282 37.82272
# Shear Modulus (GPa) = 19.58553 23.74165 21.66359
#
# Velocity S-wave (km/s) = 3.04390 3.35134 3.20131
# Velocity P-wave (km/s) = 5.38801 5.83814 5.61759
#
# Compressibility (1/GPa) = 0.02836669
#
# Stress axis : x y z
#
# Youngs Moduli (GPa) = 74.64399 77.45109 44.80287
#
# Poissons Ratio (x) = 0.25038 0.27511
# Poissons Ratio (y) = 0.24131 0.03394
# Poissons Ratio (z) = 0.45835 0.05868
#
# Static dielectric constant tensor:
#      x y z
#    x 1.780550 0.000000 0.023390 
#    y 0.000000 1.784030 0.000000 
#    z 0.023390 0.000000 1.852160 
# 
# From -- ./inp_files/157326.got.cif
#   From: 2010.05.17/outbox.cif.g08.bks.cpg/sg15_79_cif.got.tgz:157326.got - 2010.06.03 18:47:42.
