data_PCOD9280280
_publ_section_title
;
Structure prediction by ZEFSAII (Michael W. Deem and Ramdas Pophale) SiO2 
 PCOD9280280
Probable space group: C 2/C
;
_chemical_formula_sum "Si O2"
_cell_formula_units_Z 64
_cell_length_a 26.192869
_cell_length_b 10.221178
_cell_length_c 20.938600
_cell_angle_alpha 90.000000
_cell_angle_beta 32.196363
_cell_angle_gamma 90.000000
_cell_volume 2986.855883
_symmetry_space_group_name_H-M "C 2/C"
_symmetry_group_IT_number 15
_symmetry_cell_setting 'monoclinic'
loop_
_space_group_symop_operation_xyz
x,y,z
-x,y,1/2-z
-x,-y,-z
x,-y,1/2+z
1/2+x,1/2+y,z
1/2-x,1/2+y,1/2-z
1/2-x,1/2-y,-z
1/2+x,1/2-y,1/2+z
loop_
_atom_site_type_symbol
_atom_site_label
_atom_site_fract_x
_atom_site_fract_y
_atom_site_fract_z
Si Si1 0.113677 0.379757 0.628546
Si Si2 0.435103 0.661578 0.010735
Si Si3 0.156353 0.663603 0.586029
Si Si4 0.395712 0.646984 0.763717
Si Si5 0.913073 0.851212 0.743656
Si Si6 0.785526 0.340200 0.617625
Si Si7 0.919234 0.138765 0.533097
Si Si8 0.793359 0.364752 0.110276
O O1 0.162439 0.513360 0.601830
O O2 0.127018 0.252852 0.658352
O O3 0.154253 0.359761 0.514634
O O4 0.000000 0.406941 0.750000
O O5 0.499117 0.663384 0.878187
O O6 0.398778 0.514955 0.064793
O O7 0.512583 0.692250 0.983228
O O8 0.348570 0.761609 0.095142
O O9 0.250000 0.750000 0.500000
O O10 0.081721 0.741813 0.707974
O O11 0.151771 0.660455 0.514472
O O12 0.389517 0.497134 0.794453
O O13 0.317066 0.661567 0.790818
O O14 0.824328 0.821802 0.789129
O O15 0.011103 0.859213 0.601847
O O16 0.827588 0.227406 0.617216
O O17 0.797899 0.486831 0.630855
#
# Coordination Sequence:
#
# PCOD9280280 Si02
#       8
#     8   8   8   8   8   8   8   8
#     4  11  21  35  59  88 118 148 185 233 283 340
#     4  10  22  40  54  82 109 146 193 234 281 334
#     4   9  20  36  55  84 117 145 181 226 275 340
#     4  10  21  39  58  82 115 151 184 234 285 339
#     4   9  20  37  57  82 113 148 188 229 285 341
#     4   9  20  37  55  82 111 145 182 230 281 337
#     4  10  22  37  58  77 112 147 188 239 280 330
#     4  10  21  37  58  80 114 145 184 231 283 336
#
# _framework density 21.427213999999999
#
# number of rings (size 3 to 8) (size 9 to 14) (size 15 to 20)
#    0.000    2.250    1.250    1.125    3.500    4.500 
#    0.000    0.000    0.000    0.000    0.000    0.000 
#    0.000    0.000    0.000    0.000    0.000    0.000 
#
# Total GULP energy -178705.715231 kJ/mol
# GULP energy per Si atom -5584.553601 kJ/mol
# Density = 2.137844 g / cm^3
# Si number density = 21.427214 Si / 1000 Ang^3
#
#
#
# Elastic Constant Matrix: (Units=GPa)
#
#
# Indices 1 2 3 4 5 6 
#
# 1 53.9350 65.2411 2.0489 0.0000 -17.4610 0.0000
# 2 65.2411 128.2237 17.6692 -0.0001 -19.8172 0.0000
# 3 2.0489 17.6692 76.9086 0.0000 -9.3829 0.0000
# 4 0.0000 -0.0001 0.0000 14.7464 0.0000 -3.5511
# 5 -17.4610 -19.8172 -9.3829 0.0000 31.4526 0.0000
# 6 0.0000 0.0000 0.0000 -3.5511 0.0000 32.9605
#
#
#
# Elastic Compliance Matrix: (Units=1/GPa)
#
#
# Indices 1 2 3 4 5 6 
#
# 1 0.056206 -0.027020 0.006683 0.000000 0.016173 0.000000
# 2 -0.027020 0.021771 -0.004606 0.000000 -0.002657 0.000000
# 3 0.006683 -0.004606 0.014509 0.000000 0.005137 0.000000
# 4 0.000000 0.000000 0.000000 0.069619 0.000000 0.007501
# 5 0.016173 -0.002657 0.005137 0.000000 0.040630 0.000000
# 6 0.000000 0.000000 0.000000 0.007501 0.000000 0.031147
#
#
# Mechanical properties :
#
#
# Convention : Reuss Voigt Hill
#
# Bulk Modulus (GPa) = 23.47329 47.66506 35.56917
# Shear Modulus (GPa) = 16.78030 27.43911 22.10970
#
# Velocity S-wave (km/s) = 2.80148 3.58239 3.21573
# Velocity P-wave (km/s) = 4.63067 6.27732 5.51579
#
# Compressibility (1/GPa) = 0.04260161
#
# Stress axis : x y z
#
# Youngs Moduli (GPa) = 17.79162 45.93346 68.92148
#
# Poissons Ratio (x) = 1.24110 -0.46062
# Poissons Ratio (y) = 0.48072 0.31745
# Poissons Ratio (z) = -0.11891 0.21157
#
# Static dielectric constant tensor:
#      x y z
#    x 1.774700 0.000000 0.014550 
#    y 0.000000 1.764500 0.000000 
#    z 0.014550 0.000000 1.850680 
# 
# From -- ./inp_files/255342.got.cif
#   From: 2010.05.17/outbox.cif.g08.bks.cpg/sg15_128_cif.got.tgz:255342.got - 2010.06.03 18:47:42.
