data_PCOD9280573
_publ_section_title
;
Structure prediction by ZEFSAII (Michael W. Deem and Ramdas Pophale) SiO2 
 PCOD9280573
Probable space group: C 2/C
;
_chemical_formula_sum "Si O2"
_cell_formula_units_Z 56
_cell_length_a 17.704496
_cell_length_b 19.204587
_cell_length_c 8.904577
_cell_angle_alpha 90.000000
_cell_angle_beta 55.853182
_cell_angle_gamma 90.000000
_cell_volume 2505.666900
_symmetry_space_group_name_H-M "C 2/C"
_symmetry_group_IT_number 15
_symmetry_cell_setting 'monoclinic'
loop_
_space_group_symop_operation_xyz
x,y,z
-x,y,1/2-z
-x,-y,-z
x,-y,1/2+z
1/2+x,1/2+y,z
1/2-x,1/2+y,1/2-z
1/2-x,1/2-y,-z
1/2+x,1/2-y,1/2+z
loop_
_atom_site_type_symbol
_atom_site_label
_atom_site_fract_x
_atom_site_fract_y
_atom_site_fract_z
Si Si1 0.428462 0.688945 0.449503
Si Si2 0.244157 0.580436 0.859643
Si Si3 0.538675 0.431936 0.374561
Si Si4 0.759380 0.761053 0.313231
Si Si5 0.412495 0.906535 0.406700
Si Si6 0.775813 0.174876 0.402284
Si Si7 0.142118 0.525181 0.250537
O O1 0.500000 0.719177 0.250000
O O2 0.479322 0.635692 0.502430
O O3 0.363445 0.737275 0.627919
O O4 0.356829 0.648604 0.417765
O O5 0.351463 0.566587 0.752441
O O6 0.226556 0.659267 0.822634
O O7 0.201264 0.523302 0.796361
O O8 0.202117 0.571330 0.071804
O O9 0.500000 0.426450 0.250000
O O10 0.500000 0.500000 0.500000
O O11 0.750000 0.750000 0.500000
O O12 0.704796 0.699891 0.288886
O O13 0.500000 0.865475 0.250000
O O14 0.313268 0.872353 0.498206
O O15 0.410079 0.973324 0.300647
O O16 0.419325 0.928095 0.572493
O O17 0.750000 0.250000 0.500000
#
# Coordination Sequence:
#
# PCOD9280573 Si02
#       7
#     8   8   8   8   8   8   8
#     4  10  23  40  60  90 128 170 218 269 325 390
#     4  10  21  39  60  90 125 168 213 261 328 391
#     4  11  22  35  56  89 129 173 220 270 322 395
#     4  10  21  40  64  90 124 168 223 277 328 393
#     4  11  22  38  62  90 121 161 208 263 323 383
#     4  10  22  41  63  88 125 170 213 266 324 393
#     4  10  21  37  61  89 122 158 203 264 327 393
#
# _framework density 22.349340000000002
#
# number of rings (size 3 to 8) (size 9 to 14) (size 15 to 20)
#    0.000    1.714    0.000    5.143    0.000   10.286 
#    0.000    0.000    0.000    5.143    0.000    0.000 
#    0.000    0.000    0.000    0.000    0.000    0.000 
#
# Total GULP energy -156309.043895 kJ/mol
# GULP energy per Si atom -5582.465853 kJ/mol
# Density = 2.229847 g / cm^3
# Si number density = 22.349340 Si / 1000 Ang^3
#
#
#
# Elastic Constant Matrix: (Units=GPa)
#
#
# Indices 1 2 3 4 5 6 
#
# 1 89.4103 27.5965 43.9341 0.0000 20.3832 0.0000
# 2 27.5965 78.2070 37.6666 0.0000 4.6552 0.0000
# 3 43.9341 37.6666 188.9215 0.0000 13.2754 0.0000
# 4 0.0000 0.0000 0.0000 28.5366 0.0000 12.6802
# 5 20.3832 4.6552 13.2754 0.0000 43.3702 0.0000
# 6 0.0000 0.0000 0.0000 12.6802 0.0000 11.7752
#
#
#
# Elastic Compliance Matrix: (Units=1/GPa)
#
#
# Indices 1 2 3 4 5 6 
#
# 1 0.014805 -0.003778 -0.002278 0.000000 -0.005855 0.000000
# 2 -0.003778 0.015128 -0.002195 0.000000 0.000824 0.000000
# 3 -0.002278 -0.002195 0.006305 0.000000 -0.000623 0.000000
# 4 0.000000 0.000000 0.000000 0.067196 0.000000 -0.072360
# 5 -0.005855 0.000824 -0.000623 0.000000 0.025912 0.000000
# 6 0.000000 0.000000 0.000000 -0.072360 0.000000 0.162845
#
#
# Mechanical properties :
#
#
# Convention : Reuss Voigt Hill
#
# Bulk Modulus (GPa) = 50.67495 63.88147 57.27821
# Shear Modulus (GPa) = 15.85934 33.22585 24.54260
#
# Velocity S-wave (km/s) = 2.66674 3.85990 3.31741
# Velocity P-wave (km/s) = 5.67497 6.96494 6.35278
#
# Compressibility (1/GPa) = 0.01973362
#
# Stress axis : x y z
#
# Youngs Moduli (GPa) = 67.54554 66.10192 158.61637
#
# Poissons Ratio (x) = 0.24976 0.36135
# Poissons Ratio (y) = 0.25521 0.34823
# Poissons Ratio (z) = 0.15388 0.14512
#
# Static dielectric constant tensor:
#      x y z
#    x 1.875250 0.000000 -0.014920 
#    y 0.000000 1.864480 0.000000 
#    z -0.014920 0.000000 1.888120 
# 
# From -- ./inp_files/50140.got.cif
#   From: 2010.05.17/outbox.cif.g08.bks.cpg/sg15_26_cif.got.tgz:50140.got - 2010.06.03 18:47:42.
