data_PCOD9280485
_publ_section_title
;
Structure prediction by ZEFSAII (Michael W. Deem and Ramdas Pophale) SiO2 
 PCOD9280485
Probable space group: C 2/C
;
_chemical_formula_sum "Si O2"
_cell_formula_units_Z 44
_cell_length_a 9.769060
_cell_length_b 14.289495
_cell_length_c 22.580844
_cell_angle_alpha 90.000000
_cell_angle_beta 137.386959
_cell_angle_gamma 90.000000
_cell_volume 2134.157158
_symmetry_space_group_name_H-M "C 2/C"
_symmetry_group_IT_number 15
_symmetry_cell_setting 'monoclinic'
loop_
_space_group_symop_operation_xyz
x,y,z
-x,y,1/2-z
-x,-y,-z
x,-y,1/2+z
1/2+x,1/2+y,z
1/2-x,1/2+y,1/2-z
1/2-x,1/2-y,-z
1/2+x,1/2-y,1/2+z
loop_
_atom_site_type_symbol
_atom_site_label
_atom_site_fract_x
_atom_site_fract_y
_atom_site_fract_z
Si Si1 0.974922 0.276267 0.807902
Si Si2 0.049111 0.118675 0.612940
Si Si3 0.862064 0.916607 0.826291
Si Si4 0.500000 0.507307 0.250000
Si Si5 0.563027 0.290584 0.541629
Si Si6 0.842475 0.580309 0.932161
O O1 0.876447 0.199765 0.818944
O O2 0.199195 0.300913 0.900020
O O3 0.000000 0.235270 0.750000
O O4 0.845989 0.368347 0.757991
O O5 0.052674 0.161601 0.549008
O O6 0.823066 0.096867 0.567728
O O7 0.159601 0.019551 0.652746
O O8 0.964630 0.847299 0.906372
O O9 0.975905 0.931635 0.801043
O O10 0.296779 0.449043 0.168722
O O11 0.542646 0.178817 0.541201
O O12 0.000000 0.500000 0.000000
#
# Coordination Sequence:
#
# PCOD9280485 Si02
#       6
#     8   8   8   4   8   8
#     4   9  19  35  61  87 113 153 202 249 291 354
#     4  10  21  37  60  91 116 157 201 251 306 358
#     4  10  22  36  61  83 125 152 198 251 300 357
#     4  10  24  38  60  88 126 164 204 246 306 364
#     4  10  21  38  63  91 115 152 204 252 304 357
#     4  10  22  38  64  93 120 160 202 255 299 367
#
# _framework density 20.617038000000001
#
# number of rings (size 3 to 8) (size 9 to 14) (size 15 to 20)
#    0.000    2.182    0.000    2.727   24.182    0.000 
#    0.000    3.636   10.000    0.000    0.000    0.000 
#    0.000    0.000    0.000    0.000    0.000    0.000 
#
# Total GULP energy -122680.683001 kJ/mol
# GULP energy per Si atom -5576.394682 kJ/mol
# Density = 2.057011 g / cm^3
# Si number density = 20.617038 Si / 1000 Ang^3
#
#
#
# Elastic Constant Matrix: (Units=GPa)
#
#
# Indices 1 2 3 4 5 6 
#
# 1 32.0600 46.4120 20.5701 0.0000 -20.8597 0.0000
# 2 46.4120 196.3002 85.8216 0.0000 -18.1417 0.0000
# 3 20.5701 85.8216 96.9617 0.0000 -18.3481 0.0000
# 4 0.0000 0.0000 0.0000 26.2248 0.0000 -0.1325
# 5 -20.8597 -18.1417 -18.3481 0.0000 28.5682 0.0000
# 6 0.0000 0.0000 0.0000 -0.1325 0.0000 25.4716
#
#
#
# Elastic Compliance Matrix: (Units=1/GPa)
#
#
# Indices 1 2 3 4 5 6 
#
# 1 0.098080 -0.021966 0.010868 0.000000 0.064646 0.000000
# 2 -0.021966 0.013240 -0.009679 0.000000 -0.013848 0.000000
# 3 0.010868 -0.009679 0.019253 0.000000 0.014155 0.000000
# 4 0.000000 0.000000 0.000000 0.038133 0.000000 0.000198
# 5 0.064646 -0.013848 0.014155 0.000000 0.082503 0.000000
# 6 0.000000 0.000000 0.000000 0.000198 0.000000 0.039260
#
#
# Mechanical properties :
#
#
# Convention : Reuss Voigt Hill
#
# Bulk Modulus (GPa) = 11.23364 70.10325 40.66845
# Shear Modulus (GPa) = 13.82379 27.55414 20.68897
#
# Velocity S-wave (km/s) = 2.59222 3.65975 3.17123
# Velocity P-wave (km/s) = 3.79737 7.20658 5.75998
#
# Compressibility (1/GPa) = 0.08901831
#
# Stress axis : x y z
#
# Youngs Moduli (GPa) = 10.19581 75.53115 51.94006
#
# Poissons Ratio (x) = 1.65915 -0.56451
# Poissons Ratio (y) = 0.22397 0.50272
# Poissons Ratio (z) = -0.11081 0.73105
#
# Static dielectric constant tensor:
#      x y z
#    x 1.770040 0.000000 0.019870 
#    y 0.000000 1.778400 0.000000 
#    z 0.019870 0.000000 1.778600 
# 
# From -- ./inp_files/196311.got.cif
#   From: 2010.05.17/outbox.cif.g08.bks.cpg/sg15_99_cif.got.tgz:196311.got - 2010.06.03 18:47:42.
