data_PCOD9280682
_publ_section_title
;
Structure prediction by ZEFSAII (Michael W. Deem and Ramdas Pophale) SiO2 
 PCOD9280682
Probable space group: C 2/C
;
_chemical_formula_sum "Si O2"
_cell_formula_units_Z 52
_cell_length_a 12.532209
_cell_length_b 11.329300
_cell_length_c 23.110938
_cell_angle_alpha 90.000000
_cell_angle_beta 136.380355
_cell_angle_gamma 90.000000
_cell_volume 2263.675409
_symmetry_space_group_name_H-M "C 2/C"
_symmetry_group_IT_number 15
_symmetry_cell_setting 'monoclinic'
loop_
_space_group_symop_operation_xyz
x,y,z
-x,y,1/2-z
-x,-y,-z
x,-y,1/2+z
1/2+x,1/2+y,z
1/2-x,1/2+y,1/2-z
1/2-x,1/2-y,-z
1/2+x,1/2-y,1/2+z
loop_
_atom_site_type_symbol
_atom_site_label
_atom_site_fract_x
_atom_site_fract_y
_atom_site_fract_z
Si Si1 0.787969 0.409003 0.957679
Si Si2 0.500000 0.420029 0.250000
Si Si3 0.359800 0.652546 0.572591
Si Si4 0.872793 0.685037 0.607068
Si Si5 0.670992 0.638634 0.625624
Si Si6 0.724783 0.896565 0.671248
Si Si7 0.088836 0.522315 0.233158
O O1 0.738695 0.533069 0.962978
O O2 0.634071 0.325956 0.888111
O O3 0.862774 0.415416 0.924150
O O4 0.883127 0.342493 0.043753
O O5 0.568157 0.347254 0.332576
O O6 0.636211 0.507606 0.278804
O O7 0.250000 0.750000 0.500000
O O8 0.501000 0.644563 0.583211
O O9 0.709200 0.645596 0.572496
O O10 0.991899 0.597404 0.683597
O O11 0.759833 0.756537 0.684431
O O12 0.746700 0.520168 0.679142
O O13 0.616652 0.915783 0.683713
O O14 0.000000 0.587156 0.250000
#
# Coordination Sequence:
#
# PCOD9280682 Si02
#       7
#     8   4   8   8   8   8   8
#     4   9  21  41  64  89 129 169 223 269 323 403
#     4  10  22  46  66  96 128 178 236 266 338 408
#     4  11  24  43  65  97 139 179 217 280 343 406
#     4   9  20  40  63  97 122 170 224 277 324 390
#     4  10  22  39  63  95 132 172 224 270 339 403
#     4  10  21  39  67  91 127 171 215 281 323 402
#     4  10  21  37  62  92 129 165 217 278 333 393
#
# _framework density 22.971492000000001
#
# number of rings (size 3 to 8) (size 9 to 14) (size 15 to 20)
#    0.000    2.154    1.538    0.000    9.692    1.231 
#   15.231    0.000    0.000    0.000    0.000    0.000 
#    0.000    0.000    0.000    0.000    0.000    0.000 
#
# Total GULP energy -144888.605460 kJ/mol
# GULP energy per Si atom -5572.638672 kJ/mol
# Density = 2.291921 g / cm^3
# Si number density = 22.971492 Si / 1000 Ang^3
#
#
#
# Elastic Constant Matrix: (Units=GPa)
#
#
# Indices 1 2 3 4 5 6 
#
# 1 162.8440 16.4239 42.9597 0.0000 -34.0263 0.0000
# 2 16.4239 65.2723 1.2603 0.0000 -22.0192 0.0000
# 3 42.9597 1.2603 64.1072 0.0000 -28.6737 0.0000
# 4 0.0000 0.0000 0.0000 23.6607 0.0000 -9.4000
# 5 -34.0263 -22.0192 -28.6737 0.0000 39.4687 0.0000
# 6 0.0000 0.0000 0.0000 -9.4000 0.0000 19.4180
#
#
#
# Elastic Compliance Matrix: (Units=1/GPa)
#
#
# Indices 1 2 3 4 5 6 
#
# 1 0.007965 -0.000606 -0.003564 0.000000 0.003940 0.000000
# 2 -0.000606 0.020893 0.007370 0.000000 0.016487 0.000000
# 3 -0.003564 0.007370 0.027119 0.000000 0.020741 0.000000
# 4 0.000000 0.000000 0.000000 0.052328 0.000000 0.025331
# 5 0.003940 0.016487 0.020741 0.000000 0.052999 0.000000
# 6 0.000000 0.000000 0.000000 0.025331 0.000000 0.063761
#
#
# Mechanical properties :
#
#
# Convention : Reuss Voigt Hill
#
# Bulk Modulus (GPa) = 16.03162 45.94571 30.98867
# Shear Modulus (GPa) = 20.88050 31.94812 26.41431
#
# Velocity S-wave (km/s) = 3.01819 3.73335 3.39466
# Velocity P-wave (km/s) = 4.37493 6.21518 5.37441
#
# Compressibility (1/GPa) = 0.06237672
#
# Stress axis : x y z
#
# Youngs Moduli (GPa) = 125.54390 47.86396 36.87432
#
# Poissons Ratio (x) = 0.02903 0.13141
# Poissons Ratio (y) = 0.07613 -0.27176
# Poissons Ratio (z) = 0.44740 -0.35276
#
# Static dielectric constant tensor:
#      x y z
#    x 1.852760 0.000000 -0.010950 
#    y 0.000000 1.891170 0.000000 
#    z -0.010950 0.000000 1.947890 
# 
# From -- ./inp_files/269317.got.cif
#   From: 2010.05.17/outbox.cif.g08.bks.cpg/sg15_135_cif.got.tgz:269317.got - 2010.06.03 18:47:42.
