data_PCOD9280315
_publ_section_title
;
Structure prediction by ZEFSAII (Michael W. Deem and Ramdas Pophale) SiO2 
 PCOD9280315
Probable space group: C 2/C
;
_chemical_formula_sum "Si O2"
_cell_formula_units_Z 48
_cell_length_a 6.030951
_cell_length_b 29.187451
_cell_length_c 14.605880
_cell_angle_alpha 90.000000
_cell_angle_beta 104.974026
_cell_angle_gamma 90.000000
_cell_volume 2483.740282
_symmetry_space_group_name_H-M "C 2/C"
_symmetry_group_IT_number 15
_symmetry_cell_setting 'monoclinic'
loop_
_space_group_symop_operation_xyz
x,y,z
-x,y,1/2-z
-x,-y,-z
x,-y,1/2+z
1/2+x,1/2+y,z
1/2-x,1/2+y,1/2-z
1/2-x,1/2-y,-z
1/2+x,1/2-y,1/2+z
loop_
_atom_site_type_symbol
_atom_site_label
_atom_site_fract_x
_atom_site_fract_y
_atom_site_fract_z
Si Si1 0.820277 0.743249 0.158308
Si Si2 0.500000 0.678932 0.250000
Si Si3 0.323598 0.099404 0.159880
Si Si4 0.500000 0.464804 0.750000
Si Si5 0.868951 0.872052 0.560172
Si Si6 0.855096 0.464431 0.926936
Si Si7 0.940438 0.710912 0.501638
O O1 0.659367 0.709925 0.202227
O O2 0.652734 0.779358 0.091454
O O3 0.000000 0.763362 0.250000
O O4 0.959252 0.718133 0.090615
O O5 0.636845 0.646622 0.335237
O O6 0.500000 0.123106 0.250000
O O7 0.161185 0.067133 0.204519
O O8 0.470228 0.065738 0.113773
O O9 0.146246 0.127990 0.077870
O O10 0.672684 0.488724 0.839130
O O11 0.783275 0.923843 0.535952
O O12 0.696812 0.836196 0.495914
O O13 0.000000 0.500000 0.000000
O O14 0.750000 0.750000 0.500000
#
# Coordination Sequence:
#
# PCOD9280315 Si02
#       7
#     8   4   8   4   8   8   8
#     4  11  22  38  62  86 124 162 199 249 306 364
#     4  12  21  36  60  96 120 152 198 258 322 352
#     4   9  18  34  55  86 119 147 185 241 302 355
#     4   8  17  34  52  86 110 144 186 234 282 360
#     4  11  22  34  57  89 122 152 199 247 300 370
#     4  10  21  37  58  87 119 156 192 246 306 361
#     4  11  23  40  55  89 127 160 201 248 303 371
#
# _framework density 19.325693000000001
#
# number of rings (size 3 to 8) (size 9 to 14) (size 15 to 20)
#    0.000    1.667    3.333    3.000    2.333    3.333 
#    3.000    0.000    1.833    0.000   15.167    0.000 
#    0.000    0.000    0.000    0.000    0.000    0.000 
#
# Total GULP energy -133670.441190 kJ/mol
# GULP energy per Si atom -5569.601716 kJ/mol
# Density = 1.928171 g / cm^3
# Si number density = 19.325693 Si / 1000 Ang^3
#
#
#
# Elastic Constant Matrix: (Units=GPa)
#
#
# Indices 1 2 3 4 5 6 
#
# 1 112.9905 30.5189 42.9964 0.0000 22.7470 0.0000
# 2 30.5189 75.1986 39.7578 0.0000 32.3410 0.0000
# 3 42.9964 39.7578 94.9104 0.0000 42.0887 0.0000
# 4 0.0000 0.0000 0.0000 31.8923 0.0000 16.8267
# 5 22.7470 32.3410 42.0887 0.0000 58.7073 0.0000
# 6 0.0000 0.0000 0.0000 16.8267 0.0000 33.1285
#
#
#
# Elastic Compliance Matrix: (Units=1/GPa)
#
#
# Indices 1 2 3 4 5 6 
#
# 1 0.011009 -0.002311 -0.003947 0.000000 -0.000163 0.000000
# 2 -0.002311 0.019303 -0.003989 0.000000 -0.006879 0.000000
# 3 -0.003947 -0.003989 0.018096 0.000000 -0.009247 0.000000
# 4 0.000000 0.000000 0.000000 0.042835 0.000000 -0.021757
# 5 -0.000163 -0.006879 -0.009247 0.000000 0.027515 0.000000
# 6 0.000000 0.000000 0.000000 -0.021757 0.000000 0.041236
#
#
# Mechanical properties :
#
#
# Convention : Reuss Voigt Hill
#
# Bulk Modulus (GPa) = 35.82384 56.62731 46.22557
# Shear Modulus (GPa) = 26.34448 36.06738 31.20593
#
# Velocity S-wave (km/s) = 3.69614 4.32475 4.02274
# Velocity P-wave (km/s) = 6.06567 7.36906 6.74891
#
# Compressibility (1/GPa) = 0.02791437
#
# Stress axis : x y z
#
# Youngs Moduli (GPa) = 90.83206 51.80449 55.26182
#
# Poissons Ratio (x) = 0.11973 0.21813
# Poissons Ratio (y) = 0.20993 0.22042
# Poissons Ratio (z) = 0.35853 0.20663
#
# Static dielectric constant tensor:
#      x y z
#    x 1.784430 0.000000 0.025880 
#    y 0.000000 1.686860 0.000000 
#    z 0.025880 0.000000 1.710150 
# 
# From -- ./inp_files/130477.got.cif
#   From: 2010.05.17/outbox.cif.g08.bks.cpg/sg15_66_cif.got.tgz:130477.got - 2010.06.03 18:47:42.
