data_PCOD9280193
_publ_section_title
;
Structure prediction by ZEFSAII (Michael W. Deem and Ramdas Pophale) SiO2 
 PCOD9280193
Probable space group: C 2/C
;
_chemical_formula_sum "Si O2"
_cell_formula_units_Z 40
_cell_length_a 7.668145
_cell_length_b 23.506453
_cell_length_c 9.837616
_cell_angle_alpha 90.000000
_cell_angle_beta 98.517177
_cell_angle_gamma 90.000000
_cell_volume 1753.682884
_symmetry_space_group_name_H-M "C 2/C"
_symmetry_group_IT_number 15
_symmetry_cell_setting 'monoclinic'
loop_
_space_group_symop_operation_xyz
x,y,z
-x,y,1/2-z
-x,-y,-z
x,-y,1/2+z
1/2+x,1/2+y,z
1/2-x,1/2+y,1/2-z
1/2-x,1/2-y,-z
1/2+x,1/2-y,1/2+z
loop_
_atom_site_type_symbol
_atom_site_label
_atom_site_fract_x
_atom_site_fract_y
_atom_site_fract_z
Si Si1 0.301694 0.479420 0.780414
Si Si2 0.116681 0.826329 0.896887
Si Si3 0.824803 0.564655 0.508788
Si Si4 0.988850 0.261834 0.898907
Si Si5 0.123446 0.379855 0.900433
O O1 0.500000 0.487645 0.750000
O O2 0.190778 0.473160 0.629473
O O3 0.278734 0.421687 0.869432
O O4 0.225843 0.529037 0.865967
O O5 0.183187 0.884939 0.970011
O O6 0.298744 0.793512 0.883678
O O7 0.000000 0.834458 0.750000
O O8 0.014693 0.786112 0.988985
O O9 0.016928 0.592810 0.514001
O O10 0.000000 0.236570 0.750000
O O11 0.131149 0.312715 0.932289
O O12 0.000000 0.381019 0.750000
#
# Coordination Sequence:
#
# PCOD9280193 Si02
#       5
#     8   8   8   8   8
#     4  11  21  35  55  82 115 151 194 242 292 350
#     4  10  21  38  59  85 118 154 194 244 299 352
#     4  10  21  37  56  80 115 156 195 237 293 357
#     4   9  19  38  61  86 115 151 197 243 293 359
#     4   8  17  36  59  80 112 154 190 237 300 357
#
# _framework density 22.809139999999999
#
# number of rings (size 3 to 8) (size 9 to 14) (size 15 to 20)
#    0.000    2.400    0.000    3.000    0.000    1.600 
#    0.000    6.000    0.000    1.200    0.000    0.000 
#    0.000    1.600    0.000    0.000    0.000    0.000 
#
# Total GULP energy -111764.288640 kJ/mol
# GULP energy per Si atom -5588.214432 kJ/mol
# Density = 2.275723 g / cm^3
# Si number density = 22.809140 Si / 1000 Ang^3
#
#
#
# Elastic Constant Matrix: (Units=GPa)
#
#
# Indices 1 2 3 4 5 6 
#
# 1 101.6404 29.8309 27.6359 0.0000 -29.3930 0.0000
# 2 29.8309 124.2776 75.6258 0.0000 -26.5384 0.0000
# 3 27.6359 75.6258 88.5968 0.0000 -42.0354 0.0000
# 4 0.0000 0.0000 0.0000 46.9426 0.0000 -18.1102
# 5 -29.3930 -26.5384 -42.0354 0.0000 37.8130 0.0000
# 6 0.0000 0.0000 0.0000 -18.1102 0.0000 28.8452
#
#
#
# Elastic Compliance Matrix: (Units=1/GPa)
#
#
# Indices 1 2 3 4 5 6 
#
# 1 0.013474 -0.003625 0.005615 0.000000 0.014172 0.000000
# 2 -0.003625 0.019211 -0.021600 0.000000 -0.013347 0.000000
# 3 0.005615 -0.021600 0.048357 0.000000 0.042962 0.000000
# 4 0.000000 0.000000 0.000000 0.028112 0.000000 0.017650
# 5 0.014172 -0.013347 0.042962 0.000000 0.075854 0.000000
# 6 0.000000 0.000000 0.000000 0.017650 0.000000 0.045749
#
#
# Mechanical properties :
#
#
# Convention : Reuss Voigt Hill
#
# Bulk Modulus (GPa) = 23.91083 64.52222 44.21652
# Shear Modulus (GPa) = 17.61085 34.81496 26.21291
#
# Velocity S-wave (km/s) = 2.78168 3.91110 3.39370
# Velocity P-wave (km/s) = 4.56319 6.98176 5.89778
#
# Compressibility (1/GPa) = 0.04182205
#
# Stress axis : x y z
#
# Youngs Moduli (GPa) = 74.21665 52.05484 20.67968
#
# Poissons Ratio (x) = 0.18870 -0.11612
# Poissons Ratio (y) = 0.26903 0.44668
# Poissons Ratio (z) = -0.41675 1.12438
#
# Static dielectric constant tensor:
#      x y z
#    x 1.949370 0.000000 -0.000920 
#    y 0.000000 1.890680 0.000000 
#    z -0.000920 0.000000 1.803000 
# 
# From -- ./inp_files/23608.got.cif
#   From: 2010.05.17/outbox.cif.g08.bks.cpg/sg15_12_cif.got.tgz:23608.got - 2010.06.03 18:47:42.
