data_PCOD9280092
_publ_section_title
;
Structure prediction by ZEFSAII (Michael W. Deem and Ramdas Pophale) SiO2 
 PCOD9280092
Probable space group: C 2/C
;
_chemical_formula_sum "Si O2"
_cell_formula_units_Z 40
_cell_length_a 9.088577
_cell_length_b 19.444350
_cell_length_c 9.870136
_cell_angle_alpha 90.000000
_cell_angle_beta 78.402162
_cell_angle_gamma 90.000000
_cell_volume 1708.652021
_symmetry_space_group_name_H-M "C 2/C"
_symmetry_group_IT_number 15
_symmetry_cell_setting 'monoclinic'
loop_
_space_group_symop_operation_xyz
x,y,z
-x,y,1/2-z
-x,-y,-z
x,-y,1/2+z
1/2+x,1/2+y,z
1/2-x,1/2+y,1/2-z
1/2-x,1/2-y,-z
1/2+x,1/2-y,1/2+z
loop_
_atom_site_type_symbol
_atom_site_label
_atom_site_fract_x
_atom_site_fract_y
_atom_site_fract_z
Si Si1 0.643052 0.095613 0.830593
Si Si2 0.919472 0.319378 0.530893
Si Si3 0.962470 0.066404 0.095583
Si Si4 0.648643 0.675727 0.890112
Si Si5 0.664923 0.942117 0.778177
O O1 0.500000 0.091490 0.750000
O O2 0.795914 0.129001 0.744464
O O3 0.679383 0.015566 0.850584
O O4 0.573491 0.145092 0.956863
O O5 0.813805 0.304770 0.420782
O O6 0.931369 0.249056 0.611473
O O7 0.826083 0.377959 0.624459
O O8 0.783097 0.068189 0.137216
O O9 0.000000 0.060875 0.250000
O O10 0.045727 0.130129 0.009035
O O11 0.000000 0.000000 0.000000
O O12 0.500000 0.939908 0.750000
#
# Coordination Sequence:
#
# PCOD9280092 Si02
#       5
#     8   8   8   8   8
#     4   9  19  35  58  91 125 163 225 263 329 393
#     4  10  21  36  66  91 129 174 222 280 330 402
#     4  12  25  44  69 102 137 178 227 283 337 402
#     4  10  21  38  61  98 126 172 223 279 334 398
#     4  11  23  41  65  93 135 176 225 273 345 397
#
# _framework density 23.410267000000001
#
# number of rings (size 3 to 8) (size 9 to 14) (size 15 to 20)
#    0.000    1.600    4.000    0.600    2.800    2.400 
#    0.000    2.000    0.000    0.000    0.000    0.000 
#    0.000    0.000    0.000    0.000    0.000    0.000 
#
# Total GULP energy -111664.560780 kJ/mol
# GULP energy per Si atom -5583.228039 kJ/mol
# Density = 2.335698 g / cm^3
# Si number density = 23.410267 Si / 1000 Ang^3
#
#
#
# Elastic Constant Matrix: (Units=GPa)
#
#
# Indices 1 2 3 4 5 6 
#
# 1 82.0327 21.9420 40.6061 0.0000 -30.7802 0.0000
# 2 21.9420 211.1249 71.3283 0.0000 -20.3188 0.0000
# 3 40.6061 71.3283 119.1241 0.0000 -46.4418 0.0000
# 4 0.0000 0.0000 0.0000 9.7289 0.0000 1.2815
# 5 -30.7802 -20.3188 -46.4418 0.0000 47.9362 0.0000
# 6 0.0000 0.0000 0.0000 1.2815 0.0000 8.3920
#
#
#
# Elastic Compliance Matrix: (Units=1/GPa)
#
#
# Indices 1 2 3 4 5 6 
#
# 1 0.016478 -0.000137 -0.002302 0.000000 0.008292 0.000000
# 2 -0.000137 0.006006 -0.004164 0.000000 -0.001576 0.000000
# 3 -0.002302 -0.004164 0.016726 0.000000 0.012961 0.000000
# 4 0.000000 0.000000 0.000000 0.104896 0.000000 -0.016018
# 5 0.008292 -0.001576 0.012961 0.000000 0.038074 0.000000
# 6 0.000000 0.000000 0.000000 -0.016018 0.000000 0.121607
#
#
# Mechanical properties :
#
#
# Convention : Reuss Voigt Hill
#
# Bulk Modulus (GPa) = 38.45656 75.55940 57.00798
# Shear Modulus (GPa) = 15.35343 31.77179 23.56261
#
# Velocity S-wave (km/s) = 2.56372 3.68798 3.17599
# Velocity P-wave (km/s) = 5.02259 7.10501 6.15254
#
# Compressibility (1/GPa) = 0.02600336
#
# Stress axis : x y z
#
# Youngs Moduli (GPa) = 60.68780 166.50372 59.78825
#
# Poissons Ratio (x) = 0.02276 0.13764
# Poissons Ratio (y) = 0.00830 0.24897
# Poissons Ratio (z) = 0.13971 0.69334
#
# Static dielectric constant tensor:
#      x y z
#    x 2.021090 0.000000 0.098370 
#    y 0.000000 1.892850 0.000000 
#    z 0.098370 0.000000 1.937660 
# 
# From -- ./inp_files/87102.got.cif
#   From: 2010.05.17/outbox.cif.g08.bks.cpg/sg15_44_cif.got.tgz:87102.got - 2010.06.03 18:47:42.
