data_PCOD9280903
_publ_section_title
;
Structure prediction by ZEFSAII (Michael W. Deem and Ramdas Pophale) SiO2 
 PCOD9280903
Probable space group: C 2/C
;
_chemical_formula_sum "Si O2"
_cell_formula_units_Z 52
_cell_length_a 8.953613
_cell_length_b 17.537620
_cell_length_c 23.885039
_cell_angle_alpha 90.000000
_cell_angle_beta 134.858678
_cell_angle_gamma 90.000000
_cell_volume 2658.572426
_symmetry_space_group_name_H-M "C 2/C"
_symmetry_group_IT_number 15
_symmetry_cell_setting 'monoclinic'
loop_
_space_group_symop_operation_xyz
x,y,z
-x,y,1/2-z
-x,-y,-z
x,-y,1/2+z
1/2+x,1/2+y,z
1/2-x,1/2+y,1/2-z
1/2-x,1/2-y,-z
1/2+x,1/2-y,1/2+z
loop_
_atom_site_type_symbol
_atom_site_label
_atom_site_fract_x
_atom_site_fract_y
_atom_site_fract_z
Si Si1 0.347298 0.075446 0.021730
Si Si2 0.390688 0.239476 0.309093
Si Si3 0.477815 0.637712 0.337787
Si Si4 0.281714 0.505335 0.628283
Si Si5 0.911664 0.272451 0.942324
Si Si6 0.832353 0.150291 0.422928
Si Si7 0.500000 0.635987 0.750000
O O1 0.566577 0.033004 0.092700
O O2 0.415610 0.159782 0.018202
O O3 0.207681 0.087434 0.039724
O O4 0.246993 0.029966 0.943997
O O5 0.197276 0.184451 0.242510
O O6 0.385164 0.261342 0.372870
O O7 0.609515 0.194358 0.357825
O O8 0.393555 0.310575 0.268237
O O9 0.539554 0.559120 0.324289
O O10 0.691440 0.687688 0.399270
O O11 0.397391 0.622236 0.379225
O O12 0.335821 0.580245 0.676838
O O13 0.997662 0.210290 0.007958
#
# Coordination Sequence:
#
# PCOD9280903 Si02
#       7
#     8   8   8   8   8   8   4
#     4   9  20  39  60  86 121 166 208 253 309 384
#     4  11  22  40  63  92 124 164 215 258 306 375
#     4  11  23  38  62  95 130 162 205 260 325 372
#     4  10  23  38  61  89 126 165 208 256 324 374
#     4  10  21  37  66  89 123 162 214 255 312 363
#     4  11  20  38  65  91 120 165 213 260 304 370
#     4  12  22  38  66  90 122 164 218 256 308 380
#
# _framework density 19.559370000000001
#
# number of rings (size 3 to 8) (size 9 to 14) (size 15 to 20)
#    0.000    1.538    1.538    4.615    6.462    0.615 
#    2.769    0.000    3.385    0.000    0.000    0.000 
#    0.000    0.000    0.000    0.000    0.000    0.000 
#
# Total GULP energy -145340.988208 kJ/mol
# GULP energy per Si atom -5590.038008 kJ/mol
# Density = 1.951485 g / cm^3
# Si number density = 19.559370 Si / 1000 Ang^3
#
#
#
# Elastic Constant Matrix: (Units=GPa)
#
#
# Indices 1 2 3 4 5 6 
#
# 1 71.9260 13.4096 18.8918 0.0000 -9.5470 0.0000
# 2 13.4096 84.0480 29.1065 0.0000 0.2225 0.0000
# 3 18.8918 29.1065 60.5475 -0.0001 -0.4562 0.0000
# 4 0.0000 0.0000 -0.0001 36.7806 0.0000 -1.0195
# 5 -9.5470 0.2225 -0.4562 0.0000 22.5625 0.0000
# 6 0.0000 0.0000 0.0000 -1.0195 0.0000 23.0747
#
#
#
# Elastic Compliance Matrix: (Units=1/GPa)
#
#
# Indices 1 2 3 4 5 6 
#
# 1 0.016176 -0.001042 -0.004495 0.000000 0.006764 0.000000
# 2 -0.001042 0.014343 -0.006575 0.000000 -0.000715 0.000000
# 3 -0.004495 -0.006575 0.021069 0.000000 -0.001411 0.000000
# 4 0.000000 0.000000 0.000000 0.027222 0.000000 0.001203
# 5 0.006764 -0.000715 -0.001411 0.000000 0.047162 0.000000
# 6 0.000000 0.000000 0.000000 0.001203 0.000000 0.043391
#
#
# Mechanical properties :
#
#
# Convention : Reuss Voigt Hill
#
# Bulk Modulus (GPa) = 36.54603 37.70413 37.12508
# Shear Modulus (GPa) = 24.66600 26.82448 25.74524
#
# Velocity S-wave (km/s) = 3.55503 3.70731 3.63197
# Velocity P-wave (km/s) = 5.96458 6.13548 6.05063
#
# Compressibility (1/GPa) = 0.02736275
#
# Stress axis : x y z
#
# Youngs Moduli (GPa) = 61.82011 69.71942 47.46345
#
# Poissons Ratio (x) = 0.07265 0.21336
# Poissons Ratio (y) = 0.06442 0.31209
# Poissons Ratio (z) = 0.27790 0.45843
#
# Static dielectric constant tensor:
#      x y z
#    x 1.676060 0.000000 -0.003510 
#    y 0.000000 1.663930 0.000000 
#    z -0.003510 0.000000 1.693690 
# 
# From -- ./inp_files/190863.got.cif
#   From: 2010.05.17/outbox.cif.g08.bks.cpg/sg15_96_cif.got.tgz:190863.got - 2010.06.03 18:47:42.
