data_PCOD9280895
_publ_section_title
;
Structure prediction by ZEFSAII (Michael W. Deem and Ramdas Pophale) SiO2 
 PCOD9280895
Probable space group: C 2/C
;
_chemical_formula_sum "Si O2"
_cell_formula_units_Z 44
_cell_length_a 24.496654
_cell_length_b 9.135707
_cell_length_c 12.021042
_cell_angle_alpha 90.000000
_cell_angle_beta 138.813618
_cell_angle_gamma 90.000000
_cell_volume 1771.551658
_symmetry_space_group_name_H-M "C 2/C"
_symmetry_group_IT_number 15
_symmetry_cell_setting 'monoclinic'
loop_
_space_group_symop_operation_xyz
x,y,z
-x,y,1/2-z
-x,-y,-z
x,-y,1/2+z
1/2+x,1/2+y,z
1/2-x,1/2+y,1/2-z
1/2-x,1/2-y,-z
1/2+x,1/2-y,1/2+z
loop_
_atom_site_type_symbol
_atom_site_label
_atom_site_fract_x
_atom_site_fract_y
_atom_site_fract_z
Si Si1 0.931575 0.686492 0.799143
Si Si2 0.389489 0.414343 0.567638
Si Si3 0.772720 0.491441 0.546224
Si Si4 0.207390 0.225028 0.765873
Si Si5 0.109000 0.230239 0.017105
Si Si6 0.500000 0.959615 0.750000
O O1 0.940916 0.832794 0.741276
O O2 0.841688 0.613920 0.633297
O O3 0.930481 0.726913 0.926033
O O4 0.993095 0.563954 0.846242
O O5 0.301641 0.446805 0.493628
O O6 0.367010 0.309826 0.430229
O O7 0.417224 0.570749 0.563972
O O8 0.810264 0.356488 0.675811
O O9 0.731375 0.418914 0.374137
O O10 0.291278 0.265252 0.827655
O O11 0.077932 0.352523 0.882787
#
# Coordination Sequence:
#
# PCOD9280895 Si02
#       6
#     8   8   8   8   8   4
#     4  12  25  45  71 102 134 184 233 276 335 411
#     4  11  24  40  73 102 138 168 221 286 359 399
#     4  10  21  37  66 103 139 165 219 278 350 401
#     4  10  21  38  67 105 135 172 210 285 353 401
#     4  11  25  46  66  99 141 177 225 284 332 409
#     4  12  28  48  70  94 136 190 240 274 330 398
#
# _framework density 24.836983
#
# number of rings (size 3 to 8) (size 9 to 14) (size 15 to 20)
#    0.000    1.091    3.636    2.182    7.636    0.727 
#    0.000    1.818    0.000    0.000    0.000    0.000 
#    0.000    0.000    0.000    0.000    0.000    0.000 
#
# Total GULP energy -123338.230682 kJ/mol
# GULP energy per Si atom -5606.283213 kJ/mol
# Density = 2.478045 g / cm^3
# Si number density = 24.836983 Si / 1000 Ang^3
#
#
#
# Elastic Constant Matrix: (Units=GPa)
#
#
# Indices 1 2 3 4 5 6 
#
# 1 82.2896 39.6945 19.4704 0.0000 -18.1929 0.0000
# 2 39.6945 156.4515 47.3430 0.0000 -12.6750 0.0000
# 3 19.4704 47.3430 83.0064 0.0000 -5.9614 0.0000
# 4 0.0000 0.0000 0.0000 34.1284 0.0000 -3.5482
# 5 -18.1929 -12.6750 -5.9614 0.0000 35.5255 0.0000
# 6 0.0000 0.0000 0.0000 -3.5482 0.0000 30.8158
#
#
#
# Elastic Compliance Matrix: (Units=1/GPa)
#
#
# Indices 1 2 3 4 5 6 
#
# 1 0.015363 -0.002922 -0.001465 0.000000 0.006579 0.000000
# 2 -0.002922 0.008430 -0.004063 0.000000 0.000830 0.000000
# 3 -0.001465 -0.004063 0.014728 0.000000 0.000272 0.000000
# 4 0.000000 0.000000 0.000000 0.029656 0.000000 0.003415
# 5 0.006579 0.000830 0.000272 0.000000 0.031860 0.000000
# 6 0.000000 0.000000 0.000000 0.003415 0.000000 0.032844
#
#
# Mechanical properties :
#
#
# Convention : Reuss Voigt Hill
#
# Bulk Modulus (GPa) = 46.25038 59.41813 52.83426
# Shear Modulus (GPa) = 31.85009 34.44326 33.14667
#
# Velocity S-wave (km/s) = 3.58490 3.72798 3.65714
# Velocity P-wave (km/s) = 5.98309 6.51963 6.25711
#
# Compressibility (1/GPa) = 0.02162144
#
# Stress axis : x y z
#
# Youngs Moduli (GPa) = 65.09327 118.62810 67.89913
#
# Poissons Ratio (x) = 0.34657 0.09945
# Poissons Ratio (y) = 0.19017 0.27588
# Poissons Ratio (z) = 0.09534 0.48199
#
# Static dielectric constant tensor:
#      x y z
#    x 1.989430 0.000000 0.036500 
#    y 0.000000 1.921380 0.000000 
#    z 0.036500 0.000000 1.909920 
# 
# From -- ./inp_files/109949.got.cif
#   From: 2010.05.17/outbox.cif.g08.bks.cpg/sg15_55_cif.got.tgz:109949.got - 2010.06.03 18:47:42.
