data_PCOD9280848
_publ_section_title
;
Structure prediction by ZEFSAII (Michael W. Deem and Ramdas Pophale) SiO2 
 PCOD9280848
Probable space group: C 2/C
;
_chemical_formula_sum "Si O2"
_cell_formula_units_Z 52
_cell_length_a 9.260442
_cell_length_b 17.181519
_cell_length_c 16.468331
_cell_angle_alpha 90.000000
_cell_angle_beta 112.021435
_cell_angle_gamma 90.000000
_cell_volume 2429.086841
_symmetry_space_group_name_H-M "C 2/C"
_symmetry_group_IT_number 15
_symmetry_cell_setting 'monoclinic'
loop_
_space_group_symop_operation_xyz
x,y,z
-x,y,1/2-z
-x,-y,-z
x,-y,1/2+z
1/2+x,1/2+y,z
1/2-x,1/2+y,1/2-z
1/2-x,1/2-y,-z
1/2+x,1/2-y,1/2+z
loop_
_atom_site_type_symbol
_atom_site_label
_atom_site_fract_x
_atom_site_fract_y
_atom_site_fract_z
Si Si1 0.000000 0.144353 0.250000
Si Si2 0.047325 0.335813 0.883207
Si Si3 0.116548 0.228042 0.534465
Si Si4 0.737883 0.007379 0.403311
Si Si5 0.180648 0.359096 0.287872
Si Si6 0.230257 0.730989 0.287810
Si Si7 0.434404 0.420562 0.573340
O O1 0.114548 0.193681 0.217070
O O2 0.095381 0.096255 0.338067
O O3 0.113197 0.423928 0.893814
O O4 0.186388 0.286950 0.870693
O O5 0.990156 0.298352 0.956005
O O6 0.901179 0.314941 0.793274
O O7 0.250000 0.250000 0.500000
O O8 0.213510 0.191318 0.628859
O O9 0.034104 0.156866 0.472859
O O10 0.683510 0.945547 0.324279
O O11 0.792457 0.964477 0.498105
O O12 0.902480 0.035476 0.401039
O O13 0.254185 0.324450 0.220684
O O14 0.000000 0.338437 0.250000
#
# Coordination Sequence:
#
# PCOD9280848 Si02
#       7
#     4   8   8   8   8   8   8
#     4  12  20  40  68  90 122 180 230 272 346 414
#     4  10  21  40  68  95 134 172 232 287 328 406
#     4  10  22  42  65  95 129 174 228 289 337 407
#     4  10  22  41  60  98 140 177 221 290 341 402
#     4  10  21  38  64  92 135 174 221 274 339 407
#     4  10  21  37  65 100 126 178 227 280 332 406
#     4  10  22  40  64  91 137 180 219 283 353 406
#
# _framework density 21.407222999999998
#
# number of rings (size 3 to 8) (size 9 to 14) (size 15 to 20)
#    0.000    1.846    2.308    1.846    2.154    0.615 
#    0.000   14.615    0.000    0.000    0.000    0.000 
#    0.000    0.000    0.000    0.000    0.000    0.000 
#
# Total GULP energy -144756.016231 kJ/mol
# GULP energy per Si atom -5567.539086 kJ/mol
# Density = 2.135850 g / cm^3
# Si number density = 21.407223 Si / 1000 Ang^3
#
#
#
# Elastic Constant Matrix: (Units=GPa)
#
#
# Indices 1 2 3 4 5 6 
#
# 1 104.2687 56.9836 31.5729 0.0000 -8.4642 0.0000
# 2 56.9836 142.4209 44.6912 0.0000 -7.8509 0.0000
# 3 31.5729 44.6912 63.8874 0.0000 -8.3553 0.0000
# 4 0.0000 0.0000 0.0000 -18.9490 0.0000 -29.1927
# 5 -8.4642 -7.8509 -8.3553 0.0000 43.8553 0.0000
# 6 0.0000 0.0000 0.0000 -29.1927 0.0000 16.2489
#
#
#
# Elastic Compliance Matrix: (Units=1/GPa)
#
#
# Indices 1 2 3 4 5 6 
#
# 1 0.012922 -0.004037 -0.003416 0.000000 0.001121 0.000000
# 2 -0.004037 0.010265 -0.005176 0.000000 0.000072 0.000000
# 3 -0.003416 -0.005176 0.021284 0.000000 0.002469 0.000000
# 4 0.000000 0.000000 0.000000 -0.014006 0.000000 -0.025164
# 5 0.001121 0.000072 0.002469 0.000000 0.023502 0.000000
# 6 0.000000 0.000000 0.000000 -0.025164 0.000000 0.016334
#
#
# Mechanical properties :
#
#
# Convention : Reuss Voigt Hill
#
# Bulk Modulus (GPa) = 52.04503 64.11917 58.08210
# Shear Modulus (GPa) = 49.03791 20.05300 34.54546
#
# Velocity S-wave (km/s) = 4.79134 3.06394 4.02148
# Velocity P-wave (km/s) = 7.41444 6.52182 6.98241
#
# Compressibility (1/GPa) = 0.01921413
#
# Stress axis : x y z
#
# Youngs Moduli (GPa) = 77.38840 97.42089 46.98273
#
# Poissons Ratio (x) = 0.39324 0.16048
# Poissons Ratio (y) = 0.31238 0.24319
# Poissons Ratio (z) = 0.26434 0.50427
#
# Static dielectric constant tensor:
#      x y z
#    x 1.711010 0.000000 -0.023890 
#    y 0.000000 1.880000 0.000000 
#    z -0.023890 0.000000 1.870070 
# 
# From -- ./inp_files/190501.got.cif
#   From: 2010.05.17/outbox.cif.g08.bks.cpg/sg15_96_cif.got.tgz:190501.got - 2010.06.03 18:47:42.
