data_PCOD9280732
_publ_section_title
;
Structure prediction by ZEFSAII (Michael W. Deem and Ramdas Pophale) SiO2 
 PCOD9280732
Probable space group: C 2/C
;
_chemical_formula_sum "Si O2"
_cell_formula_units_Z 64
_cell_length_a 13.900701
_cell_length_b 8.506987
_cell_length_c 30.640900
_cell_angle_alpha 90.000000
_cell_angle_beta 126.032698
_cell_angle_gamma 90.000000
_cell_volume 2930.160799
_symmetry_space_group_name_H-M "C 2/C"
_symmetry_group_IT_number 15
_symmetry_cell_setting 'monoclinic'
loop_
_space_group_symop_operation_xyz
x,y,z
-x,y,1/2-z
-x,-y,-z
x,-y,1/2+z
1/2+x,1/2+y,z
1/2-x,1/2+y,1/2-z
1/2-x,1/2-y,-z
1/2+x,1/2-y,1/2+z
loop_
_atom_site_type_symbol
_atom_site_label
_atom_site_fract_x
_atom_site_fract_y
_atom_site_fract_z
Si Si1 0.454720 0.312500 0.037118
Si Si2 0.633592 0.454966 0.629935
Si Si3 0.066846 0.661796 0.379264
Si Si4 0.799931 0.725525 0.924908
Si Si5 0.352850 0.853888 0.146560
Si Si6 0.831805 0.610523 0.422214
Si Si7 0.612218 0.736392 0.211423
Si Si8 0.684658 0.064840 0.186018
O O1 0.521389 0.453048 0.079740
O O2 0.418838 0.195526 0.066102
O O3 0.559162 0.224765 0.038681
O O4 0.347107 0.341122 0.975661
O O5 0.649799 0.298798 0.605493
O O6 0.753380 0.563487 0.652623
O O7 0.610533 0.394769 0.672424
O O8 0.158148 0.780001 0.381293
O O9 0.112619 0.492170 0.377329
O O10 0.929428 0.669169 0.329667
O O11 0.838475 0.552435 0.948605
O O12 0.285329 0.713793 0.104270
O O13 0.482141 0.786475 0.194443
O O14 0.830040 0.560251 0.370258
O O15 0.669911 0.895763 0.205571
O O16 0.696770 0.657096 0.269842
#
# Coordination Sequence:
#
# PCOD9280732 Si02
#       8
#     8   8   8   8   8   8   8   8
#     4  10  21  37  63  87 122 167 202 257 317 369
#     4  10  22  41  65  90 127 163 210 263 316 377
#     4   9  21  40  57  88 123 152 207 259 302 378
#     4  11  20  38  62  90 121 162 209 256 314 375
#     4   9  22  41  61  88 126 163 200 264 313 372
#     4  10  21  39  58  88 127 155 205 260 306 375
#     4  11  23  42  66  89 123 167 206 259 323 379
#     4  10  23  40  62  88 119 162 204 253 320 374
#
# _framework density 21.841805000000001
#
# number of rings (size 3 to 8) (size 9 to 14) (size 15 to 20)
#    0.000    2.000    1.250    1.125    7.000    0.500 
#    2.250    2.500    0.000    0.000    0.000    0.000 
#    0.000    0.000    0.000    0.000    0.000    0.000 
#
# Total GULP energy -178435.536644 kJ/mol
# GULP energy per Si atom -5576.110520 kJ/mol
# Density = 2.179209 g / cm^3
# Si number density = 21.841805 Si / 1000 Ang^3
#
#
#
# Elastic Constant Matrix: (Units=GPa)
#
#
# Indices 1 2 3 4 5 6 
#
# 1 64.6453 11.1503 18.3104 0.0000 18.2978 0.0000
# 2 11.1503 53.7154 5.9652 0.0000 12.7665 0.0000
# 3 18.3104 5.9652 42.1191 0.0000 16.4615 0.0000
# 4 0.0000 0.0000 0.0000 30.4180 0.0000 0.0188
# 5 18.2978 12.7665 16.4615 0.0000 31.9026 0.0000
# 6 0.0000 0.0000 0.0000 0.0188 0.0000 17.3572
#
#
#
# Elastic Compliance Matrix: (Units=1/GPa)
#
#
# Indices 1 2 3 4 5 6 
#
# 1 0.019424 -0.001596 -0.005153 0.000000 -0.007843 0.000000
# 2 -0.001596 0.020709 0.000804 0.000000 -0.007787 0.000000
# 3 -0.005153 0.000804 0.031114 0.000000 -0.013421 0.000000
# 4 0.000000 0.000000 0.000000 0.032875 0.000000 -0.000036
# 5 -0.007843 -0.007787 -0.013421 0.000000 0.045885 0.000000
# 6 0.000000 0.000000 0.000000 -0.000036 0.000000 0.057613
#
#
# Mechanical properties :
#
#
# Convention : Reuss Voigt Hill
#
# Bulk Modulus (GPa) = 16.84686 25.70349 21.27518
# Shear Modulus (GPa) = 20.89471 24.27247 22.58359
#
# Velocity S-wave (km/s) = 3.09631 3.33721 3.21902
# Velocity P-wave (km/s) = 4.52910 5.16167 4.85570
#
# Compressibility (1/GPa) = 0.05935823
#
# Stress axis : x y z
#
# Youngs Moduli (GPa) = 51.48336 48.28750 32.14020
#
# Poissons Ratio (x) = 0.07705 0.16561
# Poissons Ratio (y) = 0.08215 -0.02584
# Poissons Ratio (z) = 0.26528 -0.03883
#
# Static dielectric constant tensor:
#      x y z
#    x 1.875490 0.000000 0.022970 
#    y 0.000000 1.817190 0.000000 
#    z 0.022970 0.000000 1.763700 
# 
# From -- ./inp_files/295134.got.cif
#   From: 2010.05.17/outbox.cif.g08.bks.cpg/sg15_148_cif.got.tgz:295134.got - 2010.06.03 18:47:42.
