data_PCOD9280068
_publ_section_title
;
Structure prediction by ZEFSAII (Michael W. Deem and Ramdas Pophale) SiO2 
 PCOD9280068
Probable space group: C 2/C
;
_chemical_formula_sum "Si O2"
_cell_formula_units_Z 48
_cell_length_a 6.299498
_cell_length_b 20.531731
_cell_length_c 22.133822
_cell_angle_alpha 90.000000
_cell_angle_beta 118.360762
_cell_angle_gamma 90.000000
_cell_volume 2519.171914
_symmetry_space_group_name_H-M "C 2/C"
_symmetry_group_IT_number 15
_symmetry_cell_setting 'monoclinic'
loop_
_space_group_symop_operation_xyz
x,y,z
-x,y,1/2-z
-x,-y,-z
x,-y,1/2+z
1/2+x,1/2+y,z
1/2-x,1/2+y,1/2-z
1/2-x,1/2-y,-z
1/2+x,1/2-y,1/2+z
loop_
_atom_site_type_symbol
_atom_site_label
_atom_site_fract_x
_atom_site_fract_y
_atom_site_fract_z
Si Si1 0.338431 0.045038 0.522968
Si Si2 0.012744 0.664551 0.093487
Si Si3 0.465127 0.803245 0.033990
Si Si4 0.799224 0.045693 0.399082
Si Si5 0.841828 0.255197 0.677072
Si Si6 0.545596 0.378625 0.685568
O O1 0.396931 0.121222 0.534129
O O2 0.069567 0.040181 0.460281
O O3 0.500000 0.000000 0.500000
O O4 0.342045 0.014506 0.590847
O O5 0.829311 0.608665 0.089264
O O6 0.013950 0.715791 0.148094
O O7 0.280862 0.635666 0.122145
O O8 0.927739 0.694614 0.019173
O O9 0.641375 0.782839 0.111869
O O10 0.250000 0.750000 0.000000
O O11 0.826757 0.061606 0.332019
O O12 0.708845 0.315537 0.692939
O O13 0.000000 0.220627 0.750000
O O14 0.500000 0.389101 0.750000
#
# Coordination Sequence:
#
# PCOD9280068 Si02
#       6
#     8   8   8   8   8   8
#     4  11  21  40  62  93 133 164 210 276 327 381
#     4  11  20  39  62  95 125 158 216 264 313 383
#     4  12  22  39  65  99 126 166 218 275 319 394
#     4  10  21  36  64  95 119 166 217 258 333 374
#     4  11  23  36  58  94 129 171 206 259 337 386
#     4  11  20  37  62  93 128 161 212 267 317 379
#
# _framework density 19.053881000000001
#
# number of rings (size 3 to 8) (size 9 to 14) (size 15 to 20)
#    0.000    1.000    6.667    1.500    0.000    0.000 
#    0.000    0.000    0.000    6.000    4.333    0.000 
#    0.000    0.000    0.000    0.000    0.000    0.000 
#
# Total GULP energy -133809.333740 kJ/mol
# GULP energy per Si atom -5575.388906 kJ/mol
# Density = 1.901051 g / cm^3
# Si number density = 19.053881 Si / 1000 Ang^3
#
#
#
# Elastic Constant Matrix: (Units=GPa)
#
#
# Indices 1 2 3 4 5 6 
#
# 1 78.6757 37.7711 37.5083 0.0000 -13.9368 0.0000
# 2 37.7711 108.5605 53.4003 0.0000 -15.7948 0.0000
# 3 37.5083 53.4003 146.4123 0.0000 -20.8729 0.0000
# 4 0.0000 0.0000 0.0000 21.2131 0.0000 0.3302
# 5 -13.9368 -15.7948 -20.8729 0.0000 48.0360 0.0000
# 6 0.0000 0.0000 0.0000 0.3302 0.0000 22.5248
#
#
#
# Elastic Compliance Matrix: (Units=1/GPa)
#
#
# Indices 1 2 3 4 5 6 
#
# 1 0.016225 -0.004173 -0.002302 0.000000 0.002335 0.000000
# 2 -0.004173 0.012489 -0.003276 0.000000 0.001472 0.000000
# 3 -0.002302 -0.003276 0.008918 0.000000 0.002130 0.000000
# 4 0.000000 0.000000 0.000000 0.047151 0.000000 -0.000691
# 5 0.002335 0.001472 0.002130 0.000000 0.022905 0.000000
# 6 0.000000 0.000000 0.000000 -0.000691 0.000000 0.044406
#
#
# Mechanical properties :
#
#
# Convention : Reuss Voigt Hill
#
# Bulk Modulus (GPa) = 55.15592 65.66755 60.41174
# Shear Modulus (GPa) = 28.14692 32.01936 30.08314
#
# Velocity S-wave (km/s) = 3.84764 4.10379 3.97778
# Velocity P-wave (km/s) = 6.98207 7.54942 7.27128
#
# Compressibility (1/GPa) = 0.01813042
#
# Stress axis : x y z
#
# Youngs Moduli (GPa) = 61.63409 80.06973 112.13007
#
# Poissons Ratio (x) = 0.33415 0.25807
# Poissons Ratio (y) = 0.25721 0.36735
# Poissons Ratio (z) = 0.14185 0.26232
#
# Static dielectric constant tensor:
#      x y z
#    x 1.693740 0.000000 -0.009580 
#    y 0.000000 1.698350 0.000000 
#    z -0.009580 0.000000 1.707330 
# 
# From -- ./inp_files/227365.got.cif
#   From: 2010.05.17/outbox.cif.g08.bks.cpg/sg15_114_cif.got.tgz:227365.got - 2010.06.03 18:47:42.
