data_PCOD9280018
_publ_section_title
;
Structure prediction by ZEFSAII (Michael W. Deem and Ramdas Pophale) SiO2 
 PCOD9280018
Probable space group: C 2/C
;
_chemical_formula_sum "Si O2"
_cell_formula_units_Z 56
_cell_length_a 29.090613
_cell_length_b 16.071862
_cell_length_c 8.844383
_cell_angle_alpha 90.000000
_cell_angle_beta 140.524512
_cell_angle_gamma 90.000000
_cell_volume 2628.885343
_symmetry_space_group_name_H-M "C 2/C"
_symmetry_group_IT_number 15
_symmetry_cell_setting 'monoclinic'
loop_
_space_group_symop_operation_xyz
x,y,z
-x,y,1/2-z
-x,-y,-z
x,-y,1/2+z
1/2+x,1/2+y,z
1/2-x,1/2+y,1/2-z
1/2-x,1/2-y,-z
1/2+x,1/2-y,1/2+z
loop_
_atom_site_type_symbol
_atom_site_label
_atom_site_fract_x
_atom_site_fract_y
_atom_site_fract_z
Si Si1 0.919634 0.923231 0.480911
Si Si2 0.077466 0.258458 0.384240
Si Si3 0.924091 0.779051 0.971569
Si Si4 0.789407 0.388165 0.769329
Si Si5 0.135590 0.924190 0.491795
Si Si6 0.346834 0.022621 0.150968
Si Si7 0.085003 0.393246 0.943811
O O1 0.906889 0.826266 0.485820
O O2 0.913269 0.932384 0.283567
O O3 0.865198 0.984675 0.432671
O O4 0.000000 0.942870 0.750000
O O5 0.065999 0.232440 0.180978
O O6 0.147033 0.319174 0.565615
O O7 0.000000 0.293408 0.250000
O O8 0.889435 0.864567 0.935936
O O9 0.883300 0.696096 0.927565
O O10 0.000000 0.779825 0.250000
O O11 0.707373 0.377300 0.612507
O O12 0.790437 0.424228 0.603086
O O13 0.813419 0.460344 0.945774
O O14 0.397039 0.083739 0.182028
O O15 0.387946 0.965266 0.375859
O O16 0.000000 0.389335 0.750000
#
# Coordination Sequence:
#
# PCOD9280018 Si02
#       7
#     8   8   8   8   8   8   8
#     4  11  24  45  73 100 131 174 224 283 340 398
#     4  11  25  44  68 102 139 178 227 280 334 398
#     4  11  23  42  67  98 130 169 224 281 336 395
#     4  11  25  43  66  98 139 180 221 275 336 401
#     4  12  25  45  70 102 132 174 222 279 345 404
#     4  10  22  41  59  91 132 175 222 264 323 398
#     4  10  21  36  63  91 123 170 222 275 324 381
#
# _framework density 21.301805000000002
#
# number of rings (size 3 to 8) (size 9 to 14) (size 15 to 20)
#    0.000    1.143    1.429    4.714    6.000    3.429 
#    5.143    0.000    0.000    0.000    0.000    0.000 
#    0.000    0.000    0.000    0.000    0.000    0.000 
#
# Total GULP energy -156259.815070 kJ/mol
# GULP energy per Si atom -5580.707681 kJ/mol
# Density = 2.125332 g / cm^3
# Si number density = 21.301805 Si / 1000 Ang^3
#
#
#
# Elastic Constant Matrix: (Units=GPa)
#
#
# Indices 1 2 3 4 5 6 
#
# 1 108.9394 33.5976 39.9796 0.0000 -3.3499 0.0000
# 2 33.5976 49.2842 11.8687 0.0000 -5.2886 0.0000
# 3 39.9796 11.8687 71.5308 0.0000 -7.6114 0.0000
# 4 0.0000 0.0000 0.0000 15.6613 0.0000 1.6400
# 5 -3.3499 -5.2886 -7.6114 0.0000 34.0345 0.0000
# 6 0.0000 0.0000 0.0000 1.6400 0.0000 10.9793
#
#
#
# Elastic Compliance Matrix: (Units=1/GPa)
#
#
# Indices 1 2 3 4 5 6 
#
# 1 0.014101 -0.008153 -0.006674 0.000000 -0.001372 0.000000
# 2 -0.008153 0.026069 0.000591 0.000000 0.003380 0.000000
# 3 -0.006674 0.000591 0.017980 0.000000 0.003456 0.000000
# 4 0.000000 0.000000 0.000000 0.064866 0.000000 -0.009690
# 5 -0.001372 0.003380 0.003456 0.000000 0.030545 0.000000
# 6 0.000000 0.000000 0.000000 -0.009690 0.000000 0.092528
#
#
# Mechanical properties :
#
#
# Convention : Reuss Voigt Hill
#
# Bulk Modulus (GPa) = 33.69570 44.51626 39.10598
# Shear Modulus (GPa) = 17.57751 21.75558 19.66654
#
# Velocity S-wave (km/s) = 2.87569 3.19925 3.04177
# Velocity P-wave (km/s) = 5.18446 5.88134 5.54386
#
# Compressibility (1/GPa) = 0.02967738
#
# Stress axis : x y z
#
# Youngs Moduli (GPa) = 70.91674 38.36021 55.61687
#
# Poissons Ratio (x) = 0.31274 0.37121
# Poissons Ratio (y) = 0.57816 -0.03286
# Poissons Ratio (z) = 0.47333 -0.02267
#
# Static dielectric constant tensor:
#      x y z
#    x 1.835350 0.000000 0.028020 
#    y 0.000000 1.805360 0.000000 
#    z 0.028020 0.000000 1.768570 
# 
# From -- ./inp_files/70506.got.cif
#   From: 2010.05.17/outbox.cif.g08.bks.cpg/sg15_36_cif.got.tgz:70506.got - 2010.06.03 18:47:42.
