data_PCOD9280192
_publ_section_title
;
Structure prediction by ZEFSAII (Michael W. Deem and Ramdas Pophale) SiO2 
 PCOD9280192
Probable space group: C 2/C
;
_chemical_formula_sum "Si O2"
_cell_formula_units_Z 64
_cell_length_a 15.559237
_cell_length_b 29.558507
_cell_length_c 12.928505
_cell_angle_alpha 90.000000
_cell_angle_beta 145.620115
_cell_angle_gamma 90.000000
_cell_volume 3357.526293
_symmetry_space_group_name_H-M "C 2/C"
_symmetry_group_IT_number 15
_symmetry_cell_setting 'monoclinic'
loop_
_space_group_symop_operation_xyz
x,y,z
-x,y,1/2-z
-x,-y,-z
x,-y,1/2+z
1/2+x,1/2+y,z
1/2-x,1/2+y,1/2-z
1/2-x,1/2-y,-z
1/2+x,1/2-y,1/2+z
loop_
_atom_site_type_symbol
_atom_site_label
_atom_site_fract_x
_atom_site_fract_y
_atom_site_fract_z
Si Si1 0.182944 0.389436 0.943809
Si Si2 0.332257 0.796025 0.954941
Si Si3 0.174925 0.506164 0.450800
Si Si4 0.804799 0.303823 0.163232
Si Si5 0.137333 0.036193 0.535841
Si Si6 0.809191 0.137583 0.352054
Si Si7 0.827229 0.125448 0.805184
Si Si8 0.191820 0.956855 0.739093
O O1 0.234023 0.442477 0.996109
O O2 0.254139 0.364059 0.915792
O O3 0.000000 0.388002 0.750000
O O4 0.239540 0.369994 0.109531
O O5 0.277511 0.744139 0.900245
O O6 0.255648 0.822499 0.783792
O O7 0.285349 0.815242 0.021862
O O8 0.515373 0.798718 0.134895
O O9 0.260234 0.470575 0.462044
O O10 0.192539 0.487298 0.583105
O O11 0.000000 0.507576 0.250000
O O12 0.735130 0.340804 0.169934
O O13 0.193410 0.074765 0.670093
O O14 0.960902 0.048313 0.344159
O O15 0.141526 0.986592 0.591505
O O16 0.749890 0.091121 0.240295
O O17 0.992680 0.134431 0.531617
#
# Coordination Sequence:
#
# PCOD9280192 Si02
#       8
#     8   8   8   8   8   8   8   8
#     4  11  23  39  58  84 121 162 202 249 302 353
#     4  10  22  42  67  94 124 155 192 241 299 358
#     4  11  23  35  53  80 115 156 199 251 301 345
#     4  10  22  42  67  94 124 155 192 241 299 358
#     4  10  21  37  56  80 114 158 203 244 288 346
#     4  11  23  39  62  89 119 159 205 248 296 355
#     4  11  23  39  62  89 119 159 205 248 296 355
#     4  10  21  37  56  80 114 158 203 244 288 346
#
# _framework density 19.061653
#
# number of rings (size 3 to 8) (size 9 to 14) (size 15 to 20)
#    0.000    1.500    2.500    2.250    1.750    5.000 
#    0.000    0.625    0.000    0.000    0.000    0.000 
#    0.000    0.000    0.000    0.000    0.000    0.000 
#
# Total GULP energy -178633.535252 kJ/mol
# GULP energy per Si atom -5582.297977 kJ/mol
# Density = 1.901827 g / cm^3
# Si number density = 19.061653 Si / 1000 Ang^3
#
#
#
# Elastic Constant Matrix: (Units=GPa)
#
#
# Indices 1 2 3 4 5 6 
#
# 1 100.7249 40.6893 27.9565 0.0000 -10.5752 0.0000
# 2 40.6893 63.9995 20.9092 0.0000 -7.3008 0.0000
# 3 27.9565 20.9092 80.2843 0.0000 -14.1032 0.0000
# 4 0.0000 0.0000 0.0000 29.7530 0.0000 -1.8165
# 5 -10.5752 -7.3008 -14.1032 0.0000 18.7740 0.0000
# 6 0.0000 0.0000 0.0000 -1.8165 0.0000 27.3127
#
#
#
# Elastic Compliance Matrix: (Units=1/GPa)
#
#
# Indices 1 2 3 4 5 6 
#
# 1 0.014060 -0.007827 -0.002305 0.000000 0.003144 0.000000
# 2 -0.007827 0.021674 -0.002550 0.000000 0.002104 0.000000
# 3 -0.002305 -0.002550 0.015576 0.000000 0.009411 0.000000
# 4 0.000000 0.000000 0.000000 0.033747 0.000000 0.002244
# 5 0.003144 0.002104 0.009411 0.000000 0.062924 0.000000
# 6 0.000000 0.000000 0.000000 0.002244 0.000000 0.036762
#
#
# Mechanical properties :
#
#
# Convention : Reuss Voigt Hill
#
# Bulk Modulus (GPa) = 38.54124 47.12430 42.83277
# Shear Modulus (GPa) = 22.85654 25.53151 24.19403
#
# Velocity S-wave (km/s) = 3.46654 3.66378 3.56652
# Velocity P-wave (km/s) = 6.02376 6.53249 6.28327
#
# Compressibility (1/GPa) = 0.02594624
#
# Stress axis : x y z
#
# Youngs Moduli (GPa) = 71.12467 46.13727 64.20314
#
# Poissons Ratio (x) = 0.36112 0.14799
# Poissons Ratio (y) = 0.55670 0.16370
# Poissons Ratio (z) = 0.16395 0.11763
#
# Static dielectric constant tensor:
#      x y z
#    x 1.687470 0.000000 -0.005650 
#    y 0.000000 1.635350 0.000000 
#    z -0.005650 0.000000 1.672730 
# 
# From -- ./inp_files/101342.got.cif
#   From: 2010.05.17/outbox.cif.g08.bks.cpg/sg15_51_cif.got.tgz:101342.got - 2010.06.03 18:47:42.
