data_PCOD9280040
_publ_section_title
;
Structure prediction by ZEFSAII (Michael W. Deem and Ramdas Pophale) SiO2 
 PCOD9280040
Probable space group: C 2/C
;
_chemical_formula_sum "Si O2"
_cell_formula_units_Z 48
_cell_length_a 11.203142
_cell_length_b 7.410739
_cell_length_c 27.363640
_cell_angle_alpha 90.000000
_cell_angle_beta 100.703688
_cell_angle_gamma 90.000000
_cell_volume 2232.298973
_symmetry_space_group_name_H-M "C 2/C"
_symmetry_group_IT_number 15
_symmetry_cell_setting 'monoclinic'
loop_
_space_group_symop_operation_xyz
x,y,z
-x,y,1/2-z
-x,-y,-z
x,-y,1/2+z
1/2+x,1/2+y,z
1/2-x,1/2+y,1/2-z
1/2-x,1/2-y,-z
1/2+x,1/2-y,1/2+z
loop_
_atom_site_type_symbol
_atom_site_label
_atom_site_fract_x
_atom_site_fract_y
_atom_site_fract_z
Si Si1 0.922755 0.616122 0.195643
Si Si2 0.610472 0.538279 0.472178
Si Si3 0.152385 0.459595 0.454375
Si Si4 0.165097 0.038742 0.868785
Si Si5 0.766146 0.651866 0.645216
Si Si6 0.428605 0.074060 0.385299
O O1 0.880773 0.805755 0.169846
O O2 0.805499 0.485618 0.190004
O O3 0.000000 0.635128 0.250000
O O4 0.005659 0.522058 0.160036
O O5 0.500000 0.500000 0.500000
O O6 0.740432 0.472350 0.503140
O O7 0.620897 0.755591 0.467817
O O8 0.602726 0.461612 0.416892
O O9 0.211387 0.443332 0.404990
O O10 0.026803 0.565224 0.436040
O O11 0.154385 0.836081 0.846479
O O12 0.311815 0.049830 0.887778
O O13 0.631712 0.732865 0.631458
#
# Coordination Sequence:
#
# PCOD9280040 Si02
#       6
#     8   8   8   8   8   8
#     4  11  23  40  67  96 122 165 216 265 336 397
#     4  10  21  36  63  96 131 175 217 257 311 386
#     4   9  19  38  61  87 125 173 218 249 311 376
#     4   9  22  42  61  95 132 169 209 268 326 368
#     4   8  20  43  58  86 127 165 207 262 318 367
#     4   9  21  43  61  86 132 167 206 270 316 378
#
# _framework density 21.502496000000001
#
# number of rings (size 3 to 8) (size 9 to 14) (size 15 to 20)
#    1.000    1.667    0.000    0.000    2.333    5.333 
#    6.000    4.167    0.000    0.000    0.000    0.000 
#    0.000    0.000    0.000    0.000    0.000    0.000 
#
# Total GULP energy -133791.933038 kJ/mol
# GULP energy per Si atom -5574.663877 kJ/mol
# Density = 2.145356 g / cm^3
# Si number density = 21.502496 Si / 1000 Ang^3
#
#
#
# Elastic Constant Matrix: (Units=GPa)
#
#
# Indices 1 2 3 4 5 6 
#
# 1 81.8265 18.5335 44.4632 0.0000 18.6525 0.0000
# 2 18.5335 96.8327 70.0639 0.0000 30.7027 0.0000
# 3 44.4632 70.0639 131.7741 0.0000 36.6384 0.0000
# 4 0.0000 0.0000 0.0000 27.2557 0.0000 8.8782
# 5 18.6525 30.7027 36.6384 0.0000 29.6228 0.0000
# 6 0.0000 0.0000 0.0000 8.8782 0.0000 29.5831
#
#
#
# Elastic Compliance Matrix: (Units=1/GPa)
#
#
# Indices 1 2 3 4 5 6 
#
# 1 0.015785 0.002598 -0.004870 0.000000 -0.006609 0.000000
# 2 0.002598 0.019260 -0.007791 0.000000 -0.011961 0.000000
# 3 -0.004870 -0.007791 0.015663 0.000000 -0.008231 0.000000
# 4 0.000000 0.000000 0.000000 0.040665 0.000000 -0.012204
# 5 -0.006609 -0.011961 -0.008231 0.000000 0.060496 0.000000
# 6 0.000000 0.000000 0.000000 -0.012204 0.000000 0.037466
#
#
# Mechanical properties :
#
#
# Convention : Reuss Voigt Hill
#
# Bulk Modulus (GPa) = 32.69968 64.06161 48.38065
# Shear Modulus (GPa) = 22.76288 29.11717 25.94002
#
# Velocity S-wave (km/s) = 3.25717 3.68384 3.47706
# Velocity P-wave (km/s) = 5.42088 6.92471 6.21842
#
# Compressibility (1/GPa) = 0.03058134
#
# Stress axis : x y z
#
# Youngs Moduli (GPa) = 63.34980 51.92151 63.84434
#
# Poissons Ratio (x) = -0.13489 0.31093
# Poissons Ratio (y) = -0.16458 0.49743
# Poissons Ratio (z) = 0.30852 0.40454
#
# Static dielectric constant tensor:
#      x y z
#    x 1.849700 0.000000 0.027550 
#    y 0.000000 1.834680 0.000000 
#    z 0.027550 0.000000 1.762860 
# 
# From -- ./inp_files/291304.got.cif
#   From: 2010.05.17/outbox.cif.g08.bks.cpg/sg15_146_cif.got.tgz:291304.got - 2010.06.03 18:47:42.
