data_PCOD9280434
_publ_section_title
;
Structure prediction by ZEFSAII (Michael W. Deem and Ramdas Pophale) SiO2 
 PCOD9280434
Probable space group: C 2/C
;
_chemical_formula_sum "Si O2"
_cell_formula_units_Z 44
_cell_length_a 16.608238
_cell_length_b 10.693568
_cell_length_c 15.086929
_cell_angle_alpha 90.000000
_cell_angle_beta 133.306876
_cell_angle_gamma 90.000000
_cell_volume 1949.816387
_symmetry_space_group_name_H-M "C 2/C"
_symmetry_group_IT_number 15
_symmetry_cell_setting 'monoclinic'
loop_
_space_group_symop_operation_xyz
x,y,z
-x,y,1/2-z
-x,-y,-z
x,-y,1/2+z
1/2+x,1/2+y,z
1/2-x,1/2+y,1/2-z
1/2-x,1/2-y,-z
1/2+x,1/2-y,1/2+z
loop_
_atom_site_type_symbol
_atom_site_label
_atom_site_fract_x
_atom_site_fract_y
_atom_site_fract_z
Si Si1 0.136649 0.887972 0.925923
Si Si2 0.684748 0.938175 0.896386
Si Si3 0.450093 0.570845 0.856309
Si Si4 0.148015 0.141822 0.124434
Si Si5 0.679870 0.810015 0.313468
Si Si6 0.500000 0.760529 0.750000
O O1 0.125981 0.787448 0.841546
O O2 0.030279 0.965412 0.873202
O O3 0.193490 0.821938 0.054549
O O4 0.232925 0.989401 0.974821
O O5 0.765212 0.864788 0.889735
O O6 0.591578 0.849093 0.863796
O O7 0.633658 0.051805 0.798826
O O8 0.349664 0.491272 0.820376
O O9 0.435463 0.673953 0.770556
O O10 0.526213 0.635512 0.988867
O O11 0.167366 0.253375 0.207217
#
# Coordination Sequence:
#
# PCOD9280434 Si02
#       6
#     8   8   8   8   8   4
#     4   8  18  39  60  82 108 148 201 226 283 346
#     4   9  22  37  54  89 114 146 191 240 278 347
#     4  10  22  38  58  87 110 160 191 228 283 362
#     4  10  21  37  60  83 116 144 197 238 284 336
#     4   9  18  39  59  82 111 149 185 250 279 332
#     4  12  24  38  58  82 128 152 190 232 294 338
#
# _framework density 22.566227000000001
#
# number of rings (size 3 to 8) (size 9 to 14) (size 15 to 20)
#    1.091    1.455    0.000    1.091    2.545    4.364 
#    3.273    0.909    0.000    0.000    0.000    0.000 
#    0.000    0.000    0.000    0.000    0.000    0.000 
#
# Total GULP energy -122717.291659 kJ/mol
# GULP energy per Si atom -5578.058712 kJ/mol
# Density = 2.251487 g / cm^3
# Si number density = 22.566227 Si / 1000 Ang^3
#
#
#
# Elastic Constant Matrix: (Units=GPa)
#
#
# Indices 1 2 3 4 5 6 
#
# 1 45.1173 11.3002 -8.3460 0.0000 15.8944 0.0000
# 2 11.3002 73.2455 20.2276 0.0000 4.4418 0.0000
# 3 -8.3460 20.2276 45.1145 0.0000 -6.2696 0.0000
# 4 0.0000 0.0000 0.0000 41.6066 0.0000 -5.2891
# 5 15.8944 4.4418 -6.2696 0.0000 25.2284 0.0000
# 6 0.0000 0.0000 0.0000 -5.2891 0.0000 31.9431
#
#
#
# Elastic Compliance Matrix: (Units=1/GPa)
#
#
# Indices 1 2 3 4 5 6 
#
# 1 0.030461 -0.005233 0.005637 0.000000 -0.016869 0.000000
# 2 -0.005233 0.017024 -0.008865 0.000000 -0.001903 0.000000
# 3 0.005637 -0.008865 0.027869 0.000000 0.004935 0.000000
# 4 0.000000 0.000000 0.000000 0.024551 0.000000 0.004065
# 5 -0.016869 -0.001903 0.004935 0.000000 0.051827 0.000000
# 6 0.000000 0.000000 0.000000 0.004065 0.000000 0.031979
#
#
# Mechanical properties :
#
#
# Convention : Reuss Voigt Hill
#
# Bulk Modulus (GPa) = 17.11423 23.31566 20.21494
# Shear Modulus (GPa) = 22.71579 29.10864 25.91221
#
# Velocity S-wave (km/s) = 3.17618 3.59544 3.39230
# Velocity P-wave (km/s) = 4.58817 5.25270 4.93164
#
# Compressibility (1/GPa) = 0.05843092
#
# Stress axis : x y z
#
# Youngs Moduli (GPa) = 32.82923 58.74120 35.88156
#
# Poissons Ratio (x) = 0.30741 -0.20227
# Poissons Ratio (y) = 0.17180 0.31811
# Poissons Ratio (z) = -0.18507 0.52077
#
# Static dielectric constant tensor:
#      x y z
#    x 1.857230 0.000000 -0.006090 
#    y 0.000000 1.864230 0.000000 
#    z -0.006090 0.000000 1.912940 
# 
# From -- ./inp_files/214473.got.cif
#   From: 2010.05.17/outbox.cif.g08.bks.cpg/sg15_108_cif.got.tgz:214473.got - 2010.06.03 18:47:42.
