data_PCOD9280153
_publ_section_title
;
Structure prediction by ZEFSAII (Michael W. Deem and Ramdas Pophale) SiO2 
 PCOD9280153
Probable space group: C 2/C
;
_chemical_formula_sum "Si O2"
_cell_formula_units_Z 44
_cell_length_a 14.527091
_cell_length_b 23.637592
_cell_length_c 14.851619
_cell_angle_alpha 90.000000
_cell_angle_beta 159.960117
_cell_angle_gamma 90.000000
_cell_volume 1747.579973
_symmetry_space_group_name_H-M "C 2/C"
_symmetry_group_IT_number 15
_symmetry_cell_setting 'monoclinic'
loop_
_space_group_symop_operation_xyz
x,y,z
-x,y,1/2-z
-x,-y,-z
x,-y,1/2+z
1/2+x,1/2+y,z
1/2-x,1/2+y,1/2-z
1/2-x,1/2-y,-z
1/2+x,1/2-y,1/2+z
loop_
_atom_site_type_symbol
_atom_site_label
_atom_site_fract_x
_atom_site_fract_y
_atom_site_fract_z
Si Si1 0.738337 0.668059 0.779939
Si Si2 0.314606 0.826851 0.655255
Si Si3 0.478342 0.784715 0.135343
Si Si4 0.000000 0.078962 0.750000
Si Si5 0.208644 0.982307 0.822693
Si Si6 0.249623 0.442850 0.309595
O O1 0.464349 0.699321 0.561394
O O2 0.643360 0.607914 0.652530
O O3 0.884885 0.693001 0.828464
O O4 0.967589 0.660470 0.066617
O O5 0.500000 0.796469 0.750000
O O6 0.183745 0.880832 0.481832
O O7 0.500000 0.817852 0.250000
O O8 0.672479 0.730799 0.334112
O O9 0.191935 0.037071 0.869862
O O10 0.244024 0.002957 0.751312
O O11 0.921999 0.953015 0.556083
O O12 0.441858 0.938349 0.054555
#
# Coordination Sequence:
#
# PCOD9280153 Si02
#       6
#     8   8   8   4   8   8
#     4  12  23  41  70  97 131 170 218 274 336 386
#     4  12  23  38  64  99 130 176 231 260 308 385
#     4  10  23  47  76 104 128 162 210 269 336 414
#     4  12  24  38  58  88 128 186 234 262 300 386
#     4  10  22  34  55  77 124 167 219 263 307 355
#     4  10  21  37  54  84 117 165 213 272 316 358
#
# _framework density 25.177674
#
# number of rings (size 3 to 8) (size 9 to 14) (size 15 to 20)
#    0.000    1.091    3.636    2.182    7.636    0.000 
#    3.273    0.000    0.000   10.909    0.000    0.000 
#    0.000    0.000    0.000    0.000    0.000    0.000 
#
# Total GULP energy -122808.790551 kJ/mol
# GULP energy per Si atom -5582.217752 kJ/mol
# Density = 2.512037 g / cm^3
# Si number density = 25.177674 Si / 1000 Ang^3
#
#
#
# Elastic Constant Matrix: (Units=GPa)
#
#
# Indices 1 2 3 4 5 6 
#
# 1 160.4276 22.4233 51.2486 0.0016 9.7432 0.0000
# 2 22.4233 30.4074 14.9350 0.0017 -6.0897 0.0004
# 3 51.2486 14.9350 116.4248 0.0021 14.7331 0.0013
# 4 0.0016 0.0017 0.0021 16.1097 0.0010 7.1545
# 5 9.7432 -6.0897 14.7331 0.0010 52.8370 -0.0005
# 6 0.0000 0.0004 0.0013 7.1545 -0.0005 47.6312
#
#
#
# Elastic Compliance Matrix: (Units=1/GPa)
#
#
# Indices 1 2 3 4 5 6 
#
# 1 0.007822 -0.004697 -0.002684 0.000000 -0.001235 0.000000
# 2 -0.004697 0.039528 -0.003824 -0.000004 0.006488 0.000000
# 3 -0.002684 -0.003824 0.010630 0.000000 -0.002910 0.000000
# 4 0.000000 -0.000004 0.000000 0.066511 -0.000002 -0.009990
# 5 -0.001235 0.006488 -0.002910 -0.000002 0.020713 0.000000
# 6 0.000000 0.000000 0.000000 -0.009990 0.000000 0.022495
#
#
# Mechanical properties :
#
#
# Convention : Reuss Voigt Hill
#
# Bulk Modulus (GPa) = 28.11458 53.83042 40.97250
# Shear Modulus (GPa) = 24.75638 37.89244 31.32441
#
# Velocity S-wave (km/s) = 3.13911 3.88364 3.53106
# Velocity P-wave (km/s) = 4.93248 6.44491 5.73874
#
# Compressibility (1/GPa) = 0.03556873
#
# Stress axis : x y z
#
# Youngs Moduli (GPa) = 127.83666 25.29824 94.07650
#
# Poissons Ratio (x) = 0.11884 0.25254
# Poissons Ratio (y) = 0.60050 0.35975
# Poissons Ratio (z) = 0.34317 0.09674
#
# Static dielectric constant tensor:
#      x y z
#    x 2.080430 0.000000 0.093750 
#    y 0.000000 2.010510 0.000000 
#    z 0.093750 0.000000 2.095830 
# 
# From -- ./inp_files/157562.got.cif
#   From: 2010.05.17/outbox.cif.g08.bks.cpg/sg15_79_cif.got.tgz:157562.got - 2010.06.03 18:47:42.
