data_PCOD9280521
_publ_section_title
;
Structure prediction by ZEFSAII (Michael W. Deem and Ramdas Pophale) SiO2 
 PCOD9280521
Probable space group: C 2/C
;
_chemical_formula_sum "Si O2"
_cell_formula_units_Z 52
_cell_length_a 7.776345
_cell_length_b 12.159208
_cell_length_c 25.998937
_cell_angle_alpha 90.000000
_cell_angle_beta 75.468733
_cell_angle_gamma 90.000000
_cell_volume 2379.669418
_symmetry_space_group_name_H-M "C 2/C"
_symmetry_group_IT_number 15
_symmetry_cell_setting 'monoclinic'
loop_
_space_group_symop_operation_xyz
x,y,z
-x,y,1/2-z
-x,-y,-z
x,-y,1/2+z
1/2+x,1/2+y,z
1/2-x,1/2+y,1/2-z
1/2-x,1/2-y,-z
1/2+x,1/2-y,1/2+z
loop_
_atom_site_type_symbol
_atom_site_label
_atom_site_fract_x
_atom_site_fract_y
_atom_site_fract_z
Si Si1 0.359780 0.901062 0.521782
Si Si2 0.748777 0.290084 0.839331
Si Si3 0.199767 0.931788 0.213600
Si Si4 0.341342 0.536934 0.550260
Si Si5 0.000000 0.568832 0.250000
Si Si6 0.448082 0.470491 0.878546
Si Si7 0.654983 0.197972 0.056526
O O1 0.278262 0.875561 0.471646
O O2 0.199185 0.941460 0.568569
O O3 0.458260 0.812315 0.549266
O O4 0.500000 0.000000 0.500000
O O5 0.577075 0.368104 0.856212
O O6 0.803156 0.246851 0.892213
O O7 0.911145 0.358138 0.801805
O O8 0.716606 0.185881 0.805752
O O9 0.336511 0.998425 0.238918
O O10 0.157205 0.993049 0.163539
O O11 0.000000 0.915858 0.250000
O O12 0.500000 0.500000 0.500000
O O13 0.423172 0.556594 0.600360
O O14 0.224806 0.425605 0.562702
O O15 0.750000 0.250000 0.000000
#
# Coordination Sequence:
#
# PCOD9280521 Si02
#       7
#     8   8   8   8   4   8   8
#     4   9  18  36  66  94 132 187 224 273 346 411
#     4  11  25  46  70 105 143 180 243 297 356 436
#     4  12  26  46  77 101 132 189 233 298 372 417
#     4   8  17  34  60  87 123 170 219 263 330 405
#     4  12  26  50  74 104 138 180 248 300 364 430
#     4  10  21  43  69  98 139 184 227 297 352 412
#     4  10  21  37  60  96 135 175 219 285 342 410
#
# _framework density 21.851775
#
# number of rings (size 3 to 8) (size 9 to 14) (size 15 to 20)
#    0.000    1.846    2.308    0.923    6.462    1.231 
#    2.769    6.923    3.385    0.000    0.000    0.000 
#    0.000    0.000    0.000    0.000    0.000    0.000 
#
# Total GULP energy -145007.457776 kJ/mol
# GULP energy per Si atom -5577.209914 kJ/mol
# Density = 2.180204 g / cm^3
# Si number density = 21.851775 Si / 1000 Ang^3
#
#
#
# Elastic Constant Matrix: (Units=GPa)
#
#
# Indices 1 2 3 4 5 6 
#
# 1 114.0546 27.3159 34.9137 0.0000 13.8532 0.0000
# 2 27.3159 49.3443 22.3748 0.0000 4.6751 0.0000
# 3 34.9137 22.3748 101.5167 0.0000 2.0798 0.0000
# 4 0.0000 0.0000 0.0000 34.1012 0.0000 -0.4297
# 5 13.8532 4.6751 2.0798 0.0000 49.6598 0.0000
# 6 0.0000 0.0000 0.0000 -0.4297 0.0000 32.1598
#
#
#
# Elastic Compliance Matrix: (Units=1/GPa)
#
#
# Indices 1 2 3 4 5 6 
#
# 1 0.011014 -0.004626 -0.002717 0.000000 -0.002523 0.000000
# 2 -0.004626 0.024642 -0.003822 0.000000 -0.000869 0.000000
# 3 -0.002717 -0.003822 0.011614 0.000000 0.000631 0.000000
# 4 0.000000 0.000000 0.000000 0.029329 0.000000 0.000392
# 5 -0.002523 -0.000869 0.000631 0.000000 0.020896 0.000000
# 6 0.000000 0.000000 0.000000 0.000392 0.000000 0.031100
#
#
# Mechanical properties :
#
#
# Convention : Reuss Voigt Hill
#
# Bulk Modulus (GPa) = 40.09585 48.23603 44.16594
# Shear Modulus (GPa) = 31.39923 35.20492 33.30207
#
# Velocity S-wave (km/s) = 3.79478 4.01818 3.90808
# Velocity P-wave (km/s) = 6.13102 6.60680 6.37335
#
# Compressibility (1/GPa) = 0.02494024
#
# Stress axis : x y z
#
# Youngs Moduli (GPa) = 90.79600 40.58067 86.09984
#
# Poissons Ratio (x) = 0.18773 0.23389
# Poissons Ratio (y) = 0.42003 0.32911
# Poissons Ratio (z) = 0.24665 0.15512
#
# Static dielectric constant tensor:
#      x y z
#    x 1.893270 0.000000 -0.003990 
#    y 0.000000 1.870100 0.000000 
#    z -0.003990 0.000000 1.868400 
# 
# From -- ./inp_files/287563.got.cif
#   From: 2010.05.17/outbox.cif.g08.bks.cpg/sg15_144_cif.got.tgz:287563.got - 2010.06.03 18:47:42.
