data_PCOD9280761
_publ_section_title
;
Structure prediction by ZEFSAII (Michael W. Deem and Ramdas Pophale) SiO2 
 PCOD9280761
Probable space group: C 2/C
;
_chemical_formula_sum "Si O2"
_cell_formula_units_Z 36
_cell_length_a 12.188887
_cell_length_b 27.380984
_cell_length_c 11.996786
_cell_angle_alpha 90.000000
_cell_angle_beta 24.736214
_cell_angle_gamma 90.000000
_cell_volume 1675.376694
_symmetry_space_group_name_H-M "C 2/C"
_symmetry_group_IT_number 15
_symmetry_cell_setting 'monoclinic'
loop_
_space_group_symop_operation_xyz
x,y,z
-x,y,1/2-z
-x,-y,-z
x,-y,1/2+z
1/2+x,1/2+y,z
1/2-x,1/2+y,1/2-z
1/2-x,1/2-y,-z
1/2+x,1/2-y,1/2+z
loop_
_atom_site_type_symbol
_atom_site_label
_atom_site_fract_x
_atom_site_fract_y
_atom_site_fract_z
Si Si1 0.251553 0.770307 0.871169
Si Si2 0.758844 0.041437 0.888544
Si Si3 0.000000 0.454569 0.250000
Si Si4 0.930152 0.372249 0.620104
Si Si5 0.875827 0.905596 0.067106
O O1 0.450693 0.737188 0.617459
O O2 0.352504 0.825137 0.763221
O O3 0.250000 0.750000 0.000000
O O4 0.867484 0.049520 0.663767
O O5 0.000000 0.050701 0.750000
O O6 0.469187 0.082495 0.398500
O O7 0.629326 0.990081 0.038176
O O8 0.231523 0.423358 0.090318
O O9 0.179286 0.366752 0.308269
O O10 0.671173 0.387108 0.790718
#
# Coordination Sequence:
#
# PCOD9280761 Si02
#       5
#     8   8   4   8   8
#     4  10  21  37  63  92 127 161 197 245 313 409
#     4  10  24  38  64  88 136 169 214 268 313 374
#     4  12  24  42  62  94 118 184 230 260 304 356
#     4  10  23  45  56  96 130 168 201 257 332 372
#     4  10  25  41  64  86 133 173 217 266 305 374
#
# _framework density 21.487705999999999
#
# number of rings (size 3 to 8) (size 9 to 14) (size 15 to 20)
#    1.333    0.444    0.000    3.333    3.111    7.111 
#    4.000    0.000    0.000    0.000    0.000   15.556 
#    0.000    0.000    0.000    0.000    0.000    0.000 
#
# Total GULP energy -100381.996935 kJ/mol
# GULP energy per Si atom -5576.777607 kJ/mol
# Density = 2.143880 g / cm^3
# Si number density = 21.487706 Si / 1000 Ang^3
#
#
#
# Elastic Constant Matrix: (Units=GPa)
#
#
# Indices 1 2 3 4 5 6 
#
# 1 93.3059 40.1354 14.7062 0.0000 -35.9167 -0.0002
# 2 40.1354 111.4727 36.3208 0.0000 -17.5462 0.0000
# 3 14.7062 36.3208 116.8401 -0.0001 -41.9018 0.0005
# 4 0.0000 0.0000 -0.0001 35.2199 0.0000 -3.3955
# 5 -35.9167 -17.5462 -41.9018 0.0000 40.6947 0.0000
# 6 -0.0002 0.0000 0.0005 -3.3955 0.0000 18.5654
#
#
#
# Elastic Compliance Matrix: (Units=1/GPa)
#
#
# Indices 1 2 3 4 5 6 
#
# 1 0.021874 -0.006640 0.008256 0.000000 0.024944 0.000000
# 2 -0.006640 0.012077 -0.004998 0.000000 -0.005799 0.000000
# 3 0.008256 -0.004998 0.017303 0.000000 0.022948 0.000000
# 4 0.000000 0.000000 0.000000 0.028903 0.000000 0.005286
# 5 0.024944 -0.005799 0.022948 0.000000 0.067717 0.000000
# 6 0.000000 0.000000 0.000000 0.005286 0.000000 0.054830
#
#
# Mechanical properties :
#
#
# Convention : Reuss Voigt Hill
#
# Bulk Modulus (GPa) = 22.47628 55.99372 39.23500
# Shear Modulus (GPa) = 22.29176 34.25976 28.27576
#
# Velocity S-wave (km/s) = 3.22439 3.99731 3.63147
# Velocity P-wave (km/s) = 4.93407 6.88620 5.99019
#
# Compressibility (1/GPa) = 0.04449136
#
# Stress axis : x y z
#
# Youngs Moduli (GPa) = 45.71624 82.80126 57.79302
#
# Poissons Ratio (x) = 0.54976 -0.47717
# Poissons Ratio (y) = 0.30353 0.28887
# Poissons Ratio (z) = -0.37745 0.41387
#
# Static dielectric constant tensor:
#      x y z
#    x -7.316870 0.000000 5.386430 
#    y 0.000000 1.798690 0.000000 
#    z 5.386430 0.000000 -1.327390 
# 
# From -- ./inp_files/91087.got.cif
#   From: 2010.05.17/outbox.cif.g08.bks.cpg/sg15_46_cif.got.tgz:91087.got - 2010.06.03 18:47:42.
