data_PCOD9280877
_publ_section_title
;
Structure prediction by ZEFSAII (Michael W. Deem and Ramdas Pophale) SiO2 
 PCOD9280877
Probable space group: C 2/C
;
_chemical_formula_sum "Si O2"
_cell_formula_units_Z 52
_cell_length_a 12.042706
_cell_length_b 29.426797
_cell_length_c 8.686772
_cell_angle_alpha 90.000000
_cell_angle_beta 125.244660
_cell_angle_gamma 90.000000
_cell_volume 2514.117544
_symmetry_space_group_name_H-M "C 2/C"
_symmetry_group_IT_number 15
_symmetry_cell_setting 'monoclinic'
loop_
_space_group_symop_operation_xyz
x,y,z
-x,y,1/2-z
-x,-y,-z
x,-y,1/2+z
1/2+x,1/2+y,z
1/2-x,1/2+y,1/2-z
1/2-x,1/2-y,-z
1/2+x,1/2-y,1/2+z
loop_
_atom_site_type_symbol
_atom_site_label
_atom_site_fract_x
_atom_site_fract_y
_atom_site_fract_z
Si Si1 0.500000 0.499381 0.250000
Si Si2 0.364970 0.179778 0.927076
Si Si3 0.609167 0.928485 0.567330
Si Si4 0.312400 0.087334 0.727714
Si Si5 0.647447 0.732116 0.288888
Si Si6 0.190473 0.007014 0.151545
Si Si7 0.319753 0.837640 0.744492
O O1 0.581223 0.525768 0.185275
O O2 0.626388 0.476696 0.439889
O O3 0.296156 0.139740 0.768358
O O4 0.348348 0.228568 0.836836
O O5 0.528835 0.173739 0.069796
O O6 0.312115 0.176097 0.059703
O O7 0.653859 0.917399 0.427378
O O8 0.447313 0.925823 0.432692
O O9 0.664829 0.975065 0.680071
O O10 0.679907 0.891491 0.733334
O O11 0.200654 0.047993 0.663343
O O12 0.500000 0.726874 0.250000
O O13 0.750000 0.750000 0.500000
O O14 0.707390 0.687150 0.257237
#
# Coordination Sequence:
#
# PCOD9280877 Si02
#       7
#     4   8   8   8   8   8   8
#     4  10  24  38  60  76 122 178 206 248 312 366
#     4  10  22  40  67  94 130 163 207 266 325 373
#     4  10  21  38  64  94 124 158 209 263 320 374
#     4  10  21  37  65  94 120 160 206 266 318 373
#     4  12  23  42  69  95 129 173 212 258 319 390
#     4  11  21  42  59  88 121 170 211 256 308 378
#     4  10  22  41  64  97 130 164 209 265 321 377
#
# _framework density 20.683202000000001
#
# number of rings (size 3 to 8) (size 9 to 14) (size 15 to 20)
#    0.000    1.538    3.077    1.846    4.308    0.000 
#    1.385    1.538    0.000    0.000    0.000    0.000 
#    0.000    0.000    0.000    0.000    0.000    0.000 
#
# Total GULP energy -144869.683355 kJ/mol
# GULP energy per Si atom -5571.910898 kJ/mol
# Density = 2.063613 g / cm^3
# Si number density = 20.683202 Si / 1000 Ang^3
#
#
#
# Elastic Constant Matrix: (Units=GPa)
#
#
# Indices 1 2 3 4 5 6 
#
# 1 86.9072 19.5827 23.9493 0.0000 2.0029 0.0000
# 2 19.5827 79.2009 11.2581 0.0000 0.5804 0.0000
# 3 23.9493 11.2581 90.9912 0.0000 -4.6614 0.0000
# 4 0.0000 0.0000 0.0000 21.2337 0.0000 7.3813
# 5 2.0029 0.5804 -4.6614 0.0000 25.9878 0.0000
# 6 0.0000 0.0000 0.0000 7.3813 0.0000 10.4538
#
#
#
# Elastic Compliance Matrix: (Units=1/GPa)
#
#
# Indices 1 2 3 4 5 6 
#
# 1 0.013036 -0.002762 -0.003167 0.000000 -0.001511 0.000000
# 2 -0.002762 0.013446 -0.000950 0.000000 -0.000258 0.000000
# 3 -0.003167 -0.000950 0.012066 0.000000 0.002429 0.000000
# 4 0.000000 0.000000 0.000000 0.062415 0.000000 -0.044070
# 5 -0.001511 -0.000258 0.002429 0.000000 0.039038 0.000000
# 6 0.000000 0.000000 0.000000 -0.044070 0.000000 0.126776
#
#
# Mechanical properties :
#
#
# Convention : Reuss Voigt Hill
#
# Bulk Modulus (GPa) = 40.33832 40.74218 40.54025
# Shear Modulus (GPa) = 17.31319 25.02235 21.16777
#
# Velocity S-wave (km/s) = 2.89635 3.48198 3.20258
# Velocity P-wave (km/s) = 5.54350 5.99220 5.77221
#
# Compressibility (1/GPa) = 0.02479032
#
# Stress axis : x y z
#
# Youngs Moduli (GPa) = 76.70810 74.37177 82.88024
#
# Poissons Ratio (x) = 0.20542 0.26247
# Poissons Ratio (y) = 0.21187 0.07872
# Poissons Ratio (z) = 0.24293 0.07064
#
# Static dielectric constant tensor:
#      x y z
#    x 1.732920 0.000000 0.001930 
#    y 0.000000 1.772740 0.000000 
#    z 0.001930 0.000000 1.791230 
# 
# From -- ./inp_files/34408.got.cif
#   From: 2010.05.17/outbox.cif.g08.bks.cpg/sg15_18_cif.got.tgz:34408.got - 2010.06.03 18:47:42.
