data_PCOD9280425
_publ_section_title
;
Structure prediction by ZEFSAII (Michael W. Deem and Ramdas Pophale) SiO2 
 PCOD9280425
Probable space group: C 2/C
;
_chemical_formula_sum "Si O2"
_cell_formula_units_Z 52
_cell_length_a 20.222571
_cell_length_b 20.564444
_cell_length_c 9.063985
_cell_angle_alpha 90.000000
_cell_angle_beta 139.514458
_cell_angle_gamma 90.000000
_cell_volume 2447.307771
_symmetry_space_group_name_H-M "C 2/C"
_symmetry_group_IT_number 15
_symmetry_cell_setting 'monoclinic'
loop_
_space_group_symop_operation_xyz
x,y,z
-x,y,1/2-z
-x,-y,-z
x,-y,1/2+z
1/2+x,1/2+y,z
1/2-x,1/2+y,1/2-z
1/2-x,1/2-y,-z
1/2+x,1/2-y,1/2+z
loop_
_atom_site_type_symbol
_atom_site_label
_atom_site_fract_x
_atom_site_fract_y
_atom_site_fract_z
Si Si1 0.634291 0.610443 0.377833
Si Si2 0.736785 0.991574 0.981916
Si Si3 0.332056 0.262746 0.777134
Si Si4 0.112777 0.296028 0.412738
Si Si5 0.000000 0.812794 0.250000
Si Si6 0.391689 0.944056 0.993010
Si Si7 0.576580 0.600247 0.607308
O O1 0.722018 0.556932 0.526053
O O2 0.655917 0.671767 0.306143
O O3 0.614470 0.629722 0.514444
O O4 0.534183 0.574833 0.137442
O O5 0.643577 0.959163 0.733198
O O6 0.693644 0.018261 0.060871
O O7 0.833161 0.944991 0.177486
O O8 0.216722 0.260718 0.637343
O O9 0.368977 0.205237 0.732861
O O10 0.408284 0.269734 0.037959
O O11 0.114840 0.367079 0.486870
O O12 0.000000 0.267768 0.250000
O O13 0.044241 0.854261 0.188856
O O14 0.500000 0.963479 0.250000
#
# Coordination Sequence:
#
# PCOD9280425 Si02
#       7
#     8   8   8   8   4   8   8
#     4  10  21  37  59  95 127 164 196 247 312 381
#     4  12  21  39  62  89 126 162 207 256 306 367
#     4  10  21  41  67  92 127 162 209 256 315 374
#     4  10  22  40  68  87 121 170 210 253 307 374
#     4  10  22  38  66  96 126 158 204 258 312 380
#     4  11  24  41  63  87 119 167 217 256 306 356
#     4  10  22  34  59  95 131 157 197 245 317 376
#
# _framework density 21.24784
#
# number of rings (size 3 to 8) (size 9 to 14) (size 15 to 20)
#    0.000    1.538    3.077    1.846    6.462    1.231 
#    0.000    0.769   22.000    0.000    0.000    0.000 
#    0.000    0.000    0.000    0.000    0.000    0.000 
#
# Total GULP energy -144819.690463 kJ/mol
# GULP energy per Si atom -5569.988095 kJ/mol
# Density = 2.119948 g / cm^3
# Si number density = 21.247840 Si / 1000 Ang^3
#
#
#
# Elastic Constant Matrix: (Units=GPa)
#
#
# Indices 1 2 3 4 5 6 
#
# 1 56.1823 -5.1071 20.9019 0.0000 12.9864 0.0000
# 2 -5.1071 36.3402 11.2755 0.0000 2.1714 0.0000
# 3 20.9019 11.2755 113.3944 0.0000 6.9118 0.0000
# 4 0.0000 0.0000 0.0000 25.3642 0.0000 -5.2056
# 5 12.9864 2.1714 6.9118 0.0000 42.0892 0.0000
# 6 0.0000 0.0000 0.0000 -5.2056 0.0000 17.4576
#
#
#
# Elastic Compliance Matrix: (Units=1/GPa)
#
#
# Indices 1 2 3 4 5 6 
#
# 1 0.021100 0.004562 -0.003972 0.000000 -0.006093 0.000000
# 2 0.004562 0.029423 -0.003624 0.000000 -0.002330 0.000000
# 3 -0.003972 -0.003624 0.009925 0.000000 -0.000217 0.000000
# 4 0.000000 0.000000 0.000000 0.041996 0.000000 0.012523
# 5 -0.006093 -0.002330 -0.000217 0.000000 0.025795 0.000000
# 6 0.000000 0.000000 0.000000 0.012523 0.000000 0.061016
#
#
# Mechanical properties :
#
#
# Convention : Reuss Voigt Hill
#
# Bulk Modulus (GPa) = 18.38966 28.89527 23.64246
# Shear Modulus (GPa) = 23.42485 28.90529 26.16507
#
# Velocity S-wave (km/s) = 3.32393 3.69234 3.51297
# Velocity P-wave (km/s) = 4.83787 5.63973 5.25412
#
# Compressibility (1/GPa) = 0.05437839
#
# Stress axis : x y z
#
# Youngs Moduli (GPa) = 47.39357 33.98742 100.76073
#
# Poissons Ratio (x) = -0.15504 0.40017
# Poissons Ratio (y) = -0.21619 0.36521
# Poissons Ratio (z) = 0.18822 0.12319
#
# Static dielectric constant tensor:
#      x y z
#    x 1.783760 0.000000 0.011240 
#    y 0.000000 1.776430 0.000000 
#    z 0.011240 0.000000 1.795370 
# 
# From -- ./inp_files/58682.got.cif
#   From: 2010.05.17/outbox.cif.g08.bks.cpg/sg15_30_cif.got.tgz:58682.got - 2010.06.03 18:47:42.
