data_PCOD9280283
_publ_section_title
;
Structure prediction by ZEFSAII (Michael W. Deem and Ramdas Pophale) SiO2 
 PCOD9280283
Probable space group: C 2/C
;
_chemical_formula_sum "Si O2"
_cell_formula_units_Z 48
_cell_length_a 18.357137
_cell_length_b 10.004793
_cell_length_c 31.534298
_cell_angle_alpha 90.000000
_cell_angle_beta 27.459435
_cell_angle_gamma 90.000000
_cell_volume 2670.611128
_symmetry_space_group_name_H-M "C 2/C"
_symmetry_group_IT_number 15
_symmetry_cell_setting 'monoclinic'
loop_
_space_group_symop_operation_xyz
x,y,z
-x,y,1/2-z
-x,-y,-z
x,-y,1/2+z
1/2+x,1/2+y,z
1/2-x,1/2+y,1/2-z
1/2-x,1/2-y,-z
1/2+x,1/2-y,1/2+z
loop_
_atom_site_type_symbol
_atom_site_label
_atom_site_fract_x
_atom_site_fract_y
_atom_site_fract_z
Si Si1 0.174195 0.526680 0.254910
Si Si2 0.098292 0.634186 0.454051
Si Si3 0.799863 0.792856 0.765731
Si Si4 0.610956 0.289852 0.650816
Si Si5 0.375046 0.382948 0.570299
Si Si6 0.383872 0.981469 0.851033
O O1 0.202519 0.366274 0.243457
O O2 0.229529 0.611373 0.266347
O O3 0.273304 0.579908 0.163796
O O4 0.991675 0.551256 0.335748
O O5 0.196258 0.678619 0.361469
O O6 0.232321 0.625761 0.421355
O O7 0.000000 0.500000 0.500000
O O8 0.969854 0.748290 0.528354
O O9 0.985241 0.824566 0.679311
O O10 0.500000 0.295604 0.750000
O O11 0.666977 0.135984 0.617727
O O12 0.500000 0.500000 0.500000
O O13 0.260016 0.387954 0.588654
O O14 0.500000 0.981659 0.750000
#
# Coordination Sequence:
#
# PCOD9280283 Si02
#       6
#     8   8   8   8   8   8
#     4  10  21  37  58  82 111 146 184 222 274 333
#     4  11  22  36  57  86 112 138 187 235 270 313
#     4  10  21  39  58  80 111 148 182 222 274 332
#     4   8  15  34  57  75 104 148 183 215 266 335
#     4  11  18  36  61  80 104 143 186 227 268 320
#     4   8  15  32  57  79 101 143 191 216 260 335
#
# _framework density 17.973413999999998
#
# number of rings (size 3 to 8) (size 9 to 14) (size 15 to 20)
#    0.000    2.333    3.333    2.000    2.333    0.000 
#    3.000    5.833    0.000    0.000    0.000    0.000 
#    0.000    0.000    0.000    0.000    0.000    0.000 
#
# Total GULP energy -133679.796627 kJ/mol
# GULP energy per Si atom -5569.991526 kJ/mol
# Density = 1.793251 g / cm^3
# Si number density = 17.973414 Si / 1000 Ang^3
#
#
#
# Elastic Constant Matrix: (Units=GPa)
#
#
# Indices 1 2 3 4 5 6 
#
# 1 143.2141 57.9875 29.2324 0.0000 -33.7954 0.0000
# 2 57.9875 102.9367 29.4522 -0.0001 -28.3186 -0.0001
# 3 29.2324 29.4522 43.1110 -0.0003 -26.2311 0.0001
# 4 0.0000 -0.0001 -0.0003 26.9019 0.0001 -3.0844
# 5 -33.7954 -28.3186 -26.2311 0.0001 32.0044 0.0000
# 6 0.0000 -0.0001 0.0001 -3.0844 0.0000 32.3639
#
#
#
# Elastic Compliance Matrix: (Units=1/GPa)
#
#
# Indices 1 2 3 4 5 6 
#
# 1 0.010270 -0.003731 0.000349 0.000000 0.007829 0.000000
# 2 -0.003731 0.014500 -0.003923 0.000000 0.005675 0.000000
# 3 0.000349 -0.003923 0.047379 0.000000 0.035730 0.000000
# 4 0.000000 0.000000 0.000000 0.037583 0.000000 0.003582
# 5 0.007829 0.005675 0.035730 0.000000 0.073818 0.000000
# 6 0.000000 0.000000 0.000000 0.003582 0.000000 0.031240
#
#
# Mechanical properties :
#
#
# Convention : Reuss Voigt Hill
#
# Bulk Modulus (GPa) = 17.37973 58.06733 37.72353
# Shear Modulus (GPa) = 20.11418 29.76000 24.93709
#
# Velocity S-wave (km/s) = 3.34894 4.07354 3.72888
# Velocity P-wave (km/s) = 4.96432 7.38258 6.29075
#
# Compressibility (1/GPa) = 0.05753829
#
# Stress axis : x y z
#
# Youngs Moduli (GPa) = 97.37556 68.96380 21.10618
#
# Poissons Ratio (x) = 0.25732 -0.00737
# Poissons Ratio (y) = 0.36333 0.08281
# Poissons Ratio (z) = -0.03399 0.27057
#
# Static dielectric constant tensor:
#      x y z
#    x 1.691950 0.000000 0.007030 
#    y 0.000000 1.593800 0.000000 
#    z 0.007030 0.000000 1.593760 
# 
# From -- ./inp_files/247645.got.cif
#   From: 2010.05.17/outbox.cif.g08.bks.cpg/sg15_124_cif.got.tgz:247645.got - 2010.06.03 18:47:42.
