data_PCOD9280807
_publ_section_title
;
Structure prediction by ZEFSAII (Michael W. Deem and Ramdas Pophale) SiO2 
 PCOD9280807
Probable space group: C 2/C
;
_chemical_formula_sum "Si O2"
_cell_formula_units_Z 40
_cell_length_a 12.401949
_cell_length_b 15.148893
_cell_length_c 9.687440
_cell_angle_alpha 90.000000
_cell_angle_beta 92.263599
_cell_angle_gamma 90.000000
_cell_volume 1818.615332
_symmetry_space_group_name_H-M "C 2/C"
_symmetry_group_IT_number 15
_symmetry_cell_setting 'monoclinic'
loop_
_space_group_symop_operation_xyz
x,y,z
-x,y,1/2-z
-x,-y,-z
x,-y,1/2+z
1/2+x,1/2+y,z
1/2-x,1/2+y,1/2-z
1/2-x,1/2-y,-z
1/2+x,1/2-y,1/2+z
loop_
_atom_site_type_symbol
_atom_site_label
_atom_site_fract_x
_atom_site_fract_y
_atom_site_fract_z
Si Si1 0.262762 0.427695 0.868870
Si Si2 0.939062 0.931506 0.394259
Si Si3 0.595626 0.924613 0.661975
Si Si4 0.433306 0.895376 0.430780
Si Si5 0.537410 0.308817 0.600197
O O1 0.322100 0.522795 0.868414
O O2 0.213882 0.399252 0.717582
O O3 0.160563 0.417238 0.963176
O O4 0.351944 0.359460 0.924602
O O5 0.000000 0.926702 0.250000
O O6 0.952484 0.839436 0.478152
O O7 0.000000 0.000000 0.500000
O O8 0.500000 0.882824 0.750000
O O9 0.550411 0.910671 0.507215
O O10 0.592598 0.030649 0.683119
O O11 0.435702 0.794097 0.390752
O O12 0.500000 0.339628 0.750000
#
# Coordination Sequence:
#
# PCOD9280807 Si02
#       5
#     8   8   8   8   8
#     4  10  21  37  64  90 122 167 220 256 322 384
#     4  10  22  39  64  97 131 167 209 265 324 379
#     4   9  20  38  60  85 119 167 216 264 314 383
#     4  10  21  39  62  85 128 167 216 261 321 376
#     4  11  24  41  63  96 138 164 211 269 325 375
#
# _framework density 21.994757
#
# number of rings (size 3 to 8) (size 9 to 14) (size 15 to 20)
#    0.000    2.000    0.000    3.600    8.400    2.400 
#    3.600    1.000    0.000    0.000    0.000    0.000 
#    0.000    0.000    0.000    0.000    0.000    0.000 
#
# Total GULP energy -111415.830894 kJ/mol
# GULP energy per Si atom -5570.791545 kJ/mol
# Density = 2.194470 g / cm^3
# Si number density = 21.994757 Si / 1000 Ang^3
#
#
#
# Elastic Constant Matrix: (Units=GPa)
#
#
# Indices 1 2 3 4 5 6 
#
# 1 104.8070 4.4008 24.7583 0.0000 15.6827 0.0000
# 2 4.4008 57.6070 -10.3054 0.0000 -5.7329 0.0000
# 3 24.7583 -10.3054 90.1683 0.0000 -10.3723 0.0000
# 4 0.0000 0.0000 0.0000 13.1137 0.0000 5.0754
# 5 15.6827 -5.7329 -10.3723 0.0000 37.8323 0.0000
# 6 0.0000 0.0000 0.0000 5.0754 0.0000 18.8469
#
#
#
# Elastic Compliance Matrix: (Units=1/GPa)
#
#
# Indices 1 2 3 4 5 6 
#
# 1 0.011554 -0.002249 -0.004151 0.000000 -0.006268 0.000000
# 2 -0.002249 0.018579 0.003275 0.000000 0.004646 0.000000
# 3 -0.004151 0.003275 0.013278 0.000000 0.005857 0.000000
# 4 0.000000 0.000000 0.000000 0.085129 0.000000 -0.022925
# 5 -0.006268 0.004646 0.005857 0.000000 0.031341 0.000000
# 6 0.000000 0.000000 0.000000 -0.022925 0.000000 0.059233
#
#
# Mechanical properties :
#
#
# Convention : Reuss Voigt Hill
#
# Bulk Modulus (GPa) = 26.90859 32.25441 29.58150
# Shear Modulus (GPa) = 21.03054 29.54050 25.28552
#
# Velocity S-wave (km/s) = 3.09554 3.66877 3.39428
# Velocity P-wave (km/s) = 5.00371 5.71340 5.37029
#
# Compressibility (1/GPa) = 0.03716285
#
# Stress axis : x y z
#
# Youngs Moduli (GPa) = 86.54836 53.82407 75.31154
#
# Poissons Ratio (x) = 0.12105 0.31259
# Poissons Ratio (y) = 0.19465 -0.24667
# Poissons Ratio (z) = 0.35923 -0.17629
#
# Static dielectric constant tensor:
#      x y z
#    x 1.816990 0.000000 0.011240 
#    y 0.000000 1.863110 0.000000 
#    z 0.011240 0.000000 1.923210 
# 
# From -- ./inp_files/85631.got.cif
#   From: 2010.05.17/outbox.cif.g08.bks.cpg/sg15_43_cif.got.tgz:85631.got - 2010.06.03 18:47:42.
