data_PCOD9280301
_publ_section_title
;
Structure prediction by ZEFSAII (Michael W. Deem and Ramdas Pophale) SiO2 
 PCOD9280301
Probable space group: C 2/C
;
_chemical_formula_sum "Si O2"
_cell_formula_units_Z 44
_cell_length_a 12.032436
_cell_length_b 21.421068
_cell_length_c 10.066480
_cell_angle_alpha 90.000000
_cell_angle_beta 39.872017
_cell_angle_gamma 90.000000
_cell_volume 1663.340154
_symmetry_space_group_name_H-M "C 2/C"
_symmetry_group_IT_number 15
_symmetry_cell_setting 'monoclinic'
loop_
_space_group_symop_operation_xyz
x,y,z
-x,y,1/2-z
-x,-y,-z
x,-y,1/2+z
1/2+x,1/2+y,z
1/2-x,1/2+y,1/2-z
1/2-x,1/2-y,-z
1/2+x,1/2-y,1/2+z
loop_
_atom_site_type_symbol
_atom_site_label
_atom_site_fract_x
_atom_site_fract_y
_atom_site_fract_z
Si Si1 0.001685 0.847614 0.451328
Si Si2 0.000000 0.684292 0.750000
Si Si3 0.777473 0.047025 0.044652
Si Si4 0.222537 0.904261 0.455658
Si Si5 0.138904 0.278141 0.399515
Si Si6 0.537746 0.905203 0.527693
O O1 0.053994 0.870324 0.551140
O O2 0.175924 0.810545 0.250444
O O3 0.938538 0.909882 0.436996
O O4 0.865609 0.792714 0.553142
O O5 0.837286 0.640242 0.944218
O O6 0.921103 0.723074 0.700877
O O7 0.639176 0.056686 0.292729
O O8 0.669869 0.071746 0.018551
O O9 0.816629 0.975376 0.977283
O O10 0.360022 0.910374 0.204956
O O11 0.011891 0.331038 0.574452
#
# Coordination Sequence:
#
# PCOD9280301 Si02
#       6
#     8   4   8   8   8   8
#     4  10  22  37  58  82 115 148 187 237 275 333
#     4   8  18  36  60  80 112 146 184 232 274 332
#     4  11  20  37  59  87 116 147 186 228 285 336
#     4  10  21  37  58  86 116 149 185 230 280 336
#     4  10  21  39  58  84 112 150 193 231 281 327
#     4   9  21  36  60  84 113 152 184 229 279 338
#
# _framework density 26.452798000000001
#
# number of rings (size 3 to 8) (size 9 to 14) (size 15 to 20)
#    0.000    2.545    0.000    3.273    0.000    8.000 
#    0.000    3.636    0.000    0.000    0.000    0.000 
#    0.000    0.000    0.000    0.000    0.000    0.000 
#
# Total GULP energy -122979.044088 kJ/mol
# GULP energy per Si atom -5589.956549 kJ/mol
# Density = 2.639259 g / cm^3
# Si number density = 26.452798 Si / 1000 Ang^3
#
#
#
# Elastic Constant Matrix: (Units=GPa)
#
#
# Indices 1 2 3 4 5 6 
#
# 1 81.1634 9.8195 24.0597 0.0000 -21.0540 0.0000
# 2 9.8195 140.9150 -6.6911 0.0000 -20.9174 0.0000
# 3 24.0597 -6.6911 75.3017 0.0000 -21.4005 0.0000
# 4 0.0000 0.0000 0.0000 3.0728 0.0000 -15.3977
# 5 -21.0540 -20.9174 -21.4005 0.0000 44.8582 0.0000
# 6 0.0000 0.0000 0.0000 -15.3977 0.0000 38.4555
#
#
#
# Elastic Compliance Matrix: (Units=1/GPa)
#
#
# Indices 1 2 3 4 5 6 
#
# 1 0.014671 -0.000415 -0.003265 0.000000 0.005134 0.000000
# 2 -0.000415 0.007892 0.002111 0.000000 0.004492 0.000000
# 3 -0.003265 0.002111 0.016606 0.000000 0.007374 0.000000
# 4 0.000000 0.000000 0.000000 -0.323369 0.000000 -0.129478
# 5 0.005134 0.004492 0.007374 0.000000 0.030315 0.000000
# 6 0.000000 0.000000 0.000000 -0.129478 0.000000 -0.025839
#
#
# Mechanical properties :
#
#
# Convention : Reuss Voigt Hill
#
# Bulk Modulus (GPa) = 27.75448 39.08403 33.41926
# Shear Modulus (GPa) = -18.89832 35.29010 8.19589
#
# Velocity S-wave (km/s) = -2.67576 3.65647 1.76211
# Velocity P-wave (km/s) = 0.98419 5.71257 4.09890
#
# Compressibility (1/GPa) = 0.03603021
#
# Stress axis : x y z
#
# Youngs Moduli (GPa) = 68.16235 126.70308 60.21759
#
# Poissons Ratio (x) = 0.05261 0.19662
# Poissons Ratio (y) = 0.02830 -0.12710
# Poissons Ratio (z) = 0.22257 -0.26743
#
# Static dielectric constant tensor:
#      x y z
#    x 2.059800 0.000000 0.036680 
#    y 0.000000 2.079630 0.000000 
#    z 0.036680 0.000000 2.259890 
# 
# From -- ./inp_files/91143.got.cif
#   From: 2010.05.17/outbox.cif.g08.bks.cpg/sg15_46_cif.got.tgz:91143.got - 2010.06.03 18:47:42.
