data_PCOD9280565
_publ_section_title
;
Structure prediction by ZEFSAII (Michael W. Deem and Ramdas Pophale) SiO2 
 PCOD9280565
Probable space group: C 2/C
;
_chemical_formula_sum "Si O2"
_cell_formula_units_Z 60
_cell_length_a 8.556428
_cell_length_b 22.977484
_cell_length_c 15.046035
_cell_angle_alpha 90.000000
_cell_angle_beta 87.596750
_cell_angle_gamma 90.000000
_cell_volume 2955.526719
_symmetry_space_group_name_H-M "C 2/C"
_symmetry_group_IT_number 15
_symmetry_cell_setting 'monoclinic'
loop_
_space_group_symop_operation_xyz
x,y,z
-x,y,1/2-z
-x,-y,-z
x,-y,1/2+z
1/2+x,1/2+y,z
1/2-x,1/2+y,1/2-z
1/2-x,1/2-y,-z
1/2+x,1/2-y,1/2+z
loop_
_atom_site_type_symbol
_atom_site_label
_atom_site_fract_x
_atom_site_fract_y
_atom_site_fract_z
Si Si1 0.157652 0.678974 0.850039
Si Si2 0.032576 0.832191 0.068131
Si Si3 0.331601 0.946433 0.240677
Si Si4 0.441354 0.719586 0.385628
Si Si5 0.500000 0.629789 0.250000
Si Si6 0.866914 0.032759 0.376325
Si Si7 0.139061 0.952186 0.423852
Si Si8 0.142539 0.748117 0.294820
O O1 0.280840 0.674303 0.927822
O O2 0.140922 0.615858 0.807012
O O3 0.245888 0.719895 0.777566
O O4 0.000731 0.714007 0.876075
O O5 0.983531 0.899099 0.070959
O O6 0.948269 0.798865 0.150462
O O7 0.963666 0.802060 0.983567
O O8 0.500000 0.975461 0.250000
O O9 0.256013 0.939752 0.340055
O O10 0.222251 0.984240 0.178764
O O11 0.550227 0.676192 0.324246
O O12 0.263329 0.714968 0.355785
O O13 0.387720 0.587497 0.309717
O O14 0.795464 0.043388 0.476765
O O15 0.040590 0.009237 0.397766
O O16 0.000000 0.714191 0.250000
#
# Coordination Sequence:
#
# PCOD9280565 Si02
#       8
#     8   8   8   8   4   8   8   8
#     4  11  22  39  63  98 127 165 218 271 326 394
#     4  11  22  37  65  93 127 170 215 274 324 393
#     4  12  24  41  70  96 134 175 216 284 338 389
#     4  12  23  41  61  94 135 169 211 268 340 399
#     4  12  22  38  68  88 128 172 214 270 336 386
#     4  11  24  43  67  96 124 168 231 277 319 400
#     4  11  22  41  70  95 124 171 229 273 328 392
#     4  10  21  37  61  88 125 168 212 259 319 393
#
# _framework density 20.300948999999999
#
# number of rings (size 3 to 8) (size 9 to 14) (size 15 to 20)
#    0.000    0.800    6.667    1.600    0.000    0.533 
#    0.000    0.667    0.000    0.000    0.000    0.000 
#    0.000    0.000    0.000    0.000    0.000    0.000 
#
# Total GULP energy -167319.055849 kJ/mol
# GULP energy per Si atom -5577.301862 kJ/mol
# Density = 2.025474 g / cm^3
# Si number density = 20.300949 Si / 1000 Ang^3
#
#
#
# Elastic Constant Matrix: (Units=GPa)
#
#
# Indices 1 2 3 4 5 6 
#
# 1 64.8669 14.4996 30.4612 0.0000 20.5184 0.0000
# 2 14.4996 90.3932 22.8481 0.0000 -3.2498 0.0000
# 3 30.4612 22.8481 106.1745 0.0000 17.0563 0.0000
# 4 0.0000 0.0000 0.0000 30.6014 0.0000 -2.4652
# 5 20.5184 -3.2498 17.0563 0.0000 22.2419 0.0000
# 6 0.0000 0.0000 0.0000 -2.4652 0.0000 6.6913
#
#
#
# Elastic Compliance Matrix: (Units=1/GPa)
#
#
# Indices 1 2 3 4 5 6 
#
# 1 0.024145 -0.003923 -0.002752 0.000000 -0.020737 0.000000
# 2 -0.003923 0.012683 -0.002832 0.000000 0.007643 0.000000
# 3 -0.002752 -0.002832 0.011948 0.000000 -0.007038 0.000000
# 4 0.000000 0.000000 0.000000 0.033678 0.000000 0.012407
# 5 -0.020737 0.007643 -0.007038 0.000000 0.070604 0.000000
# 6 0.000000 0.000000 0.000000 0.012407 0.000000 0.154018
#
#
# Mechanical properties :
#
#
# Convention : Reuss Voigt Hill
#
# Bulk Modulus (GPa) = 33.59919 44.11692 38.85806
# Shear Modulus (GPa) = 14.88064 24.81532 19.84798
#
# Velocity S-wave (km/s) = 2.71034 3.50004 3.13019
# Velocity P-wave (km/s) = 5.13625 6.17352 5.67862
#
# Compressibility (1/GPa) = 0.02976262
#
# Stress axis : x y z
#
# Youngs Moduli (GPa) = 41.41716 78.84838 83.69764
#
# Poissons Ratio (x) = 0.30932 0.23030
# Poissons Ratio (y) = 0.16248 0.23700
# Poissons Ratio (z) = 0.11396 0.22327
#
# Static dielectric constant tensor:
#      x y z
#    x 1.782200 0.000000 -0.013070 
#    y 0.000000 1.716860 0.000000 
#    z -0.013070 0.000000 1.783890 
# 
# From -- ./inp_files/137419.got.cif
#   From: 2010.05.17/outbox.cif.g08.bks.cpg/sg15_69_cif.got.tgz:137419.got - 2010.06.03 18:47:42.
