data_PCOD9280621
_publ_section_title
;
Structure prediction by ZEFSAII (Michael W. Deem and Ramdas Pophale) SiO2 
 PCOD9280621
Probable space group: C 2/C
;
_chemical_formula_sum "Si O2"
_cell_formula_units_Z 24
_cell_length_a 24.548284
_cell_length_b 5.273272
_cell_length_c 9.382997
_cell_angle_alpha 90.000000
_cell_angle_beta 46.227578
_cell_angle_gamma 90.000000
_cell_volume 877.073925
_symmetry_space_group_name_H-M "C 2/C"
_symmetry_group_IT_number 15
_symmetry_cell_setting 'monoclinic'
loop_
_space_group_symop_operation_xyz
x,y,z
-x,y,1/2-z
-x,-y,-z
x,-y,1/2+z
1/2+x,1/2+y,z
1/2-x,1/2+y,1/2-z
1/2-x,1/2-y,-z
1/2+x,1/2-y,1/2+z
loop_
_atom_site_type_symbol
_atom_site_label
_atom_site_fract_x
_atom_site_fract_y
_atom_site_fract_z
Si Si1 0.087323 0.054640 0.805447
Si Si2 0.943053 0.444501 0.232697
Si Si3 0.224783 0.221107 0.711915
O O1 0.114140 0.776857 0.707006
O O2 0.090927 0.276441 0.679961
O O3 0.136405 0.157344 0.846648
O O4 0.000000 0.000000 0.000000
O O5 0.000000 0.359491 0.250000
O O6 0.000000 0.500000 0.000000
O O7 0.239698 0.481376 0.769438
O O8 0.250000 0.250000 0.500000
#
# Coordination Sequence:
#
# PCOD9280621 Si02
#       3
#     8   8   8
#     4  10  23  43  70 101 138 188 246 305 366 446
#     4  10  21  37  61  97 132 170 226 296 357 418
#     4  12  28  50  76 112 157 206 256 319 394 468
#
# _framework density 27.363716
#
# number of rings (size 3 to 8) (size 9 to 14) (size 15 to 20)
#    0.000    1.333    0.000    4.000    0.000   16.000 
#    0.000    0.000    0.000    0.000    0.000    0.000 
#    0.000    0.000    0.000    0.000    0.000    0.000 
#
# Total GULP energy -67188.963654 kJ/mol
# GULP energy per Si atom -5599.080304 kJ/mol
# Density = 2.730143 g / cm^3
# Si number density = 27.363716 Si / 1000 Ang^3
#
#
#
# Elastic Constant Matrix: (Units=GPa)
#
#
# Indices 1 2 3 4 5 6 
#
# 1 190.2459 73.0132 60.9411 0.0000 -6.4904 0.0000
# 2 73.0132 290.5171 36.4540 0.0001 1.7588 0.0002
# 3 60.9411 36.4540 118.2797 0.0000 12.4327 0.0000
# 4 0.0000 0.0001 0.0000 28.5156 0.0000 4.0340
# 5 -6.4904 1.7588 12.4327 0.0000 51.7578 0.0000
# 6 0.0000 0.0002 0.0000 4.0340 0.0000 73.6629
#
#
#
# Elastic Compliance Matrix: (Units=1/GPa)
#
#
# Indices 1 2 3 4 5 6 
#
# 1 0.006886 -0.001324 -0.003319 0.000000 0.001706 0.000000
# 2 -0.001324 0.003836 -0.000481 0.000000 -0.000181 0.000000
# 3 -0.003319 -0.000481 0.010623 0.000000 -0.002952 0.000000
# 4 0.000000 0.000000 0.000000 0.035342 0.000000 -0.001935
# 5 0.001706 -0.000181 -0.002952 0.000000 0.020250 0.000000
# 6 0.000000 0.000000 0.000000 -0.001935 0.000000 0.013681
#
#
# Mechanical properties :
#
#
# Convention : Reuss Voigt Hill
#
# Bulk Modulus (GPa) = 90.11696 104.42882 97.27289
# Shear Modulus (GPa) = 47.81633 59.36287 53.58960
#
# Velocity S-wave (km/s) = 4.18477 4.66274 4.43020
# Velocity P-wave (km/s) = 7.50695 8.19965 7.86093
#
# Compressibility (1/GPa) = 0.01109669
#
# Stress axis : x y z
#
# Youngs Moduli (GPa) = 145.22190 260.65734 94.13496
#
# Poissons Ratio (x) = 0.34523 0.31243
# Poissons Ratio (y) = 0.19234 0.04528
# Poissons Ratio (z) = 0.48199 0.12537
#
# Static dielectric constant tensor:
#      x y z
#    x 2.100040 0.000000 -0.110160 
#    y 0.000000 2.535390 0.000000 
#    z -0.110160 0.000000 2.372580 
# 
# From -- ./inp_files/59456.got.cif
#   From: 2010.05.17/outbox.cif.g08.bks.cpg/sg15_30_cif.got.tgz:59456.got - 2010.06.03 18:47:42.
