data_PCOD9280363
_publ_section_title
;
Structure prediction by ZEFSAII (Michael W. Deem and Ramdas Pophale) SiO2 
 PCOD9280363
Probable space group: C 2/C
;
_chemical_formula_sum "Si O2"
_cell_formula_units_Z 56
_cell_length_a 27.578083
_cell_length_b 17.427046
_cell_length_c 9.356016
_cell_angle_alpha 90.000000
_cell_angle_beta 41.182696
_cell_angle_gamma 90.000000
_cell_volume 2960.803947
_symmetry_space_group_name_H-M "C 2/C"
_symmetry_group_IT_number 15
_symmetry_cell_setting 'monoclinic'
loop_
_space_group_symop_operation_xyz
x,y,z
-x,y,1/2-z
-x,-y,-z
x,-y,1/2+z
1/2+x,1/2+y,z
1/2-x,1/2+y,1/2-z
1/2-x,1/2-y,-z
1/2+x,1/2-y,1/2+z
loop_
_atom_site_type_symbol
_atom_site_label
_atom_site_fract_x
_atom_site_fract_y
_atom_site_fract_z
Si Si1 0.598992 0.286395 0.655839
Si Si2 0.933449 0.559606 0.157702
Si Si3 0.657965 0.989030 0.909729
Si Si4 0.944269 0.263640 0.568360
Si Si5 0.207028 0.345270 0.964565
Si Si6 0.729294 0.611391 0.872676
Si Si7 0.205281 0.249433 0.451217
O O1 0.586244 0.252505 0.524278
O O2 0.654207 0.227165 0.610258
O O3 0.643667 0.365994 0.545757
O O4 0.520273 0.283177 0.906535
O O5 0.897919 0.549212 0.392888
O O6 0.871462 0.535161 0.179612
O O7 0.957764 0.645668 0.063557
O O8 0.000000 0.500000 0.000000
O O9 0.659644 0.913857 0.003738
O O10 0.738521 0.027577 0.730654
O O11 0.880061 0.242233 0.820832
O O12 0.264357 0.317091 0.717787
O O13 0.246623 0.371319 0.019285
O O14 0.773193 0.671433 0.674796
O O15 0.250000 0.250000 0.500000
#
# Coordination Sequence:
#
# PCOD9280363 Si02
#       7
#     8   8   8   8   8   8   8
#     4  10  21  37  59  84 123 157 198 249 301 361
#     4  12  24  38  56  89 130 158 197 249 315 379
#     4  12  23  38  60  86 119 165 201 247 308 368
#     4  11  21  36  61  89 117 157 201 243 306 368
#     4  11  22  39  58  85 122 157 198 259 302 355
#     4  11  23  39  56  88 122 158 206 252 304 355
#     4  11  19  37  61  86 112 154 208 246 290 369
#
# _framework density 18.913782000000001
#
# number of rings (size 3 to 8) (size 9 to 14) (size 15 to 20)
#    0.000    0.857    7.143    3.000    2.000    0.000 
#    0.000    2.857    0.000    0.857    0.000    0.000 
#    0.000    0.000    0.000    0.000    0.000    0.000 
#
# Total GULP energy -156353.152202 kJ/mol
# GULP energy per Si atom -5584.041150 kJ/mol
# Density = 1.887073 g / cm^3
# Si number density = 18.913782 Si / 1000 Ang^3
#
#
#
# Elastic Constant Matrix: (Units=GPa)
#
#
# Indices 1 2 3 4 5 6 
#
# 1 23.8011 -1.9445 11.4367 0.0000 -3.9622 0.0000
# 2 -1.9445 28.8006 -6.4980 0.0000 -12.6062 0.0000
# 3 11.4367 -6.4980 100.7511 0.0000 -22.8470 0.0000
# 4 0.0000 0.0000 0.0000 23.6786 0.0000 -8.7475
# 5 -3.9622 -12.6062 -22.8470 0.0000 42.6184 0.0000
# 6 0.0000 0.0000 0.0000 -8.7475 0.0000 30.4606
#
#
#
# Elastic Compliance Matrix: (Units=1/GPa)
#
#
# Indices 1 2 3 4 5 6 
#
# 1 0.044794 0.003340 -0.004213 0.000000 0.002894 0.000000
# 2 0.003340 0.043565 0.006174 0.000000 0.016506 0.000000
# 3 -0.004213 0.006174 0.012667 0.000000 0.008225 0.000000
# 4 0.000000 0.000000 0.000000 0.047244 0.000000 0.013567
# 5 0.002894 0.016506 0.008225 0.000000 0.033025 0.000000
# 6 0.000000 0.000000 0.000000 0.013567 0.000000 0.036725
#
#
# Mechanical properties :
#
#
# Convention : Reuss Voigt Hill
#
# Bulk Modulus (GPa) = 8.95835 17.70459 13.33147
# Shear Modulus (GPa) = 20.43922 29.37543 24.90732
#
# Velocity S-wave (km/s) = 3.29089 3.94524 3.63283
# Velocity P-wave (km/s) = 4.38026 5.48947 4.96593
#
# Compressibility (1/GPa) = 0.11162776
#
# Stress axis : x y z
#
# Youngs Moduli (GPa) = 22.32449 22.95426 78.94507
#
# Poissons Ratio (x) = -0.07668 0.33260
# Poissons Ratio (y) = -0.07457 -0.48738
# Poissons Ratio (z) = 0.09405 -0.14171
#
# Static dielectric constant tensor:
#      x y z
#    x 1.663390 0.000000 -0.012400 
#    y 0.000000 1.657160 0.000000 
#    z -0.012400 0.000000 1.699240 
# 
# From -- ./inp_files/56079.got.cif
#   From: 2010.05.17/outbox.cif.g08.bks.cpg/sg15_29_cif.got.tgz:56079.got - 2010.06.03 18:47:42.
