data_PCOD9280318
_publ_section_title
;
Structure prediction by ZEFSAII (Michael W. Deem and Ramdas Pophale) SiO2 
 PCOD9280318
Probable space group: C 2/C
;
_chemical_formula_sum "Si O2"
_cell_formula_units_Z 56
_cell_length_a 12.731808
_cell_length_b 12.419076
_cell_length_c 18.552895
_cell_angle_alpha 90.000000
_cell_angle_beta 80.998490
_cell_angle_gamma 90.000000
_cell_volume 2897.404740
_symmetry_space_group_name_H-M "C 2/C"
_symmetry_group_IT_number 15
_symmetry_cell_setting 'monoclinic'
loop_
_space_group_symop_operation_xyz
x,y,z
-x,y,1/2-z
-x,-y,-z
x,-y,1/2+z
1/2+x,1/2+y,z
1/2-x,1/2+y,1/2-z
1/2-x,1/2-y,-z
1/2+x,1/2-y,1/2+z
loop_
_atom_site_type_symbol
_atom_site_label
_atom_site_fract_x
_atom_site_fract_y
_atom_site_fract_z
Si Si1 0.418864 0.050347 0.316236
Si Si2 0.239619 0.143732 0.550737
Si Si3 0.617551 0.458370 0.488761
Si Si4 0.918319 0.513412 0.073243
Si Si5 0.771938 0.183477 0.425172
Si Si6 0.382350 0.301492 0.291500
Si Si7 0.735842 0.624138 0.837524
O O1 0.500000 0.002147 0.250000
O O2 0.383093 0.170616 0.297181
O O3 0.498055 0.049327 0.375104
O O4 0.318079 0.973518 0.332612
O O5 0.250000 0.250000 0.500000
O O6 0.346518 0.096207 0.577664
O O7 0.155257 0.159678 0.625219
O O8 0.200192 0.053356 0.498452
O O9 0.500000 0.500000 0.500000
O O10 0.628741 0.385301 0.559156
O O11 0.648735 0.401896 0.409718
O O12 0.829054 0.606812 0.078082
O O13 0.000000 0.500000 0.000000
O O14 0.750000 0.250000 0.500000
O O15 0.789571 0.265530 0.359198
O O16 0.500000 0.330441 0.250000
O O17 0.307967 0.351687 0.237161
#
# Coordination Sequence:
#
# PCOD9280318 Si02
#       7
#     8   8   8   8   8   8   8
#     4  11  23  40  60  86 116 155 203 252 304 365
#     4  11  23  39  61  92 126 161 207 259 307 367
#     4  10  21  37  58  87 121 157 197 246 303 370
#     4  11  21  37  61  89 119 157 201 246 296 362
#     4   9  19  35  56  84 117 155 197 244 298 358
#     4  11  23  40  63  88 119 162 205 256 318 376
#     4  11  22  40  61  86 120 157 202 253 308 370
#
# _framework density 19.327639999999999
#
# number of rings (size 3 to 8) (size 9 to 14) (size 15 to 20)
#    0.000    1.429    0.000    7.714    0.000    5.714 
#    0.000    1.429    0.000    3.429    0.000    0.000 
#    0.000    0.000    0.000    0.000    0.000    0.000 
#
# Total GULP energy -155928.659821 kJ/mol
# GULP energy per Si atom -5568.880708 kJ/mol
# Density = 1.928365 g / cm^3
# Si number density = 19.327640 Si / 1000 Ang^3
#
#
#
# Elastic Constant Matrix: (Units=GPa)
#
#
# Indices 1 2 3 4 5 6 
#
# 1 104.3290 31.6127 33.6487 0.0000 13.0901 0.0000
# 2 31.6127 77.3146 22.0230 0.0000 14.0987 0.0000
# 3 33.6487 22.0230 112.8489 0.0000 6.5018 0.0000
# 4 0.0000 0.0000 0.0000 34.1126 0.0000 1.7574
# 5 13.0901 14.0987 6.5018 0.0000 43.7051 0.0000
# 6 0.0000 0.0000 0.0000 1.7574 0.0000 19.3110
#
#
#
# Elastic Compliance Matrix: (Units=1/GPa)
#
#
# Indices 1 2 3 4 5 6 
#
# 1 0.011821 -0.003713 -0.002688 0.000000 -0.001943 0.000000
# 2 -0.003713 0.015614 -0.001729 0.000000 -0.003667 0.000000
# 3 -0.002688 -0.001729 0.010008 0.000000 -0.000126 0.000000
# 4 0.000000 0.000000 0.000000 0.029453 0.000000 -0.002680
# 5 -0.001943 -0.003667 -0.000126 0.000000 0.024664 0.000000
# 6 0.000000 0.000000 0.000000 -0.002680 0.000000 0.052028
#
#
# Mechanical properties :
#
#
# Convention : Reuss Voigt Hill
#
# Bulk Modulus (GPa) = 47.20980 52.11792 49.66386
# Shear Modulus (GPa) = 29.95664 33.23961 31.59813
#
# Velocity S-wave (km/s) = 3.94120 4.15154 4.04774
# Velocity P-wave (km/s) = 6.72233 7.07138 6.89907
#
# Compressibility (1/GPa) = 0.02118204
#
# Stress axis : x y z
#
# Youngs Moduli (GPa) = 84.59522 64.04641 99.92480
#
# Poissons Ratio (x) = 0.23783 0.26861
# Poissons Ratio (y) = 0.31414 0.17272
# Poissons Ratio (z) = 0.22740 0.11071
#
# Static dielectric constant tensor:
#      x y z
#    x 1.662440 0.000000 0.018670 
#    y 0.000000 1.789360 0.000000 
#    z 0.018670 0.000000 1.650440 
# 
# From -- ./inp_files/237054.got.cif
#   From: 2010.05.17/outbox.cif.g08.bks.cpg/sg15_119_cif.got.tgz:237054.got - 2010.06.03 18:47:42.
