data_PCOD9280606
_publ_section_title
;
Structure prediction by ZEFSAII (Michael W. Deem and Ramdas Pophale) SiO2 
 PCOD9280606
Probable space group: C 2/C
;
_chemical_formula_sum "Si O2"
_cell_formula_units_Z 56
_cell_length_a 13.984779
_cell_length_b 18.777096
_cell_length_c 11.346757
_cell_angle_alpha 90.000000
_cell_angle_beta 64.987475
_cell_angle_gamma 90.000000
_cell_volume 2700.145810
_symmetry_space_group_name_H-M "C 2/C"
_symmetry_group_IT_number 15
_symmetry_cell_setting 'monoclinic'
loop_
_space_group_symop_operation_xyz
x,y,z
-x,y,1/2-z
-x,-y,-z
x,-y,1/2+z
1/2+x,1/2+y,z
1/2-x,1/2+y,1/2-z
1/2-x,1/2-y,-z
1/2+x,1/2-y,1/2+z
loop_
_atom_site_type_symbol
_atom_site_label
_atom_site_fract_x
_atom_site_fract_y
_atom_site_fract_z
Si Si1 0.374913 0.364692 0.312613
Si Si2 0.003275 0.269912 0.060361
Si Si3 0.696768 0.570381 0.892516
Si Si4 0.272506 0.417540 0.607581
Si Si5 0.153508 0.290172 0.782089
Si Si6 0.016382 0.891299 0.880232
Si Si7 0.327178 0.207671 0.824718
O O1 0.500000 0.377562 0.250000
O O2 0.327204 0.410802 0.230707
O O3 0.320551 0.388462 0.461093
O O4 0.357352 0.280826 0.292220
O O5 0.981276 0.186009 0.058222
O O6 0.094234 0.272195 0.112171
O O7 0.901196 0.306335 0.171451
O O8 0.048588 0.298916 0.915011
O O9 0.762167 0.499304 0.883123
O O10 0.759971 0.640222 0.899952
O O11 0.583943 0.566921 0.016804
O O12 0.188337 0.360563 0.696771
O O13 0.370681 0.423501 0.648013
O O14 0.247607 0.269001 0.824152
O O15 0.000000 0.881880 0.750000
#
# Coordination Sequence:
#
# PCOD9280606 Si02
#       7
#     8   8   8   8   8   8   8
#     4  11  23  42  61  87 127 163 204 253 299 361
#     4  11  19  37  64  95 118 154 206 265 300 352
#     4  11  26  40  61  90 131 163 196 254 317 364
#     4  12  25  40  61  92 126 167 202 243 314 374
#     4  11  22  38  63  88 122 164 210 246 299 363
#     4  12  22  36  64  99 122 149 200 263 314 361
#     4  10  21  37  61  94 125 154 205 259 306 357
#
# _framework density 20.739619999999999
#
# number of rings (size 3 to 8) (size 9 to 14) (size 15 to 20)
#    0.000    0.857    7.143    1.286    4.000    0.000 
#    0.000    0.714    3.143    0.000    0.000    0.000 
#    0.000    0.000    0.000    0.000    0.000    0.000 
#
# Total GULP energy -156574.769595 kJ/mol
# GULP energy per Si atom -5591.956057 kJ/mol
# Density = 2.069242 g / cm^3
# Si number density = 20.739620 Si / 1000 Ang^3
#
#
#
# Elastic Constant Matrix: (Units=GPa)
#
#
# Indices 1 2 3 4 5 6 
#
# 1 26.6175 -12.9193 -6.1751 0.0000 0.6912 0.0000
# 2 -12.9193 87.9298 31.3014 0.0000 -1.0189 0.0000
# 3 -6.1751 31.3014 109.6418 0.0000 -7.7653 0.0000
# 4 0.0000 0.0000 0.0000 2.7320 0.0000 0.8234
# 5 0.6912 -1.0189 -7.7653 0.0000 22.5009 0.0000
# 6 0.0000 0.0000 0.0000 0.8234 0.0000 14.4020
#
#
#
# Elastic Compliance Matrix: (Units=1/GPa)
#
#
# Indices 1 2 3 4 5 6 
#
# 1 0.040509 0.005733 0.000589 0.000000 -0.000781 0.000000
# 2 0.005733 0.013481 -0.003583 0.000000 -0.000802 0.000000
# 3 0.000589 -0.003583 0.010418 0.000000 0.003415 0.000000
# 4 0.000000 0.000000 0.000000 0.372450 0.000000 -0.021295
# 5 -0.000781 -0.000802 0.003415 0.000000 0.045609 0.000000
# 6 0.000000 0.000000 0.000000 -0.021295 0.000000 0.070653
#
#
# Mechanical properties :
#
#
# Convention : Reuss Voigt Hill
#
# Bulk Modulus (GPa) = 14.30857 27.62257 20.96557
# Shear Modulus (GPa) = 8.75755 22.05911 15.40833
#
# Velocity S-wave (km/s) = 2.05713 3.26486 2.72865
# Velocity P-wave (km/s) = 3.54352 5.24977 4.47865
#
# Compressibility (1/GPa) = 0.06988820
#
# Stress axis : x y z
#
# Youngs Moduli (GPa) = 24.68590 74.17802 95.98338
#
# Poissons Ratio (x) = -0.42526 -0.05658
# Poissons Ratio (y) = -0.14152 0.34387
# Poissons Ratio (z) = -0.01455 0.26575
#
# Static dielectric constant tensor:
#      x y z
#    x 1.742710 0.000000 0.002220 
#    y 0.000000 1.749800 0.000000 
#    z 0.002220 0.000000 1.765310 
# 
# From -- ./inp_files/98647.got.cif
#   From: 2010.05.17/outbox.cif.g08.bks.cpg/sg15_50_cif.got.tgz:98647.got - 2010.06.03 18:47:42.
