data_PCOD9280946
_publ_section_title
;
Structure prediction by ZEFSAII (Michael W. Deem and Ramdas Pophale) SiO2 
 PCOD9280946
Probable space group: C 2/C
;
_chemical_formula_sum "Si O2"
_cell_formula_units_Z 60
_cell_length_a 9.391591
_cell_length_b 18.980042
_cell_length_c 21.357538
_cell_angle_alpha 90.000000
_cell_angle_beta 44.034196
_cell_angle_gamma 90.000000
_cell_volume 2646.226727
_symmetry_space_group_name_H-M "C 2/C"
_symmetry_group_IT_number 15
_symmetry_cell_setting 'monoclinic'
loop_
_space_group_symop_operation_xyz
x,y,z
-x,y,1/2-z
-x,-y,-z
x,-y,1/2+z
1/2+x,1/2+y,z
1/2-x,1/2+y,1/2-z
1/2-x,1/2-y,-z
1/2+x,1/2-y,1/2+z
loop_
_atom_site_type_symbol
_atom_site_label
_atom_site_fract_x
_atom_site_fract_y
_atom_site_fract_z
Si Si1 0.953672 0.151870 0.367624
Si Si2 0.932621 0.558676 0.969513
Si Si3 0.837288 0.079443 0.874216
Si Si4 0.805828 0.964288 0.528430
Si Si5 0.500000 0.451016 0.750000
Si Si6 0.487363 0.271843 0.324604
Si Si7 0.609584 0.317002 0.953818
Si Si8 0.783991 0.279800 0.339427
O O1 0.767824 0.102273 0.449831
O O2 0.077025 0.100350 0.280981
O O3 0.053932 0.182335 0.398282
O O4 0.859466 0.214882 0.357393
O O5 0.123896 0.610610 0.915515
O O6 0.881144 0.518838 0.921173
O O7 0.000000 0.500000 0.000000
O O8 0.849968 0.055788 0.942164
O O9 0.995209 0.143060 0.819061
O O10 0.856205 0.008913 0.827309
O O11 0.770540 0.890115 0.572163
O O12 0.000000 0.000000 0.500000
O O13 0.500000 0.244308 0.250000
O O14 0.669475 0.251875 0.313459
O O15 0.268940 0.244776 0.419556
O O16 0.399884 0.316269 0.061847
O O17 0.000000 0.316765 0.250000
#
# Coordination Sequence:
#
# PCOD9280946 Si02
#       8
#     8   8   8   8   4   8   8   8
#     4  12  24  44  70 102 143 188 244 302 362 445
#     4  10  21  37  67  99 128 181 234 282 360 429
#     4  11  23  43  68  99 134 187 237 296 366 439
#     4  11  21  43  69 102 137 177 242 305 364 434
#     4  12  22  42  70  96 142 184 230 300 364 424
#     4  12  27  47  71 106 146 195 249 304 364 452
#     4  12  26  47  75 104 149 196 246 306 380 432
#     4  12  27  46  73 106 146 192 245 310 372 448
#
# _framework density 22.673794999999998
#
# number of rings (size 3 to 8) (size 9 to 14) (size 15 to 20)
#    0.000    0.533    6.667    2.400    3.733    1.067 
#    0.000    0.000    0.000    0.000    0.000    0.000 
#    0.000    0.000    0.000    0.000    0.000    0.000 
#
# Total GULP energy -167236.679219 kJ/mol
# GULP energy per Si atom -5574.555974 kJ/mol
# Density = 2.262219 g / cm^3
# Si number density = 22.673795 Si / 1000 Ang^3
#
#
#
# Elastic Constant Matrix: (Units=GPa)
#
#
# Indices 1 2 3 4 5 6 
#
# 1 180.2410 24.9551 44.8232 -0.0020 16.8305 0.0013
# 2 24.9551 61.7169 1.0996 -0.0029 -1.6553 0.0018
# 3 44.8232 1.0996 79.9182 -0.0046 9.6591 0.0035
# 4 -0.0020 -0.0029 -0.0046 21.4651 0.0034 8.5525
# 5 16.8305 -1.6553 9.6591 0.0034 34.5995 -0.0023
# 6 0.0013 0.0018 0.0035 8.5525 -0.0023 36.2079
#
#
#
# Elastic Compliance Matrix: (Units=1/GPa)
#
#
# Indices 1 2 3 4 5 6 
#
# 1 0.007087 -0.002870 -0.003624 0.000000 -0.002573 0.000000
# 2 -0.002870 0.017394 0.001140 0.000003 0.001910 -0.000001
# 3 -0.003624 0.001140 0.014810 0.000004 -0.002317 -0.000002
# 4 0.000000 0.000003 0.000004 0.051427 -0.000007 -0.012147
# 5 -0.002573 0.001910 -0.002317 -0.000007 0.030892 0.000004
# 6 0.000000 -0.000001 -0.000002 -0.012147 0.000004 0.030488
#
#
# Mechanical properties :
#
#
# Convention : Reuss Voigt Hill
#
# Bulk Modulus (GPa) = 34.98765 51.51468 43.25116
# Shear Modulus (GPa) = 29.01319 35.18771 32.10045
#
# Velocity S-wave (km/s) = 3.58102 3.94370 3.76673
# Velocity P-wave (km/s) = 5.70637 6.59593 6.16721
#
# Compressibility (1/GPa) = 0.02858151
#
# Stress axis : x y z
#
# Youngs Moduli (GPa) = 141.10152 57.48955 67.52216
#
# Poissons Ratio (x) = 0.16500 0.24473
# Poissons Ratio (y) = 0.40497 -0.07694
# Poissons Ratio (z) = 0.51141 -0.06551
#
# Static dielectric constant tensor:
#      x y z
#    x 1.869510 0.000000 -0.127720 
#    y 0.000000 1.881720 0.000000 
#    z -0.127720 0.000000 2.158390 
# 
# From -- ./inp_files/234060.got.cif
#   From: 2010.05.17/outbox.cif.g08.bks.cpg/sg15_118_cif.got.tgz:234060.got - 2010.06.03 18:47:42.
