data_PCOD9280237
_publ_section_title
;
Structure prediction by ZEFSAII (Michael W. Deem and Ramdas Pophale) SiO2 
 PCOD9280237
Probable space group: C 2/C
;
_chemical_formula_sum "Si O2"
_cell_formula_units_Z 64
_cell_length_a 23.536978
_cell_length_b 17.486640
_cell_length_c 19.456565
_cell_angle_alpha 90.000000
_cell_angle_beta 25.691251
_cell_angle_gamma 90.000000
_cell_volume 3471.633469
_symmetry_space_group_name_H-M "C 2/C"
_symmetry_group_IT_number 15
_symmetry_cell_setting 'monoclinic'
loop_
_space_group_symop_operation_xyz
x,y,z
-x,y,1/2-z
-x,-y,-z
x,-y,1/2+z
1/2+x,1/2+y,z
1/2-x,1/2+y,1/2-z
1/2-x,1/2-y,-z
1/2+x,1/2-y,1/2+z
loop_
_atom_site_type_symbol
_atom_site_label
_atom_site_fract_x
_atom_site_fract_y
_atom_site_fract_z
Si Si1 0.234581 0.497900 0.897793
Si Si2 0.316622 0.239991 0.127305
Si Si3 0.992723 0.396483 0.117913
Si Si4 0.231300 0.494093 0.194109
Si Si5 0.647555 0.393484 0.841157
Si Si6 0.147220 0.887558 0.328401
Si Si7 0.350390 0.519537 0.417428
Si Si8 0.255427 0.317619 0.048834
O O1 0.336332 0.441674 0.746689
O O2 0.253025 0.576879 0.835841
O O3 0.272974 0.506197 0.934463
O O4 0.096965 0.453835 0.039078
O O5 0.183412 0.192970 0.284941
O O6 0.335974 0.300659 0.166613
O O7 0.304873 0.283638 0.067395
O O8 0.427609 0.174587 0.000756
O O9 0.905861 0.449048 0.161614
O O10 0.886457 0.357006 0.283939
O O11 0.244896 0.570104 0.224542
O O12 0.326941 0.436730 0.130784
O O13 0.282141 0.507260 0.062022
O O14 0.503032 0.400945 0.028898
O O15 0.500000 0.494158 0.250000
O O16 0.343663 0.612067 0.427548
O O17 0.250000 0.250000 0.000000
#
# Coordination Sequence:
#
# PCOD9280237 Si02
#       8
#     8   8   8   8   8   8   8   8
#     4  10  22  35  58  80 108 154 191 243 284 333
#     4  11  22  35  55  84 116 155 186 242 294 345
#     4  10  22  39  53  82 119 151 199 227 287 356
#     4  10  21  38  57  80 110 156 191 240 279 343
#     4  10  21  37  57  81 116 148 196 240 290 347
#     4  11  20  37  56  83 114 147 196 240 292 340
#     4  11  21  35  55  82 108 146 193 230 280 342
#     4  11  23  34  53  81 121 159 181 225 290 347
#
# _framework density 18.435126
#
# number of rings (size 3 to 8) (size 9 to 14) (size 15 to 20)
#    0.000    1.500    2.500    5.250    1.750    8.500 
#    0.000    0.000    0.000    0.750    0.000    0.000 
#    0.000    0.000    0.000    0.000    0.000    0.000 
#
# Total GULP energy -178547.785862 kJ/mol
# GULP energy per Si atom -5579.618308 kJ/mol
# Density = 1.839317 g / cm^3
# Si number density = 18.435126 Si / 1000 Ang^3
#
#
#
# Elastic Constant Matrix: (Units=GPa)
#
#
# Indices 1 2 3 4 5 6 
#
# 1 106.3903 35.7804 29.6099 0.0000 9.6515 0.0000
# 2 35.7804 49.3283 20.7274 0.0002 1.5601 -0.0003
# 3 29.6099 20.7274 73.8910 -0.0007 -8.3538 0.0006
# 4 0.0000 0.0002 -0.0007 27.1282 0.0003 -1.5989
# 5 9.6515 1.5601 -8.3538 0.0003 32.0247 -0.0003
# 6 0.0000 -0.0003 0.0006 -1.5989 -0.0003 23.4561
#
#
#
# Elastic Compliance Matrix: (Units=1/GPa)
#
#
# Indices 1 2 3 4 5 6 
#
# 1 0.013593 -0.008165 -0.003684 0.000000 -0.004660 0.000000
# 2 -0.008165 0.028147 -0.004637 0.000000 -0.000120 0.000000
# 3 -0.003684 -0.004637 0.016962 0.000000 0.005761 0.000000
# 4 0.000000 0.000000 0.000000 0.037011 0.000000 0.002523
# 5 -0.004660 -0.000120 0.005761 0.000000 0.034139 0.000000
# 6 0.000000 0.000000 0.000000 0.002523 0.000000 0.042805
#
#
# Mechanical properties :
#
#
# Convention : Reuss Voigt Hill
#
# Bulk Modulus (GPa) = 38.86447 44.64946 41.75696
# Shear Modulus (GPa) = 23.34221 26.08795 24.71508
#
# Velocity S-wave (km/s) = 3.56220 3.76589 3.66546
# Velocity P-wave (km/s) = 6.16819 6.57127 6.37292
#
# Compressibility (1/GPa) = 0.02573044
#
# Stress axis : x y z
#
# Youngs Moduli (GPa) = 73.56649 35.52780 58.95633
#
# Poissons Ratio (x) = 0.29007 0.21717
# Poissons Ratio (y) = 0.60064 0.27341
# Poissons Ratio (z) = 0.27099 0.16476
#
# Static dielectric constant tensor:
#      x y z
#    x 1.637760 0.000000 -0.022480 
#    y 0.000000 1.641440 0.000000 
#    z -0.022480 0.000000 1.668550 
# 
# From -- ./inp_files/216136.got.cif
#   From: 2010.05.17/outbox.cif.g08.bks.cpg/sg15_109_cif.got.tgz:216136.got - 2010.06.03 18:47:42.
