data_PCOD9280167
_publ_section_title
;
Structure prediction by ZEFSAII (Michael W. Deem and Ramdas Pophale) SiO2 
 PCOD9280167
Probable space group: C 2/C
;
_chemical_formula_sum "Si O2"
_cell_formula_units_Z 52
_cell_length_a 32.495438
_cell_length_b 16.093016
_cell_length_c 9.278695
_cell_angle_alpha 90.000000
_cell_angle_beta 37.420381
_cell_angle_gamma 90.000000
_cell_volume 2948.534637
_symmetry_space_group_name_H-M "C 2/C"
_symmetry_group_IT_number 15
_symmetry_cell_setting 'monoclinic'
loop_
_space_group_symop_operation_xyz
x,y,z
-x,y,1/2-z
-x,-y,-z
x,-y,1/2+z
1/2+x,1/2+y,z
1/2-x,1/2+y,1/2-z
1/2-x,1/2-y,-z
1/2+x,1/2-y,1/2+z
loop_
_atom_site_type_symbol
_atom_site_label
_atom_site_fract_x
_atom_site_fract_y
_atom_site_fract_z
Si Si1 0.000000 0.287779 0.250000
Si Si2 0.151080 0.247635 0.864153
Si Si3 0.890937 0.352716 0.054457
Si Si4 0.006079 0.402756 0.509862
Si Si5 0.682545 0.713836 0.111415
Si Si6 0.744253 0.890756 0.505970
Si Si7 0.745266 0.942537 0.171742
O O1 0.929110 0.238766 0.436276
O O2 0.999961 0.348339 0.386028
O O3 0.193486 0.174287 0.669739
O O4 0.178294 0.334411 0.722501
O O5 0.171447 0.244678 0.977310
O O6 0.875246 0.255862 0.129907
O O7 0.823711 0.401883 0.197510
O O8 0.947292 0.370417 0.778848
O O9 0.921908 0.388076 0.115278
O O10 0.000000 0.500000 0.500000
O O11 0.750000 0.750000 0.000000
O O12 0.694710 0.615590 0.059939
O O13 0.742328 0.930964 0.352082
O O14 0.750982 0.963506 0.603342
#
# Coordination Sequence:
#
# PCOD9280167 Si02
#       7
#     4   8   8   8   8   8   8
#     4  12  22  38  62  80 120 162 188 236 292 360
#     4  10  22  40  60  87 121 157 198 237 301 359
#     4  10  21  37  55  80 118 152 194 232 288 356
#     4  11  24  35  51  85 119 156 188 231 287 362
#     4   9  19  38  59  83 113 153 197 245 290 345
#     4  10  23  39  60  90 118 153 199 248 298 350
#     4  10  22  36  61  86 113 150 196 253 295 339
#
# _framework density 17.635878999999999
#
# number of rings (size 3 to 8) (size 9 to 14) (size 15 to 20)
#    0.000    1.846    1.538    1.846   10.769    1.231 
#    0.000    0.000    0.000    5.538    0.000    0.000 
#    0.000    0.000    0.000    0.000    0.000    0.000 
#
# Total GULP energy -144993.912408 kJ/mol
# GULP energy per Si atom -5576.688939 kJ/mol
# Density = 1.759574 g / cm^3
# Si number density = 17.635879 Si / 1000 Ang^3
#
#
#
# Elastic Constant Matrix: (Units=GPa)
#
#
# Indices 1 2 3 4 5 6 
#
# 1 87.8042 22.0053 23.0671 0.0000 -0.5729 0.0000
# 2 22.0053 97.7349 42.7446 0.0000 4.2578 0.0000
# 3 23.0671 42.7446 74.1936 0.0000 -6.1629 0.0000
# 4 0.0000 0.0000 0.0000 34.1742 0.0000 6.0363
# 5 -0.5729 4.2578 -6.1629 0.0000 27.2411 0.0000
# 6 0.0000 0.0000 0.0000 6.0363 0.0000 22.2209
#
#
#
# Elastic Compliance Matrix: (Units=1/GPa)
#
#
# Indices 1 2 3 4 5 6 
#
# 1 0.012565 -0.001477 -0.003072 0.000000 -0.000200 0.000000
# 2 -0.001477 0.014292 -0.008116 0.000000 -0.004101 0.000000
# 3 -0.003072 -0.008116 0.019577 0.000000 0.005633 0.000000
# 4 0.000000 0.000000 0.000000 0.030737 0.000000 -0.008350
# 5 -0.000200 -0.004101 0.005633 0.000000 0.038620 0.000000
# 6 0.000000 0.000000 0.000000 -0.008350 0.000000 0.047271
#
#
# Mechanical properties :
#
#
# Convention : Reuss Voigt Hill
#
# Bulk Modulus (GPa) = 47.38251 48.37409 47.87830
# Shear Modulus (GPa) = 25.58507 28.18828 26.88668
#
# Velocity S-wave (km/s) = 3.81299 4.00227 3.90878
# Velocity P-wave (km/s) = 6.80519 6.98903 6.89772
#
# Compressibility (1/GPa) = 0.02110483
#
# Stress axis : x y z
#
# Youngs Moduli (GPa) = 79.58690 69.96773 51.08029
#
# Poissons Ratio (x) = 0.10331 0.15694
# Poissons Ratio (y) = 0.11752 0.41455
# Poissons Ratio (z) = 0.24452 0.56784
#
# Static dielectric constant tensor:
#      x y z
#    x 1.608450 0.000000 -0.005360 
#    y 0.000000 1.600290 0.000000 
#    z -0.005360 0.000000 1.631430 
# 
# From -- ./inp_files/55310.got.cif
#   From: 2010.05.17/outbox.cif.g08.bks.cpg/sg15_28_cif.got.tgz:55310.got - 2010.06.03 18:47:42.
