data_PCOD9280629
_publ_section_title
;
Structure prediction by ZEFSAII (Michael W. Deem and Ramdas Pophale) SiO2 
 PCOD9280629
Probable space group: C 2/C
;
_chemical_formula_sum "Si O2"
_cell_formula_units_Z 32
_cell_length_a 5.039382
_cell_length_b 24.883161
_cell_length_c 10.879527
_cell_angle_alpha 90.000000
_cell_angle_beta 64.905968
_cell_angle_gamma 90.000000
_cell_volume 1235.479326
_symmetry_space_group_name_H-M "C 2/C"
_symmetry_group_IT_number 15
_symmetry_cell_setting 'monoclinic'
loop_
_space_group_symop_operation_xyz
x,y,z
-x,y,1/2-z
-x,-y,-z
x,-y,1/2+z
1/2+x,1/2+y,z
1/2-x,1/2+y,1/2-z
1/2-x,1/2-y,-z
1/2+x,1/2-y,1/2+z
loop_
_atom_site_type_symbol
_atom_site_label
_atom_site_fract_x
_atom_site_fract_y
_atom_site_fract_z
Si Si1 0.602954 0.870124 0.957856
Si Si2 0.442997 0.237905 0.125731
Si Si3 0.172348 0.482327 0.840405
Si Si4 0.429185 0.640482 0.627434
O O1 0.254817 0.863863 0.007115
O O2 0.725639 0.809686 0.910543
O O3 0.697019 0.917919 0.852495
O O4 0.702053 0.885101 0.077016
O O5 0.500000 0.216394 0.250000
O O6 0.318981 0.297829 0.164313
O O7 0.500000 0.502967 0.750000
O O8 0.000000 0.494789 0.750000
O O9 0.000000 0.500000 0.000000
O O10 0.500000 0.620398 0.750000
O O11 0.750000 0.750000 0.500000
#
# Coordination Sequence:
#
# PCOD9280629 Si02
#       4
#     8   8   8   8
#     4  11  22  40  65  96 131 178 228 281 340 410
#     4   9  19  36  59  92 134 177 221 271 328 401
#     4  12  28  51  77 108 141 184 239 302 369 433
#     4  10  21  37  61  98 140 181 224 272 334 406
#
# _framework density 25.900879
#
# number of rings (size 3 to 8) (size 9 to 14) (size 15 to 20)
#    0.000    1.500    0.000    4.500    0.000    5.000 
#    0.000   10.000    0.000    0.000    0.000    0.000 
#    0.000    0.000    0.000    0.000    0.000    0.000 
#
# Total GULP energy -89443.357920 kJ/mol
# GULP energy per Si atom -5590.209870 kJ/mol
# Density = 2.584193 g / cm^3
# Si number density = 25.900879 Si / 1000 Ang^3
#
#
#
# Elastic Constant Matrix: (Units=GPa)
#
#
# Indices 1 2 3 4 5 6 
#
# 1 176.1557 35.5701 82.7018 0.0000 9.5836 0.0000
# 2 35.5701 135.8493 30.5084 0.0000 -4.3454 0.0000
# 3 82.7018 30.5084 173.3543 0.0000 12.4882 0.0000
# 4 0.0000 0.0000 0.0000 -5.3231 0.0000 -31.7450
# 5 9.5836 -4.3454 12.4882 0.0000 65.6893 0.0000
# 6 0.0000 0.0000 0.0000 -31.7450 0.0000 -15.3673
#
#
#
# Elastic Compliance Matrix: (Units=1/GPa)
#
#
# Indices 1 2 3 4 5 6 
#
# 1 0.007520 -0.001239 -0.003330 0.000000 -0.000546 0.000000
# 2 -0.001239 0.007907 -0.000863 0.000000 0.000868 0.000000
# 3 -0.003330 -0.000863 0.007582 0.000000 -0.001013 0.000000
# 4 0.000000 0.000000 0.000000 0.016596 0.000000 -0.034284
# 5 -0.000546 0.000868 -0.001013 0.000000 0.015553 0.000000
# 6 0.000000 0.000000 0.000000 -0.034284 0.000000 0.005749
#
#
# Mechanical properties :
#
#
# Convention : Reuss Voigt Hill
#
# Bulk Modulus (GPa) = 82.33721 86.99109 84.66415
# Shear Modulus (GPa) = 65.94585 31.43837 48.69211
#
# Velocity S-wave (km/s) = 5.05135 3.48774 4.34053
# Velocity P-wave (km/s) = 8.11664 7.06245 7.60782
#
# Compressibility (1/GPa) = 0.01214518
#
# Stress axis : x y z
#
# Youngs Moduli (GPa) = 132.97667 126.47001 131.88824
#
# Poissons Ratio (x) = 0.15664 0.43923
# Poissons Ratio (y) = 0.16470 0.11384
# Poissons Ratio (z) = 0.44285 0.10917
#
# Static dielectric constant tensor:
#      x y z
#    x 2.090910 0.000000 -0.042960 
#    y 0.000000 2.080960 0.000000 
#    z -0.042960 0.000000 2.107680 
# 
# From -- ./inp_files/72797.got.cif
#   From: 2010.05.17/outbox.cif.g08.bks.cpg/sg15_37_cif.got.tgz:72797.got - 2010.06.03 18:47:42.
