data_PCOD9280298
_publ_section_title
;
Structure prediction by ZEFSAII (Michael W. Deem and Ramdas Pophale) SiO2 
 PCOD9280298
Probable space group: C 2/C
;
_chemical_formula_sum "Si O2"
_cell_formula_units_Z 48
_cell_length_a 11.820165
_cell_length_b 7.886852
_cell_length_c 19.340439
_cell_angle_alpha 90.000000
_cell_angle_beta 84.258642
_cell_angle_gamma 90.000000
_cell_volume 1793.946505
_symmetry_space_group_name_H-M "C 2/C"
_symmetry_group_IT_number 15
_symmetry_cell_setting 'monoclinic'
loop_
_space_group_symop_operation_xyz
x,y,z
-x,y,1/2-z
-x,-y,-z
x,-y,1/2+z
1/2+x,1/2+y,z
1/2-x,1/2+y,1/2-z
1/2-x,1/2-y,-z
1/2+x,1/2-y,1/2+z
loop_
_atom_site_type_symbol
_atom_site_label
_atom_site_fract_x
_atom_site_fract_y
_atom_site_fract_z
Si Si1 0.665067 0.988084 0.972419
Si Si2 0.091459 0.165825 0.806345
Si Si3 0.278130 0.318010 0.718038
Si Si4 0.529647 0.139982 0.850489
Si Si5 0.896730 0.324072 0.885349
Si Si6 0.581462 0.374814 0.538184
O O1 0.600679 0.058500 0.910017
O O2 0.616345 0.803385 0.998262
O O3 0.640826 0.116592 0.037169
O O4 0.799464 0.968003 0.955457
O O5 0.188339 0.307082 0.785731
O O6 0.000000 0.160448 0.750000
O O7 0.007445 0.205285 0.874277
O O8 0.166564 0.998440 0.800513
O O9 0.386062 0.194256 0.715245
O O10 0.206646 0.261310 0.655009
O O11 0.437620 0.995561 0.843209
O O12 0.473460 0.308069 0.887017
O O13 0.500000 0.500000 0.500000
#
# Coordination Sequence:
#
# PCOD9280298 Si02
#       6
#     8   8   8   8   8   8
#     4  10  23  40  59  92 133 166 202 247 301 368
#     4  10  24  44  65  89 118 156 210 264 312 364
#     4  11  24  42  66  92 119 161 208 259 314 365
#     4  11  24  38  61  94 129 166 201 247 306 367
#     4  10  22  41  63  90 124 163 205 254 306 363
#     4  10  21  37  58  85 122 168 207 242 291 357
#
# _framework density 26.756647999999998
#
# number of rings (size 3 to 8) (size 9 to 14) (size 15 to 20)
#    0.000    1.667    0.000    4.000    0.000   16.000 
#    0.000    0.000    0.000    0.000    0.000    0.000 
#    0.000    0.000    0.000    0.000    0.000    0.000 
#
# Total GULP energy -134599.523969 kJ/mol
# GULP energy per Si atom -5608.313499 kJ/mol
# Density = 2.669575 g / cm^3
# Si number density = 26.756648 Si / 1000 Ang^3
#
#
#
# Elastic Constant Matrix: (Units=GPa)
#
#
# Indices 1 2 3 4 5 6 
#
# 1 153.9309 35.9667 47.9704 0.0000 -45.2319 0.0000
# 2 35.9667 118.5188 24.2843 0.0000 -32.5027 0.0000
# 3 47.9704 24.2843 85.0334 0.0000 -18.3381 0.0000
# 4 0.0000 0.0000 0.0000 44.4271 0.0000 -10.3062
# 5 -45.2319 -32.5027 -18.3381 0.0000 33.8282 0.0000
# 6 0.0000 0.0000 0.0000 -10.3062 0.0000 61.8321
#
#
#
# Elastic Compliance Matrix: (Units=1/GPa)
#
#
# Indices 1 2 3 4 5 6 
#
# 1 0.011755 0.001298 -0.003786 0.000000 0.014912 0.000000
# 2 0.001298 0.011678 -0.001442 0.000000 0.012174 0.000000
# 3 -0.003786 -0.001442 0.014627 0.000000 0.001482 0.000000
# 4 0.000000 0.000000 0.000000 0.023414 0.000000 0.003903
# 5 0.014912 0.012174 0.001482 0.000000 0.062001 0.000000
# 6 0.000000 0.000000 0.000000 0.003903 0.000000 0.016823
#
#
# Mechanical properties :
#
#
# Convention : Reuss Voigt Hill
#
# Bulk Modulus (GPa) = 33.11243 63.76954 48.44099
# Shear Modulus (GPa) = 31.60066 44.63493 38.11779
#
# Velocity S-wave (km/s) = 3.44035 4.08877 3.77850
# Velocity P-wave (km/s) = 5.30883 6.79526 6.09751
#
# Compressibility (1/GPa) = 0.03020014
#
# Stress axis : x y z
#
# Youngs Moduli (GPa) = 85.07051 85.63381 68.36552
#
# Poissons Ratio (x) = -0.11116 0.25884
# Poissons Ratio (y) = -0.11043 0.09857
# Poissons Ratio (z) = 0.32209 0.12347
#
# Static dielectric constant tensor:
#      x y z
#    x 2.014810 0.000000 -0.040010 
#    y 0.000000 2.166800 0.000000 
#    z -0.040010 0.000000 2.072720 
# 
# From -- ./inp_files/268000.got.cif
#   From: 2010.05.17/outbox.cif.g08.bks.cpg/sg15_134_cif.got.tgz:268000.got - 2010.06.03 18:47:42.
