data_PCOD9280431
_publ_section_title
;
Structure prediction by ZEFSAII (Michael W. Deem and Ramdas Pophale) SiO2 
 PCOD9280431
Probable space group: C 2/C
;
_chemical_formula_sum "Si O2"
_cell_formula_units_Z 52
_cell_length_a 12.898305
_cell_length_b 27.651763
_cell_length_c 8.618911
_cell_angle_alpha 90.000000
_cell_angle_beta 119.872262
_cell_angle_gamma 90.000000
_cell_volume 2665.606693
_symmetry_space_group_name_H-M "C 2/C"
_symmetry_group_IT_number 15
_symmetry_cell_setting 'monoclinic'
loop_
_space_group_symop_operation_xyz
x,y,z
-x,y,1/2-z
-x,-y,-z
x,-y,1/2+z
1/2+x,1/2+y,z
1/2-x,1/2+y,1/2-z
1/2-x,1/2-y,-z
1/2+x,1/2-y,1/2+z
loop_
_atom_site_type_symbol
_atom_site_label
_atom_site_fract_x
_atom_site_fract_y
_atom_site_fract_z
Si Si1 0.909651 0.039616 0.809275
Si Si2 0.119999 0.214329 0.243735
Si Si3 0.000000 0.622270 0.750000
Si Si4 0.745014 0.522441 0.071075
Si Si5 0.272040 0.186585 0.652751
Si Si6 0.474185 0.645097 0.910477
Si Si7 0.596568 0.041304 0.034044
O O1 0.805269 0.054195 0.608523
O O2 0.968419 0.086861 0.929329
O O3 0.000000 0.016754 0.750000
O O4 0.852880 0.003353 0.890156
O O5 0.216610 0.195039 0.439281
O O6 0.181388 0.263845 0.233187
O O7 0.000000 0.228542 0.250000
O O8 0.070252 0.174138 0.087062
O O9 0.886215 0.653045 0.716487
O O10 0.964247 0.588062 0.580589
O O11 0.829536 0.549931 0.254112
O O12 0.817422 0.480172 0.036323
O O13 0.158823 0.164093 0.654636
O O14 0.500000 0.652896 0.750000
O O15 0.500000 0.000000 0.000000
#
# Coordination Sequence:
#
# PCOD9280431 Si02
#       7
#     8   8   4   8   8   8   8
#     4  10  21  38  58  87 117 158 201 241 292 351
#     4   9  19  41  65  90 117 156 196 253 298 347
#     4  12  22  34  64  94 116 156 206 244 294 360
#     4  10  21  37  60  80 120 159 196 247 292 343
#     4  10  21  38  65  91 118 152 206 246 294 361
#     4  10  22  38  63  89 124 157 195 245 304 361
#     4  11  21  37  56  83 116 157 195 240 296 346
#
# _framework density 19.507753999999998
#
# number of rings (size 3 to 8) (size 9 to 14) (size 15 to 20)
#    0.000    1.846    2.308    1.385    2.154    3.077 
#    0.000   11.538    3.385    0.000    0.000    0.000 
#    0.000    0.000    0.000    0.000    0.000    0.000 
#
# Total GULP energy -144965.562097 kJ/mol
# GULP energy per Si atom -5575.598542 kJ/mol
# Density = 1.946335 g / cm^3
# Si number density = 19.507754 Si / 1000 Ang^3
#
#
#
# Elastic Constant Matrix: (Units=GPa)
#
#
# Indices 1 2 3 4 5 6 
#
# 1 90.4693 39.0005 8.7636 0.0000 2.0214 0.0000
# 2 39.0005 96.7238 52.6053 0.0000 7.9927 0.0000
# 3 8.7636 52.6053 121.2481 0.0000 15.3079 0.0000
# 4 0.0000 0.0000 0.0000 27.4565 0.0000 3.4151
# 5 2.0214 7.9927 15.3079 0.0000 27.0349 0.0000
# 6 0.0000 0.0000 0.0000 3.4151 0.0000 20.8641
#
#
#
# Elastic Compliance Matrix: (Units=1/GPa)
#
#
# Indices 1 2 3 4 5 6 
#
# 1 0.013686 -0.006516 0.001856 0.000000 -0.000148 0.000000
# 2 -0.006516 0.016647 -0.006669 0.000000 -0.000659 0.000000
# 3 0.001856 -0.006669 0.011605 0.000000 -0.004738 0.000000
# 4 0.000000 0.000000 0.000000 0.037178 0.000000 -0.006085
# 5 -0.000148 -0.000659 -0.004738 0.000000 0.039878 0.000000
# 6 0.000000 0.000000 0.000000 -0.006085 0.000000 0.048925
#
#
# Mechanical properties :
#
#
# Convention : Reuss Voigt Hill
#
# Bulk Modulus (GPa) = 51.86131 56.57556 54.21844
# Shear Modulus (GPa) = 25.38038 28.94255 27.16147
#
# Velocity S-wave (km/s) = 3.61091 3.85599 3.73546
# Velocity P-wave (km/s) = 6.63533 6.99209 6.81605
#
# Compressibility (1/GPa) = 0.01928220
#
# Stress axis : x y z
#
# Youngs Moduli (GPa) = 73.06815 60.07000 86.17094
#
# Poissons Ratio (x) = 0.39140 -0.15998
# Poissons Ratio (y) = 0.47610 0.57464
# Poissons Ratio (z) = -0.13565 0.40058
#
# Static dielectric constant tensor:
#      x y z
#    x 1.713970 0.000000 0.054280 
#    y 0.000000 1.702620 0.000000 
#    z 0.054280 0.000000 1.726030 
# 
# From -- ./inp_files/35370.got.cif
#   From: 2010.05.17/outbox.cif.g08.bks.cpg/sg15_18_cif.got.tgz:35370.got - 2010.06.03 18:47:42.
