data_PCOD9280209
_publ_section_title
;
Structure prediction by ZEFSAII (Michael W. Deem and Ramdas Pophale) SiO2 
 PCOD9280209
Probable space group: C 2/C
;
_chemical_formula_sum "Si O2"
_cell_formula_units_Z 64
_cell_length_a 14.259487
_cell_length_b 26.254467
_cell_length_c 9.244271
_cell_angle_alpha 90.000000
_cell_angle_beta 95.591624
_cell_angle_gamma 90.000000
_cell_volume 3444.358285
_symmetry_space_group_name_H-M "C 2/C"
_symmetry_group_IT_number 15
_symmetry_cell_setting 'monoclinic'
loop_
_space_group_symop_operation_xyz
x,y,z
-x,y,1/2-z
-x,-y,-z
x,-y,1/2+z
1/2+x,1/2+y,z
1/2-x,1/2+y,1/2-z
1/2-x,1/2-y,-z
1/2+x,1/2-y,1/2+z
loop_
_atom_site_type_symbol
_atom_site_label
_atom_site_fract_x
_atom_site_fract_y
_atom_site_fract_z
Si Si1 0.888775 0.899193 0.259651
Si Si2 0.799634 0.103259 0.435511
Si Si3 0.569240 0.486965 0.641466
Si Si4 0.868314 0.715241 0.401041
Si Si5 0.207417 0.180554 0.547876
Si Si6 0.609416 0.695474 0.225539
Si Si7 0.595220 0.136010 0.344751
Si Si8 0.546102 0.796839 0.103512
O O1 0.840469 0.866329 0.378868
O O2 0.000000 0.884798 0.250000
O O3 0.891725 0.959190 0.296593
O O4 0.825152 0.891918 0.108198
O O5 0.850842 0.052257 0.389409
O O6 0.849520 0.151831 0.369503
O O7 0.689920 0.102995 0.374004
O O8 0.500000 0.462971 0.750000
O O9 0.500000 0.500000 0.500000
O O10 0.813711 0.767721 0.368153
O O11 0.816391 0.680746 0.516094
O O12 0.879937 0.683374 0.257447
O O13 0.967488 0.728956 0.488243
O O14 0.161542 0.189769 0.384840
O O15 0.500000 0.688688 0.250000
O O16 0.617624 0.751526 0.155543
O O17 0.500000 0.114877 0.250000
O O18 0.578347 0.157480 0.504470
O O19 0.500000 0.812646 0.250000
#
# Coordination Sequence:
#
# PCOD9280209 Si02
#       8
#     8   8   8   8   8   8   8   8
#     4  11  25  39  59  97 125 162 200 253 312 373
#     4  12  24  40  65  91 124 163 205 253 314 368
#     4  11  23  43  64  93 130 158 193 248 316 385
#     4  10  21  38  53  85 120 171 204 256 300 344
#     4  11  22  36  56  83 128 159 218 246 298 367
#     4  11  21  35  56  90 121 169 206 249 304 364
#     4  10  24  41  62  90 121 167 213 256 304 355
#     4  10  21  37  56  82 122 160 209 256 298 352
#
# _framework density 18.581109000000001
#
# number of rings (size 3 to 8) (size 9 to 14) (size 15 to 20)
#    0.000    1.250    6.250    1.125    5.250    1.000 
#    0.000    0.000    0.000    0.750    0.000    0.000 
#    0.000    0.000    0.000    0.000    0.000    0.000 
#
# Total GULP energy -178435.961503 kJ/mol
# GULP energy per Si atom -5576.123797 kJ/mol
# Density = 1.853882 g / cm^3
# Si number density = 18.581109 Si / 1000 Ang^3
#
#
#
# Elastic Constant Matrix: (Units=GPa)
#
#
# Indices 1 2 3 4 5 6 
#
# 1 90.3040 40.0640 40.0939 0.0000 17.7513 0.0000
# 2 40.0640 63.4671 37.0174 0.0000 -0.8483 0.0000
# 3 40.0939 37.0174 98.6865 0.0000 15.2403 0.0000
# 4 0.0000 0.0000 0.0000 24.1770 0.0000 -5.3770
# 5 17.7513 -0.8483 15.2403 0.0000 36.7993 0.0000
# 6 0.0000 0.0000 0.0000 -5.3770 0.0000 27.1031
#
#
#
# Elastic Compliance Matrix: (Units=1/GPa)
#
#
# Indices 1 2 3 4 5 6 
#
# 1 0.018249 -0.010281 -0.002309 0.000000 -0.008084 0.000000
# 2 -0.010281 0.026483 -0.007069 0.000000 0.008497 0.000000
# 3 -0.002309 -0.007069 0.014504 0.000000 -0.005056 0.000000
# 4 0.000000 0.000000 0.000000 0.043271 0.000000 0.008585
# 5 -0.008084 0.008497 -0.005056 0.000000 0.033363 0.000000
# 6 0.000000 0.000000 0.000000 0.008585 0.000000 0.038599
#
#
# Mechanical properties :
#
#
# Convention : Reuss Voigt Hill
#
# Bulk Modulus (GPa) = 50.20904 54.08980 52.14942
# Shear Modulus (GPa) = 22.68319 26.63470 24.65894
#
# Velocity S-wave (km/s) = 3.49774 3.79017 3.64689
# Velocity P-wave (km/s) = 6.58729 6.95178 6.77199
#
# Compressibility (1/GPa) = 0.01991673
#
# Stress axis : x y z
#
# Youngs Moduli (GPa) = 54.79642 37.76033 68.94783
#
# Poissons Ratio (x) = 0.38822 0.15923
# Poissons Ratio (y) = 0.56337 0.48740
# Poissons Ratio (z) = 0.12655 0.26693
#
# Static dielectric constant tensor:
#      x y z
#    x 1.790800 0.000000 0.008890 
#    y 0.000000 1.631800 0.000000 
#    z 0.008890 0.000000 1.670530 
# 
# From -- ./inp_files/42622.got.cif
#   From: 2010.05.17/outbox.cif.g08.bks.cpg/sg15_22_cif.got.tgz:42622.got - 2010.06.03 18:47:42.
