data_PCOD9280422
_publ_section_title
;
Structure prediction by ZEFSAII (Michael W. Deem and Ramdas Pophale) SiO2 
 PCOD9280422
Probable space group: C 2/C
;
_chemical_formula_sum "Si O2"
_cell_formula_units_Z 60
_cell_length_a 18.910889
_cell_length_b 16.107611
_cell_length_c 22.927741
_cell_angle_alpha 90.000000
_cell_angle_beta 156.311447
_cell_angle_gamma 90.000000
_cell_volume 2805.926317
_symmetry_space_group_name_H-M "C 2/C"
_symmetry_group_IT_number 15
_symmetry_cell_setting 'monoclinic'
loop_
_space_group_symop_operation_xyz
x,y,z
-x,y,1/2-z
-x,-y,-z
x,-y,1/2+z
1/2+x,1/2+y,z
1/2-x,1/2+y,1/2-z
1/2-x,1/2-y,-z
1/2+x,1/2-y,1/2+z
loop_
_atom_site_type_symbol
_atom_site_label
_atom_site_fract_x
_atom_site_fract_y
_atom_site_fract_z
Si Si1 0.387805 0.287470 0.040417
Si Si2 0.915986 0.392449 0.510019
Si Si3 0.208883 0.124662 0.733634
Si Si4 0.194647 0.060515 0.231254
Si Si5 0.675585 0.469242 0.854732
Si Si6 0.500000 0.753357 0.750000
Si Si7 0.691938 0.282058 0.877242
Si Si8 0.572977 0.270431 0.660504
O O1 0.416599 0.190138 0.048376
O O2 0.516977 0.335157 0.094845
O O3 0.448689 0.298591 0.153449
O O4 0.180542 0.303808 0.875139
O O5 0.786763 0.379763 0.357865
O O6 0.839849 0.470800 0.487130
O O7 0.103639 0.413384 0.624791
O O8 0.347880 0.186864 0.808005
O O9 0.184100 0.029983 0.693130
O O10 0.150886 0.043850 0.266479
O O11 0.089630 0.144704 0.135573
O O12 0.500000 0.505945 0.750000
O O13 0.701104 0.378565 0.902103
O O14 0.500000 0.248121 0.750000
O O15 0.693407 0.281859 0.808238
O O16 0.871816 0.237741 0.029945
#
# Coordination Sequence:
#
# PCOD9280422 Si02
#       8
#     8   8   8   8   8   4   8   8
#     4  11  22  38  63  88 123 162 203 244 312 361
#     4  11  20  37  62  94 119 161 203 258 302 362
#     4  11  21  37  63  91 123 156 208 253 301 359
#     4  10  21  37  59  93 122 156 205 255 297 362
#     4   9  19  33  59  92 118 149 207 259 296 347
#     4  10  24  40  58  90 122 164 204 244 298 380
#     4  10  21  38  61  91 119 158 203 254 309 358
#     4  11  21  38  64  88 120 159 198 253 306 358
#
# _framework density 21.383313000000001
#
# number of rings (size 3 to 8) (size 9 to 14) (size 15 to 20)
#    0.000    1.600    2.667    4.400    0.933    1.067 
#    0.000    0.667    4.400    0.000    0.000    0.000 
#    0.000    0.000    0.000    0.000    0.000    0.000 
#
# Total GULP energy -167333.011089 kJ/mol
# GULP energy per Si atom -5577.767036 kJ/mol
# Density = 2.133464 g / cm^3
# Si number density = 21.383313 Si / 1000 Ang^3
#
#
#
# Elastic Constant Matrix: (Units=GPa)
#
#
# Indices 1 2 3 4 5 6 
#
# 1 56.0662 11.1007 21.8682 0.0026 19.7362 0.0018
# 2 11.1007 105.7890 21.3630 -0.0147 10.9620 -0.0197
# 3 21.8682 21.3630 107.4034 -0.0117 36.1140 -0.0137
# 4 0.0026 -0.0147 -0.0117 27.0747 -0.0020 9.6084
# 5 19.7362 10.9620 36.1140 -0.0020 50.3940 -0.0025
# 6 0.0018 -0.0197 -0.0137 9.6084 -0.0025 21.5639
#
#
#
# Elastic Compliance Matrix: (Units=1/GPa)
#
#
# Indices 1 2 3 4 5 6 
#
# 1 0.021140 -0.001155 -0.001812 -0.000003 -0.006730 -0.000004
# 2 -0.001155 0.009948 -0.001539 0.000002 -0.000609 0.000007
# 3 -0.001812 -0.001539 0.012693 0.000003 -0.008052 0.000005
# 4 -0.000003 0.000002 0.000003 0.043872 -0.000001 -0.019549
# 5 -0.006730 -0.000609 -0.008052 -0.000001 0.028382 -0.000002
# 6 -0.000004 0.000007 0.000005 -0.019549 -0.000002 0.055084
#
#
# Mechanical properties :
#
#
# Convention : Reuss Voigt Hill
#
# Bulk Modulus (GPa) = 28.76036 41.99139 35.37587
# Shear Modulus (GPa) = 26.07954 34.13498 30.10726
#
# Velocity S-wave (km/s) = 3.49610 3.99975 3.75638
# Velocity P-wave (km/s) = 5.45674 6.40397 5.94924
#
# Compressibility (1/GPa) = 0.03477008
#
# Stress axis : x y z
#
# Youngs Moduli (GPa) = 47.30279 100.52467 78.78294
#
# Poissons Ratio (x) = 0.11612 0.14273
# Poissons Ratio (y) = 0.05464 0.12123
# Poissons Ratio (z) = 0.08570 0.15468
#
# Static dielectric constant tensor:
#      x y z
#    x 1.826480 0.000000 0.001480 
#    y 0.000000 1.852230 0.000000 
#    z 0.001480 0.000000 1.768260 
# 
# From -- ./inp_files/301202.got.cif
#   From: 2010.05.17/outbox.cif.g08.bks.cpg/sg15_151_cif.got.tgz:301202.got - 2010.06.03 18:47:42.
