data_PCOD9280464
_publ_section_title
;
Structure prediction by ZEFSAII (Michael W. Deem and Ramdas Pophale) SiO2 
 PCOD9280464
Probable space group: C 2/C
;
_chemical_formula_sum "Si O2"
_cell_formula_units_Z 40
_cell_length_a 18.803052
_cell_length_b 13.320201
_cell_length_c 9.731583
_cell_angle_alpha 90.000000
_cell_angle_beta 40.493651
_cell_angle_gamma 90.000000
_cell_volume 1582.744014
_symmetry_space_group_name_H-M "C 2/C"
_symmetry_group_IT_number 15
_symmetry_cell_setting 'monoclinic'
loop_
_space_group_symop_operation_xyz
x,y,z
-x,y,1/2-z
-x,-y,-z
x,-y,1/2+z
1/2+x,1/2+y,z
1/2-x,1/2+y,1/2-z
1/2-x,1/2-y,-z
1/2+x,1/2-y,1/2+z
loop_
_atom_site_type_symbol
_atom_site_label
_atom_site_fract_x
_atom_site_fract_y
_atom_site_fract_z
Si Si1 0.707021 0.924429 0.616418
Si Si2 0.804880 0.795439 0.678796
Si Si3 0.322509 0.376226 0.034154
Si Si4 0.117557 0.446567 0.019323
Si Si5 0.991681 0.881435 0.541658
O O1 0.792271 0.009579 0.544533
O O2 0.662436 0.954125 0.532636
O O3 0.763288 0.822378 0.586463
O O4 0.608918 0.945137 0.867822
O O5 0.783794 0.690300 0.783611
O O6 0.930746 0.827699 0.506877
O O7 0.718522 0.868103 0.889906
O O8 0.408238 0.352711 0.787673
O O9 0.389176 0.356435 0.077360
O O10 0.000000 0.417382 0.250000
O O11 0.000000 0.000000 0.500000
#
# Coordination Sequence:
#
# PCOD9280464 Si02
#       5
#     8   8   8   8   8
#     4  10  21  39  62  89 131 168 218 274 325 383
#     4  10  23  37  62  96 127 163 223 273 315 404
#     4  11  22  37  65  95 126 172 219 276 326 391
#     4  10  21  37  60  88 123 169 212 267 323 389
#     4  11  21  39  64  94 127 169 220 271 332 386
#
# _framework density 25.272566000000001
#
# number of rings (size 3 to 8) (size 9 to 14) (size 15 to 20)
#    1.200    0.400    4.000    1.200    2.800    0.000 
#    0.000    1.000    0.000    0.000    0.000    0.000 
#    0.000    0.000    0.000    0.000    0.000    0.000 
#
# Total GULP energy -111403.458658 kJ/mol
# GULP energy per Si atom -5570.172933 kJ/mol
# Density = 2.521504 g / cm^3
# Si number density = 25.272566 Si / 1000 Ang^3
#
#
#
# Elastic Constant Matrix: (Units=GPa)
#
#
# Indices 1 2 3 4 5 6 
#
# 1 73.6097 21.4258 18.6286 0.0000 -3.9639 0.0000
# 2 21.4258 46.5565 7.6661 0.0000 17.8877 0.0000
# 3 18.6286 7.6661 51.8732 0.0000 -5.1085 0.0000
# 4 0.0000 0.0000 0.0000 23.3263 0.0000 5.0758
# 5 -3.9639 17.8877 -5.1085 0.0000 43.1443 0.0000
# 6 0.0000 0.0000 0.0000 5.0758 0.0000 30.6354
#
#
#
# Elastic Compliance Matrix: (Units=1/GPa)
#
#
# Indices 1 2 3 4 5 6 
#
# 1 0.017698 -0.009308 -0.004492 0.000000 0.004953 0.000000
# 2 -0.009308 0.031725 -0.002757 0.000000 -0.014335 0.000000
# 3 -0.004492 -0.002757 0.021623 0.000000 0.003291 0.000000
# 4 0.000000 0.000000 0.000000 0.044473 0.000000 -0.007369
# 5 0.004953 -0.014335 0.003291 0.000000 0.029966 0.000000
# 6 0.000000 0.000000 0.000000 -0.007369 0.000000 0.033863
#
#
# Mechanical properties :
#
#
# Convention : Reuss Voigt Hill
#
# Bulk Modulus (GPa) = 26.36464 29.72002 28.04233
# Shear Modulus (GPa) = 22.21167 27.70913 24.96040
#
# Velocity S-wave (km/s) = 2.96781 3.31480 3.14610
# Velocity P-wave (km/s) = 4.71155 5.14158 4.93125
#
# Compressibility (1/GPa) = 0.03792959
#
# Stress axis : x y z
#
# Youngs Moduli (GPa) = 56.50300 31.52116 46.24786
#
# Poissons Ratio (x) = 0.29341 0.20776
# Poissons Ratio (y) = 0.52595 0.12752
# Poissons Ratio (z) = 0.25383 0.08692
#
# Static dielectric constant tensor:
#      x y z
#    x 2.170390 0.000000 0.071830 
#    y 0.000000 2.072020 0.000000 
#    z 0.071830 0.000000 2.021560 
# 
# From -- ./inp_files/112235.got.cif
#   From: 2010.05.17/outbox.cif.g08.bks.cpg/sg15_57_cif.got.tgz:112235.got - 2010.06.03 18:47:42.
