data_PCOD9280138
_publ_section_title
;
Structure prediction by ZEFSAII (Michael W. Deem and Ramdas Pophale) SiO2 
 PCOD9280138
Probable space group: C 2/C
;
_chemical_formula_sum "Si O2"
_cell_formula_units_Z 60
_cell_length_a 21.789267
_cell_length_b 29.472740
_cell_length_c 8.032961
_cell_angle_alpha 90.000000
_cell_angle_beta 42.014111
_cell_angle_gamma 90.000000
_cell_volume 3452.776351
_symmetry_space_group_name_H-M "C 2/C"
_symmetry_group_IT_number 15
_symmetry_cell_setting 'monoclinic'
loop_
_space_group_symop_operation_xyz
x,y,z
-x,y,1/2-z
-x,-y,-z
x,-y,1/2+z
1/2+x,1/2+y,z
1/2-x,1/2+y,1/2-z
1/2-x,1/2-y,-z
1/2+x,1/2-y,1/2+z
loop_
_atom_site_type_symbol
_atom_site_label
_atom_site_fract_x
_atom_site_fract_y
_atom_site_fract_z
Si Si1 0.273088 0.235895 0.184812
Si Si2 0.176995 0.113812 0.049388
Si Si3 0.500000 0.212962 0.250000
Si Si4 0.609309 0.330589 0.993786
Si Si5 0.820551 0.319684 0.271911
Si Si6 0.104718 0.131541 0.825502
Si Si7 0.439672 0.262635 0.036560
Si Si8 0.472139 0.450566 0.615442
O O1 0.170737 0.214614 0.392854
O O2 0.256143 0.287484 0.161240
O O3 0.339778 0.239983 0.207397
O O4 0.325182 0.205077 0.942044
O O5 0.127070 0.149647 0.275063
O O6 0.133217 0.065635 0.190607
O O7 0.281196 0.129615 0.863000
O O8 0.153245 0.118979 0.901370
O O9 0.411535 0.183913 0.480203
O O10 0.482045 0.242148 0.118732
O O11 0.500000 0.328952 0.250000
O O12 0.654129 0.362114 0.048102
O O13 0.069239 0.182860 0.931573
O O14 0.032763 0.091587 0.928818
O O15 0.500000 0.253649 0.750000
O O16 0.500000 0.450739 0.750000
O O17 0.500000 0.500000 0.500000
#
# Coordination Sequence:
#
# PCOD9280138 Si02
#       8
#     8   8   4   8   8   8   8   8
#     4  10  22  36  52  77 109 150 191 246 267 318
#     4  10  21  40  53  75 111 145 178 229 279 332
#     4  12  26  36  56  80 102 156 204 236 270 324
#     4  11  23  33  56  79 108 150 200 217 271 333
#     4  10  21  37  53  76 108 144 194 233 283 322
#     4  11  23  34  54  75 105 150 177 225 277 328
#     4  12  24  37  53  76 111 149 198 240 276 316
#     4  10  22  36  56  81 107 142 180 222 283 340
#
# _framework density 17.377319
#
# number of rings (size 3 to 8) (size 9 to 14) (size 15 to 20)
#    0.000    1.333    4.000    2.000    7.467    1.067 
#    0.000    0.000    0.000    0.000    0.000    0.000 
#    0.000    4.267    2.267    0.000    0.000    3.733 
#
# Total GULP energy -167016.958644 kJ/mol
# GULP energy per Si atom -5567.231955 kJ/mol
# Density = 1.733777 g / cm^3
# Si number density = 17.377319 Si / 1000 Ang^3
#
#
#
# Elastic Constant Matrix: (Units=GPa)
#
#
# Indices 1 2 3 4 5 6 
#
# 1 68.7901 18.8920 8.6149 0.0000 0.7881 0.0000
# 2 18.8920 87.2358 29.4526 0.0000 -15.9889 0.0000
# 3 8.6149 29.4526 87.9988 0.0000 -7.0492 0.0000
# 4 0.0000 0.0000 0.0000 30.2054 0.0000 2.2129
# 5 0.7881 -15.9889 -7.0492 0.0000 20.7449 0.0000
# 6 0.0000 0.0000 0.0000 2.2129 0.0000 16.1189
#
#
#
# Elastic Compliance Matrix: (Units=1/GPa)
#
#
# Indices 1 2 3 4 5 6 
#
# 1 0.015724 -0.003923 -0.000531 0.000000 -0.003801 0.000000
# 2 -0.003923 0.015647 -0.003983 0.000000 0.010855 0.000000
# 3 -0.000531 -0.003983 0.012855 0.000000 0.001318 0.000000
# 4 0.000000 0.000000 0.000000 0.033443 0.000000 -0.004591
# 5 -0.003801 0.010855 0.001318 0.000000 0.057164 0.000000
# 6 0.000000 0.000000 0.000000 -0.004591 0.000000 0.062669
#
#
# Mechanical properties :
#
#
# Convention : Reuss Voigt Hill
#
# Bulk Modulus (GPa) = 36.56058 39.77153 38.16606
# Shear Modulus (GPa) = 22.37201 25.88485 24.12843
#
# Velocity S-wave (km/s) = 3.59196 3.86369 3.73030
# Velocity P-wave (km/s) = 6.18772 6.54529 6.36902
#
# Compressibility (1/GPa) = 0.02735186
#
# Stress axis : x y z
#
# Youngs Moduli (GPa) = 63.59574 63.90929 77.79338
#
# Poissons Ratio (x) = 0.25070 0.04131
# Poissons Ratio (y) = 0.24947 0.30988
# Poissons Ratio (z) = 0.03377 0.25458
#
# Static dielectric constant tensor:
#      x y z
#    x 1.656840 0.000000 0.023190 
#    y 0.000000 1.396120 0.000000 
#    z 0.023190 0.000000 1.688460 
# 
# From -- ./inp_files/64043.got.cif
#   From: 2010.05.17/outbox.cif.g08.bks.cpg/sg15_33_cif.got.tgz:64043.got - 2010.06.03 18:47:42.
