data_PCOD9280749
_publ_section_title
;
Structure prediction by ZEFSAII (Michael W. Deem and Ramdas Pophale) SiO2 
 PCOD9280749
Probable space group: C 2/C
;
_chemical_formula_sum "Si O2"
_cell_formula_units_Z 48
_cell_length_a 28.586483
_cell_length_b 12.395056
_cell_length_c 8.220545
_cell_angle_alpha 90.000000
_cell_angle_beta 52.701946
_cell_angle_gamma 90.000000
_cell_volume 2317.110653
_symmetry_space_group_name_H-M "C 2/C"
_symmetry_group_IT_number 15
_symmetry_cell_setting 'monoclinic'
loop_
_space_group_symop_operation_xyz
x,y,z
-x,y,1/2-z
-x,-y,-z
x,-y,1/2+z
1/2+x,1/2+y,z
1/2-x,1/2+y,1/2-z
1/2-x,1/2-y,-z
1/2+x,1/2-y,1/2+z
loop_
_atom_site_type_symbol
_atom_site_label
_atom_site_fract_x
_atom_site_fract_y
_atom_site_fract_z
Si Si1 0.057454 0.654374 0.040313
Si Si2 0.693742 0.523661 0.974240
Si Si3 0.906386 0.433882 0.346168
Si Si4 0.324715 0.947370 0.799501
Si Si5 0.241300 0.690410 0.848688
Si Si6 0.159317 0.167311 0.347097
O O1 0.068915 0.543952 0.124512
O O2 0.000000 0.700466 0.250000
O O3 0.046851 0.627041 0.868174
O O4 0.107680 0.746213 0.944986
O O5 0.760451 0.482443 0.873933
O O6 0.706214 0.611128 0.806261
O O7 0.656844 0.420203 0.998058
O O8 0.666466 0.592870 0.175116
O O9 0.865423 0.389191 0.579464
O O10 0.859679 0.452330 0.297997
O O11 0.315104 0.880252 0.983840
O O12 0.220856 0.769401 0.750521
O O13 0.250000 0.750000 0.000000
#
# Coordination Sequence:
#
# PCOD9280749 Si02
#       6
#     8   8   8   8   8   8
#     4  11  24  43  64  87 118 160 213 263 309 348
#     4  12  23  39  58  91 134 165 197 245 298 373
#     4  10  21  37  63  91 124 151 192 255 312 367
#     4  11  18  35  55  90 123 156 182 228 307 374
#     4  12  22  34  59  90 129 165 195 235 299 379
#     4  12  24  41  60  89 122 169 209 250 300 364
#
# _framework density 20.715453
#
# number of rings (size 3 to 8) (size 9 to 14) (size 15 to 20)
#    0.000    0.667    6.667    2.000    2.333    0.000 
#    0.000    0.833    0.000    0.000    0.000    0.000 
#    0.000    0.000    0.000    0.000    0.000    0.000 
#
# Total GULP energy -133632.890256 kJ/mol
# GULP energy per Si atom -5568.037094 kJ/mol
# Density = 2.066830 g / cm^3
# Si number density = 20.715453 Si / 1000 Ang^3
#
#
#
# Elastic Constant Matrix: (Units=GPa)
#
#
# Indices 1 2 3 4 5 6 
#
# 1 28.4274 21.9198 21.1784 0.0000 5.7093 0.0000
# 2 21.9198 98.3268 37.1242 0.0000 4.9279 0.0000
# 3 21.1784 37.1242 127.2936 0.0000 14.5470 0.0000
# 4 0.0000 0.0000 0.0000 28.1359 0.0000 15.3533
# 5 5.7093 4.9279 14.5470 0.0000 24.8767 0.0000
# 6 0.0000 0.0000 0.0000 15.3533 0.0000 31.3999
#
#
#
# Elastic Compliance Matrix: (Units=1/GPa)
#
#
# Indices 1 2 3 4 5 6 
#
# 1 0.046212 -0.008265 -0.004558 0.000000 -0.006303 0.000000
# 2 -0.008265 0.012910 -0.002480 0.000000 0.000790 0.000000
# 3 -0.004558 -0.002480 0.009818 0.000000 -0.004204 0.000000
# 4 0.000000 0.000000 0.000000 0.048476 0.000000 -0.023703
# 5 -0.006303 0.000790 -0.004204 0.000000 0.043947 0.000000
# 6 0.000000 0.000000 0.000000 -0.023703 0.000000 0.043437
#
#
# Mechanical properties :
#
#
# Convention : Reuss Voigt Hill
#
# Bulk Modulus (GPa) = 26.08698 46.05470 36.07084
# Shear Modulus (GPa) = 20.14644 28.47087 24.30866
#
# Velocity S-wave (km/s) = 3.12193 3.71128 3.42929
# Velocity P-wave (km/s) = 5.06118 6.37535 5.75590
#
# Compressibility (1/GPa) = 0.03833330
#
# Stress axis : x y z
#
# Youngs Moduli (GPa) = 21.63946 77.46226 101.85531
#
# Poissons Ratio (x) = 0.64024 0.46422
# Poissons Ratio (y) = 0.17885 0.25261
# Poissons Ratio (z) = 0.09862 0.19211
#
# Static dielectric constant tensor:
#      x y z
#    x 2.021090 0.000000 -0.254230 
#    y 0.000000 2.198130 0.000000 
#    z -0.254230 0.000000 2.140160 
# 
# From -- ./inp_files/65046.got.cif
#   From: 2010.05.17/outbox.cif.g08.bks.cpg/sg15_33_cif.got.tgz:65046.got - 2010.06.03 18:47:42.
