data_PCOD9280936
_publ_section_title
;
Structure prediction by ZEFSAII (Michael W. Deem and Ramdas Pophale) SiO2 
 PCOD9280936
Probable space group: C 2/C
;
_chemical_formula_sum "Si O2"
_cell_formula_units_Z 48
_cell_length_a 14.363603
_cell_length_b 16.292761
_cell_length_c 9.863126
_cell_angle_alpha 90.000000
_cell_angle_beta 87.496004
_cell_angle_gamma 90.000000
_cell_volume 2305.991959
_symmetry_space_group_name_H-M "C 2/C"
_symmetry_group_IT_number 15
_symmetry_cell_setting 'monoclinic'
loop_
_space_group_symop_operation_xyz
x,y,z
-x,y,1/2-z
-x,-y,-z
x,-y,1/2+z
1/2+x,1/2+y,z
1/2-x,1/2+y,1/2-z
1/2-x,1/2-y,-z
1/2+x,1/2-y,1/2+z
loop_
_atom_site_type_symbol
_atom_site_label
_atom_site_fract_x
_atom_site_fract_y
_atom_site_fract_z
Si Si1 0.756537 0.280461 0.153798
Si Si2 0.608124 0.586452 0.708223
Si Si3 0.549141 0.099310 0.374829
Si Si4 0.306718 0.508712 0.533546
Si Si5 0.876760 0.568542 0.577653
Si Si6 0.254086 0.173471 0.097535
O O1 0.661506 0.326448 0.203925
O O2 0.833227 0.353361 0.155660
O O3 0.775123 0.204767 0.252188
O O4 0.750000 0.250000 0.000000
O O5 0.500000 0.592675 0.750000
O O6 0.624199 0.547843 0.558389
O O7 0.660902 0.528573 0.816130
O O8 0.500000 0.138110 0.250000
O O9 0.469559 0.092041 0.491720
O O10 0.638460 0.148418 0.411309
O O11 0.591078 0.009109 0.335356
O O12 0.205165 0.465787 0.517477
O O13 0.301409 0.596435 0.457964
O O14 0.250000 0.250000 0.000000
#
# Coordination Sequence:
#
# PCOD9280936 Si02
#       6
#     8   8   8   8   8   8
#     4  11  24  40  64  92 132 173 209 260 331 390
#     4  11  24  43  69  92 127 170 230 265 317 393
#     4  10  21  37  67  92 121 161 221 264 314 379
#     4  10  23  42  68  92 128 171 214 272 328 380
#     4   9  22  38  62  94 122 161 216 268 318 374
#     4  11  23  43  62  92 136 173 202 265 335 384
#
# _framework density 20.815338000000001
#
# number of rings (size 3 to 8) (size 9 to 14) (size 15 to 20)
#    0.000    1.667    1.667    1.500   11.667    3.333 
#    0.000    0.000    0.000    0.000    0.000    0.000 
#    0.000    0.000    0.000    0.000    0.000    0.000 
#
# Total GULP energy -134091.321592 kJ/mol
# GULP energy per Si atom -5587.138400 kJ/mol
# Density = 2.076796 g / cm^3
# Si number density = 20.815338 Si / 1000 Ang^3
#
#
#
# Elastic Constant Matrix: (Units=GPa)
#
#
# Indices 1 2 3 4 5 6 
#
# 1 91.2666 20.8174 -1.4871 0.0000 -13.9727 0.0000
# 2 20.8174 72.1508 0.3205 0.0000 -10.4105 0.0000
# 3 -1.4871 0.3205 67.2586 0.0000 -4.5255 0.0000
# 4 0.0000 0.0000 0.0000 28.6676 0.0000 15.2475
# 5 -13.9727 -10.4105 -4.5255 0.0000 24.6788 0.0000
# 6 0.0000 0.0000 0.0000 15.2475 0.0000 -69.8327
#
#
#
# Elastic Compliance Matrix: (Units=1/GPa)
#
#
# Indices 1 2 3 4 5 6 
#
# 1 0.012521 -0.002741 0.000698 0.000000 0.006061 0.000000
# 2 -0.002741 0.015367 0.000200 0.000000 0.004967 0.000000
# 3 0.000698 0.000200 0.015101 0.000000 0.003249 0.000000
# 4 0.000000 0.000000 0.000000 0.031253 0.000000 0.006824
# 5 0.006061 0.004967 0.003249 0.000000 0.046643 0.000000
# 6 0.000000 0.000000 0.000000 0.006824 0.000000 -0.012830
#
#
# Mechanical properties :
#
#
# Convention : Reuss Voigt Hill
#
# Bulk Modulus (GPa) = 25.44361 29.99751 27.72056
# Shear Modulus (GPa) = 40.05034 10.77109 25.41072
#
# Velocity S-wave (km/s) = 4.39119 2.27724 3.49774
# Velocity P-wave (km/s) = 6.16118 4.62136 5.44597
#
# Compressibility (1/GPa) = 0.03930260
#
# Stress axis : x y z
#
# Youngs Moduli (GPa) = 79.86270 65.07625 66.22060
#
# Poissons Ratio (x) = 0.17840 -0.04620
# Poissons Ratio (y) = 0.21893 -0.01327
# Poissons Ratio (z) = -0.05572 -0.01304
#
# Static dielectric constant tensor:
#      x y z
#    x 1.739490 0.000000 0.010490 
#    y 0.000000 1.765070 0.000000 
#    z 0.010490 0.000000 1.721300 
# 
# From -- ./inp_files/39615.got.cif
#   From: 2010.05.17/outbox.cif.g08.bks.cpg/sg15_20_cif.got.tgz:39615.got - 2010.06.03 18:47:42.
