data_PCOD9280992
_publ_section_title
;
Structure prediction by ZEFSAII (Michael W. Deem and Ramdas Pophale) SiO2 
 PCOD9280992
Probable space group: C 2/C
;
_chemical_formula_sum "Si O2"
_cell_formula_units_Z 64
_cell_length_a 21.024314
_cell_length_b 21.795471
_cell_length_c 8.403649
_cell_angle_alpha 90.000000
_cell_angle_beta 121.778798
_cell_angle_gamma 90.000000
_cell_volume 3273.555399
_symmetry_space_group_name_H-M "C 2/C"
_symmetry_group_IT_number 15
_symmetry_cell_setting 'monoclinic'
loop_
_space_group_symop_operation_xyz
x,y,z
-x,y,1/2-z
-x,-y,-z
x,-y,1/2+z
1/2+x,1/2+y,z
1/2-x,1/2+y,1/2-z
1/2-x,1/2-y,-z
1/2+x,1/2-y,1/2+z
loop_
_atom_site_type_symbol
_atom_site_label
_atom_site_fract_x
_atom_site_fract_y
_atom_site_fract_z
Si Si1 0.162509 0.296707 0.828787
Si Si2 0.932599 0.183769 0.769282
Si Si3 0.461410 0.239744 0.862881
Si Si4 0.213578 0.868887 0.299159
Si Si5 0.682048 0.272014 0.013516
Si Si6 0.334665 0.035721 0.865184
Si Si7 0.959043 0.397459 0.368207
Si Si8 0.399230 0.930258 0.778431
O O1 0.115862 0.242862 0.857299
O O2 0.174682 0.269534 0.665774
O O3 0.115289 0.357855 0.742048
O O4 0.233058 0.323009 0.023616
O O5 0.868942 0.134509 0.730122
O O6 0.000000 0.160070 0.750000
O O7 0.980998 0.215560 0.973458
O O8 0.500000 0.222488 0.750000
O O9 0.386267 0.270699 0.700172
O O10 0.449463 0.172437 0.921321
O O11 0.199176 0.837835 0.110189
O O12 0.257967 0.931735 0.322145
O O13 0.750000 0.250000 0.000000
O O14 0.376866 0.073364 0.779913
O O15 0.339933 0.966009 0.812721
O O16 0.386281 0.044100 0.087050
O O17 0.000000 0.400109 0.250000
O O18 0.017075 0.435078 0.551256
#
# Coordination Sequence:
#
# PCOD9280992 Si02
#       8
#     8   8   8   8   8   8   8   8
#     4  10  21  38  54  80 117 154 192 241 299 363
#     4  11  22  35  60  85 119 156 200 242 296 372
#     4  11  20  34  53  82 118 156 189 238 293 346
#     4  10  23  39  54  82 122 162 200 245 302 363
#     4  11  21  33  54  84 121 153 191 240 296 364
#     4  11  24  38  59  80 118 161 203 252 295 346
#     4  11  21  35  55  83 120 158 199 238 285 352
#     4  11  22  38  56  80 112 156 209 245 288 350
#
# _framework density 19.550606999999999
#
# number of rings (size 3 to 8) (size 9 to 14) (size 15 to 20)
#    0.000    1.250    3.750    4.500    7.000    1.000 
#    0.000    0.000    0.000    0.000    0.000    3.500 
#    0.000    0.125    0.000    0.000    0.000    0.000 
#
# Total GULP energy -178188.048617 kJ/mol
# GULP energy per Si atom -5568.376519 kJ/mol
# Density = 1.950611 g / cm^3
# Si number density = 19.550607 Si / 1000 Ang^3
#
#
#
# Elastic Constant Matrix: (Units=GPa)
#
#
# Indices 1 2 3 4 5 6 
#
# 1 107.7966 14.0865 10.0694 0.0000 14.9661 0.0000
# 2 14.0865 47.0116 9.9136 0.0000 5.6622 0.0000
# 3 10.0694 9.9136 72.0160 0.0000 16.7095 0.0000
# 4 0.0000 0.0000 0.0000 13.6508 0.0000 0.4115
# 5 14.9661 5.6622 16.7095 0.0000 33.5505 0.0000
# 6 0.0000 0.0000 0.0000 0.4115 0.0000 20.0908
#
#
#
# Elastic Compliance Matrix: (Units=1/GPa)
#
#
# Indices 1 2 3 4 5 6 
#
# 1 0.010183 -0.002535 -0.000136 0.000000 -0.004047 0.000000
# 2 -0.002535 0.022723 -0.002427 0.000000 -0.001496 0.000000
# 3 -0.000136 -0.002427 0.015976 0.000000 -0.007487 0.000000
# 4 0.000000 0.000000 0.000000 0.073301 0.000000 -0.001501
# 5 -0.004047 -0.001496 -0.007487 0.000000 0.035592 0.000000
# 6 0.000000 0.000000 0.000000 -0.001501 0.000000 0.049805
#
#
# Mechanical properties :
#
#
# Convention : Reuss Voigt Hill
#
# Bulk Modulus (GPa) = 25.84890 32.77370 29.31130
# Shear Modulus (GPa) = 21.67607 26.30875 23.99241
#
# Velocity S-wave (km/s) = 3.33335 3.67232 3.50694
# Velocity P-wave (km/s) = 5.29766 5.89756 5.60564
#
# Compressibility (1/GPa) = 0.03868637
#
# Stress axis : x y z
#
# Youngs Moduli (GPa) = 98.20754 44.00878 62.59433
#
# Poissons Ratio (x) = 0.11156 0.00850
# Poissons Ratio (y) = 0.24896 0.15189
# Poissons Ratio (z) = 0.01334 0.10679
#
# Static dielectric constant tensor:
#      x y z
#    x 1.756230 0.000000 -0.034960 
#    y 0.000000 1.679220 0.000000 
#    z -0.034960 0.000000 1.625010 
# 
# From -- ./inp_files/58663.got.cif
#   From: 2010.05.17/outbox.cif.g08.bks.cpg/sg15_30_cif.got.tgz:58663.got - 2010.06.03 18:47:42.
