data_PCOD9280365
_publ_section_title
;
Structure prediction by ZEFSAII (Michael W. Deem and Ramdas Pophale) SiO2 
 PCOD9280365
Probable space group: C 2/C
;
_chemical_formula_sum "Si O2"
_cell_formula_units_Z 56
_cell_length_a 21.384676
_cell_length_b 22.459499
_cell_length_c 13.761800
_cell_angle_alpha 90.000000
_cell_angle_beta 156.249854
_cell_angle_gamma 90.000000
_cell_volume 2662.027120
_symmetry_space_group_name_H-M "C 2/C"
_symmetry_group_IT_number 15
_symmetry_cell_setting 'monoclinic'
loop_
_space_group_symop_operation_xyz
x,y,z
-x,y,1/2-z
-x,-y,-z
x,-y,1/2+z
1/2+x,1/2+y,z
1/2-x,1/2+y,1/2-z
1/2-x,1/2-y,-z
1/2+x,1/2-y,1/2+z
loop_
_atom_site_type_symbol
_atom_site_label
_atom_site_fract_x
_atom_site_fract_y
_atom_site_fract_z
Si Si1 0.249166 0.258778 0.254692
Si Si2 0.960581 0.694327 0.424568
Si Si3 0.341156 0.867155 0.149212
Si Si4 0.500000 0.236818 0.750000
Si Si5 0.538216 0.439501 0.695463
Si Si6 0.171015 0.342889 0.961872
Si Si7 0.500000 0.968522 0.250000
Si Si8 0.204135 0.041759 0.805637
O O1 0.334402 0.201617 0.330016
O O2 0.381580 0.276648 0.519687
O O3 0.226638 0.300897 0.128980
O O4 0.083793 0.253034 0.072917
O O5 0.860711 0.686810 0.186044
O O6 0.084388 0.645029 0.638289
O O7 0.391017 0.807790 0.159393
O O8 0.428552 0.923975 0.227954
O O9 0.160942 0.884996 0.879909
O O10 0.500000 0.458604 0.750000
O O11 0.616315 0.491872 0.743046
O O12 0.380675 0.432353 0.410137
O O13 0.000000 0.363771 0.750000
O O14 0.274703 0.400456 0.097978
O O15 0.632798 0.009938 0.484611
#
# Coordination Sequence:
#
# PCOD9280365 Si02
#       8
#     8   8   8   4   8   8   4   8
#     4  10  22  38  59  85 120 152 202 252 294 359
#     4  10  22  40  59  87 116 158 204 246 304 356
#     4   9  20  38  61  89 116 154 201 243 294 363
#     4   9  20  40  60  86 118 158 198 243 306 350
#     4  10  23  37  57  88 124 151 194 249 301 356
#     4  10  21  37  59  85 115 155 203 243 298 360
#     4   9  18  38  64  84 120 154 192 247 294 356
#     4  10  21  39  58  87 119 156 194 245 303 357
#
# _framework density 21.0366
#
# number of rings (size 3 to 8) (size 9 to 14) (size 15 to 20)
#    0.000    2.286    0.714    0.429    4.000    5.714 
#    0.000    7.143    0.000    0.000    0.000    0.000 
#    0.000    0.000    0.000    0.000    0.000    0.000 
#
# Total GULP energy -155895.353327 kJ/mol
# GULP energy per Si atom -5567.691190 kJ/mol
# Density = 2.098872 g / cm^3
# Si number density = 21.036600 Si / 1000 Ang^3
#
#
#
# Elastic Constant Matrix: (Units=GPa)
#
#
# Indices 1 2 3 4 5 6 
#
# 1 58.1107 0.9534 37.9530 0.0000 -16.3641 0.0000
# 2 0.9534 47.9316 49.1200 0.0000 -6.0303 0.0000
# 3 37.9530 49.1200 155.6759 0.0000 -30.4126 0.0000
# 4 0.0000 0.0000 0.0000 -6.2538 0.0000 -19.1862
# 5 -16.3641 -6.0303 -30.4126 0.0000 32.3087 0.0000
# 6 0.0000 0.0000 0.0000 -19.1862 0.0000 -3.9754
#
#
#
# Elastic Compliance Matrix: (Units=1/GPa)
#
#
# Indices 1 2 3 4 5 6 
#
# 1 0.023361 0.007174 -0.006599 0.000000 0.006959 0.000000
# 2 0.007174 0.033501 -0.012729 0.000000 -0.002096 0.000000
# 3 -0.006599 -0.012729 0.013395 0.000000 0.006891 0.000000
# 4 0.000000 0.000000 0.000000 0.011582 0.000000 -0.055896
# 5 0.006959 -0.002096 0.006891 0.000000 0.040571 0.000000
# 6 0.000000 0.000000 0.000000 -0.055896 0.000000 0.018220
#
#
# Mechanical properties :
#
#
# Convention : Reuss Voigt Hill
#
# Bulk Modulus (GPa) = 21.76383 48.64122 35.20253
# Shear Modulus (GPa) = 27.73872 15.99535 21.86704
#
# Velocity S-wave (km/s) = 3.63518 2.76045 3.22759
# Velocity P-wave (km/s) = 5.29033 5.77343 5.53715
#
# Compressibility (1/GPa) = 0.04594779
#
# Stress axis : x y z
#
# Youngs Moduli (GPa) = 42.80728 29.84980 74.65563
#
# Poissons Ratio (x) = -0.21413 0.49266
# Poissons Ratio (y) = -0.30708 0.95027
# Poissons Ratio (z) = 0.28249 0.37995
#
# Static dielectric constant tensor:
#      x y z
#    x 1.810220 0.000000 0.014670 
#    y 0.000000 1.756160 0.000000 
#    z 0.014670 0.000000 1.838880 
# 
# From -- ./inp_files/174808.got.cif
#   From: 2010.05.17/outbox.cif.g08.bks.cpg/sg15_88_cif.got.tgz:174808.got - 2010.06.03 18:47:42.
