data_PCOD9280357
_publ_section_title
;
Structure prediction by ZEFSAII (Michael W. Deem and Ramdas Pophale) SiO2 
 PCOD9280357
Probable space group: C 2/C
;
_chemical_formula_sum "Si O2"
_cell_formula_units_Z 56
_cell_length_a 9.647587
_cell_length_b 10.226058
_cell_length_c 28.149928
_cell_angle_alpha 90.000000
_cell_angle_beta 115.791309
_cell_angle_gamma 90.000000
_cell_volume 2500.531838
_symmetry_space_group_name_H-M "C 2/C"
_symmetry_group_IT_number 15
_symmetry_cell_setting 'monoclinic'
loop_
_space_group_symop_operation_xyz
x,y,z
-x,y,1/2-z
-x,-y,-z
x,-y,1/2+z
1/2+x,1/2+y,z
1/2-x,1/2+y,1/2-z
1/2-x,1/2-y,-z
1/2+x,1/2-y,1/2+z
loop_
_atom_site_type_symbol
_atom_site_label
_atom_site_fract_x
_atom_site_fract_y
_atom_site_fract_z
Si Si1 0.678639 0.799427 0.261233
Si Si2 0.578920 0.377067 0.485341
Si Si3 0.611991 0.843248 0.494518
Si Si4 0.873287 0.455743 0.580592
Si Si5 0.677487 0.495741 0.285628
Si Si6 0.195452 0.397142 0.605610
Si Si7 0.319390 0.387355 0.376582
O O1 0.500000 0.814099 0.250000
O O2 0.708811 0.641974 0.267663
O O3 0.785456 0.872420 0.316325
O O4 0.715536 0.880712 0.219205
O O5 0.500000 0.500000 0.500000
O O6 0.514854 0.248082 0.501118
O O7 0.755999 0.387390 0.526367
O O8 0.496034 0.389982 0.421656
O O9 0.750000 0.750000 0.500000
O O10 0.668533 0.933788 0.546847
O O11 0.570348 0.918731 0.441038
O O12 0.777260 0.497253 0.612375
O O13 0.033531 0.383460 0.610297
O O14 0.500000 0.463819 0.250000
O O15 0.701875 0.514659 0.345679
O O16 0.252953 0.247616 0.613065
#
# Coordination Sequence:
#
# PCOD9280357 Si02
#       7
#     8   8   8   8   8   8   8
#     4  10  21  41  65  88 119 159 204 259 314 362
#     4   9  18  33  52  80 111 150 187 226 281 341
#     4  11  19  35  56  83 119 154 190 236 287 356
#     4  11  20  36  57  82 119 150 194 235 287 356
#     4  10  23  43  63  92 122 160 209 261 310 369
#     4  10  21  37  59  84 117 157 191 243 301 351
#     4   9  19  35  56  83 111 153 191 241 295 352
#
# _framework density 22.395235
#
# number of rings (size 3 to 8) (size 9 to 14) (size 15 to 20)
#    0.000    2.000    4.286    1.286    0.000    4.000 
#    0.000    2.857    0.000    0.000    0.000    0.000 
#    0.000    0.000    0.000    0.000    0.000    0.000 
#
# Total GULP energy -156116.065069 kJ/mol
# GULP energy per Si atom -5575.573752 kJ/mol
# Density = 2.234426 g / cm^3
# Si number density = 22.395235 Si / 1000 Ang^3
#
#
#
# Elastic Constant Matrix: (Units=GPa)
#
#
# Indices 1 2 3 4 5 6 
#
# 1 76.5838 14.0110 -10.2572 0.0000 14.7236 0.0000
# 2 14.0110 61.0202 -7.6079 0.0000 -11.0615 0.0000
# 3 -10.2572 -7.6079 48.9278 0.0000 7.1114 0.0000
# 4 0.0000 0.0000 0.0000 25.5288 0.0000 -6.5464
# 5 14.7236 -11.0615 7.1114 0.0000 35.2626 0.0000
# 6 0.0000 0.0000 0.0000 -6.5464 0.0000 28.5432
#
#
#
# Elastic Compliance Matrix: (Units=1/GPa)
#
#
# Indices 1 2 3 4 5 6 
#
# 1 0.016234 -0.004884 0.003968 0.000000 -0.009111 0.000000
# 2 -0.004884 0.019031 0.000794 0.000000 0.007849 0.000000
# 3 0.003968 0.000794 0.022250 0.000000 -0.005895 0.000000
# 4 0.000000 0.000000 0.000000 0.041619 0.000000 0.009545
# 5 -0.009111 0.007849 -0.005895 0.000000 0.035814 0.000000
# 6 0.000000 0.000000 0.000000 0.009545 0.000000 0.037224
#
#
# Mechanical properties :
#
#
# Convention : Reuss Voigt Hill
#
# Bulk Modulus (GPa) = 17.46043 19.86927 18.66485
# Shear Modulus (GPa) = 26.10862 30.55933 28.33397
#
# Velocity S-wave (km/s) = 3.41810 3.69798 3.56079
# Velocity P-wave (km/s) = 4.83646 5.20815 5.02574
#
# Compressibility (1/GPa) = 0.05727236
#
# Stress axis : x y z
#
# Youngs Moduli (GPa) = 61.59810 52.54464 44.94293
#
# Poissons Ratio (x) = 0.25665 -0.17834
# Poissons Ratio (y) = 0.30087 -0.03571
# Poissons Ratio (z) = -0.24443 -0.04174
#
# Static dielectric constant tensor:
#      x y z
#    x 1.858440 0.000000 0.033770 
#    y 0.000000 1.902150 0.000000 
#    z 0.033770 0.000000 1.893830 
# 
# From -- ./inp_files/307252.got.cif
#   From: 2010.05.17/outbox.cif.g08.bks.cpg/sg15_154_cif.got.tgz:307252.got - 2010.06.03 18:47:42.
