data_PCOD9280340
_publ_section_title
;
Structure prediction by ZEFSAII (Michael W. Deem and Ramdas Pophale) SiO2 
 PCOD9280340
Probable space group: C 2/C
;
_chemical_formula_sum "Si O2"
_cell_formula_units_Z 48
_cell_length_a 26.592420
_cell_length_b 9.577026
_cell_length_c 8.547764
_cell_angle_alpha 90.000000
_cell_angle_beta 97.584578
_cell_angle_gamma 90.000000
_cell_volume 2157.867303
_symmetry_space_group_name_H-M "C 2/C"
_symmetry_group_IT_number 15
_symmetry_cell_setting 'monoclinic'
loop_
_space_group_symop_operation_xyz
x,y,z
-x,y,1/2-z
-x,-y,-z
x,-y,1/2+z
1/2+x,1/2+y,z
1/2-x,1/2+y,1/2-z
1/2-x,1/2-y,-z
1/2+x,1/2-y,1/2+z
loop_
_atom_site_type_symbol
_atom_site_label
_atom_site_fract_x
_atom_site_fract_y
_atom_site_fract_z
Si Si1 0.200733 0.918118 0.576913
Si Si2 0.092581 0.698619 0.934674
Si Si3 0.369994 0.491623 0.696383
Si Si4 0.635327 0.047964 0.260464
Si Si5 0.970617 0.879719 0.394347
Si Si6 0.205423 0.392592 0.064874
O O1 0.180236 0.996780 0.717788
O O2 0.219372 0.762801 0.623335
O O3 0.248190 0.972918 0.497756
O O4 0.148259 0.918405 0.457579
O O5 0.118694 0.833836 0.861733
O O6 0.096662 0.568942 0.815436
O O7 0.116735 0.644600 0.109832
O O8 0.040174 0.760413 0.981268
O O9 0.418202 0.554207 0.805791
O O10 0.659808 0.120817 0.420547
O O11 0.682358 0.968569 0.202274
O O12 0.000000 0.832691 0.250000
O O13 0.000000 0.000000 0.500000
#
# Coordination Sequence:
#
# PCOD9280340 Si02
#       6
#     8   8   8   8   8   8
#     4  11  22  36  59  96 131 168 219 265 321 370
#     4  11  23  43  68  93 128 178 213 269 323 395
#     4  12  22  40  65  96 127 167 215 273 334 385
#     4  10  22  42  62  88 132 183 219 247 319 384
#     4  12  24  44  72 101 127 154 213 285 344 393
#     4  10  21  37  58  90 135 175 216 262 299 385
#
# _framework density 22.244184000000001
#
# number of rings (size 3 to 8) (size 9 to 14) (size 15 to 20)
#    0.000    1.000    5.000    2.000    0.000    0.000 
#    0.000    3.333    0.000    0.000    0.000    0.000 
#    0.000    0.000    0.000    0.000    0.000    0.000 
#
# Total GULP energy -133726.177076 kJ/mol
# GULP energy per Si atom -5571.924045 kJ/mol
# Density = 2.219356 g / cm^3
# Si number density = 22.244184 Si / 1000 Ang^3
#
#
#
# Elastic Constant Matrix: (Units=GPa)
#
#
# Indices 1 2 3 4 5 6 
#
# 1 66.0303 15.3085 17.9853 0.0000 -25.9512 0.0000
# 2 15.3085 57.2874 15.5974 0.0000 -4.4024 0.0000
# 3 17.9853 15.5974 78.6898 0.0000 -9.9495 0.0000
# 4 0.0000 0.0000 0.0000 22.9572 0.0000 5.6996
# 5 -25.9512 -4.4024 -9.9495 0.0000 55.9893 0.0000
# 6 0.0000 0.0000 0.0000 5.6996 0.0000 7.0274
#
#
#
# Elastic Compliance Matrix: (Units=1/GPa)
#
#
# Indices 1 2 3 4 5 6 
#
# 1 0.020176 -0.003989 -0.002740 0.000000 0.008551 0.000000
# 2 -0.003989 0.019277 -0.003019 0.000000 -0.000869 0.000000
# 3 -0.002740 -0.003019 0.014058 0.000000 0.000991 0.000000
# 4 0.000000 0.000000 0.000000 0.054542 0.000000 -0.044237
# 5 0.008551 -0.000869 0.000991 0.000000 0.021932 0.000000
# 6 0.000000 0.000000 0.000000 -0.044237 0.000000 0.178179
#
#
# Mechanical properties :
#
#
# Convention : Reuss Voigt Hill
#
# Bulk Modulus (GPa) = 29.39762 33.31001 31.35381
# Shear Modulus (GPa) = 14.74935 27.40253 21.07594
#
# Velocity S-wave (km/s) = 2.57780 3.51365 3.08146
# Velocity P-wave (km/s) = 4.70156 5.60965 5.17556
#
# Compressibility (1/GPa) = 0.03401635
#
# Stress axis : x y z
#
# Youngs Moduli (GPa) = 49.56300 51.87553 71.13354
#
# Poissons Ratio (x) = 0.20691 0.19488
# Poissons Ratio (y) = 0.19768 0.21477
# Poissons Ratio (z) = 0.13579 0.15663
#
# Static dielectric constant tensor:
#      x y z
#    x 1.853280 0.000000 -0.019940 
#    y 0.000000 1.856500 0.000000 
#    z -0.019940 0.000000 1.858730 
# 
# From -- ./inp_files/68586.got.cif
#   From: 2010.05.17/outbox.cif.g08.bks.cpg/sg15_35_cif.got.tgz:68586.got - 2010.06.03 18:47:42.
