data_PCOD9280186
_publ_section_title
;
Structure prediction by ZEFSAII (Michael W. Deem and Ramdas Pophale) SiO2 
 PCOD9280186
Probable space group: C 2/C
;
_chemical_formula_sum "Si O2"
_cell_formula_units_Z 52
_cell_length_a 18.071951
_cell_length_b 30.300331
_cell_length_c 5.174193
_cell_angle_alpha 90.000000
_cell_angle_beta 92.464848
_cell_angle_gamma 90.000000
_cell_volume 2830.694752
_symmetry_space_group_name_H-M "C 2/C"
_symmetry_group_IT_number 15
_symmetry_cell_setting 'monoclinic'
loop_
_space_group_symop_operation_xyz
x,y,z
-x,y,1/2-z
-x,-y,-z
x,-y,1/2+z
1/2+x,1/2+y,z
1/2-x,1/2+y,1/2-z
1/2-x,1/2-y,-z
1/2+x,1/2-y,1/2+z
loop_
_atom_site_type_symbol
_atom_site_label
_atom_site_fract_x
_atom_site_fract_y
_atom_site_fract_z
Si Si1 0.416605 0.878706 0.970771
Si Si2 0.349775 0.984869 0.208412
Si Si3 0.000000 0.701387 0.250000
Si Si4 0.338706 0.112540 0.942758
Si Si5 0.243877 0.191303 0.738444
Si Si6 0.837003 0.779234 0.771223
Si Si7 0.500000 0.041098 0.250000
Si Si8 0.500000 0.259975 0.750000
O O1 0.440235 0.832949 0.846379
O O2 0.351675 0.889678 0.750823
O O3 0.468613 0.922357 0.948546
O O4 0.405070 0.868627 0.270348
O O5 0.341720 0.936524 0.325179
O O6 0.314083 0.014671 0.423201
O O7 0.430724 0.009379 0.165818
O O8 0.016934 0.731450 0.497193
O O9 0.273091 0.144163 0.841099
O O10 0.211630 0.193845 0.445329
O O11 0.309624 0.228081 0.749001
O O12 0.183699 0.206960 0.940922
O O13 0.922309 0.784937 0.705707
#
# Coordination Sequence:
#
# PCOD9280186 Si02
#       8
#     8   8   4   8   8   8   4   4
#     4  11  23  31  50  71 102 146 186 231 260 293
#     4  12  23  35  49  69  99 143 188 234 258 305
#     4  11  22  32  48  78 111 134 170 231 268 308
#     4  12  22  36  51  71  97 139 191 228 254 308
#     4  10  21  37  56  76 104 143 179 209 277 327
#     4  10  21  37  58  78 104 138 170 222 272 340
#     4  11  22  34  47  68 104 142 194 214 270 303
#     4  12  22  38  57  84 111 134 178 233 282 319
#
# _framework density 18.370048000000001
#
# number of rings (size 3 to 8) (size 9 to 14) (size 15 to 20)
#    0.000    0.923    3.077    5.077    0.000    4.308 
#    0.000    0.769    0.000    0.000    0.000    0.000 
#    0.000    0.000    0.000   13.846    0.000    0.000 
#
# Total GULP energy -144772.489355 kJ/mol
# GULP energy per Si atom -5568.172668 kJ/mol
# Density = 1.832824 g / cm^3
# Si number density = 18.370048 Si / 1000 Ang^3
#
#
#
# Elastic Constant Matrix: (Units=GPa)
#
#
# Indices 1 2 3 4 5 6 
#
# 1 55.8983 16.4486 -2.5736 0.0000 -4.1736 0.0000
# 2 16.4486 68.9804 6.2901 0.0000 11.1972 0.0000
# 3 -2.5736 6.2901 83.7299 0.0000 8.7456 0.0000
# 4 0.0000 0.0000 0.0000 14.6244 0.0000 1.0250
# 5 -4.1736 11.1972 8.7456 0.0000 15.6921 0.0000
# 6 0.0000 0.0000 0.0000 1.0250 0.0000 17.0275
#
#
#
# Elastic Compliance Matrix: (Units=1/GPa)
#
#
# Indices 1 2 3 4 5 6 
#
# 1 0.020576 -0.006554 0.000069 0.000000 0.010111 0.000000
# 2 -0.006554 0.018484 -0.000032 0.000000 -0.014914 0.000000
# 3 0.000069 -0.000032 0.012682 0.000000 -0.007027 0.000000
# 4 0.000000 0.000000 0.000000 0.068669 0.000000 -0.004133
# 5 0.010111 -0.014914 -0.007027 0.000000 0.080974 0.000000
# 6 0.000000 0.000000 0.000000 -0.004133 0.000000 0.058977
#
#
# Mechanical properties :
#
#
# Convention : Reuss Voigt Hill
#
# Bulk Modulus (GPa) = 25.83544 27.65986 26.74765
# Shear Modulus (GPa) = 17.46429 22.03169 19.74799
#
# Velocity S-wave (km/s) = 3.08668 3.46689 3.28229
# Velocity P-wave (km/s) = 5.17667 5.57812 5.38114
#
# Compressibility (1/GPa) = 0.03870652
#
# Stress axis : x y z
#
# Youngs Moduli (GPa) = 48.59967 54.10216 78.85429
#
# Poissons Ratio (x) = 0.35458 -0.00542
# Poissons Ratio (y) = 0.31852 0.00254
# Poissons Ratio (z) = -0.00334 0.00174
#
# Static dielectric constant tensor:
#      x y z
#    x 1.698580 0.000000 0.002170 
#    y 0.000000 1.679090 0.000000 
#    z 0.002170 0.000000 1.836710 
# 
# From -- ./inp_files/11293.got.cif
#   From: 2010.05.17/outbox.cif.g08.bks.cpg/sg15_6_cif.got.tgz:11293.got - 2010.06.03 18:47:42.
