data_PCOD9280736
_publ_section_title
;
Structure prediction by ZEFSAII (Michael W. Deem and Ramdas Pophale) SiO2 
 PCOD9280736
Probable space group: C 2/C
;
_chemical_formula_sum "Si O2"
_cell_formula_units_Z 60
_cell_length_a 14.981688
_cell_length_b 12.591063
_cell_length_c 16.354701
_cell_angle_alpha 90.000000
_cell_angle_beta 97.057912
_cell_angle_gamma 90.000000
_cell_volume 3061.697930
_symmetry_space_group_name_H-M "C 2/C"
_symmetry_group_IT_number 15
_symmetry_cell_setting 'monoclinic'
loop_
_space_group_symop_operation_xyz
x,y,z
-x,y,1/2-z
-x,-y,-z
x,-y,1/2+z
1/2+x,1/2+y,z
1/2-x,1/2+y,1/2-z
1/2-x,1/2-y,-z
1/2+x,1/2-y,1/2+z
loop_
_atom_site_type_symbol
_atom_site_label
_atom_site_fract_x
_atom_site_fract_y
_atom_site_fract_z
Si Si1 0.864220 0.445210 0.510380
Si Si2 0.397900 0.458852 0.984008
Si Si3 0.000000 0.751401 0.750000
Si Si4 0.759883 0.161949 0.366697
Si Si5 0.292122 0.404184 0.124465
Si Si6 0.329086 0.399977 0.714415
Si Si7 0.473551 0.154619 0.569326
Si Si8 0.668649 0.673392 0.472072
O O1 0.811699 0.386020 0.577429
O O2 0.791706 0.462478 0.430006
O O3 0.907775 0.553303 0.549317
O O4 0.940857 0.373772 0.476477
O O5 0.356781 0.380886 0.911178
O O6 0.500000 0.500000 0.000000
O O7 0.371204 0.403154 0.066200
O O8 0.340340 0.568465 0.974345
O O9 0.084193 0.831344 0.750353
O O10 0.006903 0.679840 0.832893
O O11 0.745192 0.287549 0.363917
O O12 0.753591 0.124095 0.272786
O O13 0.329563 0.472607 0.203983
O O14 0.318915 0.361161 0.620363
O O15 0.422679 0.259099 0.531843
O O16 0.750000 0.750000 0.500000
#
# Coordination Sequence:
#
# PCOD9280736 Si02
#       8
#     8   8   4   8   8   8   8   8
#     4  10  21  38  59  92 120 162 212 253 315 385
#     4  10  22  35  60  92 121 157 208 257 305 382
#     4  10  22  38  60  88 120 158 214 258 322 366
#     4  11  23  38  63  89 128 164 206 259 331 370
#     4  10  22  39  61  88 127 159 209 260 313 383
#     4  10  23  38  61  89 123 161 208 263 310 383
#     4  10  21  37  63  88 122 164 209 264 305 379
#     4  10  21  39  62  87 123 163 214 255 306 371
#
# _framework density 19.596968
#
# number of rings (size 3 to 8) (size 9 to 14) (size 15 to 20)
#    0.000    1.867    0.000    4.800    9.333    4.267 
#    0.000    0.000    0.000    0.800    0.000    0.000 
#    0.000    0.000    0.000    0.000    0.000    0.000 
#
# Total GULP energy -167232.556704 kJ/mol
# GULP energy per Si atom -5574.418557 kJ/mol
# Density = 1.955236 g / cm^3
# Si number density = 19.596968 Si / 1000 Ang^3
#
#
#
# Elastic Constant Matrix: (Units=GPa)
#
#
# Indices 1 2 3 4 5 6 
#
# 1 77.0671 32.4553 25.4462 0.0000 -14.7315 0.0000
# 2 32.4553 134.3847 51.7408 0.0000 -3.0544 0.0000
# 3 25.4462 51.7408 70.2374 0.0000 -18.1699 0.0000
# 4 0.0000 0.0000 0.0000 35.2351 0.0000 1.0534
# 5 -14.7315 -3.0544 -18.1699 0.0000 18.2686 0.0000
# 6 0.0000 0.0000 0.0000 1.0534 0.0000 32.6327
#
#
#
# Elastic Compliance Matrix: (Units=1/GPa)
#
#
# Indices 1 2 3 4 5 6 
#
# 1 0.017103 -0.003853 0.000058 0.000000 0.013205 0.000000
# 2 -0.003853 0.012180 -0.010574 0.000000 -0.011587 0.000000
# 3 0.000058 -0.010574 0.029030 0.000000 0.027152 0.000000
# 4 0.000000 0.000000 0.000000 0.028408 0.000000 -0.000917
# 5 0.013205 -0.011587 0.027152 0.000000 0.090455 0.000000
# 6 0.000000 0.000000 0.000000 -0.000917 0.000000 0.030674
#
#
# Mechanical properties :
#
#
# Convention : Reuss Voigt Hill
#
# Bulk Modulus (GPa) = 33.81220 55.66378 44.73799
# Shear Modulus (GPa) = 20.28851 28.69707 24.49279
#
# Velocity S-wave (km/s) = 3.22108 3.83085 3.53912
# Velocity P-wave (km/s) = 5.57898 6.93060 6.29119
#
# Compressibility (1/GPa) = 0.02957512
#
# Stress axis : x y z
#
# Youngs Moduli (GPa) = 58.46818 82.10441 34.44757
#
# Poissons Ratio (x) = 0.31633 -0.00200
# Poissons Ratio (y) = 0.22527 0.36424
# Poissons Ratio (z) = -0.00339 0.86816
#
# Static dielectric constant tensor:
#      x y z
#    x 1.748730 0.000000 -0.001370 
#    y 0.000000 1.747920 0.000000 
#    z -0.001370 0.000000 1.690820 
# 
# From -- ./inp_files/204038.got.cif
#   From: 2010.05.17/outbox.cif.g08.bks.cpg/sg15_103_cif.got.tgz:204038.got - 2010.06.03 18:47:42.
