data_PCOD9280123
_publ_section_title
;
Structure prediction by ZEFSAII (Michael W. Deem and Ramdas Pophale) SiO2 
 PCOD9280123
Probable space group: C 2/C
;
_chemical_formula_sum "Si O2"
_cell_formula_units_Z 44
_cell_length_a 9.210788
_cell_length_b 15.324075
_cell_length_c 15.653845
_cell_angle_alpha 90.000000
_cell_angle_beta 104.926256
_cell_angle_gamma 90.000000
_cell_volume 2134.937928
_symmetry_space_group_name_H-M "C 2/C"
_symmetry_group_IT_number 15
_symmetry_cell_setting 'monoclinic'
loop_
_space_group_symop_operation_xyz
x,y,z
-x,y,1/2-z
-x,-y,-z
x,-y,1/2+z
1/2+x,1/2+y,z
1/2-x,1/2+y,1/2-z
1/2-x,1/2-y,-z
1/2+x,1/2-y,1/2+z
loop_
_atom_site_type_symbol
_atom_site_label
_atom_site_fract_x
_atom_site_fract_y
_atom_site_fract_z
Si Si1 0.156083 0.891926 0.992512
Si Si2 0.130980 0.014978 0.141116
Si Si3 0.382428 0.788568 0.912194
Si Si4 0.000000 0.120804 0.750000
Si Si5 0.161811 0.182624 0.231408
Si Si6 0.317567 0.247291 0.103747
O O1 0.195840 0.966261 0.068078
O O2 0.102768 0.802977 0.033414
O O3 0.296629 0.859490 0.957428
O O4 0.021087 0.934557 0.915620
O O5 0.096286 0.941014 0.204069
O O6 0.217915 0.087816 0.208501
O O7 0.270777 0.773729 0.816051
O O8 0.539959 0.816288 0.893594
O O9 0.902500 0.176015 0.667755
O O10 0.176678 0.231484 0.144371
O O11 0.000000 0.177328 0.250000
O O12 0.250000 0.250000 0.000000
#
# Coordination Sequence:
#
# PCOD9280123 Si02
#       6
#     8   8   8   4   8   8
#     4  10  21  36  70  98 130 170 236 279 336 405
#     4  11  21  39  68 104 128 173 233 287 336 417
#     4  11  21  43  66 100 133 180 225 285 336 422
#     4  12  22  44  68  98 128 182 228 278 334 412
#     4  12  23  40  68 102 132 173 231 285 344 410
#     4  12  26  43  68  99 137 182 230 282 345 419
#
# _framework density 20.609497000000001
#
# number of rings (size 3 to 8) (size 9 to 14) (size 15 to 20)
#    0.000    0.727    6.364    1.091    5.091    0.000 
#    0.000    0.909    4.000    0.000    0.000    0.000 
#    0.000    0.000    0.000    0.000    0.000    0.000 
#
# Total GULP energy -122496.966743 kJ/mol
# GULP energy per Si atom -5568.043943 kJ/mol
# Density = 2.056259 g / cm^3
# Si number density = 20.609497 Si / 1000 Ang^3
#
#
#
# Elastic Constant Matrix: (Units=GPa)
#
#
# Indices 1 2 3 4 5 6 
#
# 1 68.9163 9.1874 37.2586 0.0000 -19.4919 0.0000
# 2 9.1874 68.5839 34.0655 0.0000 1.5119 0.0000
# 3 37.2586 34.0655 149.8268 0.0000 -12.7224 0.0000
# 4 0.0000 0.0000 0.0000 18.4935 0.0000 -20.8072
# 5 -19.4919 1.5119 -12.7224 0.0000 34.4367 0.0000
# 6 0.0000 0.0000 0.0000 -20.8072 0.0000 21.1162
#
#
#
# Elastic Compliance Matrix: (Units=1/GPa)
#
#
# Indices 1 2 3 4 5 6 
#
# 1 0.019409 -0.000925 -0.003799 0.000000 0.009623 0.000000
# 2 -0.000925 0.016640 -0.003778 0.000000 -0.002650 0.000000
# 3 -0.003799 -0.003778 0.008579 0.000000 0.001185 0.000000
# 4 0.000000 0.000000 0.000000 -0.497704 0.000000 -0.490420
# 5 0.009623 -0.002650 0.001185 0.000000 0.035040 0.000000
# 6 0.000000 0.000000 0.000000 -0.490420 0.000000 -0.435886
#
#
# Mechanical properties :
#
#
# Convention : Reuss Voigt Hill
#
# Bulk Modulus (GPa) = 36.20208 49.81666 43.00937
# Shear Modulus (GPa) = -6.04077 28.59697 11.27810
#
# Velocity S-wave (km/s) = -1.71389 3.72904 2.34183
# Velocity P-wave (km/s) = 3.69963 6.53951 5.31284
#
# Compressibility (1/GPa) = 0.02762272
#
# Stress axis : x y z
#
# Youngs Moduli (GPa) = 51.52132 60.09731 116.56625
#
# Poissons Ratio (x) = 0.05560 0.44286
# Poissons Ratio (y) = 0.04766 0.44042
# Poissons Ratio (z) = 0.19574 0.22706
#
# Static dielectric constant tensor:
#      x y z
#    x 1.655420 0.000000 -0.135130 
#    y 0.000000 1.814510 0.000000 
#    z -0.135130 0.000000 1.670420 
# 
# From -- ./inp_files/188993.got.cif
#   From: 2010.05.17/outbox.cif.g08.bks.cpg/sg15_95_cif.got.tgz:188993.got - 2010.06.03 18:47:42.
