data_PCOD9280592
_publ_section_title
;
Structure prediction by ZEFSAII (Michael W. Deem and Ramdas Pophale) SiO2 
 PCOD9280592
Probable space group: C 2/C
;
_chemical_formula_sum "Si O2"
_cell_formula_units_Z 48
_cell_length_a 14.722720
_cell_length_b 20.744076
_cell_length_c 8.681194
_cell_angle_alpha 90.000000
_cell_angle_beta 89.999962
_cell_angle_gamma 90.000000
_cell_volume 2651.316711
_symmetry_space_group_name_H-M "C 2/C"
_symmetry_group_IT_number 15
_symmetry_cell_setting 'monoclinic'
loop_
_space_group_symop_operation_xyz
x,y,z
-x,y,1/2-z
-x,-y,-z
x,-y,1/2+z
1/2+x,1/2+y,z
1/2-x,1/2+y,1/2-z
1/2-x,1/2-y,-z
1/2+x,1/2-y,1/2+z
loop_
_atom_site_type_symbol
_atom_site_label
_atom_site_fract_x
_atom_site_fract_y
_atom_site_fract_z
Si Si1 0.500000 0.726441 0.566584
Si Si2 0.500000 0.869829 0.065696
Si Si3 0.807044 0.189633 0.065824
Si Si4 0.304879 0.070635 0.934514
Si Si5 0.192956 0.189633 0.065824
Si Si6 0.804879 0.429365 0.065486
O O1 0.500000 0.719674 0.750000
O O2 0.500000 0.801965 0.521351
O O3 0.590815 0.695973 0.496026
O O4 0.409185 0.695973 0.496026
O O5 0.500000 0.856535 0.250000
O O6 0.591218 0.908936 0.028965
O O7 0.408782 0.908936 0.028965
O O8 0.806109 0.192774 0.250000
O O9 0.750000 0.250000 0.000000
O O10 0.759768 0.124543 0.007530
O O11 0.294840 0.071183 0.750000
O O12 0.240232 0.124543 0.007530
O O13 0.286336 0.000000 1.000000
O O14 0.250000 0.250000 0.000000
#
# Coordination Sequence:
#
# PCOD9280592 Si02
#       6
#     8   8   8   8   8   8
#     4  12  24  39  64  95 125 162 209 259 315 369
#     4  10  21  37  61  91 129 166 205 255 309 369
#     4  12  24  41  64  92 126 165 210 259 311 370
#     4  11  23  40  62  92 129 169 211 256 313 374
#     4  12  24  41  64  92 126 165 210 259 311 370
#     4  11  23  40  62  92 129 169 211 256 313 374
#
# _framework density 18.104212
#
# number of rings (size 3 to 8) (size 9 to 14) (size 15 to 20)
#    0.000    0.667    3.333    6.000    0.000    1.333 
#    0.000    0.833    0.000    0.000    0.000    0.000 
#    0.000    0.000    0.000    0.000    0.000    0.000 
#
# Total GULP energy -134313.685035 kJ/mol
# GULP energy per Si atom -5596.403543 kJ/mol
# Density = 1.806301 g / cm^3
# Si number density = 18.104212 Si / 1000 Ang^3
#
#
#
# Elastic Constant Matrix: (Units=GPa)
#
#
# Indices 1 2 3 4 5 6 
#
# 1 174.9829 101.3874 82.5642 0.0000 0.0001 0.0000
# 2 101.3874 182.3716 92.0905 0.0000 0.0001 0.0000
# 3 82.5642 92.0905 135.9647 0.0000 0.0002 0.0000
# 4 0.0000 0.0000 0.0000 37.9161 0.0000 0.0001
# 5 0.0001 0.0001 0.0002 0.0000 30.0332 0.0000
# 6 0.0000 0.0000 0.0000 0.0001 0.0000 -3.6458
#
#
#
# Elastic Compliance Matrix: (Units=1/GPa)
#
#
# Indices 1 2 3 4 5 6 
#
# 1 0.009292 -0.003521 -0.003258 0.000000 0.000000 0.000000
# 2 -0.003521 0.009667 -0.004410 0.000000 0.000000 0.000000
# 3 -0.003258 -0.004410 0.012320 0.000000 0.000000 0.000000
# 4 0.000000 0.000000 0.000000 0.026374 0.000000 0.000000
# 5 0.000000 0.000000 0.000000 0.000000 0.033297 0.000000
# 6 0.000000 0.000000 0.000000 0.000000 0.000000 -0.274287
#
#
# Mechanical properties :
#
#
# Convention : Reuss Voigt Hill
#
# Bulk Modulus (GPa) = 112.32871 116.15593 114.24232
# Shear Modulus (GPa) = -31.64714 27.34584 -2.15065
#
# Velocity S-wave (km/s) = -4.18551 3.89069 -1.09110
# Velocity P-wave (km/s) = 6.23076 9.19142 7.85190
#
# Compressibility (1/GPa) = 0.00890244
#
# Stress axis : x y z
#
# Youngs Moduli (GPa) = 107.61960 103.44026 81.16773
#
# Poissons Ratio (x) = 0.36417 0.26444
# Poissons Ratio (y) = 0.37889 0.35795
# Poissons Ratio (z) = 0.35062 0.45617
#
# Static dielectric constant tensor:
#      x y z
#    x 1.605720 0.000000 0.000000 
#    y 0.000000 1.580340 0.000000 
#    z 0.000000 0.000000 1.604520 
# 
# From -- ./inp_files/39638.got.cif
#   From: 2010.05.17/outbox.cif.g08.bks.cpg/sg15_20_cif.got.tgz:39638.got - 2010.06.03 18:47:42.
