data_PCOD9280737
_publ_section_title
;
Structure prediction by ZEFSAII (Michael W. Deem and Ramdas Pophale) SiO2 
 PCOD9280737
Probable space group: C 2/C
;
_chemical_formula_sum "Si O2"
_cell_formula_units_Z 44
_cell_length_a 12.436702
_cell_length_b 24.575538
_cell_length_c 11.458444
_cell_angle_alpha 90.000000
_cell_angle_beta 34.287671
_cell_angle_gamma 90.000000
_cell_volume 1972.926369
_symmetry_space_group_name_H-M "C 2/C"
_symmetry_group_IT_number 15
_symmetry_cell_setting 'monoclinic'
loop_
_space_group_symop_operation_xyz
x,y,z
-x,y,1/2-z
-x,-y,-z
x,-y,1/2+z
1/2+x,1/2+y,z
1/2-x,1/2+y,1/2-z
1/2-x,1/2-y,-z
1/2+x,1/2-y,1/2+z
loop_
_atom_site_type_symbol
_atom_site_label
_atom_site_fract_x
_atom_site_fract_y
_atom_site_fract_z
Si Si1 0.896214 0.422156 0.046818
Si Si2 0.000000 0.784584 0.250000
Si Si3 0.135165 0.306337 0.454593
Si Si4 0.119515 0.912463 0.501334
Si Si5 0.781471 0.533318 0.069914
Si Si6 0.798577 0.697245 0.878584
O O1 0.973119 0.363472 0.938368
O O2 0.707179 0.412180 0.294661
O O3 0.827270 0.469188 0.022311
O O4 0.057904 0.444027 0.988660
O O5 0.175057 0.818109 0.140667
O O6 0.952894 0.744669 0.399932
O O7 0.167394 0.291601 0.289812
O O8 0.267021 0.943590 0.453367
O O9 0.136802 0.849482 0.526326
O O10 0.920356 0.944326 0.694670
O O11 0.000000 0.675647 0.750000
O O12 0.750000 0.750000 0.000000
#
# Coordination Sequence:
#
# PCOD9280737 Si02
#       6
#     8   4   8   8   8   8
#     4  10  21  41  60  91 120 162 207 262 313 378
#     4  10  22  44  62  86 122 174 210 260 310 378
#     4  10  22  43  63  89 127 164 215 262 315 386
#     4  10  21  39  59  88 130 159 200 264 315 384
#     4  10  21  37  63  88 123 162 204 251 326 378
#     4  11  23  39  65  97 130 168 213 270 333 384
#
# _framework density 22.301897
#
# number of rings (size 3 to 8) (size 9 to 14) (size 15 to 20)
#    0.000    1.818    0.000    4.364    2.545    1.455 
#   19.636    0.000    0.000    0.000    0.000    0.000 
#    0.000    0.000    0.000    0.000    0.000    0.000 
#
# Total GULP energy -122716.487272 kJ/mol
# GULP energy per Si atom -5578.022149 kJ/mol
# Density = 2.225114 g / cm^3
# Si number density = 22.301897 Si / 1000 Ang^3
#
#
#
# Elastic Constant Matrix: (Units=GPa)
#
#
# Indices 1 2 3 4 5 6 
#
# 1 54.2523 45.2183 23.0666 0.0000 11.7509 0.0002
# 2 45.2183 108.8500 0.9590 0.0000 15.6531 0.0000
# 3 23.0666 0.9590 46.2627 0.0000 2.5016 0.0001
# 4 0.0000 0.0000 0.0000 15.1653 0.0000 2.7840
# 5 11.7509 15.6531 2.5016 0.0000 40.6819 0.0000
# 6 0.0002 0.0000 0.0001 2.7840 0.0000 -37.5686
#
#
#
# Elastic Compliance Matrix: (Units=1/GPa)
#
#
# Indices 1 2 3 4 5 6 
#
# 1 0.041803 -0.016545 -0.020258 0.000000 -0.004463 0.000000
# 2 -0.016545 0.016274 0.008019 0.000000 -0.001976 0.000000
# 3 -0.020258 0.008019 0.031505 0.000000 0.000829 0.000000
# 4 0.000000 0.000000 0.000000 0.065055 0.000000 0.004821
# 5 -0.004463 -0.001976 0.000829 0.000000 0.026579 0.000000
# 6 0.000000 0.000000 0.000000 0.004821 0.000000 -0.026261
#
#
# Mechanical properties :
#
#
# Convention : Reuss Voigt Hill
#
# Bulk Modulus (GPa) = 31.23820 38.65032 34.94426
# Shear Modulus (GPa) = 22.40187 12.99712 17.69949
#
# Velocity S-wave (km/s) = 3.17280 2.41670 2.82020
# Velocity P-wave (km/s) = 5.24019 5.01552 5.12908
#
# Compressibility (1/GPa) = 0.03201209
#
# Stress axis : x y z
#
# Youngs Moduli (GPa) = 23.92195 61.44902 31.74054
#
# Poissons Ratio (x) = 1.01670 0.64301
# Poissons Ratio (y) = 0.39580 -0.25453
# Poissons Ratio (z) = 0.48462 -0.49276
#
# Static dielectric constant tensor:
#      x y z
#    x 1.797090 0.000000 -0.006590 
#    y 0.000000 1.857210 0.000000 
#    z -0.006590 0.000000 1.902150 
# 
# From -- ./inp_files/91139.got.cif
#   From: 2010.05.17/outbox.cif.g08.bks.cpg/sg15_46_cif.got.tgz:91139.got - 2010.06.03 18:47:42.
