data_PCOD9280134
_publ_section_title
;
Structure prediction by ZEFSAII (Michael W. Deem and Ramdas Pophale) SiO2 
 PCOD9280134
Probable space group: C 2/C
;
_chemical_formula_sum "Si O2"
_cell_formula_units_Z 56
_cell_length_a 11.574090
_cell_length_b 25.950506
_cell_length_c 10.992869
_cell_angle_alpha 90.000000
_cell_angle_beta 54.423586
_cell_angle_gamma 90.000000
_cell_volume 2685.443646
_symmetry_space_group_name_H-M "C 2/C"
_symmetry_group_IT_number 15
_symmetry_cell_setting 'monoclinic'
loop_
_space_group_symop_operation_xyz
x,y,z
-x,y,1/2-z
-x,-y,-z
x,-y,1/2+z
1/2+x,1/2+y,z
1/2-x,1/2+y,1/2-z
1/2-x,1/2-y,-z
1/2+x,1/2-y,1/2+z
loop_
_atom_site_type_symbol
_atom_site_label
_atom_site_fract_x
_atom_site_fract_y
_atom_site_fract_z
Si Si1 0.217179 0.610611 0.454536
Si Si2 0.269830 0.703495 0.826161
Si Si3 0.076493 0.828973 0.506866
Si Si4 0.728916 0.317464 0.895962
Si Si5 0.900551 0.465347 0.643887
Si Si6 0.000000 0.545731 0.750000
Si Si7 0.458523 0.790524 0.417704
Si Si8 0.000000 0.386113 0.750000
O O1 0.353171 0.627783 0.450662
O O2 0.225225 0.567414 0.342429
O O3 0.092277 0.583233 0.609297
O O4 0.153347 0.667425 0.466416
O O5 0.346847 0.672547 0.672034
O O6 0.291461 0.764761 0.802717
O O7 0.100241 0.700063 0.910163
O O8 0.315490 0.691020 0.935502
O O9 0.091041 0.769195 0.543370
O O10 0.908399 0.835692 0.592985
O O11 0.857530 0.355646 0.823557
O O12 0.000000 0.500000 0.500000
O O13 0.881680 0.506576 0.764271
O O14 0.005600 0.421612 0.628929
O O15 0.500000 0.799409 0.250000
#
# Coordination Sequence:
#
# PCOD9280134 Si02
#       8
#     8   8   8   8   8   4   8   4
#     4  11  19  34  60  83 120 157 192 251 311 354
#     4  10  21  37  52  79 125 164 208 245 281 351
#     4  11  23  36  56  87 131 165 202 247 298 378
#     4  10  24  35  57  84 116 166 206 247 295 363
#     4   9  21  37  63  88 111 145 205 266 303 361
#     4   9  18  38  58  92 110 150 212 256 305 352
#     4  11  21  33  53  90 120 165 201 237 300 372
#     4  11  22  40  64  84 116 154 208 254 311 364
#
# _framework density 20.853165000000001
#
# number of rings (size 3 to 8) (size 9 to 14) (size 15 to 20)
#    0.000    1.714    2.143    1.714    8.000    2.286 
#    0.000    0.000    0.000    9.429    0.000    0.000 
#    0.000    0.000    0.000    0.000    0.000    0.000 
#
# Total GULP energy -156076.913605 kJ/mol
# GULP energy per Si atom -5574.175486 kJ/mol
# Density = 2.080570 g / cm^3
# Si number density = 20.853165 Si / 1000 Ang^3
#
#
#
# Elastic Constant Matrix: (Units=GPa)
#
#
# Indices 1 2 3 4 5 6 
#
# 1 129.4881 78.0601 11.2380 0.0000 -1.2842 0.0000
# 2 78.0601 111.9794 27.1617 0.0000 -5.8796 0.0000
# 3 11.2380 27.1617 34.4858 0.0000 4.1103 0.0000
# 4 0.0000 0.0000 0.0000 14.7322 0.0000 -1.3990
# 5 -1.2842 -5.8796 4.1103 0.0000 25.3454 0.0000
# 6 0.0000 0.0000 0.0000 -1.3990 0.0000 28.9247
#
#
#
# Elastic Compliance Matrix: (Units=1/GPa)
#
#
# Indices 1 2 3 4 5 6 
#
# 1 0.013858 -0.010840 0.004322 0.000000 -0.002513 0.000000
# 2 -0.010840 0.019942 -0.012910 0.000000 0.006171 0.000000
# 3 0.004322 -0.012910 0.038839 0.000000 -0.009074 0.000000
# 4 0.000000 0.000000 0.000000 0.068192 0.000000 0.003298
# 5 -0.002513 0.006171 -0.009074 0.000000 0.042231 0.000000
# 6 0.000000 0.000000 0.000000 0.003298 0.000000 0.034732
#
#
# Mechanical properties :
#
#
# Convention : Reuss Voigt Hill
#
# Bulk Modulus (GPa) = 29.60164 56.54142 43.07153
# Shear Modulus (GPa) = 18.66293 24.43335 21.54814
#
# Velocity S-wave (km/s) = 2.99485 3.42670 3.21803
# Velocity P-wave (km/s) = 5.11712 6.54441 5.87428
#
# Compressibility (1/GPa) = 0.03378192
#
# Stress axis : x y z
#
# Youngs Moduli (GPa) = 72.16214 50.14448 25.74751
#
# Poissons Ratio (x) = 0.54358 -0.11128
# Poissons Ratio (y) = 0.78226 0.33240
# Poissons Ratio (z) = -0.31187 0.64736
#
# Static dielectric constant tensor:
#      x y z
#    x 1.824420 0.000000 0.054400 
#    y 0.000000 1.753330 0.000000 
#    z 0.054400 0.000000 1.824250 
# 
# From -- ./inp_files/92038.got.cif
#   From: 2010.05.17/outbox.cif.g08.bks.cpg/sg15_47_cif.got.tgz:92038.got - 2010.06.03 18:47:42.
