data_PCOD9280203
_publ_section_title
;
Structure prediction by ZEFSAII (Michael W. Deem and Ramdas Pophale) SiO2 
 PCOD9280203
Probable space group: C 2/C
;
_chemical_formula_sum "Si O2"
_cell_formula_units_Z 48
_cell_length_a 8.697527
_cell_length_b 29.230999
_cell_length_c 9.962020
_cell_angle_alpha 90.000000
_cell_angle_beta 89.919870
_cell_angle_gamma 90.000000
_cell_volume 2532.715617
_symmetry_space_group_name_H-M "C 2/C"
_symmetry_group_IT_number 15
_symmetry_cell_setting 'monoclinic'
loop_
_space_group_symop_operation_xyz
x,y,z
-x,y,1/2-z
-x,-y,-z
x,-y,1/2+z
1/2+x,1/2+y,z
1/2-x,1/2+y,1/2-z
1/2-x,1/2-y,-z
1/2+x,1/2-y,1/2+z
loop_
_atom_site_type_symbol
_atom_site_label
_atom_site_fract_x
_atom_site_fract_y
_atom_site_fract_z
Si Si1 0.856735 0.367159 0.158074
Si Si2 0.853656 0.216636 0.842678
Si Si3 0.635980 0.884546 0.644133
Si Si4 0.355278 0.303217 0.653985
Si Si5 0.330788 0.988357 0.944100
Si Si6 0.823384 0.042074 0.791974
O O1 0.780836 0.319005 0.192900
O O2 0.728583 0.406331 0.175027
O O3 0.000000 0.378286 0.250000
O O4 0.910699 0.367243 0.003957
O O5 0.782332 0.266895 0.824519
O O6 0.000000 0.210281 0.750000
O O7 0.896399 0.205261 0.997358
O O8 0.500000 0.878041 0.750000
O O9 0.784657 0.853711 0.677083
O O10 0.668712 0.938383 0.625553
O O11 0.500000 0.295226 0.750000
O O12 0.277072 0.023902 0.832342
O O13 0.219128 0.986027 0.073443
O O14 0.500000 0.000000 0.000000
O O15 0.000000 0.038794 0.750000
#
# Coordination Sequence:
#
# PCOD9280203 Si02
#       6
#     8   8   8   8   8   8
#     4  10  21  37  58  83 112 148 190 234 285 344
#     4  10  21  38  59  84 115 148 189 238 283 340
#     4  10  21  37  56  82 112 145 188 234 280 338
#     4  10  22  38  57  84 116 149 187 233 287 343
#     4  11  22  39  60  83 114 154 196 238 290 350
#     4  11  22  37  57  84 116 149 190 241 293 345
#
# _framework density 18.951989999999999
#
# number of rings (size 3 to 8) (size 9 to 14) (size 15 to 20)
#    0.000    1.667    0.000    5.500    0.000    2.667 
#    0.000    6.667    0.000    0.000    0.000    0.000 
#    0.000    0.000    0.000    0.000    0.000    0.000 
#
# Total GULP energy -134044.625156 kJ/mol
# GULP energy per Si atom -5585.192715 kJ/mol
# Density = 1.890885 g / cm^3
# Si number density = 18.951990 Si / 1000 Ang^3
#
#
#
# Elastic Constant Matrix: (Units=GPa)
#
#
# Indices 1 2 3 4 5 6 
#
# 1 101.5814 21.8008 67.7977 0.0000 -15.7198 0.0000
# 2 21.8008 84.2510 20.0470 0.0000 -4.5894 0.0000
# 3 67.7977 20.0470 97.3469 0.0000 -22.2820 0.0000
# 4 0.0000 0.0000 0.0000 19.6715 0.0000 2.4694
# 5 -15.7198 -4.5894 -22.2820 0.0000 40.0377 0.0000
# 6 0.0000 0.0000 0.0000 2.4694 0.0000 12.0049
#
#
#
# Elastic Compliance Matrix: (Units=1/GPa)
#
#
# Indices 1 2 3 4 5 6 
#
# 1 0.018658 -0.001825 -0.012594 0.000000 0.000108 0.000000
# 2 -0.001825 0.012659 -0.001338 0.000000 -0.000010 0.000000
# 3 -0.012594 -0.001338 0.020802 0.000000 0.006479 0.000000
# 4 0.000000 0.000000 0.000000 0.052183 0.000000 -0.010734
# 5 0.000108 -0.000010 0.006479 0.000000 0.028623 0.000000
# 6 0.000000 0.000000 0.000000 -0.010734 0.000000 0.085507
#
#
# Mechanical properties :
#
#
# Convention : Reuss Voigt Hill
#
# Bulk Modulus (GPa) = 48.53222 55.83001 52.18112
# Shear Modulus (GPa) = 19.46915 25.91175 22.69045
#
# Velocity S-wave (km/s) = 3.20861 3.70162 3.46390
# Velocity P-wave (km/s) = 6.27618 6.91317 6.60236
#
# Compressibility (1/GPa) = 0.02060487
#
# Stress axis : x y z
#
# Youngs Moduli (GPa) = 53.59532 78.99232 48.07163
#
# Poissons Ratio (x) = 0.14420 0.60542
# Poissons Ratio (y) = 0.09784 0.06432
# Poissons Ratio (z) = 0.67499 0.10569
#
# Static dielectric constant tensor:
#      x y z
#    x 1.621130 0.000000 0.003030 
#    y 0.000000 1.671580 0.000000 
#    z 0.003030 0.000000 1.652600 
# 
# From -- ./inp_files/26061.got.cif
#   From: 2010.05.17/outbox.cif.g08.bks.cpg/sg15_14_cif.got.tgz:26061.got - 2010.06.03 18:47:42.
