data_PCOD9280385
_publ_section_title
;
Structure prediction by ZEFSAII (Michael W. Deem and Ramdas Pophale) SiO2 
 PCOD9280385
Probable space group: C 2/C
;
_chemical_formula_sum "Si O2"
_cell_formula_units_Z 64
_cell_length_a 19.431508
_cell_length_b 29.418630
_cell_length_c 10.115614
_cell_angle_alpha 90.000000
_cell_angle_beta 150.270270
_cell_angle_gamma 90.000000
_cell_volume 2867.632353
_symmetry_space_group_name_H-M "C 2/C"
_symmetry_group_IT_number 15
_symmetry_cell_setting 'monoclinic'
loop_
_space_group_symop_operation_xyz
x,y,z
-x,y,1/2-z
-x,-y,-z
x,-y,1/2+z
1/2+x,1/2+y,z
1/2-x,1/2+y,1/2-z
1/2-x,1/2-y,-z
1/2+x,1/2-y,1/2+z
loop_
_atom_site_type_symbol
_atom_site_label
_atom_site_fract_x
_atom_site_fract_y
_atom_site_fract_z
Si Si1 0.734838 0.544682 0.404432
Si Si2 0.628467 0.789686 0.142865
Si Si3 0.691981 0.798657 0.942799
Si Si4 0.367012 0.877104 0.973407
Si Si5 0.842837 0.013733 0.493640
Si Si6 0.270557 0.393975 0.002164
Si Si7 0.521379 0.393783 0.941292
Si Si8 0.664763 0.315196 0.778451
O O1 0.846583 0.581347 0.543019
O O2 0.748950 0.515235 0.558710
O O3 0.590296 0.572106 0.179375
O O4 0.717868 0.511687 0.252707
O O5 0.633814 0.735406 0.177699
O O6 0.725631 0.811909 0.416889
O O7 0.684530 0.801108 0.089912
O O8 0.466657 0.803187 0.873739
O O9 0.750000 0.750000 0.000000
O O10 0.781440 0.839348 0.030553
O O11 0.366981 0.894872 0.822538
O O12 0.236175 0.844687 0.782204
O O13 0.500000 0.851330 0.250000
O O14 0.849605 0.066497 0.552625
O O15 0.000000 0.996845 0.750000
O O16 0.326709 0.404324 0.244745
O O17 0.500000 0.396824 0.750000
O O18 0.467051 0.343645 0.891861
#
# Coordination Sequence:
#
# PCOD9280385 Si02
#       8
#     8   8   8   8   8   8   8   8
#     4  10  23  37  64  92 130 162 212 256 323 377
#     4  10  22  38  58  85 119 158 211 253 318 374
#     4  11  22  39  59  85 119 162 205 263 314 376
#     4  10  22  42  64  88 123 169 213 256 310 378
#     4  11  21  39  61  98 128 164 202 267 317 383
#     4  11  23  37  61  90 124 158 210 251 312 373
#     4  11  22  37  59  95 128 162 204 259 321 379
#     4  10  21  37  59  87 119 161 203 262 309 379
#
# _framework density 22.318062999999999
#
# number of rings (size 3 to 8) (size 9 to 14) (size 15 to 20)
#    0.000    1.500    1.250    3.750    1.750    1.000 
#    2.250    5.000    2.750    0.000    0.000    0.000 
#    0.000    0.000    0.000    0.000    0.000    0.000 
#
# Total GULP energy -178234.186041 kJ/mol
# GULP energy per Si atom -5569.818314 kJ/mol
# Density = 2.226727 g / cm^3
# Si number density = 22.318063 Si / 1000 Ang^3
#
#
#
# Elastic Constant Matrix: (Units=GPa)
#
#
# Indices 1 2 3 4 5 6 
#
# 1 70.4720 30.5269 38.1794 0.0000 -24.5852 0.0000
# 2 30.5269 103.4603 3.2592 0.0000 -0.3328 0.0000
# 3 38.1794 3.2592 120.6973 0.0000 -33.4864 0.0000
# 4 0.0000 0.0000 0.0000 190.4562 0.0000 -61.6412
# 5 -24.5852 -0.3328 -33.4864 0.0000 31.5825 0.0000
# 6 0.0000 0.0000 0.0000 -61.6412 0.0000 40.7598
#
#
#
# Elastic Compliance Matrix: (Units=1/GPa)
#
#
# Indices 1 2 3 4 5 6 
#
# 1 0.024397 -0.007047 -0.003228 0.000000 0.015495 0.000000
# 2 -0.007047 0.011711 0.000602 0.000000 -0.004724 0.000000
# 3 -0.003228 0.000602 0.012177 0.000000 0.010404 0.000000
# 4 0.000000 0.000000 0.000000 0.010284 0.000000 0.015553
# 5 0.015495 -0.004724 0.010404 0.000000 0.054706 0.000000
# 6 0.000000 0.000000 0.000000 0.015553 0.000000 0.048055
#
#
# Mechanical properties :
#
#
# Convention : Reuss Voigt Hill
#
# Bulk Modulus (GPa) = 34.55589 48.72896 41.64242
# Shear Modulus (GPa) = 26.27132 67.40399 46.83765
#
# Velocity S-wave (km/s) = 3.43466 5.50155 4.58606
# Velocity P-wave (km/s) = 5.58983 7.88907 6.83680
#
# Compressibility (1/GPa) = 0.02893863
#
# Stress axis : x y z
#
# Youngs Moduli (GPa) = 40.98826 85.39212 82.12488
#
# Poissons Ratio (x) = 0.60177 0.26512
# Poissons Ratio (y) = 0.28885 -0.04947
# Poissons Ratio (z) = 0.13232 -0.05144
#
# Static dielectric constant tensor:
#      x y z
#    x 1.829130 0.000000 -0.018850 
#    y 0.000000 1.825840 0.000000 
#    z -0.018850 0.000000 1.840680 
# 
# From -- ./inp_files/52867.got.cif
#   From: 2010.05.17/outbox.cif.g08.bks.cpg/sg15_27_cif.got.tgz:52867.got - 2010.06.03 18:47:42.
