data_PCOD9280055
_publ_section_title
;
Structure prediction by ZEFSAII (Michael W. Deem and Ramdas Pophale) SiO2 
 PCOD9280055
Probable space group: C 2/C
;
_chemical_formula_sum "Si O2"
_cell_formula_units_Z 48
_cell_length_a 13.936919
_cell_length_b 9.739891
_cell_length_c 16.558446
_cell_angle_alpha 90.000000
_cell_angle_beta 112.356636
_cell_angle_gamma 90.000000
_cell_volume 2078.759853
_symmetry_space_group_name_H-M "C 2/C"
_symmetry_group_IT_number 15
_symmetry_cell_setting 'monoclinic'
loop_
_space_group_symop_operation_xyz
x,y,z
-x,y,1/2-z
-x,-y,-z
x,-y,1/2+z
1/2+x,1/2+y,z
1/2-x,1/2+y,1/2-z
1/2-x,1/2-y,-z
1/2+x,1/2-y,1/2+z
loop_
_atom_site_type_symbol
_atom_site_label
_atom_site_fract_x
_atom_site_fract_y
_atom_site_fract_z
Si Si1 0.265898 0.845088 0.275269
Si Si2 0.647677 0.414083 0.755660
Si Si3 0.030902 0.429357 0.093683
Si Si4 0.563650 0.480565 0.388204
Si Si5 0.862650 0.779110 0.500275
Si Si6 0.433745 0.216820 0.343009
O O1 0.327213 0.744892 0.234766
O O2 0.353354 0.865197 0.371824
O O3 0.152808 0.772448 0.247551
O O4 0.235372 0.997662 0.238034
O O5 0.541846 0.446253 0.676084
O O6 0.643386 0.480839 0.842639
O O7 0.034072 0.558865 0.155613
O O8 0.945498 0.311990 0.077408
O O9 0.000000 0.500000 0.000000
O O10 0.605283 0.560915 0.479236
O O11 0.530610 0.321943 0.379826
O O12 0.750000 0.750000 0.500000
O O13 0.876843 0.735459 0.411870
#
# Coordination Sequence:
#
# PCOD9280055 Si02
#       6
#     8   8   8   8   8   8
#     4  11  19  39  65  92 123 162 216 265 326 385
#     4  10  21  36  64  92 121 168 209 269 325 378
#     4  10  22  39  63  93 132 166 212 267 324 381
#     4  10  21  39  60  87 130 165 210 263 321 387
#     4  11  22  39  64  92 125 171 214 262 319 389
#     4  10  22  40  63  93 126 169 212 264 325 381
#
# _framework density 23.090691
#
# number of rings (size 3 to 8) (size 9 to 14) (size 15 to 20)
#    0.000    1.667    3.333    1.500    2.333    0.000 
#    0.000    5.833    7.333    0.000    0.000    0.000 
#    0.000    0.000    0.000    0.000    0.000    0.000 
#
# Total GULP energy -133781.717304 kJ/mol
# GULP energy per Si atom -5574.238221 kJ/mol
# Density = 2.303814 g / cm^3
# Si number density = 23.090691 Si / 1000 Ang^3
#
#
#
# Elastic Constant Matrix: (Units=GPa)
#
#
# Indices 1 2 3 4 5 6 
#
# 1 83.5513 43.4455 25.9085 0.0000 12.6124 0.0000
# 2 43.4455 106.5592 17.7624 0.0000 10.9570 0.0000
# 3 25.9085 17.7624 62.1228 0.0000 19.1074 0.0000
# 4 0.0000 0.0000 0.0000 34.4567 0.0000 9.7876
# 5 12.6124 10.9570 19.1074 0.0000 40.6394 0.0000
# 6 0.0000 0.0000 0.0000 9.7876 0.0000 28.5860
#
#
#
# Elastic Compliance Matrix: (Units=1/GPa)
#
#
# Indices 1 2 3 4 5 6 
#
# 1 0.016740 -0.005874 -0.004900 0.000000 -0.001308 0.000000
# 2 -0.005874 0.012000 -0.000639 0.000000 -0.001112 0.000000
# 3 -0.004900 -0.000639 0.020812 0.000000 -0.008092 0.000000
# 4 0.000000 0.000000 0.000000 0.032149 0.000000 -0.011007
# 5 -0.001308 -0.001112 -0.008092 0.000000 0.029117 0.000000
# 6 0.000000 0.000000 0.000000 -0.011007 0.000000 0.038751
#
#
# Mechanical properties :
#
#
# Convention : Reuss Voigt Hill
#
# Bulk Modulus (GPa) = 37.41602 47.38511 42.40056
# Shear Modulus (GPa) = 27.57805 31.74423 29.66114
#
# Velocity S-wave (km/s) = 3.45967 3.71180 3.58795
# Velocity P-wave (km/s) = 5.67434 6.23986 5.96381
#
# Compressibility (1/GPa) = 0.02672652
#
# Stress axis : x y z
#
# Youngs Moduli (GPa) = 59.73812 83.33202 48.04827
#
# Poissons Ratio (x) = 0.48947 0.23542
# Poissons Ratio (y) = 0.35089 0.03073
# Poissons Ratio (z) = 0.29269 0.05329
#
# Static dielectric constant tensor:
#      x y z
#    x 1.935840 0.000000 -0.024360 
#    y 0.000000 1.932460 0.000000 
#    z -0.024360 0.000000 1.916820 
# 
# From -- ./inp_files/242581.got.cif
#   From: 2010.05.17/outbox.cif.g08.bks.cpg/sg15_122_cif.got.tgz:242581.got - 2010.06.03 18:47:42.
