data_PCOD9280597
_publ_section_title
;
Structure prediction by ZEFSAII (Michael W. Deem and Ramdas Pophale) SiO2 
 PCOD9280597
Probable space group: C 2/C
;
_chemical_formula_sum "Si O2"
_cell_formula_units_Z 56
_cell_length_a 8.661611
_cell_length_b 17.013821
_cell_length_c 18.567206
_cell_angle_alpha 90.000000
_cell_angle_beta 80.936153
_cell_angle_gamma 90.000000
_cell_volume 2702.029528
_symmetry_space_group_name_H-M "C 2/C"
_symmetry_group_IT_number 15
_symmetry_cell_setting 'monoclinic'
loop_
_space_group_symop_operation_xyz
x,y,z
-x,y,1/2-z
-x,-y,-z
x,-y,1/2+z
1/2+x,1/2+y,z
1/2-x,1/2+y,1/2-z
1/2-x,1/2-y,-z
1/2+x,1/2-y,1/2+z
loop_
_atom_site_type_symbol
_atom_site_label
_atom_site_fract_x
_atom_site_fract_y
_atom_site_fract_z
Si Si1 0.627620 0.681237 0.897640
Si Si2 0.381359 0.041557 0.095124
Si Si3 0.536525 0.479375 0.081734
Si Si4 0.579527 0.369763 0.846043
Si Si5 0.909627 0.755578 0.530152
Si Si6 0.554182 0.892522 0.066981
Si Si7 0.255097 0.823350 0.697792
O O1 0.504415 0.610510 0.896908
O O2 0.781423 0.638112 0.916337
O O3 0.674686 0.738906 0.828927
O O4 0.555177 0.736201 0.965291
O O5 0.359717 0.107613 0.156654
O O6 0.215306 0.002137 0.085692
O O7 0.495106 0.971208 0.109388
O O8 0.438368 0.083027 0.017616
O O9 0.436716 0.537252 0.140989
O O10 0.500000 0.500000 0.000000
O O11 0.598094 0.333557 0.922708
O O12 0.715106 0.340470 0.783414
O O13 0.413910 0.335953 0.828841
O O14 0.750000 0.750000 0.500000
O O15 0.937061 0.680828 0.579003
#
# Coordination Sequence:
#
# PCOD9280597 Si02
#       7
#     8   8   8   8   8   8   8
#     4  12  21  39  67  93 124 167 216 261 315 375
#     4  10  21  37  61  92 130 163 206 259 321 368
#     4  11  20  36  63  94 122 160 205 263 312 375
#     4  10  22  40  65  90 127 169 208 257 326 377
#     4  12  23  37  65  97 128 158 214 270 315 368
#     4  11  21  35  64  96 122 164 215 263 304 373
#     4  10  21  43  64  89 128 173 210 256 317 393
#
# _framework density 20.725162999999998
#
# number of rings (size 3 to 8) (size 9 to 14) (size 15 to 20)
#    0.000    1.143    5.714    2.143    0.000    0.000 
#    2.571    0.714    3.143    0.000    0.000    0.000 
#    0.000    0.000    0.000    0.000    0.000    0.000 
#
# Total GULP energy -156422.629048 kJ/mol
# GULP energy per Si atom -5586.522466 kJ/mol
# Density = 2.067799 g / cm^3
# Si number density = 20.725163 Si / 1000 Ang^3
#
#
#
# Elastic Constant Matrix: (Units=GPa)
#
#
# Indices 1 2 3 4 5 6 
#
# 1 45.5522 8.4305 -8.0196 0.0000 -1.0032 0.0000
# 2 8.4305 133.3596 17.9263 0.0000 -19.0581 0.0000
# 3 -8.0196 17.9263 64.3885 0.0000 -25.9205 0.0000
# 4 0.0000 0.0000 0.0000 26.6001 0.0000 -7.8138
# 5 -1.0032 -19.0581 -25.9205 0.0000 17.4595 0.0000
# 6 0.0000 0.0000 0.0000 -7.8138 0.0000 34.9643
#
#
#
# Elastic Compliance Matrix: (Units=1/GPa)
#
#
# Indices 1 2 3 4 5 6 
#
# 1 0.023872 -0.000777 0.008451 0.000000 0.013070 0.000000
# 2 -0.000777 0.009250 0.003416 0.000000 0.015124 0.000000
# 3 0.008451 0.003416 0.043069 0.000000 0.068156 0.000000
# 4 0.000000 0.000000 0.000000 0.040235 0.000000 0.008992
# 5 0.013070 0.015124 0.068156 0.000000 0.175720 0.000000
# 6 0.000000 0.000000 0.000000 0.008992 0.000000 0.030610
#
#
# Mechanical properties :
#
#
# Convention : Reuss Voigt Hill
#
# Bulk Modulus (GPa) = 10.16551 31.10832 20.63691
# Shear Modulus (GPa) = 14.99847 30.80232 22.90039
#
# Velocity S-wave (km/s) = 2.69306 3.85934 3.32769
# Velocity P-wave (km/s) = 3.81911 5.90778 4.97431
#
# Compressibility (1/GPa) = 0.09837186
#
# Stress axis : x y z
#
# Youngs Moduli (GPa) = 41.88938 108.11080 23.21840
#
# Poissons Ratio (x) = 0.08404 -0.19622
# Poissons Ratio (y) = 0.03256 -0.07932
# Poissons Ratio (z) = -0.35402 -0.36934
#
# Static dielectric constant tensor:
#      x y z
#    x 1.756910 0.000000 -0.007400 
#    y 0.000000 1.393140 0.000000 
#    z -0.007400 0.000000 1.745590 
# 
# From -- ./inp_files/190897.got.cif
#   From: 2010.05.17/outbox.cif.g08.bks.cpg/sg15_96_cif.got.tgz:190897.got - 2010.06.03 18:47:42.
