data_PCOD9280324
_publ_section_title
;
Structure prediction by ZEFSAII (Michael W. Deem and Ramdas Pophale) SiO2 
 PCOD9280324
Probable space group: C 2/C
;
_chemical_formula_sum "Si O2"
_cell_formula_units_Z 32
_cell_length_a 10.441084
_cell_length_b 25.798837
_cell_length_c 5.026158
_cell_angle_alpha 90.000000
_cell_angle_beta 67.694014
_cell_angle_gamma 90.000000
_cell_volume 1252.574106
_symmetry_space_group_name_H-M "C 2/C"
_symmetry_group_IT_number 15
_symmetry_cell_setting 'monoclinic'
loop_
_space_group_symop_operation_xyz
x,y,z
-x,y,1/2-z
-x,-y,-z
x,-y,1/2+z
1/2+x,1/2+y,z
1/2-x,1/2+y,1/2-z
1/2-x,1/2-y,-z
1/2+x,1/2-y,1/2+z
loop_
_atom_site_type_symbol
_atom_site_label
_atom_site_fract_x
_atom_site_fract_y
_atom_site_fract_z
Si Si1 0.147789 0.978080 0.535233
Si Si2 0.757348 0.617552 0.763218
Si Si3 0.500000 0.961288 0.250000
Si Si4 0.246899 0.185506 0.267365
Si Si5 0.500000 0.743547 0.750000
O O1 0.132131 0.921300 0.426102
O O2 0.000000 0.998039 0.750000
O O3 0.217551 0.016744 0.270457
O O4 0.878366 0.579590 0.769568
O O5 0.768392 0.637749 0.456359
O O6 0.744970 0.666392 0.967087
O O7 0.500000 0.000000 0.500000
O O8 0.382763 0.221504 0.197513
O O9 0.100695 0.210749 0.474405
#
# Coordination Sequence:
#
# PCOD9280324 Si02
#       5
#     8   8   4   8   4
#     4  10  21  37  58  87 128 166 204 254 310 372
#     4  12  24  41  67  99 127 174 219 272 314 401
#     4  12  24  41  68  98 142 180 218 265 324 382
#     4  11  26  43  72  93 138 164 229 273 340 402
#     4  10  26  49  66 100 126 180 208 289 350 394
#
# _framework density 25.547388999999999
#
# number of rings (size 3 to 8) (size 9 to 14) (size 15 to 20)
#    0.000    1.000    0.000    6.000    3.500    6.000 
#    0.000    0.000    0.000    0.000    0.000    0.000 
#    0.000    0.000    0.000    0.000    0.000    0.000 
#
# Total GULP energy -89374.809381 kJ/mol
# GULP energy per Si atom -5585.925586 kJ/mol
# Density = 2.548924 g / cm^3
# Si number density = 25.547389 Si / 1000 Ang^3
#
#
#
# Elastic Constant Matrix: (Units=GPa)
#
#
# Indices 1 2 3 4 5 6 
#
# 1 112.7426 34.7200 17.8883 0.0000 -37.9087 0.0000
# 2 34.7200 100.9841 14.5219 0.0000 -8.2051 0.0000
# 3 17.8883 14.5219 84.6823 0.0000 23.4042 0.0000
# 4 0.0000 0.0000 0.0000 46.7700 0.0000 -1.7981
# 5 -37.9087 -8.2051 23.4042 0.0000 39.8645 0.0000
# 6 0.0000 0.0000 0.0000 -1.7981 0.0000 43.6863
#
#
#
# Elastic Compliance Matrix: (Units=1/GPa)
#
#
# Indices 1 2 3 4 5 6 
#
# 1 0.019507 -0.003314 -0.010135 0.000000 0.023818 0.000000
# 2 -0.003314 0.011199 -0.001177 0.000000 -0.000155 0.000000
# 3 -0.010135 -0.001177 0.020152 0.000000 -0.021712 0.000000
# 4 0.000000 0.000000 0.000000 0.021415 0.000000 0.000881
# 5 0.023818 -0.000155 -0.021712 0.000000 0.060450 0.000000
# 6 0.000000 0.000000 0.000000 0.000881 0.000000 0.022927
#
#
# Mechanical properties :
#
#
# Convention : Reuss Voigt Hill
#
# Bulk Modulus (GPa) = 46.28630 48.07436 47.18033
# Shear Modulus (GPa) = 26.02744 41.48273 33.75509
#
# Velocity S-wave (km/s) = 3.19531 4.03396 3.63888
# Velocity P-wave (km/s) = 5.63653 6.36833 6.01358
#
# Compressibility (1/GPa) = 0.02160466
#
# Stress axis : x y z
#
# Youngs Moduli (GPa) = 51.26311 89.29603 49.62208
#
# Poissons Ratio (x) = 0.29594 0.50293
# Poissons Ratio (y) = 0.16989 0.05843
# Poissons Ratio (z) = 0.51956 0.10514
#
# Static dielectric constant tensor:
#      x y z
#    x 3.069940 0.000000 0.040320 
#    y 0.000000 1.976680 0.000000 
#    z 0.040320 0.000000 2.084200 
# 
# From -- ./inp_files/4233.got.cif
#   From: 2010.05.17/outbox.cif.g08.bks.cpg/sg15_3_cif.got.tgz:4233.got - 2010.06.03 18:47:42.
