data_PCOD9280321
_publ_section_title
;
Structure prediction by ZEFSAII (Michael W. Deem and Ramdas Pophale) SiO2 
 PCOD9280321
Probable space group: C 2/C
;
_chemical_formula_sum "Si O2"
_cell_formula_units_Z 40
_cell_length_a 12.731470
_cell_length_b 17.959881
_cell_length_c 8.792108
_cell_angle_alpha 90.000000
_cell_angle_beta 59.044412
_cell_angle_gamma 90.000000
_cell_volume 1724.021627
_symmetry_space_group_name_H-M "C 2/C"
_symmetry_group_IT_number 15
_symmetry_cell_setting 'monoclinic'
loop_
_space_group_symop_operation_xyz
x,y,z
-x,y,1/2-z
-x,-y,-z
x,-y,1/2+z
1/2+x,1/2+y,z
1/2-x,1/2+y,1/2-z
1/2-x,1/2-y,-z
1/2+x,1/2-y,1/2+z
loop_
_atom_site_type_symbol
_atom_site_label
_atom_site_fract_x
_atom_site_fract_y
_atom_site_fract_z
Si Si1 0.986406 0.417737 0.939347
Si Si2 0.352122 0.606570 0.359319
Si Si3 0.866384 0.975527 0.149202
Si Si4 0.295526 0.197240 0.223922
Si Si5 0.780125 0.149916 0.883600
O O1 0.086973 0.353964 0.899877
O O2 0.000000 0.429858 0.750000
O O3 0.000000 0.500000 0.000000
O O4 0.853579 0.380841 0.065222
O O5 0.500000 0.610087 0.250000
O O6 0.306683 0.549672 0.260667
O O7 0.311179 0.569028 0.547630
O O8 0.296442 0.684105 0.347105
O O9 0.867930 0.919137 0.288672
O O10 0.000000 0.000000 0.000000
O O11 0.231425 0.172666 0.431944
O O12 0.324569 0.282398 0.244263
#
# Coordination Sequence:
#
# PCOD9280321 Si02
#       5
#     8   8   8   8   8
#     4  10  22  40  63  90 120 163 213 255 309 379
#     4  10  21  37  59  89 124 163 206 253 309 373
#     4  10  21  37  58  87 123 161 202 251 307 369
#     4  10  22  41  64  90 125 164 207 261 317 376
#     4  10  22  41  65  92 124 163 209 262 320 377
#
# _framework density 23.201564999999999
#
# number of rings (size 3 to 8) (size 9 to 14) (size 15 to 20)
#    0.000    2.000    0.000    2.400    0.000   10.400 
#    0.000   12.000    0.000    0.000    0.000    0.000 
#    0.000    0.000    0.000    0.000    0.000    0.000 
#
# Total GULP energy -111708.709039 kJ/mol
# GULP energy per Si atom -5585.435452 kJ/mol
# Density = 2.314876 g / cm^3
# Si number density = 23.201565 Si / 1000 Ang^3
#
#
#
# Elastic Constant Matrix: (Units=GPa)
#
#
# Indices 1 2 3 4 5 6 
#
# 1 83.7161 24.9538 22.1104 0.0000 -5.0082 0.0000
# 2 24.9538 117.1219 11.5672 0.0000 -11.3301 0.0000
# 3 22.1104 11.5672 56.0843 0.0000 -15.9555 0.0000
# 4 0.0000 0.0000 0.0000 56.4324 0.0000 5.2252
# 5 -5.0082 -11.3301 -15.9555 0.0000 28.4443 0.0000
# 6 0.0000 0.0000 0.0000 5.2252 0.0000 19.9882
#
#
#
# Elastic Compliance Matrix: (Units=1/GPa)
#
#
# Indices 1 2 3 4 5 6 
#
# 1 0.014073 -0.002616 -0.005473 0.000000 -0.001634 0.000000
# 2 -0.002616 0.009412 0.000030 0.000000 0.003306 0.000000
# 3 -0.005473 0.000030 0.023454 0.000000 0.012205 0.000000
# 4 0.000000 0.000000 0.000000 0.018160 0.000000 -0.004747
# 5 -0.001634 0.003306 0.012205 0.000000 0.043031 0.000000
# 6 0.000000 0.000000 0.000000 -0.004747 0.000000 0.051271
#
#
# Mechanical properties :
#
#
# Convention : Reuss Voigt Hill
#
# Bulk Modulus (GPa) = 32.44521 41.57612 37.01066
# Shear Modulus (GPa) = 26.91181 34.19237 30.55209
#
# Velocity S-wave (km/s) = 3.40944 3.84306 3.63273
# Velocity P-wave (km/s) = 5.43263 6.13600 5.79500
#
# Compressibility (1/GPa) = 0.03082119
#
# Stress axis : x y z
#
# Youngs Moduli (GPa) = 71.05972 106.24491 42.63679
#
# Poissons Ratio (x) = 0.27792 0.23337
# Poissons Ratio (y) = 0.18588 -0.00130
# Poissons Ratio (z) = 0.38894 -0.00323
#
# Static dielectric constant tensor:
#      x y z
#    x 1.965030 0.000000 -0.044950 
#    y 0.000000 1.874580 0.000000 
#    z -0.044950 0.000000 1.903330 
# 
# From -- ./inp_files/38947.got.cif
#   From: 2010.05.17/outbox.cif.g08.bks.cpg/sg15_20_cif.got.tgz:38947.got - 2010.06.03 18:47:42.
