data_PCOD9280505
_publ_section_title
;
Structure prediction by ZEFSAII (Michael W. Deem and Ramdas Pophale) SiO2 
 PCOD9280505
Probable space group: C 2/C
;
_chemical_formula_sum "Si O2"
_cell_formula_units_Z 60
_cell_length_a 11.017154
_cell_length_b 17.841655
_cell_length_c 13.907322
_cell_angle_alpha 90.000000
_cell_angle_beta 81.484135
_cell_angle_gamma 90.000000
_cell_volume 2703.543339
_symmetry_space_group_name_H-M "C 2/C"
_symmetry_group_IT_number 15
_symmetry_cell_setting 'monoclinic'
loop_
_space_group_symop_operation_xyz
x,y,z
-x,y,1/2-z
-x,-y,-z
x,-y,1/2+z
1/2+x,1/2+y,z
1/2-x,1/2+y,1/2-z
1/2-x,1/2-y,-z
1/2+x,1/2-y,1/2+z
loop_
_atom_site_type_symbol
_atom_site_label
_atom_site_fract_x
_atom_site_fract_y
_atom_site_fract_z
Si Si1 0.919377 0.335509 0.942949
Si Si2 0.991907 0.913690 0.478994
Si Si3 0.250025 0.205982 0.282567
Si Si4 0.250000 0.250000 0.000000
Si Si5 0.993640 0.224098 0.091713
Si Si6 0.368776 0.356964 0.212565
Si Si7 0.317209 0.894667 0.613112
Si Si8 0.740253 0.930987 0.397198
O O1 0.820697 0.314921 0.873087
O O2 0.037434 0.378575 0.887229
O O3 0.958953 0.258499 0.990684
O O4 0.865545 0.385836 0.035513
O O5 0.994655 0.864777 0.574393
O O6 0.862338 0.906342 0.440354
O O7 0.101741 0.885197 0.397436
O O8 0.000000 0.000000 0.500000
O O9 0.116459 0.238390 0.323259
O O10 0.328597 0.270478 0.220218
O O11 0.247922 0.132906 0.216990
O O12 0.369570 0.247560 0.911333
O O13 0.217407 0.335189 0.965147
O O14 0.500000 0.363050 0.250000
O O15 0.270028 0.404192 0.285123
O O16 0.286055 0.980547 0.594922
#
# Coordination Sequence:
#
# PCOD9280505 Si02
#       8
#     8   8   8   4   8   8   8   8
#     4  11  21  42  67  96 129 168 218 282 341 389
#     4  11  23  39  62  91 128 174 212 268 327 398
#     4  12  22  40  69  98 125 169 227 279 331 397
#     4  10  24  46  58  90 130 178 216 266 336 410
#     4  11  22  40  70  92 128 171 221 270 338 408
#     4  10  21  37  60  93 126 155 213 273 322 385
#     4  11  25  40  65  93 133 174 219 270 326 412
#     4  11  22  39  61  94 127 168 215 269 335 394
#
# _framework density 22.193097000000002
#
# number of rings (size 3 to 8) (size 9 to 14) (size 15 to 20)
#    0.000    1.067    2.667    6.000    1.867    0.533 
#    2.400    0.000    0.000    1.600    0.000    0.000 
#    0.000    0.000    0.000    0.000    0.000    0.000 
#
# Total GULP energy -167217.164284 kJ/mol
# GULP energy per Si atom -5573.905476 kJ/mol
# Density = 2.214258 g / cm^3
# Si number density = 22.193097 Si / 1000 Ang^3
#
#
#
# Elastic Constant Matrix: (Units=GPa)
#
#
# Indices 1 2 3 4 5 6 
#
# 1 80.1683 -0.1249 33.5876 0.0000 -26.3575 0.0000
# 2 -0.1249 129.6108 32.1396 0.0000 -10.8810 0.0000
# 3 33.5876 32.1396 81.7322 0.0000 -27.9825 0.0000
# 4 0.0000 0.0000 0.0000 38.8863 0.0000 2.0381
# 5 -26.3575 -10.8810 -27.9825 0.0000 38.7657 0.0000
# 6 0.0000 0.0000 0.0000 2.0381 0.0000 16.4412
#
#
#
# Elastic Compliance Matrix: (Units=1/GPa)
#
#
# Indices 1 2 3 4 5 6 
#
# 1 0.017453 0.001980 -0.004912 0.000000 0.008877 0.000000
# 2 0.001980 0.008774 -0.003931 0.000000 0.000971 0.000000
# 3 -0.004912 -0.003931 0.018965 0.000000 0.009247 0.000000
# 4 0.000000 0.000000 0.000000 0.025884 0.000000 -0.003209
# 5 0.008877 0.000971 0.009247 0.000000 0.038779 0.000000
# 6 0.000000 0.000000 0.000000 -0.003209 0.000000 0.061220
#
#
# Mechanical properties :
#
#
# Convention : Reuss Voigt Hill
#
# Bulk Modulus (GPa) = 31.78013 46.96844 39.37428
# Shear Modulus (GPa) = 25.60289 33.87925 29.74107
#
# Velocity S-wave (km/s) = 3.40022 3.91137 3.66472
# Velocity P-wave (km/s) = 5.45584 6.45042 5.97386
#
# Compressibility (1/GPa) = 0.03146621
#
# Stress axis : x y z
#
# Youngs Moduli (GPa) = 57.29582 113.97722 52.72807
#
# Poissons Ratio (x) = -0.22568 0.25899
# Poissons Ratio (y) = -0.11345 0.20729
# Poissons Ratio (z) = 0.28142 0.44807
#
# Static dielectric constant tensor:
#      x y z
#    x 1.956860 0.000000 0.084450 
#    y 0.000000 1.787140 0.000000 
#    z 0.084450 0.000000 1.894310 
# 
# From -- ./inp_files/146045.got.cif
#   From: 2010.05.17/outbox.cif.g08.bks.cpg/sg15_74_cif.got.tgz:146045.got - 2010.06.03 18:47:42.
