data_PCOD9280713
_publ_section_title
;
Structure prediction by ZEFSAII (Michael W. Deem and Ramdas Pophale) SiO2 
 PCOD9280713
Probable space group: C 2/C
;
_chemical_formula_sum "Si O2"
_cell_formula_units_Z 60
_cell_length_a 25.149234
_cell_length_b 23.038229
_cell_length_c 12.760524
_cell_angle_alpha 90.000000
_cell_angle_beta 157.973653
_cell_angle_gamma 90.000000
_cell_volume 2772.756571
_symmetry_space_group_name_H-M "C 2/C"
_symmetry_group_IT_number 15
_symmetry_cell_setting 'monoclinic'
loop_
_space_group_symop_operation_xyz
x,y,z
-x,y,1/2-z
-x,-y,-z
x,-y,1/2+z
1/2+x,1/2+y,z
1/2-x,1/2+y,1/2-z
1/2-x,1/2-y,-z
1/2+x,1/2-y,1/2+z
loop_
_atom_site_type_symbol
_atom_site_label
_atom_site_fract_x
_atom_site_fract_y
_atom_site_fract_z
Si Si1 0.534535 0.353350 0.012287
Si Si2 0.556798 0.234232 0.613903
Si Si3 0.275472 0.879766 0.053441
Si Si4 0.534244 0.951473 0.477930
Si Si5 0.158961 0.757953 0.577612
Si Si6 0.000000 0.461357 0.750000
Si Si7 0.765764 0.376882 0.288365
Si Si8 0.211904 0.661582 0.358040
O O1 0.484138 0.288217 0.888186
O O2 0.388216 0.383839 0.776567
O O3 0.612046 0.384880 0.058165
O O4 0.650347 0.345185 0.316494
O O5 0.653311 0.183075 0.833443
O O6 0.639498 0.260600 0.666403
O O7 0.410322 0.201933 0.312864
O O8 0.380853 0.921568 0.183839
O O9 0.282333 0.888663 0.193871
O O10 0.641756 0.900781 0.706119
O O11 0.500000 0.000000 0.500000
O O12 0.581540 0.992637 0.471055
O O13 0.203125 0.691380 0.637553
O O14 0.251411 0.804291 0.682666
O O15 0.000000 0.767415 0.250000
O O16 0.877186 0.415983 0.557217
#
# Coordination Sequence:
#
# PCOD9280713 Si02
#       8
#     8   8   8   8   8   4   8   8
#     4  12  21  37  64  98 135 167 211 275 343 394
#     4  10  21  37  62  96 137 179 215 263 332 414
#     4  10  24  41  64  94 136 170 220 277 333 391
#     4  11  24  48  70  92 129 177 233 283 318 412
#     4  11  19  35  63  99 136 168 211 278 338 401
#     4  12  24  44  76  96 122 182 240 274 338 402
#     4  11  22  38  68  99 126 171 227 275 330 400
#     4  11  23  40  66 101 136 176 227 274 334 411
#
# _framework density 21.639116000000001
#
# number of rings (size 3 to 8) (size 9 to 14) (size 15 to 20)
#    0.000    1.067    4.667    2.800    1.867    1.067 
#    0.000    4.000    0.000    0.000    0.000    0.000 
#    0.000    0.000    0.000    0.000    0.000    0.000 
#
# Total GULP energy -167372.812461 kJ/mol
# GULP energy per Si atom -5579.093749 kJ/mol
# Density = 2.158986 g / cm^3
# Si number density = 21.639116 Si / 1000 Ang^3
#
#
#
# Elastic Constant Matrix: (Units=GPa)
#
#
# Indices 1 2 3 4 5 6 
#
# 1 38.0117 35.4888 10.7876 0.0000 16.0672 0.0000
# 2 35.4888 102.5898 39.6480 0.0000 6.3756 0.0000
# 3 10.7876 39.6480 132.4730 0.0000 23.2364 0.0000
# 4 0.0000 0.0000 0.0000 19.5370 0.0000 8.0820
# 5 16.0672 6.3756 23.2364 0.0000 26.6662 0.0000
# 6 0.0000 0.0000 0.0000 8.0820 0.0000 27.7415
#
#
#
# Elastic Compliance Matrix: (Units=1/GPa)
#
#
# Indices 1 2 3 4 5 6 
#
# 1 0.060585 -0.021789 0.008354 0.000000 -0.038574 0.000000
# 2 -0.021789 0.018861 -0.006353 0.000000 0.014156 0.000000
# 3 0.008354 -0.006353 0.011080 0.000000 -0.013169 0.000000
# 4 0.000000 0.000000 0.000000 0.058199 0.000000 -0.016955
# 5 -0.038574 0.014156 -0.013169 0.000000 0.068833 0.000000
# 6 0.000000 0.000000 0.000000 -0.016955 0.000000 0.040987
#
#
# Mechanical properties :
#
#
# Convention : Reuss Voigt Hill
#
# Bulk Modulus (GPa) = 19.62801 49.43592 34.53196
# Shear Modulus (GPa) = 15.86771 27.26561 21.56666
#
# Velocity S-wave (km/s) = 2.71087 3.55352 3.16040
# Velocity P-wave (km/s) = 4.34611 6.30332 5.41390
#
# Compressibility (1/GPa) = 0.05094761
#
# Stress axis : x y z
#
# Youngs Moduli (GPa) = 16.50576 53.01985 90.25343
#
# Poissons Ratio (x) = 1.15527 -0.75396
# Poissons Ratio (y) = 0.35965 0.57342
# Poissons Ratio (z) = -0.13789 0.33686
#
# Static dielectric constant tensor:
#      x y z
#    x 2.124270 0.000000 -0.130410 
#    y 0.000000 1.945330 0.000000 
#    z -0.130410 0.000000 1.870100 
# 
# From -- ./inp_files/179113.got.cif
#   From: 2010.05.17/outbox.cif.g08.bks.cpg/sg15_90_cif.got.tgz:179113.got - 2010.06.03 18:47:42.
