data_PCOD9280744
_publ_section_title
;
Structure prediction by ZEFSAII (Michael W. Deem and Ramdas Pophale) SiO2 
 PCOD9280744
Probable space group: C 2/C
;
_chemical_formula_sum "Si O2"
_cell_formula_units_Z 28
_cell_length_a 8.206011
_cell_length_b 14.913476
_cell_length_c 8.594006
_cell_angle_alpha 90.000000
_cell_angle_beta 92.253475
_cell_angle_gamma 90.000000
_cell_volume 1050.922371
_symmetry_space_group_name_H-M "C 2/C"
_symmetry_group_IT_number 15
_symmetry_cell_setting 'monoclinic'
loop_
_space_group_symop_operation_xyz
x,y,z
-x,y,1/2-z
-x,-y,-z
x,-y,1/2+z
1/2+x,1/2+y,z
1/2-x,1/2+y,1/2-z
1/2-x,1/2-y,-z
1/2+x,1/2-y,1/2+z
loop_
_atom_site_type_symbol
_atom_site_label
_atom_site_fract_x
_atom_site_fract_y
_atom_site_fract_z
Si Si1 0.831699 0.062905 0.335033
Si Si2 0.306109 0.226586 0.252096
Si Si3 0.771982 0.613527 0.554532
Si Si4 0.000000 0.473695 0.250000
O O1 0.789462 0.166196 0.379410
O O2 0.000000 0.061936 0.250000
O O3 0.829944 0.978315 0.451292
O O4 0.662446 0.032153 0.240568
O O5 0.500000 0.217766 0.250000
O O6 0.270429 0.329772 0.290333
O O7 0.244049 0.175919 0.406972
O O8 0.959003 0.585485 0.596631
#
# Coordination Sequence:
#
# PCOD9280744 Si02
#       4
#     8   8   8   4
#     4  10  21  37  63  90 123 159 200 245 301 361
#     4  11  21  39  65  88 124 162 198 255 302 356
#     4   9  22  41  59  91 125 154 208 249 297 365
#     4   8  20  42  58  88 126 156 198 260 282 372
#
# _framework density 26.643260000000001
#
# number of rings (size 3 to 8) (size 9 to 14) (size 15 to 20)
#    1.714    0.571    1.429    0.857    2.000    5.714 
#    0.000    1.429    0.000    0.000    0.000    0.000 
#    0.000    0.000    0.000    0.000    0.000    0.000 
#
# Total GULP energy -77984.037735 kJ/mol
# GULP energy per Si atom -5570.288410 kJ/mol
# Density = 2.658262 g / cm^3
# Si number density = 26.643260 Si / 1000 Ang^3
#
#
#
# Elastic Constant Matrix: (Units=GPa)
#
#
# Indices 1 2 3 4 5 6 
#
# 1 156.2107 17.2224 15.7219 0.0000 -9.5809 0.0000
# 2 17.2224 123.3280 12.8478 0.0000 -10.8762 0.0000
# 3 15.7219 12.8478 33.8663 0.0000 5.8541 0.0000
# 4 0.0000 0.0000 0.0000 31.7620 0.0000 -15.3735
# 5 -9.5809 -10.8762 5.8541 0.0000 37.8671 0.0000
# 6 0.0000 0.0000 0.0000 -15.3735 0.0000 37.3740
#
#
#
# Elastic Compliance Matrix: (Units=1/GPa)
#
#
# Indices 1 2 3 4 5 6 
#
# 1 0.006926 -0.000419 -0.003430 0.000000 0.002162 0.000000
# 2 -0.000419 0.008813 -0.003666 0.000000 0.002992 0.000000
# 3 -0.003430 -0.003666 0.033745 0.000000 -0.007138 0.000000
# 4 0.000000 0.000000 0.000000 0.039311 0.000000 0.016170
# 5 0.002162 0.002992 -0.007138 0.000000 0.028918 0.000000
# 6 0.000000 0.000000 0.000000 0.016170 0.000000 0.033408
#
#
# Mechanical properties :
#
#
# Convention : Reuss Voigt Hill
#
# Bulk Modulus (GPa) = 29.02482 44.99880 37.01181
# Shear Modulus (GPa) = 28.14776 39.24150 33.69463
#
# Velocity S-wave (km/s) = 3.25386 3.84193 3.56006
# Velocity P-wave (km/s) = 5.00343 6.05034 5.55162
#
# Compressibility (1/GPa) = 0.03445327
#
# Stress axis : x y z
#
# Youngs Moduli (GPa) = 144.39124 113.47214 29.63434
#
# Poissons Ratio (x) = 0.04756 0.10164
# Poissons Ratio (y) = 0.06052 0.10864
# Poissons Ratio (z) = 0.49524 0.41597
#
# Static dielectric constant tensor:
#      x y z
#    x 2.011620 0.000000 0.131130 
#    y 0.000000 2.361730 0.000000 
#    z 0.131130 0.000000 2.468020 
# 
# From -- ./inp_files/75093.got.cif
#   From: 2010.05.17/outbox.cif.g08.bks.cpg/sg15_38_cif.got.tgz:75093.got - 2010.06.03 18:47:42.
