data_PCOD9280442
_publ_section_title
;
Structure prediction by ZEFSAII (Michael W. Deem and Ramdas Pophale) SiO2 
 PCOD9280442
Probable space group: C 2/C
;
_chemical_formula_sum "Si O2"
_cell_formula_units_Z 48
_cell_length_a 17.644163
_cell_length_b 19.404183
_cell_length_c 15.371920
_cell_angle_alpha 90.000000
_cell_angle_beta 29.399384
_cell_angle_gamma 90.000000
_cell_volume 2583.524622
_symmetry_space_group_name_H-M "C 2/C"
_symmetry_group_IT_number 15
_symmetry_cell_setting 'monoclinic'
loop_
_space_group_symop_operation_xyz
x,y,z
-x,y,1/2-z
-x,-y,-z
x,-y,1/2+z
1/2+x,1/2+y,z
1/2-x,1/2+y,1/2-z
1/2-x,1/2-y,-z
1/2+x,1/2-y,1/2+z
loop_
_atom_site_type_symbol
_atom_site_label
_atom_site_fract_x
_atom_site_fract_y
_atom_site_fract_z
Si Si1 0.934854 0.324738 0.218329
Si Si2 0.435568 0.423137 0.570245
Si Si3 0.065244 0.174291 0.590050
Si Si4 0.434760 0.174291 0.220533
Si Si5 0.564431 0.076863 0.441383
Si Si6 0.434857 0.675263 0.411961
O O1 0.749999 0.322092 0.405696
O O2 0.000000 0.337257 0.250000
O O3 0.999998 0.250000 0.125073
O O4 0.993165 0.382471 0.093993
O O5 0.500000 0.500000 0.500000
O O6 0.476439 0.380182 0.442486
O O7 0.249999 0.424208 0.763480
O O8 0.506833 0.382470 0.580324
O O9 0.250002 0.178871 0.410611
O O10 0.000000 0.155087 0.750000
O O11 0.000003 0.250000 0.633524
O O12 0.500000 0.155086 0.250000
O O13 0.476442 0.119818 0.104632
O O14 0.500000 0.000000 0.500000
O O15 0.500000 0.662743 0.250000
#
# Coordination Sequence:
#
# PCOD9280442 Si02
#       6
#     8   8   8   8   8   8
#     4  11  22  39  63  89 117 152 194 243 293 348
#     4  11  24  40  58  85 119 157 196 238 291 348
#     4  10  21  37  60  86 113 147 189 235 284 336
#     4  10  21  37  60  86 113 147 189 235 284 336
#     4  11  24  40  58  85 119 157 196 238 291 348
#     4  11  22  39  63  89 117 152 194 243 293 348
#
# _framework density 18.579270000000001
#
# number of rings (size 3 to 8) (size 9 to 14) (size 15 to 20)
#    0.000    1.333    0.000    8.000    0.000    9.333 
#    0.000    3.333    0.000    0.000    0.000    0.000 
#    0.000    0.000    0.000    0.000    0.000    0.000 
#
# Total GULP energy -134233.505256 kJ/mol
# GULP energy per Si atom -5593.062719 kJ/mol
# Density = 1.853698 g / cm^3
# Si number density = 18.579270 Si / 1000 Ang^3
#
#
#
# Elastic Constant Matrix: (Units=GPa)
#
#
# Indices 1 2 3 4 5 6 
#
# 1 125.1475 108.3041 61.3613 -0.0025 -3.1923 -0.0024
# 2 108.3041 174.6209 89.0420 -0.0056 19.6266 -0.0069
# 3 61.3613 89.0420 125.8445 -0.0310 2.4803 -0.0446
# 4 -0.0025 -0.0056 -0.0310 -211.6136 0.0211 -395.2824
# 5 -3.1923 19.6266 2.4803 0.0211 27.6795 0.0307
# 6 -0.0024 -0.0069 -0.0446 -395.2824 0.0307 -599.6664
#
#
#
# Elastic Compliance Matrix: (Units=1/GPa)
#
#
# Indices 1 2 3 4 5 6 
#
# 1 0.020545 -0.013908 -0.000419 0.000000 0.012268 0.000001
# 2 -0.013908 0.019409 -0.006660 0.000000 -0.014769 -0.000001
# 3 -0.000419 -0.006660 0.012794 0.000000 0.003528 -0.000001
# 4 0.000000 0.000000 0.000000 0.020431 -0.000001 -0.013468
# 5 0.012268 -0.014769 0.003528 -0.000001 0.047699 0.000003
# 6 0.000001 -0.000001 -0.000001 -0.013468 0.000003 0.007210
#
#
# Mechanical properties :
#
#
# Convention : Reuss Voigt Hill
#
# Bulk Modulus (GPa) = 92.82222 104.78085 98.80153
# Shear Modulus (GPa) = 28.79311 -145.59308 -58.39998
#
# Velocity S-wave (km/s) = 3.94095 -8.86190 -5.61259
# Velocity P-wave (km/s) = 8.41289 6.94205 3.36041
#
# Compressibility (1/GPa) = 0.01077328
#
# Stress axis : x y z
#
# Youngs Moduli (GPa) = 48.67410 51.52284 78.16386
#
# Poissons Ratio (x) = 0.71657 0.03274
# Poissons Ratio (y) = 0.67695 0.52060
# Poissons Ratio (z) = 0.02039 0.34316
#
# Static dielectric constant tensor:
#      x y z
#    x 1.626970 0.000000 0.003300 
#    y 0.000000 1.603740 0.000000 
#    z 0.003300 0.000000 1.623720 
# 
# From -- ./inp_files/163189.got.cif
#   From: 2010.05.17/outbox.cif.g08.bks.cpg/sg15_82_cif.got.tgz:163189.got - 2010.06.03 18:47:42.
