data_PCOD9280395
_publ_section_title
;
Structure prediction by ZEFSAII (Michael W. Deem and Ramdas Pophale) SiO2 
 PCOD9280395
Probable space group: C 2/C
;
_chemical_formula_sum "Si O2"
_cell_formula_units_Z 36
_cell_length_a 18.450438
_cell_length_b 4.732841
_cell_length_c 16.743865
_cell_angle_alpha 90.000000
_cell_angle_beta 62.037527
_cell_angle_gamma 90.000000
_cell_volume 1291.428483
_symmetry_space_group_name_H-M "C 2/C"
_symmetry_group_IT_number 15
_symmetry_cell_setting 'monoclinic'
loop_
_space_group_symop_operation_xyz
x,y,z
-x,y,1/2-z
-x,-y,-z
x,-y,1/2+z
1/2+x,1/2+y,z
1/2-x,1/2+y,1/2-z
1/2-x,1/2-y,-z
1/2+x,1/2-y,1/2+z
loop_
_atom_site_type_symbol
_atom_site_label
_atom_site_fract_x
_atom_site_fract_y
_atom_site_fract_z
Si Si1 0.500000 0.707812 0.750000
Si Si2 0.288889 0.111515 0.767546
Si Si3 0.936720 0.244652 0.626402
Si Si4 0.331208 0.490636 0.539693
Si Si5 0.897362 0.489529 0.424778
O O1 0.463837 0.557493 0.690456
O O2 0.572698 0.902642 0.676461
O O3 0.278660 0.438040 0.751192
O O4 0.254887 0.061463 0.874078
O O5 0.370349 0.971949 0.691406
O O6 0.899495 0.074778 0.571683
O O7 0.019462 0.425362 0.570267
O O8 0.331757 0.174684 0.507712
O O9 0.363532 0.676854 0.449245
#
# Coordination Sequence:
#
# PCOD9280395 Si02
#       5
#     4   8   8   8   8
#     4   8  22  40  58  84 126 152 190 234 308 334
#     4  10  21  37  59  88 118 149 191 245 294 335
#     4   9  20  40  60  87 120 155 189 240 294 346
#     4  11  20  37  63  88 112 150 203 242 274 344
#     4  10  22  38  59  89 115 152 198 237 289 339
#
# _framework density 27.876109
#
# number of rings (size 3 to 8) (size 9 to 14) (size 15 to 20)
#    1.333    0.889    0.000    4.000    0.000    4.444 
#    0.000    2.222    0.000    0.000    0.000    0.000 
#    0.000    0.000    0.000    0.000    0.000    0.000 
#
# Total GULP energy -100588.054365 kJ/mol
# GULP energy per Si atom -5588.225242 kJ/mol
# Density = 2.781266 g / cm^3
# Si number density = 27.876109 Si / 1000 Ang^3
#
#
#
# Elastic Constant Matrix: (Units=GPa)
#
#
# Indices 1 2 3 4 5 6 
#
# 1 87.2469 -4.9554 7.0927 -0.0287 -1.1138 0.0212
# 2 -4.9554 69.9284 15.7076 0.0552 -9.6451 0.1084
# 3 7.0927 15.7076 122.9956 0.0846 -16.2132 0.0599
# 4 -0.0287 0.0552 0.0846 37.0409 0.0321 -13.9893
# 5 -1.1138 -9.6451 -16.2132 0.0321 55.9026 -0.0051
# 6 0.0212 0.1084 0.0599 -13.9893 -0.0051 5.8399
#
#
#
# Elastic Compliance Matrix: (Units=1/GPa)
#
#
# Indices 1 2 3 4 5 6 
#
# 1 0.011585 0.001021 -0.000774 -0.000114 0.000182 -0.000326
# 2 0.001021 0.015053 -0.001699 -0.001252 0.002125 -0.003262
# 3 -0.000774 -0.001699 0.008684 -0.000417 0.002210 -0.001053
# 4 -0.000114 -0.001252 -0.000417 0.283412 -0.000440 0.678930
# 5 0.000182 0.002125 0.002210 -0.000440 0.018900 -0.001101
# 6 -0.000326 -0.003262 -0.001053 0.678930 -0.001101 1.797656
#
#
# Mechanical properties :
#
#
# Convention : Reuss Voigt Hill
#
# Bulk Modulus (GPa) = 30.84696 35.09563 32.97130
# Shear Modulus (GPa) = 2.32666 37.24508 19.78587
#
# Velocity S-wave (km/s) = 0.91458 3.65923 2.66706
# Velocity P-wave (km/s) = 3.49357 5.52000 4.61928
#
# Compressibility (1/GPa) = 0.03241811
#
# Stress axis : x y z
#
# Youngs Moduli (GPa) = 86.31855 66.43004 115.15294
#
# Poissons Ratio (x) = -0.06780 0.08914
# Poissons Ratio (y) = -0.08810 0.19561
# Poissons Ratio (z) = 0.06682 0.11284
#
# Static dielectric constant tensor:
#      x y z
#    x 2.287830 0.000020 0.033530 
#    y 0.000020 2.056920 -0.000040 
#    z 0.033530 -0.000040 2.121300 
# 
# From -- ./inp_files/220609.got.cif
#   From: 2010.05.17/outbox.cif.g08.bks.cpg/sg15_111_cif.got.tgz:220609.got - 2010.06.03 18:47:42.
