data_PCOD9280674
_publ_section_title
;
Structure prediction by ZEFSAII (Michael W. Deem and Ramdas Pophale) SiO2 
 PCOD9280674
Probable space group: C 2/C
;
_chemical_formula_sum "Si O2"
_cell_formula_units_Z 64
_cell_length_a 15.202745
_cell_length_b 14.519409
_cell_length_c 18.640601
_cell_angle_alpha 90.000000
_cell_angle_beta 123.376856
_cell_angle_gamma 90.000000
_cell_volume 3436.005288
_symmetry_space_group_name_H-M "C 2/C"
_symmetry_group_IT_number 15
_symmetry_cell_setting 'monoclinic'
loop_
_space_group_symop_operation_xyz
x,y,z
-x,y,1/2-z
-x,-y,-z
x,-y,1/2+z
1/2+x,1/2+y,z
1/2-x,1/2+y,1/2-z
1/2-x,1/2-y,-z
1/2+x,1/2-y,1/2+z
loop_
_atom_site_type_symbol
_atom_site_label
_atom_site_fract_x
_atom_site_fract_y
_atom_site_fract_z
Si Si1 0.621216 0.767138 0.659056
Si Si2 0.982711 0.897711 0.157361
Si Si3 0.006169 0.934780 0.931274
Si Si4 0.352530 0.734976 0.997926
Si Si5 0.034562 0.571176 0.418151
Si Si6 0.184260 0.206251 0.151957
Si Si7 0.463745 0.875817 0.413758
Si Si8 0.239794 0.145171 0.019015
O O1 0.562038 0.672978 0.654004
O O2 0.651734 0.759637 0.588811
O O3 0.536925 0.845846 0.642455
O O4 0.725255 0.791190 0.749144
O O5 0.000000 0.884769 0.250000
O O6 0.006690 0.000289 0.142752
O O7 0.864938 0.885550 0.071217
O O8 0.915251 0.859480 0.882521
O O9 0.110181 0.871378 0.980385
O O10 0.000000 0.000000 0.000000
O O11 0.250000 0.750000 0.000000
O O12 0.442259 0.806358 0.064643
O O13 0.029470 0.592202 0.500774
O O14 0.156344 0.584824 0.450265
O O15 0.982427 0.471526 0.379861
O O16 0.139989 0.311447 0.131997
O O17 0.226950 0.161179 0.097817
O O18 0.250000 0.250000 0.000000
#
# Coordination Sequence:
#
# PCOD9280674 Si02
#       8
#     8   8   8   8   8   8   8   8
#     4  11  23  41  62 100 133 165 216 271 328 392
#     4  12  25  40  67 100 127 166 229 280 326 398
#     4  11  22  45  63  89 134 177 223 273 339 395
#     4  10  22  41  68  89 125 174 221 265 327 400
#     4  10  21  37  62  91 127 162 212 263 319 393
#     4  11  23  39  66  89 134 177 205 270 333 391
#     4   9  20  40  58  88 122 165 207 261 320 378
#     4  12  20  38  64  93 126 170 211 258 337 387
#
# _framework density 18.626282
#
# number of rings (size 3 to 8) (size 9 to 14) (size 15 to 20)
#    0.000    1.250    5.000    1.500    1.750    2.000 
#    2.250    1.875    2.750    0.000    0.000    0.000 
#    0.000    0.000    0.000    0.000    0.000    0.000 
#
# Total GULP energy -178156.480226 kJ/mol
# GULP energy per Si atom -5567.390007 kJ/mol
# Density = 1.858389 g / cm^3
# Si number density = 18.626282 Si / 1000 Ang^3
#
#
#
# Elastic Constant Matrix: (Units=GPa)
#
#
# Indices 1 2 3 4 5 6 
#
# 1 97.4785 32.0512 12.6053 0.0000 -5.3721 0.0000
# 2 32.0512 104.9850 15.7357 0.0000 -4.1459 0.0000
# 3 12.6053 15.7357 56.4196 0.0000 4.1932 0.0000
# 4 0.0000 0.0000 0.0000 12.4405 0.0000 -10.4325
# 5 -5.3721 -4.1459 4.1932 0.0000 21.1749 0.0000
# 6 0.0000 0.0000 0.0000 -10.4325 0.0000 -31.6422
#
#
#
# Elastic Compliance Matrix: (Units=1/GPa)
#
#
# Indices 1 2 3 4 5 6 
#
# 1 0.011703 -0.003175 -0.001932 0.000000 0.002730 0.000000
# 2 -0.003175 0.010938 -0.002477 0.000000 0.001826 0.000000
# 3 -0.001932 -0.002477 0.019202 0.000000 -0.004778 0.000000
# 4 0.000000 0.000000 0.000000 0.062972 0.000000 -0.020762
# 5 0.002730 0.001826 -0.004778 0.000000 0.049222 0.000000
# 6 0.000000 0.000000 0.000000 -0.020762 0.000000 -0.024758
#
#
# Mechanical properties :
#
#
# Convention : Reuss Voigt Hill
#
# Bulk Modulus (GPa) = 37.48939 42.18527 39.83733
# Shear Modulus (GPa) = 32.60758 13.62739 23.11749
#
# Velocity S-wave (km/s) = 4.18858 2.70778 3.52678
# Velocity P-wave (km/s) = 6.60024 5.69856 6.16590
#
# Compressibility (1/GPa) = 0.02667421
#
# Stress axis : x y z
#
# Youngs Moduli (GPa) = 85.44786 91.42431 52.07830
#
# Poissons Ratio (x) = 0.29032 0.10061
# Poissons Ratio (y) = 0.27134 0.12899
# Poissons Ratio (z) = 0.16508 0.22645
#
# Static dielectric constant tensor:
#      x y z
#    x 1.768900 0.000000 0.128160 
#    y 0.000000 1.820610 0.000000 
#    z 0.128160 0.000000 1.721660 
# 
# From -- ./inp_files/205440.got.cif
#   From: 2010.05.17/outbox.cif.g08.bks.cpg/sg15_103_cif.got.tgz:205440.got - 2010.06.03 18:47:42.
