data_PCOD9280106
_publ_section_title
;
Structure prediction by ZEFSAII (Michael W. Deem and Ramdas Pophale) SiO2 
 PCOD9280106
Probable space group: C 2/C
;
_chemical_formula_sum "Si O2"
_cell_formula_units_Z 40
_cell_length_a 14.880334
_cell_length_b 18.145431
_cell_length_c 11.377337
_cell_angle_alpha 90.000000
_cell_angle_beta 34.252010
_cell_angle_gamma 90.000000
_cell_volume 1729.023343
_symmetry_space_group_name_H-M "C 2/C"
_symmetry_group_IT_number 15
_symmetry_cell_setting 'monoclinic'
loop_
_space_group_symop_operation_xyz
x,y,z
-x,y,1/2-z
-x,-y,-z
x,-y,1/2+z
1/2+x,1/2+y,z
1/2-x,1/2+y,1/2-z
1/2-x,1/2-y,-z
1/2+x,1/2-y,1/2+z
loop_
_atom_site_type_symbol
_atom_site_label
_atom_site_fract_x
_atom_site_fract_y
_atom_site_fract_z
Si Si1 0.000000 0.939266 0.250000
Si Si2 0.140922 0.823328 0.237897
Si Si3 0.000000 0.768773 0.750000
Si Si4 0.878048 0.663739 0.275653
Si Si5 0.302772 0.158116 0.802024
Si Si6 0.850419 0.493311 0.821715
O O1 0.981564 0.890231 0.148842
O O2 0.832103 0.983340 0.432919
O O3 0.084985 0.740616 0.326092
O O4 0.269582 0.837335 0.199074
O O5 0.214521 0.823462 0.026460
O O6 0.923618 0.714977 0.733860
O O7 0.135499 0.819625 0.545323
O O8 0.870904 0.583237 0.225081
O O9 0.000000 0.658122 0.250000
O O10 0.352242 0.074134 0.767473
O O11 0.000000 0.492141 0.750000
#
# Coordination Sequence:
#
# PCOD9280106 Si02
#       6
#     4   8   4   8   8   8
#     4  10  21  40  65  98 134 166 210 276 325 396
#     4  10  21  36  67  95 126 170 216 258 329 394
#     4  10  25  42  61  90 128 174 226 268 307 380
#     4   9  19  37  60  95 132 157 201 278 318 376
#     4  11  23  43  66  90 128 176 219 266 320 389
#     4  10  21  41  64  92 136 169 209 274 326 369
#
# _framework density 23.134447999999999
#
# number of rings (size 3 to 8) (size 9 to 14) (size 15 to 20)
#    0.000    2.000    2.000    0.600    2.800    0.800 
#    0.000   17.000    0.000    0.000    0.000    0.000 
#    0.000    0.000    0.000    0.000    0.000    0.000 
#
# Total GULP energy -111349.077613 kJ/mol
# GULP energy per Si atom -5567.453881 kJ/mol
# Density = 2.308179 g / cm^3
# Si number density = 23.134448 Si / 1000 Ang^3
#
#
#
# Elastic Constant Matrix: (Units=GPa)
#
#
# Indices 1 2 3 4 5 6 
#
# 1 122.5662 41.9317 33.4624 -0.0003 -16.1650 -0.0001
# 2 41.9317 175.0573 20.3740 0.0015 1.8588 -0.0007
# 3 33.4624 20.3740 103.1086 0.0026 -12.1424 0.0000
# 4 -0.0003 0.0015 0.0026 -17.0926 -0.0011 -16.9895
# 5 -16.1650 1.8588 -12.1424 -0.0011 37.4530 0.0001
# 6 -0.0001 -0.0007 0.0000 -16.9895 0.0001 31.2238
#
#
#
# Elastic Compliance Matrix: (Units=1/GPa)
#
#
# Indices 1 2 3 4 5 6 
#
# 1 0.010037 -0.002164 -0.002399 -0.000001 0.003662 0.000000
# 2 -0.002164 0.006331 -0.000723 0.000000 -0.001483 0.000000
# 3 -0.002399 -0.000723 0.010919 0.000001 0.002541 0.000000
# 4 -0.000001 0.000000 0.000001 -0.037970 -0.000001 -0.020660
# 5 0.003662 -0.001483 0.002541 -0.000001 0.029178 -0.000001
# 6 0.000000 0.000000 0.000000 -0.020660 -0.000001 0.020785
#
#
# Mechanical properties :
#
#
# Convention : Reuss Voigt Hill
#
# Bulk Modulus (GPa) = 59.82562 65.80759 62.81660
# Shear Modulus (GPa) = 90.21460 30.64778 60.43119
#
# Velocity S-wave (km/s) = 6.25144 3.64369 5.11649
# Velocity P-wave (km/s) = 8.83308 6.79775 7.88139
#
# Compressibility (1/GPa) = 0.01671525
#
# Stress axis : x y z
#
# Youngs Moduli (GPa) = 99.63200 157.96163 91.58321
#
# Poissons Ratio (x) = 0.34181 0.21967
# Poissons Ratio (y) = 0.21559 0.06624
# Poissons Ratio (z) = 0.23897 0.11425
#
# Static dielectric constant tensor:
#      x y z
#    x 1.833550 0.000000 -0.048140 
#    y 0.000000 1.935440 0.000010 
#    z -0.048140 0.000010 2.175650 
# 
# From -- ./inp_files/98115.got.cif
#   From: 2010.05.17/outbox.cif.g08.bks.cpg/sg15_50_cif.got.tgz:98115.got - 2010.06.03 18:47:42.
