data_PCOD9280202
_publ_section_title
;
Structure prediction by ZEFSAII (Michael W. Deem and Ramdas Pophale) SiO2 
 PCOD9280202
Probable space group: C 2/C
;
_chemical_formula_sum "Si O2"
_cell_formula_units_Z 56
_cell_length_a 21.412642
_cell_length_b 19.028340
_cell_length_c 9.382876
_cell_angle_alpha 90.000000
_cell_angle_beta 133.578263
_cell_angle_gamma 90.000000
_cell_volume 2769.527133
_symmetry_space_group_name_H-M "C 2/C"
_symmetry_group_IT_number 15
_symmetry_cell_setting 'monoclinic'
loop_
_space_group_symop_operation_xyz
x,y,z
-x,y,1/2-z
-x,-y,-z
x,-y,1/2+z
1/2+x,1/2+y,z
1/2-x,1/2+y,1/2-z
1/2-x,1/2-y,-z
1/2+x,1/2-y,1/2+z
loop_
_atom_site_type_symbol
_atom_site_label
_atom_site_fract_x
_atom_site_fract_y
_atom_site_fract_z
Si Si1 0.194208 0.349121 0.483268
Si Si2 0.794066 0.646377 0.156337
Si Si3 0.874321 0.990408 0.959526
Si Si4 0.741029 0.994326 0.495358
Si Si5 0.500000 0.400390 0.750000
Si Si6 0.363219 0.703079 0.081423
Si Si7 0.000000 0.867244 0.250000
Si Si8 0.624834 0.288290 0.242360
O O1 0.213149 0.353807 0.682800
O O2 0.177684 0.427600 0.401595
O O3 0.276965 0.323606 0.522507
O O4 0.126559 0.285168 0.363003
O O5 0.865853 0.703968 0.228422
O O6 0.804366 0.567899 0.112125
O O7 0.706130 0.676021 0.949585
O O8 0.819580 0.013098 0.009558
O O9 0.925188 0.918332 0.068857
O O10 0.947896 0.049249 0.060912
O O11 0.798642 0.992485 0.727100
O O12 0.561410 0.349234 0.758397
O O13 0.363003 0.697656 0.908000
O O14 0.042817 0.820173 0.193725
#
# Coordination Sequence:
#
# PCOD9280202 Si02
#       8
#     8   8   8   8   4   8   4   8
#     4  10  21  38  56  83 110 154 195 239 277 340
#     4  10  21  37  56  82 111 151 201 234 281 336
#     4  11  25  32  56  87 122 152 184 226 300 347
#     4  12  20  39  56  84 118 152 187 243 279 344
#     4  11  22  34  52  85 118 152 180 225 288 350
#     4  10  22  37  57  79 117 152 195 231 285 339
#     4  11  22  36  56  89 124 150 190 233 290 358
#     4  10  21  37  58  79 114 157 190 236 280 343
#
# _framework density 20.220058000000002
#
# number of rings (size 3 to 8) (size 9 to 14) (size 15 to 20)
#    0.000    1.429    4.286    0.857    2.000    2.286 
#    0.000    0.000    0.000    0.857    0.000    4.000 
#    0.000    0.000    0.000    0.000    0.000    0.000 
#
# Total GULP energy -156179.288158 kJ/mol
# GULP energy per Si atom -5577.831720 kJ/mol
# Density = 2.017404 g / cm^3
# Si number density = 20.220058 Si / 1000 Ang^3
#
#
#
# Elastic Constant Matrix: (Units=GPa)
#
#
# Indices 1 2 3 4 5 6 
#
# 1 83.6303 55.4001 20.6960 0.0000 -21.1932 0.0000
# 2 55.4001 208.9509 18.7777 0.0000 -0.5585 0.0000
# 3 20.6960 18.7777 43.4793 0.0000 -22.7942 0.0000
# 4 0.0000 0.0000 0.0000 -72.1333 0.0000 -66.6891
# 5 -21.1932 -0.5585 -22.7942 0.0000 28.0994 0.0000
# 6 0.0000 0.0000 0.0000 -66.6891 0.0000 -4.3128
#
#
#
# Elastic Compliance Matrix: (Units=1/GPa)
#
#
# Indices 1 2 3 4 5 6 
#
# 1 0.018831 -0.005048 0.001061 0.000000 0.014963 0.000000
# 2 -0.005048 0.006468 -0.004035 0.000000 -0.006952 0.000000
# 3 0.001061 -0.004035 0.042828 0.000000 0.035462 0.000000
# 4 0.000000 0.000000 0.000000 0.001043 0.000000 -0.016123
# 5 0.014963 -0.006952 0.035462 0.000000 0.075502 0.000000
# 6 0.000000 0.000000 0.000000 -0.016123 0.000000 0.017439
#
#
# Mechanical properties :
#
#
# Convention : Reuss Voigt Hill
#
# Bulk Modulus (GPa) = 19.20022 58.42313 38.81167
# Shear Modulus (GPa) = 25.57332 6.40979 15.99155
#
# Velocity S-wave (km/s) = 3.56019 1.78238 2.81530
# Velocity P-wave (km/s) = 5.13967 5.76127 5.45932
#
# Compressibility (1/GPa) = 0.05208274
#
# Stress axis : x y z
#
# Youngs Moduli (GPa) = 53.10508 154.60073 23.34898
#
# Poissons Ratio (x) = 0.78042 -0.02478
# Poissons Ratio (y) = 0.26807 0.09422
# Poissons Ratio (z) = -0.05635 0.62387
#
# Static dielectric constant tensor:
#      x y z
#    x 1.717100 0.000000 -0.001550 
#    y 0.000000 1.799330 0.000000 
#    z -0.001550 0.000000 1.676980 
# 
# From -- ./inp_files/56748.got.cif
#   From: 2010.05.17/outbox.cif.g08.bks.cpg/sg15_29_cif.got.tgz:56748.got - 2010.06.03 18:47:42.
