data_PCOD9280966
_publ_section_title
;
Structure prediction by ZEFSAII (Michael W. Deem and Ramdas Pophale) SiO2 
 PCOD9280966
Probable space group: C 2/C
;
_chemical_formula_sum "Si O2"
_cell_formula_units_Z 40
_cell_length_a 25.058344
_cell_length_b 7.430573
_cell_length_c 24.675232
_cell_angle_alpha 90.000000
_cell_angle_beta 160.411524
_cell_angle_gamma 90.000000
_cell_volume 1540.353355
_symmetry_space_group_name_H-M "C 2/C"
_symmetry_group_IT_number 15
_symmetry_cell_setting 'monoclinic'
loop_
_space_group_symop_operation_xyz
x,y,z
-x,y,1/2-z
-x,-y,-z
x,-y,1/2+z
1/2+x,1/2+y,z
1/2-x,1/2+y,1/2-z
1/2-x,1/2-y,-z
1/2+x,1/2-y,1/2+z
loop_
_atom_site_type_symbol
_atom_site_label
_atom_site_fract_x
_atom_site_fract_y
_atom_site_fract_z
Si Si1 0.885766 0.864950 0.690552
Si Si2 0.495460 0.361843 0.577093
Si Si3 0.057121 0.554305 0.477642
Si Si4 0.278204 0.645150 0.308753
Si Si5 0.968896 0.481117 0.663977
O O1 0.945578 0.921822 0.807352
O O2 0.708798 0.933696 0.508875
O O3 0.000000 0.917346 0.750000
O O4 0.904765 0.646862 0.712937
O O5 0.363948 0.494803 0.427234
O O6 0.632489 0.349221 0.662805
O O7 0.427958 0.158769 0.516223
O O8 0.198982 0.666364 0.638900
O O9 0.014924 0.623190 0.376655
O O10 0.906018 0.601333 0.370217
O O11 0.000000 0.379066 0.750000
#
# Coordination Sequence:
#
# PCOD9280966 Si02
#       5
#     8   8   8   8   8
#     4  10  21  37  70 100 139 177 236 288 345 419
#     4  10  26  44  73 101 141 189 230 290 356 407
#     4  11  27  44  73 100 146 181 239 288 353 414
#     4  11  27  45  69 105 142 187 238 287 347 422
#     4  10  22  40  67 102 139 183 235 288 351 414
#
# _framework density 25.968067000000001
#
# number of rings (size 3 to 8) (size 9 to 14) (size 15 to 20)
#    0.000    1.600    0.000    3.000   22.400    0.000 
#    0.000    2.000    0.000    0.000    0.000    0.000 
#    0.000    0.000    0.000    0.000    0.000    0.000 
#
# Total GULP energy -112212.256583 kJ/mol
# GULP energy per Si atom -5610.612829 kJ/mol
# Density = 2.590896 g / cm^3
# Si number density = 25.968067 Si / 1000 Ang^3
#
#
#
# Elastic Constant Matrix: (Units=GPa)
#
#
# Indices 1 2 3 4 5 6 
#
# 1 180.2898 37.3733 52.9519 -0.0003 -33.4128 -0.0001
# 2 37.3733 115.3817 38.9797 0.0003 -12.5304 0.0000
# 3 52.9519 38.9797 129.8418 0.0005 -25.2109 -0.0001
# 4 -0.0003 0.0003 0.0005 34.0737 0.0001 -1.2074
# 5 -33.4128 -12.5304 -25.2109 0.0001 54.9115 -0.0001
# 6 -0.0001 0.0000 -0.0001 -1.2074 -0.0001 11.7741
#
#
#
# Elastic Compliance Matrix: (Units=1/GPa)
#
#
# Indices 1 2 3 4 5 6 
#
# 1 0.006924 -0.001287 -0.001840 0.000000 0.003074 0.000000
# 2 -0.001287 0.009930 -0.002381 0.000000 0.000390 0.000000
# 3 -0.001840 -0.002381 0.009710 0.000000 0.002795 0.000000
# 4 0.000000 0.000000 0.000000 0.029455 0.000000 0.003021
# 5 0.003074 0.000390 0.002795 0.000000 0.021454 0.000000
# 6 0.000000 0.000000 0.000000 0.003021 0.000000 0.085242
#
#
# Mechanical properties :
#
#
# Convention : Reuss Voigt Hill
#
# Bulk Modulus (GPa) = 64.31830 76.01368 70.16599
# Shear Modulus (GPa) = 27.94651 39.89909 33.92280
#
# Velocity S-wave (km/s) = 3.28409 3.92403 3.61824
# Velocity P-wave (km/s) = 6.26118 7.06160 6.67340
#
# Compressibility (1/GPa) = 0.01554767
#
# Stress axis : x y z
#
# Youngs Moduli (GPa) = 144.43156 100.70124 102.99176
#
# Poissons Ratio (x) = 0.12961 0.18953
# Poissons Ratio (y) = 0.18589 0.24518
# Poissons Ratio (z) = 0.26580 0.23973
#
# Static dielectric constant tensor:
#      x y z
#    x 2.093990 0.000000 -0.035220 
#    y 0.000000 2.050930 0.000000 
#    z -0.035220 0.000000 2.016700 
# 
# From -- ./inp_files/303134.got.cif
#   From: 2010.05.17/outbox.cif.g08.bks.cpg/sg15_152_cif.got.tgz:303134.got - 2010.06.03 18:47:42.
