data_PCOD9280663
_publ_section_title
;
Structure prediction by ZEFSAII (Michael W. Deem and Ramdas Pophale) SiO2 
 PCOD9280663
Probable space group: C 2/C
;
_chemical_formula_sum "Si O2"
_cell_formula_units_Z 56
_cell_length_a 22.636411
_cell_length_b 15.698225
_cell_length_c 16.054282
_cell_angle_alpha 90.000000
_cell_angle_beta 152.886655
_cell_angle_gamma 90.000000
_cell_volume 2600.026757
_symmetry_space_group_name_H-M "C 2/C"
_symmetry_group_IT_number 15
_symmetry_cell_setting 'monoclinic'
loop_
_space_group_symop_operation_xyz
x,y,z
-x,y,1/2-z
-x,-y,-z
x,-y,1/2+z
1/2+x,1/2+y,z
1/2-x,1/2+y,1/2-z
1/2-x,1/2-y,-z
1/2+x,1/2-y,1/2+z
loop_
_atom_site_type_symbol
_atom_site_label
_atom_site_fract_x
_atom_site_fract_y
_atom_site_fract_z
Si Si1 0.846540 0.923437 0.687349
Si Si2 0.208023 0.808063 0.029684
Si Si3 0.984685 0.826464 0.475540
Si Si4 0.999743 0.696166 0.626589
Si Si5 0.917455 0.511444 0.573452
Si Si6 0.458964 0.572396 0.602730
Si Si7 0.236538 0.936543 0.212470
O O1 0.859789 0.875472 0.616912
O O2 0.703726 0.952200 0.527164
O O3 0.892902 0.864024 0.820389
O O4 0.937111 0.004542 0.799808
O O5 0.347902 0.781364 0.164596
O O6 0.260018 0.867752 0.170615
O O7 0.105313 0.744248 0.945333
O O8 0.018992 0.842011 0.423002
O O9 0.966481 0.733705 0.493285
O O10 0.868009 0.887992 0.359498
O O11 0.986191 0.596007 0.623880
O O12 0.858735 0.459379 0.422988
O O13 0.000000 0.466766 0.750000
O O14 0.500000 0.584656 0.750000
O O15 0.326446 0.521758 0.410021
#
# Coordination Sequence:
#
# PCOD9280663 Si02
#       7
#     8   8   8   8   8   8   8
#     4  11  20  36  61  93 130 161 217 259 323 378
#     4  11  24  41  62  99 133 174 211 260 329 394
#     4  10  21  37  62  89 128 169 214 267 319 382
#     4  11  26  39  61  94 135 173 205 262 332 401
#     4  12  23  38  61  94 129 174 208 264 334 387
#     4  11  19  36  66  95 117 167 222 276 305 370
#     4  10  21  39  62  91 128 166 220 265 312 385
#
# _framework density 21.538239999999998
#
# number of rings (size 3 to 8) (size 9 to 14) (size 15 to 20)
#    0.000    1.143    5.714    1.714    2.000    1.714 
#    0.000    0.000    0.000    1.714    0.000    0.000 
#    0.000    0.000    0.000    0.000    0.000    0.000 
#
# Total GULP energy -156250.368364 kJ/mol
# GULP energy per Si atom -5580.370299 kJ/mol
# Density = 2.148922 g / cm^3
# Si number density = 21.538240 Si / 1000 Ang^3
#
#
#
# Elastic Constant Matrix: (Units=GPa)
#
#
# Indices 1 2 3 4 5 6 
#
# 1 49.0623 -9.2782 3.4418 0.0000 -0.0967 0.0000
# 2 -9.2782 18.3538 4.3324 0.0000 -0.9213 0.0000
# 3 3.4418 4.3324 104.4579 0.0000 -3.5781 0.0000
# 4 0.0000 0.0000 0.0000 22.2073 0.0000 -8.1989
# 5 -0.0967 -0.9213 -3.5781 0.0000 44.2231 0.0000
# 6 0.0000 0.0000 0.0000 -8.1989 0.0000 -6.7798
#
#
#
# Elastic Compliance Matrix: (Units=1/GPa)
#
#
# Indices 1 2 3 4 5 6 
#
# 1 0.022695 0.011773 -0.001229 0.000000 0.000195 0.000000
# 2 0.011773 0.061171 -0.002888 0.000000 0.001066 0.000000
# 3 -0.001229 -0.002888 0.009758 0.000000 0.000727 0.000000
# 4 0.000000 0.000000 0.000000 0.031131 0.000000 -0.037647
# 5 0.000195 0.001066 0.000727 0.000000 0.022694 0.000000
# 6 0.000000 0.000000 0.000000 -0.037647 0.000000 -0.101970
#
#
# Mechanical properties :
#
#
# Convention : Reuss Voigt Hill
#
# Bulk Modulus (GPa) = 9.17977 18.76288 13.97133
# Shear Modulus (GPa) = 75.20828 23.48866 49.34847
#
# Velocity S-wave (km/s) = 5.91560 3.30594 4.79184
# Velocity P-wave (km/s) = 7.13655 4.82728 6.09233
#
# Compressibility (1/GPa) = 0.10893515
#
# Stress axis : x y z
#
# Youngs Moduli (GPa) = 44.06207 16.34753 102.47548
#
# Poissons Ratio (x) = -0.19246 0.12598
# Poissons Ratio (y) = -0.51874 0.29599
# Poissons Ratio (z) = 0.05417 0.04722
#
# Static dielectric constant tensor:
#      x y z
#    x 1.876430 0.000000 -0.016830 
#    y 0.000000 1.818290 0.000000 
#    z -0.016830 0.000000 1.843170 
# 
# From -- ./inp_files/169172.got.cif
#   From: 2010.05.17/outbox.cif.g08.bks.cpg/sg15_85_cif.got.tgz:169172.got - 2010.06.03 18:47:42.
