data_PCOD9280849
_publ_section_title
;
Structure prediction by ZEFSAII (Michael W. Deem and Ramdas Pophale) SiO2 
 PCOD9280849
Probable space group: C 2/C
;
_chemical_formula_sum "Si O2"
_cell_formula_units_Z 64
_cell_length_a 9.472241
_cell_length_b 16.293118
_cell_length_c 30.359015
_cell_angle_alpha 90.000000
_cell_angle_beta 38.801191
_cell_angle_gamma 90.000000
_cell_volume 2935.951512
_symmetry_space_group_name_H-M "C 2/C"
_symmetry_group_IT_number 15
_symmetry_cell_setting 'monoclinic'
loop_
_space_group_symop_operation_xyz
x,y,z
-x,y,1/2-z
-x,-y,-z
x,-y,1/2+z
1/2+x,1/2+y,z
1/2-x,1/2+y,1/2-z
1/2-x,1/2-y,-z
1/2+x,1/2-y,1/2+z
loop_
_atom_site_type_symbol
_atom_site_label
_atom_site_fract_x
_atom_site_fract_y
_atom_site_fract_z
Si Si1 0.086953 0.543528 0.180938
Si Si2 0.604703 0.922161 0.524497
Si Si3 0.256848 0.044201 0.181446
Si Si4 0.512005 0.325751 0.027688
Si Si5 0.082260 0.344040 0.182372
Si Si6 0.990812 0.328299 0.469773
Si Si7 0.091075 0.918721 0.530536
Si Si8 0.243774 0.654993 0.817892
O O1 0.090486 0.443777 0.180796
O O2 0.339411 0.573142 0.109634
O O3 0.000000 0.570746 0.250000
O O4 0.918966 0.569506 0.182486
O O5 0.372218 0.929856 0.607603
O O6 0.573283 0.903280 0.480818
O O7 0.748336 0.848933 0.511250
O O8 0.759734 0.001118 0.496228
O O9 0.000000 0.072473 0.250000
O O10 0.254857 0.944685 0.182388
O O11 0.330550 0.313692 0.110007
O O12 0.515710 0.250052 0.994144
O O13 0.421823 0.400042 0.018369
O O14 0.000000 0.316301 0.250000
O O15 0.912689 0.318689 0.184718
O O16 0.135571 0.320564 0.390516
O O17 0.734445 0.346766 0.518516
O O18 0.500000 0.683460 0.750000
#
# Coordination Sequence:
#
# PCOD9280849 Si02
#       8
#     8   8   8   8   8   8   8   8
#     4  10  21  37  65 100 129 173 227 286 332 386
#     4  12  24  42  69 101 131 177 230 280 333 397
#     4  10  21  38  63  97 137 171 222 286 336 388
#     4  12  24  45  69  97 138 178 223 275 337 405
#     4  10  21  39  66  96 128 175 226 271 328 403
#     4  12  27  41  67 103 141 175 217 282 345 396
#     4  12  22  42  72  99 131 173 236 281 325 399
#     4  10  22  39  63  97 133 172 222 273 334 402
#
# _framework density 21.798725000000001
#
# number of rings (size 3 to 8) (size 9 to 14) (size 15 to 20)
#    0.000    1.000    5.000    2.250    3.500    1.000 
#    0.000    1.250    0.000    0.000    0.000    0.000 
#    0.000    0.000    0.000    0.000    0.000    0.000 
#
# Total GULP energy -179125.820679 kJ/mol
# GULP energy per Si atom -5597.681896 kJ/mol
# Density = 2.174911 g / cm^3
# Si number density = 21.798725 Si / 1000 Ang^3
#
#
#
# Elastic Constant Matrix: (Units=GPa)
#
#
# Indices 1 2 3 4 5 6 
#
# 1 114.2098 21.1785 75.6738 -0.0016 3.8034 0.0024
# 2 21.1785 38.1623 24.8062 0.0001 -1.1528 0.0004
# 3 75.6738 24.8062 222.0857 -0.0001 2.3527 -0.0009
# 4 -0.0016 0.0001 -0.0001 8.3102 0.0000 1.3605
# 5 3.8034 -1.1528 2.3527 0.0000 49.9193 -0.0008
# 6 0.0024 0.0004 -0.0009 1.3605 -0.0008 29.7458
#
#
#
# Elastic Compliance Matrix: (Units=1/GPa)
#
#
# Indices 1 2 3 4 5 6 
#
# 1 0.011962 -0.004335 -0.003583 0.000003 -0.000843 -0.000001
# 2 -0.004335 0.029858 -0.001870 -0.000001 0.001108 0.000000
# 3 -0.003583 -0.001870 0.005933 -0.000001 -0.000050 0.000001
# 4 0.000003 -0.000001 -0.000001 0.121242 0.000000 -0.005545
# 5 -0.000843 0.001108 -0.000050 0.000000 0.020124 0.000001
# 6 -0.000001 0.000000 0.000001 -0.005545 0.000001 0.033872
#
#
# Mechanical properties :
#
#
# Convention : Reuss Voigt Hill
#
# Bulk Modulus (GPa) = 35.48827 68.64163 52.06495
# Shear Modulus (GPa) = 19.84457 34.44834 27.14646
#
# Velocity S-wave (km/s) = 3.02048 3.97960 3.53274
# Velocity P-wave (km/s) = 5.33664 7.25765 6.36998
#
# Compressibility (1/GPa) = 0.02817832
#
# Stress axis : x y z
#
# Youngs Moduli (GPa) = 83.60131 33.49142 168.55139
#
# Poissons Ratio (x) = 0.14518 0.60387
# Poissons Ratio (y) = 0.36240 0.31515
# Poissons Ratio (z) = 0.29952 0.06262
#
# Static dielectric constant tensor:
#      x y z
#    x 1.779920 0.000000 -0.002640 
#    y 0.000000 1.890700 0.000000 
#    z -0.002640 0.000000 1.742830 
# 
# From -- ./inp_files/308743.got.cif
#   From: 2010.05.17/outbox.cif.g08.bks.cpg/sg15_155_cif.got.tgz:308743.got - 2010.06.03 18:47:42.
