data_PCOD9280545
_publ_section_title
;
Structure prediction by ZEFSAII (Michael W. Deem and Ramdas Pophale) SiO2 
 PCOD9280545
Probable space group: C 2/C
;
_chemical_formula_sum "Si O2"
_cell_formula_units_Z 48
_cell_length_a 14.787553
_cell_length_b 14.049872
_cell_length_c 17.396444
_cell_angle_alpha 90.000000
_cell_angle_beta 32.556502
_cell_angle_gamma 90.000000
_cell_volume 1944.989315
_symmetry_space_group_name_H-M "C 2/C"
_symmetry_group_IT_number 15
_symmetry_cell_setting 'monoclinic'
loop_
_space_group_symop_operation_xyz
x,y,z
-x,y,1/2-z
-x,-y,-z
x,-y,1/2+z
1/2+x,1/2+y,z
1/2-x,1/2+y,1/2-z
1/2-x,1/2-y,-z
1/2+x,1/2-y,1/2+z
loop_
_atom_site_type_symbol
_atom_site_label
_atom_site_fract_x
_atom_site_fract_y
_atom_site_fract_z
Si Si1 0.703797 0.505568 0.365179
Si Si2 0.438802 0.737431 0.426779
Si Si3 0.173309 0.801173 0.946414
Si Si4 0.282766 0.687156 0.699146
Si Si5 0.301852 0.611332 0.904451
Si Si6 0.257761 0.916796 0.492508
O O1 0.500000 0.500000 0.500000
O O2 0.743950 0.616942 0.338308
O O3 0.763880 0.425257 0.263264
O O4 0.765828 0.466610 0.403353
O O5 0.313200 0.718065 0.587537
O O6 0.619060 0.752599 0.334729
O O7 0.388347 0.833311 0.418419
O O8 0.415318 0.644466 0.390799
O O9 0.230663 0.843599 0.988074
O O10 0.970644 0.801028 0.096063
O O11 0.235169 0.692872 0.895417
O O12 0.500000 0.602094 0.750000
O O13 0.232722 0.503887 0.954793
#
# Coordination Sequence:
#
# PCOD9280545 Si02
#       6
#     8   8   8   8   8   8
#     4   8  16  36  59  82 112 157 202 245 293 358
#     4  10  22  37  62  89 121 162 203 259 310 362
#     4   9  20  40  57  85 120 159 208 247 311 378
#     4  10  21  38  62  90 120 161 207 259 308 373
#     4  10  21  37  61  86 120 164 197 259 315 374
#     4   9  20  37  57  86 121 155 203 249 311 367
#
# _framework density 24.678799999999999
#
# number of rings (size 3 to 8) (size 9 to 14) (size 15 to 20)
#    0.000    2.667    0.000    0.000    4.667    5.333 
#    9.000    5.833    0.000    0.000    0.000    0.000 
#    0.000    0.000    0.000    0.000    0.000    0.000 
#
# Total GULP energy -133830.803003 kJ/mol
# GULP energy per Si atom -5576.283458 kJ/mol
# Density = 2.462263 g / cm^3
# Si number density = 24.678800 Si / 1000 Ang^3
#
#
#
# Elastic Constant Matrix: (Units=GPa)
#
#
# Indices 1 2 3 4 5 6 
#
# 1 63.9722 37.4433 -8.2251 0.0008 -16.7048 0.0000
# 2 37.4433 233.7289 33.8135 0.0011 -14.8600 -0.0001
# 3 -8.2251 33.8135 24.2091 0.0037 -4.6016 -0.0004
# 4 0.0008 0.0011 0.0037 19.7226 -0.0008 -2.8065
# 5 -16.7048 -14.8600 -4.6016 -0.0008 23.9319 -0.0001
# 6 0.0000 -0.0001 -0.0004 -2.8065 -0.0001 49.0535
#
#
#
# Elastic Compliance Matrix: (Units=1/GPa)
#
#
# Indices 1 2 3 4 5 6 
#
# 1 0.027048 -0.006231 0.021532 -0.000004 0.019151 0.000000
# 2 -0.006231 0.006887 -0.012196 0.000002 -0.002418 0.000000
# 3 0.021532 -0.012196 0.069619 -0.000012 0.020843 0.000000
# 4 -0.000004 0.000002 -0.000012 0.051119 -0.000002 0.002925
# 5 0.019151 -0.002418 0.020843 -0.000002 0.057660 0.000000
# 6 0.000000 0.000000 0.000000 0.002925 0.000000 0.020553
#
#
# Mechanical properties :
#
#
# Convention : Reuss Voigt Hill
#
# Bulk Modulus (GPa) = 9.11035 49.77484 29.44259
# Shear Modulus (GPa) = 18.99238 35.80017 27.39627
#
# Velocity S-wave (km/s) = 2.77715 3.81286 3.33545
# Velocity P-wave (km/s) = 3.73938 6.29260 5.17589
#
# Compressibility (1/GPa) = 0.10976525
#
# Stress axis : x y z
#
# Youngs Moduli (GPa) = 36.97137 145.19505 14.36396
#
# Poissons Ratio (x) = 0.90464 -0.30929
# Poissons Ratio (y) = 0.23035 0.17518
# Poissons Ratio (z) = -0.79608 1.77080
#
# Static dielectric constant tensor:
#      x y z
#    x 2.129570 0.000000 0.061010 
#    y 0.000000 1.984600 0.000000 
#    z 0.061010 0.000000 1.957130 
# 
# From -- ./inp_files/277219.got.cif
#   From: 2010.05.17/outbox.cif.g08.bks.cpg/sg15_139_cif.got.tgz:277219.got - 2010.06.03 18:47:42.
