data_PCOD9280259
_publ_section_title
;
Structure prediction by ZEFSAII (Michael W. Deem and Ramdas Pophale) SiO2 
 PCOD9280259
Probable space group: C 2/C
;
_chemical_formula_sum "Si O2"
_cell_formula_units_Z 64
_cell_length_a 16.338825
_cell_length_b 7.975275
_cell_length_c 28.485861
_cell_angle_alpha 90.000000
_cell_angle_beta 133.358386
_cell_angle_gamma 90.000000
_cell_volume 2698.821506
_symmetry_space_group_name_H-M "C 2/C"
_symmetry_group_IT_number 15
_symmetry_cell_setting 'monoclinic'
loop_
_space_group_symop_operation_xyz
x,y,z
-x,y,1/2-z
-x,-y,-z
x,-y,1/2+z
1/2+x,1/2+y,z
1/2-x,1/2+y,1/2-z
1/2-x,1/2-y,-z
1/2+x,1/2-y,1/2+z
loop_
_atom_site_type_symbol
_atom_site_label
_atom_site_fract_x
_atom_site_fract_y
_atom_site_fract_z
Si Si1 0.061020 0.477015 0.346083
Si Si2 0.665773 0.857278 0.719640
Si Si3 0.684326 0.759802 0.324181
Si Si4 0.647584 0.469150 0.637697
Si Si5 0.260122 0.762007 0.605108
Si Si6 0.416375 0.308973 0.566255
Si Si7 0.322202 0.552553 0.721048
Si Si8 0.786354 0.574684 0.454720
O O1 0.106996 0.399424 0.316322
O O2 0.148189 0.631692 0.387889
O O3 0.063683 0.330347 0.385648
O O4 0.935773 0.544366 0.296649
O O5 0.780092 0.866757 0.795308
O O6 0.632319 0.663798 0.718213
O O7 0.700641 0.972250 0.688477
O O8 0.618350 0.624767 0.266586
O O9 0.734780 0.657229 0.387687
O O10 0.788561 0.852077 0.339614
O O11 0.675019 0.387425 0.597648
O O12 0.518272 0.435238 0.597551
O O13 0.320179 0.664115 0.672941
O O14 0.197523 0.619744 0.550580
O O15 0.305848 0.408044 0.540090
O O16 0.388530 0.192997 0.510438
#
# Coordination Sequence:
#
# PCOD9280259 Si02
#       8
#     8   8   8   8   8   8   8   8
#     4  10  21  39  61  87 121 158 198 242 290 351
#     4  11  22  38  58  85 119 156 197 241 290 344
#     4   9  20  39  60  85 119 153 195 245 294 351
#     4  10  21  37  57  85 118 156 199 240 290 351
#     4   9  20  37  57  87 119 151 197 241 288 348
#     4  10  21  39  62  86 117 156 198 243 294 350
#     4  10  21  38  59  83 116 154 195 239 288 347
#     4   9  20  39  60  86 119 155 195 245 298 345
#
# _framework density 23.714053
#
# number of rings (size 3 to 8) (size 9 to 14) (size 15 to 20)
#    0.000    2.250    0.000    2.250    0.000    8.000 
#    0.000   11.250    0.000    0.000    0.000    0.000 
#    0.000    0.000    0.000    0.000    0.000    0.000 
#
# Total GULP energy -178480.158817 kJ/mol
# GULP energy per Si atom -5577.504963 kJ/mol
# Density = 2.366008 g / cm^3
# Si number density = 23.714053 Si / 1000 Ang^3
#
#
#
# Elastic Constant Matrix: (Units=GPa)
#
#
# Indices 1 2 3 4 5 6 
#
# 1 71.7896 7.6516 5.2415 0.0000 10.1199 0.0000
# 2 7.6516 102.6727 -4.7822 0.0000 2.1726 0.0000
# 3 5.2415 -4.7822 26.9162 0.0000 2.0995 0.0000
# 4 0.0000 0.0000 0.0000 11.5636 0.0000 1.2221
# 5 10.1199 2.1726 2.0995 0.0000 27.3190 0.0000
# 6 0.0000 0.0000 0.0000 1.2221 0.0000 18.4551
#
#
#
# Elastic Compliance Matrix: (Units=1/GPa)
#
#
# Indices 1 2 3 4 5 6 
#
# 1 0.014989 -0.001132 -0.002710 0.000000 -0.005254 0.000000
# 2 -0.001132 0.009930 0.002026 0.000000 -0.000526 0.000000
# 3 -0.002710 0.002026 0.038203 0.000000 -0.002093 0.000000
# 4 0.000000 0.000000 0.000000 0.087088 0.000000 -0.005767
# 5 -0.005254 -0.000526 -0.002093 0.000000 0.038754 0.000000
# 6 0.000000 0.000000 0.000000 -0.005767 0.000000 0.054567
#
#
# Mechanical properties :
#
#
# Convention : Reuss Voigt Hill
#
# Bulk Modulus (GPa) = 16.81000 24.17782 20.49391
# Shear Modulus (GPa) = 18.72709 24.35204 21.53956
#
# Velocity S-wave (km/s) = 2.81322 3.20801 3.01708
# Velocity P-wave (km/s) = 4.20194 4.89280 4.56047
#
# Compressibility (1/GPa) = 0.05948841
#
# Stress axis : x y z
#
# Youngs Moduli (GPa) = 66.71662 100.70969 26.17581
#
# Poissons Ratio (x) = 0.11401 0.07094
# Poissons Ratio (y) = 0.07553 -0.05302
# Poissons Ratio (z) = 0.18081 -0.20400
#
# Static dielectric constant tensor:
#      x y z
#    x 1.960400 0.000000 -0.066600 
#    y 0.000000 1.980210 0.000000 
#    z -0.066600 0.000000 1.926560 
# 
# From -- ./inp_files/313162.got.cif
#   From: 2010.05.17/outbox.cif.g08.bks.cpg/sg15_157_cif.got.tgz:313162.got - 2010.06.03 18:47:42.
