data_PCOD9280133
_publ_section_title
;
Structure prediction by ZEFSAII (Michael W. Deem and Ramdas Pophale) SiO2 
 PCOD9280133
Probable space group: C 2/C
;
_chemical_formula_sum "Si O2"
_cell_formula_units_Z 60
_cell_length_a 17.707457
_cell_length_b 26.390135
_cell_length_c 9.867983
_cell_angle_alpha 90.000000
_cell_angle_beta 131.099532
_cell_angle_gamma 90.000000
_cell_volume 3474.954220
_symmetry_space_group_name_H-M "C 2/C"
_symmetry_group_IT_number 15
_symmetry_cell_setting 'monoclinic'
loop_
_space_group_symop_operation_xyz
x,y,z
-x,y,1/2-z
-x,-y,-z
x,-y,1/2+z
1/2+x,1/2+y,z
1/2-x,1/2+y,1/2-z
1/2-x,1/2-y,-z
1/2+x,1/2-y,1/2+z
loop_
_atom_site_type_symbol
_atom_site_label
_atom_site_fract_x
_atom_site_fract_y
_atom_site_fract_z
Si Si1 0.059035 0.276831 0.459454
Si Si2 0.500000 0.691835 0.750000
Si Si3 0.429121 0.607267 0.875351
Si Si4 0.874992 0.743624 0.927623
Si Si5 0.381058 0.518945 0.619899
Si Si6 0.253973 0.668792 0.135744
Si Si7 0.203669 0.819950 0.126768
Si Si8 0.857951 0.937225 0.803926
O O1 0.145889 0.318626 0.570478
O O2 0.118660 0.223590 0.523360
O O3 0.000000 0.283371 0.250000
O O4 0.977778 0.275904 0.482300
O O5 0.472680 0.654774 0.841374
O O6 0.406762 0.727590 0.601439
O O7 0.377279 0.569295 0.708314
O O8 0.350702 0.629321 0.889009
O O9 0.524358 0.579076 0.053380
O O10 0.828700 0.787322 0.776487
O O11 0.791060 0.700239 0.829165
O O12 0.500000 0.508647 0.750000
O O13 0.335765 0.472439 0.649240
O O14 0.342111 0.531629 0.424492
O O15 0.295825 0.614386 0.226079
O O16 0.251280 0.674130 0.969992
#
# Coordination Sequence:
#
# PCOD9280133 Si02
#       8
#     8   4   8   8   8   8   8   8
#     4  11  18  35  52  77 111 138 179 233 255 309
#     4  12  20  36  52  72 118 156 174 220 266 318
#     4  11  20  35  52  78 113 145 180 220 270 327
#     4  11  21  37  50  79 112 148 189 216 263 322
#     4  10  21  37  52  79 109 143 175 226 276 338
#     4  11  21  33  57  79 109 144 180 223 280 319
#     4  11  22  31  56  82 104 151 185 220 267 320
#     4  11  22  36  55  80 112 139 185 218 284 333
#
# _framework density 17.266413
#
# number of rings (size 3 to 8) (size 9 to 14) (size 15 to 20)
#    0.000    1.067    7.333    2.400    3.733    0.533 
#    2.400    0.000    0.000    0.000    0.000    3.733 
#    0.000    0.000    0.000    0.000    0.000    0.000 
#
# Total GULP energy -167515.723319 kJ/mol
# GULP energy per Si atom -5583.857444 kJ/mol
# Density = 1.722711 g / cm^3
# Si number density = 17.266413 Si / 1000 Ang^3
#
#
#
# Elastic Constant Matrix: (Units=GPa)
#
#
# Indices 1 2 3 4 5 6 
#
# 1 56.2764 40.6795 17.3884 0.0000 14.6516 0.0000
# 2 40.6795 76.0911 29.9827 0.0000 -3.4077 0.0000
# 3 17.3884 29.9827 42.6180 0.0000 3.0552 0.0000
# 4 0.0000 0.0000 0.0000 24.1692 0.0000 -9.4558
# 5 14.6516 -3.4077 3.0552 0.0000 15.1916 0.0000
# 6 0.0000 0.0000 0.0000 -9.4558 0.0000 21.3176
#
#
#
# Elastic Compliance Matrix: (Units=1/GPa)
#
#
# Indices 1 2 3 4 5 6 
#
# 1 0.062194 -0.039268 0.007287 0.000000 -0.070257 0.000000
# 2 -0.039268 0.043684 -0.018393 0.000000 0.051370 0.000000
# 3 0.007287 -0.018393 0.034732 0.000000 -0.018139 0.000000
# 4 0.000000 0.000000 0.000000 0.050063 0.000000 0.022206
# 5 -0.070257 0.051370 -0.018139 0.000000 0.148757 0.000000
# 6 0.000000 0.000000 0.000000 0.022206 0.000000 0.056760
#
#
# Mechanical properties :
#
#
# Convention : Reuss Voigt Hill
#
# Bulk Modulus (GPa) = 25.08743 39.00962 32.04852
# Shear Modulus (GPa) = 9.79961 17.93135 13.86548
#
# Velocity S-wave (km/s) = 2.38492 3.22609 2.83686
# Velocity P-wave (km/s) = 4.70584 6.04307 5.41589
#
# Compressibility (1/GPa) = 0.03986059
#
# Stress axis : x y z
#
# Youngs Moduli (GPa) = 16.07866 22.89193 28.79208
#
# Poissons Ratio (x) = 0.89891 -0.20980
# Poissons Ratio (y) = 0.63137 0.52959
# Poissons Ratio (z) = -0.11716 0.42106
#
# Static dielectric constant tensor:
#      x y z
#    x 1.592650 0.000000 -0.027960 
#    y 0.000000 1.592390 0.000000 
#    z -0.027960 0.000000 1.600140 
# 
# From -- ./inp_files/52201.got.cif
#   From: 2010.05.17/outbox.cif.g08.bks.cpg/sg15_27_cif.got.tgz:52201.got - 2010.06.03 18:47:42.
