data_PCOD9280354
_publ_section_title
;
Structure prediction by ZEFSAII (Michael W. Deem and Ramdas Pophale) SiO2 
 PCOD9280354
Probable space group: C 2/C
;
_chemical_formula_sum "Si O2"
_cell_formula_units_Z 52
_cell_length_a 15.827026
_cell_length_b 13.415963
_cell_length_c 13.333828
_cell_angle_alpha 90.000000
_cell_angle_beta 109.035818
_cell_angle_gamma 90.000000
_cell_volume 2676.409133
_symmetry_space_group_name_H-M "C 2/C"
_symmetry_group_IT_number 15
_symmetry_cell_setting 'monoclinic'
loop_
_space_group_symop_operation_xyz
x,y,z
-x,y,1/2-z
-x,-y,-z
x,-y,1/2+z
1/2+x,1/2+y,z
1/2-x,1/2+y,1/2-z
1/2-x,1/2-y,-z
1/2+x,1/2-y,1/2+z
loop_
_atom_site_type_symbol
_atom_site_label
_atom_site_fract_x
_atom_site_fract_y
_atom_site_fract_z
Si Si1 0.633262 0.074828 0.193834
Si Si2 0.758080 0.895827 0.549892
Si Si3 0.136987 0.716948 0.850668
Si Si4 0.000000 0.270885 0.750000
Si Si5 0.752823 0.904952 0.930635
Si Si6 0.610997 0.750840 0.971055
Si Si7 0.049293 0.360328 0.132478
O O1 0.686266 0.103805 0.113228
O O2 0.568617 0.158986 0.214739
O O3 0.706833 0.056902 0.310457
O O4 0.573548 0.976615 0.150093
O O5 0.843619 0.832518 0.619173
O O6 0.716865 0.839916 0.437106
O O7 0.772585 0.007023 0.516372
O O8 0.125200 0.694113 0.729105
O O9 0.046934 0.669741 0.861859
O O10 0.055066 0.211939 0.854751
O O11 0.682511 0.829089 0.954361
O O12 0.840681 0.838052 0.951916
O O13 0.553038 0.817275 0.023217
#
# Coordination Sequence:
#
# PCOD9280354 Si02
#       7
#     8   8   8   4   8   8   8
#     4  11  21  35  63  85 118 152 202 243 305 340
#     4  11  21  39  56  85 117 161 188 240 294 365
#     4  10  23  35  58  86 123 145 196 239 302 350
#     4  10  22  36  54  90 116 152 196 250 286 354
#     4  10  21  38  57  86 115 156 200 245 286 370
#     4  10  21  37  59  83 120 151 201 246 296 342
#     4  11  20  37  59  89 114 155 190 256 294 343
#
# _framework density 19.429017999999999
#
# number of rings (size 3 to 8) (size 9 to 14) (size 15 to 20)
#    0.000    1.538    3.077    2.769    2.154    1.231 
#    0.000    3.846    0.000    0.000    0.000    0.000 
#    0.000    0.000    0.000    0.000    0.000    0.000 
#
# Total GULP energy -145025.134879 kJ/mol
# GULP energy per Si atom -5577.889803 kJ/mol
# Density = 1.938480 g / cm^3
# Si number density = 19.429018 Si / 1000 Ang^3
#
#
#
# Elastic Constant Matrix: (Units=GPa)
#
#
# Indices 1 2 3 4 5 6 
#
# 1 29.9428 10.8542 0.7099 0.0000 0.5816 0.0000
# 2 10.8542 45.0664 4.5545 0.0000 8.2779 0.0000
# 3 0.7099 4.5545 65.8998 0.0000 -2.4814 0.0000
# 4 0.0000 0.0000 0.0000 58.1948 0.0000 5.0541
# 5 0.5816 8.2779 -2.4814 0.0000 25.9015 0.0000
# 6 0.0000 0.0000 0.0000 5.0541 0.0000 23.1431
#
#
#
# Elastic Compliance Matrix: (Units=1/GPa)
#
#
# Indices 1 2 3 4 5 6 
#
# 1 0.036708 -0.009273 0.000327 0.000000 0.002171 0.000000
# 2 -0.009273 0.026160 -0.002022 0.000000 -0.008346 0.000000
# 3 0.000327 -0.002022 0.015390 0.000000 0.002113 0.000000
# 4 0.000000 0.000000 0.000000 0.017516 0.000000 -0.003825
# 5 0.002171 -0.008346 0.002113 0.000000 0.041429 0.000000
# 6 0.000000 0.000000 0.000000 -0.003825 0.000000 0.044045
#
#
# Mechanical properties :
#
#
# Convention : Reuss Voigt Hill
#
# Bulk Modulus (GPa) = 17.75478 19.23845 18.49662
# Shear Modulus (GPa) = 22.52667 29.76726 26.14697
#
# Velocity S-wave (km/s) = 3.40874 3.91846 3.67245
# Velocity P-wave (km/s) = 4.96496 5.51324 5.24627
#
# Compressibility (1/GPa) = 0.05632286
#
# Stress axis : x y z
#
# Youngs Moduli (GPa) = 27.24166 38.22595 64.97567
#
# Poissons Ratio (x) = 0.35447 -0.02126
# Poissons Ratio (y) = 0.25261 0.13140
# Poissons Ratio (z) = -0.00891 0.07731
#
# Static dielectric constant tensor:
#      x y z
#    x 1.692320 0.000000 0.007870 
#    y 0.000000 1.676150 0.000000 
#    z 0.007870 0.000000 1.723690 
# 
# From -- ./inp_files/105476.got.cif
#   From: 2010.05.17/outbox.cif.g08.bks.cpg/sg15_53_cif.got.tgz:105476.got - 2010.06.03 18:47:42.
