data_PCOD9280924
_publ_section_title
;
Structure prediction by ZEFSAII (Michael W. Deem and Ramdas Pophale) SiO2 
 PCOD9280924
Probable space group: C 2/C
;
_chemical_formula_sum "Si O2"
_cell_formula_units_Z 56
_cell_length_a 15.020154
_cell_length_b 15.085717
_cell_length_c 11.261356
_cell_angle_alpha 90.000000
_cell_angle_beta 66.461260
_cell_angle_gamma 90.000000
_cell_volume 2339.381320
_symmetry_space_group_name_H-M "C 2/C"
_symmetry_group_IT_number 15
_symmetry_cell_setting 'monoclinic'
loop_
_space_group_symop_operation_xyz
x,y,z
-x,y,1/2-z
-x,-y,-z
x,-y,1/2+z
1/2+x,1/2+y,z
1/2-x,1/2+y,1/2-z
1/2-x,1/2-y,-z
1/2+x,1/2-y,1/2+z
loop_
_atom_site_type_symbol
_atom_site_label
_atom_site_fract_x
_atom_site_fract_y
_atom_site_fract_z
Si Si1 0.943651 0.175899 0.667478
Si Si2 0.636899 0.881074 0.018864
Si Si3 0.551084 0.219814 0.928364
Si Si4 0.549124 0.474597 0.845010
Si Si5 0.732700 0.842820 0.199732
Si Si6 0.409650 0.920912 0.885832
Si Si7 0.264761 0.055458 0.268423
O O1 0.926697 0.074288 0.710127
O O2 0.834033 0.199837 0.687866
O O3 0.000000 0.217203 0.750000
O O4 0.015055 0.193789 0.518688
O O5 0.547569 0.814604 0.078619
O O6 0.721696 0.853350 0.064071
O O7 0.593484 0.977270 0.073207
O O8 0.678184 0.896412 0.866557
O O9 0.643439 0.215261 0.794963
O O10 0.577197 0.146855 0.014993
O O11 0.500000 0.434395 0.750000
O O12 0.651105 0.429003 0.816647
O O13 0.500000 0.500000 0.000000
O O14 0.720486 0.947279 0.246335
O O15 0.500000 0.912182 0.750000
O O16 0.309611 0.909645 0.867113
#
# Coordination Sequence:
#
# PCOD9280924 Si02
#       7
#     8   8   8   8   8   8   8
#     4  10  25  45  63  92 132 174 229 276 329 402
#     4  11  21  37  64 101 132 168 215 274 337 397
#     4  12  22  40  65  92 136 176 211 271 334 406
#     4  10  24  45  70  96 128 174 231 288 333 400
#     4  10  23  41  64  93 136 172 215 283 331 390
#     4  11  20  33  59  99 131 159 209 265 328 396
#     4  10  21  37  66  97 129 164 217 275 339 389
#
# _framework density 23.937954000000001
#
# number of rings (size 3 to 8) (size 9 to 14) (size 15 to 20)
#    0.000    1.429    2.857    3.000    6.000    2.286 
#    2.571    1.429    0.000    0.000    0.000    0.000 
#    0.000    0.000    0.000    0.000    0.000    0.000 
#
# Total GULP energy -156356.833903 kJ/mol
# GULP energy per Si atom -5584.172639 kJ/mol
# Density = 2.388347 g / cm^3
# Si number density = 23.937954 Si / 1000 Ang^3
#
#
#
# Elastic Constant Matrix: (Units=GPa)
#
#
# Indices 1 2 3 4 5 6 
#
# 1 171.2582 17.1867 24.2592 0.0000 2.8345 0.0000
# 2 17.1867 70.2233 -1.8003 0.0000 -0.0471 0.0000
# 3 24.2592 -1.8003 51.3143 0.0000 1.4156 0.0000
# 4 0.0000 0.0000 0.0000 25.0217 0.0000 -6.7125
# 5 2.8345 -0.0471 1.4156 0.0000 35.5529 0.0000
# 6 0.0000 0.0000 0.0000 -6.7125 0.0000 -27.4506
#
#
#
# Elastic Compliance Matrix: (Units=1/GPa)
#
#
# Indices 1 2 3 4 5 6 
#
# 1 0.006451 -0.001658 -0.003097 0.000000 -0.000393 0.000000
# 2 -0.001658 0.014679 0.001296 0.000000 0.000100 0.000000
# 3 -0.003097 0.001296 0.021014 0.000000 -0.000588 0.000000
# 4 0.000000 0.000000 0.000000 0.037505 0.000000 -0.009171
# 5 -0.000393 0.000100 -0.000588 0.000000 0.028182 0.000000
# 6 0.000000 0.000000 0.000000 -0.009171 0.000000 -0.034186
#
#
# Mechanical properties :
#
#
# Convention : Reuss Voigt Hill
#
# Bulk Modulus (GPa) = 28.38846 41.34301 34.86573
# Shear Modulus (GPa) = 54.16855 23.50148 38.83502
#
# Velocity S-wave (km/s) = 4.76213 3.13671 4.03217
# Velocity P-wave (km/s) = 6.49015 5.51607 6.02284
#
# Compressibility (1/GPa) = 0.03522558
#
# Stress axis : x y z
#
# Youngs Moduli (GPa) = 155.02011 68.12229 47.58827
#
# Poissons Ratio (x) = 0.11298 0.14738
# Poissons Ratio (y) = 0.25709 -0.06169
# Poissons Ratio (z) = 0.48010 -0.08831
#
# Static dielectric constant tensor:
#      x y z
#    x 1.948240 0.000000 0.081340 
#    y 0.000000 1.953150 0.000000 
#    z 0.081340 0.000000 1.946840 
# 
# From -- ./inp_files/98663.got.cif
#   From: 2010.05.17/outbox.cif.g08.bks.cpg/sg15_50_cif.got.tgz:98663.got - 2010.06.03 18:47:42.
