data_PCOD9280698
_publ_section_title
;
Structure prediction by ZEFSAII (Michael W. Deem and Ramdas Pophale) SiO2 
 PCOD9280698
Probable space group: C 2/C
;
_chemical_formula_sum "Si O2"
_cell_formula_units_Z 48
_cell_length_a 17.929702
_cell_length_b 22.450846
_cell_length_c 8.374037
_cell_angle_alpha 90.000000
_cell_angle_beta 138.073819
_cell_angle_gamma 90.000000
_cell_volume 2252.315973
_symmetry_space_group_name_H-M "C 2/C"
_symmetry_group_IT_number 15
_symmetry_cell_setting 'monoclinic'
loop_
_space_group_symop_operation_xyz
x,y,z
-x,y,1/2-z
-x,-y,-z
x,-y,1/2+z
1/2+x,1/2+y,z
1/2-x,1/2+y,1/2-z
1/2-x,1/2-y,-z
1/2+x,1/2-y,1/2+z
loop_
_atom_site_type_symbol
_atom_site_label
_atom_site_fract_x
_atom_site_fract_y
_atom_site_fract_z
Si Si1 0.830004 0.929728 0.246290
Si Si2 0.000000 0.879812 0.750000
Si Si3 0.872066 0.862089 0.023319
Si Si4 0.368280 0.720027 0.232531
Si Si5 0.202979 0.517613 0.833202
Si Si6 0.000000 0.689678 0.750000
Si Si7 0.840635 0.414503 0.938442
O O1 0.944164 0.919586 0.523725
O O2 0.819402 0.871256 0.115934
O O3 0.741938 0.942762 0.246491
O O4 0.807811 0.985298 0.091235
O O5 0.906529 0.836690 0.683542
O O6 0.000000 0.881406 0.250000
O O7 0.872457 0.801249 0.922903
O O8 0.791912 0.903103 0.788358
O O9 0.458061 0.769369 0.326826
O O10 0.250000 0.750000 0.000000
O O11 0.132838 0.462219 0.654560
O O12 0.138621 0.556367 0.858327
O O13 0.902596 0.647399 0.530722
#
# Coordination Sequence:
#
# PCOD9280698 Si02
#       7
#     8   4   8   8   8   4   8
#     4  10  21  37  62  94 132 167 218 261 329 392
#     4  11  22  38  66  94 128 178 216 269 340 378
#     4  11  21  41  66  93 132 168 211 282 329 386
#     4  11  23  43  66  93 126 175 224 274 336 392
#     4   9  21  40  62  97 130 178 207 267 328 386
#     4  11  24  40  72  94 122 186 220 265 332 390
#     4  10  21  42  65  95 135 167 222 263 322 400
#
# _framework density 21.311395999999998
#
# number of rings (size 3 to 8) (size 9 to 14) (size 15 to 20)
#    0.000    1.667    3.333    1.000    0.000    1.333 
#   10.500    5.000    0.000    0.000    0.000    0.000 
#    0.000    0.000    0.000    0.000    0.000    0.000 
#
# Total GULP energy -133730.810268 kJ/mol
# GULP energy per Si atom -5572.117094 kJ/mol
# Density = 2.126289 g / cm^3
# Si number density = 21.311396 Si / 1000 Ang^3
#
#
#
# Elastic Constant Matrix: (Units=GPa)
#
#
# Indices 1 2 3 4 5 6 
#
# 1 57.2077 46.0073 46.2373 0.0000 -20.6683 0.0000
# 2 46.0073 84.1163 37.0551 0.0000 -14.4205 0.0000
# 3 46.2373 37.0551 91.6277 0.0000 -15.6224 0.0000
# 4 0.0000 0.0000 0.0000 20.7787 0.0000 -10.8663
# 5 -20.6683 -14.4205 -15.6224 0.0000 37.6421 0.0000
# 6 0.0000 0.0000 0.0000 -10.8663 0.0000 29.3431
#
#
#
# Elastic Compliance Matrix: (Units=1/GPa)
#
#
# Indices 1 2 3 4 5 6 
#
# 1 0.049047 -0.017756 -0.015214 0.000000 0.013814 0.000000
# 2 -0.017756 0.021297 0.000082 0.000000 -0.001557 0.000000
# 3 -0.015214 0.000082 0.018444 0.000000 -0.000668 0.000000
# 4 0.000000 0.000000 0.000000 0.059684 0.000000 0.022102
# 5 0.013814 -0.001557 -0.000668 0.000000 0.033278 0.000000
# 6 0.000000 0.000000 0.000000 0.022102 0.000000 0.042264
#
#
# Mechanical properties :
#
#
# Convention : Reuss Voigt Hill
#
# Bulk Modulus (GPa) = 43.45591 54.61681 49.03636
# Shear Modulus (GPa) = 16.80883 24.46291 20.63587
#
# Velocity S-wave (km/s) = 2.81147 3.39171 3.11513
# Velocity P-wave (km/s) = 5.56546 6.40483 5.99984
#
# Compressibility (1/GPa) = 0.02301183
#
# Stress axis : x y z
#
# Youngs Moduli (GPa) = 20.38840 46.95512 54.21722
#
# Poissons Ratio (x) = 0.83373 0.82489
# Poissons Ratio (y) = 0.36201 -0.00444
# Poissons Ratio (z) = 0.31020 -0.00385
#
# Static dielectric constant tensor:
#      x y z
#    x 1.812970 0.000000 0.010720 
#    y 0.000000 1.780710 0.000000 
#    z 0.010720 0.000000 1.792360 
# 
# From -- ./inp_files/58550.got.cif
#   From: 2010.05.17/outbox.cif.g08.bks.cpg/sg15_30_cif.got.tgz:58550.got - 2010.06.03 18:47:42.
