data_PCOD9280427
_publ_section_title
;
Structure prediction by ZEFSAII (Michael W. Deem and Ramdas Pophale) SiO2 
 PCOD9280427
Probable space group: C 2/C
;
_chemical_formula_sum "Si O2"
_cell_formula_units_Z 48
_cell_length_a 22.205296
_cell_length_b 10.113340
_cell_length_c 9.396652
_cell_angle_alpha 90.000000
_cell_angle_beta 80.891526
_cell_angle_gamma 90.000000
_cell_volume 2083.594587
_symmetry_space_group_name_H-M "C 2/C"
_symmetry_group_IT_number 15
_symmetry_cell_setting 'monoclinic'
loop_
_space_group_symop_operation_xyz
x,y,z
-x,y,1/2-z
-x,-y,-z
x,-y,1/2+z
1/2+x,1/2+y,z
1/2-x,1/2+y,1/2-z
1/2-x,1/2-y,-z
1/2+x,1/2-y,1/2+z
loop_
_atom_site_type_symbol
_atom_site_label
_atom_site_fract_x
_atom_site_fract_y
_atom_site_fract_z
Si Si1 0.320493 0.729541 0.502223
Si Si2 0.944406 0.424124 0.945190
Si Si3 0.380374 0.319859 0.397126
Si Si4 0.876705 0.611031 0.761324
Si Si5 0.793847 0.378969 0.778002
Si Si6 0.657131 0.529204 0.326342
O O1 0.250000 0.750000 0.500000
O O2 0.363820 0.754356 0.351316
O O3 0.331750 0.835906 0.623495
O O4 0.327062 0.588701 0.569988
O O5 0.937640 0.281861 0.866162
O O6 0.924341 0.528541 0.835105
O O7 0.897247 0.396113 0.092079
O O8 0.000000 0.500000 0.000000
O O9 0.319739 0.228204 0.382553
O O10 0.373405 0.444741 0.290954
O O11 0.381598 0.376643 0.556459
O O12 0.815222 0.526157 0.805581
O O13 0.721838 0.394183 0.776724
#
# Coordination Sequence:
#
# PCOD9280427 Si02
#       6
#     8   8   8   8   8   8
#     4  11  21  34  58  97 142 186 219 268 334 421
#     4  11  25  46  71  98 124 176 244 312 355 394
#     4  10  25  39  65 101 143 186 235 279 347 412
#     4  11  22  41  66  98 133 173 234 285 351 406
#     4  10  21  37  59  97 142 188 222 267 324 427
#     4  11  22  38  61  99 153 188 223 269 338 429
#
# _framework density 23.037109000000001
#
# number of rings (size 3 to 8) (size 9 to 14) (size 15 to 20)
#    0.000    1.333    3.333    2.000    4.667    0.000 
#    0.000    0.000    0.000    1.000    0.000    0.000 
#    0.000    0.000    0.000    0.000    0.000    0.000 
#
# Total GULP energy -133690.949096 kJ/mol
# GULP energy per Si atom -5570.456212 kJ/mol
# Density = 2.298468 g / cm^3
# Si number density = 23.037109 Si / 1000 Ang^3
#
#
#
# Elastic Constant Matrix: (Units=GPa)
#
#
# Indices 1 2 3 4 5 6 
#
# 1 57.4497 37.5178 13.3606 0.0000 15.9437 0.0000
# 2 37.5178 118.9069 25.8624 0.0000 4.4617 0.0000
# 3 13.3606 25.8624 117.8348 0.0000 9.4356 0.0000
# 4 0.0000 0.0000 0.0000 47.1628 0.0000 15.4678
# 5 15.9437 4.4617 9.4356 0.0000 28.8998 0.0000
# 6 0.0000 0.0000 0.0000 15.4678 0.0000 17.8507
#
#
#
# Elastic Compliance Matrix: (Units=1/GPa)
#
#
# Indices 1 2 3 4 5 6 
#
# 1 0.026144 -0.007707 -0.000219 0.000000 -0.013162 0.000000
# 2 -0.007707 0.011120 -0.001817 0.000000 0.003129 0.000000
# 3 -0.000219 -0.001817 0.009116 0.000000 -0.002575 0.000000
# 4 0.000000 0.000000 0.000000 0.029621 0.000000 -0.025667
# 5 -0.013162 0.003129 -0.002575 0.000000 0.042221 0.000000
# 6 0.000000 0.000000 0.000000 -0.025667 0.000000 0.078261
#
#
# Mechanical properties :
#
#
# Convention : Reuss Voigt Hill
#
# Bulk Modulus (GPa) = 37.18463 49.74146 43.46305
# Shear Modulus (GPa) = 22.22882 33.27936 27.75409
#
# Velocity S-wave (km/s) = 3.10968 3.80491 3.47472
# Velocity P-wave (km/s) = 5.39163 6.39858 5.91657
#
# Compressibility (1/GPa) = 0.02689283
#
# Stress axis : x y z
#
# Youngs Moduli (GPa) = 38.25041 89.93094 109.69369
#
# Poissons Ratio (x) = 0.69314 0.02399
# Poissons Ratio (y) = 0.29481 0.19933
# Poissons Ratio (z) = 0.00837 0.16342
#
# Static dielectric constant tensor:
#      x y z
#    x 1.911350 0.000000 0.062730 
#    y 0.000000 1.978170 0.000000 
#    z 0.062730 0.000000 1.963520 
# 
# From -- ./inp_files/60534.got.cif
#   From: 2010.05.17/outbox.cif.g08.bks.cpg/sg15_31_cif.got.tgz:60534.got - 2010.06.03 18:47:42.
