data_PCOD9280975
_publ_section_title
;
Structure prediction by ZEFSAII (Michael W. Deem and Ramdas Pophale) SiO2 
 PCOD9280975
Probable space group: C 2/C
;
_chemical_formula_sum "Si O2"
_cell_formula_units_Z 40
_cell_length_a 23.832446
_cell_length_b 10.589004
_cell_length_c 14.578180
_cell_angle_alpha 90.000000
_cell_angle_beta 31.730227
_cell_angle_gamma 90.000000
_cell_volume 1934.849021
_symmetry_space_group_name_H-M "C 2/C"
_symmetry_group_IT_number 15
_symmetry_cell_setting 'monoclinic'
loop_
_space_group_symop_operation_xyz
x,y,z
-x,y,1/2-z
-x,-y,-z
x,-y,1/2+z
1/2+x,1/2+y,z
1/2-x,1/2+y,1/2-z
1/2-x,1/2-y,-z
1/2+x,1/2-y,1/2+z
loop_
_atom_site_type_symbol
_atom_site_label
_atom_site_fract_x
_atom_site_fract_y
_atom_site_fract_z
Si Si1 0.443961 0.117135 0.525991
Si Si2 0.000000 0.934674 0.750000
Si Si3 0.440136 0.383500 0.628298
Si Si4 0.000000 0.565308 0.250000
Si Si5 0.723027 0.604900 0.912860
Si Si6 0.197170 0.382902 0.990943
O O1 0.461881 0.248717 0.553103
O O2 0.492628 0.135671 0.357016
O O3 0.315752 0.089704 0.708962
O O4 0.500000 0.000000 0.500000
O O5 0.970066 0.874096 0.693763
O O6 0.120680 0.988484 0.558245
O O7 0.500000 0.500000 0.500000
O O8 0.315018 0.413745 0.792245
O O9 0.896525 0.477382 0.398709
O O10 0.673427 0.746090 0.980145
O O11 0.787184 0.612905 0.920281
#
# Coordination Sequence:
#
# PCOD9280975 Si02
#       6
#     8   4   8   4   8   8
#     4  11  24  40  64  97 131 164 218 270 318 385
#     4  10  21  37  74  86 120 180 216 258 318 378
#     4  10  24  44  62  95 131 168 219 261 315 401
#     4  12  23  37  66  96 138 170 202 284 348 352
#     4   9  18  37  59  95 121 162 225 258 296 391
#     4   9  19  35  62  90 125 164 215 258 308 391
#
# _framework density 20.673445999999998
#
# number of rings (size 3 to 8) (size 9 to 14) (size 15 to 20)
#    0.000    2.000    2.000    1.800    5.600    0.800 
#    0.000    1.000    0.000    0.000    0.000    0.000 
#    0.000    0.000    0.000    0.000    0.000    0.000 
#
# Total GULP energy -111372.749273 kJ/mol
# GULP energy per Si atom -5568.637464 kJ/mol
# Density = 2.062639 g / cm^3
# Si number density = 20.673446 Si / 1000 Ang^3
#
#
#
# Elastic Constant Matrix: (Units=GPa)
#
#
# Indices 1 2 3 4 5 6 
#
# 1 83.1603 33.9067 48.1388 0.0000 5.1513 0.0000
# 2 33.9067 77.3012 63.6970 0.0000 2.8904 0.0000
# 3 48.1388 63.6970 152.7951 0.0000 14.3727 0.0000
# 4 0.0000 0.0000 0.0000 28.4890 0.0000 -8.0131
# 5 5.1513 2.8904 14.3727 0.0000 41.5615 0.0000
# 6 0.0000 0.0000 0.0000 -8.0131 0.0000 8.4927
#
#
#
# Elastic Compliance Matrix: (Units=1/GPa)
#
#
# Indices 1 2 3 4 5 6 
#
# 1 0.015585 -0.004285 -0.003070 0.000000 -0.000572 0.000000
# 2 -0.004285 0.020977 -0.007553 0.000000 0.001684 0.000000
# 3 -0.003070 -0.007553 0.010931 0.000000 -0.002874 0.000000
# 4 0.000000 0.000000 0.000000 0.047782 0.000000 0.045083
# 5 -0.000572 0.001684 -0.002874 0.000000 0.025009 0.000000
# 6 0.000000 0.000000 0.000000 0.045083 0.000000 0.160285
#
#
# Mechanical properties :
#
#
# Convention : Reuss Voigt Hill
#
# Bulk Modulus (GPa) = 56.57255 67.19352 61.88303
# Shear Modulus (GPa) = 15.80897 26.87624 21.34261
#
# Velocity S-wave (km/s) = 2.76832 3.60951 3.21653
# Velocity P-wave (km/s) = 6.13534 7.06713 6.61765
#
# Compressibility (1/GPa) = 0.01767642
#
# Stress axis : x y z
#
# Youngs Moduli (GPa) = 64.16623 47.67155 91.48229
#
# Poissons Ratio (x) = 0.20426 0.28084
# Poissons Ratio (y) = 0.27494 0.69099
# Poissons Ratio (z) = 0.19699 0.36008
#
# Static dielectric constant tensor:
#      x y z
#    x 1.770280 0.000000 0.015490 
#    y 0.000000 1.764420 0.000000 
#    z 0.015490 0.000000 1.838220 
# 
# From -- ./inp_files/151226.got.cif
#   From: 2010.05.17/outbox.cif.g08.bks.cpg/sg15_76_cif.got.tgz:151226.got - 2010.06.03 18:47:42.
