data_PCOD9280141
_publ_section_title
;
Structure prediction by ZEFSAII (Michael W. Deem and Ramdas Pophale) SiO2 
 PCOD9280141
Probable space group: C 2/C
;
_chemical_formula_sum "Si O2"
_cell_formula_units_Z 56
_cell_length_a 6.300780
_cell_length_b 25.489695
_cell_length_c 19.529574
_cell_angle_alpha 90.000000
_cell_angle_beta 66.028682
_cell_angle_gamma 90.000000
_cell_volume 2866.016046
_symmetry_space_group_name_H-M "C 2/C"
_symmetry_group_IT_number 15
_symmetry_cell_setting 'monoclinic'
loop_
_space_group_symop_operation_xyz
x,y,z
-x,y,1/2-z
-x,-y,-z
x,-y,1/2+z
1/2+x,1/2+y,z
1/2-x,1/2+y,1/2-z
1/2-x,1/2-y,-z
1/2+x,1/2-y,1/2+z
loop_
_atom_site_type_symbol
_atom_site_label
_atom_site_fract_x
_atom_site_fract_y
_atom_site_fract_z
Si Si1 0.446929 0.683990 0.176589
Si Si2 0.650433 0.716760 0.672216
Si Si3 0.707380 0.925550 0.665420
Si Si4 0.122060 0.245107 0.926823
Si Si5 0.901907 0.000174 0.435471
Si Si6 0.959030 0.575148 0.470891
Si Si7 0.042052 0.677410 0.541999
O O1 0.500000 0.677585 0.250000
O O2 0.256116 0.729119 0.188234
O O3 0.354371 0.628079 0.160730
O O4 0.673723 0.711772 0.113461
O O5 0.500000 0.691037 0.750000
O O6 0.494408 0.731311 0.628210
O O7 0.850044 0.676873 0.625125
O O8 0.500000 0.929882 0.750000
O O9 0.602749 0.921287 0.601791
O O10 0.887343 0.975490 0.637935
O O11 0.224342 0.193683 0.950048
O O12 0.970395 0.273110 0.004219
O O13 0.681671 0.037860 0.451559
O O14 0.765308 0.944393 0.455386
O O15 0.000000 0.000000 0.500000
O O16 0.039668 0.628837 0.493449
#
# Coordination Sequence:
#
# PCOD9280141 Si02
#       7
#     8   8   8   8   8   8   8
#     4  11  22  34  56  88 125 162 195 243 309 368
#     4  11  21  37  57  80 120 164 201 246 298 350
#     4  11  24  35  61  99 126 157 196 253 318 375
#     4  10  21  37  53  86 123 159 202 250 290 355
#     4   9  21  41  65  86 118 156 198 249 311 371
#     4  10  21  42  64  89 122 165 205 249 310 369
#     4  10  22  34  59  86 117 158 204 245 290 364
#
# _framework density 19.539318999999999
#
# number of rings (size 3 to 8) (size 9 to 14) (size 15 to 20)
#    0.000    1.714    1.429    2.571    4.000    4.571 
#    0.000    0.000    9.429    0.000    0.000    0.000 
#    0.000    0.000    0.000    0.000    0.000    0.000 
#
# Total GULP energy -155941.770128 kJ/mol
# GULP energy per Si atom -5569.348933 kJ/mol
# Density = 1.949485 g / cm^3
# Si number density = 19.539319 Si / 1000 Ang^3
#
#
#
# Elastic Constant Matrix: (Units=GPa)
#
#
# Indices 1 2 3 4 5 6 
#
# 1 73.5709 42.5635 30.0653 0.0000 27.2190 0.0000
# 2 42.5635 62.5567 31.1808 0.0000 8.5055 0.0000
# 3 30.0653 31.1808 92.1213 0.0000 1.6132 0.0000
# 4 0.0000 0.0000 0.0000 16.8643 0.0000 11.0278
# 5 27.2190 8.5055 1.6132 0.0000 46.0889 0.0000
# 6 0.0000 0.0000 0.0000 11.0278 0.0000 25.6833
#
#
#
# Elastic Compliance Matrix: (Units=1/GPa)
#
#
# Indices 1 2 3 4 5 6 
#
# 1 0.030255 -0.016598 -0.003999 0.000000 -0.014665 0.000000
# 2 -0.016598 0.028858 -0.004432 0.000000 0.004632 0.000000
# 3 -0.003999 -0.004432 0.013613 0.000000 0.002703 0.000000
# 4 0.000000 0.000000 0.000000 0.082446 0.000000 -0.035400
# 5 -0.014665 0.004632 0.002703 0.000000 0.029408 0.000000
# 6 0.000000 0.000000 0.000000 -0.035400 0.000000 0.054136
#
#
# Mechanical properties :
#
#
# Convention : Reuss Voigt Hill
#
# Bulk Modulus (GPa) = 44.11564 48.42980 46.27272
# Shear Modulus (GPa) = 16.87309 26.02325 21.44817
#
# Velocity S-wave (km/s) = 2.94180 3.65340 3.31674
# Velocity P-wave (km/s) = 5.84515 6.52963 6.19685
#
# Compressibility (1/GPa) = 0.02266770
#
# Stress axis : x y z
#
# Youngs Moduli (GPa) = 33.05271 34.65251 73.45803
#
# Poissons Ratio (x) = 0.57516 0.29378
# Poissons Ratio (y) = 0.54861 0.32555
# Poissons Ratio (z) = 0.13219 0.15357
#
# Static dielectric constant tensor:
#      x y z
#    x 1.721610 0.000000 -0.063460 
#    y 0.000000 1.690660 0.000000 
#    z -0.063460 0.000000 1.742010 
# 
# From -- ./inp_files/186094.got.cif
#   From: 2010.05.17/outbox.cif.g08.bks.cpg/sg15_94_cif.got.tgz:186094.got - 2010.06.03 18:47:42.
