data_PCOD9280011
_publ_section_title
;
Structure prediction by ZEFSAII (Michael W. Deem and Ramdas Pophale) SiO2 
 PCOD9280011
Probable space group: C 2/C
;
_chemical_formula_sum "Si O2"
_cell_formula_units_Z 60
_cell_length_a 17.476066
_cell_length_b 5.546061
_cell_length_c 25.901721
_cell_angle_alpha 90.000000
_cell_angle_beta 75.953674
_cell_angle_gamma 90.000000
_cell_volume 2435.417131
_symmetry_space_group_name_H-M "C 2/C"
_symmetry_group_IT_number 15
_symmetry_cell_setting 'monoclinic'
loop_
_space_group_symop_operation_xyz
x,y,z
-x,y,1/2-z
-x,-y,-z
x,-y,1/2+z
1/2+x,1/2+y,z
1/2-x,1/2+y,1/2-z
1/2-x,1/2-y,-z
1/2+x,1/2-y,1/2+z
loop_
_atom_site_type_symbol
_atom_site_label
_atom_site_fract_x
_atom_site_fract_y
_atom_site_fract_z
Si Si1 0.154930 0.493841 0.049624
Si Si2 0.064706 0.634067 0.817411
Si Si3 0.655012 0.758028 0.743323
Si Si4 0.000000 0.059066 0.250000
Si Si5 0.195169 0.994632 0.044688
Si Si6 0.971900 0.531863 0.069580
Si Si7 0.388775 0.521302 0.052480
Si Si8 0.297106 0.529749 0.166544
O O1 0.175938 0.742937 0.074603
O O2 0.064725 0.495974 0.047646
O O3 0.171748 0.242298 0.075275
O O4 0.214903 0.493804 0.990448
O O5 0.111355 0.503577 0.764664
O O6 0.995222 0.779942 0.802296
O O7 0.040585 0.453642 0.866390
O O8 0.125645 0.817121 0.832175
O O9 0.581732 0.586691 0.741164
O O10 0.699571 0.674256 0.789122
O O11 0.720604 0.809164 0.689885
O O12 0.143689 0.983928 0.000258
O O13 0.945222 0.789859 0.051679
O O14 0.927906 0.284346 0.058254
O O15 0.316954 0.467159 0.104371
#
# Coordination Sequence:
#
# PCOD9280011 Si02
#       8
#     8   8   8   4   8   8   8   8
#     4  10  22  42  64  89 125 168 196 248 315 377
#     4  10  21  40  57  87 124 159 203 260 304 372
#     4  11  19  40  61  82 120 164 204 258 307 373
#     4  10  24  38  58  88 120 162 212 262 308 368
#     4  10  22  42  63  90 127 159 206 249 307 376
#     4  11  23  40  65  92 126 161 204 258 318 358
#     4  11  23  40  62  96 125 155 211 264 298 376
#     4  10  21  36  63  88 116 165 207 251 318 358
#
# _framework density 24.636437999999998
#
# number of rings (size 3 to 8) (size 9 to 14) (size 15 to 20)
#    0.000    1.600    2.667    2.000    0.000    3.200 
#    4.800    2.667    0.000    0.000    0.000    0.000 
#    0.000    0.000    0.000    0.000    0.000    0.000 
#
# Total GULP energy -167721.983256 kJ/mol
# GULP energy per Si atom -5590.732775 kJ/mol
# Density = 2.458036 g / cm^3
# Si number density = 24.636438 Si / 1000 Ang^3
#
#
#
# Elastic Constant Matrix: (Units=GPa)
#
#
# Indices 1 2 3 4 5 6 
#
# 1 117.0441 29.1929 23.0720 -0.0002 8.5627 -0.0005
# 2 29.1929 140.7087 -3.6577 -0.0009 13.0641 -0.0001
# 3 23.0720 -3.6577 52.2008 0.0002 -2.8067 0.0001
# 4 -0.0002 -0.0009 0.0002 23.4999 0.0000 9.2241
# 5 8.5627 13.0641 -2.8067 0.0000 29.5525 -0.0002
# 6 -0.0005 -0.0001 0.0001 9.2241 -0.0002 -18.8246
#
#
#
# Elastic Compliance Matrix: (Units=1/GPa)
#
#
# Indices 1 2 3 4 5 6 
#
# 1 0.010167 -0.002000 -0.004769 0.000000 -0.002515 0.000000
# 2 -0.002000 0.007811 0.001283 0.000000 -0.002751 0.000000
# 3 -0.004769 0.001283 0.021508 0.000000 0.002857 0.000000
# 4 0.000000 0.000000 0.000000 0.035689 0.000000 0.017488
# 5 -0.002515 -0.002751 0.002857 0.000000 0.036054 0.000000
# 6 0.000000 0.000000 0.000000 0.017488 0.000000 -0.044553
#
#
# Mechanical properties :
#
#
# Convention : Reuss Voigt Hill
#
# Bulk Modulus (GPa) = 35.06982 45.24087 40.15535
# Shear Modulus (GPa) = 57.37146 24.26865 40.82006
#
# Velocity S-wave (km/s) = 4.83092 3.14199 4.07492
# Velocity P-wave (km/s) = 6.73668 5.61837 6.20278
#
# Compressibility (1/GPa) = 0.02851454
#
# Stress axis : x y z
#
# Youngs Moduli (GPa) = 98.36162 128.03129 46.49414
#
# Poissons Ratio (x) = 0.25603 0.22172
# Poissons Ratio (y) = 0.19670 -0.05966
# Poissons Ratio (z) = 0.46907 -0.16429
#
# Static dielectric constant tensor:
#      x y z
#    x 1.945720 0.000000 0.030420 
#    y 0.000000 2.032930 0.000000 
#    z 0.030420 0.000000 2.005080 
# 
# From -- ./inp_files/314883.got.cif
#   From: 2010.05.17/outbox.cif.g08.bks.cpg/sg15_158_cif.got.tgz:314883.got - 2010.06.03 18:47:42.
