data_PCOD9280137
_publ_section_title
;
Structure prediction by ZEFSAII (Michael W. Deem and Ramdas Pophale) SiO2 
 PCOD9280137
Probable space group: C 2/C
;
_chemical_formula_sum "Si O2"
_cell_formula_units_Z 40
_cell_length_a 17.323609
_cell_length_b 27.869334
_cell_length_c 16.454265
_cell_angle_alpha 90.000000
_cell_angle_beta 163.151122
_cell_angle_gamma 90.000000
_cell_volume 2302.577751
_symmetry_space_group_name_H-M "C 2/C"
_symmetry_group_IT_number 15
_symmetry_cell_setting 'monoclinic'
loop_
_space_group_symop_operation_xyz
x,y,z
-x,y,1/2-z
-x,-y,-z
x,-y,1/2+z
1/2+x,1/2+y,z
1/2-x,1/2+y,1/2-z
1/2-x,1/2-y,-z
1/2+x,1/2-y,1/2+z
loop_
_atom_site_type_symbol
_atom_site_label
_atom_site_fract_x
_atom_site_fract_y
_atom_site_fract_z
Si Si1 0.593186 0.621462 0.172954
Si Si2 0.054852 0.047530 0.610696
Si Si3 0.432627 0.970878 0.773728
Si Si4 0.400803 0.914538 0.237697
Si Si5 0.453549 0.718072 0.110112
O O1 0.525243 0.676908 0.118499
O O2 0.902599 0.611168 0.500999
O O3 0.507978 0.594494 0.005327
O O4 0.405539 0.595834 0.051790
O O5 0.857309 0.043888 0.487954
O O6 0.000000 0.000000 0.500000
O O7 0.352861 0.046904 0.944625
O O8 0.500000 0.955406 0.750000
O O9 0.446736 0.028728 0.789571
O O10 0.500000 0.897500 0.250000
O O11 0.500000 0.700368 0.250000
O O12 0.654112 0.762790 0.302088
#
# Coordination Sequence:
#
# PCOD9280137 Si02
#       5
#     8   8   8   8   8
#     4  12  22  33  54  76 103 140 181 223 264 309
#     4  12  21  36  52  78 110 138 179 227 262 307
#     4  11  22  36  51  72 108 149 178 210 257 313
#     4  11  20  31  48  74 104 140 182 212 247 309
#     4  10  21  37  53  73 105 140 177 220 262 308
#
# _framework density 17.371832999999999
#
# number of rings (size 3 to 8) (size 9 to 14) (size 15 to 20)
#    0.000    0.800    4.000    5.400    0.000    4.800 
#    0.000    0.000    0.000    0.000    0.000    0.000 
#    0.000   16.000    0.000    0.000    0.000    0.000 
#
# Total GULP energy -111778.337902 kJ/mol
# GULP energy per Si atom -5588.916895 kJ/mol
# Density = 1.733229 g / cm^3
# Si number density = 17.371833 Si / 1000 Ang^3
#
#
#
# Elastic Constant Matrix: (Units=GPa)
#
#
# Indices 1 2 3 4 5 6 
#
# 1 55.9367 15.6319 -15.7738 0.0047 9.9199 0.0022
# 2 15.6319 56.6626 -6.6192 -0.0013 -8.8109 0.0000
# 3 -15.7738 -6.6192 42.1403 -0.0066 2.7975 -0.0004
# 4 0.0047 -0.0013 -0.0066 13.8490 0.0010 5.2581
# 5 9.9199 -8.8109 2.7975 0.0010 30.5459 0.0018
# 6 0.0022 0.0000 -0.0004 5.2581 0.0018 26.9905
#
#
#
# Elastic Compliance Matrix: (Units=1/GPa)
#
#
# Indices 1 2 3 4 5 6 
#
# 1 0.024295 -0.007372 0.008653 -0.000004 -0.010809 0.000000
# 2 -0.007372 0.020994 -0.000023 0.000004 0.008452 -0.000001
# 3 0.008653 -0.000023 0.027319 0.000011 -0.005319 -0.000002
# 4 -0.000004 0.000004 0.000011 0.077975 0.000000 -0.015190
# 5 -0.010809 0.008452 -0.005319 0.000000 0.039173 -0.000002
# 6 0.000000 -0.000001 -0.000002 -0.015190 -0.000002 0.040009
#
#
# Mechanical properties :
#
#
# Convention : Reuss Voigt Hill
#
# Bulk Modulus (GPa) = 13.31139 15.69081 14.50110
# Shear Modulus (GPa) = 19.81855 25.04380 22.43117
#
# Velocity S-wave (km/s) = 3.38130 3.80100 3.59728
# Velocity P-wave (km/s) = 4.78785 5.32122 5.06157
#
# Compressibility (1/GPa) = 0.07512365
#
# Stress axis : x y z
#
# Youngs Moduli (GPa) = 41.16141 47.63326 36.60474
#
# Poissons Ratio (x) = 0.35116 -0.31676
# Poissons Ratio (y) = 0.30345 0.00084
# Poissons Ratio (z) = -0.35619 0.00109
#
# Static dielectric constant tensor:
#      x y z
#    x 1.603930 0.000000 0.000870 
#    y 0.000000 1.583490 0.000000 
#    z 0.000870 0.000000 1.586620 
# 
# From -- ./inp_files/7297.got.cif
#   From: 2010.05.17/outbox.cif.g08.bks.cpg/sg15_4_cif.got.tgz:7297.got - 2010.06.03 18:47:42.
