data_PCOD9280108
_publ_section_title
;
Structure prediction by ZEFSAII (Michael W. Deem and Ramdas Pophale) SiO2 
 PCOD9280108
Probable space group: C 2/C
;
_chemical_formula_sum "Si O2"
_cell_formula_units_Z 40
_cell_length_a 9.226598
_cell_length_b 14.853647
_cell_length_c 11.792160
_cell_angle_alpha 90.000000
_cell_angle_beta 102.139773
_cell_angle_gamma 90.000000
_cell_volume 1579.959331
_symmetry_space_group_name_H-M "C 2/C"
_symmetry_group_IT_number 15
_symmetry_cell_setting 'monoclinic'
loop_
_space_group_symop_operation_xyz
x,y,z
-x,y,1/2-z
-x,-y,-z
x,-y,1/2+z
1/2+x,1/2+y,z
1/2-x,1/2+y,1/2-z
1/2-x,1/2-y,-z
1/2+x,1/2-y,1/2+z
loop_
_atom_site_type_symbol
_atom_site_label
_atom_site_fract_x
_atom_site_fract_y
_atom_site_fract_z
Si Si1 0.616184 0.442237 0.368268
Si Si2 0.380354 0.296708 0.944647
Si Si3 0.182969 0.862750 0.964117
Si Si4 0.832944 0.570757 0.719469
Si Si5 0.841070 0.642133 0.265553
O O1 0.500000 0.423250 0.250000
O O2 0.598632 0.387685 0.478760
O O3 0.613344 0.546935 0.396708
O O4 0.767170 0.412225 0.332690
O O5 0.556867 0.285121 0.946370
O O6 0.296522 0.307849 0.812889
O O7 0.250000 0.250000 0.000000
O O8 0.316972 0.850600 0.895533
O O9 0.243610 0.888963 0.098813
O O10 0.832540 0.460675 0.716233
O O11 0.000000 0.602379 0.750000
O O12 0.000000 0.678693 0.250000
#
# Coordination Sequence:
#
# PCOD9280108 Si02
#       5
#     8   8   8   8   8
#     4  11  21  38  69 100 135 176 240 290 343 408
#     4  12  25  42  63  94 139 188 234 281 352 435
#     4  11  21  42  71 101 138 178 236 297 353 406
#     4  10  21  36  68 107 135 172 226 302 350 394
#     4  10  23  40  67 100 136 178 230 296 356 408
#
# _framework density 25.317107
#
# number of rings (size 3 to 8) (size 9 to 14) (size 15 to 20)
#    0.000    1.200    4.000    3.600    2.800    3.200 
#    0.000    3.000    0.000    0.000    0.000    0.000 
#    0.000    0.000    0.000    0.000    0.000    0.000 
#
# Total GULP energy -111701.793747 kJ/mol
# GULP energy per Si atom -5585.089687 kJ/mol
# Density = 2.525948 g / cm^3
# Si number density = 25.317107 Si / 1000 Ang^3
#
#
#
# Elastic Constant Matrix: (Units=GPa)
#
#
# Indices 1 2 3 4 5 6 
#
# 1 165.5347 21.1949 51.6900 0.0000 -22.6270 0.0000
# 2 21.1949 69.1085 16.5859 0.0000 5.7181 0.0000
# 3 51.6900 16.5859 129.9356 0.0000 -17.5002 0.0000
# 4 0.0000 0.0000 0.0000 24.1344 0.0000 -10.3013
# 5 -22.6270 5.7181 -17.5002 0.0000 57.2209 0.0000
# 6 0.0000 0.0000 0.0000 -10.3013 0.0000 22.1086
#
#
#
# Elastic Compliance Matrix: (Units=1/GPa)
#
#
# Indices 1 2 3 4 5 6 
#
# 1 0.007343 -0.001881 -0.002362 0.000000 0.002369 0.000000
# 2 -0.001881 0.015671 -0.001630 0.000000 -0.002808 0.000000
# 3 -0.002362 -0.001630 0.009115 0.000000 0.002017 0.000000
# 4 0.000000 0.000000 0.000000 0.051721 0.000000 0.024099
# 5 0.002369 -0.002808 0.002017 0.000000 0.019311 0.000000
# 6 0.000000 0.000000 0.000000 0.024099 0.000000 0.056460
#
#
# Mechanical properties :
#
#
# Convention : Reuss Voigt Hill
#
# Bulk Modulus (GPa) = 49.06178 60.39114 54.72646
# Shear Modulus (GPa) = 28.06432 39.03331 33.54882
#
# Velocity S-wave (km/s) = 3.33304 3.93081 3.64420
# Velocity P-wave (km/s) = 5.85092 6.67138 6.27457
#
# Compressibility (1/GPa) = 0.02038246
#
# Stress axis : x y z
#
# Youngs Moduli (GPa) = 136.17767 63.81384 109.70370
#
# Poissons Ratio (x) = 0.12005 0.25912
# Poissons Ratio (y) = 0.25619 0.17883
# Poissons Ratio (z) = 0.32165 0.10403
#
# Static dielectric constant tensor:
#      x y z
#    x 2.189890 0.000000 -0.105390 
#    y 0.000000 2.068430 0.000000 
#    z -0.105390 0.000000 1.910090 
# 
# From -- ./inp_files/76815.got.cif
#   From: 2010.05.17/outbox.cif.g08.bks.cpg/sg15_39_cif.got.tgz:76815.got - 2010.06.03 18:47:42.
