data_PCOD9280648
_publ_section_title
;
Structure prediction by ZEFSAII (Michael W. Deem and Ramdas Pophale) SiO2 
 PCOD9280648
Probable space group: C 2/C
;
_chemical_formula_sum "Si O2"
_cell_formula_units_Z 60
_cell_length_a 8.311215
_cell_length_b 22.545137
_cell_length_c 12.025874
_cell_angle_alpha 90.000000
_cell_angle_beta 90.991623
_cell_angle_gamma 90.000000
_cell_volume 2253.040500
_symmetry_space_group_name_H-M "C 2/C"
_symmetry_group_IT_number 15
_symmetry_cell_setting 'monoclinic'
loop_
_space_group_symop_operation_xyz
x,y,z
-x,y,1/2-z
-x,-y,-z
x,-y,1/2+z
1/2+x,1/2+y,z
1/2-x,1/2+y,1/2-z
1/2-x,1/2-y,-z
1/2+x,1/2-y,1/2+z
loop_
_atom_site_type_symbol
_atom_site_label
_atom_site_fract_x
_atom_site_fract_y
_atom_site_fract_z
Si Si1 0.936431 0.068523 0.126870
Si Si2 0.511793 0.721197 0.001632
Si Si3 0.283454 0.538589 0.501295
Si Si4 0.729959 0.756059 0.187084
Si Si5 0.808712 0.327151 0.100575
Si Si6 0.530014 0.961131 0.379190
Si Si7 0.500000 0.175520 0.250000
Si Si8 0.408160 0.904444 0.928790
O O1 0.773433 0.106459 0.116905
O O2 0.000000 0.069709 0.250000
O O3 0.882167 0.002749 0.087811
O O4 0.086056 0.083369 0.048507
O O5 0.593848 0.716774 0.124746
O O6 0.419635 0.784104 0.026452
O O7 0.652984 0.723304 0.911622
O O8 0.371819 0.681889 0.945056
O O9 0.210970 0.494567 0.404637
O O10 0.130934 0.570369 0.554372
O O11 0.677938 0.808190 0.271092
O O12 0.845556 0.716159 0.264017
O O13 0.874240 0.392678 0.063824
O O14 0.500000 0.947776 0.250000
O O15 0.440958 0.027708 0.401677
O O16 0.476343 0.135015 0.142771
#
# Coordination Sequence:
#
# PCOD9280648 Si02
#       8
#     8   8   8   8   8   8   4   8
#     4  10  21  39  64  96 124 166 207 258 305 369
#     4  10  21  37  62  87 107 155 218 253 324 368
#     4   9  20  40  67  94 124 164 221 244 296 379
#     4  11  21  39  65  85 110 165 210 268 310 375
#     4  11  20  41  58  87 125 155 208 269 311 380
#     4  10  21  41  64  94 130 172 204 253 308 372
#     4  12  22  44  62  86 134 158 214 280 310 388
#     4  11  26  38  58  93 132 166 202 262 335 368
#
# _framework density 26.630680999999999
#
# number of rings (size 3 to 8) (size 9 to 14) (size 15 to 20)
#    0.000    1.600    2.667    2.000    1.867    2.133 
#    2.400    1.333    0.000    0.000    0.000    0.000 
#    0.000    0.000    0.000    0.000    0.000    0.000 
#
# Total GULP energy -167292.546595 kJ/mol
# GULP energy per Si atom -5576.418220 kJ/mol
# Density = 2.657007 g / cm^3
# Si number density = 26.630681 Si / 1000 Ang^3
#
#
#
# Elastic Constant Matrix: (Units=GPa)
#
#
# Indices 1 2 3 4 5 6 
#
# 1 103.9103 43.1275 25.1422 0.0000 3.5998 0.0000
# 2 43.1275 87.5826 45.8360 0.0000 -5.4460 0.0000
# 3 25.1422 45.8360 185.2464 0.0000 7.9292 0.0000
# 4 0.0000 0.0000 0.0000 129.2140 0.0000 -58.1194
# 5 3.5998 -5.4460 7.9292 0.0000 55.1294 0.0000
# 6 0.0000 0.0000 0.0000 -58.1194 0.0000 67.3290
#
#
#
# Elastic Compliance Matrix: (Units=1/GPa)
#
#
# Indices 1 2 3 4 5 6 
#
# 1 0.012204 -0.006042 -0.000102 0.000000 -0.001379 0.000000
# 2 -0.006042 0.016282 -0.003315 0.000000 0.002480 0.000000
# 3 -0.000102 -0.003315 0.006285 0.000000 -0.001225 0.000000
# 4 0.000000 0.000000 0.000000 0.012651 0.000000 0.010921
# 5 -0.001379 0.002480 -0.001225 0.000000 0.018650 0.000000
# 6 0.000000 0.000000 0.000000 0.010921 0.000000 0.024279
#
#
# Mechanical properties :
#
#
# Convention : Reuss Voigt Hill
#
# Bulk Modulus (GPa) = 63.08069 67.21673 65.14871
# Shear Modulus (GPa) = 43.64805 67.84338 55.74572
#
# Velocity S-wave (km/s) = 4.05287 5.05282 4.58021
# Velocity P-wave (km/s) = 6.75571 7.70301 7.24486
#
# Compressibility (1/GPa) = 0.01585271
#
# Stress axis : x y z
#
# Youngs Moduli (GPa) = 81.94199 61.41852 159.11586
#
# Poissons Ratio (x) = 0.37106 0.01630
# Poissons Ratio (y) = 0.49505 0.52744
# Poissons Ratio (z) = 0.00839 0.20359
#
# Static dielectric constant tensor:
#      x y z
#    x 2.410890 0.000000 0.287920 
#    y 0.000000 2.141350 0.000000 
#    z 0.287920 0.000000 2.636060 
# 
# From -- ./inp_files/82218.got.cif
#   From: 2010.05.17/outbox.cif.g08.bks.cpg/sg15_42_cif.got.tgz:82218.got - 2010.06.03 18:47:42.
