data_PCOD9280500
_publ_section_title
;
Structure prediction by ZEFSAII (Michael W. Deem and Ramdas Pophale) SiO2 
 PCOD9280500
Probable space group: C 2/C
;
_chemical_formula_sum "Si O2"
_cell_formula_units_Z 60
_cell_length_a 25.771316
_cell_length_b 8.240993
_cell_length_c 22.268754
_cell_angle_alpha 90.000000
_cell_angle_beta 142.929071
_cell_angle_gamma 90.000000
_cell_volume 2850.937054
_symmetry_space_group_name_H-M "C 2/C"
_symmetry_group_IT_number 15
_symmetry_cell_setting 'monoclinic'
loop_
_space_group_symop_operation_xyz
x,y,z
-x,y,1/2-z
-x,-y,-z
x,-y,1/2+z
1/2+x,1/2+y,z
1/2-x,1/2+y,1/2-z
1/2-x,1/2-y,-z
1/2+x,1/2-y,1/2+z
loop_
_atom_site_type_symbol
_atom_site_label
_atom_site_fract_x
_atom_site_fract_y
_atom_site_fract_z
Si Si1 0.998856 0.751438 0.821450
Si Si2 0.255016 0.570836 0.104256
Si Si3 0.000000 0.311685 0.750000
Si Si4 0.679543 0.912977 0.302847
Si Si5 0.917214 0.645946 0.372404
Si Si6 0.410919 0.048581 0.498571
Si Si7 0.696541 0.914040 0.936478
Si Si8 0.062862 0.084635 0.701844
O O1 0.000000 0.767484 0.750000
O O2 0.911163 0.656497 0.756021
O O3 0.069349 0.651885 0.923508
O O4 0.996300 0.926386 0.850924
O O5 0.263246 0.749541 0.141830
O O6 0.182084 0.474232 0.073823
O O7 0.346204 0.483474 0.191875
O O8 0.229550 0.555457 0.011027
O O9 0.092424 0.396672 0.847403
O O10 0.022109 0.207281 0.711913
O O11 0.652664 0.018162 0.219751
O O12 0.713722 0.036995 0.383988
O O13 0.907832 0.652687 0.434908
O O14 0.916886 0.819078 0.339956
O O15 0.010928 0.573247 0.441516
O O16 0.750000 0.750000 0.000000
#
# Coordination Sequence:
#
# PCOD9280500 Si02
#       8
#     8   8   4   8   8   8   8   8
#     4  10  21  37  60  92 123 163 207 259 325 382
#     4  11  23  39  58  95 125 162 214 267 318 393
#     4  12  22  38  62  94 130 174 210 276 330 376
#     4  10  22  37  58  84 123 163 200 266 317 377
#     4  10  21  44  63  88 121 170 222 263 327 390
#     4  10  23  40  65  89 123 169 219 268 321 388
#     4  12  23  38  62  92 129 168 215 262 326 389
#     4  11  22  39  63  91 130 168 212 267 326 387
#
# _framework density 21.045711000000001
#
# number of rings (size 3 to 8) (size 9 to 14) (size 15 to 20)
#    0.000    1.333    3.333    2.000    2.800    3.733 
#    0.000    1.333    0.000    0.000    0.000    0.000 
#    0.000    0.000    0.000    0.000    0.000    0.000 
#
# Total GULP energy -167329.885942 kJ/mol
# GULP energy per Si atom -5577.662865 kJ/mol
# Density = 2.099781 g / cm^3
# Si number density = 21.045711 Si / 1000 Ang^3
#
#
#
# Elastic Constant Matrix: (Units=GPa)
#
#
# Indices 1 2 3 4 5 6 
#
# 1 51.6905 8.2559 27.7365 0.0000 -4.8178 0.0000
# 2 8.2559 75.9153 28.2128 0.0000 -13.5190 0.0000
# 3 27.7365 28.2128 69.9973 0.0000 -3.4170 0.0000
# 4 0.0000 0.0000 0.0000 5.9921 0.0000 2.0565
# 5 -4.8178 -13.5190 -3.4170 0.0000 34.8800 0.0000
# 6 0.0000 0.0000 0.0000 2.0565 0.0000 20.5577
#
#
#
# Elastic Compliance Matrix: (Units=1/GPa)
#
#
# Indices 1 2 3 4 5 6 
#
# 1 0.024956 0.001711 -0.010428 0.000000 0.003089 0.000000
# 2 0.001711 0.016702 -0.007116 0.000000 0.006013 0.000000
# 3 -0.010428 -0.007116 0.021183 0.000000 -0.002123 0.000000
# 4 0.000000 0.000000 0.000000 0.172821 0.000000 -0.017288
# 5 0.003089 0.006013 -0.002123 0.000000 0.031219 0.000000
# 6 0.000000 0.000000 0.000000 -0.017288 0.000000 0.050373
#
#
# Mechanical properties :
#
#
# Convention : Reuss Voigt Hill
#
# Bulk Modulus (GPa) = 32.07687 36.22372 34.15030
# Shear Modulus (GPa) = 13.91554 21.17913 17.54733
#
# Velocity S-wave (km/s) = 2.57418 3.17573 2.89064
# Velocity P-wave (km/s) = 4.91018 5.54042 5.23479
#
# Compressibility (1/GPa) = 0.03117511
#
# Stress axis : x y z
#
# Youngs Moduli (GPa) = 40.07067 59.87337 47.20776
#
# Poissons Ratio (x) = -0.10247 0.49227
# Poissons Ratio (y) = -0.06858 0.33595
# Poissons Ratio (z) = 0.41785 0.42608
#
# Static dielectric constant tensor:
#      x y z
#    x 1.754400 0.000000 0.014700 
#    y 0.000000 1.815190 0.000000 
#    z 0.014700 0.000000 1.806120 
# 
# From -- ./inp_files/255184.got.cif
#   From: 2010.05.17/outbox.cif.g08.bks.cpg/sg15_128_cif.got.tgz:255184.got - 2010.06.03 18:47:42.
