data_PCOD9280932
_publ_section_title
;
Structure prediction by ZEFSAII (Michael W. Deem and Ramdas Pophale) SiO2 
 PCOD9280932
Probable space group: C 2/C
;
_chemical_formula_sum "Si O2"
_cell_formula_units_Z 36
_cell_length_a 10.622113
_cell_length_b 30.850764
_cell_length_c 5.233564
_cell_angle_alpha 90.000000
_cell_angle_beta 91.765394
_cell_angle_gamma 90.000000
_cell_volume 1714.226456
_symmetry_space_group_name_H-M "C 2/C"
_symmetry_group_IT_number 15
_symmetry_cell_setting 'monoclinic'
loop_
_space_group_symop_operation_xyz
x,y,z
-x,y,1/2-z
-x,-y,-z
x,-y,1/2+z
1/2+x,1/2+y,z
1/2-x,1/2+y,1/2-z
1/2-x,1/2-y,-z
1/2+x,1/2-y,1/2+z
loop_
_atom_site_type_symbol
_atom_site_label
_atom_site_fract_x
_atom_site_fract_y
_atom_site_fract_z
Si Si1 0.750000 0.750000 0.000000
Si Si2 0.754049 0.875510 0.261892
Si Si3 0.000000 0.741824 0.250000
Si Si4 0.643153 0.332971 0.722963
Si Si5 0.349111 0.028226 0.740325
Si Si6 0.000000 0.680848 0.750000
O O1 0.871688 0.767517 0.185146
O O2 0.729854 0.709241 0.191305
O O3 0.815392 0.859909 0.527621
O O4 0.720396 0.925999 0.264767
O O5 0.623473 0.848211 0.230210
O O6 0.836567 0.863149 0.022386
O O7 0.992592 0.711963 0.503473
O O8 0.500000 0.318694 0.750000
O O9 0.500000 0.036853 0.750000
O O10 0.320165 0.999887 0.488971
#
# Coordination Sequence:
#
# PCOD9280932 Si02
#       6
#     4   8   4   8   8   4
#     4  12  28  46  70 100 138 188 232 302 346 416
#     4  12  23  46  70 100 143 180 225 288 352 426
#     4  12  28  42  68  97 146 176 244 285 358 406
#     4  12  29  45  70  98 137 189 241 290 344 415
#     4  10  21  37  67 108 141 170 217 285 356 422
#     4  12  22  44  66 105 124 190 222 281 350 430
#
# _framework density 21.000727999999999
#
# number of rings (size 3 to 8) (size 9 to 14) (size 15 to 20)
#    0.000    0.444    5.556    2.000    4.667    1.778 
#    0.000    0.000    0.000   13.333    0.000    0.000 
#    0.000    0.000    0.000    0.000    0.000    0.000 
#
# Total GULP energy -100319.820957 kJ/mol
# GULP energy per Si atom -5573.323387 kJ/mol
# Density = 2.095293 g / cm^3
# Si number density = 21.000728 Si / 1000 Ang^3
#
#
#
# Elastic Constant Matrix: (Units=GPa)
#
#
# Indices 1 2 3 4 5 6 
#
# 1 56.0031 36.7190 36.5398 0.0000 -2.1411 0.0000
# 2 36.7190 119.8225 72.1413 0.0000 -14.1874 0.0000
# 3 36.5398 72.1413 187.9457 0.0000 -7.3295 0.0000
# 4 0.0000 0.0000 0.0000 20.9542 0.0000 1.6242
# 5 -2.1411 -14.1874 -7.3295 0.0000 34.3526 0.0000
# 6 0.0000 0.0000 0.0000 1.6242 0.0000 27.4321
#
#
#
# Elastic Compliance Matrix: (Units=1/GPa)
#
#
# Indices 1 2 3 4 5 6 
#
# 1 0.023161 -0.005887 -0.002301 0.000000 -0.001479 0.000000
# 2 -0.005887 0.012817 -0.003613 0.000000 0.004156 0.000000
# 3 -0.002301 -0.003613 0.007151 0.000000 -0.000110 0.000000
# 4 0.000000 0.000000 0.000000 0.047943 0.000000 -0.002839
# 5 -0.001479 0.004156 -0.000110 0.000000 0.030710 0.000000
# 6 0.000000 0.000000 0.000000 -0.002839 0.000000 0.036622
#
#
# Mechanical properties :
#
#
# Convention : Reuss Voigt Hill
#
# Bulk Modulus (GPa) = 51.21333 72.73015 61.97174
# Shear Modulus (GPa) = 26.52306 31.10586 28.81446
#
# Velocity S-wave (km/s) = 3.55767 3.85279 3.70816
# Velocity P-wave (km/s) = 6.42771 7.38237 6.92151
#
# Compressibility (1/GPa) = 0.01952617
#
# Stress axis : x y z
#
# Youngs Moduli (GPa) = 43.17624 78.01998 139.84944
#
# Poissons Ratio (x) = 0.45934 0.32175
# Poissons Ratio (y) = 0.25420 0.50529
# Poissons Ratio (z) = 0.09934 0.28189
#
# Static dielectric constant tensor:
#      x y z
#    x 1.873560 0.000000 -0.037110 
#    y 0.000000 1.720890 0.000000 
#    z -0.037110 0.000000 1.777020 
# 
# From -- ./inp_files/4756.got.cif
#   From: 2010.05.17/outbox.cif.g08.bks.cpg/sg15_3_cif.got.tgz:4756.got - 2010.06.03 18:47:42.
