data_PCOD9280228
_publ_section_title
;
Structure prediction by ZEFSAII (Michael W. Deem and Ramdas Pophale) SiO2 
 PCOD9280228
Probable space group: C 2/C
;
_chemical_formula_sum "Si O2"
_cell_formula_units_Z 40
_cell_length_a 19.781463
_cell_length_b 8.741009
_cell_length_c 20.393967
_cell_angle_alpha 90.000000
_cell_angle_beta 24.943558
_cell_angle_gamma 90.000000
_cell_volume 1487.138087
_symmetry_space_group_name_H-M "C 2/C"
_symmetry_group_IT_number 15
_symmetry_cell_setting 'monoclinic'
loop_
_space_group_symop_operation_xyz
x,y,z
-x,y,1/2-z
-x,-y,-z
x,-y,1/2+z
1/2+x,1/2+y,z
1/2-x,1/2+y,1/2-z
1/2-x,1/2-y,-z
1/2+x,1/2-y,1/2+z
loop_
_atom_site_type_symbol
_atom_site_label
_atom_site_fract_x
_atom_site_fract_y
_atom_site_fract_z
Si Si1 0.234967 0.175888 0.673076
Si Si2 0.709553 0.781447 0.151119
Si Si3 0.477068 0.481188 0.854851
Si Si4 0.461175 0.830611 0.854480
Si Si5 0.518345 0.149828 0.940743
O O1 0.331673 0.121542 0.522708
O O2 0.129534 0.317547 0.743285
O O3 0.352555 0.230689 0.626028
O O4 0.096675 0.047363 0.808164
O O5 0.604476 0.642307 0.212911
O O6 0.585441 0.864033 0.308474
O O7 0.846924 0.722201 0.079967
O O8 0.816123 0.889019 0.011634
O O9 0.422863 0.647273 0.874741
O O10 0.500000 0.904458 0.750000
O O11 0.500000 0.000000 0.000000
#
# Coordination Sequence:
#
# PCOD9280228 Si02
#       5
#     8   8   8   8   8
#     4  10  21  37  56  90 113 146 194 236 288 343
#     4  10  21  38  57  83 125 152 185 235 281 351
#     4   9  22  38  57  84 116 152 195 230 288 344
#     4  10  21  40  61  83 113 148 197 251 291 325
#     4  11  20  35  56  85 119 155 185 226 283 348
#
# _framework density 26.897302
#
# number of rings (size 3 to 8) (size 9 to 14) (size 15 to 20)
#    1.200    0.800    2.000    1.800    0.000    4.000 
#    0.000    1.000    0.000    0.000    0.000    0.000 
#    0.000    0.000    0.000    0.000    0.000    0.000 
#
# Total GULP energy -111437.220310 kJ/mol
# GULP energy per Si atom -5571.861015 kJ/mol
# Density = 2.683608 g / cm^3
# Si number density = 26.897302 Si / 1000 Ang^3
#
#
#
# Elastic Constant Matrix: (Units=GPa)
#
#
# Indices 1 2 3 4 5 6 
#
# 1 83.4048 8.3664 14.4977 0.0000 -6.4497 0.0000
# 2 8.3664 66.7194 37.5736 -0.0001 7.1265 0.0000
# 3 14.4977 37.5736 166.4754 0.0000 13.5505 0.0001
# 4 0.0000 -0.0001 0.0000 52.4008 0.0000 -3.8037
# 5 -6.4497 7.1265 13.5505 0.0000 46.8622 0.0000
# 6 0.0000 0.0000 0.0001 -3.8037 0.0000 -1.4693
#
#
#
# Elastic Compliance Matrix: (Units=1/GPa)
#
#
# Indices 1 2 3 4 5 6 
#
# 1 0.012454 -0.001242 -0.000982 0.000000 0.002187 0.000000
# 2 -0.001242 0.017402 -0.003677 0.000000 -0.001754 0.000000
# 3 -0.000982 -0.003677 0.007054 0.000000 -0.001616 0.000000
# 4 0.000000 0.000000 0.000000 0.016065 0.000000 -0.041587
# 5 0.002187 -0.001754 -0.001616 0.000000 0.022374 0.000000
# 6 0.000000 0.000000 0.000000 -0.041587 0.000000 -0.572917
#
#
# Mechanical properties :
#
#
# Convention : Reuss Voigt Hill
#
# Bulk Modulus (GPa) = 39.82849 48.60836 44.21843
# Shear Modulus (GPa) = -10.47346 36.63619 13.08136
#
# Velocity S-wave (km/s) = -1.97543 3.69464 2.20772
# Velocity P-wave (km/s) = 3.10430 6.02590 4.79313
#
# Compressibility (1/GPa) = 0.02510765
#
# Stress axis : x y z
#
# Youngs Moduli (GPa) = 80.29437 57.46528 141.76818
#
# Poissons Ratio (x) = 0.07138 0.13925
# Poissons Ratio (y) = 0.09974 0.52123
# Poissons Ratio (z) = 0.07887 0.21128
#
# Static dielectric constant tensor:
#      x y z
#    x 2.349670 0.000000 -0.052870 
#    y 0.000000 2.214250 0.000000 
#    z -0.052870 0.000000 2.150970 
# 
# From -- ./inp_files/68818.got.cif
#   From: 2010.05.17/outbox.cif.g08.bks.cpg/sg15_35_cif.got.tgz:68818.got - 2010.06.03 18:47:42.
