data_PCOD9280496
_publ_section_title
;
Structure prediction by ZEFSAII (Michael W. Deem and Ramdas Pophale) SiO2 
 PCOD9280496
Probable space group: C 2/C
;
_chemical_formula_sum "Si O2"
_cell_formula_units_Z 32
_cell_length_a 10.533252
_cell_length_b 15.467006
_cell_length_c 12.680884
_cell_angle_alpha 90.000000
_cell_angle_beta 38.625388
_cell_angle_gamma 90.000000
_cell_volume 1289.614757
_symmetry_space_group_name_H-M "C 2/C"
_symmetry_group_IT_number 15
_symmetry_cell_setting 'monoclinic'
loop_
_space_group_symop_operation_xyz
x,y,z
-x,y,1/2-z
-x,-y,-z
x,-y,1/2+z
1/2+x,1/2+y,z
1/2-x,1/2+y,1/2-z
1/2-x,1/2-y,-z
1/2+x,1/2-y,1/2+z
loop_
_atom_site_type_symbol
_atom_site_label
_atom_site_fract_x
_atom_site_fract_y
_atom_site_fract_z
Si Si1 0.477933 0.914639 0.443206
Si Si2 0.000000 0.479418 0.750000
Si Si3 0.553598 0.405021 0.423140
Si Si4 0.000000 0.182342 0.750000
Si Si5 0.281481 0.170331 0.259666
O O1 0.374416 0.954656 0.406296
O O2 0.366835 0.843004 0.586352
O O3 0.708612 0.893378 0.257690
O O4 0.500000 0.000000 0.500000
O O5 0.124463 0.413311 0.741387
O O6 0.500000 0.500000 0.500000
O O7 0.439271 0.379422 0.386359
O O8 0.458597 0.341125 0.571574
O O9 0.850903 0.248528 0.785520
#
# Coordination Sequence:
#
# PCOD9280496 Si02
#       5
#     8   4   8   4   8
#     4  10  21  37  60  91 136 176 219 272 324 399
#     4   9  18  36  62  89 130 172 214 261 330 382
#     4  12  24  39  63 101 131 173 227 273 332 407
#     4  11  28  42  72 101 136 174 226 289 344 386
#     4  10  23  42  61  98 134 173 223 281 328 391
#
# _framework density 24.813614000000001
#
# number of rings (size 3 to 8) (size 9 to 14) (size 15 to 20)
#    0.000    1.500    5.000    0.750   14.000    0.000 
#    0.000    0.000    0.000    3.000    0.000    0.000 
#    0.000    0.000    0.000    0.000    0.000    0.000 
#
# Total GULP energy -89155.808419 kJ/mol
# GULP energy per Si atom -5572.238026 kJ/mol
# Density = 2.475714 g / cm^3
# Si number density = 24.813614 Si / 1000 Ang^3
#
#
#
# Elastic Constant Matrix: (Units=GPa)
#
#
# Indices 1 2 3 4 5 6 
#
# 1 48.1035 49.3578 36.1047 0.0023 19.7057 -0.0027
# 2 49.3578 136.6647 64.2646 0.0044 10.0324 -0.0059
# 3 36.1047 64.2646 193.9412 0.0044 7.8246 -0.0074
# 4 0.0023 0.0044 0.0044 27.4877 -0.0024 16.7391
# 5 19.7057 10.0324 7.8246 -0.0024 43.5158 0.0037
# 6 -0.0027 -0.0059 -0.0074 16.7391 0.0037 68.0744
#
#
#
# Elastic Compliance Matrix: (Units=1/GPa)
#
#
# Indices 1 2 3 4 5 6 
#
# 1 0.042753 -0.012835 -0.003066 -0.000004 -0.015850 0.000002
# 2 -0.012835 0.012618 -0.001923 -0.000001 0.003249 0.000000
# 3 -0.003066 -0.001923 0.006336 -0.000001 0.000693 0.000001
# 4 -0.000004 -0.000001 -0.000001 0.042787 0.000005 -0.010521
# 5 -0.015850 0.003249 0.000693 0.000005 0.029284 -0.000003
# 6 0.000002 0.000000 0.000001 -0.010521 -0.000003 0.017277
#
#
# Mechanical properties :
#
#
# Convention : Reuss Voigt Hill
#
# Bulk Modulus (GPa) = 38.37517 75.35152 56.86334
# Shear Modulus (GPa) = 25.58980 43.08105 34.33542
#
# Velocity S-wave (km/s) = 3.21484 4.17128 3.72389
# Velocity P-wave (km/s) = 5.41103 7.32341 6.43862
#
# Compressibility (1/GPa) = 0.02605852
#
# Stress axis : x y z
#
# Youngs Moduli (GPa) = 23.39031 79.24925 157.82069
#
# Poissons Ratio (x) = 1.01717 0.48395
# Poissons Ratio (y) = 0.30022 0.30348
# Poissons Ratio (z) = 0.07173 0.15239
#
# Static dielectric constant tensor:
#      x y z
#    x 2.026960 0.000010 -0.040240 
#    y 0.000010 2.719270 -0.000060 
#    z -0.040240 -0.000060 2.127860 
# 
# From -- ./inp_files/153711.got.cif
#   From: 2010.05.17/outbox.cif.g08.bks.cpg/sg15_77_cif.got.tgz:153711.got - 2010.06.03 18:47:42.
