data_PCOD9280764
_publ_section_title
;
Structure prediction by ZEFSAII (Michael W. Deem and Ramdas Pophale) SiO2 
 PCOD9280764
Probable space group: C 2/C
;
_chemical_formula_sum "Si O2"
_cell_formula_units_Z 56
_cell_length_a 7.942551
_cell_length_b 32.241105
_cell_length_c 9.666220
_cell_angle_alpha 90.000000
_cell_angle_beta 66.319551
_cell_angle_gamma 90.000000
_cell_volume 2266.872535
_symmetry_space_group_name_H-M "C 2/C"
_symmetry_group_IT_number 15
_symmetry_cell_setting 'monoclinic'
loop_
_space_group_symop_operation_xyz
x,y,z
-x,y,1/2-z
-x,-y,-z
x,-y,1/2+z
1/2+x,1/2+y,z
1/2-x,1/2+y,1/2-z
1/2-x,1/2-y,-z
1/2+x,1/2-y,1/2+z
loop_
_atom_site_type_symbol
_atom_site_label
_atom_site_fract_x
_atom_site_fract_y
_atom_site_fract_z
Si Si1 0.902044 0.416146 0.058325
Si Si2 0.379949 0.611761 0.654072
Si Si3 0.303130 0.189754 0.887477
Si Si4 0.295936 0.846597 0.864839
Si Si5 0.862242 0.037744 0.025914
Si Si6 0.784514 0.222929 0.287483
Si Si7 0.287335 0.579694 0.300642
O O1 0.829219 0.376860 0.986068
O O2 0.120282 0.419811 0.964162
O O3 0.815188 0.405743 0.233084
O O4 0.785007 0.456689 0.048425
O O5 0.500000 0.623381 0.750000
O O6 0.338000 0.651839 0.578384
O O7 0.496573 0.575982 0.544335
O O8 0.500000 0.179690 0.750000
O O9 0.229346 0.228983 0.822932
O O10 0.316378 0.201397 0.046044
O O11 0.500000 0.839788 0.750000
O O12 0.223275 0.800288 0.858376
O O13 0.207526 0.875731 0.775993
O O14 0.735859 0.046322 0.200407
O O15 0.000000 0.000000 0.000000
O O16 0.000000 0.222854 0.250000
O O17 0.500000 0.568236 0.250000
#
# Coordination Sequence:
#
# PCOD9280764 Si02
#       7
#     8   8   8   8   8   8   8
#     4   9  21  42  63  94 127 168 211 276 319 395
#     4  10  23  41  66  90 131 172 210 270 333 397
#     4  10  24  41  57  91 132 171 211 271 332 383
#     4   9  19  34  62  90 118 160 217 260 312 372
#     4  10  22  42  64  93 128 167 213 267 332 397
#     4  10  22  39  62  87 128 169 220 276 313 385
#     4  10  21  37  63  93 121 162 213 260 316 389
#
# _framework density 24.703637000000001
#
# number of rings (size 3 to 8) (size 9 to 14) (size 15 to 20)
#    0.000    2.286    0.000    1.714   12.000    2.286 
#    0.000    6.429    0.000    0.000    0.000    0.000 
#    0.000    0.000    0.000    0.000    0.000    0.000 
#
# Total GULP energy -156006.342693 kJ/mol
# GULP energy per Si atom -5571.655096 kJ/mol
# Density = 2.464741 g / cm^3
# Si number density = 24.703637 Si / 1000 Ang^3
#
#
#
# Elastic Constant Matrix: (Units=GPa)
#
#
# Indices 1 2 3 4 5 6 
#
# 1 68.5358 37.4703 43.6243 0.0000 -21.2215 0.0000
# 2 37.4703 98.6525 0.7584 0.0000 -6.0046 0.0000
# 3 43.6243 0.7584 89.9606 0.0000 -36.7085 0.0000
# 4 0.0000 0.0000 0.0000 19.3079 0.0000 -0.6249
# 5 -21.2215 -6.0046 -36.7085 0.0000 42.7035 0.0000
# 6 0.0000 0.0000 0.0000 -0.6249 0.0000 19.5012
#
#
#
# Elastic Compliance Matrix: (Units=1/GPa)
#
#
# Indices 1 2 3 4 5 6 
#
# 1 0.029970 -0.011192 -0.013868 0.000000 0.001399 0.000000
# 2 -0.011192 0.014438 0.005952 0.000000 0.001585 0.000000
# 3 -0.013868 0.005952 0.023597 0.000000 0.014230 0.000000
# 4 0.000000 0.000000 0.000000 0.051846 0.000000 0.001661
# 5 0.001399 0.001585 0.014230 0.000000 0.036567 0.000000
# 6 0.000000 0.000000 0.000000 0.001661 0.000000 0.051332
#
#
# Mechanical properties :
#
#
# Convention : Reuss Voigt Hill
#
# Bulk Modulus (GPa) = 33.56800 46.76165 40.16483
# Shear Modulus (GPa) = 19.53915 27.98889 23.76402
#
# Velocity S-wave (km/s) = 2.81542 3.36964 3.10492
# Velocity P-wave (km/s) = 4.91798 5.84033 5.39889
#
# Compressibility (1/GPa) = 0.02979027
#
# Stress axis : x y z
#
# Youngs Moduli (GPa) = 33.36655 69.26117 42.37770
#
# Poissons Ratio (x) = 0.77514 0.58770
# Poissons Ratio (y) = 0.37342 -0.25224
# Poissons Ratio (z) = 0.46274 -0.41225
#
# Static dielectric constant tensor:
#      x y z
#    x 2.122380 0.000000 0.105300 
#    y 0.000000 2.104200 0.000000 
#    z 0.105300 0.000000 2.033350 
# 
# From -- ./inp_files/82460.got.cif
#   From: 2010.05.17/outbox.cif.g08.bks.cpg/sg15_42_cif.got.tgz:82460.got - 2010.06.03 18:47:42.
