data_PCOD9280861
_publ_section_title
;
Structure prediction by ZEFSAII (Michael W. Deem and Ramdas Pophale) SiO2 
 PCOD9280861
Probable space group: C 2/C
;
_chemical_formula_sum "Si O2"
_cell_formula_units_Z 48
_cell_length_a 14.255332
_cell_length_b 8.508839
_cell_length_c 26.386784
_cell_angle_alpha 90.000000
_cell_angle_beta 43.507833
_cell_angle_gamma 90.000000
_cell_volume 2203.478746
_symmetry_space_group_name_H-M "C 2/C"
_symmetry_group_IT_number 15
_symmetry_cell_setting 'monoclinic'
loop_
_space_group_symop_operation_xyz
x,y,z
-x,y,1/2-z
-x,-y,-z
x,-y,1/2+z
1/2+x,1/2+y,z
1/2-x,1/2+y,1/2-z
1/2-x,1/2-y,-z
1/2+x,1/2-y,1/2+z
loop_
_atom_site_type_symbol
_atom_site_label
_atom_site_fract_x
_atom_site_fract_y
_atom_site_fract_z
Si Si1 0.160401 0.002006 0.699872
Si Si2 0.645957 0.851982 0.220631
Si Si3 0.598257 0.186936 0.062514
Si Si4 0.407063 0.363484 0.056095
Si Si5 0.582019 0.179727 0.270399
Si Si6 0.862521 0.440518 0.527653
O O1 0.185868 0.831226 0.717296
O O2 0.244668 0.995188 0.613651
O O3 0.000000 0.003709 0.750000
O O4 0.179381 0.167518 0.722781
O O5 0.500000 0.836207 0.250000
O O6 0.765190 0.910425 0.136612
O O7 0.636433 0.003140 0.261194
O O8 0.497953 0.271372 0.061896
O O9 0.527618 0.213840 0.143425
O O10 0.750000 0.250000 0.000000
O O11 0.624463 0.009850 0.033238
O O12 0.366690 0.245639 0.027219
O O13 0.500000 0.500000 0.000000
O O14 0.500000 0.162140 0.250000
O O15 0.000000 0.500000 0.500000
#
# Coordination Sequence:
#
# PCOD9280861 Si02
#       6
#     8   8   8   8   8   8
#     4   9  17  35  61  86 120 165 211 259 319 379
#     4   9  20  38  64  90 124 171 221 262 330 398
#     4  11  23  41  66 103 130 170 230 265 339 413
#     4  10  23  42  66  98 129 172 221 278 339 397
#     4  10  21  37  65  90 127 180 211 267 331 388
#     4   9  20  39  64  90 129 169 208 274 325 383
#
# _framework density 21.783736999999999
#
# number of rings (size 3 to 8) (size 9 to 14) (size 15 to 20)
#    0.000    2.333    0.000    2.000    9.333    0.000 
#   12.000    0.833    0.000    0.000    0.000    0.000 
#    0.000    0.000    0.000    0.000    0.000    0.000 
#
# Total GULP energy -133618.068826 kJ/mol
# GULP energy per Si atom -5567.419534 kJ/mol
# Density = 2.173416 g / cm^3
# Si number density = 21.783737 Si / 1000 Ang^3
#
#
#
# Elastic Constant Matrix: (Units=GPa)
#
#
# Indices 1 2 3 4 5 6 
#
# 1 43.8494 10.1595 22.3397 0.0000 -0.6623 0.0000
# 2 10.1595 120.6191 40.4056 0.0000 17.3586 0.0000
# 3 22.3397 40.4056 131.1329 0.0000 -7.5999 0.0000
# 4 0.0000 0.0000 0.0000 26.0839 0.0000 -0.1638
# 5 -0.6623 17.3586 -7.5999 0.0000 39.3911 0.0000
# 6 0.0000 0.0000 0.0000 -0.1638 0.0000 23.4691
#
#
#
# Elastic Compliance Matrix: (Units=1/GPa)
#
#
# Indices 1 2 3 4 5 6 
#
# 1 0.025035 -0.000754 -0.004034 0.000000 -0.000025 0.000000
# 2 -0.000754 0.010205 -0.003315 0.000000 -0.005149 0.000000
# 3 -0.004034 -0.003315 0.009522 0.000000 0.003230 0.000000
# 4 0.000000 0.000000 0.000000 0.038340 0.000000 0.000268
# 5 -0.000025 -0.005149 0.003230 0.000000 0.028278 0.000000
# 6 0.000000 0.000000 0.000000 0.000268 0.000000 0.042611
#
#
# Mechanical properties :
#
#
# Convention : Reuss Voigt Hill
#
# Bulk Modulus (GPa) = 35.01759 49.04568 42.03163
# Shear Modulus (GPa) = 27.82185 32.63524 30.22855
#
# Velocity S-wave (km/s) = 3.57765 3.87479 3.72918
# Velocity P-wave (km/s) = 5.75987 6.52552 6.15461
#
# Compressibility (1/GPa) = 0.02855708
#
# Stress axis : x y z
#
# Youngs Moduli (GPa) = 39.94439 97.98680 105.02399
#
# Poissons Ratio (x) = 0.07384 0.42369
# Poissons Ratio (y) = 0.03010 0.34812
# Poissons Ratio (z) = 0.16114 0.32479
#
# Static dielectric constant tensor:
#      x y z
#    x 1.803960 0.000000 -0.003850 
#    y 0.000000 2.038490 0.000000 
#    z -0.003850 0.000000 1.797270 
# 
# From -- ./inp_files/315645.got.cif
#   From: 2010.05.17/outbox.cif.g08.bks.cpg/sg15_158_cif.got.tgz:315645.got - 2010.06.03 18:47:42.
