data_PCOD9280451
_publ_section_title
;
Structure prediction by ZEFSAII (Michael W. Deem and Ramdas Pophale) SiO2 
 PCOD9280451
Probable space group: C 2/C
;
_chemical_formula_sum "Si O2"
_cell_formula_units_Z 40
_cell_length_a 8.248283
_cell_length_b 26.878803
_cell_length_c 6.684720
_cell_angle_alpha 90.000000
_cell_angle_beta 85.454215
_cell_angle_gamma 90.000000
_cell_volume 1477.366997
_symmetry_space_group_name_H-M "C 2/C"
_symmetry_group_IT_number 15
_symmetry_cell_setting 'monoclinic'
loop_
_space_group_symop_operation_xyz
x,y,z
-x,y,1/2-z
-x,-y,-z
x,-y,1/2+z
1/2+x,1/2+y,z
1/2-x,1/2+y,1/2-z
1/2-x,1/2-y,-z
1/2+x,1/2-y,1/2+z
loop_
_atom_site_type_symbol
_atom_site_label
_atom_site_fract_x
_atom_site_fract_y
_atom_site_fract_z
Si Si1 0.190417 0.741446 0.776313
Si Si2 0.336869 0.969461 0.973717
Si Si3 0.294838 0.157927 0.117658
Si Si4 0.165242 0.362288 0.439049
Si Si5 0.834159 0.939337 0.884029
O O1 0.284631 0.782176 0.632169
O O2 0.000000 0.751351 0.750000
O O3 0.250000 0.750000 0.000000
O O4 0.209055 0.680881 0.774758
O O5 0.196105 0.011170 0.986865
O O6 0.318908 0.920804 0.115890
O O7 0.315471 0.944996 0.759146
O O8 0.500000 0.000000 0.000000
O O9 0.245731 0.148162 0.358960
O O10 0.477517 0.145433 0.027499
O O11 0.182565 0.115772 0.026170
O O12 0.000000 0.941672 0.750000
#
# Coordination Sequence:
#
# PCOD9280451 Si02
#       5
#     8   8   8   8   8
#     4  10  21  37  60  87 120 156 203 256 303 361
#     4  11  21  38  63  89 120 164 209 247 305 379
#     4   9  18  37  61  84 115 160 202 242 309 371
#     4   9  19  36  60  87 116 157 207 248 294 374
#     4  11  22  37  60  90 124 159 202 258 311 364
#
# _framework density 27.075196999999999
#
# number of rings (size 3 to 8) (size 9 to 14) (size 15 to 20)
#    0.000    2.000    2.000    1.800    0.000    2.400 
#    0.000    0.000   17.600    0.000    0.000    0.000 
#    0.000    0.000    0.000    0.000    0.000    0.000 
#
# Total GULP energy -111500.633364 kJ/mol
# GULP energy per Si atom -5575.031668 kJ/mol
# Density = 2.701357 g / cm^3
# Si number density = 27.075197 Si / 1000 Ang^3
#
#
#
# Elastic Constant Matrix: (Units=GPa)
#
#
# Indices 1 2 3 4 5 6 
#
# 1 85.5305 39.8320 10.8687 0.0000 -6.5022 0.0000
# 2 39.8320 283.3374 71.2356 0.0000 -38.6781 0.0000
# 3 10.8687 71.2356 49.0793 0.0000 -0.5754 0.0000
# 4 0.0000 0.0000 0.0000 67.0854 0.0000 -5.2718
# 5 -6.5022 -38.6781 -0.5754 0.0000 48.4914 0.0000
# 6 0.0000 0.0000 0.0000 -5.2718 0.0000 23.3888
#
#
#
# Elastic Compliance Matrix: (Units=1/GPa)
#
#
# Indices 1 2 3 4 5 6 
#
# 1 0.012521 -0.001588 -0.000462 0.000000 0.000406 0.000000
# 2 -0.001588 0.006850 -0.009531 0.000000 0.005138 0.000000
# 3 -0.000462 -0.009531 0.034226 0.000000 -0.007258 0.000000
# 4 0.000000 0.000000 0.000000 0.015175 0.000000 0.003420
# 5 0.000406 0.005138 -0.007258 0.000000 0.024689 0.000000
# 6 0.000000 0.000000 0.000000 0.003420 0.000000 0.043526
#
#
# Mechanical properties :
#
#
# Convention : Reuss Voigt Hill
#
# Bulk Modulus (GPa) = 32.85818 73.53553 53.19685
# Shear Modulus (GPa) = 29.36083 47.52719 38.44401
#
# Velocity S-wave (km/s) = 3.29662 4.19427 3.77224
# Velocity P-wave (km/s) = 5.16261 7.11861 6.21800
#
# Compressibility (1/GPa) = 0.03043382
#
# Stress axis : x y z
#
# Youngs Moduli (GPa) = 79.86478 145.98156 29.21790
#
# Poissons Ratio (x) = 0.23189 0.01351
# Poissons Ratio (y) = 0.12686 0.27846
# Poissons Ratio (z) = 0.03693 1.39129
#
# Static dielectric constant tensor:
#      x y z
#    x 2.062380 0.000000 0.089740 
#    y 0.000000 2.392440 0.000000 
#    z 0.089740 0.000000 2.466610 
# 
# From -- ./inp_files/23449.got.cif
#   From: 2010.05.17/outbox.cif.g08.bks.cpg/sg15_12_cif.got.tgz:23449.got - 2010.06.03 18:47:42.
