data_PCOD9280520
_publ_section_title
;
Structure prediction by ZEFSAII (Michael W. Deem and Ramdas Pophale) SiO2 
 PCOD9280520
Probable space group: C 2/C
;
_chemical_formula_sum "Si O2"
_cell_formula_units_Z 40
_cell_length_a 22.132642
_cell_length_b 10.227860
_cell_length_c 9.216077
_cell_angle_alpha 90.000000
_cell_angle_beta 110.888926
_cell_angle_gamma 90.000000
_cell_volume 1949.117926
_symmetry_space_group_name_H-M "C 2/C"
_symmetry_group_IT_number 15
_symmetry_cell_setting 'monoclinic'
loop_
_space_group_symop_operation_xyz
x,y,z
-x,y,1/2-z
-x,-y,-z
x,-y,1/2+z
1/2+x,1/2+y,z
1/2-x,1/2+y,1/2-z
1/2-x,1/2-y,-z
1/2+x,1/2-y,1/2+z
loop_
_atom_site_type_symbol
_atom_site_label
_atom_site_fract_x
_atom_site_fract_y
_atom_site_fract_z
Si Si1 0.055450 0.900273 0.488409
Si Si2 0.558579 0.114711 0.383528
Si Si3 0.577220 0.368707 0.814292
Si Si4 0.184963 0.325442 0.477058
Si Si5 0.639971 0.970994 0.700327
O O1 0.035658 0.757137 0.417641
O O2 0.098636 0.872828 0.665618
O O3 0.084790 0.986718 0.386192
O O4 0.000000 0.000000 0.500000
O O5 0.500000 0.043545 0.250000
O O6 0.587350 0.034886 0.543830
O O7 0.610103 0.125686 0.296236
O O8 0.500000 0.333072 0.750000
O O9 0.622018 0.268042 0.936681
O O10 0.250000 0.250000 0.500000
O O11 0.188792 0.403566 0.630972
O O12 0.170116 0.418084 0.327608
#
# Coordination Sequence:
#
# PCOD9280520 Si02
#       5
#     8   8   8   8   8
#     4  10  21  37  60  96 133 170 219 261 327 377
#     4  11  21  39  66  98 138 171 211 272 325 389
#     4  10  22  38  64  94 131 167 218 272 322 382
#     4  11  25  47  67  92 134 171 222 272 326 394
#     4  10  25  43  63  98 126 173 226 258 333 401
#
# _framework density 20.522103999999999
#
# number of rings (size 3 to 8) (size 9 to 14) (size 15 to 20)
#    0.000    1.600    2.000    2.400    8.400    4.800 
#    0.000    2.000    0.000    0.000    0.000    0.000 
#    0.000    0.000    0.000    0.000    0.000    0.000 
#
# Total GULP energy -111497.002879 kJ/mol
# GULP energy per Si atom -5574.850144 kJ/mol
# Density = 2.047540 g / cm^3
# Si number density = 20.522104 Si / 1000 Ang^3
#
#
#
# Elastic Constant Matrix: (Units=GPa)
#
#
# Indices 1 2 3 4 5 6 
#
# 1 62.8347 19.5597 9.4274 0.0000 -0.2639 0.0000
# 2 19.5597 60.1600 1.1918 0.0000 1.5437 0.0000
# 3 9.4274 1.1918 99.9603 0.0000 -17.9482 0.0000
# 4 0.0000 0.0000 0.0000 28.0838 0.0000 -9.0434
# 5 -0.2639 1.5437 -17.9482 0.0000 18.1190 0.0000
# 6 0.0000 0.0000 0.0000 -9.0434 0.0000 27.0450
#
#
#
# Elastic Compliance Matrix: (Units=1/GPa)
#
#
# Indices 1 2 3 4 5 6 
#
# 1 0.017983 -0.005784 -0.001814 0.000000 -0.001042 0.000000
# 2 -0.005784 0.018544 0.000031 0.000000 -0.001633 0.000000
# 3 -0.001814 0.000031 0.012370 0.000000 0.012224 0.000000
# 4 0.000000 0.000000 0.000000 0.039904 0.000000 0.013343
# 5 -0.001042 -0.001633 0.012224 0.000000 0.067423 0.000000
# 6 0.000000 0.000000 0.000000 0.013343 0.000000 0.041437
#
#
# Mechanical properties :
#
#
# Convention : Reuss Voigt Hill
#
# Bulk Modulus (GPa) = 29.61867 31.47919 30.54893
# Shear Modulus (GPa) = 22.31640 27.50130 24.90885
#
# Velocity S-wave (km/s) = 3.30120 3.66468 3.48768
# Velocity P-wave (km/s) = 5.38465 5.76880 5.58003
#
# Compressibility (1/GPa) = 0.03376249
#
# Stress axis : x y z
#
# Youngs Moduli (GPa) = 55.60767 53.92514 80.84368
#
# Poissons Ratio (x) = 0.31191 0.14667
# Poissons Ratio (y) = 0.32164 -0.00252
# Poissons Ratio (z) = 0.10088 -0.00168
#
# Static dielectric constant tensor:
#      x y z
#    x 1.807730 0.000000 0.007440 
#    y 0.000000 1.767260 0.000000 
#    z 0.007440 0.000000 1.790270 
# 
# From -- ./inp_files/46270.got.cif
#   From: 2010.05.17/outbox.cif.g08.bks.cpg/sg15_24_cif.got.tgz:46270.got - 2010.06.03 18:47:42.
