data_PCOD9280882
_publ_section_title
;
Structure prediction by ZEFSAII (Michael W. Deem and Ramdas Pophale) SiO2 
 PCOD9280882
Probable space group: C 2/C
;
_chemical_formula_sum "Si O2"
_cell_formula_units_Z 44
_cell_length_a 14.396853
_cell_length_b 9.316477
_cell_length_c 15.806779
_cell_angle_alpha 90.000000
_cell_angle_beta 52.222036
_cell_angle_gamma 90.000000
_cell_volume 1675.731670
_symmetry_space_group_name_H-M "C 2/C"
_symmetry_group_IT_number 15
_symmetry_cell_setting 'monoclinic'
loop_
_space_group_symop_operation_xyz
x,y,z
-x,y,1/2-z
-x,-y,-z
x,-y,1/2+z
1/2+x,1/2+y,z
1/2-x,1/2+y,1/2-z
1/2-x,1/2-y,-z
1/2+x,1/2-y,1/2+z
loop_
_atom_site_type_symbol
_atom_site_label
_atom_site_fract_x
_atom_site_fract_y
_atom_site_fract_z
Si Si1 0.505048 0.055423 0.650411
Si Si2 0.376765 0.574119 0.046991
Si Si3 0.782150 0.698335 0.690907
Si Si4 0.000000 0.023173 0.250000
Si Si5 0.759359 0.978721 0.939751
Si Si6 0.037896 0.769874 0.362908
O O1 0.500000 0.104148 0.750000
O O2 0.627291 0.079532 0.529632
O O3 0.477079 0.884784 0.669122
O O4 0.397176 0.130126 0.664565
O O5 0.298271 0.630690 0.166447
O O6 0.500000 0.500000 0.000000
O O7 0.298146 0.517357 0.014508
O O8 0.433843 0.726493 0.987316
O O9 0.744258 0.610280 0.626662
O O10 0.670442 0.698799 0.817038
O O11 0.123608 0.102901 0.161955
O O12 0.010016 0.908739 0.320956
#
# Coordination Sequence:
#
# PCOD9280882 Si02
#       6
#     8   8   8   4   8   8
#     4  12  24  40  69  99 134 180 219 282 336 398
#     4  11  24  41  66  97 131 178 217 280 335 395
#     4  11  24  42  66 100 132 170 228 279 331 399
#     4   8  18  36  62  96 118 166 220 286 308 384
#     4  10  21  42  68  94 130 171 234 269 328 396
#     4  10  21  37  65  95 127 166 224 271 332 390
#
# _framework density 26.257187999999999
#
# number of rings (size 3 to 8) (size 9 to 14) (size 15 to 20)
#    0.000    1.455    2.727    2.182    7.636    0.000 
#    0.000    2.727    2.000    0.000    0.000    0.000 
#    0.000    0.000    0.000    0.000    0.000    0.000 
#
# Total GULP energy -122694.186265 kJ/mol
# GULP energy per Si atom -5577.008467 kJ/mol
# Density = 2.619742 g / cm^3
# Si number density = 26.257188 Si / 1000 Ang^3
#
#
#
# Elastic Constant Matrix: (Units=GPa)
#
#
# Indices 1 2 3 4 5 6 
#
# 1 136.4057 12.3149 18.4538 0.0000 -18.3765 0.0000
# 2 12.3149 40.7806 1.2775 0.0000 -1.0949 0.0000
# 3 18.4538 1.2775 89.3446 0.0000 -50.8355 0.0000
# 4 0.0000 0.0000 0.0000 19.6331 0.0000 -4.8233
# 5 -18.3765 -1.0949 -50.8355 0.0000 69.0410 0.0000
# 6 0.0000 0.0000 0.0000 -4.8233 0.0000 3.8537
#
#
#
# Elastic Compliance Matrix: (Units=1/GPa)
#
#
# Indices 1 2 3 4 5 6 
#
# 1 0.007841 -0.002305 -0.000723 0.000000 0.001518 0.000000
# 2 -0.002305 0.025212 -0.000010 0.000000 -0.000221 0.000000
# 3 -0.000723 -0.000010 0.019331 0.000000 0.014041 0.000000
# 4 0.000000 0.000000 0.000000 0.073550 0.000000 0.092058
# 5 0.001518 -0.000221 0.014041 0.000000 0.025224 0.000000
# 6 0.000000 0.000000 0.000000 0.092058 0.000000 0.374715
#
#
# Mechanical properties :
#
#
# Convention : Reuss Voigt Hill
#
# Bulk Modulus (GPa) = 21.59394 36.73594 29.16494
# Shear Modulus (GPa) = 9.13434 34.13787 21.63610
#
# Velocity S-wave (km/s) = 1.86718 3.60965 2.87367
# Velocity P-wave (km/s) = 3.59031 5.60303 4.70554
#
# Compressibility (1/GPa) = 0.04630928
#
# Stress axis : x y z
#
# Youngs Moduli (GPa) = 127.52710 39.66399 51.72973
#
# Poissons Ratio (x) = 0.09141 0.03738
# Poissons Ratio (y) = 0.29389 0.00054
# Poissons Ratio (z) = 0.09216 0.00041
#
# Static dielectric constant tensor:
#      x y z
#    x 2.111390 0.000000 0.081550 
#    y 0.000000 2.106680 0.000000 
#    z 0.081550 0.000000 2.246010 
# 
# From -- ./inp_files/203845.got.cif
#   From: 2010.05.17/outbox.cif.g08.bks.cpg/sg15_102_cif.got.tgz:203845.got - 2010.06.03 18:47:42.
