data_PCOD9280043
_publ_section_title
;
Structure prediction by ZEFSAII (Michael W. Deem and Ramdas Pophale) SiO2 
 PCOD9280043
Probable space group: C 2/C
;
_chemical_formula_sum "Si O2"
_cell_formula_units_Z 52
_cell_length_a 11.963435
_cell_length_b 28.034382
_cell_length_c 9.454064
_cell_angle_alpha 90.000000
_cell_angle_beta 53.842884
_cell_angle_gamma 90.000000
_cell_volume 2560.090467
_symmetry_space_group_name_H-M "C 2/C"
_symmetry_group_IT_number 15
_symmetry_cell_setting 'monoclinic'
loop_
_space_group_symop_operation_xyz
x,y,z
-x,y,1/2-z
-x,-y,-z
x,-y,1/2+z
1/2+x,1/2+y,z
1/2-x,1/2+y,1/2-z
1/2-x,1/2-y,-z
1/2+x,1/2-y,1/2+z
loop_
_atom_site_type_symbol
_atom_site_label
_atom_site_fract_x
_atom_site_fract_y
_atom_site_fract_z
Si Si1 0.356809 0.381407 0.928166
Si Si2 0.355172 0.252778 0.590944
Si Si3 0.855324 0.774945 0.029053
Si Si4 0.000000 0.695684 0.250000
Si Si5 0.230005 0.644346 0.233506
Si Si6 0.830779 0.048843 0.014416
Si Si7 0.836121 0.043316 0.685954
O O1 0.500000 0.400944 0.750000
O O2 0.250427 0.371830 0.879935
O O3 0.386652 0.328821 0.964141
O O4 0.308764 0.414714 0.092596
O O5 0.227832 0.226835 0.761770
O O6 0.500089 0.247495 0.567699
O O7 0.392526 0.229368 0.413476
O O8 0.322811 0.309132 0.626793
O O9 0.750000 0.750000 0.000000
O O10 0.921115 0.662277 0.197675
O O11 0.278424 0.599470 0.107296
O O12 0.785966 0.004798 0.146452
O O13 0.784430 0.044440 0.885915
O O14 0.997458 0.046180 0.911372
#
# Coordination Sequence:
#
# PCOD9280043 Si02
#       7
#     8   8   8   4   8   8   8
#     4  12  21  38  63  97 133 171 213 276 335 402
#     4  12  24  41  63  92 133 181 225 281 325 396
#     4  12  22  39  63  96 132 177 228 271 337 396
#     4  12  28  44  60  90 134 184 228 278 330 404
#     4  12  24  42  64  92 132 177 223 273 338 390
#     4  10  21  37  62  96 132 167 201 275 330 407
#     4  10  21  36  63  99 131 160 211 263 346 394
#
# _framework density 20.311782000000001
#
# number of rings (size 3 to 8) (size 9 to 14) (size 15 to 20)
#    0.000    0.615    6.154    1.846    4.308    1.231 
#    0.000    0.000    0.000    3.692    0.000    0.000 
#    0.000    0.000    0.000    0.000    0.000    0.000 
#
# Total GULP energy -145168.279936 kJ/mol
# GULP energy per Si atom -5583.395382 kJ/mol
# Density = 2.026555 g / cm^3
# Si number density = 20.311782 Si / 1000 Ang^3
#
#
#
# Elastic Constant Matrix: (Units=GPa)
#
#
# Indices 1 2 3 4 5 6 
#
# 1 108.6144 24.2628 30.7864 0.0000 28.7204 0.0000
# 2 24.2628 88.5002 42.0611 0.0000 23.4592 0.0000
# 3 30.7864 42.0611 113.6279 0.0000 33.7770 0.0000
# 4 0.0000 0.0000 0.0000 32.6480 0.0000 6.1191
# 5 28.7204 23.4592 33.7770 0.0000 44.5813 0.0000
# 6 0.0000 0.0000 0.0000 6.1191 0.0000 25.3951
#
#
#
# Elastic Compliance Matrix: (Units=1/GPa)
#
#
# Indices 1 2 3 4 5 6 
#
# 1 0.011293 -0.001083 -0.000859 0.000000 -0.006055 0.000000
# 2 -0.001083 0.014502 -0.003890 0.000000 -0.003986 0.000000
# 3 -0.000859 -0.003890 0.012520 0.000000 -0.006886 0.000000
# 4 0.000000 0.000000 0.000000 0.032078 0.000000 -0.007730
# 5 -0.006055 -0.003986 -0.006886 0.000000 0.033646 0.000000
# 6 0.000000 0.000000 0.000000 -0.007730 0.000000 0.041240
#
#
# Mechanical properties :
#
#
# Convention : Reuss Voigt Hill
#
# Bulk Modulus (GPa) = 37.52112 56.10701 46.81407
# Shear Modulus (GPa) = 30.15198 34.76703 32.45950
#
# Velocity S-wave (km/s) = 3.85705 4.14172 4.00191
# Velocity P-wave (km/s) = 6.19261 7.11018 6.66720
#
# Compressibility (1/GPa) = 0.02665166
#
# Stress axis : x y z
#
# Youngs Moduli (GPa) = 88.54790 68.95816 79.87197
#
# Poissons Ratio (x) = 0.07467 0.06862
# Poissons Ratio (y) = 0.09588 0.31067
# Poissons Ratio (z) = 0.07608 0.26822
#
# Static dielectric constant tensor:
#      x y z
#    x 1.783510 0.000000 0.038870 
#    y 0.000000 1.691340 0.000000 
#    z 0.038870 0.000000 1.777870 
# 
# From -- ./inp_files/34070.got.cif
#   From: 2010.05.17/outbox.cif.g08.bks.cpg/sg15_18_cif.got.tgz:34070.got - 2010.06.03 18:47:42.
