data_PCOD9280896
_publ_section_title
;
Structure prediction by ZEFSAII (Michael W. Deem and Ramdas Pophale) SiO2 
 PCOD9280896
Probable space group: C 2/C
;
_chemical_formula_sum "Si O2"
_cell_formula_units_Z 52
_cell_length_a 8.808586
_cell_length_b 16.513152
_cell_length_c 18.104160
_cell_angle_alpha 90.000000
_cell_angle_beta 130.597612
_cell_angle_gamma 90.000000
_cell_volume 1999.526012
_symmetry_space_group_name_H-M "C 2/C"
_symmetry_group_IT_number 15
_symmetry_cell_setting 'monoclinic'
loop_
_space_group_symop_operation_xyz
x,y,z
-x,y,1/2-z
-x,-y,-z
x,-y,1/2+z
1/2+x,1/2+y,z
1/2-x,1/2+y,1/2-z
1/2-x,1/2-y,-z
1/2+x,1/2-y,1/2+z
loop_
_atom_site_type_symbol
_atom_site_label
_atom_site_fract_x
_atom_site_fract_y
_atom_site_fract_z
Si Si1 0.223796 0.143241 0.044409
Si Si2 0.673486 0.833621 0.697894
Si Si3 0.043117 0.093446 0.841281
Si Si4 0.203986 0.169848 0.530521
Si Si5 0.000000 0.708378 0.750000
Si Si6 0.803224 0.553911 0.432372
Si Si7 0.731301 0.984018 0.824114
O O1 0.436086 0.182075 0.135198
O O2 0.223400 0.052826 0.080584
O O3 0.188675 0.137830 0.945390
O O4 0.019925 0.180551 0.010232
O O5 0.834295 0.762277 0.742290
O O6 0.672099 0.874232 0.617054
O O7 0.746260 0.903329 0.777124
O O8 0.000000 0.137329 0.750000
O O9 0.151093 0.010838 0.852198
O O10 0.860575 0.057264 0.832083
O O11 0.250000 0.250000 0.500000
O O12 0.368675 0.164239 0.646769
O O13 0.226925 0.093609 0.483566
O O14 0.000000 0.500000 0.500000
O O15 0.500000 0.005848 0.750000
#
# Coordination Sequence:
#
# PCOD9280896 Si02
#       7
#     8   8   8   8   4   8   8
#     4  11  25  44  70 112 146 193 255 317 379 452
#     4  11  22  46  77 105 143 202 255 302 386 472
#     4  12  23  40  68 108 155 198 243 309 376 457
#     4  12  27  49  77 107 153 203 258 320 386 472
#     4  12  26  48  76 108 148 200 258 316 390 462
#     4  12  24  44  75 108 149 201 253 312 392 458
#     4  10  21  37  66 104 139 193 247 297 365 454
#
# _framework density 26.006162
#
# number of rings (size 3 to 8) (size 9 to 14) (size 15 to 20)
#    0.000    0.615    6.154    2.308    0.000    1.846 
#    1.385    0.000    0.000    0.000    0.000    0.000 
#    0.000    0.000    0.000    0.000    0.000    0.000 
#
# Total GULP energy -145716.077636 kJ/mol
# GULP energy per Si atom -5604.464524 kJ/mol
# Density = 2.594697 g / cm^3
# Si number density = 26.006162 Si / 1000 Ang^3
#
#
#
# Elastic Constant Matrix: (Units=GPa)
#
#
# Indices 1 2 3 4 5 6 
#
# 1 112.7983 19.4503 45.2939 0.0000 24.4167 0.0000
# 2 19.4503 53.2713 33.2498 0.0000 -8.0874 0.0000
# 3 45.2939 33.2498 160.3079 0.0000 -1.0620 0.0000
# 4 0.0000 0.0000 0.0000 35.7145 0.0000 -2.0088
# 5 24.4167 -8.0874 -1.0620 0.0000 50.0626 0.0000
# 6 0.0000 0.0000 0.0000 -2.0088 0.0000 51.1634
#
#
#
# Elastic Compliance Matrix: (Units=1/GPa)
#
#
# Indices 1 2 3 4 5 6 
#
# 1 0.011977 -0.003699 -0.002660 0.000000 -0.006496 0.000000
# 2 -0.003699 0.023296 -0.003750 0.000000 0.005488 0.000000
# 3 -0.002660 -0.003750 0.007773 0.000000 0.000856 0.000000
# 4 0.000000 0.000000 0.000000 0.028062 0.000000 0.001102
# 5 -0.006496 0.005488 0.000856 0.000000 0.024048 0.000000
# 6 0.000000 0.000000 0.000000 0.001102 0.000000 0.019588
#
#
# Mechanical properties :
#
#
# Convention : Reuss Voigt Hill
#
# Bulk Modulus (GPa) = 43.80578 58.04059 50.92319
# Shear Modulus (GPa) = 35.06969 42.61367 38.84168
#
# Velocity S-wave (km/s) = 3.67620 4.05235 3.86885
# Velocity P-wave (km/s) = 5.90764 6.65296 6.29135
#
# Compressibility (1/GPa) = 0.02282804
#
# Stress axis : x y z
#
# Youngs Moduli (GPa) = 83.49071 42.92497 128.64876
#
# Poissons Ratio (x) = 0.15878 0.34220
# Poissons Ratio (y) = 0.30884 0.48249
# Poissons Ratio (z) = 0.22208 0.16099
#
# Static dielectric constant tensor:
#      x y z
#    x 1.405770 0.000000 0.088720 
#    y 0.000000 2.062740 0.000000 
#    z 0.088720 0.000000 2.034050 
# 
# From -- ./inp_files/192619.got.cif
#   From: 2010.05.17/outbox.cif.g08.bks.cpg/sg15_97_cif.got.tgz:192619.got - 2010.06.03 18:47:42.
