data_PCOD9280029
_publ_section_title
;
Structure prediction by ZEFSAII (Michael W. Deem and Ramdas Pophale) SiO2 
 PCOD9280029
Probable space group: C 2/C
;
_chemical_formula_sum "Si O2"
_cell_formula_units_Z 56
_cell_length_a 30.016370
_cell_length_b 12.383493
_cell_length_c 23.750991
_cell_angle_alpha 90.000000
_cell_angle_beta 17.112802
_cell_angle_gamma 90.000000
_cell_volume 2597.797309
_symmetry_space_group_name_H-M "C 2/C"
_symmetry_group_IT_number 15
_symmetry_cell_setting 'monoclinic'
loop_
_space_group_symop_operation_xyz
x,y,z
-x,y,1/2-z
-x,-y,-z
x,-y,1/2+z
1/2+x,1/2+y,z
1/2-x,1/2+y,1/2-z
1/2-x,1/2-y,-z
1/2+x,1/2-y,1/2+z
loop_
_atom_site_type_symbol
_atom_site_label
_atom_site_fract_x
_atom_site_fract_y
_atom_site_fract_z
Si Si1 0.303337 0.592330 0.694270
Si Si2 0.293898 0.367655 0.425810
Si Si3 0.000000 0.504120 0.750000
Si Si4 0.218257 0.142078 0.907643
Si Si5 0.000000 0.980321 0.750000
Si Si6 0.055961 0.927469 0.367288
Si Si7 0.804632 0.381303 0.575643
Si Si8 0.477525 0.974028 0.460830
O O1 0.298332 0.645501 0.639811
O O2 0.390338 0.479068 0.573304
O O3 0.400568 0.638191 0.628670
O O4 0.131164 0.574980 0.924424
O O5 0.250000 0.250000 0.500000
O O6 0.140593 0.429148 0.595376
O O7 0.376963 0.440850 0.371409
O O8 0.403686 0.366250 0.238375
O O9 0.056595 0.576551 0.630024
O O10 0.354580 0.061247 0.758940
O O11 0.071587 0.095175 0.115446
O O12 0.247681 0.266918 0.885504
O O13 0.169536 0.031597 0.232546
O O14 0.873558 0.382455 0.555880
O O15 0.500000 0.000000 0.500000
#
# Coordination Sequence:
#
# PCOD9280029 Si02
#       8
#     8   8   4   8   4   8   8   8
#     4   9  18  39  64  85 125 166 209 262 318 374
#     4  11  23  42  66  90 123 171 222 268 322 385
#     4  10  22  42  62  90 128 168 204 262 310 384
#     4  11  22  36  63  96 131 163 202 257 332 400
#     4  12  24  40  64  96 130 168 206 276 324 390
#     4   9  19  39  65  89 123 166 210 268 317 376
#     4  10  21  36  63  93 128 164 201 248 322 398
#     4   9  20  38  60  85 125 162 205 261 305 368
#
# _framework density 21.556723999999999
#
# number of rings (size 3 to 8) (size 9 to 14) (size 15 to 20)
#    0.000    2.000    1.429    1.714    2.000    0.000 
#    0.000    9.286   25.143    0.000    0.000    0.000 
#    0.000    0.000    0.000    0.000    0.000    0.000 
#
# Total GULP energy -155912.437246 kJ/mol
# GULP energy per Si atom -5568.301330 kJ/mol
# Density = 2.150766 g / cm^3
# Si number density = 21.556724 Si / 1000 Ang^3
#
#
#
# Elastic Constant Matrix: (Units=GPa)
#
#
# Indices 1 2 3 4 5 6 
#
# 1 77.1889 33.5467 14.3015 -0.0002 1.6466 0.0001
# 2 33.5467 64.3489 32.6926 -0.0002 16.2165 0.0004
# 3 14.3015 32.6926 83.7503 -0.0009 11.1764 0.0011
# 4 -0.0002 -0.0002 -0.0009 10.3039 0.0003 0.1833
# 5 1.6466 16.2165 11.1764 0.0003 36.6196 -0.0003
# 6 0.0001 0.0004 0.0011 0.1833 -0.0003 21.3690
#
#
#
# Elastic Compliance Matrix: (Units=1/GPa)
#
#
# Indices 1 2 3 4 5 6 
#
# 1 0.017180 -0.010127 0.000546 0.000000 0.003546 0.000000
# 2 -0.010127 0.026984 -0.007579 0.000000 -0.009181 0.000000
# 3 0.000546 -0.007579 0.014971 0.000001 -0.001237 -0.000001
# 4 0.000000 0.000000 0.000001 0.097066 -0.000001 -0.000833
# 5 0.003546 -0.009181 -0.001237 -0.000001 0.031592 0.000001
# 6 0.000000 0.000000 -0.000001 -0.000833 0.000001 0.046804
#
#
# Mechanical properties :
#
#
# Convention : Reuss Voigt Hill
#
# Bulk Modulus (GPa) = 40.29837 42.92996 41.61416
# Shear Modulus (GPa) = 18.03837 23.30833 20.67335
#
# Velocity S-wave (km/s) = 2.89586 3.29181 3.10017
# Velocity P-wave (km/s) = 5.46956 5.86568 5.67108
#
# Compressibility (1/GPa) = 0.02481490
#
# Stress axis : x y z
#
# Youngs Moduli (GPa) = 58.20811 37.05885 66.79782
#
# Poissons Ratio (x) = 0.37531 -0.03650
# Poissons Ratio (y) = 0.58949 0.50625
# Poissons Ratio (z) = -0.03181 0.28086
#
# Static dielectric constant tensor:
#      x y z
#    x 1.839800 -0.000010 0.034660 
#    y -0.000010 1.763510 0.000010 
#    z 0.034660 0.000010 1.815700 
# 
# From -- ./inp_files/284616.got.cif
#   From: 2010.05.17/outbox.cif.g08.bks.cpg/sg15_143_cif.got.tgz:284616.got - 2010.06.03 18:47:42.
