data_PCOD9280390
_publ_section_title
;
Structure prediction by ZEFSAII (Michael W. Deem and Ramdas Pophale) SiO2 
 PCOD9280390
Probable space group: C 2/C
;
_chemical_formula_sum "Si O2"
_cell_formula_units_Z 40
_cell_length_a 14.512279
_cell_length_b 23.368373
_cell_length_c 5.301182
_cell_angle_alpha 90.000000
_cell_angle_beta 82.011169
_cell_angle_gamma 90.000000
_cell_volume 1780.333956
_symmetry_space_group_name_H-M "C 2/C"
_symmetry_group_IT_number 15
_symmetry_cell_setting 'monoclinic'
loop_
_space_group_symop_operation_xyz
x,y,z
-x,y,1/2-z
-x,-y,-z
x,-y,1/2+z
1/2+x,1/2+y,z
1/2-x,1/2+y,1/2-z
1/2-x,1/2-y,-z
1/2+x,1/2-y,1/2+z
loop_
_atom_site_type_symbol
_atom_site_label
_atom_site_fract_x
_atom_site_fract_y
_atom_site_fract_z
Si Si1 0.663197 0.612281 0.962869
Si Si2 0.255702 0.700040 0.292922
Si Si3 0.308778 0.962880 0.175819
Si Si4 0.000000 0.459745 0.250000
Si Si5 0.500000 0.460601 0.750000
Si Si6 0.894717 0.776480 0.341325
O O1 0.712410 0.570411 0.747797
O O2 0.624478 0.668533 0.833366
O O3 0.748036 0.637369 0.095388
O O4 0.588443 0.580056 0.162244
O O5 0.250000 0.750000 0.500000
O O6 0.169981 0.719768 0.156614
O O7 0.356747 0.701979 0.123403
O O8 0.402432 0.928322 0.226227
O O9 0.310219 0.012285 0.392370
O O10 0.000000 0.500000 0.500000
O O11 0.500000 0.500000 0.500000
O O12 0.000000 0.760991 0.250000
#
# Coordination Sequence:
#
# PCOD9280390 Si02
#       6
#     8   8   8   4   4   8
#     4  11  23  38  63  89 129 171 213 269 330 387
#     4   9  21  40  61  93 120 163 214 269 340 403
#     4  10  21  37  59  87 124 166 210 263 313 383
#     4   8  16  34  56  77 106 153 200 246 306 354
#     4  12  28  42  62 103 140 183 234 274 322 404
#     4  10  21  40  67  91 125 167 214 273 339 407
#
# _framework density 22.467693000000001
#
# number of rings (size 3 to 8) (size 9 to 14) (size 15 to 20)
#    0.000    2.000    0.000    2.400    7.000    2.400 
#    0.000    6.000    2.200    0.000    0.000    0.000 
#    0.000    0.000    0.000    0.000    0.000    0.000 
#
# Total GULP energy -111334.400706 kJ/mol
# GULP energy per Si atom -5566.720035 kJ/mol
# Density = 2.241656 g / cm^3
# Si number density = 22.467693 Si / 1000 Ang^3
#
#
#
# Elastic Constant Matrix: (Units=GPa)
#
#
# Indices 1 2 3 4 5 6 
#
# 1 79.4210 27.7042 22.1590 0.0000 -34.6287 0.0000
# 2 27.7042 70.8271 31.7840 0.0000 -3.0197 0.0000
# 3 22.1590 31.7840 131.8678 0.0000 -11.7395 0.0000
# 4 0.0000 0.0000 0.0000 28.6200 0.0000 -2.3014
# 5 -34.6287 -3.0197 -11.7395 0.0000 40.3763 0.0000
# 6 0.0000 0.0000 0.0000 -2.3014 0.0000 22.9203
#
#
#
# Elastic Compliance Matrix: (Units=1/GPa)
#
#
# Indices 1 2 3 4 5 6 
#
# 1 0.024523 -0.008621 -0.000234 0.000000 0.020320 0.000000
# 2 -0.008621 0.018862 -0.003727 0.000000 -0.007067 0.000000
# 3 -0.000234 -0.003727 0.008704 0.000000 0.002051 0.000000
# 4 0.000000 0.000000 0.000000 0.035225 0.000000 0.003537
# 5 0.020320 -0.007067 0.002051 0.000000 0.042262 0.000000
# 6 0.000000 0.000000 0.000000 0.003537 0.000000 0.043985
#
#
# Mechanical properties :
#
#
# Convention : Reuss Voigt Hill
#
# Bulk Modulus (GPa) = 37.13964 49.49002 43.31483
# Shear Modulus (GPa) = 24.07326 31.74789 27.91057
#
# Velocity S-wave (km/s) = 3.27687 3.76313 3.52839
# Velocity P-wave (km/s) = 5.55727 6.39973 5.99332
#
# Compressibility (1/GPa) = 0.02692541
#
# Stress axis : x y z
#
# Youngs Moduli (GPa) = 40.77748 53.01635 114.89580
#
# Poissons Ratio (x) = 0.45705 0.02689
# Poissons Ratio (y) = 0.35154 0.42819
# Poissons Ratio (z) = 0.00954 0.19758
#
# Static dielectric constant tensor:
#      x y z
#    x 1.863750 0.000000 0.222690 
#    y 0.000000 1.866780 0.000000 
#    z 0.222690 0.000000 1.767740 
# 
# From -- ./inp_files/7519.got.cif
#   From: 2010.05.17/outbox.cif.g08.bks.cpg/sg15_4_cif.got.tgz:7519.got - 2010.06.03 18:47:42.
