data_PCOD9280308
_publ_section_title
;
Structure prediction by ZEFSAII (Michael W. Deem and Ramdas Pophale) SiO2 
 PCOD9280308
Probable space group: C 2/C
;
_chemical_formula_sum "Si O2"
_cell_formula_units_Z 56
_cell_length_a 13.010215
_cell_length_b 16.195818
_cell_length_c 14.067009
_cell_angle_alpha 90.000000
_cell_angle_beta 76.353727
_cell_angle_gamma 90.000000
_cell_volume 2880.401062
_symmetry_space_group_name_H-M "C 2/C"
_symmetry_group_IT_number 15
_symmetry_cell_setting 'monoclinic'
loop_
_space_group_symop_operation_xyz
x,y,z
-x,y,1/2-z
-x,-y,-z
x,-y,1/2+z
1/2+x,1/2+y,z
1/2-x,1/2+y,1/2-z
1/2-x,1/2-y,-z
1/2+x,1/2-y,1/2+z
loop_
_atom_site_type_symbol
_atom_site_label
_atom_site_fract_x
_atom_site_fract_y
_atom_site_fract_z
Si Si1 0.376702 0.487448 0.059471
Si Si2 0.827730 0.908843 0.412574
Si Si3 0.378506 0.263112 0.744122
Si Si4 0.503250 0.739761 0.639672
Si Si5 0.786263 0.806712 0.082553
Si Si6 0.842881 0.708007 0.542745
Si Si7 0.623741 0.445634 0.733585
O O1 0.324411 0.399303 0.045082
O O2 0.364510 0.501392 0.173706
O O3 0.500000 0.500000 0.000000
O O4 0.320964 0.565928 0.023519
O O5 0.925043 0.845118 0.375207
O O6 0.716872 0.871794 0.405614
O O7 0.845424 0.994806 0.357462
O O8 0.500000 0.255836 0.750000
O O9 0.308779 0.198822 0.820067
O O10 0.376268 0.255131 0.630396
O O11 0.329579 0.353987 0.776346
O O12 0.500000 0.767138 0.750000
O O13 0.389236 0.724642 0.618552
O O14 0.563335 0.799350 0.552816
O O15 0.750000 0.750000 0.000000
O O16 0.750000 0.750000 0.500000
O O17 0.500000 0.429382 0.750000
#
# Coordination Sequence:
#
# PCOD9280308 Si02
#       7
#     8   8   8   8   8   8   8
#     4  12  22  36  62  92 129 160 206 266 322 380
#     4  11  21  37  60  91 123 161 207 256 316 377
#     4  11  24  40  62  91 129 167 210 261 325 390
#     4  11  21  37  61  89 125 165 211 264 316 383
#     4  12  24  38  61  96 134 168 211 270 333 384
#     4  10  21  37  58  86 124 165 209 255 311 384
#     4  11  20  34  59  88 120 158 203 260 318 372
#
# _framework density 19.441737
#
# number of rings (size 3 to 8) (size 9 to 14) (size 15 to 20)
#    0.000    0.857    2.857    7.286    2.000    0.000 
#    0.000    0.000    0.000   10.286    0.000    0.000 
#    0.000    0.000    0.000    0.000    0.000    0.000 
#
# Total GULP energy -156089.720501 kJ/mol
# GULP energy per Si atom -5574.632875 kJ/mol
# Density = 1.939749 g / cm^3
# Si number density = 19.441737 Si / 1000 Ang^3
#
#
#
# Elastic Constant Matrix: (Units=GPa)
#
#
# Indices 1 2 3 4 5 6 
#
# 1 99.5278 30.1889 43.6296 0.0000 0.6080 0.0000
# 2 30.1889 76.9487 21.1496 0.0000 -7.1884 0.0000
# 3 43.6296 21.1496 110.2207 0.0000 7.9882 0.0000
# 4 0.0000 0.0000 0.0000 256.9298 0.0000 -80.6049
# 5 0.6080 -7.1884 7.9882 0.0000 39.5549 0.0000
# 6 0.0000 0.0000 0.0000 -80.6049 0.0000 52.2880
#
#
#
# Elastic Compliance Matrix: (Units=1/GPa)
#
#
# Indices 1 2 3 4 5 6 
#
# 1 0.013205 -0.003955 -0.004467 0.000000 -0.000020 0.000000
# 2 -0.003955 0.015281 -0.001596 0.000000 0.003160 0.000000
# 3 -0.004467 -0.001596 0.011329 0.000000 -0.002509 0.000000
# 4 0.000000 0.000000 0.000000 0.007537 0.000000 0.011619
# 5 -0.000020 0.003160 -0.002509 0.000000 0.026363 0.000000
# 6 0.000000 0.000000 0.000000 0.011619 0.000000 0.037036
#
#
# Mechanical properties :
#
#
# Convention : Reuss Voigt Hill
#
# Bulk Modulus (GPa) = 50.55526 52.95928 51.75727
# Shear Modulus (GPa) = 36.39538 82.53648 59.46593
#
# Velocity S-wave (km/s) = 4.33138 6.52268 5.53653
# Velocity P-wave (km/s) = 7.14664 9.16659 8.21890
#
# Compressibility (1/GPa) = 0.01978033
#
# Stress axis : x y z
#
# Youngs Moduli (GPa) = 75.72735 65.44050 88.26972
#
# Poissons Ratio (x) = 0.25881 0.39429
# Poissons Ratio (y) = 0.29949 0.14086
# Poissons Ratio (z) = 0.33826 0.10443
#
# Static dielectric constant tensor:
#      x y z
#    x 1.701590 0.000000 0.005860 
#    y 0.000000 1.751400 0.000000 
#    z 0.005860 0.000000 1.694860 
# 
# From -- ./inp_files/145571.got.cif
#   From: 2010.05.17/outbox.cif.g08.bks.cpg/sg15_73_cif.got.tgz:145571.got - 2010.06.03 18:47:42.
