data_PCOD9280253
_publ_section_title
;
Structure prediction by ZEFSAII (Michael W. Deem and Ramdas Pophale) SiO2 
 PCOD9280253
Probable space group: C 2/C
;
_chemical_formula_sum "Si O2"
_cell_formula_units_Z 44
_cell_length_a 12.774468
_cell_length_b 23.056562
_cell_length_c 12.150211
_cell_angle_alpha 90.000000
_cell_angle_beta 38.018646
_cell_angle_gamma 90.000000
_cell_volume 2204.164532
_symmetry_space_group_name_H-M "C 2/C"
_symmetry_group_IT_number 15
_symmetry_cell_setting 'monoclinic'
loop_
_space_group_symop_operation_xyz
x,y,z
-x,y,1/2-z
-x,-y,-z
x,-y,1/2+z
1/2+x,1/2+y,z
1/2-x,1/2+y,1/2-z
1/2-x,1/2-y,-z
1/2+x,1/2-y,1/2+z
loop_
_atom_site_type_symbol
_atom_site_label
_atom_site_fract_x
_atom_site_fract_y
_atom_site_fract_z
Si Si1 0.168050 0.911336 0.768963
Si Si2 0.892732 0.672013 0.726173
Si Si3 0.000000 0.996382 0.750000
Si Si4 0.020666 0.554742 0.900409
Si Si5 0.983477 0.792587 0.894844
Si Si6 0.314207 0.039628 0.372774
O O1 0.029708 0.954888 0.831106
O O2 0.327972 0.921444 0.554980
O O3 0.105215 0.845701 0.824793
O O4 0.228765 0.929658 0.839460
O O5 0.884932 0.615149 0.656241
O O6 0.973449 0.728031 0.600212
O O7 0.000000 0.658833 0.750000
O O8 0.705759 0.690123 0.917329
O O9 0.171001 0.033290 0.585088
O O10 0.129690 0.524511 0.714727
O O11 0.000000 0.500000 0.000000
O O12 0.000000 0.787564 0.750000
O O13 0.500000 0.065813 0.250000
#
# Coordination Sequence:
#
# PCOD9280253 Si02
#       6
#     8   8   4   8   8   8
#     4  11  22  37  58  86 126 161 206 256 316 377
#     4  11  21  34  58  86 123 163 205 249 321 387
#     4  12  22  36  60  84 130 164 204 262 318 384
#     4  10  21  37  57  84 122 165 205 250 311 367
#     4  11  21  36  56  90 123 165 200 254 317 381
#     4  11  23  40  58  86 123 168 211 259 311 372
#
# _framework density 19.962211
#
# number of rings (size 3 to 8) (size 9 to 14) (size 15 to 20)
#    0.000    1.091    2.727    6.545    0.000    1.455 
#    0.000    0.000    0.000    0.000    0.000   11.455 
#    5.455    0.182    0.000    0.000    0.000    0.000 
#
# Total GULP energy -122623.507610 kJ/mol
# GULP energy per Si atom -5573.795800 kJ/mol
# Density = 1.991678 g / cm^3
# Si number density = 19.962211 Si / 1000 Ang^3
#
#
#
# Elastic Constant Matrix: (Units=GPa)
#
#
# Indices 1 2 3 4 5 6 
#
# 1 79.1093 41.5818 4.8706 0.0000 -3.8018 0.0000
# 2 41.5818 141.3099 38.6437 0.0000 -3.6960 0.0000
# 3 4.8706 38.6437 123.6987 0.0000 -12.2286 0.0000
# 4 0.0000 0.0000 0.0000 37.9518 0.0000 -14.5352
# 5 -3.8018 -3.6960 -12.2286 0.0000 22.2525 0.0000
# 6 0.0000 0.0000 0.0000 -14.5352 0.0000 28.5135
#
#
#
# Elastic Compliance Matrix: (Units=1/GPa)
#
#
# Indices 1 2 3 4 5 6 
#
# 1 0.015160 -0.004701 0.001111 0.000000 0.002420 0.000000
# 2 -0.004701 0.009196 -0.002766 0.000000 -0.000796 0.000000
# 3 0.001111 -0.002766 0.009388 0.000000 0.004889 0.000000
# 4 0.000000 0.000000 0.000000 0.032742 0.000000 0.016690
# 5 0.002420 -0.000796 0.004889 0.000000 0.047907 0.000000
# 6 0.000000 0.000000 0.000000 0.016690 0.000000 0.043579
#
#
# Mechanical properties :
#
#
# Convention : Reuss Voigt Hill
#
# Bulk Modulus (GPa) = 47.55109 57.14558 52.34834
# Shear Modulus (GPa) = 28.13812 35.01167 31.57489
#
# Velocity S-wave (km/s) = 3.75850 4.19250 3.98142
# Velocity P-wave (km/s) = 6.53508 7.21977 6.88594
#
# Compressibility (1/GPa) = 0.02103001
#
# Stress axis : x y z
#
# Youngs Moduli (GPa) = 65.96376 108.74547 106.51913
#
# Poissons Ratio (x) = 0.51126 -0.11835
# Poissons Ratio (y) = 0.31013 0.29467
# Poissons Ratio (z) = -0.07329 0.30083
#
# Static dielectric constant tensor:
#      x y z
#    x 1.792890 0.000000 -0.008530 
#    y 0.000000 1.743950 0.000000 
#    z -0.008530 0.000000 1.767680 
# 
# From -- ./inp_files/156134.got.cif
#   From: 2010.05.17/outbox.cif.g08.bks.cpg/sg15_79_cif.got.tgz:156134.got - 2010.06.03 18:47:42.
