data_PCOD9280902
_publ_section_title
;
Structure prediction by ZEFSAII (Michael W. Deem and Ramdas Pophale) SiO2 
 PCOD9280902
Probable space group: C 2/C
;
_chemical_formula_sum "Si O2"
_cell_formula_units_Z 56
_cell_length_a 19.952307
_cell_length_b 16.313819
_cell_length_c 8.683980
_cell_angle_alpha 90.000000
_cell_angle_beta 87.807906
_cell_angle_gamma 90.000000
_cell_volume 2824.552434
_symmetry_space_group_name_H-M "C 2/C"
_symmetry_group_IT_number 15
_symmetry_cell_setting 'monoclinic'
loop_
_space_group_symop_operation_xyz
x,y,z
-x,y,1/2-z
-x,-y,-z
x,-y,1/2+z
1/2+x,1/2+y,z
1/2-x,1/2+y,1/2-z
1/2-x,1/2-y,-z
1/2+x,1/2-y,1/2+z
loop_
_atom_site_type_symbol
_atom_site_label
_atom_site_fract_x
_atom_site_fract_y
_atom_site_fract_z
Si Si1 0.641563 0.500268 0.073698
Si Si2 0.074994 0.720916 0.804946
Si Si3 0.430915 0.598226 0.159367
Si Si4 0.687028 0.806629 0.048773
Si Si5 0.237028 0.050595 0.797915
Si Si6 0.069691 0.446590 0.503830
Si Si7 0.150583 0.570733 0.299318
O O1 0.620726 0.561907 0.210417
O O2 0.692377 0.436513 0.150176
O O3 0.579821 0.457746 0.990746
O O4 0.685489 0.545231 0.942745
O O5 0.083935 0.808335 0.887618
O O6 0.125140 0.726679 0.654392
O O7 0.000000 0.721059 0.750000
O O8 0.076042 0.637795 0.906186
O O9 0.500000 0.594342 0.250000
O O10 0.713417 0.877678 0.160536
O O11 0.750000 0.750000 0.000000
O O12 0.662190 0.846104 0.890857
O O13 0.280676 0.967745 0.772923
O O14 0.125303 0.506540 0.428622
O O15 0.093070 0.427148 0.674984
O O16 0.000000 0.500000 0.500000
#
# Coordination Sequence:
#
# PCOD9280902 Si02
#       7
#     8   8   8   8   8   8   8
#     4  10  21  37  66  88 120 168 211 261 341 388
#     4  11  24  43  62  95 137 174 220 283 330 394
#     4  10  22  41  65  92 125 164 220 271 325 396
#     4  12  25  41  64  96 134 175 221 278 345 392
#     4  11  20  38  59  89 124 159 210 260 316 398
#     4  12  23  40  68  96 131 181 226 265 336 406
#     4  12  22  40  62  93 129 172 218 270 320 402
#
# _framework density 19.826149000000001
#
# number of rings (size 3 to 8) (size 9 to 14) (size 15 to 20)
#    0.000    0.857    4.286    3.429    2.000    1.143 
#    0.000    1.429    0.000    8.571    0.000    0.000 
#    0.000    0.000    0.000    0.000    0.000    0.000 
#
# Total GULP energy -156105.656128 kJ/mol
# GULP energy per Si atom -5575.202005 kJ/mol
# Density = 1.978102 g / cm^3
# Si number density = 19.826149 Si / 1000 Ang^3
#
#
#
# Elastic Constant Matrix: (Units=GPa)
#
#
# Indices 1 2 3 4 5 6 
#
# 1 88.4269 19.5418 26.1748 0.0000 8.6666 0.0000
# 2 19.5418 73.3977 19.9768 0.0000 4.4508 0.0000
# 3 26.1748 19.9768 71.8867 0.0000 19.7125 0.0000
# 4 0.0000 0.0000 0.0000 26.9685 0.0000 1.1884
# 5 8.6666 4.4508 19.7125 0.0000 37.5088 0.0000
# 6 0.0000 0.0000 0.0000 1.1884 0.0000 32.0335
#
#
#
# Elastic Compliance Matrix: (Units=1/GPa)
#
#
# Indices 1 2 3 4 5 6 
#
# 1 0.013056 -0.002371 -0.003908 0.000000 -0.000681 0.000000
# 2 -0.002371 0.015177 -0.003518 0.000000 0.000596 0.000000
# 3 -0.003908 -0.003518 0.018635 0.000000 -0.008473 0.000000
# 4 0.000000 0.000000 0.000000 0.037141 0.000000 -0.001378
# 5 -0.000681 0.000596 -0.008473 0.000000 0.031200 0.000000
# 6 0.000000 0.000000 0.000000 -0.001378 0.000000 0.031268
#
#
# Mechanical properties :
#
#
# Convention : Reuss Voigt Hill
#
# Bulk Modulus (GPa) = 36.66452 40.56645 38.61548
# Shear Modulus (GPa) = 28.54486 30.50336 29.52411
#
# Velocity S-wave (km/s) = 3.79853 3.92668 3.86314
# Velocity P-wave (km/s) = 6.14586 6.40811 6.27836
#
# Compressibility (1/GPa) = 0.02727433
#
# Stress axis : x y z
#
# Youngs Moduli (GPa) = 76.59064 65.88932 53.66330
#
# Poissons Ratio (x) = 0.15624 0.20973
# Poissons Ratio (y) = 0.18161 0.18876
# Poissons Ratio (z) = 0.29933 0.23177
#
# Static dielectric constant tensor:
#      x y z
#    x 1.585590 0.000000 0.041320 
#    y 0.000000 1.729050 0.000000 
#    z 0.041320 0.000000 1.695700 
# 
# From -- ./inp_files/55625.got.cif
#   From: 2010.05.17/outbox.cif.g08.bks.cpg/sg15_28_cif.got.tgz:55625.got - 2010.06.03 18:47:42.
