data_PCOD9280893
_publ_section_title
;
Structure prediction by ZEFSAII (Michael W. Deem and Ramdas Pophale) SiO2 
 PCOD9280893
Probable space group: C 2/C
;
_chemical_formula_sum "Si O2"
_cell_formula_units_Z 60
_cell_length_a 23.800882
_cell_length_b 11.161641
_cell_length_c 17.866779
_cell_angle_alpha 90.000000
_cell_angle_beta 144.293978
_cell_angle_gamma 90.000000
_cell_volume 2770.144445
_symmetry_space_group_name_H-M "C 2/C"
_symmetry_group_IT_number 15
_symmetry_cell_setting 'monoclinic'
loop_
_space_group_symop_operation_xyz
x,y,z
-x,y,1/2-z
-x,-y,-z
x,-y,1/2+z
1/2+x,1/2+y,z
1/2-x,1/2+y,1/2-z
1/2-x,1/2-y,-z
1/2+x,1/2-y,1/2+z
loop_
_atom_site_type_symbol
_atom_site_label
_atom_site_fract_x
_atom_site_fract_y
_atom_site_fract_z
Si Si1 0.180934 0.932117 0.071040
Si Si2 0.452839 0.347855 0.116416
Si Si3 0.717889 0.043862 0.668434
Si Si4 0.260152 0.221541 0.924730
Si Si5 0.000000 0.530106 0.750000
Si Si6 0.091839 0.676516 0.986214
Si Si7 0.867569 0.442480 0.729097
Si Si8 0.479435 0.178570 0.014704
O O1 0.202118 0.955661 0.181417
O O2 0.285871 0.956441 0.147298
O O3 0.142605 0.799420 0.018125
O O4 0.102107 0.027802 0.957886
O O5 0.500000 0.353066 0.250000
O O6 0.502417 0.292356 0.095260
O O7 0.370981 0.248145 0.033206
O O8 0.759016 0.096076 0.635034
O O9 0.631384 0.133110 0.602713
O O10 0.670700 0.915509 0.604339
O O11 0.194047 0.324239 0.817898
O O12 0.250000 0.250000 0.000000
O O13 0.956113 0.611542 0.636790
O O14 0.918113 0.451558 0.702850
O O15 0.015776 0.702951 0.970368
O O16 0.956888 0.431122 0.882283
#
# Coordination Sequence:
#
# PCOD9280893 Si02
#       8
#     8   8   8   8   4   8   8   8
#     4  11  26  43  68  99 146 177 226 283 344 419
#     4  10  24  42  68 101 138 176 223 288 349 403
#     4  11  22  42  68 104 131 181 231 286 340 401
#     4  10  21  37  66 101 133 167 226 290 334 386
#     4  12  26  42  70 106 136 190 232 268 350 418
#     4  12  25  43  70  98 141 185 228 278 338 422
#     4  11  22  43  68 100 133 175 230 284 335 399
#     4  11  22  42  74  99 132 177 235 290 330 403
#
# _framework density 21.659520000000001
#
# number of rings (size 3 to 8) (size 9 to 14) (size 15 to 20)
#    0.000    1.067    2.667    3.600    7.467    1.067 
#    0.000    0.000    0.000    0.000    0.000    0.000 
#    0.000    0.000    0.000    0.000    0.000    0.000 
#
# Total GULP energy -167442.812373 kJ/mol
# GULP energy per Si atom -5581.427079 kJ/mol
# Density = 2.161022 g / cm^3
# Si number density = 21.659520 Si / 1000 Ang^3
#
#
#
# Elastic Constant Matrix: (Units=GPa)
#
#
# Indices 1 2 3 4 5 6 
#
# 1 102.8208 19.2196 13.1330 0.0000 -13.9416 0.0000
# 2 19.2196 85.9952 29.9726 0.0000 -5.3451 0.0000
# 3 13.1330 29.9726 120.0164 0.0000 -15.0804 0.0000
# 4 0.0000 0.0000 0.0000 20.7546 0.0000 -5.2925
# 5 -13.9416 -5.3451 -15.0804 0.0000 27.9090 0.0000
# 6 0.0000 0.0000 0.0000 -5.2925 0.0000 29.3632
#
#
#
# Elastic Compliance Matrix: (Units=1/GPa)
#
#
# Indices 1 2 3 4 5 6 
#
# 1 0.010795 -0.002092 -0.000034 0.000000 0.004974 0.000000
# 2 -0.002092 0.013158 -0.003081 0.000000 -0.000190 0.000000
# 3 -0.000034 -0.003081 0.009687 0.000000 0.004627 0.000000
# 4 0.000000 0.000000 0.000000 0.050503 0.000000 0.009103
# 5 0.004974 -0.000190 0.004627 0.000000 0.040779 0.000000
# 6 0.000000 0.000000 0.000000 0.009103 0.000000 0.035697
#
#
# Mechanical properties :
#
#
# Convention : Reuss Voigt Hill
#
# Bulk Modulus (GPa) = 43.05363 48.16476 45.60920
# Shear Modulus (GPa) = 27.96801 32.03916 30.00358
#
# Velocity S-wave (km/s) = 3.59731 3.85023 3.72592
# Velocity P-wave (km/s) = 6.09711 6.48469 6.29389
#
# Compressibility (1/GPa) = 0.02322685
#
# Stress axis : x y z
#
# Youngs Moduli (GPa) = 92.63210 75.99872 103.23359
#
# Poissons Ratio (x) = 0.15897 0.00351
# Poissons Ratio (y) = 0.19376 0.31806
# Poissons Ratio (z) = 0.00315 0.23415
#
# Static dielectric constant tensor:
#      x y z
#    x 2.445820 0.000000 0.055230 
#    y 0.000000 1.948140 0.000000 
#    z 0.055230 0.000000 1.858500 
# 
# From -- ./inp_files/219318.got.cif
#   From: 2010.05.17/outbox.cif.g08.bks.cpg/sg15_110_cif.got.tgz:219318.got - 2010.06.03 18:47:42.
