data_PCOD9280492
_publ_section_title
;
Structure prediction by ZEFSAII (Michael W. Deem and Ramdas Pophale) SiO2 
 PCOD9280492
Probable space group: C 2/C
;
_chemical_formula_sum "Si O2"
_cell_formula_units_Z 56
_cell_length_a 11.625735
_cell_length_b 21.182438
_cell_length_c 10.332695
_cell_angle_alpha 90.000000
_cell_angle_beta 101.885372
_cell_angle_gamma 90.000000
_cell_volume 2489.993092
_symmetry_space_group_name_H-M "C 2/C"
_symmetry_group_IT_number 15
_symmetry_cell_setting 'monoclinic'
loop_
_space_group_symop_operation_xyz
x,y,z
-x,y,1/2-z
-x,-y,-z
x,-y,1/2+z
1/2+x,1/2+y,z
1/2-x,1/2+y,1/2-z
1/2-x,1/2-y,-z
1/2+x,1/2-y,1/2+z
loop_
_atom_site_type_symbol
_atom_site_label
_atom_site_fract_x
_atom_site_fract_y
_atom_site_fract_z
Si Si1 0.393407 0.828278 0.328330
Si Si2 0.046615 0.068987 0.960981
Si Si3 0.480764 0.928866 0.546159
Si Si4 0.757869 0.382723 0.852998
Si Si5 0.734249 0.030488 0.365104
Si Si6 0.594290 0.310938 0.655340
Si Si7 0.300894 0.608790 0.868518
O O1 0.500000 0.830747 0.250000
O O2 0.412921 0.885470 0.429031
O O3 0.402014 0.759841 0.397160
O O4 0.269880 0.839256 0.226912
O O5 0.184838 0.048779 0.991879
O O6 0.063128 0.132805 0.050795
O O7 0.931718 0.090462 0.851618
O O8 0.000000 0.000000 0.000000
O O9 0.605458 0.894944 0.592794
O O10 0.391481 0.938048 0.643894
O O11 0.500000 0.000000 0.500000
O O12 0.712509 0.442050 0.756093
O O13 0.719286 0.325600 0.752372
O O14 0.697615 0.375541 0.978260
O O15 0.726283 0.955988 0.349077
O O16 0.500000 0.313095 0.750000
#
# Coordination Sequence:
#
# PCOD9280492 Si02
#       7
#     8   8   8   8   8   8   8
#     4  11  23  37  58  92 125 160 200 252 301 357
#     4   9  20  39  61  87 119 156 201 250 304 353
#     4  12  22  39  61  88 125 160 204 250 302 358
#     4  11  21  36  60  86 118 156 198 242 307 353
#     4  10  22  37  59  90 119 157 201 253 304 355
#     4  10  21  37  60  91 124 154 200 251 305 358
#     4  11  20  37  60  91 119 157 198 252 303 358
#
# _framework density 22.490023000000001
#
# number of rings (size 3 to 8) (size 9 to 14) (size 15 to 20)
#    0.000    1.429    4.286    1.286    0.000    1.714 
#    0.000    3.571    0.000    3.429    0.000    2.000 
#    0.000    0.000    0.000    0.000    0.000    0.000 
#
# Total GULP energy -155969.412346 kJ/mol
# GULP energy per Si atom -5570.336155 kJ/mol
# Density = 2.243883 g / cm^3
# Si number density = 22.490023 Si / 1000 Ang^3
#
#
#
# Elastic Constant Matrix: (Units=GPa)
#
#
# Indices 1 2 3 4 5 6 
#
# 1 109.0628 10.3197 14.9837 0.0000 29.5357 0.0000
# 2 10.3197 142.3008 27.1189 0.0000 0.8881 0.0000
# 3 14.9837 27.1189 43.8832 0.0000 10.9411 0.0000
# 4 0.0000 0.0000 0.0000 30.8153 0.0000 7.6041
# 5 29.5357 0.8881 10.9411 0.0000 39.1757 0.0000
# 6 0.0000 0.0000 0.0000 7.6041 0.0000 12.6860
#
#
#
# Elastic Compliance Matrix: (Units=1/GPa)
#
#
# Indices 1 2 3 4 5 6 
#
# 1 0.011701 -0.000490 -0.001608 0.000000 -0.008361 0.000000
# 2 -0.000490 0.008046 -0.005215 0.000000 0.001643 0.000000
# 3 -0.001608 -0.005215 0.028191 0.000000 -0.006543 0.000000
# 4 0.000000 0.000000 0.000000 0.038085 0.000000 -0.022828
# 5 -0.008361 0.001643 -0.006543 0.000000 0.033620 0.000000
# 6 0.000000 0.000000 0.000000 -0.022828 0.000000 0.092510
#
#
# Mechanical properties :
#
#
# Convention : Reuss Voigt Hill
#
# Bulk Modulus (GPa) = 30.01867 44.45462 37.23664
# Shear Modulus (GPa) = 21.01881 32.72370 26.87125
#
# Velocity S-wave (km/s) = 3.06041 3.81863 3.46035
# Velocity P-wave (km/s) = 5.08573 6.26513 5.70598
#
# Compressibility (1/GPa) = 0.03331260
#
# Stress axis : x y z
#
# Youngs Moduli (GPa) = 85.46549 124.27771 35.47262
#
# Poissons Ratio (x) = 0.06089 0.05703
# Poissons Ratio (y) = 0.04188 0.18499
# Poissons Ratio (z) = 0.13740 0.64811
#
# Static dielectric constant tensor:
#      x y z
#    x 1.868570 0.000000 -0.100490 
#    y 0.000000 1.789820 0.000000 
#    z -0.100490 0.000000 1.735790 
# 
# From -- ./inp_files/89554.got.cif
#   From: 2010.05.17/outbox.cif.g08.bks.cpg/sg15_45_cif.got.tgz:89554.got - 2010.06.03 18:47:42.
