data_PCOD9280971
_publ_section_title
;
Structure prediction by ZEFSAII (Michael W. Deem and Ramdas Pophale) SiO2 
 PCOD9280971
Probable space group: C 2/C
;
_chemical_formula_sum "Si O2"
_cell_formula_units_Z 64
_cell_length_a 9.395587
_cell_length_b 30.710706
_cell_length_c 19.321638
_cell_angle_alpha 90.000000
_cell_angle_beta 34.340257
_cell_angle_gamma 90.000000
_cell_volume 3144.985455
_symmetry_space_group_name_H-M "C 2/C"
_symmetry_group_IT_number 15
_symmetry_cell_setting 'monoclinic'
loop_
_space_group_symop_operation_xyz
x,y,z
-x,y,1/2-z
-x,-y,-z
x,-y,1/2+z
1/2+x,1/2+y,z
1/2-x,1/2+y,1/2-z
1/2-x,1/2-y,-z
1/2+x,1/2-y,1/2+z
loop_
_atom_site_type_symbol
_atom_site_label
_atom_site_fract_x
_atom_site_fract_y
_atom_site_fract_z
Si Si1 0.668686 0.385715 0.068427
Si Si2 0.620399 0.336784 0.775477
Si Si3 0.759452 0.481263 0.667057
Si Si4 0.128218 0.295874 0.030787
Si Si5 0.594165 0.790730 0.532509
Si Si6 0.517614 0.929766 0.039514
Si Si7 0.577233 0.871217 0.299512
Si Si8 0.559667 0.081524 0.305314
O O1 0.796836 0.403049 0.087932
O O2 0.368181 0.386381 0.188656
O O3 0.752476 0.335826 0.021420
O O4 0.806028 0.414074 0.953656
O O5 0.500000 0.348556 0.750000
O O6 0.775462 0.375963 0.745317
O O7 0.824930 0.298365 0.679239
O O8 0.379236 0.324150 0.916443
O O9 0.500000 0.502726 0.750000
O O10 0.952888 0.520767 0.585689
O O11 0.783364 0.459683 0.731475
O O12 0.791730 0.440890 0.599955
O O13 0.966539 0.322454 0.152255
O O14 0.250000 0.250000 0.000000
O O15 0.972381 0.288868 0.022399
O O16 0.750000 0.750000 0.500000
O O17 0.573372 0.902713 0.086216
O O18 0.500000 0.873338 0.250000
O O19 0.500000 0.078804 0.250000
#
# Coordination Sequence:
#
# PCOD9280971 Si02
#       8
#     8   8   8   8   8   8   8   8
#     4  10  22  43  63  89 125 169 218 251 317 388
#     4   9  21  41  62  86 125 163 213 259 316 384
#     4  10  21  37  70  96 128 167 218 264 317 387
#     4  11  26  41  61  92 127 164 211 270 319 383
#     4  10  22  40  67  91 117 160 209 267 317 378
#     4  10  22  44  64  97 126 173 219 261 316 386
#     4  12  27  40  65  90 131 174 212 263 322 387
#     4  10  22  36  64  98 128 164 206 270 319 378
#
# _framework density 20.349854000000001
#
# number of rings (size 3 to 8) (size 9 to 14) (size 15 to 20)
#    0.000    1.750    1.250    1.500    8.750    2.000 
#    0.000    0.000    0.000    6.000    0.000    0.000 
#    0.000    0.000    0.000    0.000    0.000    0.000 
#
# Total GULP energy -178482.541837 kJ/mol
# GULP energy per Si atom -5577.579432 kJ/mol
# Density = 2.030354 g / cm^3
# Si number density = 20.349854 Si / 1000 Ang^3
#
#
#
# Elastic Constant Matrix: (Units=GPa)
#
#
# Indices 1 2 3 4 5 6 
#
# 1 101.4787 31.4910 35.7230 0.0000 21.0172 0.0000
# 2 31.4910 82.9000 6.4798 0.0000 13.4742 0.0000
# 3 35.7230 6.4798 53.0052 0.0000 10.5875 0.0000
# 4 0.0000 0.0000 0.0000 11.6221 0.0000 -8.8720
# 5 21.0172 13.4742 10.5875 0.0000 29.4415 0.0000
# 6 0.0000 0.0000 0.0000 -8.8720 0.0000 18.2764
#
#
#
# Elastic Compliance Matrix: (Units=1/GPa)
#
#
# Indices 1 2 3 4 5 6 
#
# 1 0.015472 -0.004224 -0.008717 0.000000 -0.005977 0.000000
# 2 -0.004224 0.014195 0.001947 0.000000 -0.004181 0.000000
# 3 -0.008717 0.001947 0.025252 0.000000 -0.003749 0.000000
# 4 0.000000 0.000000 0.000000 0.136701 0.000000 0.066360
# 5 -0.005977 -0.004181 -0.003749 0.000000 0.041494 0.000000
# 6 0.000000 0.000000 0.000000 0.066360 0.000000 0.086929
#
#
# Mechanical properties :
#
#
# Convention : Reuss Voigt Hill
#
# Bulk Modulus (GPa) = 30.36817 42.75238 36.56027
# Shear Modulus (GPa) = 14.16403 22.78068 18.47235
#
# Velocity S-wave (km/s) = 2.64109 3.34945 3.01614
# Velocity P-wave (km/s) = 4.92503 6.00106 5.48947
#
# Compressibility (1/GPa) = 0.03292922
#
# Stress axis : x y z
#
# Youngs Moduli (GPa) = 64.63477 70.44834 39.60129
#
# Poissons Ratio (x) = 0.29760 0.34520
# Poissons Ratio (y) = 0.27304 -0.07710
# Poissons Ratio (z) = 0.56341 -0.13715
#
# Static dielectric constant tensor:
#      x y z
#    x 1.703760 0.000000 -0.010550 
#    y 0.000000 1.736000 0.000000 
#    z -0.010550 0.000000 1.808910 
# 
# From -- ./inp_files/194208.got.cif
#   From: 2010.05.17/outbox.cif.g08.bks.cpg/sg15_98_cif.got.tgz:194208.got - 2010.06.03 18:47:42.
