data_PCOD9280125
_publ_section_title
;
Structure prediction by ZEFSAII (Michael W. Deem and Ramdas Pophale) SiO2 
 PCOD9280125
Probable space group: C 2/C
;
_chemical_formula_sum "Si O2"
_cell_formula_units_Z 44
_cell_length_a 12.871852
_cell_length_b 12.894322
_cell_length_c 19.637508
_cell_angle_alpha 90.000000
_cell_angle_beta 148.829869
_cell_angle_gamma 90.000000
_cell_volume 1686.958007
_symmetry_space_group_name_H-M "C 2/C"
_symmetry_group_IT_number 15
_symmetry_cell_setting 'monoclinic'
loop_
_space_group_symop_operation_xyz
x,y,z
-x,y,1/2-z
-x,-y,-z
x,-y,1/2+z
1/2+x,1/2+y,z
1/2-x,1/2+y,1/2-z
1/2-x,1/2-y,-z
1/2+x,1/2-y,1/2+z
loop_
_atom_site_type_symbol
_atom_site_label
_atom_site_fract_x
_atom_site_fract_y
_atom_site_fract_z
Si Si1 0.275094 0.786887 0.920343
Si Si2 0.958759 0.164909 0.342829
Si Si3 0.500000 0.093486 0.750000
Si Si4 0.297587 0.343908 0.178410
Si Si5 0.309693 0.538479 0.813917
Si Si6 0.540642 0.254452 0.424064
O O1 0.223724 0.809313 0.812146
O O2 0.137791 0.861090 0.889716
O O3 0.166737 0.674391 0.869763
O O4 0.475890 0.763902 0.075272
O O5 0.621295 0.247643 0.228653
O O6 0.919241 0.069799 0.369637
O O7 0.622383 0.035051 0.760085
O O8 0.500000 0.373110 0.250000
O O9 0.243143 0.436143 0.199242
O O10 0.113758 0.318184 0.026525
O O11 0.468978 0.633311 0.914648
O O12 0.750000 0.250000 0.500000
#
# Coordination Sequence:
#
# PCOD9280125 Si02
#       6
#     8   8   4   8   8   8
#     4   9  21  42  73 100 143 188 247 300 380 438
#     4   9  19  41  75 100 133 192 246 313 363 441
#     4  10  22  44  64 116 142 202 238 300 370 466
#     4   8  16  32  58  93 144 194 243 304 374 434
#     4  10  21  36  73 103 148 196 250 305 366 451
#     4   8  16  32  58  93 147 191 242 305 376 433
#
# _framework density 26.082450999999999
#
# number of rings (size 3 to 8) (size 9 to 14) (size 15 to 20)
#    1.091    2.182    0.000    0.000    2.545    0.727 
#   13.091    0.000   42.000   18.545    0.000    0.000 
#    0.000    0.000    0.000    0.000    0.000    0.000 
#
# Total GULP energy -122601.049010 kJ/mol
# GULP energy per Si atom -5572.774955 kJ/mol
# Density = 2.602309 g / cm^3
# Si number density = 26.082451 Si / 1000 Ang^3
#
#
#
# Elastic Constant Matrix: (Units=GPa)
#
#
# Indices 1 2 3 4 5 6 
#
# 1 175.3137 25.1727 21.9526 0.0008 9.7485 0.0000
# 2 25.1727 78.2609 2.3818 0.0041 23.1025 0.0001
# 3 21.9526 2.3818 175.6694 0.0114 23.4452 0.0003
# 4 0.0008 0.0041 0.0114 26.6001 0.0002 6.2837
# 5 9.7485 23.1025 23.4452 0.0002 37.9102 -0.0004
# 6 0.0000 0.0001 0.0003 6.2837 -0.0004 30.7037
#
#
#
# Elastic Compliance Matrix: (Units=1/GPa)
#
#
# Indices 1 2 3 4 5 6 
#
# 1 0.006073 -0.001958 -0.000745 0.000000 0.000092 0.000000
# 2 -0.001958 0.016428 0.001407 -0.000003 -0.010378 0.000000
# 3 -0.000745 0.001407 0.006382 -0.000003 -0.004613 0.000000
# 4 0.000000 -0.000003 -0.000003 0.039504 0.000003 -0.008085
# 5 0.000092 -0.010378 -0.004613 0.000003 0.035532 0.000000
# 6 0.000000 0.000000 0.000000 -0.008085 0.000000 0.034224
#
#
# Mechanical properties :
#
#
# Convention : Reuss Voigt Hill
#
# Bulk Modulus (GPa) = 38.03360 58.69534 48.36447
# Shear Modulus (GPa) = 33.44511 44.35861 38.90186
#
# Velocity S-wave (km/s) = 3.58478 4.12844 3.86618
# Velocity P-wave (km/s) = 5.63453 6.72889 6.20588
#
# Compressibility (1/GPa) = 0.02629254
#
# Stress axis : x y z
#
# Youngs Moduli (GPa) = 164.65425 60.87036 156.68715
#
# Poissons Ratio (x) = 0.11918 0.11668
# Poissons Ratio (y) = 0.32239 -0.22046
# Poissons Ratio (z) = 0.12262 -0.08565
#
# Static dielectric constant tensor:
#      x y z
#    x 2.322150 0.000000 0.105750 
#    y 0.000000 2.039330 0.000000 
#    z 0.105750 0.000000 2.288470 
# 
# From -- ./inp_files/269375.got.cif
#   From: 2010.05.17/outbox.cif.g08.bks.cpg/sg15_135_cif.got.tgz:269375.got - 2010.06.03 18:47:42.
