data_PCOD9280407
_publ_section_title
;
Structure prediction by ZEFSAII (Michael W. Deem and Ramdas Pophale) SiO2 
 PCOD9280407
Probable space group: C 2/C
;
_chemical_formula_sum "Si O2"
_cell_formula_units_Z 32
_cell_length_a 23.180437
_cell_length_b 4.931547
_cell_length_c 11.041893
_cell_angle_alpha 90.000000
_cell_angle_beta 71.271093
_cell_angle_gamma 90.000000
_cell_volume 1195.419965
_symmetry_space_group_name_H-M "C 2/C"
_symmetry_group_IT_number 15
_symmetry_cell_setting 'monoclinic'
loop_
_space_group_symop_operation_xyz
x,y,z
-x,y,1/2-z
-x,-y,-z
x,-y,1/2+z
1/2+x,1/2+y,z
1/2-x,1/2+y,1/2-z
1/2-x,1/2-y,-z
1/2+x,1/2-y,1/2+z
loop_
_atom_site_type_symbol
_atom_site_label
_atom_site_fract_x
_atom_site_fract_y
_atom_site_fract_z
Si Si1 0.800779 0.473806 0.556731
Si Si2 0.576311 0.676725 0.991395
Si Si3 0.449247 0.818165 0.143418
Si Si4 0.823087 0.313315 0.306318
O O1 0.853147 0.238738 0.530356
O O2 0.813349 0.561519 0.409053
O O3 0.812310 0.638196 0.671198
O O4 0.731865 0.377083 0.617099
O O5 0.563865 0.366009 0.967754
O O6 0.562911 0.868844 0.882257
O O7 0.520786 0.773146 0.115470
O O8 0.393226 0.724799 0.264498
#
# Coordination Sequence:
#
# PCOD9280407 Si02
#       4
#     8   8   8   8
#     4  10  21  37  59  89 124 163 208 258 312 372
#     4   9  18  35  59  87 120 158 200 247 300 359
#     4   9  18  35  59  87 120 158 200 247 300 359
#     4  10  21  37  59  89 124 163 208 258 312 372
#
# _framework density 26.768834999999999
#
# number of rings (size 3 to 8) (size 9 to 14) (size 15 to 20)
#    0.000    2.500    0.000    1.500    0.000    2.000 
#    0.000   15.000    0.000   24.000    0.000    0.000 
#    0.000    0.000    0.000    0.000    0.000    0.000 
#
# Total GULP energy -89165.341607 kJ/mol
# GULP energy per Si atom -5572.833850 kJ/mol
# Density = 2.670791 g / cm^3
# Si number density = 26.768835 Si / 1000 Ang^3
#
#
#
# Elastic Constant Matrix: (Units=GPa)
#
#
# Indices 1 2 3 4 5 6 
#
# 1 256.4298 30.1546 48.7228 0.0000 -47.0387 0.0000
# 2 30.1546 68.6228 16.5827 0.0000 -4.4524 0.0000
# 3 48.7228 16.5827 124.7321 0.0000 -43.7405 0.0000
# 4 0.0000 0.0000 0.0000 -6.3225 0.0000 0.5576
# 5 -47.0387 -4.4524 -43.7405 0.0000 64.1504 0.0000
# 6 0.0000 0.0000 0.0000 0.5576 0.0000 20.1488
#
#
#
# Elastic Compliance Matrix: (Units=1/GPa)
#
#
# Indices 1 2 3 4 5 6 
#
# 1 0.004763 -0.001759 -0.000584 0.000000 0.002972 0.000000
# 2 -0.001759 0.015714 -0.001934 0.000000 -0.001518 0.000000
# 3 -0.000584 -0.001934 0.010915 0.000000 0.006880 0.000000
# 4 0.000000 0.000000 0.000000 -0.157779 0.000000 0.004367
# 5 0.002972 -0.001518 0.006880 0.000000 0.022353 0.000000
# 6 0.000000 0.000000 0.000000 0.004367 0.000000 0.049510
#
#
# Mechanical properties :
#
#
# Convention : Reuss Voigt Hill
#
# Bulk Modulus (GPa) = 43.78922 71.18941 57.48932
# Shear Modulus (GPa) = -130.35506 39.21696 -45.56905
#
# Velocity S-wave (km/s) = -6.98586 3.83171 -4.13039
# Velocity P-wave (km/s) = 6.97681 6.79911 1.10635
#
# Compressibility (1/GPa) = 0.02283667
#
# Stress axis : x y z
#
# Youngs Moduli (GPa) = 209.96501 63.63657 91.61551
#
# Poissons Ratio (x) = 0.11192 0.05355
# Poissons Ratio (y) = 0.36929 0.17723
# Poissons Ratio (z) = 0.12272 0.12310
#
# Static dielectric constant tensor:
#      x y z
#    x 2.139550 0.000000 0.117390 
#    y 0.000000 2.093430 0.000000 
#    z 0.117390 0.000000 2.227330 
# 
# From -- ./inp_files/115546.got.cif
#   From: 2010.05.17/outbox.cif.g08.bks.cpg/sg15_58_cif.got.tgz:115546.got - 2010.06.03 18:47:42.
