data_PCOD9280377
_publ_section_title
;
Structure prediction by ZEFSAII (Michael W. Deem and Ramdas Pophale) SiO2 
 PCOD9280377
Probable space group: C 2/C
;
_chemical_formula_sum "Si O2"
_cell_formula_units_Z 40
_cell_length_a 8.761961
_cell_length_b 20.436862
_cell_length_c 9.649170
_cell_angle_alpha 90.000000
_cell_angle_beta 92.967250
_cell_angle_gamma 90.000000
_cell_volume 1725.531258
_symmetry_space_group_name_H-M "C 2/C"
_symmetry_group_IT_number 15
_symmetry_cell_setting 'monoclinic'
loop_
_space_group_symop_operation_xyz
x,y,z
-x,y,1/2-z
-x,-y,-z
x,-y,1/2+z
1/2+x,1/2+y,z
1/2-x,1/2+y,1/2-z
1/2-x,1/2-y,-z
1/2+x,1/2-y,1/2+z
loop_
_atom_site_type_symbol
_atom_site_label
_atom_site_fract_x
_atom_site_fract_y
_atom_site_fract_z
Si Si1 0.622632 0.716726 0.126889
Si Si2 0.190457 0.613962 0.202280
Si Si3 0.400578 0.059060 0.053521
Si Si4 0.341986 0.680719 0.968944
Si Si5 0.169396 0.359798 0.191275
O O1 0.500000 0.717824 0.250000
O O2 0.758786 0.672651 0.192535
O O3 0.664483 0.791472 0.109424
O O4 0.520800 0.693644 0.993652
O O5 0.191288 0.551675 0.306505
O O6 0.304528 0.625119 0.081153
O O7 0.029187 0.611206 0.113403
O O8 0.303059 0.085259 0.921572
O O9 0.500000 0.000000 0.000000
O O10 0.283929 0.653314 0.821581
O O11 0.250000 0.750000 0.000000
O O12 0.000000 0.371981 0.250000
#
# Coordination Sequence:
#
# PCOD9280377 Si02
#       5
#     8   8   8   8   8
#     4   9  18  33  59  90 123 150 198 254 328 386
#     4  10  21  37  59  86 121 155 208 265 313 366
#     4  11  25  39  57  86 123 166 218 265 305 372
#     4  11  17  34  60  92 122 159 198 248 323 404
#     4  11  19  33  61  88 119 160 205 253 319 373
#
# _framework density 23.181266999999998
#
# number of rings (size 3 to 8) (size 9 to 14) (size 15 to 20)
#    0.000    1.600    8.000    0.000    2.800    0.800 
#    0.000    1.000    0.000   19.200    0.000    0.000 
#    0.000    0.000    0.000    0.000    0.000    0.000 
#
# Total GULP energy -111516.247699 kJ/mol
# GULP energy per Si atom -5575.812385 kJ/mol
# Density = 2.312851 g / cm^3
# Si number density = 23.181267 Si / 1000 Ang^3
#
#
#
# Elastic Constant Matrix: (Units=GPa)
#
#
# Indices 1 2 3 4 5 6 
#
# 1 77.1651 27.3817 38.8330 0.0000 11.9608 0.0000
# 2 27.3817 63.4431 58.2677 0.0000 4.5891 0.0000
# 3 38.8330 58.2677 196.0705 0.0000 30.4040 0.0000
# 4 0.0000 0.0000 0.0000 31.8339 0.0000 -2.8047
# 5 11.9608 4.5891 30.4040 0.0000 43.0582 0.0000
# 6 0.0000 0.0000 0.0000 -2.8047 0.0000 25.4991
#
#
#
# Elastic Compliance Matrix: (Units=1/GPa)
#
#
# Indices 1 2 3 4 5 6 
#
# 1 0.015984 -0.005793 -0.000956 0.000000 -0.003147 0.000000
# 2 -0.005793 0.024024 -0.006563 0.000000 0.003683 0.000000
# 3 -0.000956 -0.006563 0.007962 0.000000 -0.004657 0.000000
# 4 0.000000 0.000000 0.000000 0.031720 0.000000 0.003489
# 5 -0.003147 0.003683 -0.004657 0.000000 0.026995 0.000000
# 6 0.000000 0.000000 0.000000 0.003489 0.000000 0.039601
#
#
# Mechanical properties :
#
#
# Convention : Reuss Voigt Hill
#
# Bulk Modulus (GPa) = 46.84803 65.07148 55.95975
# Shear Modulus (GPa) = 27.77404 34.22467 30.99935
#
# Velocity S-wave (km/s) = 3.46515 3.84656 3.66082
# Velocity P-wave (km/s) = 6.02187 6.91807 6.48547
#
# Compressibility (1/GPa) = 0.02134562
#
# Stress axis : x y z
#
# Youngs Moduli (GPa) = 62.56347 41.62587 125.59447
#
# Poissons Ratio (x) = 0.24112 0.12009
# Poissons Ratio (y) = 0.36241 0.82429
# Poissons Ratio (z) = 0.05982 0.27319
#
# Static dielectric constant tensor:
#      x y z
#    x 1.990050 0.000000 -0.117540 
#    y 0.000000 1.888410 0.000000 
#    z -0.117540 0.000000 1.968650 
# 
# From -- ./inp_files/31459.got.cif
#   From: 2010.05.17/outbox.cif.g08.bks.cpg/sg15_16_cif.got.tgz:31459.got - 2010.06.03 18:47:42.
