data_PCOD9280069
_publ_section_title
;
Structure prediction by ZEFSAII (Michael W. Deem and Ramdas Pophale) SiO2 
 PCOD9280069
Probable space group: C 2/C
;
_chemical_formula_sum "Si O2"
_cell_formula_units_Z 44
_cell_length_a 24.080350
_cell_length_b 9.534958
_cell_length_c 11.338299
_cell_angle_alpha 90.000000
_cell_angle_beta 41.750058
_cell_angle_gamma 90.000000
_cell_volume 1733.512728
_symmetry_space_group_name_H-M "C 2/C"
_symmetry_group_IT_number 15
_symmetry_cell_setting 'monoclinic'
loop_
_space_group_symop_operation_xyz
x,y,z
-x,y,1/2-z
-x,-y,-z
x,-y,1/2+z
1/2+x,1/2+y,z
1/2-x,1/2+y,1/2-z
1/2-x,1/2-y,-z
1/2+x,1/2-y,1/2+z
loop_
_atom_site_type_symbol
_atom_site_label
_atom_site_fract_x
_atom_site_fract_y
_atom_site_fract_z
Si Si1 0.665686 0.716577 0.065192
Si Si2 0.577521 0.951666 0.061153
Si Si3 0.753154 0.987147 0.692391
Si Si4 0.904069 0.914889 0.601362
Si Si5 0.250000 0.250000 0.500000
Si Si6 0.939171 0.223089 0.613601
O O1 0.697763 0.629991 0.903899
O O2 0.750000 0.750000 0.000000
O O3 0.613268 0.846482 0.104159
O O4 0.611558 0.622213 0.237366
O O5 0.500000 0.023241 0.250000
O O6 0.662585 0.026818 0.886553
O O7 0.552052 0.855450 0.988632
O O8 0.814602 0.901308 0.680463
O O9 0.745637 0.896332 0.586175
O O10 0.976366 0.808050 0.447120
O O11 0.931917 0.076511 0.551943
O O12 0.147359 0.233432 0.679132
#
# Coordination Sequence:
#
# PCOD9280069 Si02
#       6
#     8   8   8   8   4   8
#     4  12  23  41  66  95 129 172 225 270 328 405
#     4  11  22  40  66  95 133 179 222 272 335 400
#     4  11  24  41  67  93 135 173 218 278 337 389
#     4  11  21  37  63 100 122 168 221 273 329 384
#     4  10  22  40  58  94 136 168 204 272 332 384
#     4  10  21  36  64  95 134 163 215 276 330 385
#
# _framework density 25.381989000000001
#
# number of rings (size 3 to 8) (size 9 to 14) (size 15 to 20)
#    0.000    1.091    7.273    0.000    0.000    0.727 
#    0.000    0.909    4.000    0.000    0.000    0.000 
#    0.000    0.000    0.000    0.000    0.000    0.000 
#
# Total GULP energy -122509.953566 kJ/mol
# GULP energy per Si atom -5568.634253 kJ/mol
# Density = 2.532422 g / cm^3
# Si number density = 25.381989 Si / 1000 Ang^3
#
#
#
# Elastic Constant Matrix: (Units=GPa)
#
#
# Indices 1 2 3 4 5 6 
#
# 1 53.5092 11.9319 14.0623 0.0000 -25.8115 0.0000
# 2 11.9319 24.9486 19.9546 0.0000 -7.0245 0.0000
# 3 14.0623 19.9546 210.7243 0.0000 -48.4102 0.0000
# 4 0.0000 0.0000 0.0000 29.5146 0.0000 -4.4098
# 5 -25.8115 -7.0245 -48.4102 0.0000 35.5292 0.0000
# 6 0.0000 0.0000 0.0000 -4.4098 0.0000 19.5997
#
#
#
# Elastic Compliance Matrix: (Units=1/GPa)
#
#
# Indices 1 2 3 4 5 6 
#
# 1 0.034929 -0.012772 0.006009 0.000000 0.031038 0.000000
# 2 -0.012772 0.048501 -0.005341 0.000000 -0.006967 0.000000
# 3 0.006009 -0.005341 0.008167 0.000000 0.014437 0.000000
# 4 0.000000 0.000000 0.000000 0.035060 0.000000 0.007888
# 5 0.031038 -0.006967 0.014437 0.000000 0.068988 0.000000
# 6 0.000000 0.000000 0.000000 0.007888 0.000000 0.052796
#
#
# Mechanical properties :
#
#
# Convention : Reuss Voigt Hill
#
# Bulk Modulus (GPa) = 14.83936 42.34219 28.59077
# Shear Modulus (GPa) = 16.94266 33.14424 25.04345
#
# Velocity S-wave (km/s) = 2.58642 3.61753 3.14453
# Velocity P-wave (km/s) = 3.84428 5.84525 4.94699
#
# Compressibility (1/GPa) = 0.06738836
#
# Stress axis : x y z
#
# Youngs Moduli (GPa) = 28.62950 20.61813 122.44343
#
# Poissons Ratio (x) = 0.26334 -0.73575
# Poissons Ratio (y) = 0.36566 0.65397
# Poissons Ratio (z) = -0.17203 0.11012
#
# Static dielectric constant tensor:
#      x y z
#    x 2.130540 0.000000 0.002560 
#    y 0.000000 2.008390 0.000000 
#    z 0.002560 0.000000 2.021020 
# 
# From -- ./inp_files/117895.got.cif
#   From: 2010.05.17/outbox.cif.g08.bks.cpg/sg15_59_cif.got.tgz:117895.got - 2010.06.03 18:47:42.
