data_PCOD9280171
_publ_section_title
;
Structure prediction by ZEFSAII (Michael W. Deem and Ramdas Pophale) SiO2 
 PCOD9280171
Probable space group: C 2/C
;
_chemical_formula_sum "Si O2"
_cell_formula_units_Z 40
_cell_length_a 28.776665
_cell_length_b 11.841413
_cell_length_c 5.390610
_cell_angle_alpha 90.000000
_cell_angle_beta 89.005499
_cell_angle_gamma 90.000000
_cell_volume 1836.608025
_symmetry_space_group_name_H-M "C 2/C"
_symmetry_group_IT_number 15
_symmetry_cell_setting 'monoclinic'
loop_
_space_group_symop_operation_xyz
x,y,z
-x,y,1/2-z
-x,-y,-z
x,-y,1/2+z
1/2+x,1/2+y,z
1/2-x,1/2+y,1/2-z
1/2-x,1/2-y,-z
1/2+x,1/2-y,1/2+z
loop_
_atom_site_type_symbol
_atom_site_label
_atom_site_fract_x
_atom_site_fract_y
_atom_site_fract_z
Si Si1 0.639367 0.970094 0.441208
Si Si2 0.553390 0.426240 0.741904
Si Si3 0.724848 0.430194 0.952360
Si Si4 0.793354 0.681867 0.120612
Si Si5 0.856760 0.781404 0.746215
O O1 0.645816 0.838651 0.389986
O O2 0.614095 0.983664 0.702393
O O3 0.684077 0.057847 0.456785
O O4 0.500000 0.385479 0.750000
O O5 0.559875 0.497618 0.488127
O O6 0.592086 0.330027 0.744876
O O7 0.726046 0.524204 0.731570
O O8 0.768660 0.350911 0.880570
O O9 0.677333 0.364942 0.898404
O O10 0.750000 0.750000 0.000000
O O11 0.835420 0.760936 0.024686
#
# Coordination Sequence:
#
# PCOD9280171 Si02
#       5
#     8   8   8   8   8
#     4  10  21  37  55  81 115 153 197 245 297 348
#     4  10  22  41  64  92 123 154 195 248 307 370
#     4  11  22  36  54  82 118 156 202 246 292 352
#     4   9  20  37  55  78 112 156 197 240 289 345
#     4  10  21  37  61  86 116 158 201 248 302 358
#
# _framework density 21.779281999999998
#
# number of rings (size 3 to 8) (size 9 to 14) (size 15 to 20)
#    0.000    2.000    0.000    3.600    0.000    8.000 
#    0.000   11.000    0.000    4.800    0.000    0.000 
#    0.000    0.000    0.000    0.000    0.000    0.000 
#
# Total GULP energy -111464.872840 kJ/mol
# GULP energy per Si atom -5573.243642 kJ/mol
# Density = 2.172971 g / cm^3
# Si number density = 21.779282 Si / 1000 Ang^3
#
#
#
# Elastic Constant Matrix: (Units=GPa)
#
#
# Indices 1 2 3 4 5 6 
#
# 1 138.7602 79.6406 33.1049 0.0000 0.3322 0.0000
# 2 79.6406 106.1586 53.6197 0.0000 0.5225 0.0000
# 3 33.1049 53.6197 143.0474 0.0000 5.2350 0.0000
# 4 0.0000 0.0000 0.0000 48.4791 0.0000 2.2700
# 5 0.3322 0.5225 5.2350 0.0000 14.8748 0.0000
# 6 0.0000 0.0000 0.0000 2.2700 0.0000 35.8499
#
#
#
# Elastic Compliance Matrix: (Units=1/GPa)
#
#
# Indices 1 2 3 4 5 6 
#
# 1 0.012727 -0.009946 0.000791 0.000000 -0.000213 0.000000
# 2 -0.009946 0.019412 -0.005022 0.000000 0.001308 0.000000
# 3 0.000791 -0.005022 0.008798 0.000000 -0.002938 0.000000
# 4 0.000000 0.000000 0.000000 0.020689 0.000000 -0.001310
# 5 -0.000213 0.001308 -0.002938 0.000000 0.068220 0.000000
# 6 0.000000 0.000000 0.000000 -0.001310 0.000000 0.027977
#
#
# Mechanical properties :
#
#
# Convention : Reuss Voigt Hill
#
# Bulk Modulus (GPa) = 79.48564 80.07740 79.78152
# Shear Modulus (GPa) = 26.26428 34.61416 30.43922
#
# Velocity S-wave (km/s) = 3.47642 3.99095 3.74254
# Velocity P-wave (km/s) = 7.25873 7.62131 7.44223
#
# Compressibility (1/GPa) = 0.01258089
#
# Stress axis : x y z
#
# Youngs Moduli (GPa) = 78.57215 51.51479 113.66486
#
# Poissons Ratio (x) = 0.51238 -0.08987
# Poissons Ratio (y) = 0.78150 0.57087
# Poissons Ratio (z) = -0.06212 0.25873
#
# Static dielectric constant tensor:
#      x y z
#    x 1.734610 0.000000 0.009460 
#    y 0.000000 1.892060 0.000000 
#    z 0.009460 0.000000 1.962640 
# 
# From -- ./inp_files/16727.got.cif
#   From: 2010.05.17/outbox.cif.g08.bks.cpg/sg15_9_cif.got.tgz:16727.got - 2010.06.03 18:47:42.
