data_PCOD9280735
_publ_section_title
;
Structure prediction by ZEFSAII (Michael W. Deem and Ramdas Pophale) SiO2 
 PCOD9280735
Probable space group: C 2/C
;
_chemical_formula_sum "Si O2"
_cell_formula_units_Z 60
_cell_length_a 7.048299
_cell_length_b 21.509918
_cell_length_c 20.301443
_cell_angle_alpha 90.000000
_cell_angle_beta 128.409837
_cell_angle_gamma 90.000000
_cell_volume 2411.776698
_symmetry_space_group_name_H-M "C 2/C"
_symmetry_group_IT_number 15
_symmetry_cell_setting 'monoclinic'
loop_
_space_group_symop_operation_xyz
x,y,z
-x,y,1/2-z
-x,-y,-z
x,-y,1/2+z
1/2+x,1/2+y,z
1/2-x,1/2+y,1/2-z
1/2-x,1/2-y,-z
1/2+x,1/2-y,1/2+z
loop_
_atom_site_type_symbol
_atom_site_label
_atom_site_fract_x
_atom_site_fract_y
_atom_site_fract_z
Si Si1 0.008962 0.568784 0.591749
Si Si2 0.239739 0.772273 0.214155
Si Si3 0.275520 0.182485 0.930721
Si Si4 0.165095 0.972059 0.917727
Si Si5 0.000000 0.611018 0.250000
Si Si6 0.819352 0.341933 0.894069
Si Si7 0.732537 0.495895 0.751875
Si Si8 0.380522 0.289867 0.874853
O O1 0.092527 0.638067 0.594079
O O2 0.171439 0.527599 0.575742
O O3 0.088498 0.547640 0.681167
O O4 0.743900 0.551180 0.507024
O O5 0.500000 0.798520 0.250000
O O6 0.217194 0.702456 0.176824
O O7 0.262568 0.757378 0.295919
O O8 0.012883 0.813207 0.141567
O O9 0.363072 0.253154 0.938519
O O10 0.401017 0.158419 0.024240
O O11 0.218502 0.911683 0.882366
O O12 0.893852 0.996067 0.847013
O O13 0.120563 0.567999 0.220323
O O14 0.210549 0.650724 0.329468
O O15 0.649977 0.306021 0.911001
O O16 0.500000 0.498578 0.750000
#
# Coordination Sequence:
#
# PCOD9280735 Si02
#       8
#     8   8   8   8   4   8   8   8
#     4   9  21  36  61  88 117 168 212 250 324 384
#     4  10  22  35  58  92 125 164 211 258 314 382
#     4  11  21  39  60  86 126 170 202 253 323 393
#     4   9  18  36  60  89 117 157 214 267 304 375
#     4  12  22  38  64 102 118 156 224 268 322 382
#     4  10  21  37  63  88 122 159 214 259 320 371
#     4  10  22  38  67  90 123 167 210 271 324 375
#     4  11  22  36  59  89 126 158 203 265 316 378
#
# _framework density 24.877924
#
# number of rings (size 3 to 8) (size 9 to 14) (size 15 to 20)
#    0.000    1.867    2.667    0.800    3.733    3.200 
#    0.000    0.667   22.000    0.000    0.000    0.000 
#    0.000    0.000    0.000    0.000    0.000    0.000 
#
# Total GULP energy -167418.601326 kJ/mol
# GULP energy per Si atom -5580.620044 kJ/mol
# Density = 2.482130 g / cm^3
# Si number density = 24.877924 Si / 1000 Ang^3
#
#
#
# Elastic Constant Matrix: (Units=GPa)
#
#
# Indices 1 2 3 4 5 6 
#
# 1 51.2256 -4.7672 8.8803 0.0000 18.6342 0.0000
# 2 -4.7672 72.0849 26.5216 0.0000 -7.1980 0.0000
# 3 8.8803 26.5216 161.7157 0.0000 21.0023 0.0000
# 4 0.0000 0.0000 0.0000 33.5549 0.0000 -5.4479
# 5 18.6342 -7.1980 21.0023 0.0000 27.3761 0.0000
# 6 0.0000 0.0000 0.0000 -5.4479 0.0000 15.4339
#
#
#
# Elastic Compliance Matrix: (Units=1/GPa)
#
#
# Indices 1 2 3 4 5 6 
#
# 1 0.026101 -0.000547 0.001091 0.000000 -0.018747 0.000000
# 2 -0.000547 0.015849 -0.003508 0.000000 0.007231 0.000000
# 3 0.001091 -0.003508 0.007681 0.000000 -0.007558 0.000000
# 4 0.000000 0.000000 0.000000 0.031614 0.000000 0.011159
# 5 -0.018747 0.007231 -0.007558 0.000000 0.056988 0.000000
# 6 0.000000 0.000000 0.000000 0.011159 0.000000 0.068732
#
#
# Mechanical properties :
#
#
# Convention : Reuss Voigt Hill
#
# Bulk Modulus (GPa) = 22.88229 38.47730 30.67980
# Shear Modulus (GPa) = 21.98179 32.23241 27.10710
#
# Velocity S-wave (km/s) = 2.97574 3.60338 3.30450
# Velocity P-wave (km/s) = 4.58525 5.72822 5.18830
#
# Compressibility (1/GPa) = 0.04370192
#
# Stress axis : x y z
#
# Youngs Moduli (GPa) = 38.31263 63.09457 130.19692
#
# Poissons Ratio (x) = 0.03454 -0.14207
# Poissons Ratio (y) = 0.02097 0.45678
# Poissons Ratio (z) = -0.04181 0.22136
#
# Static dielectric constant tensor:
#      x y z
#    x 1.999690 0.000000 0.002170 
#    y 0.000000 1.951820 0.000000 
#    z 0.002170 0.000000 2.108610 
# 
# From -- ./inp_files/234097.got.cif
#   From: 2010.05.17/outbox.cif.g08.bks.cpg/sg15_118_cif.got.tgz:234097.got - 2010.06.03 18:47:42.
