data_PCOD9280555
_publ_section_title
;
Structure prediction by ZEFSAII (Michael W. Deem and Ramdas Pophale) SiO2 
 PCOD9280555
Probable space group: C 2/C
;
_chemical_formula_sum "Si O2"
_cell_formula_units_Z 60
_cell_length_a 11.688119
_cell_length_b 11.017196
_cell_length_c 20.529222
_cell_angle_alpha 90.000000
_cell_angle_beta 115.390234
_cell_angle_gamma 90.000000
_cell_volume 2388.208896
_symmetry_space_group_name_H-M "C 2/C"
_symmetry_group_IT_number 15
_symmetry_cell_setting 'monoclinic'
loop_
_space_group_symop_operation_xyz
x,y,z
-x,y,1/2-z
-x,-y,-z
x,-y,1/2+z
1/2+x,1/2+y,z
1/2-x,1/2+y,1/2-z
1/2-x,1/2-y,-z
1/2+x,1/2-y,1/2+z
loop_
_atom_site_type_symbol
_atom_site_label
_atom_site_fract_x
_atom_site_fract_y
_atom_site_fract_z
Si Si1 0.050330 0.604904 0.464356
Si Si2 0.266833 0.180225 0.395501
Si Si3 0.564356 0.449922 0.129813
Si Si4 0.293156 0.582769 0.583875
Si Si5 0.797597 0.546812 0.606505
Si Si6 0.867397 0.173589 0.277093
Si Si7 0.500000 0.886250 0.250000
Si Si8 0.639985 0.707612 0.768125
O O1 0.171914 0.659846 0.531567
O O2 0.121914 0.538720 0.421670
O O3 0.000000 0.500000 0.500000
O O4 0.919860 0.677913 0.419624
O O5 0.219880 0.308251 0.413720
O O6 0.190033 0.159677 0.309255
O O7 0.238123 0.060169 0.430289
O O8 0.426048 0.398847 0.080191
O O9 0.653990 0.484350 0.091835
O O10 0.550119 0.566480 0.173670
O O11 0.634982 0.357524 0.196656
O O12 0.321697 0.614994 0.665732
O O13 0.883156 0.543838 0.692360
O O14 0.745713 0.191277 0.291977
O O15 0.945895 0.297858 0.292952
O O16 0.500000 0.752138 0.750000
#
# Coordination Sequence:
#
# PCOD9280555 Si02
#       8
#     8   8   8   8   8   8   4   8
#     4  10  25  42  65  92 130 176 218 265 325 398
#     4  10  21  41  66  92 127 165 219 269 325 393
#     4  11  21  39  64  92 126 162 207 273 325 381
#     4  10  22  42  62  88 127 174 212 254 321 399
#     4  11  24  40  64  96 128 166 219 276 331 389
#     4  11  21  36  61  96 123 160 203 270 332 380
#     4  10  22  36  62  96 122 158 210 272 328 380
#     4  10  21  37  61  87 125 161 207 259 323 387
#
# _framework density 25.123431
#
# number of rings (size 3 to 8) (size 9 to 14) (size 15 to 20)
#    0.000    1.600    4.000    1.600    6.533    3.733 
#    2.400    0.667    0.000    0.000    0.000    0.000 
#    0.000    0.000    0.000    0.000    0.000    0.000 
#
# Total GULP energy -167617.602596 kJ/mol
# GULP energy per Si atom -5587.253420 kJ/mol
# Density = 2.506625 g / cm^3
# Si number density = 25.123431 Si / 1000 Ang^3
#
#
#
# Elastic Constant Matrix: (Units=GPa)
#
#
# Indices 1 2 3 4 5 6 
#
# 1 158.8923 8.1011 36.7122 0.0000 30.7595 0.0000
# 2 8.1011 46.4637 9.8876 0.0000 3.2699 0.0000
# 3 36.7122 9.8876 57.0036 0.0000 19.7729 0.0000
# 4 0.0000 0.0000 0.0000 19.3837 0.0000 -1.0229
# 5 30.7595 3.2699 19.7729 0.0000 40.2848 0.0000
# 6 0.0000 0.0000 0.0000 -1.0229 0.0000 36.9651
#
#
#
# Elastic Compliance Matrix: (Units=1/GPa)
#
#
# Indices 1 2 3 4 5 6 
#
# 1 0.007971 -0.000324 -0.003586 0.000000 -0.004300 0.000000
# 2 -0.000324 0.022361 -0.003768 0.000000 0.000282 0.000000
# 3 -0.003586 -0.003768 0.023441 0.000000 -0.008462 0.000000
# 4 0.000000 0.000000 0.000000 0.051665 0.000000 0.001430
# 5 -0.004300 0.000282 -0.008462 0.000000 0.032237 0.000000
# 6 0.000000 0.000000 0.000000 0.001430 0.000000 0.027092
#
#
# Mechanical properties :
#
#
# Convention : Reuss Voigt Hill
#
# Bulk Modulus (GPa) = 26.02988 41.30681 33.66834
# Shear Modulus (GPa) = 25.91652 33.17064 29.54358
#
# Velocity S-wave (km/s) = 3.21529 3.63754 3.43291
# Velocity P-wave (km/s) = 4.91603 5.84119 5.39847
#
# Compressibility (1/GPa) = 0.03841739
#
# Stress axis : x y z
#
# Youngs Moduli (GPa) = 125.45438 44.72152 42.66080
#
# Poissons Ratio (x) = 0.01449 0.15298
# Poissons Ratio (y) = 0.04066 0.16073
# Poissons Ratio (z) = 0.44986 0.16849
#
# Static dielectric constant tensor:
#      x y z
#    x 2.010050 0.000000 -0.006170 
#    y 0.000000 2.022080 0.000000 
#    z -0.006170 0.000000 1.991110 
# 
# From -- ./inp_files/268963.got.cif
#   From: 2010.05.17/outbox.cif.g08.bks.cpg/sg15_135_cif.got.tgz:268963.got - 2010.06.03 18:47:42.
