data_PCOD9280772
_publ_section_title
;
Structure prediction by ZEFSAII (Michael W. Deem and Ramdas Pophale) SiO2 
 PCOD9280772
Probable space group: C 2/C
;
_chemical_formula_sum "Si O2"
_cell_formula_units_Z 56
_cell_length_a 13.535119
_cell_length_b 12.211586
_cell_length_c 25.077436
_cell_angle_alpha 90.000000
_cell_angle_beta 34.755984
_cell_angle_gamma 90.000000
_cell_volume 2362.952798
_symmetry_space_group_name_H-M "C 2/C"
_symmetry_group_IT_number 15
_symmetry_cell_setting 'monoclinic'
loop_
_space_group_symop_operation_xyz
x,y,z
-x,y,1/2-z
-x,-y,-z
x,-y,1/2+z
1/2+x,1/2+y,z
1/2-x,1/2+y,1/2-z
1/2-x,1/2-y,-z
1/2+x,1/2-y,1/2+z
loop_
_atom_site_type_symbol
_atom_site_label
_atom_site_fract_x
_atom_site_fract_y
_atom_site_fract_z
Si Si1 0.682707 0.186407 0.871712
Si Si2 0.715071 0.106331 0.214690
Si Si3 0.297178 0.465657 0.080202
Si Si4 0.270504 0.340859 0.445342
Si Si5 0.402354 0.943322 0.621688
Si Si6 0.211518 0.713553 0.417633
Si Si7 0.099552 0.052812 0.083018
O O1 0.786677 0.262593 0.785770
O O2 0.775223 0.213460 0.886255
O O3 0.670986 0.060237 0.862439
O O4 0.481026 0.219694 0.970401
O O5 0.599145 0.065849 0.314228
O O6 0.910730 0.084633 0.147580
O O7 0.698627 0.045542 0.165109
O O8 0.248555 0.339433 0.113889
O O9 0.500000 0.500000 0.000000
O O10 0.283155 0.466516 0.022079
O O11 0.250000 0.250000 0.500000
O O12 0.417513 0.430781 0.386035
O O13 0.098799 0.418254 0.517377
O O14 0.297429 0.853817 0.633662
O O15 0.325562 0.643906 0.409456
#
# Coordination Sequence:
#
# PCOD9280772 Si02
#       7
#     8   8   8   8   8   8   8
#     4  11  21  45  63  91 130 171 214 263 327 390
#     4  11  26  40  65  96 135 169 210 272 339 373
#     4  10  21  37  63  94 127 163 213 256 320 379
#     4  11  23  40  71  93 122 171 226 260 310 392
#     4  11  25  42  64  94 135 172 207 271 341 373
#     4  11  20  40  66  93 122 170 221 263 306 395
#     4  11  21  40  66  96 117 168 224 264 305 394
#
# _framework density 23.699161
#
# number of rings (size 3 to 8) (size 9 to 14) (size 15 to 20)
#    0.000    1.143    5.714    2.143    8.000    0.571 
#    0.000    4.286    3.143    0.000    0.000    0.000 
#    0.000    0.000    0.000    0.000    0.000    0.000 
#
# Total GULP energy -156391.311236 kJ/mol
# GULP energy per Si atom -5585.403973 kJ/mol
# Density = 2.364522 g / cm^3
# Si number density = 23.699161 Si / 1000 Ang^3
#
#
#
# Elastic Constant Matrix: (Units=GPa)
#
#
# Indices 1 2 3 4 5 6 
#
# 1 70.7244 27.2449 1.4675 0.0001 1.2846 0.0000
# 2 27.2449 143.4250 8.9600 0.0001 -7.7813 0.0000
# 3 1.4675 8.9600 59.2747 0.0001 14.5392 0.0000
# 4 0.0001 0.0001 0.0001 20.3241 0.0000 4.7143
# 5 1.2846 -7.7813 14.5392 0.0000 22.4962 0.0000
# 6 0.0000 0.0000 0.0000 4.7143 0.0000 -27.7945
#
#
#
# Elastic Compliance Matrix: (Units=1/GPa)
#
#
# Indices 1 2 3 4 5 6 
#
# 1 0.015358 -0.003088 0.000670 0.000000 -0.002378 0.000000
# 2 -0.003088 0.007930 -0.002185 0.000000 0.004331 0.000000
# 3 0.000670 -0.002185 0.020653 0.000000 -0.014142 0.000000
# 4 0.000000 0.000000 0.000000 0.047340 0.000000 0.008030
# 5 -0.002378 0.004331 -0.014142 0.000000 0.055226 0.000000
# 6 0.000000 0.000000 0.000000 0.008030 0.000000 -0.034616
#
#
# Mechanical properties :
#
#
# Convention : Reuss Voigt Hill
#
# Bulk Modulus (GPa) = 28.78893 38.75211 33.77052
# Shear Modulus (GPa) = 37.68564 18.72193 28.20378
#
# Velocity S-wave (km/s) = 3.99202 2.81371 3.45349
# Velocity P-wave (km/s) = 5.78120 5.19068 5.49388
#
# Compressibility (1/GPa) = 0.03473557
#
# Stress axis : x y z
#
# Youngs Moduli (GPa) = 65.11099 126.09672 48.41895
#
# Poissons Ratio (x) = 0.38943 -0.03244
# Poissons Ratio (y) = 0.20108 0.10578
# Poissons Ratio (z) = -0.04362 0.27549
#
# Static dielectric constant tensor:
#      x y z
#    x 1.962210 0.000000 0.043230 
#    y 0.000000 2.021750 0.000000 
#    z 0.043230 0.000000 1.986450 
# 
# From -- ./inp_files/295905.got.cif
#   From: 2010.05.17/outbox.cif.g08.bks.cpg/sg15_148_cif.got.tgz:295905.got - 2010.06.03 18:47:42.
