data_PCOD9280252
_publ_section_title
;
Structure prediction by ZEFSAII (Michael W. Deem and Ramdas Pophale) SiO2 
 PCOD9280252
Probable space group: C 2/C
;
_chemical_formula_sum "Si O2"
_cell_formula_units_Z 56
_cell_length_a 22.004925
_cell_length_b 7.732690
_cell_length_c 14.218663
_cell_angle_alpha 90.000000
_cell_angle_beta 103.532914
_cell_angle_gamma 90.000000
_cell_volume 2352.235488
_symmetry_space_group_name_H-M "C 2/C"
_symmetry_group_IT_number 15
_symmetry_cell_setting 'monoclinic'
loop_
_space_group_symop_operation_xyz
x,y,z
-x,y,1/2-z
-x,-y,-z
x,-y,1/2+z
1/2+x,1/2+y,z
1/2-x,1/2+y,1/2-z
1/2-x,1/2-y,-z
1/2+x,1/2-y,1/2+z
loop_
_atom_site_type_symbol
_atom_site_label
_atom_site_fract_x
_atom_site_fract_y
_atom_site_fract_z
Si Si1 0.447570 0.064983 0.381369
Si Si2 0.794154 0.415999 0.997625
Si Si3 0.515120 0.506148 0.857258
Si Si4 0.681577 0.797242 0.693258
Si Si5 0.918185 0.182843 0.447676
Si Si6 0.063914 0.362026 0.410588
Si Si7 0.280686 0.577883 0.378477
O O1 0.429930 0.872479 0.410252
O O2 0.516083 0.016016 0.365038
O O3 0.390400 0.155075 0.305961
O O4 0.449335 0.167475 0.481845
O O5 0.862867 0.401170 0.068983
O O6 0.755688 0.558265 0.037331
O O7 0.750000 0.250000 0.000000
O O8 0.804397 0.422128 0.890591
O O9 0.500000 0.581074 0.750000
O O10 0.452003 0.451308 0.889058
O O11 0.549705 0.320337 0.856219
O O12 0.555162 0.626802 0.940862
O O13 0.695372 0.605590 0.658101
O O14 0.731952 0.836899 0.790220
O O15 0.844612 0.171556 0.421343
#
# Coordination Sequence:
#
# PCOD9280252 Si02
#       7
#     8   8   8   8   8   8   8
#     4   9  18  36  60  83 116 151 190 242 292 340
#     4   9  19  35  58  83 113 151 193 235 281 343
#     4  10  21  37  59  85 114 152 196 236 282 344
#     4  10  21  38  58  85 114 152 197 237 286 347
#     4  10  21  37  57  84 118 153 187 236 293 340
#     4   9  18  35  59  83 109 149 193 236 283 338
#     4  11  22  38  61  85 117 153 193 238 289 349
#
# _framework density 23.80714
#
# number of rings (size 3 to 8) (size 9 to 14) (size 15 to 20)
#    0.000    2.286    0.000    3.429    0.000    6.857 
#    0.000   10.000    0.000    0.000    0.000    0.000 
#    0.000    0.000    0.000    0.000    0.000    0.000 
#
# Total GULP energy -156423.078549 kJ/mol
# GULP energy per Si atom -5586.538520 kJ/mol
# Density = 2.375295 g / cm^3
# Si number density = 23.807140 Si / 1000 Ang^3
#
#
#
# Elastic Constant Matrix: (Units=GPa)
#
#
# Indices 1 2 3 4 5 6 
#
# 1 141.1900 17.6030 12.9619 0.0000 33.1384 0.0000
# 2 17.6030 90.2142 2.3743 0.0000 4.5802 0.0000
# 3 12.9619 2.3743 70.9326 0.0000 7.0233 0.0000
# 4 0.0000 0.0000 0.0000 11.5199 0.0000 4.1519
# 5 33.1384 4.5802 7.0233 0.0000 27.1954 0.0000
# 6 0.0000 0.0000 0.0000 4.1519 0.0000 33.0134
#
#
#
# Elastic Compliance Matrix: (Units=1/GPa)
#
#
# Indices 1 2 3 4 5 6 
#
# 1 0.010108 -0.001350 -0.000621 0.000000 -0.011929 0.000000
# 2 -0.001350 0.011363 -0.000110 0.000000 -0.000240 0.000000
# 3 -0.000621 -0.000110 0.014509 0.000000 -0.002972 0.000000
# 4 0.000000 0.000000 0.000000 0.090928 0.000000 -0.011435
# 5 -0.011929 -0.000240 -0.002972 0.000000 0.052115 0.000000
# 6 0.000000 0.000000 0.000000 -0.011435 0.000000 0.031729
#
#
# Mechanical properties :
#
#
# Convention : Reuss Voigt Hill
#
# Bulk Modulus (GPa) = 31.42817 40.91280 36.17049
# Shear Modulus (GPa) = 22.17098 32.30556 27.23827
#
# Velocity S-wave (km/s) = 3.05499 3.68770 3.38616
# Velocity P-wave (km/s) = 5.06693 5.94597 5.52396
#
# Compressibility (1/GPa) = 0.03181859
#
# Stress axis : x y z
#
# Youngs Moduli (GPa) = 98.93328 88.00276 68.92137
#
# Poissons Ratio (x) = 0.11883 0.04278
# Poissons Ratio (y) = 0.13359 0.00757
# Poissons Ratio (z) = 0.06141 0.00967
#
# Static dielectric constant tensor:
#      x y z
#    x 1.934880 0.000000 0.011060 
#    y 0.000000 1.990820 0.000000 
#    z 0.011060 0.000000 1.946530 
# 
# From -- ./inp_files/171958.got.cif
#   From: 2010.05.17/outbox.cif.g08.bks.cpg/sg15_86_cif.got.tgz:171958.got - 2010.06.03 18:47:42.
