data_PCOD9280212
_publ_section_title
;
Structure prediction by ZEFSAII (Michael W. Deem and Ramdas Pophale) SiO2 
 PCOD9280212
Probable space group: C 2/C
;
_chemical_formula_sum "Si O2"
_cell_formula_units_Z 64
_cell_length_a 18.387808
_cell_length_b 24.892673
_cell_length_c 10.103510
_cell_angle_alpha 90.000000
_cell_angle_beta 142.424934
_cell_angle_gamma 90.000000
_cell_volume 2820.079919
_symmetry_space_group_name_H-M "C 2/C"
_symmetry_group_IT_number 15
_symmetry_cell_setting 'monoclinic'
loop_
_space_group_symop_operation_xyz
x,y,z
-x,y,1/2-z
-x,-y,-z
x,-y,1/2+z
1/2+x,1/2+y,z
1/2-x,1/2+y,1/2-z
1/2-x,1/2-y,-z
1/2+x,1/2-y,1/2+z
loop_
_atom_site_type_symbol
_atom_site_label
_atom_site_fract_x
_atom_site_fract_y
_atom_site_fract_z
Si Si1 0.824699 0.479622 0.648906
Si Si2 0.039892 0.389229 0.539083
Si Si3 0.661980 0.407798 0.239102
Si Si4 0.402479 0.376153 0.872811
Si Si5 0.633326 0.292247 0.476610
Si Si6 0.831127 0.327344 0.548258
Si Si7 0.329253 0.092623 0.548025
Si Si8 0.111170 0.009480 0.007138
O O1 0.938854 0.447718 0.864312
O O2 0.731392 0.433697 0.465465
O O3 0.846743 0.527865 0.579594
O O4 0.742843 0.505095 0.643320
O O5 0.069293 0.349775 0.704796
O O6 0.130064 0.388550 0.541024
O O7 0.915139 0.384052 0.284430
O O8 0.774193 0.369864 0.362770
O O9 0.543715 0.371000 0.056141
O O10 0.603165 0.463073 0.103217
O O11 0.308553 0.392659 0.624354
O O12 0.349226 0.322286 0.860290
O O13 0.390541 0.428864 0.949413
O O14 0.500000 0.309879 0.250000
O O15 0.723476 0.313854 0.495940
O O16 0.638431 0.228161 0.478927
O O17 0.000000 0.001962 0.750000
#
# Coordination Sequence:
#
# PCOD9280212 Si02
#       8
#     8   8   8   8   8   8   8   8
#     4  11  19  34  54  86 126 167 209 236 295 372
#     4  10  21  37  56  83 124 167 209 249 300 360
#     4  11  21  36  60  90 130 162 197 258 312 369
#     4  12  19  36  60  95 120 162 206 245 313 376
#     4  11  21  39  67  92 113 153 210 270 309 358
#     4  10  22  40  64  92 118 154 215 270 305 357
#     4  11  21  34  56  87 125 171 206 241 300 380
#     4  12  21  32  55  94 134 162 194 247 311 376
#
# _framework density 22.694392000000001
#
# number of rings (size 3 to 8) (size 9 to 14) (size 15 to 20)
#    0.000    1.000    6.250    2.625    0.000    0.000 
#    2.250    0.000    5.500    3.750    0.000    0.000 
#    0.000    0.000    0.000    0.000    0.000    0.000 
#
# Total GULP energy -178219.907306 kJ/mol
# GULP energy per Si atom -5569.372103 kJ/mol
# Density = 2.264274 g / cm^3
# Si number density = 22.694392 Si / 1000 Ang^3
#
#
#
# Elastic Constant Matrix: (Units=GPa)
#
#
# Indices 1 2 3 4 5 6 
#
# 1 21.3593 10.7922 -2.9491 0.0000 -0.0988 0.0000
# 2 10.7922 105.1574 41.5447 0.0000 -11.2622 0.0000
# 3 -2.9491 41.5447 151.8090 0.0000 1.6229 0.0000
# 4 0.0000 0.0000 0.0000 30.8917 0.0000 4.7082
# 5 -0.0988 -11.2622 1.6229 0.0000 18.7770 0.0000
# 6 0.0000 0.0000 0.0000 4.7082 0.0000 25.8580
#
#
#
# Elastic Compliance Matrix: (Units=1/GPa)
#
#
# Indices 1 2 3 4 5 6 
#
# 1 0.050614 -0.006764 0.002877 0.000000 -0.004039 0.000000
# 2 -0.006764 0.012467 -0.003626 0.000000 0.007755 0.000000
# 3 0.002877 -0.003626 0.007666 0.000000 -0.002822 0.000000
# 4 0.000000 0.000000 0.000000 0.033295 0.000000 -0.006062
# 5 -0.004039 0.007755 -0.002822 0.000000 0.058131 0.000000
# 6 0.000000 0.000000 0.000000 -0.006062 0.000000 0.039777
#
#
# Mechanical properties :
#
#
# Convention : Reuss Voigt Hill
#
# Bulk Modulus (GPa) = 17.94631 41.90015 29.92323
# Shear Modulus (GPa) = 21.22712 30.36788 25.79750
#
# Velocity S-wave (km/s) = 3.06166 3.66200 3.37521
# Velocity P-wave (km/s) = 4.51922 6.03185 5.32947
#
# Compressibility (1/GPa) = 0.05572176
#
# Stress axis : x y z
#
# Youngs Moduli (GPa) = 19.75732 80.21287 130.45280
#
# Poissons Ratio (x) = 0.54255 -0.37537
# Poissons Ratio (y) = 0.13364 0.47303
# Poissons Ratio (z) = -0.05685 0.29085
#
# Static dielectric constant tensor:
#      x y z
#    x 2.080380 0.000000 0.029050 
#    y 0.000000 1.905580 0.000000 
#    z 0.029050 0.000000 1.889820 
# 
# From -- ./inp_files/120340.got.cif
#   From: 2010.05.17/outbox.cif.g08.bks.cpg/sg15_61_cif.got.tgz:120340.got - 2010.06.03 18:47:42.
