data_PCOD9280178
_publ_section_title
;
Structure prediction by ZEFSAII (Michael W. Deem and Ramdas Pophale) SiO2 
 PCOD9280178
Probable space group: C 2/C
;
_chemical_formula_sum "Si O2"
_cell_formula_units_Z 44
_cell_length_a 16.617587
_cell_length_b 22.813412
_cell_length_c 5.390592
_cell_angle_alpha 90.000000
_cell_angle_beta 79.525716
_cell_angle_gamma 90.000000
_cell_volume 2009.541002
_symmetry_space_group_name_H-M "C 2/C"
_symmetry_group_IT_number 15
_symmetry_cell_setting 'monoclinic'
loop_
_space_group_symop_operation_xyz
x,y,z
-x,y,1/2-z
-x,-y,-z
x,-y,1/2+z
1/2+x,1/2+y,z
1/2-x,1/2+y,1/2-z
1/2-x,1/2-y,-z
1/2+x,1/2-y,1/2+z
loop_
_atom_site_type_symbol
_atom_site_label
_atom_site_fract_x
_atom_site_fract_y
_atom_site_fract_z
Si Si1 0.177698 0.752463 0.836596
Si Si2 0.824067 0.461519 0.453847
Si Si3 0.766106 0.847441 0.102038
Si Si4 0.412106 0.650088 0.918579
Si Si5 0.500000 0.960936 0.250000
Si Si6 0.093065 0.974912 0.910433
O O1 0.201676 0.800857 0.617350
O O2 0.183791 0.686389 0.740101
O O3 0.250000 0.750000 0.000000
O O4 0.096351 0.783005 0.983837
O O5 0.818487 0.492752 0.726079
O O6 0.758627 0.410098 0.483098
O O7 0.912477 0.431291 0.341175
O O8 0.836399 0.855298 0.269766
O O9 0.500000 0.641136 0.750000
O O10 0.406067 0.595333 0.111994
O O11 0.500000 0.000000 0.500000
O O12 0.130923 0.006788 0.652659
O O13 0.000000 0.000000 0.000000
#
# Coordination Sequence:
#
# PCOD9280178 Si02
#       6
#     8   8   8   8   4   8
#     4   9  22  44  64  84 122 169 223 279 333 383
#     4  10  22  39  67 101 131 169 214 269 343 410
#     4  10  23  42  65  92 130 173 221 276 332 405
#     4  11  23  39  64  91 129 178 226 277 329 392
#     4   8  16  36  60  90 128 158 194 256 326 396
#     4  10  21  37  55  86 130 173 217 269 325 380
#
# _framework density 21.895546
#
# number of rings (size 3 to 8) (size 9 to 14) (size 15 to 20)
#    0.000    2.182    1.818    0.000    7.636    2.182 
#    0.000    5.455    2.000    0.000    0.000    0.000 
#    0.000    0.000    0.000    0.000    0.000    0.000 
#
# Total GULP energy -122550.486127 kJ/mol
# GULP energy per Si atom -5570.476642 kJ/mol
# Density = 2.184571 g / cm^3
# Si number density = 21.895546 Si / 1000 Ang^3
#
#
#
# Elastic Constant Matrix: (Units=GPa)
#
#
# Indices 1 2 3 4 5 6 
#
# 1 62.8317 30.9724 -8.7077 0.0000 -9.2888 0.0000
# 2 30.9724 102.5888 8.9382 0.0000 -0.7254 0.0000
# 3 -8.7077 8.9382 80.2355 0.0000 6.7170 0.0000
# 4 0.0000 0.0000 0.0000 31.9932 0.0000 -0.5235
# 5 -9.2888 -0.7254 6.7170 0.0000 25.5854 0.0000
# 6 0.0000 0.0000 0.0000 -0.5235 0.0000 38.6429
#
#
#
# Elastic Compliance Matrix: (Units=1/GPa)
#
#
# Indices 1 2 3 4 5 6 
#
# 1 0.020316 -0.006292 0.002355 0.000000 0.006579 0.000000
# 2 -0.006292 0.011800 -0.001875 0.000000 -0.001457 0.000000
# 3 0.002355 -0.001875 0.013150 0.000000 -0.002650 0.000000
# 4 0.000000 0.000000 0.000000 0.031264 0.000000 0.000424
# 5 0.006579 -0.001457 -0.002650 0.000000 0.042128 0.000000
# 6 0.000000 0.000000 0.000000 0.000424 0.000000 0.025884
#
#
# Mechanical properties :
#
#
# Convention : Reuss Voigt Hill
#
# Bulk Modulus (GPa) = 29.72562 34.22909 31.97736
# Shear Modulus (GPa) = 29.87202 33.54118 31.70660
#
# Velocity S-wave (km/s) = 3.69765 3.91816 3.80950
# Velocity P-wave (km/s) = 5.64231 6.01133 5.82974
#
# Compressibility (1/GPa) = 0.03364101
#
# Stress axis : x y z
#
# Youngs Moduli (GPa) = 49.22160 84.74261 76.04736
#
# Poissons Ratio (x) = 0.53323 -0.17909
# Poissons Ratio (y) = 0.30972 0.14262
# Poissons Ratio (z) = -0.11592 0.15893
#
# Static dielectric constant tensor:
#      x y z
#    x 11.982070 0.000000 3.197340 
#    y 0.000000 1.818330 0.000000 
#    z 3.197340 0.000000 3.001810 
# 
# From -- ./inp_files/10293.got.cif
#   From: 2010.05.17/outbox.cif.g08.bks.cpg/sg15_6_cif.got.tgz:10293.got - 2010.06.03 18:47:42.
