data_PCOD9280450
_publ_section_title
;
Structure prediction by ZEFSAII (Michael W. Deem and Ramdas Pophale) SiO2 
 PCOD9280450
Probable space group: C 2/C
;
_chemical_formula_sum "Si O2"
_cell_formula_units_Z 44
_cell_length_a 6.437810
_cell_length_b 26.639650
_cell_length_c 14.228516
_cell_angle_alpha 90.000000
_cell_angle_beta 120.605199
_cell_angle_gamma 90.000000
_cell_volume 2100.274100
_symmetry_space_group_name_H-M "C 2/C"
_symmetry_group_IT_number 15
_symmetry_cell_setting 'monoclinic'
loop_
_space_group_symop_operation_xyz
x,y,z
-x,y,1/2-z
-x,-y,-z
x,-y,1/2+z
1/2+x,1/2+y,z
1/2-x,1/2+y,1/2-z
1/2-x,1/2-y,-z
1/2+x,1/2-y,1/2+z
loop_
_atom_site_type_symbol
_atom_site_label
_atom_site_fract_x
_atom_site_fract_y
_atom_site_fract_z
Si Si1 0.545957 0.801067 0.369505
Si Si2 0.873683 0.104751 0.430355
Si Si3 0.500000 0.572448 0.250000
Si Si4 0.888685 0.216804 0.457178
Si Si5 0.508630 0.981149 0.638345
Si Si6 0.588778 0.091508 0.878872
O O1 0.500000 0.806086 0.250000
O O2 0.396829 0.753333 0.369683
O O3 0.486070 0.856337 0.398697
O O4 0.829199 0.791174 0.452326
O O5 0.928602 0.100466 0.330448
O O6 0.780477 0.161374 0.422812
O O7 0.692739 0.061498 0.423500
O O8 0.123437 0.097155 0.543938
O O9 0.730452 0.539026 0.328519
O O10 0.750000 0.250000 0.500000
O O11 0.500000 0.986017 0.750000
O O12 0.472237 0.037345 0.591562
O O13 0.500000 0.090200 0.750000
#
# Coordination Sequence:
#
# PCOD9280450 Si02
#       6
#     8   8   4   8   8   8
#     4   9  20  39  59  85 115 152 194 245 298 346
#     4  10  21  37  60  87 119 156 197 249 298 359
#     4  10  22  38  56  90 120 156 196 242 304 354
#     4  10  22  39  58  84 117 153 198 243 293 356
#     4   9  19  37  58  87 120 155 199 241 300 358
#     4   9  18  37  62  84 118 156 195 249 299 352
#
# _framework density 20.949648
#
# number of rings (size 3 to 8) (size 9 to 14) (size 15 to 20)
#    0.000    2.545    0.000    0.545    1.273    5.818 
#    6.545   12.727    0.000    0.000    0.000    0.000 
#    0.000    0.000    0.000    0.000    0.000    0.000 
#
# Total GULP energy -122620.583774 kJ/mol
# GULP energy per Si atom -5573.662899 kJ/mol
# Density = 2.090197 g / cm^3
# Si number density = 20.949648 Si / 1000 Ang^3
#
#
#
# Elastic Constant Matrix: (Units=GPa)
#
#
# Indices 1 2 3 4 5 6 
#
# 1 50.9913 48.1107 14.4047 0.0000 -7.0257 0.0000
# 2 48.1107 215.0925 47.2411 0.0000 0.7289 0.0000
# 3 14.4047 47.2411 70.4844 0.0000 5.6839 0.0000
# 4 0.0000 0.0000 0.0000 43.3049 0.0000 6.0590
# 5 -7.0257 0.7289 5.6839 0.0000 18.8652 0.0000
# 6 0.0000 0.0000 0.0000 6.0590 0.0000 3.4909
#
#
#
# Elastic Compliance Matrix: (Units=1/GPa)
#
#
# Indices 1 2 3 4 5 6 
#
# 1 0.027110 -0.005497 -0.002755 0.000000 0.011139 0.000000
# 2 -0.005497 0.006581 -0.003179 0.000000 -0.001343 0.000000
# 3 -0.002755 -0.003179 0.017377 0.000000 -0.006138 0.000000
# 4 0.000000 0.000000 0.000000 0.030498 0.000000 -0.052934
# 5 0.011139 -0.001343 -0.006138 0.000000 0.059057 0.000000
# 6 0.000000 0.000000 0.000000 -0.052934 0.000000 0.378332
#
#
# Mechanical properties :
#
#
# Convention : Reuss Voigt Hill
#
# Bulk Modulus (GPa) = 35.45260 61.78681 48.61971
# Shear Modulus (GPa) = 9.07079 28.25298 18.66189
#
# Velocity S-wave (km/s) = 2.08308 3.67633 2.98786
# Velocity P-wave (km/s) = 4.76918 6.89765 5.92970
#
# Compressibility (1/GPa) = 0.02820667
#
# Stress axis : x y z
#
# Youngs Moduli (GPa) = 36.88655 151.94166 57.54894
#
# Poissons Ratio (x) = 0.83516 0.15853
# Poissons Ratio (y) = 0.20275 0.18298
# Poissons Ratio (z) = 0.10161 0.48310
#
# Static dielectric constant tensor:
#      x y z
#    x 1.100630 0.000000 0.319080 
#    y 0.000000 1.843770 0.000000 
#    z 0.319080 0.000000 1.572530 
# 
# From -- ./inp_files/129983.got.cif
#   From: 2010.05.17/outbox.cif.g08.bks.cpg/sg15_65_cif.got.tgz:129983.got - 2010.06.03 18:47:42.
