data_PCOD9280826
_publ_section_title
;
Structure prediction by ZEFSAII (Michael W. Deem and Ramdas Pophale) SiO2 
 PCOD9280826
Probable space group: C 2/C
;
_chemical_formula_sum "Si O2"
_cell_formula_units_Z 64
_cell_length_a 22.681223
_cell_length_b 9.794764
_cell_length_c 16.599122
_cell_angle_alpha 90.000000
_cell_angle_beta 139.370071
_cell_angle_gamma 90.000000
_cell_volume 2401.266931
_symmetry_space_group_name_H-M "C 2/C"
_symmetry_group_IT_number 15
_symmetry_cell_setting 'monoclinic'
loop_
_space_group_symop_operation_xyz
x,y,z
-x,y,1/2-z
-x,-y,-z
x,-y,1/2+z
1/2+x,1/2+y,z
1/2-x,1/2+y,1/2-z
1/2-x,1/2-y,-z
1/2+x,1/2-y,1/2+z
loop_
_atom_site_type_symbol
_atom_site_label
_atom_site_fract_x
_atom_site_fract_y
_atom_site_fract_z
Si Si1 0.393005 0.962547 0.820090
Si Si2 0.822597 0.746671 0.466189
Si Si3 0.569676 0.576132 0.130658
Si Si4 0.610093 0.800726 0.290539
Si Si5 0.897524 0.236568 0.616715
Si Si6 0.175913 0.963272 0.591606
Si Si7 0.654365 0.310383 0.266389
Si Si8 0.343312 0.940293 0.429127
O O1 0.420382 0.048736 0.770139
O O2 0.405218 0.051007 0.913757
O O3 0.283390 0.953606 0.700406
O O4 0.411383 0.801192 0.843342
O O5 0.717445 0.779130 0.379905
O O6 0.886232 0.733221 0.611425
O O7 0.823509 0.598241 0.427322
O O8 0.850107 0.876792 0.440887
O O9 0.554897 0.700265 0.174862
O O10 0.605597 0.454819 0.223983
O O11 0.500000 0.500000 0.000000
O O12 0.644360 0.610118 0.140334
O O13 0.866572 0.111504 0.528790
O O14 0.836822 0.244838 0.633864
O O15 0.889463 0.369478 0.552741
O O16 0.000000 0.218840 0.750000
O O17 0.749744 0.353258 0.324668
#
# Coordination Sequence:
#
# PCOD9280826 Si02
#       8
#     8   8   8   8   8   8   8   8
#     4  11  23  39  69  99 126 163 225 283 325 381
#     4  10  21  37  64  94 124 162 220 276 320 377
#     4  12  24  41  64  95 135 177 217 271 336 398
#     4  10  21  38  60  93 130 164 212 272 330 382
#     4  12  27  45  65  98 140 181 220 271 336 402
#     4  11  22  40  65  95 130 168 222 274 328 388
#     4  12  24  43  69  99 131 175 231 268 330 405
#     4  12  23  41  69  99 133 171 226 281 326 396
#
# _framework density 26.652597
#
# number of rings (size 3 to 8) (size 9 to 14) (size 15 to 20)
#    0.000    0.750    3.750    4.125    5.250    0.000 
#    0.000    6.875    0.000    0.000    0.000    0.000 
#    0.000    0.000    0.000    0.000    0.000    0.000 
#
# Total GULP energy -179239.867170 kJ/mol
# GULP energy per Si atom -5601.245849 kJ/mol
# Density = 2.659193 g / cm^3
# Si number density = 26.652597 Si / 1000 Ang^3
#
#
#
# Elastic Constant Matrix: (Units=GPa)
#
#
# Indices 1 2 3 4 5 6 
#
# 1 88.0041 27.4900 24.5136 0.0000 -21.1011 0.0000
# 2 27.4900 148.9106 3.9605 0.0000 -17.2077 0.0000
# 3 24.5136 3.9605 67.7447 0.0000 -34.4421 0.0000
# 4 0.0000 0.0000 0.0000 50.3147 0.0000 -11.6841
# 5 -21.1011 -17.2077 -34.4421 0.0000 38.5974 0.0000
# 6 0.0000 0.0000 0.0000 -11.6841 0.0000 26.4175
#
#
#
# Elastic Compliance Matrix: (Units=1/GPa)
#
#
# Indices 1 2 3 4 5 6 
#
# 1 0.013748 -0.001980 -0.002721 0.000000 0.004205 0.000000
# 2 -0.001980 0.007546 0.002627 0.000000 0.004626 0.000000
# 3 -0.002721 0.002627 0.028246 0.000000 0.024889 0.000000
# 4 0.000000 0.000000 0.000000 0.022150 0.000000 0.009797
# 5 0.004205 0.004626 0.024889 0.000000 0.052479 0.000000
# 6 0.000000 0.000000 0.000000 0.009797 0.000000 0.042186
#
#
# Mechanical properties :
#
#
# Convention : Reuss Voigt Hill
#
# Bulk Modulus (GPa) = 22.03004 46.28752 34.15878
# Shear Modulus (GPa) = 26.93495 39.64562 33.29028
#
# Velocity S-wave (km/s) = 3.18243 3.86099 3.53802
# Velocity P-wave (km/s) = 4.66770 6.10582 5.43454
#
# Compressibility (1/GPa) = 0.04539256
#
# Stress axis : x y z
#
# Youngs Moduli (GPa) = 72.73938 132.52775 35.40329
#
# Poissons Ratio (x) = 0.26235 0.09633
# Poissons Ratio (y) = 0.14400 -0.09301
# Poissons Ratio (z) = 0.19791 -0.34817
#
# Static dielectric constant tensor:
#      x y z
#    x 2.195960 0.000000 0.069290 
#    y 0.000000 2.069030 0.000000 
#    z 0.069290 0.000000 2.109410 
# 
# From -- ./inp_files/224639.got.cif
#   From: 2010.05.17/outbox.cif.g08.bks.cpg/sg15_113_cif.got.tgz:224639.got - 2010.06.03 18:47:42.
