data_PCOD9280594
_publ_section_title
;
Structure prediction by ZEFSAII (Michael W. Deem and Ramdas Pophale) SiO2 
 PCOD9280594
Probable space group: C 2/C
;
_chemical_formula_sum "Si O2"
_cell_formula_units_Z 44
_cell_length_a 20.381750
_cell_length_b 11.600031
_cell_length_c 12.789691
_cell_angle_alpha 90.000000
_cell_angle_beta 140.790078
_cell_angle_gamma 90.000000
_cell_volume 1911.569459
_symmetry_space_group_name_H-M "C 2/C"
_symmetry_group_IT_number 15
_symmetry_cell_setting 'monoclinic'
loop_
_space_group_symop_operation_xyz
x,y,z
-x,y,1/2-z
-x,-y,-z
x,-y,1/2+z
1/2+x,1/2+y,z
1/2-x,1/2+y,1/2-z
1/2-x,1/2-y,-z
1/2+x,1/2-y,1/2+z
loop_
_atom_site_type_symbol
_atom_site_label
_atom_site_fract_x
_atom_site_fract_y
_atom_site_fract_z
Si Si1 0.428979 0.420638 0.485528
Si Si2 0.777297 0.038291 0.446038
Si Si3 0.500000 0.746313 0.250000
Si Si4 0.600529 0.941737 0.076813
Si Si5 0.738828 0.753324 0.197476
Si Si6 0.810126 0.401737 0.979313
O O1 0.500000 0.500000 0.500000
O O2 0.380694 0.505165 0.513025
O O3 0.486580 0.325942 0.627340
O O4 0.332084 0.349222 0.312398
O O5 0.759514 0.173663 0.403564
O O6 0.687239 0.976818 0.267760
O O7 0.768099 0.972357 0.544263
O O8 0.393937 0.818233 0.136224
O O9 0.626954 0.810548 0.081785
O O10 0.500000 0.000000 0.000000
O O11 0.620253 0.003896 0.991919
O O12 0.759244 0.671435 0.322999
#
# Coordination Sequence:
#
# PCOD9280594 Si02
#       6
#     8   8   4   8   8   8
#     4  10  23  40  62  92 125 164 210 256 310 375
#     4  10  22  38  60  91 124 162 206 253 309 372
#     4  10  22  40  66  90 122 166 208 258 310 368
#     4  10  21  37  61  92 124 162 208 255 306 370
#     4   9  22  41  63  91 131 165 202 265 318 359
#     4  10  21  38  62  91 121 162 212 251 306 380
#
# _framework density 23.017734999999998
#
# number of rings (size 3 to 8) (size 9 to 14) (size 15 to 20)
#    0.000    2.182    0.000    1.091    0.000   20.364 
#    0.000    0.000    0.000    4.364    0.000    0.000 
#    0.000    0.000    0.000    0.000    0.000    0.000 
#
# Total GULP energy -122789.770914 kJ/mol
# GULP energy per Si atom -5581.353223 kJ/mol
# Density = 2.296535 g / cm^3
# Si number density = 23.017735 Si / 1000 Ang^3
#
#
#
# Elastic Constant Matrix: (Units=GPa)
#
#
# Indices 1 2 3 4 5 6 
#
# 1 190.6127 78.9013 25.6310 0.0000 16.3530 0.0000
# 2 78.9013 142.0332 38.1945 0.0000 -1.1804 0.0000
# 3 25.6310 38.1945 50.7186 0.0000 1.4461 0.0000
# 4 0.0000 0.0000 0.0000 29.4353 0.0000 -6.5748
# 5 16.3530 -1.1804 1.4461 0.0000 18.6424 0.0000
# 6 0.0000 0.0000 0.0000 -6.5748 0.0000 49.1741
#
#
#
# Elastic Compliance Matrix: (Units=1/GPa)
#
#
# Indices 1 2 3 4 5 6 
#
# 1 0.007630 -0.004153 -0.000531 0.000000 -0.006915 0.000000
# 2 -0.004153 0.011111 -0.006406 0.000000 0.004844 0.000000
# 3 -0.000531 -0.006406 0.024863 0.000000 -0.001868 0.000000
# 4 0.000000 0.000000 0.000000 0.035019 0.000000 0.004682
# 5 -0.006915 0.004844 -0.001868 0.000000 0.060159 0.000000
# 6 0.000000 0.000000 0.000000 0.004682 0.000000 0.020962
#
#
# Mechanical properties :
#
#
# Convention : Reuss Voigt Hill
#
# Bulk Modulus (GPa) = 46.68069 74.31314 60.49691
# Shear Modulus (GPa) = 26.44594 35.49286 30.96940
#
# Velocity S-wave (km/s) = 3.39328 3.93106 3.67203
# Velocity P-wave (km/s) = 5.97300 7.27734 6.65719
#
# Compressibility (1/GPa) = 0.02142214
#
# Stress axis : x y z
#
# Youngs Moduli (GPa) = 131.06046 90.00243 40.22084
#
# Poissons Ratio (x) = 0.37380 0.02136
# Poissons Ratio (y) = 0.54433 0.25767
# Poissons Ratio (z) = 0.06960 0.57659
#
# Static dielectric constant tensor:
#      x y z
#    x 2.030610 0.000000 0.082060 
#    y 0.000000 1.869730 0.000000 
#    z 0.082060 0.000000 1.930600 
# 
# From -- ./inp_files/167752.got.cif
#   From: 2010.05.17/outbox.cif.g08.bks.cpg/sg15_84_cif.got.tgz:167752.got - 2010.06.03 18:47:42.
