data_PCOD9280428
_publ_section_title
;
Structure prediction by ZEFSAII (Michael W. Deem and Ramdas Pophale) SiO2 
 PCOD9280428
Probable space group: C 2/C
;
_chemical_formula_sum "Si O2"
_cell_formula_units_Z 64
_cell_length_a 17.990635
_cell_length_b 9.164832
_cell_length_c 30.885617
_cell_angle_alpha 90.000000
_cell_angle_beta 40.313073
_cell_angle_gamma 90.000000
_cell_volume 3294.634554
_symmetry_space_group_name_H-M "C 2/C"
_symmetry_group_IT_number 15
_symmetry_cell_setting 'monoclinic'
loop_
_space_group_symop_operation_xyz
x,y,z
-x,y,1/2-z
-x,-y,-z
x,-y,1/2+z
1/2+x,1/2+y,z
1/2-x,1/2+y,1/2-z
1/2-x,1/2-y,-z
1/2+x,1/2-y,1/2+z
loop_
_atom_site_type_symbol
_atom_site_label
_atom_site_fract_x
_atom_site_fract_y
_atom_site_fract_z
Si Si1 0.440179 0.143723 0.711191
Si Si2 0.835661 0.781922 0.001231
Si Si3 0.533658 0.072695 0.941022
Si Si4 0.860940 0.852638 0.229346
Si Si5 0.835060 0.578036 0.188893
Si Si6 0.717023 0.671397 0.351972
Si Si7 0.316450 0.896843 0.353552
Si Si8 0.529361 0.421082 0.865802
O O1 0.387901 0.015882 0.704973
O O2 0.562173 0.089976 0.675658
O O3 0.355738 0.172912 0.789745
O O4 0.464685 0.282244 0.669291
O O5 0.922874 0.648805 0.969555
O O6 0.921035 0.908379 0.945873
O O7 0.750000 0.750000 0.000000
O O8 0.768357 0.813941 0.075691
O O9 0.581870 0.949586 0.887894
O O10 0.629869 0.199611 0.904359
O O11 0.500000 0.000000 0.000000
O O12 0.821777 0.744330 0.208336
O O13 0.780200 0.992593 0.271404
O O14 0.832414 0.751735 0.283008
O O15 0.973909 0.931888 0.161524
O O16 0.755616 0.549314 0.368358
O O17 0.643265 0.593754 0.345877
#
# Coordination Sequence:
#
# PCOD9280428 Si02
#       8
#     8   8   8   8   8   8   8   8
#     4  11  20  40  64  93 121 173 219 255 331 392
#     4  11  22  43  64  89 128 174 214 263 321 397
#     4  10  23  38  59  91 131 165 210 264 324 382
#     4  11  19  33  63  91 123 154 216 267 314 369
#     4  11  19  37  60  89 126 167 204 267 322 379
#     4  10  21  37  59  98 123 162 214 275 312 379
#     4  11  23  36  68  92 126 165 220 269 320 385
#     4  11  21  38  66  95 125 169 221 259 325 394
#
# _framework density 19.425523999999999
#
# number of rings (size 3 to 8) (size 9 to 14) (size 15 to 20)
#    0.000    1.250    7.500    0.000    0.000    7.000 
#    0.000    1.250    5.500    3.000    0.000    0.000 
#    0.000    0.000    0.000    0.000    0.000    0.000 
#
# Total GULP energy -178335.976831 kJ/mol
# GULP energy per Si atom -5572.999276 kJ/mol
# Density = 1.938131 g / cm^3
# Si number density = 19.425524 Si / 1000 Ang^3
#
#
#
# Elastic Constant Matrix: (Units=GPa)
#
#
# Indices 1 2 3 4 5 6 
#
# 1 60.3012 4.9696 7.8725 0.0000 4.1883 0.0002
# 2 4.9696 60.4045 14.1977 0.0000 3.5900 0.0003
# 3 7.8725 14.1977 132.8457 0.0000 15.3911 0.0000
# 4 0.0000 0.0000 0.0000 35.6167 0.0000 14.0832
# 5 4.1883 3.5900 15.3911 0.0000 28.0865 0.0000
# 6 0.0002 0.0003 0.0000 14.0832 0.0000 23.0324
#
#
#
# Elastic Compliance Matrix: (Units=1/GPa)
#
#
# Indices 1 2 3 4 5 6 
#
# 1 0.016901 -0.001118 -0.000648 0.000000 -0.002022 0.000000
# 2 -0.001118 0.017097 -0.001631 0.000000 -0.001125 0.000000
# 3 -0.000648 -0.001631 0.008227 0.000000 -0.004203 0.000000
# 4 0.000000 0.000000 0.000000 0.037030 0.000000 -0.022642
# 5 -0.002022 -0.001125 -0.004203 0.000000 0.038353 0.000000
# 6 0.000000 0.000000 0.000000 -0.022642 0.000000 0.057261
#
#
# Mechanical properties :
#
#
# Convention : Reuss Voigt Hill
#
# Bulk Modulus (GPa) = 28.22295 34.18122 31.20209
# Shear Modulus (GPa) = 25.84347 32.44790 29.14568
#
# Velocity S-wave (km/s) = 3.65140 4.09146 3.87768
# Velocity P-wave (km/s) = 5.68659 6.32094 6.01214
#
# Compressibility (1/GPa) = 0.03543215
#
# Stress axis : x y z
#
# Youngs Moduli (GPa) = 59.16953 58.48922 121.54826
#
# Poissons Ratio (x) = 0.06539 0.07873
# Poissons Ratio (y) = 0.06615 0.19820
# Poissons Ratio (z) = 0.03833 0.09538
#
# Static dielectric constant tensor:
#      x y z
#    x 1.691560 0.000000 -0.007490 
#    y 0.000000 1.829230 0.000000 
#    z -0.007490 0.000000 1.757100 
# 
# From -- ./inp_files/315686.got.cif
#   From: 2010.05.17/outbox.cif.g08.bks.cpg/sg15_158_cif.got.tgz:315686.got - 2010.06.03 18:47:42.
