data_PCOD9280277
_publ_section_title
;
Structure prediction by ZEFSAII (Michael W. Deem and Ramdas Pophale) SiO2 
 PCOD9280277
Probable space group: C 2/C
;
_chemical_formula_sum "Si O2"
_cell_formula_units_Z 28
_cell_length_a 15.079155
_cell_length_b 18.491676
_cell_length_c 5.129578
_cell_angle_alpha 90.000000
_cell_angle_beta 60.312639
_cell_angle_gamma 90.000000
_cell_volume 1242.582209
_symmetry_space_group_name_H-M "C 2/C"
_symmetry_group_IT_number 15
_symmetry_cell_setting 'monoclinic'
loop_
_space_group_symop_operation_xyz
x,y,z
-x,y,1/2-z
-x,-y,-z
x,-y,1/2+z
1/2+x,1/2+y,z
1/2-x,1/2+y,1/2-z
1/2-x,1/2-y,-z
1/2+x,1/2-y,1/2+z
loop_
_atom_site_type_symbol
_atom_site_label
_atom_site_fract_x
_atom_site_fract_y
_atom_site_fract_z
Si Si1 0.321521 0.674985 0.201177
Si Si2 0.612772 0.470923 0.697307
Si Si3 0.174554 0.670413 0.917580
Si Si4 0.500000 0.947845 0.750000
O O1 0.392088 0.606078 0.152116
O O2 0.251442 0.670319 0.561020
O O3 0.377208 0.750737 0.061216
O O4 0.243684 0.669141 0.074755
O O5 0.500000 0.489048 0.750000
O O6 0.666147 0.477844 0.335354
O O7 0.094999 0.606175 0.064066
O O8 0.500000 0.000000 0.500000
#
# Coordination Sequence:
#
# PCOD9280277 Si02
#       4
#     8   8   8   4
#     4  10  21  42  64  89 125 167 214 260 316 381
#     4  10  21  37  57  92 125 155 203 255 318 381
#     4  10  23  42  62  92 123 164 220 261 312 386
#     4  12  26  44  64  98 134 170 218 272 332 390
#
# _framework density 22.533719999999999
#
# number of rings (size 3 to 8) (size 9 to 14) (size 15 to 20)
#    0.000    1.714    0.000    3.429    0.000    6.857 
#   25.714    0.000    0.000    0.000    0.000    0.000 
#    0.000    0.000    0.000    0.000    0.000    0.000 
#
# Total GULP energy -77978.356867 kJ/mol
# GULP energy per Si atom -5569.882633 kJ/mol
# Density = 2.248243 g / cm^3
# Si number density = 22.533720 Si / 1000 Ang^3
#
#
#
# Elastic Constant Matrix: (Units=GPa)
#
#
# Indices 1 2 3 4 5 6 
#
# 1 83.6094 85.2047 83.6798 0.0000 35.2043 0.0000
# 2 85.2047 221.7850 76.2333 0.0000 13.2438 0.0000
# 3 83.6798 76.2333 170.9704 0.0000 46.2563 0.0000
# 4 0.0000 0.0000 0.0000 31.6192 0.0000 -14.4540
# 5 35.2043 13.2438 46.2563 0.0000 58.7696 0.0000
# 6 0.0000 0.0000 0.0000 -14.4540 0.0000 44.3579
#
#
#
# Elastic Compliance Matrix: (Units=1/GPa)
#
#
# Indices 1 2 3 4 5 6 
#
# 1 0.038613 -0.010324 -0.011012 0.000000 -0.012136 0.000000
# 2 -0.010324 0.008119 0.000324 0.000000 0.004100 0.000000
# 3 -0.011012 0.000324 0.011853 0.000000 -0.002806 0.000000
# 4 0.000000 0.000000 0.000000 0.037162 0.000000 0.012109
# 5 -0.012136 0.004100 -0.002806 0.000000 0.025570 0.000000
# 6 0.000000 0.000000 0.000000 0.012109 0.000000 0.026490
#
#
# Mechanical properties :
#
#
# Convention : Reuss Voigt Hill
#
# Bulk Modulus (GPa) = 60.38437 107.40004 83.89220
# Shear Modulus (GPa) = 25.59480 42.36582 33.98031
#
# Velocity S-wave (km/s) = 3.37389 4.34072 3.88748
# Velocity P-wave (km/s) = 6.48328 8.53744 7.58027
#
# Compressibility (1/GPa) = 0.01656058
#
# Stress axis : x y z
#
# Youngs Moduli (GPa) = 25.89814 123.16485 84.36369
#
# Poissons Ratio (x) = 1.27161 0.92898
# Poissons Ratio (y) = 0.26738 -0.02731
# Poissons Ratio (z) = 0.28518 -0.03986
#
# Static dielectric constant tensor:
#      x y z
#    x 1.719890 0.000000 0.048650 
#    y 0.000000 1.938370 0.000000 
#    z 0.048650 0.000000 1.928790 
# 
# From -- ./inp_files/6659.got.cif
#   From: 2010.05.17/outbox.cif.g08.bks.cpg/sg15_4_cif.got.tgz:6659.got - 2010.06.03 18:47:42.
