data_PCOD9280077
_publ_section_title
;
Structure prediction by ZEFSAII (Michael W. Deem and Ramdas Pophale) SiO2 
 PCOD9280077
Probable space group: C 2/C
;
_chemical_formula_sum "Si O2"
_cell_formula_units_Z 44
_cell_length_a 12.945093
_cell_length_b 6.306388
_cell_length_c 27.342349
_cell_angle_alpha 90.000000
_cell_angle_beta 122.016586
_cell_angle_gamma 90.000000
_cell_volume 1892.620693
_symmetry_space_group_name_H-M "C 2/C"
_symmetry_group_IT_number 15
_symmetry_cell_setting 'monoclinic'
loop_
_space_group_symop_operation_xyz
x,y,z
-x,y,1/2-z
-x,-y,-z
x,-y,1/2+z
1/2+x,1/2+y,z
1/2-x,1/2+y,1/2-z
1/2-x,1/2-y,-z
1/2+x,1/2-y,1/2+z
loop_
_atom_site_type_symbol
_atom_site_label
_atom_site_fract_x
_atom_site_fract_y
_atom_site_fract_z
Si Si1 0.419308 0.292787 0.463986
Si Si2 0.169014 0.843202 0.162936
Si Si3 0.500000 0.696728 0.750000
Si Si4 0.453603 0.037925 0.151062
Si Si5 0.848443 0.445854 0.522318
Si Si6 0.612813 0.668866 0.219221
O O1 0.500000 0.500000 0.500000
O O2 0.330823 0.334185 0.395450
O O3 0.527081 0.152059 0.467701
O O4 0.346658 0.160523 0.487987
O O5 0.287079 0.788938 0.224385
O O6 0.067740 0.672241 0.156514
O O7 0.140016 0.083491 0.171935
O O8 0.578176 0.827413 0.808866
O O9 0.412634 0.543506 0.757642
O O10 0.365662 0.003955 0.083749
O O11 0.497740 0.817489 0.184104
O O12 0.750000 0.250000 0.500000
#
# Coordination Sequence:
#
# PCOD9280077 Si02
#       6
#     8   8   4   8   8   8
#     4  10  22  43  62  96 129 174 228 278 333 418
#     4  10  21  36  65  87 123 163 214 259 332 389
#     4  10  24  36  58  90 126 158 206 260 324 382
#     4  10  21  41  59  91 131 161 211 269 320 397
#     4  10  23  42  66  94 132 178 222 280 341 403
#     4  11  20  39  59  91 121 166 204 269 325 388
#
# _framework density 23.248187000000001
#
# number of rings (size 3 to 8) (size 9 to 14) (size 15 to 20)
#    0.000    1.818    1.818    1.636    2.545    0.727 
#    6.545    0.000    0.000    0.000    0.000    0.000 
#    0.000    0.000    0.000    0.000    0.000    0.000 
#
# Total GULP energy -122663.902992 kJ/mol
# GULP energy per Si atom -5575.631954 kJ/mol
# Density = 2.319527 g / cm^3
# Si number density = 23.248187 Si / 1000 Ang^3
#
#
#
# Elastic Constant Matrix: (Units=GPa)
#
#
# Indices 1 2 3 4 5 6 
#
# 1 83.4890 27.2623 37.5846 0.0000 -20.6089 0.0000
# 2 27.2623 112.5878 68.9288 0.0000 -16.9283 0.0000
# 3 37.5846 68.9288 174.8358 0.0000 -22.7665 0.0000
# 4 0.0000 0.0000 0.0000 36.0309 0.0000 -9.2379
# 5 -20.6089 -16.9283 -22.7665 0.0000 29.8749 0.0000
# 6 0.0000 0.0000 0.0000 -9.2379 0.0000 50.3159
#
#
#
# Elastic Compliance Matrix: (Units=1/GPa)
#
#
# Indices 1 2 3 4 5 6 
#
# 1 0.015267 -0.001434 -0.001611 0.000000 0.008492 0.000000
# 2 -0.001434 0.012174 -0.004132 0.000000 0.002760 0.000000
# 3 -0.001611 -0.004132 0.008044 0.000000 0.002677 0.000000
# 4 0.000000 0.000000 0.000000 0.029125 0.000000 0.005347
# 5 0.008492 0.002760 0.002677 0.000000 0.042935 0.000000
# 6 0.000000 0.000000 0.000000 0.005347 0.000000 0.020856
#
#
# Mechanical properties :
#
#
# Convention : Reuss Voigt Hill
#
# Bulk Modulus (GPa) = 47.32302 70.94044 59.13173
# Shear Modulus (GPa) = 33.37834 39.05345 36.21589
#
# Velocity S-wave (km/s) = 3.79323 4.10304 3.95117
# Velocity P-wave (km/s) = 6.29162 7.28198 6.80484
#
# Compressibility (1/GPa) = 0.02113137
#
# Stress axis : x y z
#
# Youngs Moduli (GPa) = 65.49993 82.14373 124.32341
#
# Poissons Ratio (x) = 0.11778 0.20028
# Poissons Ratio (y) = 0.09391 0.51368
# Poissons Ratio (z) = 0.10552 0.33940
#
# Static dielectric constant tensor:
#      x y z
#    x 2.080810 0.000000 -0.062020 
#    y 0.000000 1.953820 0.000000 
#    z -0.062020 0.000000 1.866590 
# 
# From -- ./inp_files/271944.got.cif
#   From: 2010.05.17/outbox.cif.g08.bks.cpg/sg15_136_cif.got.tgz:271944.got - 2010.06.03 18:47:42.
