data_PCOD9280752
_publ_section_title
;
Structure prediction by ZEFSAII (Michael W. Deem and Ramdas Pophale) SiO2 
 PCOD9280752
Probable space group: C 2/C
;
_chemical_formula_sum "Si O2"
_cell_formula_units_Z 48
_cell_length_a 10.810796
_cell_length_b 22.765563
_cell_length_c 15.422664
_cell_angle_alpha 90.000000
_cell_angle_beta 34.919185
_cell_angle_gamma 90.000000
_cell_volume 2172.754281
_symmetry_space_group_name_H-M "C 2/C"
_symmetry_group_IT_number 15
_symmetry_cell_setting 'monoclinic'
loop_
_space_group_symop_operation_xyz
x,y,z
-x,y,1/2-z
-x,-y,-z
x,-y,1/2+z
1/2+x,1/2+y,z
1/2-x,1/2+y,1/2-z
1/2-x,1/2-y,-z
1/2+x,1/2-y,1/2+z
loop_
_atom_site_type_symbol
_atom_site_label
_atom_site_fract_x
_atom_site_fract_y
_atom_site_fract_z
Si Si1 0.000000 0.392069 0.250000
Si Si2 0.051905 0.711307 0.073105
Si Si3 0.199286 0.398204 0.567553
Si Si4 0.500000 0.403812 0.750000
Si Si5 0.596041 0.691532 0.424894
Si Si6 0.383944 0.521221 0.478765
Si Si7 0.235582 0.680486 0.496136
O O1 0.197062 0.435407 0.119485
O O2 0.015094 0.346623 0.160949
O O3 0.130235 0.644137 0.028304
O O4 0.834675 0.708790 0.254526
O O5 0.250000 0.750000 0.000000
O O6 0.000732 0.747621 0.016788
O O7 0.372394 0.358778 0.521083
O O8 0.283156 0.461907 0.496304
O O9 0.000000 0.405123 0.750000
O O10 0.488982 0.445660 0.671563
O O11 0.700202 0.358133 0.623983
O O12 0.438331 0.666279 0.443860
O O13 0.500000 0.500000 0.500000
O O14 0.250000 0.750000 0.500000
#
# Coordination Sequence:
#
# PCOD9280752 Si02
#       7
#     4   8   8   4   8   8   8
#     4  10  23  42  66  92 127 170 228 280 326 408
#     4   9  19  36  60  95 128 159 216 279 324 402
#     4   9  17  36  64  89 122 170 204 264 338 389
#     4  10  25  44  64 100 133 160 232 286 316 410
#     4  10  21  37  63  91 129 169 216 263 342 402
#     4  11  22  45  70  92 133 182 223 277 345 402
#     4  11  24  42  64  90 131 172 219 278 336 393
#
# _framework density 22.091774000000001
#
# number of rings (size 3 to 8) (size 9 to 14) (size 15 to 20)
#    0.000    2.000    0.833    4.000    4.667    0.000 
#    6.000    3.333    0.000    0.000    0.000    0.000 
#    0.000    0.000    0.000    0.000    0.000    0.000 
#
# Total GULP energy -133722.970664 kJ/mol
# GULP energy per Si atom -5571.790444 kJ/mol
# Density = 2.204149 g / cm^3
# Si number density = 22.091774 Si / 1000 Ang^3
#
#
#
# Elastic Constant Matrix: (Units=GPa)
#
#
# Indices 1 2 3 4 5 6 
#
# 1 63.9316 29.3573 12.3159 -0.0008 7.1693 0.0001
# 2 29.3573 215.4067 62.2221 0.0009 18.6971 -0.0008
# 3 12.3159 62.2221 82.3533 -0.0069 22.0257 -0.0030
# 4 -0.0008 0.0009 -0.0069 42.6621 0.0030 6.1867
# 5 7.1693 18.6971 22.0257 0.0030 24.1130 0.0006
# 6 0.0001 -0.0008 -0.0030 6.1867 0.0006 34.2491
#
#
#
# Elastic Compliance Matrix: (Units=1/GPa)
#
#
# Indices 1 2 3 4 5 6 
#
# 1 0.016956 -0.001978 -0.000137 0.000001 -0.003383 0.000000
# 2 -0.001978 0.006177 -0.004298 -0.000001 -0.000276 0.000000
# 3 -0.000137 -0.004298 0.019198 0.000004 -0.014164 0.000001
# 4 0.000001 -0.000001 0.000004 0.024071 -0.000006 -0.004348
# 5 -0.003383 -0.000276 -0.014164 -0.000006 0.055629 -0.000001
# 6 0.000000 0.000000 0.000001 -0.004348 -0.000001 0.029983
#
#
# Mechanical properties :
#
#
# Convention : Reuss Voigt Hill
#
# Bulk Modulus (GPa) = 33.88993 63.27581 48.58287
# Shear Modulus (GPa) = 28.62478 37.39126 33.00802
#
# Velocity S-wave (km/s) = 3.60352 4.11851 3.86959
# Velocity P-wave (km/s) = 5.71731 7.16384 6.48106
#
# Compressibility (1/GPa) = 0.02950729
#
# Stress axis : x y z
#
# Youngs Moduli (GPa) = 58.97768 161.88287 52.08758
#
# Poissons Ratio (x) = 0.32016 0.00712
# Poissons Ratio (y) = 0.11664 0.22385
# Poissons Ratio (z) = 0.00806 0.69571
#
# Static dielectric constant tensor:
#      x y z
#    x 1.926480 0.000000 0.025940 
#    y 0.000000 1.843140 0.000000 
#    z 0.025940 0.000000 1.858370 
# 
# From -- ./inp_files/32564.got.cif
#   From: 2010.05.17/outbox.cif.g08.bks.cpg/sg15_17_cif.got.tgz:32564.got - 2010.06.03 18:47:42.
