data_PCOD9280825
_publ_section_title
;
Structure prediction by ZEFSAII (Michael W. Deem and Ramdas Pophale) SiO2 
 PCOD9280825
Probable space group: C 2/C
;
_chemical_formula_sum "Si O2"
_cell_formula_units_Z 56
_cell_length_a 23.660401
_cell_length_b 13.387859
_cell_length_c 8.294195
_cell_angle_alpha 90.000000
_cell_angle_beta 121.907238
_cell_angle_gamma 90.000000
_cell_volume 2230.316644
_symmetry_space_group_name_H-M "C 2/C"
_symmetry_group_IT_number 15
_symmetry_cell_setting 'monoclinic'
loop_
_space_group_symop_operation_xyz
x,y,z
-x,y,1/2-z
-x,-y,-z
x,-y,1/2+z
1/2+x,1/2+y,z
1/2-x,1/2+y,1/2-z
1/2-x,1/2-y,-z
1/2+x,1/2-y,1/2+z
loop_
_atom_site_type_symbol
_atom_site_label
_atom_site_fract_x
_atom_site_fract_y
_atom_site_fract_z
Si Si1 0.973759 0.168453 0.887805
Si Si2 0.143845 0.305098 0.827080
Si Si3 0.573039 0.153400 0.811277
Si Si4 0.930320 0.446197 0.550436
Si Si5 0.820028 0.167764 0.035902
Si Si6 0.064068 0.046166 0.234237
Si Si7 0.735422 0.703196 0.207023
O O1 0.920629 0.253258 0.851934
O O2 0.000000 0.194486 0.750000
O O3 0.933380 0.064126 0.832530
O O4 0.041654 0.135889 0.081379
O O5 0.121843 0.389129 0.917522
O O6 0.202130 0.339739 0.796172
O O7 0.177026 0.220583 0.992247
O O8 0.500000 0.196546 0.750000
O O9 0.567195 0.099856 0.625213
O O10 0.632593 0.233123 0.890557
O O11 0.584377 0.063776 0.956400
O O12 0.000000 0.433032 0.750000
O O13 0.869045 0.076919 0.077727
O O14 0.788642 0.151800 0.165341
O O15 0.764128 0.191097 0.820242
O O16 0.000000 0.040234 0.250000
#
# Coordination Sequence:
#
# PCOD9280825 Si02
#       7
#     8   8   8   8   8   8   8
#     4  10  21  37  64  94 124 149 196 255 311 378
#     4  11  22  42  63  88 126 170 207 256 309 359
#     4  11  24  41  65  98 125 159 207 264 326 384
#     4  11  24  40  65  97 126 158 208 263 325 384
#     4  11  22  42  62  87 130 167 204 258 309 364
#     4  10  21  38  62  98 121 152 196 251 321 378
#     4  10  24  40  60  89 123 170 220 247 286 377
#
# _framework density 25.108540999999999
#
# number of rings (size 3 to 8) (size 9 to 14) (size 15 to 20)
#    0.000    1.429    1.429    4.286    6.000    0.000 
#    0.000    8.571    0.000    0.000    0.000    0.000 
#    0.000    0.000    0.000    0.000    0.000    0.000 
#
# Total GULP energy -156676.513179 kJ/mol
# GULP energy per Si atom -5595.589756 kJ/mol
# Density = 2.505139 g / cm^3
# Si number density = 25.108541 Si / 1000 Ang^3
#
#
#
# Elastic Constant Matrix: (Units=GPa)
#
#
# Indices 1 2 3 4 5 6 
#
# 1 161.4720 28.2862 13.0297 0.0000 -26.5976 0.0000
# 2 28.2862 74.1146 8.9552 0.0000 4.0853 0.0000
# 3 13.0297 8.9552 88.9397 0.0000 1.4924 0.0000
# 4 0.0000 0.0000 0.0000 19.8419 0.0000 0.9238
# 5 -26.5976 4.0853 1.4924 0.0000 44.5557 0.0000
# 6 0.0000 0.0000 0.0000 0.9238 0.0000 29.3005
#
#
#
# Elastic Compliance Matrix: (Units=1/GPa)
#
#
# Indices 1 2 3 4 5 6 
#
# 1 0.007599 -0.003060 -0.000886 0.000000 0.004846 0.000000
# 2 -0.003060 0.014956 -0.001005 0.000000 -0.003164 0.000000
# 3 -0.000886 -0.001005 0.011488 0.000000 -0.000822 0.000000
# 4 0.000000 0.000000 0.000000 0.050472 0.000000 -0.001591
# 5 0.004846 -0.003164 -0.000822 0.000000 0.025655 0.000000
# 6 0.000000 0.000000 0.000000 -0.001591 0.000000 0.034179
#
#
# Mechanical properties :
#
#
# Convention : Reuss Voigt Hill
#
# Bulk Modulus (GPa) = 41.42268 47.22982 44.32625
# Shear Modulus (GPa) = 30.80727 37.02332 33.91530
#
# Velocity S-wave (km/s) = 3.50660 3.84413 3.67924
# Velocity P-wave (km/s) = 5.73832 6.20920 5.97840
#
# Compressibility (1/GPa) = 0.02414136
#
# Stress axis : x y z
#
# Youngs Moduli (GPa) = 131.59728 66.86112 87.04452
#
# Poissons Ratio (x) = 0.20461 0.07716
# Poissons Ratio (y) = 0.40272 0.08744
# Poissons Ratio (z) = 0.11665 0.06716
#
# Static dielectric constant tensor:
#      x y z
#    x 1.953040 0.000000 -0.021570 
#    y 0.000000 1.988240 0.000000 
#    z -0.021570 0.000000 2.074890 
# 
# From -- ./inp_files/61974.got.cif
#   From: 2010.05.17/outbox.cif.g08.bks.cpg/sg15_31_cif.got.tgz:61974.got - 2010.06.03 18:47:42.
