data_PCOD9280553
_publ_section_title
;
Structure prediction by ZEFSAII (Michael W. Deem and Ramdas Pophale) SiO2 
 PCOD9280553
Probable space group: C 2/C
;
_chemical_formula_sum "Si O2"
_cell_formula_units_Z 56
_cell_length_a 15.290319
_cell_length_b 12.027800
_cell_length_c 27.726321
_cell_angle_alpha 90.000000
_cell_angle_beta 27.847605
_cell_angle_gamma 90.000000
_cell_volume 2381.906982
_symmetry_space_group_name_H-M "C 2/C"
_symmetry_group_IT_number 15
_symmetry_cell_setting 'monoclinic'
loop_
_space_group_symop_operation_xyz
x,y,z
-x,y,1/2-z
-x,-y,-z
x,-y,1/2+z
1/2+x,1/2+y,z
1/2-x,1/2+y,1/2-z
1/2-x,1/2-y,-z
1/2+x,1/2-y,1/2+z
loop_
_atom_site_type_symbol
_atom_site_label
_atom_site_fract_x
_atom_site_fract_y
_atom_site_fract_z
Si Si1 0.530152 0.241798 0.147028
Si Si2 0.685184 0.938804 0.687202
Si Si3 0.612160 0.529333 0.823159
Si Si4 0.987107 0.788619 0.992570
Si Si5 0.764643 0.870312 0.017442
Si Si6 0.885300 0.647774 0.493996
Si Si7 0.958831 0.569275 0.598509
O O1 0.391071 0.165552 0.244230
O O2 0.445445 0.345851 0.160416
O O3 0.611571 0.163994 0.065072
O O4 0.686943 0.298046 0.104477
O O5 0.500000 0.978947 0.750000
O O6 0.783988 0.020308 0.676420
O O7 0.855305 0.882582 0.574788
O O8 0.435650 0.445312 0.912750
O O9 0.763805 0.509231 0.706631
O O10 0.051508 0.686848 0.924459
O O11 0.818134 0.848707 0.046952
O O12 0.959259 0.721285 0.055112
O O13 0.750000 0.750000 0.000000
O O14 0.566979 0.918314 0.096944
O O15 0.913166 0.519507 0.492142
#
# Coordination Sequence:
#
# PCOD9280553 Si02
#       7
#     8   8   8   8   8   8   8
#     4  11  22  39  60  87 124 159 199 261 308 368
#     4  11  21  39  61  88 121 162 209 254 307 377
#     4  11  22  39  63  91 119 165 209 249 318 372
#     4  10  21  37  61  87 122 165 204 256 313 370
#     4   9  21  39  60  87 123 166 203 247 311 379
#     4  11  22  37  59  90 122 155 207 258 310 360
#     4  11  20  37  65  88 123 163 206 258 313 375
#
# _framework density 23.510573999999998
#
# number of rings (size 3 to 8) (size 9 to 14) (size 15 to 20)
#    0.000    1.429    5.714    0.429    0.000    0.000 
#    2.571    1.429    0.000    3.429    0.000    0.000 
#    0.000    0.000    0.000    0.000    0.000    0.000 
#
# Total GULP energy -156215.034110 kJ/mol
# GULP energy per Si atom -5579.108361 kJ/mol
# Density = 2.345706 g / cm^3
# Si number density = 23.510574 Si / 1000 Ang^3
#
#
#
# Elastic Constant Matrix: (Units=GPa)
#
#
# Indices 1 2 3 4 5 6 
#
# 1 77.5209 9.0411 7.8091 0.0010 -18.8673 -0.0002
# 2 9.0411 77.5951 17.7909 0.0004 -11.6600 -0.0002
# 3 7.8091 17.7909 46.3858 -0.0001 -12.4395 -0.0010
# 4 0.0010 0.0004 -0.0001 29.0352 -0.0012 -4.9353
# 5 -18.8673 -11.6600 -12.4395 -0.0012 24.5036 0.0003
# 6 -0.0002 -0.0002 -0.0010 -4.9353 0.0003 46.5588
#
#
#
# Elastic Compliance Matrix: (Units=1/GPa)
#
#
# Indices 1 2 3 4 5 6 
#
# 1 0.015896 -0.000136 0.000742 0.000000 0.012551 0.000000
# 2 -0.000136 0.014593 -0.004330 0.000000 0.004641 0.000000
# 3 0.000742 -0.004330 0.026271 0.000001 0.011848 0.000001
# 4 0.000000 0.000000 0.000001 0.035073 0.000002 0.003718
# 5 0.012551 0.004641 0.011848 0.000002 0.058698 0.000000
# 6 0.000000 0.000000 0.000001 0.003718 0.000000 0.021872
#
#
# Mechanical properties :
#
#
# Convention : Reuss Voigt Hill
#
# Bulk Modulus (GPa) = 20.27854 30.08710 25.18282
# Shear Modulus (GPa) = 25.47268 31.14357 28.30812
#
# Velocity S-wave (km/s) = 3.29516 3.64354 3.47372
# Velocity P-wave (km/s) = 4.80848 5.52499 5.17914
#
# Compressibility (1/GPa) = 0.04931321
#
# Stress axis : x y z
#
# Youngs Moduli (GPa) = 62.91024 68.52412 38.06430
#
# Poissons Ratio (x) = 0.00933 -0.02825
# Poissons Ratio (y) = 0.00857 0.16480
# Poissons Ratio (z) = -0.04669 0.29668
#
# Static dielectric constant tensor:
#      x y z
#    x 1.935410 0.000000 -0.016790 
#    y 0.000000 1.940050 0.000000 
#    z -0.016790 0.000000 1.969280 
# 
# From -- ./inp_files/181910.got.cif
#   From: 2010.05.17/outbox.cif.g08.bks.cpg/sg15_91_cif.got.tgz:181910.got - 2010.06.03 18:47:42.
