data_PCOD9280638
_publ_section_title
;
Structure prediction by ZEFSAII (Michael W. Deem and Ramdas Pophale) SiO2 
 PCOD9280638
Probable space group: C 2/C
;
_chemical_formula_sum "Si O2"
_cell_formula_units_Z 40
_cell_length_a 19.510065
_cell_length_b 6.550422
_cell_length_c 13.691693
_cell_angle_alpha 90.000000
_cell_angle_beta 81.790133
_cell_angle_gamma 90.000000
_cell_volume 1731.854429
_symmetry_space_group_name_H-M "C 2/C"
_symmetry_group_IT_number 15
_symmetry_cell_setting 'monoclinic'
loop_
_space_group_symop_operation_xyz
x,y,z
-x,y,1/2-z
-x,-y,-z
x,-y,1/2+z
1/2+x,1/2+y,z
1/2-x,1/2+y,1/2-z
1/2-x,1/2-y,-z
1/2+x,1/2-y,1/2+z
loop_
_atom_site_type_symbol
_atom_site_label
_atom_site_fract_x
_atom_site_fract_y
_atom_site_fract_z
Si Si1 0.525560 0.785464 0.849840
Si Si2 0.802983 0.216965 0.576458
Si Si3 0.370455 0.109736 0.617880
Si Si4 0.153512 0.003128 0.263007
Si Si5 0.884648 0.083332 0.943841
O O1 0.500000 0.864578 0.750000
O O2 0.587152 0.628504 0.812304
O O3 0.463334 0.652746 0.907852
O O4 0.557464 0.983179 0.896756
O O5 0.750000 0.250000 0.500000
O O6 0.815047 0.430689 0.626465
O O7 0.788350 0.063914 0.669744
O O8 0.870297 0.125516 0.505468
O O9 0.363563 0.261582 0.710696
O O10 0.359076 0.241826 0.522729
O O11 0.156445 0.942846 0.149374
#
# Coordination Sequence:
#
# PCOD9280638 Si02
#       5
#     8   8   8   8   8
#     4   9  19  35  59  91 126 155 195 244 299 366
#     4  10  23  42  57  85 120 156 206 252 296 354
#     4  10  21  37  62  84 123 159 196 249 304 355
#     4   9  21  39  57  89 124 153 199 249 297 363
#     4  10  21  38  60  91 121 157 202 245 300 358
#
# _framework density 23.096629
#
# number of rings (size 3 to 8) (size 9 to 14) (size 15 to 20)
#    0.000    2.400    0.000    0.600    0.000   19.200 
#    7.200    0.000    0.000    0.000    0.000    0.000 
#    0.000    0.000    0.000    0.000    0.000    0.000 
#
# Total GULP energy -111491.776501 kJ/mol
# GULP energy per Si atom -5574.588825 kJ/mol
# Density = 2.304406 g / cm^3
# Si number density = 23.096629 Si / 1000 Ang^3
#
#
#
# Elastic Constant Matrix: (Units=GPa)
#
#
# Indices 1 2 3 4 5 6 
#
# 1 52.7870 31.7813 31.9499 0.0000 11.9066 0.0000
# 2 31.7813 136.6528 46.3707 0.0000 10.9259 0.0000
# 3 31.9499 46.3707 141.3164 0.0000 24.3663 0.0000
# 4 0.0000 0.0000 0.0000 34.8131 0.0000 11.0159
# 5 11.9066 10.9259 24.3663 0.0000 37.7639 0.0000
# 6 0.0000 0.0000 0.0000 11.0159 0.0000 8.9309
#
#
#
# Elastic Compliance Matrix: (Units=1/GPa)
#
#
# Indices 1 2 3 4 5 6 
#
# 1 0.024513 -0.004195 -0.003423 0.000000 -0.004306 0.000000
# 2 -0.004195 0.008970 -0.001998 0.000000 0.000016 0.000000
# 3 -0.003423 -0.001998 0.009249 0.000000 -0.004310 0.000000
# 4 0.000000 0.000000 0.000000 0.047113 0.000000 -0.058112
# 5 -0.004306 0.000016 -0.004310 0.000000 0.030614 0.000000
# 6 0.000000 0.000000 0.000000 -0.058112 0.000000 0.183649
#
#
# Mechanical properties :
#
#
# Convention : Reuss Voigt Hill
#
# Bulk Modulus (GPa) = 42.55275 61.21777 51.88526
# Shear Modulus (GPa) = 15.09778 31.01187 23.05483
#
# Velocity S-wave (km/s) = 2.55949 3.66826 3.16284
# Velocity P-wave (km/s) = 5.21521 6.67114 5.98760
#
# Compressibility (1/GPa) = 0.02350024
#
# Stress axis : x y z
#
# Youngs Moduli (GPa) = 40.79471 111.48197 108.12012
#
# Poissons Ratio (x) = 0.46768 0.37010
# Poissons Ratio (y) = 0.17114 0.21600
# Poissons Ratio (z) = 0.13964 0.22271
#
# Static dielectric constant tensor:
#      x y z
#    x 1.955750 0.000000 0.026830 
#    y 0.000000 1.834870 0.000000 
#    z 0.026830 0.000000 1.906640 
# 
# From -- ./inp_files/170485.got.cif
#   From: 2010.05.17/outbox.cif.g08.bks.cpg/sg15_86_cif.got.tgz:170485.got - 2010.06.03 18:47:42.
