data_PCOD9280334
_publ_section_title
;
Structure prediction by ZEFSAII (Michael W. Deem and Ramdas Pophale) SiO2 
 PCOD9280334
Probable space group: C 2/C
;
_chemical_formula_sum "Si O2"
_cell_formula_units_Z 56
_cell_length_a 11.162283
_cell_length_b 9.412169
_cell_length_c 29.532124
_cell_angle_alpha 90.000000
_cell_angle_beta 121.960374
_cell_angle_gamma 90.000000
_cell_volume 2632.361036
_symmetry_space_group_name_H-M "C 2/C"
_symmetry_group_IT_number 15
_symmetry_cell_setting 'monoclinic'
loop_
_space_group_symop_operation_xyz
x,y,z
-x,y,1/2-z
-x,-y,-z
x,-y,1/2+z
1/2+x,1/2+y,z
1/2-x,1/2+y,1/2-z
1/2-x,1/2-y,-z
1/2+x,1/2-y,1/2+z
loop_
_atom_site_type_symbol
_atom_site_label
_atom_site_fract_x
_atom_site_fract_y
_atom_site_fract_z
Si Si1 0.941537 0.632251 0.517859
Si Si2 0.716391 0.046375 0.290099
Si Si3 0.978998 0.947508 0.682510
Si Si4 0.129119 0.848401 0.499323
Si Si5 0.000000 0.303232 0.250000
Si Si6 0.664524 0.452725 0.088773
Si Si7 0.000000 0.797576 0.250000
Si Si8 0.341636 0.285455 0.579787
O O1 0.774540 0.638670 0.474883
O O2 0.942820 0.678447 0.571373
O O3 0.000000 0.500000 0.500000
O O4 0.030875 0.755014 0.512429
O O5 0.852696 0.052027 0.286532
O O6 0.626835 0.189120 0.265078
O O7 0.620316 0.911320 0.257698
O O8 0.770196 0.023228 0.352921
O O9 0.936854 0.808326 0.702161
O O10 0.919250 0.909932 0.621892
O O11 0.945520 0.096017 0.699726
O O12 0.250000 0.750000 0.500000
O O13 0.005029 0.920979 0.443949
O O14 0.193396 0.958277 0.548420
O O15 0.747447 0.307252 0.095405
#
# Coordination Sequence:
#
# PCOD9280334 Si02
#       8
#     8   8   8   8   4   8   4   8
#     4  10  21  37  58  89 130 165 209 265 314 383
#     4  11  22  41  65  91 123 167 212 267 332 386
#     4  11  22  41  65  90 125 166 210 270 331 387
#     4  10  21  37  58  89 130 166 210 264 311 385
#     4  10  22  42  64  88 126 164 208 272 326 388
#     4  10  21  38  60  89 122 169 216 254 324 388
#     4  10  26  42  60  98 126 156 226 278 326 400
#     4  10  21  38  60  89 122 171 212 258 324 388
#
# _framework density 21.273676999999999
#
# number of rings (size 3 to 8) (size 9 to 14) (size 15 to 20)
#    0.000    1.714    1.429    2.571    0.000    6.857 
#    0.000    0.000    0.000    0.000    0.000    0.000 
#    0.000    0.000    0.000    0.000    0.000    0.000 
#
# Total GULP energy -155926.413239 kJ/mol
# GULP energy per Si atom -5568.800473 kJ/mol
# Density = 2.122526 g / cm^3
# Si number density = 21.273677 Si / 1000 Ang^3
#
#
#
# Elastic Constant Matrix: (Units=GPa)
#
#
# Indices 1 2 3 4 5 6 
#
# 1 65.7538 14.7586 -12.8398 0.0000 -6.1176 0.0000
# 2 14.7586 106.8390 11.9611 0.0000 -8.5561 0.0000
# 3 -12.8398 11.9611 53.3117 0.0000 -10.8065 0.0000
# 4 0.0000 0.0000 0.0000 53.3817 0.0000 0.5574
# 5 -6.1176 -8.5561 -10.8065 0.0000 22.8377 0.0000
# 6 0.0000 0.0000 0.0000 0.5574 0.0000 40.1837
#
#
#
# Elastic Compliance Matrix: (Units=1/GPa)
#
#
# Indices 1 2 3 4 5 6 
#
# 1 0.017616 -0.002591 0.006176 0.000000 0.006671 0.000000
# 2 -0.002591 0.010153 -0.002513 0.000000 0.001921 0.000000
# 3 0.006176 -0.002513 0.023176 0.000000 0.011680 0.000000
# 4 0.000000 0.000000 0.000000 0.018736 0.000000 -0.000260
# 5 0.006671 0.001921 0.011680 0.000000 0.051821 0.000000
# 6 0.000000 0.000000 0.000000 -0.000260 0.000000 0.024889
#
#
# Mechanical properties :
#
#
# Convention : Reuss Voigt Hill
#
# Bulk Modulus (GPa) = 18.83529 28.18492 23.51010
# Shear Modulus (GPa) = 30.87516 37.41561 34.14539
#
# Velocity S-wave (km/s) = 3.81377 4.19833 4.01066
# Velocity P-wave (km/s) = 5.31659 6.06455 5.70284
#
# Compressibility (1/GPa) = 0.05309183
#
# Stress axis : x y z
#
# Youngs Moduli (GPa) = 56.76511 98.49423 43.14730
#
# Poissons Ratio (x) = 0.25517 -0.26649
# Poissons Ratio (y) = 0.14706 0.10841
# Poissons Ratio (z) = -0.35060 0.24747
#
# Static dielectric constant tensor:
#      x y z
#    x 1.757340 0.000000 -0.021890 
#    y 0.000000 1.867740 0.000000 
#    z -0.021890 0.000000 1.976460 
# 
# From -- ./inp_files/310396.got.cif
#   From: 2010.05.17/outbox.cif.g08.bks.cpg/sg15_156_cif.got.tgz:310396.got - 2010.06.03 18:47:42.
