data_PCOD9280943
_publ_section_title
;
Structure prediction by ZEFSAII (Michael W. Deem and Ramdas Pophale) SiO2 
 PCOD9280943
Probable space group: C 2/C
;
_chemical_formula_sum "Si O2"
_cell_formula_units_Z 48
_cell_length_a 30.088504
_cell_length_b 11.162968
_cell_length_c 14.716844
_cell_angle_alpha 90.000000
_cell_angle_beta 31.150146
_cell_angle_gamma 90.000000
_cell_volume 2556.953245
_symmetry_space_group_name_H-M "C 2/C"
_symmetry_group_IT_number 15
_symmetry_cell_setting 'monoclinic'
loop_
_space_group_symop_operation_xyz
x,y,z
-x,y,1/2-z
-x,-y,-z
x,-y,1/2+z
1/2+x,1/2+y,z
1/2-x,1/2+y,1/2-z
1/2-x,1/2-y,-z
1/2+x,1/2-y,1/2+z
loop_
_atom_site_type_symbol
_atom_site_label
_atom_site_fract_x
_atom_site_fract_y
_atom_site_fract_z
Si Si1 0.587074 0.548094 0.801692
Si Si2 0.488762 0.007238 0.410732
Si Si3 0.624440 0.105145 0.541090
Si Si4 0.679531 0.528832 0.307296
Si Si5 0.026535 0.781761 0.099939
Si Si6 0.901615 0.885235 0.890725
O O1 0.658331 0.547102 0.754090
O O2 0.555184 0.672463 0.815310
O O3 0.611042 0.455000 0.680974
O O4 0.500000 0.500000 0.000000
O O5 0.459568 0.142332 0.440813
O O6 0.500000 0.000000 0.500000
O O7 0.420762 0.920899 0.477539
O O8 0.575570 0.975149 0.202628
O O9 0.611968 0.243474 0.590136
O O10 0.724082 0.074549 0.361660
O O11 0.610609 0.638470 0.431316
O O12 0.659192 0.445019 0.428284
O O13 0.000000 0.802552 0.250000
O O14 0.000000 0.906119 0.750000
#
# Coordination Sequence:
#
# PCOD9280943 Si02
#       6
#     8   8   8   8   8   8
#     4  10  21  37  67  95 122 163 219 254 309 370
#     4  11  26  44  65  87 132 177 207 249 337 380
#     4  11  27  43  61  97 133 164 210 267 317 380
#     4  11  25  40  66 100 124 163 216 269 308 367
#     4  11  20  42  66  91 128 170 208 260 311 383
#     4  12  21  42  68  90 129 173 210 259 317 376
#
# _framework density 18.772341000000001
#
# number of rings (size 3 to 8) (size 9 to 14) (size 15 to 20)
#    0.000    1.000    8.333    0.000    9.333    2.000 
#    0.000    0.833    0.000    0.000    0.000    0.000 
#    0.000    0.000    0.000    0.000    0.000    0.000 
#
# Total GULP energy -133968.858387 kJ/mol
# GULP energy per Si atom -5582.035766 kJ/mol
# Density = 1.872961 g / cm^3
# Si number density = 18.772341 Si / 1000 Ang^3
#
#
#
# Elastic Constant Matrix: (Units=GPa)
#
#
# Indices 1 2 3 4 5 6 
#
# 1 98.3689 -3.7577 56.2838 0.0000 18.5660 0.0000
# 2 -3.7577 64.3259 8.7237 0.0000 2.6488 0.0000
# 3 56.2838 8.7237 90.5226 0.0000 -7.0189 0.0000
# 4 0.0000 0.0000 0.0000 18.0908 0.0000 2.3455
# 5 18.5660 2.6488 -7.0189 0.0000 33.7366 0.0000
# 6 0.0000 0.0000 0.0000 2.3455 0.0000 10.0136
#
#
#
# Elastic Compliance Matrix: (Units=1/GPa)
#
#
# Indices 1 2 3 4 5 6 
#
# 1 0.022004 0.004000 -0.015276 0.000000 -0.015601 0.000000
# 2 0.004000 0.016562 -0.004426 0.000000 -0.004422 0.000000
# 3 -0.015276 -0.004426 0.022006 0.000000 0.013333 0.000000
# 4 0.000000 0.000000 0.000000 0.057008 0.000000 -0.013353
# 5 -0.015601 -0.004422 0.013333 0.000000 0.041348 0.000000
# 6 0.000000 0.000000 0.000000 -0.013353 0.000000 0.102992
#
#
# Mechanical properties :
#
#
# Convention : Reuss Voigt Hill
#
# Bulk Modulus (GPa) = 34.28634 41.74632 38.01633
# Shear Modulus (GPa) = 16.49911 25.16605 20.83258
#
# Velocity S-wave (km/s) = 2.96785 3.66538 3.33490
# Velocity P-wave (km/s) = 5.48162 6.34034 5.92655
#
# Compressibility (1/GPa) = 0.02916613
#
# Stress axis : x y z
#
# Youngs Moduli (GPa) = 45.44653 60.37996 45.44301
#
# Poissons Ratio (x) = -0.24149 0.69420
# Poissons Ratio (y) = -0.18177 0.20112
# Poissons Ratio (z) = 0.69426 0.26723
#
# Static dielectric constant tensor:
#      x y z
#    x 1.666590 0.000000 0.015230 
#    y 0.000000 1.655830 0.000000 
#    z 0.015230 0.000000 1.611940 
# 
# From -- ./inp_files/152025.got.cif
#   From: 2010.05.17/outbox.cif.g08.bks.cpg/sg15_77_cif.got.tgz:152025.got - 2010.06.03 18:47:42.
