data_PCOD9280805
_publ_section_title
;
Structure prediction by ZEFSAII (Michael W. Deem and Ramdas Pophale) SiO2 
 PCOD9280805
Probable space group: C 2/C
;
_chemical_formula_sum "Si O2"
_cell_formula_units_Z 40
_cell_length_a 11.824681
_cell_length_b 10.183167
_cell_length_c 22.015609
_cell_angle_alpha 90.000000
_cell_angle_beta 141.972643
_cell_angle_gamma 90.000000
_cell_volume 1633.090540
_symmetry_space_group_name_H-M "C 2/C"
_symmetry_group_IT_number 15
_symmetry_cell_setting 'monoclinic'
loop_
_space_group_symop_operation_xyz
x,y,z
-x,y,1/2-z
-x,-y,-z
x,-y,1/2+z
1/2+x,1/2+y,z
1/2-x,1/2+y,1/2-z
1/2-x,1/2-y,-z
1/2+x,1/2-y,1/2+z
loop_
_atom_site_type_symbol
_atom_site_label
_atom_site_fract_x
_atom_site_fract_y
_atom_site_fract_z
Si Si1 0.964450 0.897058 0.040468
Si Si2 0.790804 0.373765 0.459987
Si Si3 0.500000 0.162616 0.750000
Si Si4 0.000000 0.265746 0.750000
Si Si5 0.308373 0.022387 0.249363
Si Si6 0.282929 0.595719 0.154970
O O1 0.773678 0.904107 0.998556
O O2 0.120911 0.947652 0.152843
O O3 0.946083 0.739645 0.018807
O O4 0.000000 0.000000 0.000000
O O5 0.620408 0.310605 0.350275
O O6 0.813630 0.514072 0.438026
O O7 0.535199 0.077780 0.705535
O O8 0.677484 0.250821 0.837236
O O9 0.852777 0.353361 0.725335
O O10 0.302290 0.061340 0.316244
O O11 0.500000 0.553584 0.250000
#
# Coordination Sequence:
#
# PCOD9280805 Si02
#       6
#     8   8   4   4   8   8
#     4  11  22  38  61  93 136 166 205 269 327 380
#     4  11  22  37  63  96 122 169 219 259 322 385
#     4   9  23  38  60  92 123 153 222 258 308 377
#     4  11  21  38  66  98 117 167 230 250 316 385
#     4  11  22  39  66  91 125 171 209 271 318 379
#     4  10  21  37  64  89 122 163 214 269 306 367
#
# _framework density 24.493438000000001
#
# number of rings (size 3 to 8) (size 9 to 14) (size 15 to 20)
#    0.600    0.800    5.000    0.000    5.600    1.600 
#    0.000    1.000    4.400    7.200    0.000    0.000 
#    0.000    0.000    0.000    0.000    0.000    0.000 
#
# Total GULP energy -111621.168348 kJ/mol
# GULP energy per Si atom -5581.058417 kJ/mol
# Density = 2.443769 g / cm^3
# Si number density = 24.493438 Si / 1000 Ang^3
#
#
#
# Elastic Constant Matrix: (Units=GPa)
#
#
# Indices 1 2 3 4 5 6 
#
# 1 181.0945 59.7379 19.6347 0.0000 -21.3500 0.0000
# 2 59.7379 115.5592 20.7887 0.0000 -18.2121 0.0000
# 3 19.6347 20.7887 66.7240 0.0000 6.5066 0.0000
# 4 0.0000 0.0000 0.0000 85.5273 0.0000 -19.9655
# 5 -21.3500 -18.2121 6.5066 0.0000 48.5900 0.0000
# 6 0.0000 0.0000 0.0000 -19.9655 0.0000 45.0862
#
#
#
# Elastic Compliance Matrix: (Units=1/GPa)
#
#
# Indices 1 2 3 4 5 6 
#
# 1 0.006899 -0.003006 -0.001296 0.000000 0.002078 0.000000
# 2 -0.003006 0.011256 -0.002943 0.000000 0.003292 0.000000
# 3 -0.001296 -0.002943 0.016666 0.000000 -0.003905 0.000000
# 4 0.000000 0.000000 0.000000 0.013040 0.000000 0.005775
# 5 0.002078 0.003292 -0.003905 0.000000 0.023250 0.000000
# 6 0.000000 0.000000 0.000000 0.005775 0.000000 0.024737
#
#
# Mechanical properties :
#
#
# Convention : Reuss Voigt Hill
#
# Bulk Modulus (GPa) = 49.18791 62.63337 55.91064
# Shear Modulus (GPa) = 42.69255 53.38846 48.04051
#
# Velocity S-wave (km/s) = 4.17948 4.67380 4.43353
# Velocity P-wave (km/s) = 6.58911 7.39952 7.00604
#
# Compressibility (1/GPa) = 0.02033020
#
# Stress axis : x y z
#
# Youngs Moduli (GPa) = 144.94748 88.84371 60.00090
#
# Poissons Ratio (x) = 0.26703 0.07778
# Poissons Ratio (y) = 0.43566 0.17661
# Poissons Ratio (z) = 0.18791 0.26151
#
# Static dielectric constant tensor:
#      x y z
#    x 2.007470 0.000000 0.070470 
#    y 0.000000 2.050440 0.000000 
#    z 0.070470 0.000000 1.995640 
# 
# From -- ./inp_files/268304.got.cif
#   From: 2010.05.17/outbox.cif.g08.bks.cpg/sg15_135_cif.got.tgz:268304.got - 2010.06.03 18:47:42.
