data_PCOD9280530
_publ_section_title
;
Structure prediction by ZEFSAII (Michael W. Deem and Ramdas Pophale) SiO2 
 PCOD9280530
Probable space group: C 2/C
;
_chemical_formula_sum "Si O2"
_cell_formula_units_Z 52
_cell_length_a 10.184650
_cell_length_b 10.151947
_cell_length_c 29.477613
_cell_angle_alpha 90.000000
_cell_angle_beta 133.833187
_cell_angle_gamma 90.000000
_cell_volume 2198.565152
_symmetry_space_group_name_H-M "C 2/C"
_symmetry_group_IT_number 15
_symmetry_cell_setting 'monoclinic'
loop_
_space_group_symop_operation_xyz
x,y,z
-x,y,1/2-z
-x,-y,-z
x,-y,1/2+z
1/2+x,1/2+y,z
1/2-x,1/2+y,1/2-z
1/2-x,1/2-y,-z
1/2+x,1/2-y,1/2+z
loop_
_atom_site_type_symbol
_atom_site_label
_atom_site_fract_x
_atom_site_fract_y
_atom_site_fract_z
Si Si1 0.138685 0.356660 0.502271
Si Si2 0.293990 0.274646 0.958709
Si Si3 0.500000 0.854024 0.750000
Si Si4 0.082746 0.361721 0.132486
Si Si5 0.510772 0.450654 0.619625
Si Si6 0.711744 0.986169 0.376728
Si Si7 0.048264 0.866371 0.322987
O O1 0.250000 0.250000 0.500000
O O2 0.016178 0.425713 0.435084
O O3 0.291912 0.441009 0.562972
O O4 0.997456 0.279529 0.499459
O O5 0.271693 0.421177 0.933001
O O6 0.157337 0.199513 0.891144
O O7 0.250000 0.250000 0.000000
O O8 0.376745 0.944835 0.689015
O O9 0.568679 0.750751 0.727624
O O10 0.076059 0.201302 0.127723
O O11 0.949995 0.396335 0.142370
O O12 0.291900 0.404735 0.174597
O O13 0.595049 0.545314 0.600906
O O14 0.554088 0.511321 0.679180
#
# Coordination Sequence:
#
# PCOD9280530 Si02
#       7
#     8   8   4   8   8   8   8
#     4   9  18  37  59  87 143 163 199 262 303 381
#     4  10  21  37  61 100 128 173 213 249 322 386
#     4  10  22  50  66  88 126 170 214 274 320 366
#     4  10  22  42  61  98 128 168 210 259 319 380
#     4  11  22  42  62  99 128 168 214 257 321 385
#     4  11  23  42  67  90 133 169 212 269 316 375
#     4  10  23  42  68  87 129 170 210 269 316 372
#
# _framework density 23.651789999999998
#
# number of rings (size 3 to 8) (size 9 to 14) (size 15 to 20)
#    0.000    1.846    6.154    0.000    4.308    5.538 
#    2.769    0.769    0.000    0.000    0.000    0.000 
#    0.000    0.000    0.000    0.000    0.000    0.000 
#
# Total GULP energy -144806.223826 kJ/mol
# GULP energy per Si atom -5569.470147 kJ/mol
# Density = 2.359796 g / cm^3
# Si number density = 23.651790 Si / 1000 Ang^3
#
#
#
# Elastic Constant Matrix: (Units=GPa)
#
#
# Indices 1 2 3 4 5 6 
#
# 1 187.2379 29.8736 17.5552 0.0000 -14.4871 0.0000
# 2 29.8736 34.2722 -7.9010 0.0000 -7.9340 0.0000
# 3 17.5552 -7.9010 58.6010 0.0000 -11.9298 0.0000
# 4 0.0000 0.0000 0.0000 27.9518 0.0000 -14.4411
# 5 -14.4871 -7.9340 -11.9298 0.0000 23.6417 0.0000
# 6 0.0000 0.0000 0.0000 -14.4411 0.0000 47.1823
#
#
#
# Elastic Compliance Matrix: (Units=1/GPa)
#
#
# Indices 1 2 3 4 5 6 
#
# 1 0.006643 -0.006280 -0.002716 0.000000 0.000593 0.000000
# 2 -0.006280 0.040520 0.010397 0.000000 0.014997 0.000000
# 3 -0.002716 0.010397 0.021901 0.000000 0.012877 0.000000
# 4 0.000000 0.000000 0.000000 0.042496 0.000000 0.013007
# 5 0.000593 0.014997 0.012877 0.000000 0.054192 0.000000
# 6 0.000000 0.000000 0.000000 0.013007 0.000000 0.025175
#
#
# Mechanical properties :
#
#
# Convention : Reuss Voigt Hill
#
# Bulk Modulus (GPa) = 13.91423 39.90742 26.91083
# Shear Modulus (GPa) = 23.57593 35.79403 29.68498
#
# Velocity S-wave (km/s) = 3.16063 3.89443 3.54656
# Velocity P-wave (km/s) = 4.38351 6.09358 5.30786
#
# Compressibility (1/GPa) = 0.07186888
#
# Stress axis : x y z
#
# Youngs Moduli (GPa) = 150.52941 24.67887 45.65915
#
# Poissons Ratio (x) = 0.15497 0.12401
# Poissons Ratio (y) = 0.94525 -0.47474
# Poissons Ratio (z) = 0.40885 -0.25660
#
# Static dielectric constant tensor:
#      x y z
#    x 2.009870 0.000000 0.153920 
#    y 0.000000 1.954510 0.000000 
#    z 0.153920 0.000000 1.807130 
# 
# From -- ./inp_files/307285.got.cif
#   From: 2010.05.17/outbox.cif.g08.bks.cpg/sg15_154_cif.got.tgz:307285.got - 2010.06.03 18:47:42.
