data_PCOD9280967
_publ_section_title
;
Structure prediction by ZEFSAII (Michael W. Deem and Ramdas Pophale) SiO2 
 PCOD9280967
Probable space group: C 2/C
;
_chemical_formula_sum "Si O2"
_cell_formula_units_Z 44
_cell_length_a 9.490633
_cell_length_b 12.168547
_cell_length_c 14.698649
_cell_angle_alpha 90.000000
_cell_angle_beta 70.344113
_cell_angle_gamma 90.000000
_cell_volume 1598.592005
_symmetry_space_group_name_H-M "C 2/C"
_symmetry_group_IT_number 15
_symmetry_cell_setting 'monoclinic'
loop_
_space_group_symop_operation_xyz
x,y,z
-x,y,1/2-z
-x,-y,-z
x,-y,1/2+z
1/2+x,1/2+y,z
1/2-x,1/2+y,1/2-z
1/2-x,1/2-y,-z
1/2+x,1/2-y,1/2+z
loop_
_atom_site_type_symbol
_atom_site_label
_atom_site_fract_x
_atom_site_fract_y
_atom_site_fract_z
Si Si1 0.744380 0.419555 0.500654
Si Si2 0.750000 0.750000 0.500000
Si Si3 0.670004 0.694054 0.312320
Si Si4 0.857427 0.982413 0.309336
Si Si5 0.525798 0.087535 0.845413
Si Si6 0.110416 0.759403 0.393144
O O1 0.635160 0.490234 0.585511
O O2 0.809085 0.330202 0.558078
O O3 0.665070 0.371221 0.429628
O O4 0.899951 0.469457 0.432289
O O5 0.713219 0.690676 0.408170
O O6 0.567032 0.753293 0.563324
O O7 0.637395 0.581321 0.265642
O O8 0.526764 0.778599 0.342728
O O9 0.803554 0.743294 0.220768
O O10 0.000000 0.912252 0.250000
O O11 0.691893 0.935018 0.341601
O O12 0.500000 0.047116 0.750000
#
# Coordination Sequence:
#
# PCOD9280967 Si02
#       6
#     8   4   8   8   8   8
#     4  10  21  44  71 100 138 188 233 285 361 436
#     4  12  22  38  66 108 140 180 234 296 350 414
#     4  11  24  45  71 100 143 186 236 288 359 426
#     4  11  26  45  72 107 145 184 240 301 358 425
#     4  12  24  47  74 102 143 192 240 293 360 431
#     4  10  21  37  70 103 132 182 233 284 351 422
#
# _framework density 27.52422
#
# number of rings (size 3 to 8) (size 9 to 14) (size 15 to 20)
#    0.000    1.091    3.636    2.727    2.545    4.364 
#    3.273    0.909    0.000    0.000    0.000    0.000 
#    0.000    0.000    0.000    0.000    0.000    0.000 
#
# Total GULP energy -122747.803614 kJ/mol
# GULP energy per Si atom -5579.445619 kJ/mol
# Density = 2.746157 g / cm^3
# Si number density = 27.524220 Si / 1000 Ang^3
#
#
#
# Elastic Constant Matrix: (Units=GPa)
#
#
# Indices 1 2 3 4 5 6 
#
# 1 139.5439 14.9442 39.8547 0.0000 -46.6254 0.0000
# 2 14.9442 53.2268 22.4499 0.0000 4.0073 0.0000
# 3 39.8547 22.4499 188.4033 0.0000 -34.1772 0.0000
# 4 0.0000 0.0000 0.0000 -128.3979 0.0000 58.5624
# 5 -46.6254 4.0073 -34.1772 0.0000 67.5557 0.0000
# 6 0.0000 0.0000 0.0000 58.5624 0.0000 10.8294
#
#
#
# Elastic Compliance Matrix: (Units=1/GPa)
#
#
# Indices 1 2 3 4 5 6 
#
# 1 0.009897 -0.003077 -0.000501 0.000000 0.006760 0.000000
# 2 -0.003077 0.021163 -0.002735 0.000000 -0.004762 0.000000
# 3 -0.000501 -0.002735 0.006283 0.000000 0.002995 0.000000
# 4 0.000000 0.000000 0.000000 -0.002247 0.000000 0.012150
# 5 0.006760 -0.004762 0.002995 0.000000 0.021266 0.000000
# 6 0.000000 0.000000 0.000000 0.012150 0.000000 0.026638
#
#
# Mechanical properties :
#
#
# Convention : Reuss Voigt Hill
#
# Bulk Modulus (GPa) = 40.45429 59.51904 49.98667
# Shear Modulus (GPa) = 48.13905 10.25913 29.19909
#
# Velocity S-wave (km/s) = 4.18661 1.93272 3.26060
# Velocity P-wave (km/s) = 6.17251 5.16253 5.68997
#
# Compressibility (1/GPa) = 0.02471926
#
# Stress axis : x y z
#
# Youngs Moduli (GPa) = 101.03609 47.25140 159.16146
#
# Poissons Ratio (x) = 0.14537 0.07970
# Poissons Ratio (y) = 0.31085 0.43529
# Poissons Ratio (z) = 0.05060 0.12923
#
# Static dielectric constant tensor:
#      x y z
#    x 2.102450 0.000000 0.027820 
#    y 0.000000 2.435120 0.000000 
#    z 0.027820 0.000000 2.079220 
# 
# From -- ./inp_files/134322.got.cif
#   From: 2010.05.17/outbox.cif.g08.bks.cpg/sg15_68_cif.got.tgz:134322.got - 2010.06.03 18:47:42.
