data_PCOD9280724
_publ_section_title
;
Structure prediction by ZEFSAII (Michael W. Deem and Ramdas Pophale) SiO2 
 PCOD9280724
Probable space group: C 2/C
;
_chemical_formula_sum "Si O2"
_cell_formula_units_Z 24
_cell_length_a 9.198838
_cell_length_b 5.123649
_cell_length_c 19.341536
_cell_angle_alpha 90.000000
_cell_angle_beta 69.467618
_cell_angle_gamma 90.000000
_cell_volume 853.687805
_symmetry_space_group_name_H-M "C 2/C"
_symmetry_group_IT_number 15
_symmetry_cell_setting 'monoclinic'
loop_
_space_group_symop_operation_xyz
x,y,z
-x,y,1/2-z
-x,-y,-z
x,-y,1/2+z
1/2+x,1/2+y,z
1/2-x,1/2+y,1/2-z
1/2-x,1/2-y,-z
1/2+x,1/2-y,1/2+z
loop_
_atom_site_type_symbol
_atom_site_label
_atom_site_fract_x
_atom_site_fract_y
_atom_site_fract_z
Si Si1 0.072714 0.389426 0.416858
Si Si2 0.685081 0.579181 0.221736
Si Si3 0.740293 0.997490 0.052017
O O1 0.228499 0.529782 0.365716
O O2 0.121817 0.086017 0.418998
O O3 0.000000 0.500000 0.500000
O O4 0.932332 0.461772 0.387966
O O5 0.500000 0.557622 0.250000
O O6 0.758057 0.349755 0.256128
O O7 0.750000 0.750000 0.000000
O O8 0.750000 0.250000 0.000000
#
# Coordination Sequence:
#
# PCOD9280724 Si02
#       3
#     8   8   8
#     4  10  23  43  70 102 139 187 241 298 356 430
#     4  12  28  50  74 107 150 197 244 302 372 441
#     4  10  21  37  62  99 135 172 225 292 352 411
#
# _framework density 28.113322
#
# number of rings (size 3 to 8) (size 9 to 14) (size 15 to 20)
#    0.000    1.333    0.000    4.000    0.000   16.000 
#    0.000    0.000    0.000    0.000    0.000    0.000 
#    0.000    0.000    0.000    0.000    0.000    0.000 
#
# Total GULP energy -67157.111313 kJ/mol
# GULP energy per Si atom -5596.425943 kJ/mol
# Density = 2.804933 g / cm^3
# Si number density = 28.113322 Si / 1000 Ang^3
#
#
#
# Elastic Constant Matrix: (Units=GPa)
#
#
# Indices 1 2 3 4 5 6 
#
# 1 223.2377 69.5041 56.8977 0.0000 -68.4707 0.0000
# 2 69.5041 179.3697 43.4391 0.0000 -11.2385 0.0000
# 3 56.8977 43.4391 209.9767 0.0000 -32.2424 0.0000
# 4 0.0000 0.0000 0.0000 42.5028 0.0000 2.2813
# 5 -68.4707 -11.2385 -32.2424 0.0000 58.8970 0.0000
# 6 0.0000 0.0000 0.0000 2.2813 0.0000 86.2085
#
#
#
# Elastic Compliance Matrix: (Units=1/GPa)
#
#
# Indices 1 2 3 4 5 6 
#
# 1 0.007977 -0.002472 -0.000326 0.000000 0.008624 0.000000
# 2 -0.002472 0.006648 -0.001039 0.000000 -0.002174 0.000000
# 3 -0.000326 -0.001039 0.005434 0.000000 0.002397 0.000000
# 4 0.000000 0.000000 0.000000 0.023561 0.000000 -0.000623
# 5 0.008624 -0.002174 0.002397 0.000000 0.027902 0.000000
# 6 0.000000 0.000000 0.000000 -0.000623 0.000000 0.011616
#
#
# Mechanical properties :
#
#
# Convention : Reuss Voigt Hill
#
# Bulk Modulus (GPa) = 80.74265 105.80732 93.27499
# Shear Modulus (GPa) = 52.66361 67.03788 59.85074
#
# Velocity S-wave (km/s) = 4.33281 4.88849 4.61902
# Velocity P-wave (km/s) = 7.33579 8.34151 7.85477
#
# Compressibility (1/GPa) = 0.01238503
#
# Stress axis : x y z
#
# Youngs Moduli (GPa) = 125.35559 150.41210 184.02881
#
# Poissons Ratio (x) = 0.37179 0.06000
# Poissons Ratio (y) = 0.30986 0.19128
# Poissons Ratio (z) = 0.04087 0.15634
#
# Static dielectric constant tensor:
#      x y z
#    x 2.936040 0.000000 0.093590 
#    y 0.000000 2.477990 0.000000 
#    z 0.093590 0.000000 2.292610 
# 
# From -- ./inp_files/53092.got.cif
#   From: 2010.05.17/outbox.cif.g08.bks.cpg/sg15_27_cif.got.tgz:53092.got - 2010.06.03 18:47:42.
