data_PCOD9280506
_publ_section_title
;
Structure prediction by ZEFSAII (Michael W. Deem and Ramdas Pophale) SiO2 
 PCOD9280506
Probable space group: C 2/C
;
_chemical_formula_sum "Si O2"
_cell_formula_units_Z 44
_cell_length_a 23.367771
_cell_length_b 11.526023
_cell_length_c 7.692153
_cell_angle_alpha 90.000000
_cell_angle_beta 101.594666
_cell_angle_gamma 90.000000
_cell_volume 2029.508080
_symmetry_space_group_name_H-M "C 2/C"
_symmetry_group_IT_number 15
_symmetry_cell_setting 'monoclinic'
loop_
_space_group_symop_operation_xyz
x,y,z
-x,y,1/2-z
-x,-y,-z
x,-y,1/2+z
1/2+x,1/2+y,z
1/2-x,1/2+y,1/2-z
1/2-x,1/2-y,-z
1/2+x,1/2-y,1/2+z
loop_
_atom_site_type_symbol
_atom_site_label
_atom_site_fract_x
_atom_site_fract_y
_atom_site_fract_z
Si Si1 0.654806 0.117822 0.038587
Si Si2 0.128574 0.852732 0.903638
Si Si3 0.000000 0.798783 0.750000
Si Si4 0.274369 0.928787 0.600859
Si Si5 0.478685 0.125802 0.430742
Si Si6 0.810337 0.071401 0.733845
O O1 0.701087 0.141734 0.221167
O O2 0.590985 0.120004 0.085571
O O3 0.651354 0.220742 0.894036
O O4 0.673345 0.992560 0.972481
O O5 0.060840 0.864639 0.812899
O O6 0.163268 0.950218 0.820401
O O7 0.140227 0.871011 0.117563
O O8 0.004120 0.717817 0.582729
O O9 0.224203 0.872969 0.449287
O O10 0.240988 0.038726 0.664833
O O11 0.500000 0.151438 0.250000
O O12 0.500000 0.000000 0.500000
#
# Coordination Sequence:
#
# PCOD9280506 Si02
#       6
#     8   8   4   8   8   8
#     4  10  21  37  60  93 128 162 202 256 317 385
#     4  10  22  42  61  88 125 162 214 264 313 363
#     4  10  24  42  62  96 124 166 218 258 314 382
#     4   9  19  36  60  92 122 157 204 248 320 381
#     4  11  21  38  63  93 134 169 201 256 318 383
#     4   9  20  39  60  84 119 165 212 261 300 360
#
# _framework density 21.680129000000001
#
# number of rings (size 3 to 8) (size 9 to 14) (size 15 to 20)
#    0.000    2.182    0.909    1.091    2.545    8.000 
#   13.091    0.000    0.000    0.000    0.000    0.000 
#    0.000    0.000    0.000    0.000    0.000    0.000 
#
# Total GULP energy -122652.313844 kJ/mol
# GULP energy per Si atom -5575.105175 kJ/mol
# Density = 2.163078 g / cm^3
# Si number density = 21.680129 Si / 1000 Ang^3
#
#
#
# Elastic Constant Matrix: (Units=GPa)
#
#
# Indices 1 2 3 4 5 6 
#
# 1 111.8412 28.5251 39.9380 0.0000 22.9044 0.0000
# 2 28.5251 33.6266 -1.4346 0.0000 -1.4711 0.0000
# 3 39.9380 -1.4346 96.6016 0.0000 13.5346 0.0000
# 4 0.0000 0.0000 0.0000 30.1670 0.0000 17.4316
# 5 22.9044 -1.4711 13.5346 0.0000 46.9297 0.0000
# 6 0.0000 0.0000 0.0000 17.4316 0.0000 19.7541
#
#
#
# Elastic Compliance Matrix: (Units=1/GPa)
#
#
# Indices 1 2 3 4 5 6 
#
# 1 0.015983 -0.014096 -0.005901 0.000000 -0.006541 0.000000
# 2 -0.014096 0.042221 0.005529 0.000000 0.006609 0.000000
# 3 -0.005901 0.005529 0.012970 0.000000 -0.000687 0.000000
# 4 0.000000 0.000000 0.000000 0.067637 0.000000 -0.059685
# 5 -0.006541 0.006609 -0.000687 0.000000 0.024906 0.000000
# 6 0.000000 0.000000 0.000000 -0.059685 0.000000 0.103290
#
#
# Mechanical properties :
#
#
# Convention : Reuss Voigt Hill
#
# Bulk Modulus (GPa) = 23.67559 41.79182 32.73371
# Shear Modulus (GPa) = 16.12786 31.03955 23.58370
#
# Velocity S-wave (km/s) = 2.73041 3.78789 3.30176
# Velocity P-wave (km/s) = 4.56994 6.20075 5.44672
#
# Compressibility (1/GPa) = 0.04223759
#
# Stress axis : x y z
#
# Youngs Moduli (GPa) = 62.56584 23.68488 77.10228
#
# Poissons Ratio (x) = 0.33387 0.45497
# Poissons Ratio (y) = 0.88194 -0.42629
# Poissons Ratio (z) = 0.36919 -0.13095
#
# Static dielectric constant tensor:
#      x y z
#    x 1.808110 0.000000 0.003740 
#    y 0.000000 1.834690 0.000000 
#    z 0.003740 0.000000 1.841570 
# 
# From -- ./inp_files/54461.got.cif
#   From: 2010.05.17/outbox.cif.g08.bks.cpg/sg15_28_cif.got.tgz:54461.got - 2010.06.03 18:47:42.
