data_PCOD9280718
_publ_section_title
;
Structure prediction by ZEFSAII (Michael W. Deem and Ramdas Pophale) SiO2 
 PCOD9280718
Probable space group: C 2/C
;
_chemical_formula_sum "Si O2"
_cell_formula_units_Z 56
_cell_length_a 19.489812
_cell_length_b 12.194026
_cell_length_c 11.740093
_cell_angle_alpha 90.000000
_cell_angle_beta 88.385105
_cell_angle_gamma 90.000000
_cell_volume 2789.033801
_symmetry_space_group_name_H-M "C 2/C"
_symmetry_group_IT_number 15
_symmetry_cell_setting 'monoclinic'
loop_
_space_group_symop_operation_xyz
x,y,z
-x,y,1/2-z
-x,-y,-z
x,-y,1/2+z
1/2+x,1/2+y,z
1/2-x,1/2+y,1/2-z
1/2-x,1/2-y,-z
1/2+x,1/2-y,1/2+z
loop_
_atom_site_type_symbol
_atom_site_label
_atom_site_fract_x
_atom_site_fract_y
_atom_site_fract_z
Si Si1 0.500000 0.154032 0.750000
Si Si2 0.112175 0.913799 0.092335
Si Si3 0.500000 0.490979 0.250000
Si Si4 0.419644 0.216866 0.274858
Si Si5 0.432135 0.993736 0.924486
Si Si6 0.658061 0.844034 0.947274
Si Si7 0.317838 0.349962 0.881478
Si Si8 0.100324 0.829190 0.842032
O O1 0.449264 0.075824 0.820598
O O2 0.545506 0.230893 0.830233
O O3 0.126617 0.820805 0.186501
O O4 0.153001 0.027917 0.095195
O O5 0.119134 0.856598 0.969930
O O6 0.033547 0.938222 0.134986
O O7 0.439388 0.564839 0.203694
O O8 0.500000 0.243648 0.250000
O O9 0.389854 0.171708 0.159387
O O10 0.419304 0.125499 0.373351
O O11 0.367375 0.045057 0.991572
O O12 0.500000 0.000000 0.000000
O O13 0.736731 0.849804 0.905330
O O14 0.650588 0.740371 0.033429
O O15 0.338750 0.314890 0.752238
#
# Coordination Sequence:
#
# PCOD9280718 Si02
#       8
#     4   8   4   8   8   8   8   8
#     4  11  20  35  60  98 130 173 219 272 328 390
#     4  11  23  39  66 101 135 169 218 274 342 408
#     4   9  20  33  58  98 134 173 199 264 342 390
#     4  12  25  41  68 106 135 171 219 290 343 395
#     4  12  22  42  66  96 132 178 226 273 336 392
#     4  11  25  48  69  93 138 180 236 274 337 411
#     4  10  25  46  68  95 130 192 219 277 342 407
#     4  10  21  37  62  98 133 169 224 270 333 402
#
# _framework density 20.078637000000001
#
# number of rings (size 3 to 8) (size 9 to 14) (size 15 to 20)
#    0.000    1.143    4.286    1.286    4.000    1.143 
#    2.571    1.429    0.000    0.000    0.000    0.000 
#    0.000    0.000    0.000    0.000    0.000    0.000 
#
# Total GULP energy -156230.283214 kJ/mol
# GULP energy per Si atom -5579.652972 kJ/mol
# Density = 2.003294 g / cm^3
# Si number density = 20.078637 Si / 1000 Ang^3
#
#
#
# Elastic Constant Matrix: (Units=GPa)
#
#
# Indices 1 2 3 4 5 6 
#
# 1 60.4178 17.7100 21.2487 0.0000 -12.9100 0.0000
# 2 17.7100 94.9414 19.7583 0.0000 -10.7878 0.0000
# 3 21.2487 19.7583 90.9245 0.0000 -14.6427 0.0000
# 4 0.0000 0.0000 0.0000 -25.8242 0.0000 -27.7902
# 5 -12.9100 -10.7878 -14.6427 0.0000 30.5366 0.0000
# 6 0.0000 0.0000 0.0000 -27.7902 0.0000 18.0896
#
#
#
# Elastic Compliance Matrix: (Units=1/GPa)
#
#
# Indices 1 2 3 4 5 6 
#
# 1 0.019606 -0.002331 -0.003114 0.000000 0.005972 0.000000
# 2 -0.002331 0.011564 -0.001592 0.000000 0.002337 0.000000
# 3 -0.003114 -0.001592 0.012754 0.000000 0.004237 0.000000
# 4 0.000000 0.000000 0.000000 -0.014595 0.000000 -0.022421
# 5 0.005972 0.002337 0.004237 0.000000 0.038130 0.000000
# 6 0.000000 0.000000 0.000000 -0.022421 0.000000 0.020835
#
#
# Mechanical properties :
#
#
# Convention : Reuss Voigt Hill
#
# Bulk Modulus (GPa) = 33.49875 40.41306 36.95590
# Shear Modulus (GPa) = 44.51675 17.06484 30.79079
#
# Velocity S-wave (km/s) = 4.71374 2.91847 3.92025
# Velocity P-wave (km/s) = 6.80777 5.61495 6.23993
#
# Compressibility (1/GPa) = 0.02985186
#
# Stress axis : x y z
#
# Youngs Moduli (GPa) = 51.00544 86.47245 78.40648
#
# Poissons Ratio (x) = 0.20153 0.24412
# Poissons Ratio (y) = 0.11887 0.12483
# Poissons Ratio (z) = 0.15881 0.13767
#
# Static dielectric constant tensor:
#      x y z
#    x 1.682910 0.000000 -0.024140 
#    y 0.000000 1.764440 0.000000 
#    z -0.024140 0.000000 1.725000 
# 
# From -- ./inp_files/111032.got.cif
#   From: 2010.05.17/outbox.cif.g08.bks.cpg/sg15_56_cif.got.tgz:111032.got - 2010.06.03 18:47:42.
