data_PCOD9280376
_publ_section_title
;
Structure prediction by ZEFSAII (Michael W. Deem and Ramdas Pophale) SiO2 
 PCOD9280376
Probable space group: C 2/C
;
_chemical_formula_sum "Si O2"
_cell_formula_units_Z 48
_cell_length_a 9.428454
_cell_length_b 17.107805
_cell_length_c 26.935963
_cell_angle_alpha 90.000000
_cell_angle_beta 34.069603
_cell_angle_gamma 90.000000
_cell_volume 2433.941212
_symmetry_space_group_name_H-M "C 2/C"
_symmetry_group_IT_number 15
_symmetry_cell_setting 'monoclinic'
loop_
_space_group_symop_operation_xyz
x,y,z
-x,y,1/2-z
-x,-y,-z
x,-y,1/2+z
1/2+x,1/2+y,z
1/2-x,1/2+y,1/2-z
1/2-x,1/2-y,-z
1/2+x,1/2-y,1/2+z
loop_
_atom_site_type_symbol
_atom_site_label
_atom_site_fract_x
_atom_site_fract_y
_atom_site_fract_z
Si Si1 0.278595 0.099090 0.081151
Si Si2 0.500000 0.679873 0.750000
Si Si3 0.907734 0.679209 0.430821
Si Si4 0.884065 0.550001 0.605344
Si Si5 0.276297 0.969334 0.911270
Si Si6 0.775867 0.808277 0.736547
Si Si7 0.500000 0.063484 0.250000
O O1 0.517739 0.128276 0.043344
O O2 0.069622 0.167144 0.146946
O O3 0.217375 0.017571 0.126683
O O4 0.379923 0.076390 0.997659
O O5 0.703791 0.623545 0.665353
O O6 0.664285 0.734510 0.739134
O O7 0.750000 0.750000 0.500000
O O8 0.770686 0.621306 0.431469
O O9 0.161666 0.698982 0.325187
O O10 0.007682 0.513131 0.619103
O O11 0.328498 0.982061 0.837996
O O12 0.000000 0.000000 0.000000
O O13 0.656595 0.882129 0.741946
#
# Coordination Sequence:
#
# PCOD9280376 Si02
#       7
#     8   4   8   8   8   8   4
#     4  10  21  39  63  88 119 171 207 249 324 375
#     4  11  24  38  58  94 127 156 210 267 318 364
#     4  10  21  37  59  86 120 159 208 253 299 376
#     4  10  23  38  61  94 127 159 210 273 310 382
#     4  10  21  39  59  89 121 166 206 257 319 372
#     4  10  21  38  60  85 120 166 208 250 312 381
#     4   9  20  36  58  84 113 160 206 245 300 380
#
# _framework density 19.7211
#
# number of rings (size 3 to 8) (size 9 to 14) (size 15 to 20)
#    0.000    2.000    0.000    2.500    7.000    2.000 
#    3.000    0.000    0.000    0.000    0.000    0.000 
#    0.000    0.000    0.000    0.000    0.000    0.000 
#
# Total GULP energy -133668.708047 kJ/mol
# GULP energy per Si atom -5569.529502 kJ/mol
# Density = 1.967621 g / cm^3
# Si number density = 19.721100 Si / 1000 Ang^3
#
#
#
# Elastic Constant Matrix: (Units=GPa)
#
#
# Indices 1 2 3 4 5 6 
#
# 1 45.9153 18.1671 37.2985 -0.0001 15.8711 0.0062
# 2 18.1671 96.4820 51.8793 0.0069 4.5683 -0.0008
# 3 37.2985 51.8793 122.9249 0.0079 20.5496 0.0094
# 4 -0.0001 0.0069 0.0079 45.1086 0.0003 -2.0735
# 5 15.8711 4.5683 20.5496 0.0003 35.1463 -0.0083
# 6 0.0062 -0.0008 0.0094 -2.0735 -0.0083 12.4598
#
#
#
# Elastic Compliance Matrix: (Units=1/GPa)
#
#
# Indices 1 2 3 4 5 6 
#
# 1 0.031758 -0.001575 -0.007324 0.000001 -0.009854 -0.000017
# 2 -0.001575 0.013581 -0.005628 -0.000001 0.002236 0.000007
# 3 -0.007324 -0.005628 0.013364 -0.000002 -0.003775 -0.000010
# 4 0.000001 -0.000001 -0.000002 0.022340 0.000001 0.003718
# 5 -0.009854 0.002236 -0.003775 0.000001 0.034819 0.000031
# 6 -0.000017 0.000007 -0.000010 0.003718 0.000031 0.080877
#
#
# Mechanical properties :
#
#
# Convention : Reuss Voigt Hill
#
# Bulk Modulus (GPa) = 33.72787 53.33466 43.53126
# Shear Modulus (GPa) = 21.21559 29.07477 25.14518
#
# Velocity S-wave (km/s) = 3.28347 3.84382 3.57464
# Velocity P-wave (km/s) = 5.61377 6.84128 6.25770
#
# Compressibility (1/GPa) = 0.02964907
#
# Stress axis : x y z
#
# Youngs Moduli (GPa) = 31.48783 73.62966 74.83012
#
# Poissons Ratio (x) = 0.11597 0.54807
# Poissons Ratio (y) = 0.04959 0.42114
# Poissons Ratio (z) = 0.23062 0.41438
#
# Static dielectric constant tensor:
#      x y z
#    x 1.710910 0.000000 0.070290 
#    y 0.000000 1.733100 -0.000010 
#    z 0.070290 -0.000010 1.364300 
# 
# From -- ./inp_files/289053.got.cif
#   From: 2010.05.17/outbox.cif.g08.bks.cpg/sg15_145_cif.got.tgz:289053.got - 2010.06.03 18:47:42.
