data_PCOD9280265
_publ_section_title
;
Structure prediction by ZEFSAII (Michael W. Deem and Ramdas Pophale) SiO2 
 PCOD9280265
Probable space group: C 2/C
;
_chemical_formula_sum "Si O2"
_cell_formula_units_Z 40
_cell_length_a 13.789670
_cell_length_b 8.491159
_cell_length_c 24.811248
_cell_angle_alpha 90.000000
_cell_angle_beta 29.922962
_cell_angle_gamma 90.000000
_cell_volume 1449.193834
_symmetry_space_group_name_H-M "C 2/C"
_symmetry_group_IT_number 15
_symmetry_cell_setting 'monoclinic'
loop_
_space_group_symop_operation_xyz
x,y,z
-x,y,1/2-z
-x,-y,-z
x,-y,1/2+z
1/2+x,1/2+y,z
1/2-x,1/2+y,1/2-z
1/2-x,1/2-y,-z
1/2+x,1/2-y,1/2+z
loop_
_atom_site_type_symbol
_atom_site_label
_atom_site_fract_x
_atom_site_fract_y
_atom_site_fract_z
Si Si1 0.500000 0.732813 0.750000
Si Si2 0.500000 0.263645 0.750000
Si Si3 0.991928 0.881644 0.139342
Si Si4 0.065468 0.437330 0.557741
Si Si5 0.225032 0.986355 0.355213
Si Si6 0.916930 0.696307 0.018761
O O1 0.537887 0.622892 0.782903
O O2 0.681017 0.857000 0.665308
O O3 0.596629 0.137043 0.744353
O O4 0.311888 0.350410 0.863941
O O5 0.219450 0.921205 0.022429
O O6 0.879799 0.990939 0.151832
O O7 0.950516 0.697487 0.144541
O O8 0.015649 0.619375 0.569702
O O9 0.043114 0.369867 0.507483
O O10 0.108852 0.880870 0.456052
#
# Coordination Sequence:
#
# PCOD9280265 Si02
#       6
#     4   4   8   8   8   8
#     4  11  22  41  58  88 121 152 201 246 278 357
#     4   7  14  29  58  78 103 146 191 226 276 335
#     4  10  21  37  57  86 119 157 187 245 297 341
#     4   9  18  35  55  86 120 144 196 240 292 351
#     4   8  18  38  58  77 120 147 194 243 279 337
#     4   8  15  33  60  79 110 158 181 241 289 335
#
# _framework density 27.601552000000002
#
# number of rings (size 3 to 8) (size 9 to 14) (size 15 to 20)
#    1.200    2.000    0.000    0.000    0.000    2.400 
#   10.800   10.000    0.000    0.000    0.000    0.000 
#    0.000    0.000    0.000    0.000    0.000    0.000 
#
# Total GULP energy -111514.910732 kJ/mol
# GULP energy per Si atom -5575.745537 kJ/mol
# Density = 2.753873 g / cm^3
# Si number density = 27.601552 Si / 1000 Ang^3
#
#
#
# Elastic Constant Matrix: (Units=GPa)
#
#
# Indices 1 2 3 4 5 6 
#
# 1 176.1699 45.3879 43.3080 0.0000 -3.3734 0.0000
# 2 45.3879 121.4093 43.4639 0.0000 -5.0772 0.0001
# 3 43.3080 43.4639 32.6123 -0.0003 14.9052 0.0001
# 4 0.0000 0.0000 -0.0003 36.2943 0.0000 4.5636
# 5 -3.3734 -5.0772 14.9052 0.0000 50.7009 0.0000
# 6 0.0000 0.0001 0.0001 4.5636 0.0000 37.2054
#
#
#
# Elastic Compliance Matrix: (Units=1/GPa)
#
#
# Indices 1 2 3 4 5 6 
#
# 1 0.010724 0.005545 -0.025660 0.000000 0.008812 0.000000
# 2 0.005545 0.023148 -0.045565 0.000000 0.016082 0.000000
# 3 -0.025660 -0.045565 0.148250 0.000001 -0.049853 0.000000
# 4 0.000000 0.000000 0.000001 0.027984 0.000000 -0.003433
# 5 0.008812 0.016082 -0.049853 0.000000 0.036576 0.000000
# 6 0.000000 0.000000 0.000000 -0.003433 0.000000 0.027299
#
#
# Mechanical properties :
#
#
# Convention : Reuss Voigt Hill
#
# Bulk Modulus (GPa) = 19.69909 66.05677 42.87793
# Shear Modulus (GPa) = 11.84103 38.04223 24.94163
#
# Velocity S-wave (km/s) = 2.07348 3.71653 3.00931
# Velocity P-wave (km/s) = 3.58955 6.51160 5.25765
#
# Compressibility (1/GPa) = 0.05076376
#
# Stress axis : x y z
#
# Youngs Moduli (GPa) = 93.24574 43.20037 6.74538
#
# Poissons Ratio (x) = -0.23956 0.17309
# Poissons Ratio (y) = -0.51708 0.30735
# Poissons Ratio (z) = 2.39267 1.96841
#
# Static dielectric constant tensor:
#      x y z
#    x 2.113710 0.000000 -0.057110 
#    y 0.000000 2.193540 0.000000 
#    z -0.057110 0.000000 2.411740 
# 
# From -- ./inp_files/268210.got.cif
#   From: 2010.05.17/outbox.cif.g08.bks.cpg/sg15_135_cif.got.tgz:268210.got - 2010.06.03 18:47:42.
