data_PCOD9280490
_publ_section_title
;
Structure prediction by ZEFSAII (Michael W. Deem and Ramdas Pophale) SiO2 
 PCOD9280490
Probable space group: C 2/C
;
_chemical_formula_sum "Si O2"
_cell_formula_units_Z 64
_cell_length_a 12.635438
_cell_length_b 10.154554
_cell_length_c 20.875574
_cell_angle_alpha 90.000000
_cell_angle_beta 85.792643
_cell_angle_gamma 90.000000
_cell_volume 2671.268882
_symmetry_space_group_name_H-M "C 2/C"
_symmetry_group_IT_number 15
_symmetry_cell_setting 'monoclinic'
loop_
_space_group_symop_operation_xyz
x,y,z
-x,y,1/2-z
-x,-y,-z
x,-y,1/2+z
1/2+x,1/2+y,z
1/2-x,1/2+y,1/2-z
1/2-x,1/2-y,-z
1/2+x,1/2-y,1/2+z
loop_
_atom_site_type_symbol
_atom_site_label
_atom_site_fract_x
_atom_site_fract_y
_atom_site_fract_z
Si Si1 0.763215 0.288425 0.753274
Si Si2 0.359657 0.921258 0.632271
Si Si3 0.416436 0.524830 0.089015
Si Si4 0.371221 0.728617 0.513035
Si Si5 0.144424 0.967781 0.263346
Si Si6 0.042485 0.552578 0.566080
Si Si7 0.291176 0.835552 0.900175
Si Si8 0.131506 0.941377 0.122831
O O1 0.848122 0.343395 0.698899
O O2 0.754300 0.132355 0.744807
O O3 0.660689 0.378112 0.746807
O O4 0.796096 0.326680 0.823116
O O5 0.452635 0.028223 0.623033
O O6 0.246045 0.988285 0.622104
O O7 0.387505 0.815842 0.576470
O O8 0.395176 0.416753 0.035736
O O9 0.382407 0.467805 0.160691
O O10 0.333892 0.643742 0.079225
O O11 0.542434 0.528945 0.093715
O O12 0.250000 0.750000 0.500000
O O13 0.432436 0.797383 0.451744
O O14 0.090800 0.918799 0.198962
O O15 0.144152 0.462025 0.578316
O O16 0.000000 0.500000 0.500000
O O17 0.346398 0.696465 0.915150
#
# Coordination Sequence:
#
# PCOD9280490 Si02
#       8
#     8   8   8   8   8   8   8   8
#     4   9  18  33  59  91 123 157 202 259 315 378
#     4  10  21  39  60  88 122 158 202 251 327 367
#     4  11  20  38  63  89 120 162 208 252 304 381
#     4  11  21  39  62  83 114 159 215 251 300 364
#     4   9  18  33  59  93 121 161 202 249 314 379
#     4  10  21  38  59  83 113 157 204 262 298 352
#     4  10  21  37  60  91 122 155 212 257 304 381
#     4  10  21  38  60  91 127 158 193 255 321 382
#
# _framework density 23.958649999999999
#
# number of rings (size 3 to 8) (size 9 to 14) (size 15 to 20)
#    0.000    2.000    2.500    1.875    0.000    0.500 
#    2.250    6.250    0.000    0.000    0.000    0.000 
#    0.000    0.000    0.000    0.000    0.000    0.000 
#
# Total GULP energy -178377.148252 kJ/mol
# GULP energy per Si atom -5574.285883 kJ/mol
# Density = 2.390412 g / cm^3
# Si number density = 23.958650 Si / 1000 Ang^3
#
#
#
# Elastic Constant Matrix: (Units=GPa)
#
#
# Indices 1 2 3 4 5 6 
#
# 1 100.0287 20.2151 2.6646 0.0000 -3.5984 0.0000
# 2 20.2151 89.1199 24.7730 0.0000 -4.6955 0.0000
# 3 2.6646 24.7730 74.9990 0.0000 -17.2392 0.0000
# 4 0.0000 0.0000 0.0000 35.5024 0.0000 -5.9811
# 5 -3.5984 -4.6955 -17.2392 0.0000 21.4703 0.0000
# 6 0.0000 0.0000 0.0000 -5.9811 0.0000 20.7494
#
#
#
# Elastic Compliance Matrix: (Units=1/GPa)
#
#
# Indices 1 2 3 4 5 6 
#
# 1 0.010557 -0.002546 0.000913 0.000000 0.001946 0.000000
# 2 -0.002546 0.012978 -0.004466 0.000000 -0.001175 0.000000
# 3 0.000913 -0.004466 0.017889 0.000000 0.013540 0.000000
# 4 0.000000 0.000000 0.000000 0.029605 0.000000 0.008534
# 5 0.001946 -0.001175 0.013540 0.000000 0.057517 0.000000
# 6 0.000000 0.000000 0.000000 0.008534 0.000000 0.050654
#
#
# Mechanical properties :
#
#
# Convention : Reuss Voigt Hill
#
# Bulk Modulus (GPa) = 34.21672 39.93923 37.07798
# Shear Modulus (GPa) = 24.85835 29.97739 27.41787
#
# Velocity S-wave (km/s) = 3.22460 3.54109 3.38654
# Velocity P-wave (km/s) = 5.30817 5.78146 5.54986
#
# Compressibility (1/GPa) = 0.02922548
#
# Stress axis : x y z
#
# Youngs Moduli (GPa) = 94.72081 77.05359 55.90174
#
# Poissons Ratio (x) = 0.19618 -0.05105
# Poissons Ratio (y) = 0.24116 0.24967
# Poissons Ratio (z) = -0.08649 0.34414
#
# Static dielectric constant tensor:
#      x y z
#    x 2.281300 0.000000 -0.120680 
#    y 0.000000 1.986900 0.000000 
#    z -0.120680 0.000000 1.945540 
# 
# From -- ./inp_files/268824.got.cif
#   From: 2010.05.17/outbox.cif.g08.bks.cpg/sg15_135_cif.got.tgz:268824.got - 2010.06.03 18:47:42.
