data_PCOD9280183
_publ_section_title
;
Structure prediction by ZEFSAII (Michael W. Deem and Ramdas Pophale) SiO2 
 PCOD9280183
Probable space group: C 2/C
;
_chemical_formula_sum "Si O2"
_cell_formula_units_Z 64
_cell_length_a 16.613418
_cell_length_b 12.197834
_cell_length_c 14.572170
_cell_angle_alpha 90.000000
_cell_angle_beta 103.440712
_cell_angle_gamma 90.000000
_cell_volume 2872.136659
_symmetry_space_group_name_H-M "C 2/C"
_symmetry_group_IT_number 15
_symmetry_cell_setting 'monoclinic'
loop_
_space_group_symop_operation_xyz
x,y,z
-x,y,1/2-z
-x,-y,-z
x,-y,1/2+z
1/2+x,1/2+y,z
1/2-x,1/2+y,1/2-z
1/2-x,1/2-y,-z
1/2+x,1/2-y,1/2+z
loop_
_atom_site_type_symbol
_atom_site_label
_atom_site_fract_x
_atom_site_fract_y
_atom_site_fract_z
Si Si1 0.325505 0.817050 0.476120
Si Si2 0.364342 0.820786 0.878526
Si Si3 0.572789 0.979674 0.199183
Si Si4 0.577034 0.340236 0.810322
Si Si5 0.990662 0.704075 0.942980
Si Si6 0.791459 0.466109 0.630700
Si Si7 0.723460 0.744802 0.220620
Si Si8 0.228292 0.877361 0.969570
O O1 0.250000 0.750000 0.500000
O O2 0.410165 0.751862 0.475785
O O3 0.342244 0.907890 0.559628
O O4 0.290482 0.834369 0.362759
O O5 0.416495 0.893229 0.822532
O O6 0.302581 0.739737 0.808082
O O7 0.300895 0.901397 0.915559
O O8 0.430706 0.784024 0.970394
O O9 0.500000 0.962042 0.250000
O O10 0.654410 0.962849 0.283945
O O11 0.545416 0.913923 0.100434
O O12 0.500000 0.409957 0.750000
O O13 0.476011 0.256832 0.641592
O O14 0.639671 0.280994 0.755293
O O15 0.641963 0.394746 0.896244
O O16 0.746050 0.370039 0.674638
O O17 0.733630 0.547874 0.559394
O O18 0.250000 0.750000 0.000000
#
# Coordination Sequence:
#
# PCOD9280183 Si02
#       8
#     8   8   8   8   8   8   8   8
#     4  10  21  40  65  88 122 170 206 256 314 372
#     4  10  21  37  55  93 126 161 200 255 309 376
#     4  11  22  33  57  94 132 158 194 248 320 388
#     4  11  22  38  59  90 120 160 209 256 297 359
#     4  12  21  34  61  90 125 165 203 251 318 374
#     4  10  22  40  60  91 125 167 207 251 312 373
#     4   9  21  39  63  88 126 167 207 251 309 368
#     4  11  22  38  60  86 123 160 207 255 306 365
#
# _framework density 22.283062999999999
#
# number of rings (size 3 to 8) (size 9 to 14) (size 15 to 20)
#    0.000    1.500    2.500    3.000    1.750    0.000 
#    0.000    0.625    0.000    0.000    0.000    0.875 
#    0.000    0.000    0.000    0.000    0.000    0.000 
#
# Total GULP energy -178221.922666 kJ/mol
# GULP energy per Si atom -5569.435083 kJ/mol
# Density = 2.223235 g / cm^3
# Si number density = 22.283063 Si / 1000 Ang^3
#
#
#
# Elastic Constant Matrix: (Units=GPa)
#
#
# Indices 1 2 3 4 5 6 
#
# 1 139.8633 16.8004 57.2557 0.0000 10.9605 0.0000
# 2 16.8004 27.5331 18.0016 0.0000 -3.4665 0.0000
# 3 57.2557 18.0016 160.5011 0.0000 17.6857 0.0000
# 4 0.0000 0.0000 0.0000 42.2284 0.0000 -2.7383
# 5 10.9605 -3.4665 17.6857 0.0000 49.8998 0.0000
# 6 0.0000 0.0000 0.0000 -2.7383 0.0000 8.3374
#
#
#
# Elastic Compliance Matrix: (Units=1/GPa)
#
#
# Indices 1 2 3 4 5 6 
#
# 1 0.008756 -0.003836 -0.002552 0.000000 -0.001285 0.000000
# 2 -0.003836 0.041850 -0.003890 0.000000 0.005129 0.000000
# 3 -0.002552 -0.003890 0.007852 0.000000 -0.002493 0.000000
# 4 0.000000 0.000000 0.000000 0.024196 0.000000 0.007947
# 5 -0.001285 0.005129 -0.002493 0.000000 0.021562 0.000000
# 6 0.000000 0.000000 0.000000 0.007947 0.000000 0.122552
#
#
# Mechanical properties :
#
#
# Convention : Reuss Voigt Hill
#
# Bulk Modulus (GPa) = 26.38445 56.89031 41.63738
# Shear Modulus (GPa) = 19.23380 35.81576 27.52478
#
# Velocity S-wave (km/s) = 2.94114 4.01347 3.51840
# Velocity P-wave (km/s) = 4.83736 6.86028 5.93563
#
# Compressibility (1/GPa) = 0.03790111
#
# Stress axis : x y z
#
# Youngs Moduli (GPa) = 114.20829 23.89472 127.36030
#
# Poissons Ratio (x) = 0.09167 0.32497
# Poissons Ratio (y) = 0.43814 0.49549
# Poissons Ratio (z) = 0.29141 0.09296
#
# Static dielectric constant tensor:
#      x y z
#    x 1.863840 0.000000 -0.005690 
#    y 0.000000 1.853000 0.000000 
#    z -0.005690 0.000000 1.978860 
# 
# From -- ./inp_files/162287.got.cif
#   From: 2010.05.17/outbox.cif.g08.bks.cpg/sg15_82_cif.got.tgz:162287.got - 2010.06.03 18:47:42.
