data_PCOD9280699
_publ_section_title
;
Structure prediction by ZEFSAII (Michael W. Deem and Ramdas Pophale) SiO2 
 PCOD9280699
Probable space group: C 2/C
;
_chemical_formula_sum "Si O2"
_cell_formula_units_Z 64
_cell_length_a 26.087638
_cell_length_b 14.093189
_cell_length_c 11.252459
_cell_angle_alpha 90.000000
_cell_angle_beta 43.347393
_cell_angle_gamma 90.000000
_cell_volume 2839.758908
_symmetry_space_group_name_H-M "C 2/C"
_symmetry_group_IT_number 15
_symmetry_cell_setting 'monoclinic'
loop_
_space_group_symop_operation_xyz
x,y,z
-x,y,1/2-z
-x,-y,-z
x,-y,1/2+z
1/2+x,1/2+y,z
1/2-x,1/2+y,1/2-z
1/2-x,1/2-y,-z
1/2+x,1/2-y,1/2+z
loop_
_atom_site_type_symbol
_atom_site_label
_atom_site_fract_x
_atom_site_fract_y
_atom_site_fract_z
Si Si1 0.755038 0.735978 0.661020
Si Si2 0.230370 0.151908 0.128594
Si Si3 0.568044 0.634270 0.363050
Si Si4 0.550419 0.469311 0.571185
Si Si5 0.643891 0.853056 0.690198
Si Si6 0.479966 0.818601 0.923874
Si Si7 0.843639 0.568641 0.770135
Si Si8 0.787875 0.957938 0.196236
O O1 0.766380 0.767497 0.776682
O O2 0.705440 0.815587 0.680245
O O3 0.832255 0.708722 0.465934
O O4 0.712478 0.635984 0.722214
O O5 0.153353 0.156750 0.184425
O O6 0.224004 0.053678 0.211832
O O7 0.304995 0.141887 0.926197
O O8 0.568925 0.532127 0.425881
O O9 0.501037 0.619822 0.381539
O O10 0.547995 0.713970 0.493967
O O11 0.500000 0.525034 0.750000
O O12 0.630067 0.455338 0.498041
O O13 0.558257 0.830981 0.861316
O O14 0.646635 0.967353 0.679591
O O15 0.500000 0.832247 0.750000
O O16 0.417707 0.891156 0.081295
O O17 0.780256 0.551042 0.778562
#
# Coordination Sequence:
#
# PCOD9280699 Si02
#       8
#     8   8   8   8   8   8   8   8
#     4  11  23  43  72  97 137 181 235 289 341 420
#     4  11  23  41  68  99 135 179 231 284 347 401
#     4  10  22  40  62  99 134 182 225 283 352 417
#     4  10  21  37  62  94 138 178 230 286 346 410
#     4  11  24  45  69 103 130 188 238 280 350 409
#     4  12  26  44  69  97 143 179 232 287 353 416
#     4  12  25  44  69 101 139 181 235 288 341 426
#     4  11  22  40  64  95 134 175 229 288 344 403
#
# _framework density 22.537125
#
# number of rings (size 3 to 8) (size 9 to 14) (size 15 to 20)
#    0.000    1.000    2.500    4.500    0.000    4.000 
#    0.000    0.625    0.000    0.000    0.000    0.000 
#    0.000    0.000    0.000    0.000    0.000    0.000 
#
# Total GULP energy -178630.854508 kJ/mol
# GULP energy per Si atom -5582.214203 kJ/mol
# Density = 2.248583 g / cm^3
# Si number density = 22.537125 Si / 1000 Ang^3
#
#
#
# Elastic Constant Matrix: (Units=GPa)
#
#
# Indices 1 2 3 4 5 6 
#
# 1 79.0878 31.0925 49.7595 0.0000 -12.0254 0.0000
# 2 31.0925 115.1772 34.6355 0.0000 -4.3508 0.0000
# 3 49.7595 34.6355 125.6853 0.0000 -26.3726 0.0000
# 4 0.0000 0.0000 0.0000 36.0086 0.0000 5.3447
# 5 -12.0254 -4.3508 -26.3726 0.0000 42.7336 0.0000
# 6 0.0000 0.0000 0.0000 5.3447 0.0000 22.1105
#
#
#
# Elastic Compliance Matrix: (Units=1/GPa)
#
#
# Indices 1 2 3 4 5 6 
#
# 1 0.017726 -0.002944 -0.006000 0.000000 0.000986 0.000000
# 2 -0.002944 0.009976 -0.001774 0.000000 -0.000908 0.000000
# 3 -0.006000 -0.001774 0.011980 0.000000 0.005524 0.000000
# 4 0.000000 0.000000 0.000000 0.028805 0.000000 -0.006963
# 5 0.000986 -0.000908 0.005524 0.000000 0.026995 0.000000
# 6 0.000000 0.000000 0.000000 -0.006963 0.000000 0.046910
#
#
# Mechanical properties :
#
#
# Convention : Reuss Voigt Hill
#
# Bulk Modulus (GPa) = 54.80440 61.21391 58.00916
# Shear Modulus (GPa) = 29.42728 33.80137 31.61433
#
# Velocity S-wave (km/s) = 3.61740 3.87694 3.74942
# Velocity P-wave (km/s) = 6.46666 6.87468 6.67379
#
# Compressibility (1/GPa) = 0.01824671
#
# Stress axis : x y z
#
# Youngs Moduli (GPa) = 56.41327 100.23862 83.47373
#
# Poissons Ratio (x) = 0.29508 0.50083
# Poissons Ratio (y) = 0.16607 0.14809
# Poissons Ratio (z) = 0.33847 0.17784
#
# Static dielectric constant tensor:
#      x y z
#    x 1.875040 0.000000 0.017520 
#    y 0.000000 1.850690 0.000000 
#    z 0.017520 0.000000 1.899440 
# 
# From -- ./inp_files/123513.got.cif
#   From: 2010.05.17/outbox.cif.g08.bks.cpg/sg15_62_cif.got.tgz:123513.got - 2010.06.03 18:47:42.
