data_PCOD9280262
_publ_section_title
;
Structure prediction by ZEFSAII (Michael W. Deem and Ramdas Pophale) SiO2 
 PCOD9280262
Probable space group: C 2/C
;
_chemical_formula_sum "Si O2"
_cell_formula_units_Z 64
_cell_length_a 28.671936
_cell_length_b 13.302746
_cell_length_c 8.078561
_cell_angle_alpha 90.000000
_cell_angle_beta 86.346814
_cell_angle_gamma 90.000000
_cell_volume 3075.027096
_symmetry_space_group_name_H-M "C 2/C"
_symmetry_group_IT_number 15
_symmetry_cell_setting 'monoclinic'
loop_
_space_group_symop_operation_xyz
x,y,z
-x,y,1/2-z
-x,-y,-z
x,-y,1/2+z
1/2+x,1/2+y,z
1/2-x,1/2+y,1/2-z
1/2-x,1/2-y,-z
1/2+x,1/2-y,1/2+z
loop_
_atom_site_type_symbol
_atom_site_label
_atom_site_fract_x
_atom_site_fract_y
_atom_site_fract_z
Si Si1 0.892337 0.574451 0.969384
Si Si2 0.313968 0.914802 0.066788
Si Si3 0.945062 0.389061 0.790454
Si Si4 0.830608 0.148890 0.689085
Si Si5 0.142698 0.776583 0.681329
Si Si6 0.748439 0.294128 0.680988
Si Si7 0.884674 0.768118 0.473836
Si Si8 0.750296 0.496055 0.810250
O O1 0.847940 0.511079 0.043173
O O2 0.918059 0.620270 0.122428
O O3 0.925740 0.492771 0.874515
O O4 0.876215 0.664596 0.854488
O O5 0.346997 0.823533 0.005516
O O6 0.288844 0.921897 0.250672
O O7 0.269745 0.926803 0.953403
O O8 0.000000 0.394841 0.750000
O O9 0.930054 0.293749 0.904670
O O10 0.852658 0.173668 0.502981
O O11 0.791672 0.234083 0.747519
O O12 0.800027 0.047417 0.675588
O O13 0.866819 0.157811 0.832636
O O14 0.195005 0.783862 0.746897
O O15 0.111958 0.815693 0.843121
O O16 0.750000 0.250000 0.500000
O O17 0.753858 0.413147 0.665108
#
# Coordination Sequence:
#
# PCOD9280262 Si02
#       8
#     8   8   8   8   8   8   8   8
#     4  11  20  36  59  86 123 164 207 254 308 381
#     4  11  20  34  52  83 114 165 217 250 300 365
#     4  11  23  39  61  93 124 159 204 258 320 395
#     4  11  22  39  56  80 122 166 215 265 301 355
#     4  11  22  38  57  82 119 166 206 253 304 365
#     4  10  21  37  57  85 125 170 217 266 296 352
#     4  11  22  38  60  80 117 165 210 250 317 376
#     4  12  23  35  57  85 122 172 224 263 304 345
#
# _framework density 20.812823000000002
#
# number of rings (size 3 to 8) (size 9 to 14) (size 15 to 20)
#    0.000    1.000    2.500    8.625    1.750    1.000 
#    0.000    0.000    0.000    0.000    0.000    0.000 
#    0.000    5.000    0.000    0.000    0.000    0.000 
#
# Total GULP energy -178494.313921 kJ/mol
# GULP energy per Si atom -5577.947310 kJ/mol
# Density = 2.076545 g / cm^3
# Si number density = 20.812823 Si / 1000 Ang^3
#
#
#
# Elastic Constant Matrix: (Units=GPa)
#
#
# Indices 1 2 3 4 5 6 
#
# 1 78.4401 14.3215 35.1405 0.0000 -26.6938 0.0000
# 2 14.3215 47.7841 8.7136 0.0000 -4.7770 0.0000
# 3 35.1405 8.7136 100.6108 0.0000 -9.0938 0.0000
# 4 0.0000 0.0000 0.0000 23.0679 0.0000 -5.2045
# 5 -26.6938 -4.7770 -9.0938 0.0000 23.2563 0.0000
# 6 0.0000 0.0000 0.0000 -5.2045 0.0000 21.0216
#
#
#
# Elastic Compliance Matrix: (Units=1/GPa)
#
#
# Indices 1 2 3 4 5 6 
#
# 1 0.024736 -0.003789 -0.006029 0.000000 0.025257 0.000000
# 2 -0.003789 0.022169 -0.000599 0.000000 -0.000030 0.000000
# 3 -0.006029 -0.000599 0.011880 0.000000 -0.002397 0.000000
# 4 0.000000 0.000000 0.000000 0.045915 0.000000 0.011367
# 5 0.025257 -0.000030 -0.002397 0.000000 0.071045 0.000000
# 6 0.000000 0.000000 0.000000 0.011367 0.000000 0.050384
#
#
# Mechanical properties :
#
#
# Convention : Reuss Voigt Hill
#
# Bulk Modulus (GPa) = 26.34955 38.13179 32.24067
# Shear Modulus (GPa) = 19.25922 24.71313 21.98617
#
# Velocity S-wave (km/s) = 3.04526 3.44960 3.25372
# Velocity P-wave (km/s) = 5.00525 5.85042 5.44426
#
# Compressibility (1/GPa) = 0.03795131
#
# Stress axis : x y z
#
# Youngs Moduli (GPa) = 40.42633 45.10708 84.17417
#
# Poissons Ratio (x) = 0.17093 0.50746
# Poissons Ratio (y) = 0.15319 0.05044
# Poissons Ratio (z) = 0.24372 0.02703
#
# Static dielectric constant tensor:
#      x y z
#    x 1.753710 0.000000 0.040320 
#    y 0.000000 1.861940 0.000000 
#    z 0.040320 0.000000 1.935370 
# 
# From -- ./inp_files/61913.got.cif
#   From: 2010.05.17/outbox.cif.g08.bks.cpg/sg15_31_cif.got.tgz:61913.got - 2010.06.03 18:47:42.
