data_PCOD9280909
_publ_section_title
;
Structure prediction by ZEFSAII (Michael W. Deem and Ramdas Pophale) SiO2 
 PCOD9280909
Probable space group: C 2/C
;
_chemical_formula_sum "Si O2"
_cell_formula_units_Z 32
_cell_length_a 29.127386
_cell_length_b 9.756149
_cell_length_c 8.459125
_cell_angle_alpha 90.000000
_cell_angle_beta 148.219384
_cell_angle_gamma 90.000000
_cell_volume 1266.025645
_symmetry_space_group_name_H-M "C 2/C"
_symmetry_group_IT_number 15
_symmetry_cell_setting 'monoclinic'
loop_
_space_group_symop_operation_xyz
x,y,z
-x,y,1/2-z
-x,-y,-z
x,-y,1/2+z
1/2+x,1/2+y,z
1/2-x,1/2+y,1/2-z
1/2-x,1/2-y,-z
1/2+x,1/2-y,1/2+z
loop_
_atom_site_type_symbol
_atom_site_label
_atom_site_fract_x
_atom_site_fract_y
_atom_site_fract_z
Si Si1 0.763466 0.352576 0.687395
Si Si2 0.380973 0.445624 0.739703
Si Si3 0.400225 0.293022 0.119290
Si Si4 0.450797 0.197976 0.771437
O O1 0.750000 0.250000 0.500000
O O2 0.715627 0.496968 0.516925
O O3 0.702516 0.280619 0.643396
O O4 0.862634 0.389894 0.018228
O O5 0.425721 0.589199 0.824270
O O6 0.399481 0.343272 0.650024
O O7 0.407665 0.361596 0.971162
O O8 0.473240 0.181388 0.374681
O O9 0.500000 0.185660 0.750000
#
# Coordination Sequence:
#
# PCOD9280909 Si02
#       4
#     8   8   8   8
#     4  10  22  38  59  97 131 162 201 271 325 365
#     4  10  22  39  63  97 126 162 211 269 311 368
#     4  10  21  37  66  91 127 158 218 257 310 370
#     4  12  21  39  68  94 126 168 215 259 318 375
#
# _framework density 25.275949000000001
#
# number of rings (size 3 to 8) (size 9 to 14) (size 15 to 20)
#    1.500    0.000    2.500    4.500    0.000    3.000 
#    0.000    0.000    0.000    6.000    0.000    0.000 
#    0.000    0.000    0.000    0.000    0.000    0.000 
#
# Total GULP energy -89110.185222 kJ/mol
# GULP energy per Si atom -5569.386576 kJ/mol
# Density = 2.521842 g / cm^3
# Si number density = 25.275949 Si / 1000 Ang^3
#
#
#
# Elastic Constant Matrix: (Units=GPa)
#
#
# Indices 1 2 3 4 5 6 
#
# 1 86.6432 4.8631 50.1628 0.0000 21.7762 0.0000
# 2 4.8631 30.8782 32.5318 0.0000 10.3679 0.0000
# 3 50.1628 32.5318 171.7072 0.0000 37.2102 0.0000
# 4 0.0000 0.0000 0.0000 42.3552 0.0000 17.7333
# 5 21.7762 10.3679 37.2102 0.0000 46.4119 0.0000
# 6 0.0000 0.0000 0.0000 17.7333 0.0000 17.3664
#
#
#
# Elastic Compliance Matrix: (Units=1/GPa)
#
#
# Indices 1 2 3 4 5 6 
#
# 1 0.014791 0.003381 -0.003987 0.000000 -0.004499 0.000000
# 2 0.003381 0.041710 -0.007900 0.000000 -0.004571 0.000000
# 3 -0.003987 -0.007900 0.009316 0.000000 -0.003834 0.000000
# 4 0.000000 0.000000 0.000000 0.041242 0.000000 -0.042113
# 5 -0.004499 -0.004571 -0.003834 0.000000 0.027752 0.000000
# 6 0.000000 0.000000 0.000000 -0.042113 0.000000 0.100585
#
#
# Mechanical properties :
#
#
# Convention : Reuss Voigt Hill
#
# Bulk Modulus (GPa) = 20.48904 51.59379 36.04141
# Shear Modulus (GPa) = 18.60985 34.67141 26.64063
#
# Velocity S-wave (km/s) = 2.71637 3.70769 3.25005
# Velocity P-wave (km/s) = 4.23815 6.22782 5.32671
#
# Compressibility (1/GPa) = 0.04880659
#
# Stress axis : x y z
#
# Youngs Moduli (GPa) = 67.61050 23.97489 107.34161
#
# Poissons Ratio (x) = -0.08107 0.42793
# Poissons Ratio (y) = -0.22861 0.84798
# Poissons Ratio (z) = 0.26954 0.18940
#
# Static dielectric constant tensor:
#      x y z
#    x 2.024820 0.000000 0.069040 
#    y 0.000000 2.120650 0.000000 
#    z 0.069040 0.000000 2.172930 
# 
# From -- ./inp_files/47589.got.cif
#   From: 2010.05.17/outbox.cif.g08.bks.cpg/sg15_24_cif.got.tgz:47589.got - 2010.06.03 18:47:42.
