data_PCOD9280096
_publ_section_title
;
Structure prediction by ZEFSAII (Michael W. Deem and Ramdas Pophale) SiO2 
 PCOD9280096
Probable space group: C 2/C
;
_chemical_formula_sum "Si O2"
_cell_formula_units_Z 44
_cell_length_a 5.587226
_cell_length_b 21.705983
_cell_length_c 17.019240
_cell_angle_alpha 90.000000
_cell_angle_beta 80.852649
_cell_angle_gamma 90.000000
_cell_volume 2037.780558
_symmetry_space_group_name_H-M "C 2/C"
_symmetry_group_IT_number 15
_symmetry_cell_setting 'monoclinic'
loop_
_space_group_symop_operation_xyz
x,y,z
-x,y,1/2-z
-x,-y,-z
x,-y,1/2+z
1/2+x,1/2+y,z
1/2-x,1/2+y,1/2-z
1/2-x,1/2-y,-z
1/2+x,1/2-y,1/2+z
loop_
_atom_site_type_symbol
_atom_site_label
_atom_site_fract_x
_atom_site_fract_y
_atom_site_fract_z
Si Si1 0.469168 0.217116 0.447849
Si Si2 0.700451 0.958480 0.092841
Si Si3 0.691384 0.473638 0.598586
Si Si4 0.869953 0.634333 0.184881
Si Si5 0.500000 0.261280 0.750000
Si Si6 0.159174 0.316991 0.106027
O O1 0.250000 0.250000 0.500000
O O2 0.438798 0.162397 0.387572
O O3 0.608213 0.273197 0.399033
O O4 0.605394 0.188140 0.515885
O O5 0.690798 0.888258 0.122866
O O6 0.432677 0.988857 0.113994
O O7 0.761794 0.959811 0.996105
O O8 0.931571 0.992926 0.119211
O O9 0.694628 0.410608 0.647030
O O10 0.722658 0.692023 0.226963
O O11 0.000000 0.601631 0.250000
O O12 0.524965 0.217560 0.825243
#
# Coordination Sequence:
#
# PCOD9280096 Si02
#       6
#     8   8   8   8   4   8
#     4  10  21  36  66  95 126 175 224 280 342 403
#     4  10  22  42  68  99 129 175 228 288 334 411
#     4  10  23  41  68  97 131 176 229 280 346 394
#     4  11  23  41  64  96 135 179 225 285 342 414
#     4  10  24  42  62  94 136 178 224 284 348 412
#     4  10  21  40  62  96 130 174 226 278 347 399
#
# _framework density 21.592120000000001
#
# number of rings (size 3 to 8) (size 9 to 14) (size 15 to 20)
#    0.000    1.818    1.818    1.091    5.091    1.455 
#    1.636    0.000    0.000    0.000    0.000    0.000 
#    0.000    0.000    0.000    0.000    0.000    0.000 
#
# Total GULP energy -122718.303462 kJ/mol
# GULP energy per Si atom -5578.104703 kJ/mol
# Density = 2.154298 g / cm^3
# Si number density = 21.592120 Si / 1000 Ang^3
#
#
#
# Elastic Constant Matrix: (Units=GPa)
#
#
# Indices 1 2 3 4 5 6 
#
# 1 101.2212 51.6005 31.0004 0.0000 2.0337 0.0000
# 2 51.6005 135.1422 51.7702 0.0000 4.0435 0.0000
# 3 31.0004 51.7702 67.9826 0.0000 1.5612 0.0000
# 4 0.0000 0.0000 0.0000 25.8295 0.0000 1.9571
# 5 2.0337 4.0435 1.5612 0.0000 25.7482 0.0000
# 6 0.0000 0.0000 0.0000 1.9571 0.0000 11.0053
#
#
#
# Elastic Compliance Matrix: (Units=1/GPa)
#
#
# Indices 1 2 3 4 5 6 
#
# 1 0.012676 -0.003700 -0.002957 0.000000 -0.000241 0.000000
# 2 -0.003700 0.011562 -0.007092 0.000000 -0.001093 0.000000
# 3 -0.002957 -0.007092 0.021458 0.000000 0.000046 0.000000
# 4 0.000000 0.000000 0.000000 0.039244 0.000000 -0.006979
# 5 -0.000241 -0.001093 0.000046 0.000000 0.039026 0.000000
# 6 0.000000 0.000000 0.000000 -0.006979 0.000000 0.092106
#
#
# Mechanical properties :
#
#
# Convention : Reuss Voigt Hill
#
# Bulk Modulus (GPa) = 54.95410 63.67646 59.31528
# Shear Modulus (GPa) = 20.02909 23.84828 21.93869
#
# Velocity S-wave (km/s) = 3.04898 3.32699 3.19101
# Velocity P-wave (km/s) = 6.15640 6.65681 6.41149
#
# Compressibility (1/GPa) = 0.01819700
#
# Stress axis : x y z
#
# Youngs Moduli (GPa) = 78.88894 86.49008 46.60251
#
# Poissons Ratio (x) = 0.32001 0.13781
# Poissons Ratio (y) = 0.29189 0.33052
# Poissons Ratio (z) = 0.23329 0.61342
#
# Static dielectric constant tensor:
#      x y z
#    x 1.973250 0.000000 0.021780 
#    y 0.000000 1.780380 0.000000 
#    z 0.021780 0.000000 1.868980 
# 
# From -- ./inp_files/184878.got.cif
#   From: 2010.05.17/outbox.cif.g08.bks.cpg/sg15_93_cif.got.tgz:184878.got - 2010.06.03 18:47:42.
