data_PCOD9280905
_publ_section_title
;
Structure prediction by ZEFSAII (Michael W. Deem and Ramdas Pophale) SiO2 
 PCOD9280905
Probable space group: C 2/C
;
_chemical_formula_sum "Si O2"
_cell_formula_units_Z 48
_cell_length_a 20.459873
_cell_length_b 6.334325
_cell_length_c 19.913030
_cell_angle_alpha 90.000000
_cell_angle_beta 101.145603
_cell_angle_gamma 90.000000
_cell_volume 2532.043815
_symmetry_space_group_name_H-M "C 2/C"
_symmetry_group_IT_number 15
_symmetry_cell_setting 'monoclinic'
loop_
_space_group_symop_operation_xyz
x,y,z
-x,y,1/2-z
-x,-y,-z
x,-y,1/2+z
1/2+x,1/2+y,z
1/2-x,1/2+y,1/2-z
1/2-x,1/2-y,-z
1/2+x,1/2-y,1/2+z
loop_
_atom_site_type_symbol
_atom_site_label
_atom_site_fract_x
_atom_site_fract_y
_atom_site_fract_z
Si Si1 0.435658 0.030872 0.898629
Si Si2 0.220543 0.950293 0.324358
Si Si3 0.540445 0.700782 0.477791
Si Si4 0.680762 0.358445 0.595831
Si Si5 0.841899 0.240981 0.811619
Si Si6 0.309355 0.589695 0.032048
O O1 0.498324 0.187785 0.909793
O O2 0.375612 0.180800 0.911072
O O3 0.405260 0.896354 0.831082
O O4 0.453021 0.861949 0.959120
O O5 0.257654 0.732605 0.350442
O O6 0.166114 0.894047 0.257623
O O7 0.275857 0.113868 0.307311
O O8 0.196285 0.037494 0.390835
O O9 0.500000 0.500000 0.500000
O O10 0.615024 0.660079 0.467598
O O11 0.657550 0.574596 0.626680
O O12 0.698655 0.399917 0.522573
O O13 0.250000 0.750000 0.000000
#
# Coordination Sequence:
#
# PCOD9280905 Si02
#       6
#     8   8   8   8   8   8
#     4  10  21  37  66  90 119 171 215 254 315 399
#     4  11  23  35  61  94 129 166 209 259 325 387
#     4  11  21  40  64  95 125 166 212 266 328 389
#     4  11  20  39  62  93 128 158 208 264 325 377
#     4  11  20  38  59  92 126 172 208 254 325 395
#     4  12  22  39  64 103 128 158 215 285 324 375
#
# _framework density 18.957018000000001
#
# number of rings (size 3 to 8) (size 9 to 14) (size 15 to 20)
#    0.000    1.000    6.667    1.500    0.000    0.000 
#    0.000    0.000    0.000    6.000    0.000    0.000 
#    0.000    0.000    0.000    0.000    0.000    0.000 
#
# Total GULP energy -133813.642644 kJ/mol
# GULP energy per Si atom -5575.568443 kJ/mol
# Density = 1.891387 g / cm^3
# Si number density = 18.957018 Si / 1000 Ang^3
#
#
#
# Elastic Constant Matrix: (Units=GPa)
#
#
# Indices 1 2 3 4 5 6 
#
# 1 106.8164 45.1077 41.2320 0.0000 12.9689 0.0000
# 2 45.1077 87.0188 36.3028 0.0000 12.4557 0.0000
# 3 41.2320 36.3028 122.9967 0.0000 12.4919 0.0000
# 4 0.0000 0.0000 0.0000 39.7708 0.0000 15.9425
# 5 12.9689 12.4557 12.4919 0.0000 23.6908 0.0000
# 6 0.0000 0.0000 0.0000 15.9425 0.0000 28.6591
#
#
#
# Elastic Compliance Matrix: (Units=1/GPa)
#
#
# Indices 1 2 3 4 5 6 
#
# 1 0.012885 -0.005217 -0.002474 0.000000 -0.003006 0.000000
# 2 -0.005217 0.015834 -0.002503 0.000000 -0.004149 0.000000
# 3 -0.002474 -0.002503 0.009961 0.000000 -0.002582 0.000000
# 4 0.000000 0.000000 0.000000 0.032360 0.000000 -0.018001
# 5 -0.003006 -0.004149 -0.002582 0.000000 0.047399 0.000000
# 6 0.000000 0.000000 0.000000 -0.018001 0.000000 0.044907
#
#
# Mechanical properties :
#
#
# Convention : Reuss Voigt Hill
#
# Bulk Modulus (GPa) = 54.67076 62.45742 58.56409
# Shear Modulus (GPa) = 26.33919 31.37009 28.85464
#
# Velocity S-wave (km/s) = 3.73153 4.07234 3.90565
# Velocity P-wave (km/s) = 6.88968 7.42498 7.16233
#
# Compressibility (1/GPa) = 0.01829131
#
# Stress axis : x y z
#
# Youngs Moduli (GPa) = 77.61039 63.15478 100.39311
#
# Poissons Ratio (x) = 0.32945 0.24841
# Poissons Ratio (y) = 0.40486 0.25132
# Poissons Ratio (z) = 0.19204 0.15810
#
# Static dielectric constant tensor:
#      x y z
#    x 1.702880 0.000000 0.051550 
#    y 0.000000 1.698520 0.000000 
#    z 0.051550 0.000000 1.670080 
# 
# From -- ./inp_files/250820.got.cif
#   From: 2010.05.17/outbox.cif.g08.bks.cpg/sg15_126_cif.got.tgz:250820.got - 2010.06.03 18:47:42.
