data_PCOD9280291
_publ_section_title
;
Structure prediction by ZEFSAII (Michael W. Deem and Ramdas Pophale) SiO2 
 PCOD9280291
Probable space group: C 2/C
;
_chemical_formula_sum "Si O2"
_cell_formula_units_Z 32
_cell_length_a 26.966462
_cell_length_b 5.226538
_cell_length_c 9.215731
_cell_angle_alpha 90.000000
_cell_angle_beta 90.162450
_cell_angle_gamma 90.000000
_cell_volume 1298.871319
_symmetry_space_group_name_H-M "C 2/C"
_symmetry_group_IT_number 15
_symmetry_cell_setting 'monoclinic'
loop_
_space_group_symop_operation_xyz
x,y,z
-x,y,1/2-z
-x,-y,-z
x,-y,1/2+z
1/2+x,1/2+y,z
1/2-x,1/2+y,1/2-z
1/2-x,1/2-y,-z
1/2+x,1/2-y,1/2+z
loop_
_atom_site_type_symbol
_atom_site_label
_atom_site_fract_x
_atom_site_fract_y
_atom_site_fract_z
Si Si1 0.691068 0.749699 0.476651
Si Si2 0.031680 0.308314 0.897555
Si Si3 0.653682 0.253025 0.644629
Si Si4 0.056731 0.211846 0.306148
O O1 0.750000 0.750000 0.500000
O O2 0.672549 0.485106 0.546369
O O3 0.678783 0.753383 0.304879
O O4 0.666237 0.987820 0.563116
O O5 0.074230 0.511849 0.864754
O O6 0.000000 0.268769 0.750000
O O7 0.051986 0.022352 0.918398
O O8 0.000000 0.500000 0.000000
O O9 0.596199 0.321804 0.680377
O O10 0.000000 0.236989 0.250000
#
# Coordination Sequence:
#
# PCOD9280291 Si02
#       4
#     8   8   8   8
#     4  12  26  49  74 104 139 181 236 302 359 420
#     4  10  21  37  58  84 122 174 219 262 319 381
#     4  12  26  45  74 107 140 186 236 287 360 429
#     4  10  23  41  63  95 136 177 221 275 332 410
#
# _framework density 24.636773000000002
#
# number of rings (size 3 to 8) (size 9 to 14) (size 15 to 20)
#    0.000    1.000    0.000    6.000    0.000   12.000 
#    0.000    0.000    0.000    0.000    0.000    0.000 
#    0.000    0.000    0.000    0.000    0.000    0.000 
#
# Total GULP energy -89244.467500 kJ/mol
# GULP energy per Si atom -5577.779219 kJ/mol
# Density = 2.458070 g / cm^3
# Si number density = 24.636773 Si / 1000 Ang^3
#
#
#
# Elastic Constant Matrix: (Units=GPa)
#
#
# Indices 1 2 3 4 5 6 
#
# 1 146.7760 -4.5460 21.6247 0.0000 6.7647 0.0000
# 2 -4.5460 172.5508 9.9019 0.0000 22.4988 0.0000
# 3 21.6247 9.9019 111.5019 0.0000 44.9728 0.0000
# 4 0.0000 0.0000 0.0000 118.0051 0.0000 38.8179
# 5 6.7647 22.4988 44.9728 0.0000 47.9252 0.0000
# 6 0.0000 0.0000 0.0000 38.8179 0.0000 75.4647
#
#
#
# Elastic Compliance Matrix: (Units=1/GPa)
#
#
# Indices 1 2 3 4 5 6 
#
# 1 0.007028 0.000230 -0.001512 0.000000 0.000319 0.000000
# 2 0.000230 0.006251 0.000960 0.000000 -0.003868 0.000000
# 3 -0.001512 0.000960 0.014919 0.000000 -0.014237 0.000000
# 4 0.000000 0.000000 0.000000 0.010200 0.000000 -0.005247
# 5 0.000319 -0.003868 -0.014237 0.000000 0.035997 0.000000
# 6 0.000000 0.000000 0.000000 -0.005247 0.000000 0.015950
#
#
# Mechanical properties :
#
#
# Convention : Reuss Voigt Hill
#
# Bulk Modulus (GPa) = 36.29071 53.86554 45.07812
# Shear Modulus (GPa) = 49.91381 75.20221 62.55801
#
# Velocity S-wave (km/s) = 4.50598 5.53088 5.04453
# Velocity P-wave (km/s) = 6.46793 7.91826 7.22956
#
# Compressibility (1/GPa) = 0.02755526
#
# Stress axis : x y z
#
# Youngs Moduli (GPa) = 142.28141 159.98141 67.02958
#
# Poissons Ratio (x) = -0.03686 0.10135
# Poissons Ratio (y) = -0.03278 -0.06438
# Poissons Ratio (z) = 0.21514 -0.15365
#
# Static dielectric constant tensor:
#      x y z
#    x 1.969720 0.000000 -0.067880 
#    y 0.000000 2.070150 0.000000 
#    z -0.067880 0.000000 1.469120 
# 
# From -- ./inp_files/67976.got.cif
#   From: 2010.05.17/outbox.cif.g08.bks.cpg/sg15_34_cif.got.tgz:67976.got - 2010.06.03 18:47:42.
