data_PCOD9280780
_publ_section_title
;
Structure prediction by ZEFSAII (Michael W. Deem and Ramdas Pophale) SiO2 
 PCOD9280780
Probable space group: C 2/C
;
_chemical_formula_sum "Si O2"
_cell_formula_units_Z 44
_cell_length_a 11.579477
_cell_length_b 29.430321
_cell_length_c 10.168189
_cell_angle_alpha 90.000000
_cell_angle_beta 141.299108
_cell_angle_gamma 90.000000
_cell_volume 2166.629202
_symmetry_space_group_name_H-M "C 2/C"
_symmetry_group_IT_number 15
_symmetry_cell_setting 'monoclinic'
loop_
_space_group_symop_operation_xyz
x,y,z
-x,y,1/2-z
-x,-y,-z
x,-y,1/2+z
1/2+x,1/2+y,z
1/2-x,1/2+y,1/2-z
1/2-x,1/2-y,-z
1/2+x,1/2-y,1/2+z
loop_
_atom_site_type_symbol
_atom_site_label
_atom_site_fract_x
_atom_site_fract_y
_atom_site_fract_z
Si Si1 0.883312 0.114691 0.535733
Si Si2 0.955736 0.427946 0.904302
Si Si3 0.805630 0.300380 0.505345
Si Si4 0.256394 0.639418 0.782463
Si Si5 0.500000 0.005254 0.750000
Si Si6 0.720554 0.578164 0.463417
O O1 0.696335 0.090364 0.332760
O O2 0.825957 0.162799 0.545143
O O3 0.000000 0.088394 0.750000
O O4 0.030431 0.125691 0.553125
O O5 0.030972 0.473474 0.904234
O O6 0.831454 0.426554 0.925753
O O7 0.122774 0.394033 0.082123
O O8 0.750000 0.250000 0.500000
O O9 0.788984 0.312788 0.333418
O O10 0.000000 0.308447 0.750000
O O11 0.231635 0.624576 0.913026
O O12 0.322122 0.036408 0.628108
O O13 0.500000 0.573503 0.250000
#
# Coordination Sequence:
#
# PCOD9280780 Si02
#       6
#     8   8   8   8   4   8
#     4  10  21  37  63  95 124 169 214 267 331 393
#     4  12  23  44  65  91 130 176 227 279 337 388
#     4  11  21  38  66 106 135 162 212 273 325 389
#     4  11  22  41  65  92 129 175 217 268 334 397
#     4  12  26  40  64  92 128 172 236 292 324 384
#     4  12  26  42  63  92 130 182 224 272 338 402
#
# _framework density 20.308043000000001
#
# number of rings (size 3 to 8) (size 9 to 14) (size 15 to 20)
#    0.000    0.727    5.455    4.364    0.000    2.909 
#    0.000    0.000    0.000    1.091    4.727    0.000 
#    0.000    0.000    0.000    0.000    0.000    0.000 
#
# Total GULP energy -122515.782894 kJ/mol
# GULP energy per Si atom -5568.899222 kJ/mol
# Density = 2.026182 g / cm^3
# Si number density = 20.308043 Si / 1000 Ang^3
#
#
#
# Elastic Constant Matrix: (Units=GPa)
#
#
# Indices 1 2 3 4 5 6 
#
# 1 94.7198 29.9384 14.8314 0.0000 -2.6099 0.0000
# 2 29.9384 76.1810 34.2452 0.0000 -6.0087 0.0000
# 3 14.8314 34.2452 123.9679 0.0000 24.6649 0.0000
# 4 0.0000 0.0000 0.0000 20.8065 0.0000 0.0333
# 5 -2.6099 -6.0087 24.6649 0.0000 43.8130 0.0000
# 6 0.0000 0.0000 0.0000 0.0333 0.0000 32.9184
#
#
#
# Elastic Compliance Matrix: (Units=1/GPa)
#
#
# Indices 1 2 3 4 5 6 
#
# 1 0.012059 -0.004633 -0.000202 0.000000 0.000197 0.000000
# 2 -0.004633 0.017781 -0.005392 0.000000 0.005198 0.000000
# 3 -0.000202 -0.005392 0.010957 0.000000 -0.006920 0.000000
# 4 0.000000 0.000000 0.000000 0.048062 0.000000 -0.000049
# 5 0.000197 0.005198 -0.006920 0.000000 0.027444 0.000000
# 6 0.000000 0.000000 0.000000 -0.000049 0.000000 0.030378
#
#
# Mechanical properties :
#
#
# Convention : Reuss Voigt Hill
#
# Bulk Modulus (GPa) = 49.15538 50.32207 49.73873
# Shear Modulus (GPa) = 28.74958 33.89783 31.32371
#
# Velocity S-wave (km/s) = 3.76663 4.09000 3.93164
# Velocity P-wave (km/s) = 6.57070 6.86566 6.71980
#
# Compressibility (1/GPa) = 0.02034365
#
# Stress axis : x y z
#
# Youngs Moduli (GPa) = 82.92722 56.24004 91.26576
#
# Poissons Ratio (x) = 0.26054 0.01845
# Poissons Ratio (y) = 0.38417 0.49209
# Poissons Ratio (z) = 0.01676 0.30323
#
# Static dielectric constant tensor:
#      x y z
#    x 1.830980 0.000000 -0.062970 
#    y 0.000000 1.746420 0.000000 
#    z -0.062970 0.000000 1.866900 
# 
# From -- ./inp_files/92144.got.cif
#   From: 2010.05.17/outbox.cif.g08.bks.cpg/sg15_47_cif.got.tgz:92144.got - 2010.06.03 18:47:42.
