data_PCOD9280933
_publ_section_title
;
Structure prediction by ZEFSAII (Michael W. Deem and Ramdas Pophale) SiO2 
 PCOD9280933
Probable space group: C 2/C
;
_chemical_formula_sum "Si O2"
_cell_formula_units_Z 40
_cell_length_a 19.044356
_cell_length_b 9.758190
_cell_length_c 16.679614
_cell_angle_alpha 90.000000
_cell_angle_beta 135.372276
_cell_angle_gamma 90.000000
_cell_volume 2177.541004
_symmetry_space_group_name_H-M "C 2/C"
_symmetry_group_IT_number 15
_symmetry_cell_setting 'monoclinic'
loop_
_space_group_symop_operation_xyz
x,y,z
-x,y,1/2-z
-x,-y,-z
x,-y,1/2+z
1/2+x,1/2+y,z
1/2-x,1/2+y,1/2-z
1/2-x,1/2-y,-z
1/2+x,1/2-y,1/2+z
loop_
_atom_site_type_symbol
_atom_site_label
_atom_site_fract_x
_atom_site_fract_y
_atom_site_fract_z
Si Si1 0.129777 0.098983 0.552948
Si Si2 0.367625 0.780300 0.092804
Si Si3 0.135798 0.347534 0.232463
Si Si4 0.942042 0.202642 0.489343
Si Si5 0.525613 0.941679 0.861514
O O1 0.096505 0.171135 0.443141
O O2 0.245544 0.129910 0.665285
O O3 0.056047 0.160062 0.560541
O O4 0.113067 0.937296 0.532724
O O5 0.399221 0.778725 0.211662
O O6 0.396018 0.931934 0.083548
O O7 0.250000 0.750000 0.000000
O O8 0.106841 0.261981 0.131314
O O9 0.073340 0.489037 0.180465
O O10 0.938638 0.318148 0.554490
O O11 0.500000 0.897534 0.750000
#
# Coordination Sequence:
#
# PCOD9280933 Si02
#       5
#     8   8   8   8   8
#     4  10  23  39  58  95 119 151 201 248 301 345
#     4   9  19  39  61  85 119 159 199 233 294 364
#     4  10  21  37  67  82 120 162 197 233 299 366
#     4  11  23  39  61  91 123 150 200 257 291 351
#     4  10  21  40  61  85 117 166 197 241 300 358
#
# _framework density 18.369344000000002
#
# number of rings (size 3 to 8) (size 9 to 14) (size 15 to 20)
#    0.000    2.000    2.000    0.600    2.800    1.600 
#    7.200    9.000    0.000    0.000    0.000    0.000 
#    0.000    0.000    0.000    0.000    0.000    0.000 
#
# Total GULP energy -111539.655420 kJ/mol
# GULP energy per Si atom -5576.982771 kJ/mol
# Density = 1.832753 g / cm^3
# Si number density = 18.369344 Si / 1000 Ang^3
#
#
#
# Elastic Constant Matrix: (Units=GPa)
#
#
# Indices 1 2 3 4 5 6 
#
# 1 81.1221 69.6988 51.4196 0.0000 -0.3638 0.0000
# 2 69.6988 150.7946 91.4048 0.0000 -30.7759 0.0000
# 3 51.4196 91.4048 103.5934 0.0000 -3.8230 0.0000
# 4 0.0000 0.0000 0.0000 14.6892 0.0000 -5.7492
# 5 -0.3638 -30.7759 -3.8230 0.0000 44.6415 0.0000
# 6 0.0000 0.0000 0.0000 -5.7492 0.0000 19.4340
#
#
#
# Elastic Compliance Matrix: (Units=1/GPa)
#
#
# Indices 1 2 3 4 5 6 
#
# 1 0.022959 -0.010893 -0.002062 0.000000 -0.007499 0.000000
# 2 -0.010893 0.023940 -0.015159 0.000000 0.015117 0.000000
# 3 -0.002062 -0.015159 0.023740 0.000000 -0.008434 0.000000
# 4 0.000000 0.000000 0.000000 0.076992 0.000000 0.022777
# 5 -0.007499 0.015117 -0.008434 0.000000 0.032039 0.000000
# 6 0.000000 0.000000 0.000000 0.022777 0.000000 0.058195
#
#
# Mechanical properties :
#
#
# Convention : Reuss Voigt Hill
#
# Bulk Modulus (GPa) = 69.37989 84.50629 76.94309
# Shear Modulus (GPa) = 16.72822 23.95207 20.34015
#
# Velocity S-wave (km/s) = 3.02099 3.61489 3.33120
# Velocity P-wave (km/s) = 7.07247 7.97039 7.53482
#
# Compressibility (1/GPa) = 0.01441340
#
# Stress axis : x y z
#
# Youngs Moduli (GPa) = 43.55574 41.77067 42.12221
#
# Poissons Ratio (x) = 0.45500 0.08684
# Poissons Ratio (y) = 0.47444 0.63852
# Poissons Ratio (z) = 0.08979 0.63320
#
# Static dielectric constant tensor:
#      x y z
#    x 1.667450 0.000000 0.014750 
#    y 0.000000 1.601590 0.000000 
#    z 0.014750 0.000000 1.640720 
# 
# From -- ./inp_files/159511.got.cif
#   From: 2010.05.17/outbox.cif.g08.bks.cpg/sg15_80_cif.got.tgz:159511.got - 2010.06.03 18:47:42.
