data_PCOD9280598
_publ_section_title
;
Structure prediction by ZEFSAII (Michael W. Deem and Ramdas Pophale) SiO2 
 PCOD9280598
Probable space group: C 2/C
;
_chemical_formula_sum "Si O2"
_cell_formula_units_Z 24
_cell_length_a 13.161255
_cell_length_b 4.893966
_cell_length_c 18.251313
_cell_angle_alpha 90.000000
_cell_angle_beta 132.692980
_cell_angle_gamma 90.000000
_cell_volume 864.048921
_symmetry_space_group_name_H-M "C 2/C"
_symmetry_group_IT_number 15
_symmetry_cell_setting 'monoclinic'
loop_
_space_group_symop_operation_xyz
x,y,z
-x,y,1/2-z
-x,-y,-z
x,-y,1/2+z
1/2+x,1/2+y,z
1/2-x,1/2+y,1/2-z
1/2-x,1/2-y,-z
1/2+x,1/2-y,1/2+z
loop_
_atom_site_type_symbol
_atom_site_label
_atom_site_fract_x
_atom_site_fract_y
_atom_site_fract_z
Si Si1 0.750000 0.750000 0.500000
Si Si2 0.563713 0.251041 0.434653
Si Si3 0.500000 0.989117 0.250000
Si Si4 0.266559 0.710836 0.811048
O O1 0.620540 0.555788 0.462791
O O2 0.818991 0.472063 0.494340
O O3 0.421882 0.221665 0.409397
O O4 0.516609 0.169997 0.329145
O O5 0.355347 0.822343 0.187677
O O6 0.279439 0.428416 0.772418
#
# Coordination Sequence:
#
# PCOD9280598 Si02
#       4
#     4   8   4   8
#     4  10  22  40  58  84 132 162 184 250 314 352
#     4  10  21  40  61  88 122 159 200 247 300 359
#     4  10  22  40  68  92 114 160 214 252 292 358
#     4  10  21  37  61  93 122 151 201 261 302 345
#
# _framework density 27.776205000000001
#
# number of rings (size 3 to 8) (size 9 to 14) (size 15 to 20)
#    0.000    2.000    0.000    4.000    0.000   12.000 
#    0.000   10.000    0.000    0.000    0.000    0.000 
#    0.000    0.000    0.000    0.000    0.000    0.000 
#
# Total GULP energy -66836.042561 kJ/mol
# GULP energy per Si atom -5569.670213 kJ/mol
# Density = 2.771299 g / cm^3
# Si number density = 27.776205 Si / 1000 Ang^3
#
#
#
# Elastic Constant Matrix: (Units=GPa)
#
#
# Indices 1 2 3 4 5 6 
#
# 1 232.3292 48.3715 58.1285 -0.0003 36.0136 0.0000
# 2 48.3715 154.3767 25.5779 0.0009 18.2261 0.0012
# 3 58.1285 25.5779 94.0238 -0.0001 38.9704 0.0000
# 4 -0.0003 0.0009 -0.0001 -75.8433 -0.0003 10.5161
# 5 36.0136 18.2261 38.9704 -0.0003 64.9374 -0.0001
# 6 0.0000 0.0012 0.0000 10.5161 -0.0001 40.7161
#
#
#
# Elastic Compliance Matrix: (Units=1/GPa)
#
#
# Indices 1 2 3 4 5 6 
#
# 1 0.005347 -0.001122 -0.002531 0.000000 -0.001131 0.000000
# 2 -0.001122 0.007074 -0.000886 0.000000 -0.000831 0.000000
# 3 -0.002531 -0.000886 0.015649 0.000000 -0.007739 0.000000
# 4 0.000000 0.000000 0.000000 -0.012729 0.000000 0.003288
# 5 -0.001131 -0.000831 -0.007739 0.000000 0.020904 0.000000
# 6 0.000000 0.000000 0.000000 0.003288 0.000000 0.023711
#
#
# Mechanical properties :
#
#
# Convention : Reuss Voigt Hill
#
# Bulk Modulus (GPa) = 52.65743 82.76504 67.71124
# Shear Modulus (GPa) = 66.34314 29.20551 47.77433
#
# Velocity S-wave (km/s) = 4.89252 3.24614 4.15176
# Velocity P-wave (km/s) = 7.13544 6.62659 6.88572
#
# Compressibility (1/GPa) = 0.01899067
#
# Stress axis : x y z
#
# Youngs Moduli (GPa) = 187.03604 141.35717 63.90138
#
# Poissons Ratio (x) = 0.15865 0.16175
# Poissons Ratio (y) = 0.20992 0.05662
# Poissons Ratio (z) = 0.47345 0.12524
#
# Static dielectric constant tensor:
#      x y z
#    x 2.154620 0.000000 0.052560 
#    y 0.000000 1.933570 0.000000 
#    z 0.052560 0.000000 1.474890 
# 
# From -- ./inp_files/149521.got.cif
#   From: 2010.05.17/outbox.cif.g08.bks.cpg/sg15_75_cif.got.tgz:149521.got - 2010.06.03 18:47:42.
