data_PCOD9280094
_publ_section_title
;
Structure prediction by ZEFSAII (Michael W. Deem and Ramdas Pophale) SiO2 
 PCOD9280094
Probable space group: C 2/C
;
_chemical_formula_sum "Si O2"
_cell_formula_units_Z 44
_cell_length_a 10.887466
_cell_length_b 15.394966
_cell_length_c 18.714635
_cell_angle_alpha 90.000000
_cell_angle_beta 36.546350
_cell_angle_gamma 90.000000
_cell_volume 1867.879665
_symmetry_space_group_name_H-M "C 2/C"
_symmetry_group_IT_number 15
_symmetry_cell_setting 'monoclinic'
loop_
_space_group_symop_operation_xyz
x,y,z
-x,y,1/2-z
-x,-y,-z
x,-y,1/2+z
1/2+x,1/2+y,z
1/2-x,1/2+y,1/2-z
1/2-x,1/2-y,-z
1/2+x,1/2-y,1/2+z
loop_
_atom_site_type_symbol
_atom_site_label
_atom_site_fract_x
_atom_site_fract_y
_atom_site_fract_z
Si Si1 0.500000 0.890557 0.250000
Si Si2 0.449379 0.324344 0.061721
Si Si3 0.627768 0.630796 0.756400
Si Si4 0.700142 0.837943 0.705263
Si Si5 0.927081 0.454395 0.439375
Si Si6 0.911556 0.374439 0.588181
O O1 0.701216 0.832837 0.173446
O O2 0.410536 0.941982 0.361462
O O3 0.498373 0.374063 0.111482
O O4 0.500992 0.222430 0.042420
O O5 0.589599 0.360436 0.933489
O O6 0.500000 0.599434 0.750000
O O7 0.677298 0.733532 0.724169
O O8 0.837549 0.578770 0.662648
O O9 0.500000 0.864118 0.750000
O O10 0.715548 0.874262 0.778383
O O11 0.922364 0.552077 0.469572
O O12 0.817752 0.397556 0.553673
#
# Coordination Sequence:
#
# PCOD9280094 Si02
#       6
#     4   8   8   8   8   8
#     4  10  24  44  70  88 138 182 210 268 326 404
#     4  10  21  42  64  96 125 170 225 263 323 391
#     4   9  19  35  60  89 124 165 210 269 320 376
#     4  10  21  36  66  94 123 163 216 271 319 384
#     4  10  21  42  60  93 134 171 213 265 335 386
#     4  10  22  39  63  95 128 169 218 272 321 383
#
# _framework density 23.556121000000001
#
# number of rings (size 3 to 8) (size 9 to 14) (size 15 to 20)
#    0.000    2.182    1.818    0.000    3.818    2.909 
#    1.636    5.455    0.000    0.000    0.000    0.000 
#    0.000    0.000    0.000    0.000    0.000    0.000 
#
# Total GULP energy -122615.650443 kJ/mol
# GULP energy per Si atom -5573.438656 kJ/mol
# Density = 2.350251 g / cm^3
# Si number density = 23.556121 Si / 1000 Ang^3
#
#
#
# Elastic Constant Matrix: (Units=GPa)
#
#
# Indices 1 2 3 4 5 6 
#
# 1 79.1184 20.7570 42.4313 0.0003 21.8088 0.0000
# 2 20.7570 55.3944 12.7050 -0.0003 1.9316 0.0000
# 3 42.4313 12.7050 199.0169 0.0000 51.6235 -0.0001
# 4 0.0003 -0.0003 0.0000 17.6959 -0.0005 13.2939
# 5 21.8088 1.9316 51.6235 -0.0005 52.2266 0.0003
# 6 0.0000 0.0000 -0.0001 13.2939 0.0003 7.0369
#
#
#
# Elastic Compliance Matrix: (Units=1/GPa)
#
#
# Indices 1 2 3 4 5 6 
#
# 1 0.016436 -0.005554 -0.001913 0.000001 -0.004767 -0.000002
# 2 -0.005554 0.020213 -0.000691 -0.000001 0.002255 0.000002
# 3 -0.001913 -0.000691 0.007078 0.000001 -0.006171 -0.000001
# 4 0.000001 -0.000001 0.000001 -0.134798 -0.000004 0.254656
# 5 -0.004767 0.002255 -0.006171 -0.000004 0.027155 0.000006
# 6 -0.000002 0.000002 -0.000001 0.254656 0.000006 -0.338979
#
#
# Mechanical properties :
#
#
# Convention : Reuss Voigt Hill
#
# Bulk Modulus (GPa) = 36.48208 53.92403 45.20305
# Shear Modulus (GPa) = -13.24705 32.56764 9.66030
#
# Velocity S-wave (km/s) = -2.37399 3.72231 2.02728
# Velocity P-wave (km/s) = 2.82957 6.43549 4.97102
#
# Compressibility (1/GPa) = 0.02741072
#
# Stress axis : x y z
#
# Youngs Moduli (GPa) = 60.84039 49.47219 141.29239
#
# Poissons Ratio (x) = 0.27476 0.27033
# Poissons Ratio (y) = 0.33790 0.09766
# Poissons Ratio (z) = 0.11640 0.03419
#
# Static dielectric constant tensor:
#      x y z
#    x 1.946350 0.000000 0.094900 
#    y 0.000000 1.891300 0.000000 
#    z 0.094900 0.000000 1.955840 
# 
# From -- ./inp_files/199410.got.cif
#   From: 2010.05.17/outbox.cif.g08.bks.cpg/sg15_100_cif.got.tgz:199410.got - 2010.06.03 18:47:42.
