data_PCOD9280873
_publ_section_title
;
Structure prediction by ZEFSAII (Michael W. Deem and Ramdas Pophale) SiO2 
 PCOD9280873
Probable space group: C 2/C
;
_chemical_formula_sum "Si O2"
_cell_formula_units_Z 44
_cell_length_a 18.366404
_cell_length_b 10.988074
_cell_length_c 31.048773
_cell_angle_alpha 90.000000
_cell_angle_beta 21.219476
_cell_angle_gamma 90.000000
_cell_volume 2267.923968
_symmetry_space_group_name_H-M "C 2/C"
_symmetry_group_IT_number 15
_symmetry_cell_setting 'monoclinic'
loop_
_space_group_symop_operation_xyz
x,y,z
-x,y,1/2-z
-x,-y,-z
x,-y,1/2+z
1/2+x,1/2+y,z
1/2-x,1/2+y,1/2-z
1/2-x,1/2-y,-z
1/2+x,1/2-y,1/2+z
loop_
_atom_site_type_symbol
_atom_site_label
_atom_site_fract_x
_atom_site_fract_y
_atom_site_fract_z
Si Si1 0.564153 0.138367 0.475032
Si Si2 0.366699 0.142217 0.911022
Si Si3 0.368662 0.056295 0.664791
Si Si4 0.500000 0.737472 0.250000
Si Si5 0.891392 0.687798 0.483920
Si Si6 0.909524 0.916135 0.410244
O O1 0.480268 0.146845 0.569639
O O2 0.803477 0.161364 0.342861
O O3 0.446445 0.213632 0.503155
O O4 0.500000 0.000000 0.500000
O O5 0.576410 0.111203 0.819275
O O6 0.416018 0.181987 0.835595
O O7 0.250000 0.250000 0.000000
O O8 0.228164 0.023451 0.994684
O O9 0.138133 0.045951 0.780192
O O10 0.457024 0.920199 0.613317
O O11 0.908228 0.804326 0.444397
O O12 0.678935 0.627579 0.587074
#
# Coordination Sequence:
#
# PCOD9280873 Si02
#       6
#     8   8   8   4   8   8
#     4  10  22  35  61  94 122 162 212 262 315 361
#     4  11  24  42  65  95 124 171 213 258 324 378
#     4  10  21  37  65  93 122 169 213 266 316 369
#     4  12  24  42  66  90 134 160 218 262 306 398
#     4   9  21  39  56  90 125 166 209 261 320 367
#     4  10  22  40  62  87 132 163 212 262 317 386
#
# _framework density 19.401004
#
# number of rings (size 3 to 8) (size 9 to 14) (size 15 to 20)
#    0.000    1.818    1.818    1.091    7.636    0.727 
#    0.000    9.091    0.000    0.000    0.000    0.000 
#    0.000    0.000    0.000    0.000    0.000    0.000 
#
# Total GULP energy -122643.950269 kJ/mol
# GULP energy per Si atom -5574.725012 kJ/mol
# Density = 1.935685 g / cm^3
# Si number density = 19.401004 Si / 1000 Ang^3
#
#
#
# Elastic Constant Matrix: (Units=GPa)
#
#
# Indices 1 2 3 4 5 6 
#
# 1 123.0127 47.0611 47.4094 -0.0015 -15.2000 0.0003
# 2 47.0611 73.0718 28.0263 -0.0020 -6.0697 0.0012
# 3 47.4094 28.0263 101.2706 -0.0204 -27.0721 0.0010
# 4 -0.0015 -0.0020 -0.0204 15.1016 -0.0018 -2.6133
# 5 -15.2000 -6.0697 -27.0721 -0.0018 46.9392 -0.0014
# 6 0.0003 0.0012 0.0010 -2.6133 -0.0014 32.6731
#
#
#
# Elastic Compliance Matrix: (Units=1/GPa)
#
#
# Indices 1 2 3 4 5 6 
#
# 1 0.012061 -0.006289 -0.003640 -0.000004 0.000993 0.000000
# 2 -0.006289 0.018602 -0.002489 -0.000002 -0.001067 -0.000001
# 3 -0.003640 -0.002489 0.014029 0.000019 0.006591 0.000002
# 4 -0.000004 -0.000002 0.000019 0.067148 0.000012 0.005371
# 5 0.000993 -0.001067 0.006591 0.000012 0.025289 0.000002
# 6 0.000000 -0.000001 0.000002 0.005371 0.000002 0.031036
#
#
# Mechanical properties :
#
#
# Convention : Reuss Voigt Hill
#
# Bulk Modulus (GPa) = 50.36433 60.26097 55.31265
# Shear Modulus (GPa) = 25.04768 30.59999 27.82383
#
# Velocity S-wave (km/s) = 3.59702 3.97575 3.79112
# Velocity P-wave (km/s) = 6.57780 7.22521 6.90909
#
# Compressibility (1/GPa) = 0.01985532
#
# Stress axis : x y z
#
# Youngs Moduli (GPa) = 82.91239 53.75904 71.27857
#
# Poissons Ratio (x) = 0.33809 0.25948
# Poissons Ratio (y) = 0.52143 0.17741
# Poissons Ratio (z) = 0.30184 0.13380
#
# Static dielectric constant tensor:
#      x y z
#    x 1.829990 -0.000010 -0.002660 
#    y -0.000010 1.672190 0.000010 
#    z -0.002660 0.000010 1.676360 
# 
# From -- ./inp_files/104099.got.cif
#   From: 2010.05.17/outbox.cif.g08.bks.cpg/sg15_53_cif.got.tgz:104099.got - 2010.06.03 18:47:42.
