data_PCOD9280484
_publ_section_title
;
Structure prediction by ZEFSAII (Michael W. Deem and Ramdas Pophale) SiO2 
 PCOD9280484
Probable space group: C 2/C
;
_chemical_formula_sum "Si O2"
_cell_formula_units_Z 44
_cell_length_a 15.096565
_cell_length_b 20.001451
_cell_length_c 7.911908
_cell_angle_alpha 90.000000
_cell_angle_beta 66.150371
_cell_angle_gamma 90.000000
_cell_volume 2185.026520
_symmetry_space_group_name_H-M "C 2/C"
_symmetry_group_IT_number 15
_symmetry_cell_setting 'monoclinic'
loop_
_space_group_symop_operation_xyz
x,y,z
-x,y,1/2-z
-x,-y,-z
x,-y,1/2+z
1/2+x,1/2+y,z
1/2-x,1/2+y,1/2-z
1/2-x,1/2-y,-z
1/2+x,1/2-y,1/2+z
loop_
_atom_site_type_symbol
_atom_site_label
_atom_site_fract_x
_atom_site_fract_y
_atom_site_fract_z
Si Si1 0.100847 0.585763 0.447343
Si Si2 0.913326 0.208259 0.958357
Si Si3 0.261885 0.172562 0.589486
Si Si4 0.675088 0.224941 0.416906
Si Si5 0.000000 0.776025 0.750000
Si Si6 0.619551 0.936922 0.330994
O O1 0.161422 0.651210 0.349078
O O2 0.132470 0.516144 0.340377
O O3 0.116656 0.579660 0.635952
O O4 0.984403 0.585698 0.510732
O O5 0.819866 0.162375 0.989951
O O6 0.000000 0.205299 0.750000
O O7 0.859945 0.281691 0.997910
O O8 0.949824 0.190967 0.121978
O O9 0.196144 0.219524 0.761797
O O10 0.296909 0.104529 0.643641
O O11 0.750000 0.250000 0.500000
O O12 0.576256 0.231044 0.594808
#
# Coordination Sequence:
#
# PCOD9280484 Si02
#       6
#     8   8   8   8   4   8
#     4  10  21  37  60  90 128 179 202 257 335 399
#     4  11  23  37  58  91 128 169 212 268 330 377
#     4  11  23  38  59  96 129 164 223 276 316 393
#     4  12  21  37  67  93 128 171 222 269 325 381
#     4  12  22  40  60  92 136 162 208 278 322 384
#     4  10  21  39  57  90 135 164 210 260 326 407
#
# _framework density 20.137055
#
# number of rings (size 3 to 8) (size 9 to 14) (size 15 to 20)
#    0.000    1.091    5.455    2.182    0.000    2.909 
#    3.273    0.000    0.000    0.000    2.364    5.091 
#    0.000    0.000    0.000    0.000    0.000    0.000 
#
# Total GULP energy -122477.442324 kJ/mol
# GULP energy per Si atom -5567.156469 kJ/mol
# Density = 2.009122 g / cm^3
# Si number density = 20.137055 Si / 1000 Ang^3
#
#
#
# Elastic Constant Matrix: (Units=GPa)
#
#
# Indices 1 2 3 4 5 6 
#
# 1 145.5384 61.0560 34.4583 0.0000 13.6374 0.0000
# 2 61.0560 99.5445 24.4971 0.0000 -11.1749 0.0000
# 3 34.4583 24.4971 101.1561 0.0000 -13.5723 0.0000
# 4 0.0000 0.0000 0.0000 34.1146 0.0000 -3.7628
# 5 13.6374 -11.1749 -13.5723 0.0000 41.0018 0.0000
# 6 0.0000 0.0000 0.0000 -3.7628 0.0000 40.1460
#
#
#
# Elastic Compliance Matrix: (Units=1/GPa)
#
#
# Indices 1 2 3 4 5 6 
#
# 1 0.011021 -0.006753 -0.002990 0.000000 -0.006496 0.000000
# 2 -0.006753 0.015005 -0.000506 0.000000 0.006168 0.000000
# 3 -0.002990 -0.000506 0.011660 0.000000 0.004716 0.000000
# 4 0.000000 0.000000 0.000000 0.029619 0.000000 0.002776
# 5 -0.006496 0.006168 0.004716 0.000000 0.029792 0.000000
# 6 0.000000 0.000000 0.000000 0.002776 0.000000 0.025169
#
#
# Mechanical properties :
#
#
# Convention : Reuss Voigt Hill
#
# Bulk Modulus (GPa) = 58.18386 65.14017 61.66202
# Shear Modulus (GPa) = 33.67174 38.13431 35.90302
#
# Velocity S-wave (km/s) = 4.09360 4.35643 4.22706
# Velocity P-wave (km/s) = 7.16241 7.59758 7.38320
#
# Compressibility (1/GPa) = 0.01718690
#
# Stress axis : x y z
#
# Youngs Moduli (GPa) = 90.73821 66.64625 85.76602
#
# Poissons Ratio (x) = 0.45006 0.25647
# Poissons Ratio (y) = 0.61275 0.04338
# Poissons Ratio (z) = 0.27134 0.03371
#
# Static dielectric constant tensor:
#      x y z
#    x 1.716150 0.000000 0.004490 
#    y 0.000000 1.756310 0.000000 
#    z 0.004490 0.000000 1.789080 
# 
# From -- ./inp_files/40606.got.cif
#   From: 2010.05.17/outbox.cif.g08.bks.cpg/sg15_21_cif.got.tgz:40606.got - 2010.06.03 18:47:42.
