data_PCOD9280176
_publ_section_title
;
Structure prediction by ZEFSAII (Michael W. Deem and Ramdas Pophale) SiO2 
 PCOD9280176
Probable space group: C 2/C
;
_chemical_formula_sum "Si O2"
_cell_formula_units_Z 60
_cell_length_a 30.252005
_cell_length_b 9.069101
_cell_length_c 9.975170
_cell_angle_alpha 90.000000
_cell_angle_beta 106.538424
_cell_angle_gamma 90.000000
_cell_volume 2623.549689
_symmetry_space_group_name_H-M "C 2/C"
_symmetry_group_IT_number 15
_symmetry_cell_setting 'monoclinic'
loop_
_space_group_symop_operation_xyz
x,y,z
-x,y,1/2-z
-x,-y,-z
x,-y,1/2+z
1/2+x,1/2+y,z
1/2-x,1/2+y,1/2-z
1/2-x,1/2-y,-z
1/2+x,1/2-y,1/2+z
loop_
_atom_site_type_symbol
_atom_site_label
_atom_site_fract_x
_atom_site_fract_y
_atom_site_fract_z
Si Si1 0.000000 0.471427 0.750000
Si Si2 0.609727 0.817670 0.089986
Si Si3 0.054846 0.413950 0.548919
Si Si4 0.846429 0.227492 0.616236
Si Si5 0.205664 0.010948 0.135001
Si Si6 0.145374 0.729223 0.010469
Si Si7 0.132505 0.067466 0.260086
Si Si8 0.310989 0.971838 0.168059
O O1 0.972191 0.372530 0.837918
O O2 0.970314 0.570885 0.617905
O O3 0.606271 0.643868 0.115811
O O4 0.654646 0.886867 0.201888
O O5 0.567658 0.916051 0.094860
O O6 0.619203 0.825972 0.941929
O O7 0.103874 0.335757 0.562843
O O8 0.820169 0.352528 0.675060
O O9 0.811287 0.132812 0.489501
O O10 0.875408 0.099683 0.711276
O O11 0.258089 0.965083 0.165141
O O12 0.186836 0.072467 0.261197
O O13 0.177076 0.859437 0.095582
O O14 0.121825 0.821794 0.869833
O O15 0.176927 0.604489 0.965026
#
# Coordination Sequence:
#
# PCOD9280176 Si02
#       8
#     4   8   8   8   8   8   8   8
#     4  10  24  40  74 110 134 162 210 314 366 456
#     4  10  22  38  60  91 128 166 225 279 337 415
#     4  11  22  44  69 107 138 165 228 288 385 417
#     4  10  21  37  55  83 121 184 224 280 316 388
#     4  10  22  36  54  86 131 185 240 268 330 391
#     4  10  21  38  60  88 132 174 223 287 343 408
#     4   9  21  37  53  83 127 177 228 273 331 384
#     4  11  21  35  56  88 131 180 239 290 319 373
#
# _framework density 22.869779000000001
#
# number of rings (size 3 to 8) (size 9 to 14) (size 15 to 20)
#    0.000    1.867    1.333    2.400    1.867    5.333 
#    0.000    0.000    0.000    0.000    0.000  108.267 
#    0.000    0.000    0.000    0.000    0.000    0.000 
#
# Total GULP energy -167149.319488 kJ/mol
# GULP energy per Si atom -5571.643983 kJ/mol
# Density = 2.281773 g / cm^3
# Si number density = 22.869779 Si / 1000 Ang^3
#
#
#
# Elastic Constant Matrix: (Units=GPa)
#
#
# Indices 1 2 3 4 5 6 
#
# 1 110.9936 34.1963 43.1739 0.0000 -19.0997 0.0000
# 2 34.1963 113.7888 21.7914 0.0000 -5.0587 0.0000
# 3 43.1739 21.7914 81.3235 0.0000 -11.1405 0.0000
# 4 0.0000 0.0000 0.0000 48.1869 0.0000 -11.6512
# 5 -19.0997 -5.0587 -11.1405 0.0000 35.4341 0.0000
# 6 0.0000 0.0000 0.0000 -11.6512 0.0000 20.7408
#
#
#
# Elastic Compliance Matrix: (Units=1/GPa)
#
#
# Indices 1 2 3 4 5 6 
#
# 1 0.012734 -0.002577 -0.005413 0.000000 0.004794 0.000000
# 2 -0.002577 0.009796 -0.001312 0.000000 -0.000403 0.000000
# 3 -0.005413 -0.001312 0.015776 0.000000 0.001855 0.000000
# 4 0.000000 0.000000 0.000000 0.024014 0.000000 0.013490
# 5 0.004794 -0.000403 0.001855 0.000000 0.031331 0.000000
# 6 0.000000 0.000000 0.000000 0.013490 0.000000 0.055792
#
#
# Mechanical properties :
#
#
# Convention : Reuss Voigt Hill
#
# Bulk Modulus (GPa) = 50.75706 56.04766 53.40236
# Shear Modulus (GPa) = 28.63435 34.66865 31.65150
#
# Velocity S-wave (km/s) = 3.54229 3.89770 3.72423
# Velocity P-wave (km/s) = 6.24280 6.69452 6.47260
#
# Compressibility (1/GPa) = 0.01970169
#
# Stress axis : x y z
#
# Youngs Moduli (GPa) = 78.52957 102.08212 63.38746
#
# Poissons Ratio (x) = 0.26308 0.34312
# Poissons Ratio (y) = 0.20238 0.08316
# Poissons Ratio (z) = 0.42509 0.13393
#
# Static dielectric constant tensor:
#      x y z
#    x 1.877300 0.000000 -0.051060 
#    y 0.000000 1.866940 0.000000 
#    z -0.051060 0.000000 2.079880 
# 
# From -- ./inp_files/125608.got.cif
#   From: 2010.05.17/outbox.cif.g08.bks.cpg/sg15_63_cif.got.tgz:125608.got - 2010.06.03 18:47:42.
