data_PCOD9280082
_publ_section_title
;
Structure prediction by ZEFSAII (Michael W. Deem and Ramdas Pophale) SiO2 
 PCOD9280082
Probable space group: C 2/C
;
_chemical_formula_sum "Si O2"
_cell_formula_units_Z 44
_cell_length_a 7.046625
_cell_length_b 16.764199
_cell_length_c 18.066925
_cell_angle_alpha 90.000000
_cell_angle_beta 127.660670
_cell_angle_gamma 90.000000
_cell_volume 1689.575690
_symmetry_space_group_name_H-M "C 2/C"
_symmetry_group_IT_number 15
_symmetry_cell_setting 'monoclinic'
loop_
_space_group_symop_operation_xyz
x,y,z
-x,y,1/2-z
-x,-y,-z
x,-y,1/2+z
1/2+x,1/2+y,z
1/2-x,1/2+y,1/2-z
1/2-x,1/2-y,-z
1/2+x,1/2-y,1/2+z
loop_
_atom_site_type_symbol
_atom_site_label
_atom_site_fract_x
_atom_site_fract_y
_atom_site_fract_z
Si Si1 0.328362 0.467611 0.138656
Si Si2 0.000000 0.279477 0.750000
Si Si3 0.964361 0.626427 0.470872
Si Si4 0.791383 0.929245 0.398811
Si Si5 0.277850 0.601074 0.406156
Si Si6 0.260494 0.240040 0.663945
O O1 0.500000 0.465187 0.250000
O O2 0.205730 0.553467 0.095490
O O3 0.509419 0.448167 0.115605
O O4 0.110905 0.403069 0.077850
O O5 0.787452 0.339389 0.674280
O O6 0.913701 0.235586 0.804660
O O7 0.836774 0.710732 0.429638
O O8 0.162368 0.635593 0.452893
O O9 0.673321 0.847633 0.347971
O O10 0.943575 0.912648 0.509614
O O11 0.657306 0.013357 0.369693
O O12 0.500000 0.281782 0.750000
#
# Coordination Sequence:
#
# PCOD9280082 Si02
#       6
#     8   4   8   8   8   8
#     4  10  21  36  65  95 125 176 222 267 322 404
#     4  10  24  42  68  94 132 176 224 258 344 400
#     4   9  21  41  63  94 131 172 222 270 334 393
#     4  10  23  41  64  93 131 164 223 269 335 387
#     4   9  21  42  66  89 128 177 211 272 323 402
#     4  11  25  44  66 100 135 173 215 286 336 390
#
# _framework density 26.042041999999999
#
# number of rings (size 3 to 8) (size 9 to 14) (size 15 to 20)
#    0.000    2.182    0.000    0.545   10.182    6.545 
#    0.000    0.909    0.000    0.000    0.000    0.000 
#    0.000    0.000    0.000    0.000    0.000    0.000 
#
# Total GULP energy -122966.110731 kJ/mol
# GULP energy per Si atom -5589.368670 kJ/mol
# Density = 2.598277 g / cm^3
# Si number density = 26.042042 Si / 1000 Ang^3
#
#
#
# Elastic Constant Matrix: (Units=GPa)
#
#
# Indices 1 2 3 4 5 6 
#
# 1 59.7855 4.5849 17.2526 0.0000 -10.3949 0.0000
# 2 4.5849 90.6712 38.6931 0.0000 -7.0178 0.0000
# 3 17.2526 38.6931 174.3620 0.0000 -0.3646 0.0000
# 4 0.0000 0.0000 0.0000 29.4796 0.0000 -3.5862
# 5 -10.3949 -7.0178 -0.3646 0.0000 28.3407 0.0000
# 6 0.0000 0.0000 0.0000 -3.5862 0.0000 28.4981
#
#
#
# Elastic Compliance Matrix: (Units=1/GPa)
#
#
# Indices 1 2 3 4 5 6 
#
# 1 0.018432 0.000408 -0.001900 0.000000 0.006837 0.000000
# 2 0.000408 0.012449 -0.002796 0.000000 0.003196 0.000000
# 3 -0.001900 -0.002796 0.006541 0.000000 -0.001305 0.000000
# 4 0.000000 0.000000 0.000000 0.034449 0.000000 0.004335
# 5 0.006837 0.003196 -0.001305 0.000000 0.038567 0.000000
# 6 0.000000 0.000000 0.000000 0.004335 0.000000 0.035636
#
#
# Mechanical properties :
#
#
# Convention : Reuss Voigt Hill
#
# Bulk Modulus (GPa) = 34.66742 49.54222 42.10482
# Shear Modulus (GPa) = 30.43838 34.88287 32.66063
#
# Velocity S-wave (km/s) = 3.42251 3.66387 3.54524
# Velocity P-wave (km/s) = 5.38136 6.07978 5.74120
#
# Compressibility (1/GPa) = 0.02884553
#
# Stress axis : x y z
#
# Youngs Moduli (GPa) = 54.25260 80.32842 152.88197
#
# Poissons Ratio (x) = -0.03277 0.29049
# Poissons Ratio (y) = -0.02213 0.42750
# Poissons Ratio (z) = 0.10308 0.22462
#
# Static dielectric constant tensor:
#      x y z
#    x 2.142060 0.000000 0.051950 
#    y 0.000000 2.057540 0.000000 
#    z 0.051950 0.000000 2.109920 
# 
# From -- ./inp_files/232378.got.cif
#   From: 2010.05.17/outbox.cif.g08.bks.cpg/sg15_117_cif.got.tgz:232378.got - 2010.06.03 18:47:42.
