data_PCOD9280635
_publ_section_title
;
Structure prediction by ZEFSAII (Michael W. Deem and Ramdas Pophale) SiO2 
 PCOD9280635
Probable space group: C 2/C
;
_chemical_formula_sum "Si O2"
_cell_formula_units_Z 56
_cell_length_a 14.985422
_cell_length_b 10.811374
_cell_length_c 19.213543
_cell_angle_alpha 90.000000
_cell_angle_beta 131.708070
_cell_angle_gamma 90.000000
_cell_volume 2323.876334
_symmetry_space_group_name_H-M "C 2/C"
_symmetry_group_IT_number 15
_symmetry_cell_setting 'monoclinic'
loop_
_space_group_symop_operation_xyz
x,y,z
-x,y,1/2-z
-x,-y,-z
x,-y,1/2+z
1/2+x,1/2+y,z
1/2-x,1/2+y,1/2-z
1/2-x,1/2-y,-z
1/2+x,1/2-y,1/2+z
loop_
_atom_site_type_symbol
_atom_site_label
_atom_site_fract_x
_atom_site_fract_y
_atom_site_fract_z
Si Si1 0.889025 0.466761 0.559277
Si Si2 0.214320 0.898361 0.346476
Si Si3 0.278286 0.173588 0.584358
Si Si4 0.460214 0.631617 0.953515
Si Si5 0.350170 0.656659 0.241386
Si Si6 0.445706 0.819407 0.404727
Si Si7 0.893423 0.282612 0.798090
O O1 0.781293 0.415269 0.455204
O O2 0.833598 0.541453 0.594868
O O3 0.952543 0.578102 0.548235
O O4 0.996307 0.376787 0.638413
O O5 0.320497 0.889398 0.343783
O O6 0.144622 0.769799 0.297057
O O7 0.142383 0.021325 0.288317
O O8 0.250000 0.250000 0.500000
O O9 0.156413 0.157621 0.562272
O O10 0.353772 0.252292 0.677671
O O11 0.548632 0.740580 0.022152
O O12 0.500000 0.500000 0.000000
O O13 0.432391 0.657441 0.859447
O O14 0.444738 0.715545 0.344260
O O15 0.223326 0.666811 0.219453
#
# Coordination Sequence:
#
# PCOD9280635 Si02
#       7
#     8   8   8   8   8   8   8
#     4  12  21  41  69 102 146 183 224 294 365 406
#     4  11  20  37  67 101 138 189 236 288 336 426
#     4  11  22  40  67 104 134 174 229 284 347 417
#     4  11  22  41  65  98 138 179 231 284 337 409
#     4  10  21  37  62 105 137 173 235 289 332 420
#     4  11  21  35  68 100 135 186 231 286 349 408
#     4  10  22  38  65 104 135 184 237 282 344 413
#
# _framework density 24.097669
#
# number of rings (size 3 to 8) (size 9 to 14) (size 15 to 20)
#    0.000    1.143    5.714    2.143    0.000    0.571 
#    0.000    0.714    0.000    0.000    0.000    0.000 
#    0.000    0.000    0.000    0.000    0.000    0.000 
#
# Total GULP energy -156463.901539 kJ/mol
# GULP energy per Si atom -5587.996484 kJ/mol
# Density = 2.404282 g / cm^3
# Si number density = 24.097669 Si / 1000 Ang^3
#
#
#
# Elastic Constant Matrix: (Units=GPa)
#
#
# Indices 1 2 3 4 5 6 
#
# 1 35.3160 26.4119 20.2979 0.0000 -0.9305 0.0000
# 2 26.4119 120.1036 52.9586 0.0000 11.5988 0.0000
# 3 20.2979 52.9586 122.1573 0.0000 4.3135 0.0000
# 4 0.0000 0.0000 0.0000 45.5440 0.0000 -4.4269
# 5 -0.9305 11.5988 4.3135 0.0000 15.5773 0.0000
# 6 0.0000 0.0000 0.0000 -4.4269 0.0000 28.1133
#
#
#
# Elastic Compliance Matrix: (Units=1/GPa)
#
#
# Indices 1 2 3 4 5 6 
#
# 1 0.035784 -0.007334 -0.003065 0.000000 0.008447 0.000000
# 2 -0.007334 0.012491 -0.003891 0.000000 -0.008661 0.000000
# 3 -0.003065 -0.003891 0.010388 0.000000 -0.000163 0.000000
# 4 0.000000 0.000000 0.000000 0.022298 0.000000 0.003511
# 5 0.008447 -0.008661 -0.000163 0.000000 0.071195 0.000000
# 6 0.000000 0.000000 0.000000 0.003511 0.000000 0.036123
#
#
# Mechanical properties :
#
#
# Convention : Reuss Voigt Hill
#
# Bulk Modulus (GPa) = 33.23951 52.99042 43.11497
# Shear Modulus (GPa) = 22.03747 29.70749 25.87248
#
# Velocity S-wave (km/s) = 3.02736 3.51493 3.28022
# Velocity P-wave (km/s) = 5.10328 6.20569 5.68129
#
# Compressibility (1/GPa) = 0.03008468
#
# Stress axis : x y z
#
# Youngs Moduli (GPa) = 27.94507 80.05818 96.26548
#
# Poissons Ratio (x) = 0.58711 0.29505
# Poissons Ratio (y) = 0.20494 0.37455
# Poissons Ratio (z) = 0.08565 0.31149
#
# Static dielectric constant tensor:
#      x y z
#    x 1.954030 0.000000 0.022860 
#    y 0.000000 1.880580 0.000000 
#    z 0.022860 0.000000 2.039210 
# 
# From -- ./inp_files/248423.got.cif
#   From: 2010.05.17/outbox.cif.g08.bks.cpg/sg15_125_cif.got.tgz:248423.got - 2010.06.03 18:47:42.
