data_PCOD9280074
_publ_section_title
;
Structure prediction by ZEFSAII (Michael W. Deem and Ramdas Pophale) SiO2 
 PCOD9280074
Probable space group: C 2/C
;
_chemical_formula_sum "Si O2"
_cell_formula_units_Z 64
_cell_length_a 18.207746
_cell_length_b 14.037603
_cell_length_c 14.631136
_cell_angle_alpha 90.000000
_cell_angle_beta 50.544245
_cell_angle_gamma 90.000000
_cell_volume 2887.416848
_symmetry_space_group_name_H-M "C 2/C"
_symmetry_group_IT_number 15
_symmetry_cell_setting 'monoclinic'
loop_
_space_group_symop_operation_xyz
x,y,z
-x,y,1/2-z
-x,-y,-z
x,-y,1/2+z
1/2+x,1/2+y,z
1/2-x,1/2+y,1/2-z
1/2-x,1/2-y,-z
1/2+x,1/2-y,1/2+z
loop_
_atom_site_type_symbol
_atom_site_label
_atom_site_fract_x
_atom_site_fract_y
_atom_site_fract_z
Si Si1 0.606742 0.025253 0.942666
Si Si2 0.904485 0.957202 0.381590
Si Si3 0.103655 0.159997 0.014290
Si Si4 0.113289 0.679688 0.652520
Si Si5 0.192229 0.529439 0.060877
Si Si6 0.271542 0.888186 0.766119
Si Si7 0.220115 0.687055 0.744616
Si Si8 0.562534 0.404366 0.952816
O O1 0.656118 0.110185 0.846945
O O2 0.663952 0.930762 0.865133
O O3 0.616820 0.052557 0.041243
O O4 0.500000 0.000000 0.000000
O O5 0.906964 0.066693 0.414688
O O6 0.000000 0.942362 0.250000
O O7 0.795918 0.948493 0.434269
O O8 0.914259 0.886691 0.460178
O O9 0.185830 0.142361 0.875623
O O10 0.003083 0.173125 0.042950
O O11 0.128264 0.249314 0.056977
O O12 0.171157 0.582094 0.594161
O O13 0.155790 0.724440 0.711263
O O14 0.000000 0.661233 0.750000
O O15 0.193286 0.576452 0.161378
O O16 0.258357 0.774733 0.773792
O O17 0.164546 0.923816 0.829611
O O18 0.500000 0.500000 0.000000
#
# Coordination Sequence:
#
# PCOD9280074 Si02
#       8
#     8   8   8   8   8   8   8   8
#     4  12  27  47  75 105 143 201 245 297 371 437
#     4  10  21  36  64  99 133 180 225 289 373 439
#     4  11  22  38  62 104 137 176 232 301 362 428
#     4  12  23  41  68 104 139 185 243 312 366 435
#     4  11  25  44  70  98 143 184 243 294 370 436
#     4  11  25  46  68 101 142 187 235 303 358 432
#     4  12  25  44  70 101 149 186 243 300 365 434
#     4   9  20  39  62  92 137 172 221 285 360 428
#
# _framework density 22.165141999999999
#
# number of rings (size 3 to 8) (size 9 to 14) (size 15 to 20)
#    0.000    1.000    2.500    4.500    7.000    1.500 
#    0.000    0.000    0.000    1.500    0.000    0.000 
#    0.000    0.000    0.000    0.000    0.000    0.000 
#
# Total GULP energy -178743.898497 kJ/mol
# GULP energy per Si atom -5585.746828 kJ/mol
# Density = 2.211469 g / cm^3
# Si number density = 22.165142 Si / 1000 Ang^3
#
#
#
# Elastic Constant Matrix: (Units=GPa)
#
#
# Indices 1 2 3 4 5 6 
#
# 1 144.6655 26.2320 20.7028 0.0000 1.7157 0.0000
# 2 26.2320 75.8123 12.5378 0.0000 19.8345 0.0000
# 3 20.7028 12.5378 52.9840 0.0000 -6.7380 0.0000
# 4 0.0000 0.0000 0.0000 22.6771 0.0000 10.2980
# 5 1.7157 19.8345 -6.7380 0.0000 36.0357 0.0000
# 6 0.0000 0.0000 0.0000 10.2980 0.0000 36.0446
#
#
#
# Elastic Compliance Matrix: (Units=1/GPa)
#
#
# Indices 1 2 3 4 5 6 
#
# 1 0.007680 -0.002400 -0.002368 0.000000 0.000513 0.000000
# 2 -0.002400 0.017475 -0.004513 0.000000 -0.010348 0.000000
# 3 -0.002368 -0.004513 0.021713 0.000000 0.006657 0.000000
# 4 0.000000 0.000000 0.000000 0.050672 0.000000 -0.014477
# 5 0.000513 -0.010348 0.006657 0.000000 0.034666 0.000000
# 6 0.000000 0.000000 0.000000 -0.014477 0.000000 0.031880
#
#
# Mechanical properties :
#
#
# Convention : Reuss Voigt Hill
#
# Bulk Modulus (GPa) = 35.32811 43.60075 39.46443
# Shear Modulus (GPa) = 26.03032 33.21741 29.62387
#
# Velocity S-wave (km/s) = 3.43064 3.87542 3.65979
# Velocity P-wave (km/s) = 5.62722 6.30387 5.97513
#
# Compressibility (1/GPa) = 0.02830607
#
# Stress axis : x y z
#
# Youngs Moduli (GPa) = 130.20011 57.22593 46.05452
#
# Poissons Ratio (x) = 0.13734 0.10905
# Poissons Ratio (y) = 0.31249 0.20785
# Poissons Ratio (z) = 0.30830 0.25827
#
# Static dielectric constant tensor:
#      x y z
#    x 1.877770 0.000000 -0.001640 
#    y 0.000000 1.836700 0.000000 
#    z -0.001640 0.000000 1.839790 
# 
# From -- ./inp_files/162552.got.cif
#   From: 2010.05.17/outbox.cif.g08.bks.cpg/sg15_82_cif.got.tgz:162552.got - 2010.06.03 18:47:42.
