data_PCOD9280866
_publ_section_title
;
Structure prediction by ZEFSAII (Michael W. Deem and Ramdas Pophale) SiO2 
 PCOD9280866
Probable space group: C 2/C
;
_chemical_formula_sum "Si O2"
_cell_formula_units_Z 64
_cell_length_a 18.695297
_cell_length_b 19.778102
_cell_length_c 11.295244
_cell_angle_alpha 90.000000
_cell_angle_beta 43.525354
_cell_angle_gamma 90.000000
_cell_volume 2876.253947
_symmetry_space_group_name_H-M "C 2/C"
_symmetry_group_IT_number 15
_symmetry_cell_setting 'monoclinic'
loop_
_space_group_symop_operation_xyz
x,y,z
-x,y,1/2-z
-x,-y,-z
x,-y,1/2+z
1/2+x,1/2+y,z
1/2-x,1/2+y,1/2-z
1/2-x,1/2-y,-z
1/2+x,1/2-y,1/2+z
loop_
_atom_site_type_symbol
_atom_site_label
_atom_site_fract_x
_atom_site_fract_y
_atom_site_fract_z
Si Si1 0.871463 0.825762 0.630294
Si Si2 0.403773 0.674128 0.639095
Si Si3 0.572241 0.909689 0.321569
Si Si4 0.395245 0.186066 0.298431
Si Si5 0.328171 0.043859 0.269595
Si Si6 0.686667 0.821724 0.356245
Si Si7 0.385061 0.422182 0.383517
Si Si8 0.838353 0.609243 0.032629
O O1 0.865950 0.745894 0.625515
O O2 0.879824 0.863981 0.492700
O O3 0.761465 0.846006 0.817028
O O4 0.983769 0.839689 0.552471
O O5 0.403391 0.747107 0.707904
O O6 0.305080 0.673485 0.672713
O O7 0.383428 0.615719 0.760431
O O8 0.618546 0.882607 0.388315
O O9 0.458701 0.880199 0.429996
O O10 0.583061 0.990693 0.304976
O O11 0.648676 0.890412 0.122840
O O12 0.500000 0.179418 0.250000
O O13 0.365256 0.118914 0.262648
O O14 0.311217 0.188363 0.504697
O O15 0.217174 0.033480 0.467106
O O16 0.312746 0.043799 0.145782
O O17 0.500000 0.455091 0.250000
#
# Coordination Sequence:
#
# PCOD9280866 Si02
#       8
#     8   8   8   8   8   8   8   8
#     4  10  21  37  65  91 130 166 207 264 332 381
#     4  11  19  36  61 105 136 157 208 269 333 392
#     4  11  27  44  63  91 126 179 224 264 313 397
#     4  12  21  34  64 106 136 163 205 272 336 377
#     4  11  23  38  66  93 128 175 215 267 319 378
#     4  12  23  36  63  97 134 166 210 263 330 387
#     4   9  17  34  58  95 130 167 198 262 330 379
#     4  10  24  47  63  85 129 170 222 266 320 381
#
# _framework density 22.251165
#
# number of rings (size 3 to 8) (size 9 to 14) (size 15 to 20)
#    0.000    1.250    3.750    3.375    5.250    0.500 
#    0.000    1.875    0.000    4.500    0.000    0.000 
#    0.000    0.000    0.000    0.000    0.000    0.000 
#
# Total GULP energy -178367.707027 kJ/mol
# GULP energy per Si atom -5573.990845 kJ/mol
# Density = 2.220052 g / cm^3
# Si number density = 22.251165 Si / 1000 Ang^3
#
#
#
# Elastic Constant Matrix: (Units=GPa)
#
#
# Indices 1 2 3 4 5 6 
#
# 1 64.6343 7.5952 28.3766 0.0000 -37.9309 0.0000
# 2 7.5952 37.2100 23.7457 0.0000 -10.9944 0.0000
# 3 28.3766 23.7457 138.5271 0.0000 -32.5804 0.0000
# 4 0.0000 0.0000 0.0000 5.5355 0.0000 1.7435
# 5 -37.9309 -10.9944 -32.5804 0.0000 45.0096 0.0000
# 6 0.0000 0.0000 0.0000 1.7435 0.0000 2.6540
#
#
#
# Elastic Compliance Matrix: (Units=1/GPa)
#
#
# Indices 1 2 3 4 5 6 
#
# 1 0.030711 0.001705 -0.000480 0.000000 0.025950 0.000000
# 2 0.001705 0.031001 -0.004272 0.000000 0.005918 0.000000
# 3 -0.000480 -0.004272 0.009290 0.000000 0.005277 0.000000
# 4 0.000000 0.000000 0.000000 0.227784 0.000000 -0.149642
# 5 0.025950 0.005918 0.005277 0.000000 0.049352 0.000000
# 6 0.000000 0.000000 0.000000 -0.149642 0.000000 0.475098
#
#
# Mechanical properties :
#
#
# Convention : Reuss Voigt Hill
#
# Bulk Modulus (GPa) = 15.40614 39.97851 27.69232
# Shear Modulus (GPa) = 5.87568 22.68341 14.27955
#
# Velocity S-wave (km/s) = 1.62676 3.19631 2.53601
# Velocity P-wave (km/s) = 3.23531 5.62386 4.58776
#
# Compressibility (1/GPa) = 0.06490920
#
# Stress axis : x y z
#
# Youngs Moduli (GPa) = 32.56173 32.25726 107.63739
#
# Poissons Ratio (x) = -0.05500 0.05167
# Poissons Ratio (y) = -0.05552 0.45978
# Poissons Ratio (z) = 0.01563 0.13779
#
# Static dielectric constant tensor:
#      x y z
#    x 1.877760 0.000000 -0.020480 
#    y 0.000000 1.826070 0.000000 
#    z -0.020480 0.000000 1.924950 
# 
# From -- ./inp_files/114263.got.cif
#   From: 2010.05.17/outbox.cif.g08.bks.cpg/sg15_58_cif.got.tgz:114263.got - 2010.06.03 18:47:42.
