data_PCOD9280397
_publ_section_title
;
Structure prediction by ZEFSAII (Michael W. Deem and Ramdas Pophale) SiO2 
 PCOD9280397
Probable space group: C 2/C
;
_chemical_formula_sum "Si O2"
_cell_formula_units_Z 48
_cell_length_a 11.337890
_cell_length_b 12.978906
_cell_length_c 17.494431
_cell_angle_alpha 90.000000
_cell_angle_beta 109.237090
_cell_angle_gamma 90.000000
_cell_volume 2430.621054
_symmetry_space_group_name_H-M "C 2/C"
_symmetry_group_IT_number 15
_symmetry_cell_setting 'monoclinic'
loop_
_space_group_symop_operation_xyz
x,y,z
-x,y,1/2-z
-x,-y,-z
x,-y,1/2+z
1/2+x,1/2+y,z
1/2-x,1/2+y,1/2-z
1/2-x,1/2-y,-z
1/2+x,1/2-y,1/2+z
loop_
_atom_site_type_symbol
_atom_site_label
_atom_site_fract_x
_atom_site_fract_y
_atom_site_fract_z
Si Si1 0.874165 0.934646 0.498893
Si Si2 0.699762 0.548655 0.676027
Si Si3 0.625920 0.941264 0.001545
Si Si4 0.281489 0.187678 0.834283
Si Si5 0.975184 0.865358 0.832667
Si Si6 0.610016 0.867230 0.832348
O O1 0.832995 0.888023 0.408058
O O2 0.917545 0.866292 0.579820
O O3 0.751644 0.995978 0.503190
O O4 0.000000 0.000000 0.500000
O O5 0.755951 0.615670 0.755985
O O6 0.581477 0.481316 0.678102
O O7 0.792376 0.457428 0.668906
O O8 0.586447 0.879319 0.917128
O O9 0.669759 0.874635 0.082814
O O10 0.500000 0.000000 0.000000
O O11 0.379668 0.277451 0.837407
O O12 0.159054 0.252329 0.829048
O O13 0.000000 0.842726 0.750000
O O14 0.500000 0.885271 0.750000
#
# Coordination Sequence:
#
# PCOD9280397 Si02
#       6
#     8   8   8   8   8   8
#     4   9  20  40  64  86 115 159 205 249 296 358
#     4   9  20  39  59  84 119 159 202 252 310 359
#     4  11  23  40  64  90 124 166 202 251 313 366
#     4  11  23  38  60  89 123 163 205 253 304 363
#     4  10  21  37  59  88 120 156 206 254 298 365
#     4  10  22  38  59  89 121 157 208 255 300 367
#
# _framework density 19.748038000000001
#
# number of rings (size 3 to 8) (size 9 to 14) (size 15 to 20)
#    0.000    2.000    0.000    3.500    0.000    9.333 
#    0.000    1.667    0.000    0.000    0.000    0.000 
#    0.000    0.000    0.000    0.000    0.000    0.000 
#
# Total GULP energy -133676.125251 kJ/mol
# GULP energy per Si atom -5569.838552 kJ/mol
# Density = 1.970309 g / cm^3
# Si number density = 19.748038 Si / 1000 Ang^3
#
#
#
# Elastic Constant Matrix: (Units=GPa)
#
#
# Indices 1 2 3 4 5 6 
#
# 1 74.6576 11.9620 31.4468 0.0000 -8.5432 0.0000
# 2 11.9620 58.9931 48.7540 0.0000 -6.7063 0.0000
# 3 31.4468 48.7540 211.3738 0.0000 -7.0960 0.0000
# 4 0.0000 0.0000 0.0000 0.3989 0.0000 -2.6545
# 5 -8.5432 -6.7063 -7.0960 0.0000 31.6622 0.0000
# 6 0.0000 0.0000 0.0000 -2.6545 0.0000 3.7289
#
#
#
# Elastic Compliance Matrix: (Units=1/GPa)
#
#
# Indices 1 2 3 4 5 6 
#
# 1 0.014720 -0.001098 -0.001825 0.000000 0.003330 0.000000
# 2 -0.001098 0.021390 -0.004663 0.000000 0.003189 0.000000
# 3 -0.001825 -0.004663 0.006074 0.000000 -0.000119 0.000000
# 4 0.000000 0.000000 0.000000 -0.670779 0.000000 -0.477510
# 5 0.003330 0.003189 -0.000119 0.000000 0.033131 0.000000
# 6 0.000000 0.000000 0.000000 -0.477510 0.000000 -0.071750
#
#
# Mechanical properties :
#
#
# Convention : Reuss Voigt Hill
#
# Bulk Modulus (GPa) = 37.02061 58.81669 47.91865
# Shear Modulus (GPa) = -7.77560 24.01542 8.11991
#
# Velocity S-wave (km/s) = -1.98644 3.49103 2.02995
# Velocity P-wave (km/s) = 3.67776 6.78955 5.46003
#
# Compressibility (1/GPa) = 0.02701198
#
# Stress axis : x y z
#
# Youngs Moduli (GPa) = 67.93394 46.75022 164.63424
#
# Poissons Ratio (x) = 0.05133 0.30044
# Poissons Ratio (y) = 0.07460 0.76774
# Poissons Ratio (z) = 0.12397 0.21801
#
# Static dielectric constant tensor:
#      x y z
#    x 0.279070 0.000000 -0.824500 
#    y 0.000000 1.677690 0.000000 
#    z -0.824500 0.000000 1.230950 
# 
# From -- ./inp_files/143791.got.cif
#   From: 2010.05.17/outbox.cif.g08.bks.cpg/sg15_72_cif.got.tgz:143791.got - 2010.06.03 18:47:42.
