data_PCOD9280306
_publ_section_title
;
Structure prediction by ZEFSAII (Michael W. Deem and Ramdas Pophale) SiO2 
 PCOD9280306
Probable space group: C 2/C
;
_chemical_formula_sum "Si O2"
_cell_formula_units_Z 40
_cell_length_a 9.670244
_cell_length_b 15.839750
_cell_length_c 12.725851
_cell_angle_alpha 90.000000
_cell_angle_beta 97.767262
_cell_angle_gamma 90.000000
_cell_volume 1931.388511
_symmetry_space_group_name_H-M "C 2/C"
_symmetry_group_IT_number 15
_symmetry_cell_setting 'monoclinic'
loop_
_space_group_symop_operation_xyz
x,y,z
-x,y,1/2-z
-x,-y,-z
x,-y,1/2+z
1/2+x,1/2+y,z
1/2-x,1/2+y,1/2-z
1/2-x,1/2-y,-z
1/2+x,1/2-y,1/2+z
loop_
_atom_site_type_symbol
_atom_site_label
_atom_site_fract_x
_atom_site_fract_y
_atom_site_fract_z
Si Si1 0.748907 0.286705 0.883940
Si Si2 0.031107 0.617606 0.366460
Si Si3 0.469298 0.574680 0.133280
Si Si4 0.211373 0.068589 0.991505
Si Si5 0.649656 0.702239 0.806455
O O1 0.608312 0.338089 0.854555
O O2 0.764509 0.219603 0.791015
O O3 0.882634 0.349288 0.891382
O O4 0.750000 0.250000 0.000000
O O5 0.131437 0.563018 0.449607
O O6 0.116982 0.704959 0.351830
O O7 0.000000 0.576548 0.250000
O O8 0.500000 0.535757 0.250000
O O9 0.358964 0.515351 0.062054
O O10 0.607229 0.588742 0.078122
O O11 0.206416 0.140402 0.901075
O O12 0.500000 0.669545 0.750000
#
# Coordination Sequence:
#
# PCOD9280306 Si02
#       5
#     8   8   8   8   8
#     4  10  21  37  58  86 121 157 201 251 292 351
#     4   9  19  36  57  81 114 157 197 245 300 355
#     4  11  23  38  60  90 121 152 198 257 303 356
#     4  11  22  38  61  86 119 161 197 240 310 373
#     4   9  18  35  59  84 114 153 198 240 292 359
#
# _framework density 20.71049
#
# number of rings (size 3 to 8) (size 9 to 14) (size 15 to 20)
#    0.000    2.400    0.000    6.000    0.000    4.000 
#    0.000    0.000    0.000    1.200    0.000    0.000 
#    0.000    0.000    0.000    0.000    0.000    0.000 
#
# Total GULP energy -111645.218902 kJ/mol
# GULP energy per Si atom -5582.260945 kJ/mol
# Density = 2.066335 g / cm^3
# Si number density = 20.710490 Si / 1000 Ang^3
#
#
#
# Elastic Constant Matrix: (Units=GPa)
#
#
# Indices 1 2 3 4 5 6 
#
# 1 85.7290 17.5858 65.1189 0.0000 -3.1609 0.0000
# 2 17.5858 25.4863 18.7890 0.0000 -3.7878 0.0000
# 3 65.1189 18.7890 124.9111 0.0000 -4.9886 0.0000
# 4 0.0000 0.0000 0.0000 15.9020 0.0000 14.3845
# 5 -3.1609 -3.7878 -4.9886 0.0000 50.9413 0.0000
# 6 0.0000 0.0000 0.0000 14.3845 0.0000 5.4301
#
#
#
# Elastic Compliance Matrix: (Units=1/GPa)
#
#
# Indices 1 2 3 4 5 6 
#
# 1 0.020367 -0.007029 -0.009569 0.000000 -0.000196 0.000000
# 2 -0.007029 0.046913 -0.003283 0.000000 0.002731 0.000000
# 3 -0.009569 -0.003283 0.013507 0.000000 0.000485 0.000000
# 4 0.000000 0.000000 0.000000 -0.045039 0.000000 0.119310
# 5 -0.000196 0.002731 0.000485 0.000000 0.019869 0.000000
# 6 0.000000 0.000000 0.000000 0.119310 0.000000 -0.131896
#
#
# Mechanical properties :
#
#
# Convention : Reuss Voigt Hill
#
# Bulk Modulus (GPa) = 24.37454 48.79042 36.58248
# Shear Modulus (GPa) = -218.89553 23.43020 -97.73267
#
# Velocity S-wave (km/s) = -10.29187 3.36716 -6.87695
# Velocity P-wave (km/s) = 11.37696 6.22306 6.73457
#
# Compressibility (1/GPa) = 0.04102642
#
# Stress axis : x y z
#
# Youngs Moduli (GPa) = 49.09796 21.31610 74.03436
#
# Poissons Ratio (x) = 0.14982 0.70840
# Poissons Ratio (y) = 0.34510 0.24308
# Poissons Ratio (z) = 0.46980 0.06999
#
# Static dielectric constant tensor:
#      x y z
#    x 1.730170 0.000000 0.045240 
#    y 0.000000 1.731310 0.000000 
#    z 0.045240 0.000000 2.143520 
# 
# From -- ./inp_files/76835.got.cif
#   From: 2010.05.17/outbox.cif.g08.bks.cpg/sg15_39_cif.got.tgz:76835.got - 2010.06.03 18:47:42.
