data_PCOD9280599
_publ_section_title
;
Structure prediction by ZEFSAII (Michael W. Deem and Ramdas Pophale) SiO2 
 PCOD9280599
Probable space group: C 2/C
;
_chemical_formula_sum "Si O2"
_cell_formula_units_Z 56
_cell_length_a 12.179350
_cell_length_b 25.166094
_cell_length_c 11.830486
_cell_angle_alpha 90.000000
_cell_angle_beta 135.717872
_cell_angle_gamma 90.000000
_cell_volume 2531.729985
_symmetry_space_group_name_H-M "C 2/C"
_symmetry_group_IT_number 15
_symmetry_cell_setting 'monoclinic'
loop_
_space_group_symop_operation_xyz
x,y,z
-x,y,1/2-z
-x,-y,-z
x,-y,1/2+z
1/2+x,1/2+y,z
1/2-x,1/2+y,1/2-z
1/2-x,1/2-y,-z
1/2+x,1/2-y,1/2+z
loop_
_atom_site_type_symbol
_atom_site_label
_atom_site_fract_x
_atom_site_fract_y
_atom_site_fract_z
Si Si1 0.435514 0.953322 0.319591
Si Si2 0.154618 0.182503 0.439516
Si Si3 0.825394 0.160143 0.428684
Si Si4 0.321150 0.780089 0.868613
Si Si5 0.911301 0.425674 0.840241
Si Si6 0.166508 0.876188 0.161660
Si Si7 0.129016 0.671701 0.500999
O O1 0.500000 0.930107 0.250000
O O2 0.563717 0.939330 0.509474
O O3 0.269548 0.929526 0.240966
O O4 0.413063 0.016253 0.288555
O O5 0.294624 0.178299 0.452071
O O6 0.183236 0.227652 0.556939
O O7 0.140321 0.132292 0.508700
O O8 0.000000 0.193713 0.250000
O O9 0.812689 0.205894 0.322637
O O10 0.734013 0.110506 0.304387
O O11 0.738329 0.183140 0.474814
O O12 0.994963 0.136742 0.584319
O O13 0.480950 0.790488 0.917575
O O14 0.056373 0.386458 0.918628
O O15 0.275837 0.835502 0.313220
#
# Coordination Sequence:
#
# PCOD9280599 Si02
#       7
#     8   8   8   8   8   8   8
#     4  10  21  37  61  93 123 163 212 261 311 382
#     4  11  24  42  63  91 133 158 204 266 321 378
#     4  11  21  43  62  90 129 163 212 259 316 370
#     4  10  23  40  67  88 114 173 207 247 319 373
#     4   9  20  39  62  89 122 165 214 255 315 374
#     4  11  25  36  60  95 126 162 207 261 321 361
#     4  10  22  40  67  88 121 169 213 259 303 381
#
# _framework density 22.119263
#
# number of rings (size 3 to 8) (size 9 to 14) (size 15 to 20)
#    0.000    1.714    1.429    3.000   10.000    0.571 
#    0.000    4.286    0.000    0.000    0.000    0.000 
#    0.000    0.000    0.000    0.000    0.000    0.000 
#
# Total GULP energy -156044.580527 kJ/mol
# GULP energy per Si atom -5573.020733 kJ/mol
# Density = 2.206892 g / cm^3
# Si number density = 22.119263 Si / 1000 Ang^3
#
#
#
# Elastic Constant Matrix: (Units=GPa)
#
#
# Indices 1 2 3 4 5 6 
#
# 1 108.4101 -1.2316 14.2946 0.0000 -5.1967 0.0000
# 2 -1.2316 59.1810 23.7519 0.0000 1.9524 0.0000
# 3 14.2946 23.7519 94.6702 0.0000 3.4737 0.0000
# 4 0.0000 0.0000 0.0000 25.6107 0.0000 -2.8000
# 5 -5.1967 1.9524 3.4737 0.0000 38.8991 0.0000
# 6 0.0000 0.0000 0.0000 -2.8000 0.0000 14.3766
#
#
#
# Elastic Compliance Matrix: (Units=1/GPa)
#
#
# Indices 1 2 3 4 5 6 
#
# 1 0.009524 0.000834 -0.001698 0.000000 0.001382 0.000000
# 2 0.000834 0.018873 -0.004846 0.000000 -0.000403 0.000000
# 3 -0.001698 -0.004846 0.012074 0.000000 -0.001062 0.000000
# 4 0.000000 0.000000 0.000000 0.039896 0.000000 0.007770
# 5 0.001382 -0.000403 -0.001062 0.000000 0.026007 0.000000
# 6 0.000000 0.000000 0.000000 0.007770 0.000000 0.071071
#
#
# Mechanical properties :
#
#
# Convention : Reuss Voigt Hill
#
# Bulk Modulus (GPa) = 34.42253 37.32124 35.87189
# Shear Modulus (GPa) = 25.18275 30.80704 27.99490
#
# Velocity S-wave (km/s) = 3.37782 3.73603 3.56143
# Velocity P-wave (km/s) = 5.55058 5.95986 5.75886
#
# Compressibility (1/GPa) = 0.02905074
#
# Stress axis : x y z
#
# Youngs Moduli (GPa) = 104.99953 52.98586 82.82122
#
# Poissons Ratio (x) = -0.04419 0.14063
# Poissons Ratio (y) = -0.08758 0.40137
# Poissons Ratio (z) = 0.17829 0.25678
#
# Static dielectric constant tensor:
#      x y z
#    x 1.864380 0.000000 0.005810 
#    y 0.000000 1.872590 0.000000 
#    z 0.005810 0.000000 1.826310 
# 
# From -- ./inp_files/92090.got.cif
#   From: 2010.05.17/outbox.cif.g08.bks.cpg/sg15_47_cif.got.tgz:92090.got - 2010.06.03 18:47:42.
