data_PCOD9280715
_publ_section_title
;
Structure prediction by ZEFSAII (Michael W. Deem and Ramdas Pophale) SiO2 
 PCOD9280715
Probable space group: C 2/C
;
_chemical_formula_sum "Si O2"
_cell_formula_units_Z 60
_cell_length_a 13.249952
_cell_length_b 11.754073
_cell_length_c 19.330036
_cell_angle_alpha 90.000000
_cell_angle_beta 117.262544
_cell_angle_gamma 90.000000
_cell_volume 2676.064044
_symmetry_space_group_name_H-M "C 2/C"
_symmetry_group_IT_number 15
_symmetry_cell_setting 'monoclinic'
loop_
_space_group_symop_operation_xyz
x,y,z
-x,y,1/2-z
-x,-y,-z
x,-y,1/2+z
1/2+x,1/2+y,z
1/2-x,1/2+y,1/2-z
1/2-x,1/2-y,-z
1/2+x,1/2-y,1/2+z
loop_
_atom_site_type_symbol
_atom_site_label
_atom_site_fract_x
_atom_site_fract_y
_atom_site_fract_z
Si Si1 0.888984 0.516290 0.419027
Si Si2 0.677274 0.983423 0.819742
Si Si3 0.738974 0.217399 0.417680
Si Si4 0.500000 0.818940 0.250000
Si Si5 0.860092 0.297541 0.800912
Si Si6 0.877239 0.720793 0.838244
Si Si7 0.591064 0.457732 0.184788
Si Si8 0.352450 0.541596 0.639476
O O1 0.882138 0.636800 0.378820
O O2 0.884871 0.412971 0.360988
O O3 0.769900 0.503127 0.422066
O O4 0.000000 0.500000 0.500000
O O5 0.687662 0.907432 0.891646
O O6 0.617255 0.894121 0.748866
O O7 0.605876 0.097655 0.798868
O O8 0.804303 0.008713 0.830933
O O9 0.750000 0.250000 0.500000
O O10 0.853200 0.223094 0.405800
O O11 0.664454 0.321248 0.363629
O O12 0.524415 0.753850 0.186005
O O13 0.732520 0.258082 0.740804
O O14 0.922863 0.178545 0.819726
O O15 0.626990 0.492953 0.274004
O O16 0.462192 0.496851 0.131276
#
# Coordination Sequence:
#
# PCOD9280715 Si02
#       8
#     8   8   8   4   8   8   8   8
#     4  11  22  41  66 101 141 179 223 292 359 418
#     4  11  21  37  61  98 130 177 231 289 337 411
#     4  10  22  41  63  93 133 175 226 279 357 419
#     4  12  20  36  64 102 134 164 234 294 334 396
#     4  11  18  40  62  96 136 178 230 286 339 412
#     4  10  22  40  62 102 140 169 239 290 336 417
#     4  11  20  38  61  97 137 163 241 291 331 402
#     4  10  21  37  62  97 128 176 226 286 342 408
#
# _framework density 22.420987
#
# number of rings (size 3 to 8) (size 9 to 14) (size 15 to 20)
#    0.000    1.333    8.000    0.000    1.867    4.267 
#    4.800    0.667    0.000    0.800    0.000    0.933 
#    0.000    0.000    0.000    0.000    0.000    0.000 
#
# Total GULP energy -167318.398192 kJ/mol
# GULP energy per Si atom -5577.279940 kJ/mol
# Density = 2.236996 g / cm^3
# Si number density = 22.420987 Si / 1000 Ang^3
#
#
#
# Elastic Constant Matrix: (Units=GPa)
#
#
# Indices 1 2 3 4 5 6 
#
# 1 156.1891 19.8100 58.7348 0.0000 11.8446 0.0000
# 2 19.8100 78.9647 34.3885 0.0000 1.3955 0.0000
# 3 58.7348 34.3885 105.3868 0.0000 2.9942 0.0000
# 4 0.0000 0.0000 0.0000 31.7818 0.0000 -1.7864
# 5 11.8446 1.3955 2.9942 0.0000 36.2129 0.0000
# 6 0.0000 0.0000 0.0000 -1.7864 0.0000 2.7842
#
#
#
# Elastic Compliance Matrix: (Units=1/GPa)
#
#
# Indices 1 2 3 4 5 6 
#
# 1 0.008293 -0.000064 -0.004535 0.000000 -0.002335 0.000000
# 2 -0.000064 0.014763 -0.004777 0.000000 -0.000153 0.000000
# 3 -0.004535 -0.004777 0.013559 0.000000 0.000546 0.000000
# 4 0.000000 0.000000 0.000000 0.032642 0.000000 0.020943
# 5 -0.002335 -0.000153 0.000546 0.000000 0.028339 0.000000
# 6 0.000000 0.000000 0.000000 0.020943 0.000000 0.372612
#
#
# Mechanical properties :
#
#
# Convention : Reuss Voigt Hill
#
# Bulk Modulus (GPa) = 55.98044 62.93412 59.45728
# Shear Modulus (GPa) = 10.10275 29.32958 19.71617
#
# Velocity S-wave (km/s) = 2.12502 3.62073 2.96862
# Velocity P-wave (km/s) = 5.57163 6.75351 6.19083
#
# Compressibility (1/GPa) = 0.01786338
#
# Stress axis : x y z
#
# Youngs Moduli (GPa) = 120.58436 67.73632 73.75001
#
# Poissons Ratio (x) = 0.00437 0.33442
# Poissons Ratio (y) = 0.00777 0.35231
# Poissons Ratio (z) = 0.54679 0.32358
#
# Static dielectric constant tensor:
#      x y z
#    x 1.951340 0.000000 -0.012140 
#    y 0.000000 1.875010 0.000000 
#    z -0.012140 0.000000 1.844360 
# 
# From -- ./inp_files/243782.got.cif
#   From: 2010.05.17/outbox.cif.g08.bks.cpg/sg15_122_cif.got.tgz:243782.got - 2010.06.03 18:47:42.
