data_PCOD9280860
_publ_section_title
;
Structure prediction by ZEFSAII (Michael W. Deem and Ramdas Pophale) SiO2 
 PCOD9280860
Probable space group: C 2/C
;
_chemical_formula_sum "Si O2"
_cell_formula_units_Z 52
_cell_length_a 17.033435
_cell_length_b 9.410190
_cell_length_c 18.422542
_cell_angle_alpha 90.000000
_cell_angle_beta 66.133009
_cell_angle_gamma 90.000000
_cell_volume 2700.398275
_symmetry_space_group_name_H-M "C 2/C"
_symmetry_group_IT_number 15
_symmetry_cell_setting 'monoclinic'
loop_
_space_group_symop_operation_xyz
x,y,z
-x,y,1/2-z
-x,-y,-z
x,-y,1/2+z
1/2+x,1/2+y,z
1/2-x,1/2+y,1/2-z
1/2-x,1/2-y,-z
1/2+x,1/2-y,1/2+z
loop_
_atom_site_type_symbol
_atom_site_label
_atom_site_fract_x
_atom_site_fract_y
_atom_site_fract_z
Si Si1 0.783183 0.140358 0.547715
Si Si2 0.479533 0.015156 0.635377
Si Si3 0.321036 0.699427 0.781274
Si Si4 0.199370 0.534919 0.718741
Si Si5 0.244873 0.098643 0.540890
Si Si6 0.599091 0.883412 0.979790
Si Si7 0.500000 0.193004 0.250000
O O1 0.750000 0.250000 0.500000
O O2 0.712846 0.096326 0.633261
O O3 0.857240 0.233963 0.555263
O O4 0.808515 0.001477 0.493519
O O5 0.393624 0.064663 0.709884
O O6 0.539637 0.130142 0.573653
O O7 0.448502 0.929166 0.575848
O O8 0.528582 0.912730 0.673905
O O9 0.273656 0.607379 0.738526
O O10 0.295987 0.628660 0.866476
O O11 0.423602 0.715820 0.744889
O O12 0.290652 0.864080 0.787005
O O13 0.250000 0.250000 0.500000
O O14 0.332604 0.009099 0.524742
#
# Coordination Sequence:
#
# PCOD9280860 Si02
#       7
#     8   8   8   8   8   8   4
#     4  10  22  35  60  89 126 161 209 264 307 381
#     4  10  21  37  65  89 126 163 218 259 312 388
#     4  11  23  40  66  91 123 165 210 265 313 387
#     4  11  22  41  63  95 120 169 213 257 319 379
#     4  11  20  38  60  90 121 164 206 253 322 382
#     4  10  21  40  60  93 123 168 209 264 314 379
#     4  10  22  38  62  92 122 164 208 266 312 378
#
# _framework density 19.256419999999999
#
# number of rings (size 3 to 8) (size 9 to 14) (size 15 to 20)
#    0.000    1.538    3.077    2.769    8.615    0.000 
#    0.000    1.538    0.000    7.385    0.000    0.000 
#    0.000    0.000    0.000    0.000    0.000    0.000 
#
# Total GULP energy -144895.958810 kJ/mol
# GULP energy per Si atom -5572.921493 kJ/mol
# Density = 1.921259 g / cm^3
# Si number density = 19.256420 Si / 1000 Ang^3
#
#
#
# Elastic Constant Matrix: (Units=GPa)
#
#
# Indices 1 2 3 4 5 6 
#
# 1 58.7221 21.5092 10.5224 0.0000 -3.4072 0.0000
# 2 21.5092 98.0961 26.4120 0.0000 -10.4686 0.0000
# 3 10.5224 26.4120 123.1030 0.0000 -13.9315 0.0000
# 4 0.0000 0.0000 0.0000 32.0132 0.0000 5.2501
# 5 -3.4072 -10.4686 -13.9315 0.0000 27.9945 0.0000
# 6 0.0000 0.0000 0.0000 5.2501 0.0000 32.6459
#
#
#
# Elastic Compliance Matrix: (Units=1/GPa)
#
#
# Indices 1 2 3 4 5 6 
#
# 1 0.018589 -0.003833 -0.000713 0.000000 0.000474 0.000000
# 2 -0.003833 0.011863 -0.001874 0.000000 0.003037 0.000000
# 3 -0.000713 -0.001874 0.009004 0.000000 0.003693 0.000000
# 4 0.000000 0.000000 0.000000 0.032083 0.000000 -0.005160
# 5 0.000474 0.003037 0.003693 0.000000 0.038753 0.000000
# 6 0.000000 0.000000 0.000000 -0.005160 0.000000 0.031461
#
#
# Mechanical properties :
#
#
# Convention : Reuss Voigt Hill
#
# Bulk Modulus (GPa) = 37.57120 44.08982 40.83051
# Shear Modulus (GPa) = 30.58741 33.29589 31.94165
#
# Velocity S-wave (km/s) = 3.98983 4.16273 4.07720
# Velocity P-wave (km/s) = 6.38579 6.78604 6.58896
#
# Compressibility (1/GPa) = 0.02661613
#
# Stress axis : x y z
#
# Youngs Moduli (GPa) = 53.79602 84.29364 111.05869
#
# Poissons Ratio (x) = 0.32313 0.07916
# Poissons Ratio (y) = 0.20622 0.20811
# Poissons Ratio (z) = 0.03834 0.15796
#
# Static dielectric constant tensor:
#      x y z
#    x 1.786440 0.000000 0.007150 
#    y 0.000000 1.742020 0.000000 
#    z 0.007150 0.000000 1.707800 
# 
# From -- ./inp_files/209010.got.cif
#   From: 2010.05.17/outbox.cif.g08.bks.cpg/sg15_105_cif.got.tgz:209010.got - 2010.06.03 18:47:42.
