data_PCOD9280380
_publ_section_title
;
Structure prediction by ZEFSAII (Michael W. Deem and Ramdas Pophale) SiO2 
 PCOD9280380
Probable space group: C 2/C
;
_chemical_formula_sum "Si O2"
_cell_formula_units_Z 40
_cell_length_a 21.551858
_cell_length_b 10.726518
_cell_length_c 11.515249
_cell_angle_alpha 90.000000
_cell_angle_beta 136.554929
_cell_angle_gamma 90.000000
_cell_volume 1830.584801
_symmetry_space_group_name_H-M "C 2/C"
_symmetry_group_IT_number 15
_symmetry_cell_setting 'monoclinic'
loop_
_space_group_symop_operation_xyz
x,y,z
-x,y,1/2-z
-x,-y,-z
x,-y,1/2+z
1/2+x,1/2+y,z
1/2-x,1/2+y,1/2-z
1/2-x,1/2-y,-z
1/2+x,1/2-y,1/2+z
loop_
_atom_site_type_symbol
_atom_site_label
_atom_site_fract_x
_atom_site_fract_y
_atom_site_fract_z
Si Si1 0.680351 0.852904 0.000379
Si Si2 0.693912 0.556022 0.388096
Si Si3 0.937369 0.846731 0.277245
Si Si4 0.760561 0.708415 0.678028
Si Si5 0.049288 0.377325 0.022131
O O1 0.748517 0.818512 0.198461
O O2 0.725812 0.957313 0.985921
O O3 0.646231 0.734383 0.885002
O O4 0.592034 0.899450 0.951676
O O5 0.604288 0.477595 0.237888
O O6 0.689973 0.641247 0.498027
O O7 0.728426 0.646028 0.332853
O O8 0.989808 0.749090 0.431308
O O9 0.000000 0.871724 0.250000
O O10 0.860540 0.655155 0.783717
O O11 0.000000 0.500000 0.000000
#
# Coordination Sequence:
#
# PCOD9280380 Si02
#       5
#     8   8   8   8   8
#     4   9  21  35  60  83 114 154 195 233 298 357
#     4  11  21  39  59  84 123 153 195 246 296 355
#     4  10  21  37  59  87 115 155 199 245 294 357
#     4   9  23  36  56  89 118 149 201 244 285 363
#     4   9  19  38  58  86 118 148 197 245 287 354
#
# _framework density 21.850940999999999
#
# number of rings (size 3 to 8) (size 9 to 14) (size 15 to 20)
#    1.200    1.200    0.000    1.800    2.800    2.400 
#    0.000    4.000    0.000    0.000    0.000    0.000 
#    0.000    0.000    0.000    0.000    0.000    0.000 
#
# Total GULP energy -111411.713916 kJ/mol
# GULP energy per Si atom -5570.585696 kJ/mol
# Density = 2.180121 g / cm^3
# Si number density = 21.850941 Si / 1000 Ang^3
#
#
#
# Elastic Constant Matrix: (Units=GPa)
#
#
# Indices 1 2 3 4 5 6 
#
# 1 47.5032 35.6853 -0.6489 0.0000 2.1276 0.0000
# 2 35.6853 116.1822 20.1452 0.0000 17.0935 0.0000
# 3 -0.6489 20.1452 53.0609 0.0000 0.9007 0.0000
# 4 0.0000 0.0000 0.0000 31.8248 0.0000 -0.4950
# 5 2.1276 17.0935 0.9007 0.0000 26.9777 0.0000
# 6 0.0000 0.0000 0.0000 -0.4950 0.0000 6.6189
#
#
#
# Elastic Compliance Matrix: (Units=1/GPa)
#
#
# Indices 1 2 3 4 5 6 
#
# 1 0.028471 -0.010040 0.004092 0.000000 0.003979 0.000000
# 2 -0.010040 0.013731 -0.005205 0.000000 -0.007735 0.000000
# 3 0.004092 -0.005205 0.020834 0.000000 0.002280 0.000000
# 4 0.000000 0.000000 0.000000 0.031459 0.000000 0.002353
# 5 0.003979 -0.007735 0.002280 0.000000 0.041579 0.000000
# 6 0.000000 0.000000 0.000000 0.002353 0.000000 0.151258
#
#
# Mechanical properties :
#
#
# Convention : Reuss Voigt Hill
#
# Bulk Modulus (GPa) = 24.55102 36.34550 30.44826
# Shear Modulus (GPa) = 15.46968 23.85528 19.66248
#
# Velocity S-wave (km/s) = 2.66365 3.30771 3.00300
# Velocity P-wave (km/s) = 4.55193 5.59084 5.09792
#
# Compressibility (1/GPa) = 0.04073151
#
# Stress axis : x y z
#
# Youngs Moduli (GPa) = 35.12341 72.82572 47.99922
#
# Poissons Ratio (x) = 0.73117 -0.19643
# Poissons Ratio (y) = 0.35264 0.24983
# Poissons Ratio (z) = -0.14374 0.37904
#
# Static dielectric constant tensor:
#      x y z
#    x 1.829320 0.000000 0.019220 
#    y 0.000000 1.845810 0.000000 
#    z 0.019220 0.000000 1.844420 
# 
# From -- ./inp_files/167419.got.cif
#   From: 2010.05.17/outbox.cif.g08.bks.cpg/sg15_84_cif.got.tgz:167419.got - 2010.06.03 18:47:42.
