data_PCOD9280120
_publ_section_title
;
Structure prediction by ZEFSAII (Michael W. Deem and Ramdas Pophale) SiO2 
 PCOD9280120
Probable space group: C 2/C
;
_chemical_formula_sum "Si O2"
_cell_formula_units_Z 52
_cell_length_a 5.403238
_cell_length_b 18.022141
_cell_length_c 22.475035
_cell_angle_alpha 90.000000
_cell_angle_beta 68.010708
_cell_angle_gamma 90.000000
_cell_volume 2029.361898
_symmetry_space_group_name_H-M "C 2/C"
_symmetry_group_IT_number 15
_symmetry_cell_setting 'monoclinic'
loop_
_space_group_symop_operation_xyz
x,y,z
-x,y,1/2-z
-x,-y,-z
x,-y,1/2+z
1/2+x,1/2+y,z
1/2-x,1/2+y,1/2-z
1/2-x,1/2-y,-z
1/2+x,1/2-y,1/2+z
loop_
_atom_site_type_symbol
_atom_site_label
_atom_site_fract_x
_atom_site_fract_y
_atom_site_fract_z
Si Si1 0.500000 0.133771 0.750000
Si Si2 0.696515 0.906544 0.990815
Si Si3 0.803431 0.300094 0.092288
Si Si4 0.509960 0.561264 0.669843
Si Si5 0.718160 0.517950 0.419679
Si Si6 0.216183 0.754917 0.640080
Si Si7 0.305656 0.911272 0.651871
O O1 0.605569 0.187639 0.689226
O O2 0.758387 0.082425 0.733131
O O3 0.516186 0.839165 0.029655
O O4 0.620097 0.973645 0.043615
O O5 0.669426 0.903429 0.922378
O O6 0.015817 0.923366 0.967414
O O7 0.701431 0.367451 0.144534
O O8 0.523182 0.265404 0.094440
O O9 0.991177 0.240794 0.109245
O O10 0.419566 0.544077 0.609125
O O11 0.626122 0.482222 0.677940
O O12 0.900022 0.563157 0.357366
O O13 0.225980 0.829816 0.677750
#
# Coordination Sequence:
#
# PCOD9280120 Si02
#       7
#     4   8   8   8   8   8   8
#     4  10  24  52  70  96 122 192 220 296 348 408
#     4  10  21  36  69  97 142 188 221 268 340 401
#     4  11  24  45  68 103 138 191 222 272 333 432
#     4  10  23  43  72  96 131 175 250 277 336 406
#     4  10  21  38  66 104 137 177 230 289 321 405
#     4  11  28  46  68  99 147 172 232 286 353 400
#     4  11  24  41  66 105 139 176 223 294 332 414
#
# _framework density 25.623816999999999
#
# number of rings (size 3 to 8) (size 9 to 14) (size 15 to 20)
#    0.000    1.538    1.538    2.308   10.769    3.692 
#    2.769    0.000    0.000    0.000    0.000    0.000 
#    0.000    0.000    0.000    0.000    0.000    0.000 
#
# Total GULP energy -145066.897952 kJ/mol
# GULP energy per Si atom -5579.496075 kJ/mol
# Density = 2.556550 g / cm^3
# Si number density = 25.623817 Si / 1000 Ang^3
#
#
#
# Elastic Constant Matrix: (Units=GPa)
#
#
# Indices 1 2 3 4 5 6 
#
# 1 105.4873 47.0415 10.6753 0.0000 -24.6621 0.0000
# 2 47.0415 146.7856 15.7543 0.0000 -29.7176 0.0000
# 3 10.6753 15.7543 51.9165 0.0000 -12.6086 0.0000
# 4 0.0000 0.0000 0.0000 20.8772 0.0000 -2.9534
# 5 -24.6621 -29.7176 -12.6086 0.0000 39.7125 0.0000
# 6 0.0000 0.0000 0.0000 -2.9534 0.0000 36.1447
#
#
#
# Elastic Compliance Matrix: (Units=1/GPa)
#
#
# Indices 1 2 3 4 5 6 
#
# 1 0.011966 -0.002729 -0.000351 0.000000 0.005278 0.000000
# 2 -0.002729 0.008705 -0.000986 0.000000 0.004507 0.000000
# 3 -0.000351 -0.000986 0.021022 0.000000 0.005719 0.000000
# 4 0.000000 0.000000 0.000000 0.048459 0.000000 0.003960
# 5 0.005278 0.004507 0.005719 0.000000 0.033647 0.000000
# 6 0.000000 0.000000 0.000000 0.003960 0.000000 0.027990
#
#
# Mechanical properties :
#
#
# Convention : Reuss Voigt Hill
#
# Bulk Modulus (GPa) = 29.79516 50.12573 39.96045
# Shear Modulus (GPa) = 29.22132 34.72811 31.97471
#
# Velocity S-wave (km/s) = 3.38064 3.68544 3.53633
# Velocity P-wave (km/s) = 5.18570 6.14122 5.68358
#
# Compressibility (1/GPa) = 0.03356250
#
# Stress axis : x y z
#
# Youngs Moduli (GPa) = 83.56969 114.87137 47.56937
#
# Poissons Ratio (x) = 0.31345 0.01668
# Poissons Ratio (y) = 0.22804 0.04691
# Poissons Ratio (z) = 0.02931 0.11327
#
# Static dielectric constant tensor:
#      x y z
#    x 2.143790 0.000000 0.014750 
#    y 0.000000 2.030820 0.000000 
#    z 0.014750 0.000000 2.048690 
# 
# From -- ./inp_files/285992.got.cif
#   From: 2010.05.17/outbox.cif.g08.bks.cpg/sg15_143_cif.got.tgz:285992.got - 2010.06.03 18:47:42.
