data_PCOD9280842
_publ_section_title
;
Structure prediction by ZEFSAII (Michael W. Deem and Ramdas Pophale) SiO2 
 PCOD9280842
Probable space group: C 2/C
;
_chemical_formula_sum "Si O2"
_cell_formula_units_Z 32
_cell_length_a 6.860958
_cell_length_b 14.648296
_cell_length_c 15.830733
_cell_angle_alpha 90.000000
_cell_angle_beta 123.704626
_cell_angle_gamma 90.000000
_cell_volume 1323.575998
_symmetry_space_group_name_H-M "C 2/C"
_symmetry_group_IT_number 15
_symmetry_cell_setting 'monoclinic'
loop_
_space_group_symop_operation_xyz
x,y,z
-x,y,1/2-z
-x,-y,-z
x,-y,1/2+z
1/2+x,1/2+y,z
1/2-x,1/2+y,1/2-z
1/2-x,1/2-y,-z
1/2+x,1/2-y,1/2+z
loop_
_atom_site_type_symbol
_atom_site_label
_atom_site_fract_x
_atom_site_fract_y
_atom_site_fract_z
Si Si1 0.719114 0.171298 0.422937
Si Si2 0.256164 0.071584 0.736310
Si Si3 0.774927 0.784397 0.747292
Si Si4 0.731535 0.465640 0.424971
O O1 0.750000 0.250000 0.500000
O O2 0.445902 0.157465 0.335511
O O3 0.820619 0.203739 0.357827
O O4 0.807954 0.085050 0.495275
O O5 0.500000 0.046928 0.750000
O O6 0.211587 0.179525 0.705972
O O7 0.267054 0.077249 0.840156
O O8 0.956921 0.005230 0.842708
O O9 0.000000 0.811105 0.750000
O O10 0.000000 0.500000 0.500000
#
# Coordination Sequence:
#
# PCOD9280842 Si02
#       4
#     8   8   8   8
#     4  11  19  38  63  92 130 166 217 275 324 389
#     4  10  21  41  66  93 128 172 222 271 328 400
#     4  10  21  37  64  98 126 163 219 277 329 383
#     4  11  23  41  63  92 133 179 217 267 338 400
#
# _framework density 24.176926999999999
#
# number of rings (size 3 to 8) (size 9 to 14) (size 15 to 20)
#    0.000    1.500    5.000    1.500    0.000    4.000 
#    9.000    0.000    0.000    0.000    0.000    0.000 
#    0.000    0.000    0.000    0.000    0.000    0.000 
#
# Total GULP energy -89070.355099 kJ/mol
# GULP energy per Si atom -5566.897194 kJ/mol
# Density = 2.412190 g / cm^3
# Si number density = 24.176927 Si / 1000 Ang^3
#
#
#
# Elastic Constant Matrix: (Units=GPa)
#
#
# Indices 1 2 3 4 5 6 
#
# 1 193.2112 19.2415 78.1941 0.0000 -14.2186 0.0000
# 2 19.2415 46.5321 28.9232 0.0000 7.9909 0.0000
# 3 78.1941 28.9232 182.7911 0.0000 -7.3606 0.0000
# 4 0.0000 0.0000 0.0000 34.1863 0.0000 -1.8243
# 5 -14.2186 7.9909 -7.3606 0.0000 44.1942 0.0000
# 6 0.0000 0.0000 0.0000 -1.8243 0.0000 26.4135
#
#
#
# Elastic Compliance Matrix: (Units=1/GPa)
#
#
# Indices 1 2 3 4 5 6 
#
# 1 0.006457 -0.001480 -0.002450 0.000000 0.001937 0.000000
# 2 -0.001480 0.025310 -0.003599 0.000000 -0.005652 0.000000
# 3 -0.002450 -0.003599 0.007131 0.000000 0.001050 0.000000
# 4 0.000000 0.000000 0.000000 0.029360 0.000000 0.002028
# 5 0.001937 -0.005652 0.001050 0.000000 0.024447 0.000000
# 6 0.000000 0.000000 0.000000 0.002028 0.000000 0.037999
#
#
# Mechanical properties :
#
#
# Convention : Reuss Voigt Hill
#
# Bulk Modulus (GPa) = 41.94714 75.02799 58.48757
# Shear Modulus (GPa) = 32.52878 40.70385 36.61631
#
# Velocity S-wave (km/s) = 3.67201 4.10760 3.89590
# Velocity P-wave (km/s) = 5.94693 7.32098 6.66944
#
# Compressibility (1/GPa) = 0.02383953
#
# Stress axis : x y z
#
# Youngs Moduli (GPa) = 154.86666 39.50940 140.23962
#
# Poissons Ratio (x) = 0.05847 0.34360
# Poissons Ratio (y) = 0.22918 0.50479
# Poissons Ratio (z) = 0.37944 0.14221
#
# Static dielectric constant tensor:
#      x y z
#    x 1.972320 0.000000 0.052580 
#    y 0.000000 2.078900 0.000000 
#    z 0.052580 0.000000 1.854390 
# 
# From -- ./inp_files/75320.got.cif
#   From: 2010.05.17/outbox.cif.g08.bks.cpg/sg15_38_cif.got.tgz:75320.got - 2010.06.03 18:47:42.
