data_PCOD9280143
_publ_section_title
;
Structure prediction by ZEFSAII (Michael W. Deem and Ramdas Pophale) SiO2 
 PCOD9280143
Probable space group: C 2/C
;
_chemical_formula_sum "Si O2"
_cell_formula_units_Z 48
_cell_length_a 15.603664
_cell_length_b 11.040981
_cell_length_c 13.703071
_cell_angle_alpha 90.000000
_cell_angle_beta 108.605817
_cell_angle_gamma 90.000000
_cell_volume 2237.378953
_symmetry_space_group_name_H-M "C 2/C"
_symmetry_group_IT_number 15
_symmetry_cell_setting 'monoclinic'
loop_
_space_group_symop_operation_xyz
x,y,z
-x,y,1/2-z
-x,-y,-z
x,-y,1/2+z
1/2+x,1/2+y,z
1/2-x,1/2+y,1/2-z
1/2-x,1/2-y,-z
1/2+x,1/2-y,1/2+z
loop_
_atom_site_type_symbol
_atom_site_label
_atom_site_fract_x
_atom_site_fract_y
_atom_site_fract_z
Si Si1 0.625010 0.416577 0.587718
Si Si2 0.144305 0.183395 0.394033
Si Si3 0.463810 0.543202 0.643747
Si Si4 0.024380 0.311630 0.065607
Si Si5 0.784447 0.573030 0.597868
Si Si6 0.972195 0.443606 0.633024
O O1 0.548900 0.499583 0.610477
O O2 0.603643 0.407639 0.463283
O O3 0.605642 0.280749 0.615022
O O4 0.718968 0.485739 0.635151
O O5 0.089593 0.072100 0.328343
O O6 0.180589 0.298275 0.346950
O O7 0.224854 0.122013 0.484813
O O8 0.068193 0.243259 0.437305
O O9 0.500000 0.616045 0.750000
O O10 0.030552 0.436522 0.127143
O O11 0.017198 0.348768 0.949968
O O12 0.869929 0.493982 0.597136
O O13 0.000000 0.402200 0.750000
#
# Coordination Sequence:
#
# PCOD9280143 Si02
#       6
#     8   8   8   8   8   8
#     4   9  18  32  52  79 107 135 172 220 262 301
#     4   8  16  32  55  75 101 141 173 206 258 309
#     4   9  17  31  53  80 107 138 176 212 256 312
#     4   9  19  36  55  73 103 139 173 214 265 317
#     4   9  17  32  52  77 106 133 173 217 253 305
#     4  10  21  37  54  74 102 139 178 214 264 325
#
# _framework density 21.453673999999999
#
# number of rings (size 3 to 8) (size 9 to 14) (size 15 to 20)
#    0.000    3.000    0.000    1.000    0.000    7.333 
#    0.000   13.333    0.000    0.000    0.000    0.000 
#    0.000    0.000    0.000    0.000    0.000    0.000 
#
# Total GULP energy -133690.086433 kJ/mol
# GULP energy per Si atom -5570.420268 kJ/mol
# Density = 2.140484 g / cm^3
# Si number density = 21.453674 Si / 1000 Ang^3
#
#
#
# Elastic Constant Matrix: (Units=GPa)
#
#
# Indices 1 2 3 4 5 6 
#
# 1 75.0620 49.5660 6.4673 0.0000 5.3905 0.0000
# 2 49.5660 94.2679 9.8036 0.0000 -0.1151 0.0000
# 3 6.4673 9.8036 96.4081 0.0000 0.9779 0.0000
# 4 0.0000 0.0000 0.0000 9.2278 0.0000 -1.4400
# 5 5.3905 -0.1151 0.9779 0.0000 12.0199 0.0000
# 6 0.0000 0.0000 0.0000 -1.4400 0.0000 32.4341
#
#
#
# Elastic Compliance Matrix: (Units=1/GPa)
#
#
# Indices 1 2 3 4 5 6 
#
# 1 0.021496 -0.011294 -0.000195 0.000000 -0.009732 0.000000
# 2 -0.011294 0.016656 -0.000990 0.000000 0.005305 0.000000
# 3 -0.000195 -0.000990 0.010494 0.000000 -0.000776 0.000000
# 4 0.000000 0.000000 0.000000 0.109124 0.000000 0.004845
# 5 -0.009732 0.005305 -0.000776 0.000000 0.087674 0.000000
# 6 0.000000 0.000000 0.000000 0.004845 0.000000 0.031047
#
#
# Mechanical properties :
#
#
# Convention : Reuss Voigt Hill
#
# Bulk Modulus (GPa) = 42.21482 44.15684 43.18583
# Shear Modulus (GPa) = 16.16318 24.06311 20.11314
#
# Velocity S-wave (km/s) = 2.74779 3.35271 3.06521
# Velocity P-wave (km/s) = 5.45775 5.96780 5.71847
#
# Compressibility (1/GPa) = 0.02368836
#
# Stress axis : x y z
#
# Youngs Moduli (GPa) = 46.52038 60.03856 95.29104
#
# Poissons Ratio (x) = 0.67809 0.01856
# Poissons Ratio (y) = 0.52541 0.09433
# Poissons Ratio (z) = 0.00906 0.05943
#
# Static dielectric constant tensor:
#      x y z
#    x 1.771030 0.000000 -0.002760 
#    y 0.000000 1.847070 0.000000 
#    z -0.002760 0.000000 1.803850 
# 
# From -- ./inp_files/152092.got.cif
#   From: 2010.05.17/outbox.cif.g08.bks.cpg/sg15_77_cif.got.tgz:152092.got - 2010.06.03 18:47:42.
