data_PCOD9280768
_publ_section_title
;
Structure prediction by ZEFSAII (Michael W. Deem and Ramdas Pophale) SiO2 
 PCOD9280768
Probable space group: C 2/C
;
_chemical_formula_sum "Si O2"
_cell_formula_units_Z 44
_cell_length_a 8.110614
_cell_length_b 11.105254
_cell_length_c 21.920678
_cell_angle_alpha 90.000000
_cell_angle_beta 103.789911
_cell_angle_gamma 90.000000
_cell_volume 1917.495144
_symmetry_space_group_name_H-M "C 2/C"
_symmetry_group_IT_number 15
_symmetry_cell_setting 'monoclinic'
loop_
_space_group_symop_operation_xyz
x,y,z
-x,y,1/2-z
-x,-y,-z
x,-y,1/2+z
1/2+x,1/2+y,z
1/2-x,1/2+y,1/2-z
1/2-x,1/2-y,-z
1/2+x,1/2-y,1/2+z
loop_
_atom_site_type_symbol
_atom_site_label
_atom_site_fract_x
_atom_site_fract_y
_atom_site_fract_z
Si Si1 0.500000 0.427138 0.750000
Si Si2 0.547411 0.484600 0.385350
Si Si3 0.320890 0.827709 0.709788
Si Si4 0.650452 0.093803 0.501723
Si Si5 0.561963 0.753498 0.093489
Si Si6 0.683174 0.964012 0.381246
O O1 0.442964 0.504861 0.686688
O O2 0.665763 0.350020 0.743664
O O3 0.700640 0.438269 0.438536
O O4 0.522067 0.624600 0.402760
O O5 0.373487 0.416862 0.387358
O O6 0.500000 0.781315 0.750000
O O7 0.233963 0.749453 0.648810
O O8 0.360899 0.958168 0.682357
O O9 0.500000 0.000000 0.500000
O O10 0.586407 0.220080 0.523625
O O11 0.693725 0.063554 0.436328
O O12 0.444078 0.859073 0.111037
#
# Coordination Sequence:
#
# PCOD9280768 Si02
#       6
#     4   8   8   8   8   8
#     4   8  20  40  60  88 124 164 206 258 306 364
#     4  10  21  41  60  90 129 159 206 261 307 363
#     4  10  22  42  64  90 130 165 211 265 307 372
#     4  10  21  37  63  94 123 159 207 254 307 381
#     4   9  21  42  59  94 117 160 209 245 318 371
#     4   9  20  40  64  89 123 163 204 258 312 370
#
# _framework density 22.946604000000001
#
# number of rings (size 3 to 8) (size 9 to 14) (size 15 to 20)
#    0.000    2.909    0.000    0.545    5.091    5.818 
#   14.727    0.000    0.000    0.000    0.000    0.000 
#    0.000    0.000    0.000    0.000    0.000    0.000 
#
# Total GULP energy -122822.329900 kJ/mol
# GULP energy per Si atom -5582.833177 kJ/mol
# Density = 2.289438 g / cm^3
# Si number density = 22.946604 Si / 1000 Ang^3
#
#
#
# Elastic Constant Matrix: (Units=GPa)
#
#
# Indices 1 2 3 4 5 6 
#
# 1 113.6081 23.3760 69.8483 0.0000 8.3335 0.0000
# 2 23.3760 69.7357 15.0791 0.0000 10.0308 0.0000
# 3 69.8483 15.0791 114.6780 0.0000 -9.7556 0.0000
# 4 0.0000 0.0000 0.0000 25.0027 0.0000 1.3385
# 5 8.3335 10.0308 -9.7556 0.0000 42.0626 0.0000
# 6 0.0000 0.0000 0.0000 1.3385 0.0000 33.2893
#
#
#
# Elastic Compliance Matrix: (Units=1/GPa)
#
#
# Indices 1 2 3 4 5 6 
#
# 1 0.015506 -0.002464 -0.009520 0.000000 -0.004692 0.000000
# 2 -0.002464 0.015860 -0.000882 0.000000 -0.003498 0.000000
# 3 -0.009520 -0.000882 0.015111 0.000000 0.005601 0.000000
# 4 0.000000 0.000000 0.000000 0.040082 0.000000 -0.001612
# 5 -0.004692 -0.003498 0.005601 0.000000 0.026837 0.000000
# 6 0.000000 0.000000 0.000000 -0.001612 0.000000 0.030104
#
#
# Mechanical properties :
#
#
# Convention : Reuss Voigt Hill
#
# Bulk Modulus (GPa) = 48.20511 57.18097 52.69304
# Shear Modulus (GPa) = 28.38521 32.71883 30.55202
#
# Velocity S-wave (km/s) = 3.52093 3.78016 3.65285
# Velocity P-wave (km/s) = 6.13045 6.63522 6.38782
#
# Compressibility (1/GPa) = 0.02074469
#
# Stress axis : x y z
#
# Youngs Moduli (GPa) = 64.48942 63.05210 66.17756
#
# Poissons Ratio (x) = 0.15539 0.63000
# Poissons Ratio (y) = 0.15893 0.05837
# Poissons Ratio (z) = 0.61393 0.05561
#
# Static dielectric constant tensor:
#      x y z
#    x 1.922730 0.000000 -0.043660 
#    y 0.000000 1.869550 0.000000 
#    z -0.043660 0.000000 1.863000 
# 
# From -- ./inp_files/230238.got.cif
#   From: 2010.05.17/outbox.cif.g08.bks.cpg/sg15_116_cif.got.tgz:230238.got - 2010.06.03 18:47:42.
