data_PCOD9280511
_publ_section_title
;
Structure prediction by ZEFSAII (Michael W. Deem and Ramdas Pophale) SiO2 
 PCOD9280511
Probable space group: C 2/C
;
_chemical_formula_sum "Si O2"
_cell_formula_units_Z 64
_cell_length_a 15.828025
_cell_length_b 12.569785
_cell_length_c 15.254618
_cell_angle_alpha 90.000000
_cell_angle_beta 69.447740
_cell_angle_gamma 90.000000
_cell_volume 2841.811247
_symmetry_space_group_name_H-M "C 2/C"
_symmetry_group_IT_number 15
_symmetry_cell_setting 'monoclinic'
loop_
_space_group_symop_operation_xyz
x,y,z
-x,y,1/2-z
-x,-y,-z
x,-y,1/2+z
1/2+x,1/2+y,z
1/2-x,1/2+y,1/2-z
1/2-x,1/2-y,-z
1/2+x,1/2-y,1/2+z
loop_
_atom_site_type_symbol
_atom_site_label
_atom_site_fract_x
_atom_site_fract_y
_atom_site_fract_z
Si Si1 0.511605 0.599940 0.151181
Si Si2 0.618158 0.227771 0.983870
Si Si3 0.826535 0.232246 0.223468
Si Si4 0.588993 0.764674 0.013005
Si Si5 0.104732 0.500216 0.983925
Si Si6 0.719221 0.610149 0.862229
Si Si7 0.350717 0.459986 0.464333
Si Si8 0.761558 0.016818 0.311147
O O1 0.500000 0.548407 0.250000
O O2 0.420391 0.668114 0.182990
O O3 0.583139 0.694018 0.103347
O O4 0.688891 0.497265 0.114451
O O5 0.681667 0.230097 0.874030
O O6 0.512377 0.233540 0.991622
O O7 0.628430 0.111077 0.023222
O O8 0.642346 0.333769 0.027596
O O9 0.810124 0.328574 0.297279
O O10 0.762335 0.137157 0.276775
O O11 0.653747 0.700875 0.924060
O O12 0.623028 0.884149 0.017539
O O13 0.158233 0.505652 0.872979
O O14 0.000000 0.500000 0.000000
O O15 0.693014 0.554757 0.779990
O O16 0.708074 0.516302 0.938019
O O17 0.452406 0.510031 0.427550
#
# Coordination Sequence:
#
# PCOD9280511 Si02
#       8
#     8   8   8   8   8   8   8   8
#     4  10  21  37  60  94 128 161 208 266 327 381
#     4  10  21  39  61  91 127 169 209 258 325 380
#     4  11  21  38  63  90 126 169 211 261 321 382
#     4   9  21  36  64  87 123 170 215 261 311 383
#     4  10  21  41  63  87 125 177 219 253 316 389
#     4  11  23  40  63  96 125 166 218 267 320 378
#     4  11  25  39  64 101 132 163 209 274 331 386
#     4  12  23  39  67  95 129 166 213 268 323 391
#
# _framework density 22.520848999999998
#
# number of rings (size 3 to 8) (size 9 to 14) (size 15 to 20)
#    0.000    1.500    5.000    0.000    1.750    3.500 
#    0.000    0.000    0.000    2.250    0.000    0.000 
#    0.000    0.000    0.000    0.000    0.000    0.000 
#
# Total GULP energy -178219.264784 kJ/mol
# GULP energy per Si atom -5569.352024 kJ/mol
# Density = 2.246959 g / cm^3
# Si number density = 22.520849 Si / 1000 Ang^3
#
#
#
# Elastic Constant Matrix: (Units=GPa)
#
#
# Indices 1 2 3 4 5 6 
#
# 1 47.4952 19.2325 33.3313 0.0000 3.6337 0.0000
# 2 19.2325 189.6451 45.2688 0.0000 -3.1167 0.0000
# 3 33.3313 45.2688 115.6516 0.0000 -12.6925 0.0000
# 4 0.0000 0.0000 0.0000 37.6103 0.0000 -2.2791
# 5 3.6337 -3.1167 -12.6925 0.0000 25.6428 0.0000
# 6 0.0000 0.0000 0.0000 -2.2791 0.0000 19.7897
#
#
#
# Elastic Compliance Matrix: (Units=1/GPa)
#
#
# Indices 1 2 3 4 5 6 
#
# 1 0.028160 -0.000923 -0.008676 0.000000 -0.008397 0.000000
# 2 -0.000923 0.005851 -0.002043 0.000000 -0.000169 0.000000
# 3 -0.008676 -0.002043 0.012747 0.000000 0.007291 0.000000
# 4 0.000000 0.000000 0.000000 0.026775 0.000000 0.003084
# 5 -0.008397 -0.000169 0.007291 0.000000 0.043775 0.000000
# 6 0.000000 0.000000 0.000000 0.003084 0.000000 0.050886
#
#
# Mechanical properties :
#
#
# Convention : Reuss Voigt Hill
#
# Bulk Modulus (GPa) = 42.59982 60.93968 51.76975
# Shear Modulus (GPa) = 25.08739 33.60585 29.34662
#
# Velocity S-wave (km/s) = 3.34123 3.86710 3.61375
# Velocity P-wave (km/s) = 5.81738 6.85983 6.36000
#
# Compressibility (1/GPa) = 0.02347428
#
# Stress axis : x y z
#
# Youngs Moduli (GPa) = 35.51193 170.89672 78.45014
#
# Poissons Ratio (x) = 0.15769 0.68064
# Poissons Ratio (y) = 0.03277 0.16028
# Poissons Ratio (z) = 0.30810 0.34915
#
# Static dielectric constant tensor:
#      x y z
#    x 1.983610 0.000000 -0.016230 
#    y 0.000000 1.912870 0.000000 
#    z -0.016230 0.000000 1.852430 
# 
# From -- ./inp_files/281827.got.cif
#   From: 2010.05.17/outbox.cif.g08.bks.cpg/sg15_141_cif.got.tgz:281827.got - 2010.06.03 18:47:42.
