data_PCOD9280508
_publ_section_title
;
Structure prediction by ZEFSAII (Michael W. Deem and Ramdas Pophale) SiO2 
 PCOD9280508
Probable space group: C 2/C
;
_chemical_formula_sum "Si O2"
_cell_formula_units_Z 32
_cell_length_a 25.931026
_cell_length_b 4.902028
_cell_length_c 9.137113
_cell_angle_alpha 90.000000
_cell_angle_beta 100.696630
_cell_angle_gamma 90.000000
_cell_volume 1141.278736
_symmetry_space_group_name_H-M "C 2/C"
_symmetry_group_IT_number 15
_symmetry_cell_setting 'monoclinic'
loop_
_space_group_symop_operation_xyz
x,y,z
-x,y,1/2-z
-x,-y,-z
x,-y,1/2+z
1/2+x,1/2+y,z
1/2-x,1/2+y,1/2-z
1/2-x,1/2-y,-z
1/2+x,1/2-y,1/2+z
loop_
_atom_site_type_symbol
_atom_site_label
_atom_site_fract_x
_atom_site_fract_y
_atom_site_fract_z
Si Si1 0.594109 0.359777 0.733738
Si Si2 0.311266 0.807811 0.054393
Si Si3 0.557969 0.869717 0.532106
Si Si4 0.210239 0.733883 0.253160
O O1 0.655740 0.370558 0.813650
O O2 0.590516 0.130989 0.606586
O O3 0.565655 0.627269 0.655919
O O4 0.569748 0.243899 0.874263
O O5 0.314252 0.118046 0.109974
O O6 0.250000 0.750000 0.000000
O O7 0.330333 0.739595 0.901878
O O8 0.500000 0.000000 0.500000
O O9 0.255645 0.957982 0.273006
#
# Coordination Sequence:
#
# PCOD9280508 Si02
#       4
#     8   8   8   8
#     4  12  27  48  79 114 151 200 252 310 388 460
#     4  10  23  41  67 103 148 192 238 294 358 448
#     4  12  28  52  78 112 150 194 254 325 386 451
#     4  10  21  37  60  93 139 196 242 287 349 421
#
# _framework density 28.038722
#
# number of rings (size 3 to 8) (size 9 to 14) (size 15 to 20)
#    0.000    1.000    0.000    5.250    0.000   18.000 
#    0.000    0.000    0.000    0.000    0.000    0.000 
#    0.000    0.000    0.000    0.000    0.000    0.000 
#
# Total GULP energy -89497.628084 kJ/mol
# GULP energy per Si atom -5593.601755 kJ/mol
# Density = 2.797490 g / cm^3
# Si number density = 28.038722 Si / 1000 Ang^3
#
#
#
# Elastic Constant Matrix: (Units=GPa)
#
#
# Indices 1 2 3 4 5 6 
#
# 1 105.0207 -5.1818 30.9656 0.0000 19.6444 0.0000
# 2 -5.1818 167.6808 42.0701 0.0000 23.9813 0.0000
# 3 30.9656 42.0701 165.7145 0.0000 12.9179 0.0000
# 4 0.0000 0.0000 0.0000 85.2540 0.0000 -4.0653
# 5 19.6444 23.9813 12.9179 0.0000 54.2210 0.0000
# 6 0.0000 0.0000 0.0000 -4.0653 0.0000 18.1252
#
#
#
# Elastic Compliance Matrix: (Units=1/GPa)
#
#
# Indices 1 2 3 4 5 6 
#
# 1 0.010984 0.001456 -0.002101 0.000000 -0.004123 0.000000
# 2 0.001456 0.006907 -0.001779 0.000000 -0.003159 0.000000
# 3 -0.002101 -0.001779 0.006886 0.000000 -0.000092 0.000000
# 4 0.000000 0.000000 0.000000 0.011856 0.000000 0.002659
# 5 -0.004123 -0.003159 -0.000092 0.000000 0.021356 0.000000
# 6 0.000000 0.000000 0.000000 0.002659 0.000000 0.055768
#
#
# Mechanical properties :
#
#
# Convention : Reuss Voigt Hill
#
# Bulk Modulus (GPa) = 50.17709 63.79152 56.98430
# Shear Modulus (GPa) = 39.92047 56.22419 48.07233
#
# Velocity S-wave (km/s) = 3.77737 4.48284 4.14514
# Velocity P-wave (km/s) = 6.07941 7.04238 6.57854
#
# Compressibility (1/GPa) = 0.01992941
#
# Stress axis : x y z
#
# Youngs Moduli (GPa) = 91.03742 144.78355 145.22279
#
# Poissons Ratio (x) = -0.21084 0.30509
# Poissons Ratio (y) = -0.13257 0.25840
# Poissons Ratio (z) = 0.19126 0.25762
#
# Static dielectric constant tensor:
#      x y z
#    x 2.488680 0.000000 -0.223870 
#    y 0.000000 2.832450 0.000000 
#    z -0.223870 0.000000 2.358590 
# 
# From -- ./inp_files/120491.got.cif
#   From: 2010.05.17/outbox.cif.g08.bks.cpg/sg15_61_cif.got.tgz:120491.got - 2010.06.03 18:47:42.
