data_PCOD9280438
_publ_section_title
;
Structure prediction by ZEFSAII (Michael W. Deem and Ramdas Pophale) SiO2 
 PCOD9280438
Probable space group: C 2/C
;
_chemical_formula_sum "Si O2"
_cell_formula_units_Z 64
_cell_length_a 8.951572
_cell_length_b 28.810194
_cell_length_c 19.045170
_cell_angle_alpha 90.000000
_cell_angle_beta 38.941845
_cell_angle_gamma 90.000000
_cell_volume 3087.146450
_symmetry_space_group_name_H-M "C 2/C"
_symmetry_group_IT_number 15
_symmetry_cell_setting 'monoclinic'
loop_
_space_group_symop_operation_xyz
x,y,z
-x,y,1/2-z
-x,-y,-z
x,-y,1/2+z
1/2+x,1/2+y,z
1/2-x,1/2+y,1/2-z
1/2-x,1/2-y,-z
1/2+x,1/2-y,1/2+z
loop_
_atom_site_type_symbol
_atom_site_label
_atom_site_fract_x
_atom_site_fract_y
_atom_site_fract_z
Si Si1 0.419781 0.845570 0.854695
Si Si2 0.427896 0.904145 0.430114
Si Si3 0.868755 0.137185 0.575554
Si Si4 0.858912 0.253226 0.680999
Si Si5 0.294372 0.006020 0.640421
Si Si6 0.151688 0.849491 0.261139
Si Si7 0.728515 0.900998 0.851939
Si Si8 0.302971 0.761085 0.400579
O O1 0.500000 0.864369 0.750000
O O2 0.496420 0.792126 0.832439
O O3 0.553465 0.870280 0.869949
O O4 0.140547 0.851483 0.961798
O O5 0.230968 0.900542 0.441848
O O6 0.590604 0.949886 0.363116
O O7 0.586171 0.858008 0.363399
O O8 0.330409 0.902749 0.544292
O O9 0.852693 0.123559 0.663117
O O10 0.725674 0.185187 0.613330
O O11 0.919757 0.202389 0.689015
O O12 0.880065 0.260871 0.589080
O O13 0.573871 0.255849 0.793919
O O14 0.000000 0.015562 0.750000
O O15 0.500000 0.000000 0.500000
O O16 0.292849 0.953568 0.669546
O O17 0.000000 0.865023 0.250000
O O18 0.000000 0.884285 0.750000
O O19 0.250000 0.750000 0.500000
#
# Coordination Sequence:
#
# PCOD9280438 Si02
#       8
#     8   8   8   8   8   8   8   8
#     4  12  25  40  59  89 130 175 227 274 332 403
#     4  11  21  41  71  97 131 175 215 287 352 404
#     4  11  24  40  61  95 131 169 218 284 341 404
#     4  10  23  38  57  85 122 167 224 269 324 394
#     4   9  20  41  70 106 140 177 230 285 347 419
#     4  11  22  39  62  90 127 166 220 271 331 396
#     4  10  23  42  68  98 133 179 228 275 338 423
#     4  10  21  37  60  84 121 164 218 274 330 392
#
# _framework density 20.731120000000001
#
# number of rings (size 3 to 8) (size 9 to 14) (size 15 to 20)
#    0.000    1.500    1.250    3.375    3.500    4.000 
#    0.000    1.875    0.000    0.000    0.000    0.000 
#    0.000    0.000    0.000    0.000    0.000    0.000 
#
# Total GULP energy -178196.273340 kJ/mol
# GULP energy per Si atom -5568.633542 kJ/mol
# Density = 2.068394 g / cm^3
# Si number density = 20.731120 Si / 1000 Ang^3
#
#
#
# Elastic Constant Matrix: (Units=GPa)
#
#
# Indices 1 2 3 4 5 6 
#
# 1 149.9325 52.7916 56.7014 0.0000 9.8662 0.0000
# 2 52.7916 79.5924 23.5099 0.0000 -4.9969 0.0000
# 3 56.7014 23.5099 103.5294 0.0000 2.3145 0.0000
# 4 0.0000 0.0000 0.0000 22.7180 0.0000 -0.0238
# 5 9.8662 -4.9969 2.3145 0.0000 50.6588 0.0000
# 6 0.0000 0.0000 0.0000 -0.0238 0.0000 2.4922
#
#
#
# Elastic Compliance Matrix: (Units=1/GPa)
#
#
# Indices 1 2 3 4 5 6 
#
# 1 0.010553 -0.005854 -0.004396 0.000000 -0.002432 0.000000
# 2 -0.005854 0.016825 -0.000678 0.000000 0.002831 0.000000
# 3 -0.004396 -0.000678 0.012216 0.000000 0.000231 0.000000
# 4 0.000000 0.000000 0.000000 0.044018 0.000000 0.000420
# 5 -0.002432 0.002831 0.000231 0.000000 0.020482 0.000000
# 6 0.000000 0.000000 0.000000 0.000420 0.000000 0.401264
#
#
# Mechanical properties :
#
#
# Convention : Reuss Voigt Hill
#
# Bulk Modulus (GPa) = 56.37691 66.56225 61.46958
# Shear Modulus (GPa) = 9.37863 28.51056 18.94460
#
# Velocity S-wave (km/s) = 2.12926 3.71247 3.02623
# Velocity P-wave (km/s) = 5.77048 7.11011 6.47503
#
# Compressibility (1/GPa) = 0.01773776
#
# Stress axis : x y z
#
# Youngs Moduli (GPa) = 94.75561 59.43638 81.86259
#
# Poissons Ratio (x) = 0.34794 0.35989
# Poissons Ratio (y) = 0.55470 0.05549
# Poissons Ratio (z) = 0.41657 0.04029
#
# Static dielectric constant tensor:
#      x y z
#    x 1.727340 0.000000 -0.035540 
#    y 0.000000 1.763280 0.000000 
#    z -0.035540 0.000000 1.793150 
# 
# From -- ./inp_files/194237.got.cif
#   From: 2010.05.17/outbox.cif.g08.bks.cpg/sg15_98_cif.got.tgz:194237.got - 2010.06.03 18:47:42.
