data_PCOD9280643
_publ_section_title
;
Structure prediction by ZEFSAII (Michael W. Deem and Ramdas Pophale) SiO2 
 PCOD9280643
Probable space group: C 2/C
;
_chemical_formula_sum "Si O2"
_cell_formula_units_Z 32
_cell_length_a 4.978341
_cell_length_b 20.764749
_cell_length_c 15.125101
_cell_angle_alpha 90.000000
_cell_angle_beta 83.992679
_cell_angle_gamma 90.000000
_cell_volume 1554.956067
_symmetry_space_group_name_H-M "C 2/C"
_symmetry_group_IT_number 15
_symmetry_cell_setting 'monoclinic'
loop_
_space_group_symop_operation_xyz
x,y,z
-x,y,1/2-z
-x,-y,-z
x,-y,1/2+z
1/2+x,1/2+y,z
1/2-x,1/2+y,1/2-z
1/2-x,1/2-y,-z
1/2+x,1/2-y,1/2+z
loop_
_atom_site_type_symbol
_atom_site_label
_atom_site_fract_x
_atom_site_fract_y
_atom_site_fract_z
Si Si1 0.762118 0.051042 0.588607
Si Si2 0.014079 0.275263 0.940810
Si Si3 0.710729 0.915137 0.528506
Si Si4 0.500000 0.870878 0.250000
Si Si5 0.500000 0.286354 0.250000
O O1 0.515908 0.061172 0.530986
O O2 0.671369 0.083844 0.680685
O O3 0.017226 0.088941 0.539329
O O4 0.792853 0.973521 0.592082
O O5 0.928034 0.350516 0.931117
O O6 0.068640 0.249960 0.839493
O O7 0.750000 0.250000 0.000000
O O8 0.250000 0.250000 0.000000
O O9 0.268952 0.826532 0.215360
#
# Coordination Sequence:
#
# PCOD9280643 Si02
#       5
#     8   8   8   4   4
#     4  10  21  37  62  86 116 157 202 262 309 376
#     4  12  24  41  64  90 129 170 205 262 321 380
#     4  10  21  39  59  87 118 157 207 248 318 378
#     4  12  22  39  60  89 122 156 208 262 318 370
#     4  12  26  39  62  95 124 164 218 256 312 404
#
# _framework density 20.579360000000001
#
# number of rings (size 3 to 8) (size 9 to 14) (size 15 to 20)
#    0.000    1.000    0.000    9.000    0.000    1.000 
#    0.000    0.000    0.000   12.000    0.000    0.000 
#    0.000    0.000    0.000    0.000    0.000    0.000 
#
# Total GULP energy -89121.650383 kJ/mol
# GULP energy per Si atom -5570.103149 kJ/mol
# Density = 2.053252 g / cm^3
# Si number density = 20.579360 Si / 1000 Ang^3
#
#
#
# Elastic Constant Matrix: (Units=GPa)
#
#
# Indices 1 2 3 4 5 6 
#
# 1 151.6634 25.6837 39.5635 0.0000 -15.3025 0.0000
# 2 25.6837 128.4616 60.1079 0.0000 -8.3619 0.0000
# 3 39.5635 60.1079 125.3027 0.0000 -5.3775 0.0000
# 4 0.0000 0.0000 0.0000 24.8035 0.0000 -0.9474
# 5 -15.3025 -8.3619 -5.3775 0.0000 32.8649 0.0000
# 6 0.0000 0.0000 0.0000 -0.9474 0.0000 21.1684
#
#
#
# Elastic Compliance Matrix: (Units=1/GPa)
#
#
# Indices 1 2 3 4 5 6 
#
# 1 0.007501 -0.000327 -0.002080 0.000000 0.003069 0.000000
# 2 -0.000327 0.010156 -0.004697 0.000000 0.001663 0.000000
# 3 -0.002080 -0.004697 0.010874 0.000000 -0.000384 0.000000
# 4 0.000000 0.000000 0.000000 0.040386 0.000000 0.001807
# 5 0.003069 0.001663 -0.000384 0.000000 0.032217 0.000000
# 6 0.000000 0.000000 0.000000 0.001807 0.000000 0.047321
#
#
# Mechanical properties :
#
#
# Convention : Reuss Voigt Hill
#
# Bulk Modulus (GPa) = 69.81620 72.90423 71.36022
# Shear Modulus (GPa) = 29.86186 34.43886 32.15036
#
# Velocity S-wave (km/s) = 3.81341 4.09524 3.95683
# Velocity P-wave (km/s) = 7.30674 7.60685 7.45830
#
# Compressibility (1/GPa) = 0.01432332
#
# Stress axis : x y z
#
# Youngs Moduli (GPa) = 133.31287 98.46500 91.96063
#
# Poissons Ratio (x) = 0.03217 0.19128
# Poissons Ratio (y) = 0.04355 0.43196
# Poissons Ratio (z) = 0.27729 0.46252
#
# Static dielectric constant tensor:
#      x y z
#    x 1.727690 0.000000 0.009620 
#    y 0.000000 1.935770 0.000000 
#    z 0.009620 0.000000 1.721830 
# 
# From -- ./inp_files/128494.got.cif
#   From: 2010.05.17/outbox.cif.g08.bks.cpg/sg15_65_cif.got.tgz:128494.got - 2010.06.03 18:47:42.
