data_PCOD9280347
_publ_section_title
;
Structure prediction by ZEFSAII (Michael W. Deem and Ramdas Pophale) SiO2 
 PCOD9280347
Probable space group: C 2/C
;
_chemical_formula_sum "Si O2"
_cell_formula_units_Z 56
_cell_length_a 14.784328
_cell_length_b 24.844952
_cell_length_c 8.467262
_cell_angle_alpha 90.000000
_cell_angle_beta 118.151462
_cell_angle_gamma 90.000000
_cell_volume 2742.238933
_symmetry_space_group_name_H-M "C 2/C"
_symmetry_group_IT_number 15
_symmetry_cell_setting 'monoclinic'
loop_
_space_group_symop_operation_xyz
x,y,z
-x,y,1/2-z
-x,-y,-z
x,-y,1/2+z
1/2+x,1/2+y,z
1/2-x,1/2+y,1/2-z
1/2-x,1/2-y,-z
1/2+x,1/2-y,1/2+z
loop_
_atom_site_type_symbol
_atom_site_label
_atom_site_fract_x
_atom_site_fract_y
_atom_site_fract_z
Si Si1 0.866536 0.191161 0.882008
Si Si2 0.000000 0.738027 0.250000
Si Si3 0.857313 0.036700 0.479605
Si Si4 0.629647 0.816822 0.116903
Si Si5 0.285429 0.008287 0.408390
Si Si6 0.600694 0.936608 0.222736
Si Si7 0.500000 0.745828 0.250000
Si Si8 0.041432 0.918402 0.961183
O O1 0.747789 0.199438 0.741690
O O2 0.936105 0.222629 0.812360
O O3 0.912218 0.212883 0.085490
O O4 0.885784 0.127562 0.912877
O O5 0.081841 0.700081 0.408970
O O6 0.775344 0.041522 0.272038
O O7 0.948534 0.076381 0.510587
O O8 0.793004 0.036845 0.587738
O O9 0.907389 0.977069 0.513470
O O10 0.615535 0.879013 0.154050
O O11 0.559434 0.783036 0.177280
O O12 0.313936 0.045797 0.578570
O O13 0.381714 0.980157 0.402622
O O14 0.500000 0.937523 0.250000
O O15 0.000000 0.905701 0.750000
#
# Coordination Sequence:
#
# PCOD9280347 Si02
#       8
#     8   4   8   8   8   8   4   8
#     4  11  22  40  70  96 129 166 217 266 326 393
#     4  10  26  46  64  98 130 164 218 282 336 380
#     4  10  21  37  58  94 139 172 205 254 315 383
#     4  11  23  45  68  91 128 169 216 269 333 389
#     4  10  21  39  62  91 127 172 217 258 315 390
#     4  11  23  42  64  92 124 168 219 272 324 380
#     4  10  22  42  66  98 122 162 216 276 322 384
#     4  11  21  36  63  96 138 171 210 252 319 395
#
# _framework density 20.421271000000001
#
# number of rings (size 3 to 8) (size 9 to 14) (size 15 to 20)
#    0.000    1.429    2.857    3.000    0.000    2.286 
#    6.429    0.000    0.000    0.000    0.000    0.000 
#    0.000    0.000    0.000    0.000    0.000    0.000 
#
# Total GULP energy -156229.197203 kJ/mol
# GULP energy per Si atom -5579.614186 kJ/mol
# Density = 2.037479 g / cm^3
# Si number density = 20.421271 Si / 1000 Ang^3
#
#
#
# Elastic Constant Matrix: (Units=GPa)
#
#
# Indices 1 2 3 4 5 6 
#
# 1 95.2843 8.1800 14.0459 0.0000 10.2115 0.0000
# 2 8.1800 72.6814 34.4870 0.0000 6.5669 0.0000
# 3 14.0459 34.4870 110.9039 0.0000 10.1930 0.0000
# 4 0.0000 0.0000 0.0000 27.1009 0.0000 3.4712
# 5 10.2115 6.5669 10.1930 0.0000 36.1873 0.0000
# 6 0.0000 0.0000 0.0000 3.4712 0.0000 22.8177
#
#
#
# Elastic Compliance Matrix: (Units=1/GPa)
#
#
# Indices 1 2 3 4 5 6 
#
# 1 0.010976 -0.000526 -0.000976 0.000000 -0.002727 0.000000
# 2 -0.000526 0.016251 -0.004855 0.000000 -0.001433 0.000000
# 3 -0.000976 -0.004855 0.010824 0.000000 -0.001892 0.000000
# 4 0.000000 0.000000 0.000000 0.037632 0.000000 -0.005725
# 5 -0.002727 -0.001433 -0.001892 0.000000 0.029197 0.000000
# 6 0.000000 0.000000 0.000000 -0.005725 0.000000 0.044697
#
#
# Mechanical properties :
#
#
# Convention : Reuss Voigt Hill
#
# Bulk Modulus (GPa) = 39.46729 43.58836 41.52783
# Shear Modulus (GPa) = 29.28484 32.03162 30.65823
#
# Velocity S-wave (km/s) = 3.79098 3.96478 3.87885
# Velocity P-wave (km/s) = 6.20729 6.50770 6.35927
#
# Compressibility (1/GPa) = 0.02533743
#
# Stress axis : x y z
#
# Youngs Moduli (GPa) = 91.10643 61.53423 92.38617
#
# Poissons Ratio (x) = 0.03236 0.09017
# Poissons Ratio (y) = 0.04791 0.44855
# Poissons Ratio (z) = 0.08892 0.29876
#
# Static dielectric constant tensor:
#      x y z
#    x 1.756070 0.000000 0.005470 
#    y 0.000000 1.705190 0.000000 
#    z 0.005470 0.000000 1.760940 
# 
# From -- ./inp_files/42783.got.cif
#   From: 2010.05.17/outbox.cif.g08.bks.cpg/sg15_22_cif.got.tgz:42783.got - 2010.06.03 18:47:42.
