data_PCOD9280388
_publ_section_title
;
Structure prediction by ZEFSAII (Michael W. Deem and Ramdas Pophale) SiO2 
 PCOD9280388
Probable space group: C 2/C
;
_chemical_formula_sum "Si O2"
_cell_formula_units_Z 52
_cell_length_a 10.178866
_cell_length_b 23.972808
_cell_length_c 14.110998
_cell_angle_alpha 90.000000
_cell_angle_beta 37.545393
_cell_angle_gamma 90.000000
_cell_volume 2098.317485
_symmetry_space_group_name_H-M "C 2/C"
_symmetry_group_IT_number 15
_symmetry_cell_setting 'monoclinic'
loop_
_space_group_symop_operation_xyz
x,y,z
-x,y,1/2-z
-x,-y,-z
x,-y,1/2+z
1/2+x,1/2+y,z
1/2-x,1/2+y,1/2-z
1/2-x,1/2-y,-z
1/2+x,1/2-y,1/2+z
loop_
_atom_site_type_symbol
_atom_site_label
_atom_site_fract_x
_atom_site_fract_y
_atom_site_fract_z
Si Si1 0.292980 0.799578 0.739953
Si Si2 0.730832 0.401310 0.506630
Si Si3 0.000000 0.805732 0.750000
Si Si4 0.283562 0.897352 0.248770
Si Si5 0.439950 0.484452 0.423992
Si Si6 0.539343 0.304641 0.082981
Si Si7 0.400037 0.111701 0.411498
O O1 0.488879 0.757022 0.647651
O O2 0.393431 0.860315 0.653569
O O3 0.169415 0.774812 0.719290
O O4 0.136096 0.802848 0.920439
O O5 0.622808 0.345937 0.606788
O O6 0.754295 0.399983 0.379295
O O7 0.592114 0.456195 0.604709
O O8 0.968676 0.406839 0.412778
O O9 0.138075 0.944812 0.283023
O O10 0.185166 0.837876 0.280115
O O11 0.500000 0.500000 0.500000
O O12 0.221298 0.448188 0.528433
O O13 0.706204 0.345189 0.040636
O O14 0.500000 0.118811 0.250000
#
# Coordination Sequence:
#
# PCOD9280388 Si02
#       7
#     8   8   4   8   8   8   8
#     4  11  24  40  62  89 123 167 204 262 310 367
#     4  10  21  37  59  87 122 161 197 257 301 361
#     4  12  26  40  56  92 134 164 204 250 318 374
#     4   9  19  38  61  87 116 152 211 255 295 363
#     4   9  19  34  64  94 116 157 210 247 300 370
#     4  10  21  41  64  90 117 155 211 259 312 364
#     4   9  20  38  64  93 121 156 207 263 306 363
#
# _framework density 24.781760999999999
#
# number of rings (size 3 to 8) (size 9 to 14) (size 15 to 20)
#    0.000    2.154    1.538    0.462    8.615    1.846 
#    0.000    3.077    0.000    0.000    0.000    0.000 
#    0.000    0.000    0.000    0.000    0.000    0.000 
#
# Total GULP energy -145089.764736 kJ/mol
# GULP energy per Si atom -5580.375567 kJ/mol
# Density = 2.472536 g / cm^3
# Si number density = 24.781761 Si / 1000 Ang^3
#
#
#
# Elastic Constant Matrix: (Units=GPa)
#
#
# Indices 1 2 3 4 5 6 
#
# 1 70.1898 7.1545 42.5604 0.0000 15.2960 0.0000
# 2 7.1545 85.5522 9.3418 0.0000 2.4747 0.0000
# 3 42.5604 9.3418 58.7873 0.0000 8.9712 0.0000
# 4 0.0000 0.0000 0.0000 12.1532 0.0000 -15.2417
# 5 15.2960 2.4747 8.9712 0.0000 34.0423 0.0000
# 6 0.0000 0.0000 0.0000 -15.2417 0.0000 31.3521
#
#
#
# Elastic Compliance Matrix: (Units=1/GPa)
#
#
# Indices 1 2 3 4 5 6 
#
# 1 0.027022 -0.000035 -0.018447 0.000000 -0.007278 0.000000
# 2 -0.000035 0.011900 -0.001809 0.000000 -0.000373 0.000000
# 3 -0.018447 -0.001809 0.030599 0.000000 0.000357 0.000000
# 4 0.000000 0.000000 0.000000 0.210813 0.000000 0.102486
# 5 -0.007278 -0.000373 0.000357 0.000000 0.032578 0.000000
# 6 0.000000 0.000000 0.000000 0.102486 0.000000 0.081719
#
#
# Mechanical properties :
#
#
# Convention : Reuss Voigt Hill
#
# Bulk Modulus (GPa) = 34.55538 36.96031 35.75785
# Shear Modulus (GPa) = 11.23949 25.87433 18.55691
#
# Velocity S-wave (km/s) = 2.13196 3.23474 2.73941
# Velocity P-wave (km/s) = 4.47599 5.37569 4.94634
#
# Compressibility (1/GPa) = 0.02893905
#
# Stress axis : x y z
#
# Youngs Moduli (GPa) = 37.00630 84.03366 32.68090
#
# Poissons Ratio (x) = 0.00294 0.60288
# Poissons Ratio (y) = 0.00129 0.05911
# Poissons Ratio (z) = 0.68267 0.15200
#
# Static dielectric constant tensor:
#      x y z
#    x 2.084560 0.000000 -0.118870 
#    y 0.000000 1.950480 0.000000 
#    z -0.118870 0.000000 2.403050 
# 
# From -- ./inp_files/201178.got.cif
#   From: 2010.05.17/outbox.cif.g08.bks.cpg/sg15_101_cif.got.tgz:201178.got - 2010.06.03 18:47:42.
