data_PCOD9280042
_publ_section_title
;
Structure prediction by ZEFSAII (Michael W. Deem and Ramdas Pophale) SiO2 
 PCOD9280042
Probable space group: C 2/C
;
_chemical_formula_sum "Si O2"
_cell_formula_units_Z 36
_cell_length_a 14.536960
_cell_length_b 18.738550
_cell_length_c 7.928141
_cell_angle_alpha 90.000000
_cell_angle_beta 133.458735
_cell_angle_gamma 90.000000
_cell_volume 1567.616247
_symmetry_space_group_name_H-M "C 2/C"
_symmetry_group_IT_number 15
_symmetry_cell_setting 'monoclinic'
loop_
_space_group_symop_operation_xyz
x,y,z
-x,y,1/2-z
-x,-y,-z
x,-y,1/2+z
1/2+x,1/2+y,z
1/2-x,1/2+y,1/2-z
1/2-x,1/2-y,-z
1/2+x,1/2-y,1/2+z
loop_
_atom_site_type_symbol
_atom_site_label
_atom_site_fract_x
_atom_site_fract_y
_atom_site_fract_z
Si Si1 0.682122 0.556965 0.196742
Si Si2 0.906728 0.549329 0.985477
Si Si3 0.500000 0.456582 0.750000
Si Si4 0.270698 0.793083 0.703416
Si Si5 0.449831 0.796749 0.489893
O O1 0.790204 0.500616 0.390953
O O2 0.593484 0.583256 0.238891
O O3 0.740873 0.622287 0.165089
O O4 0.591503 0.508885 0.968633
O O5 0.884007 0.626090 0.873180
O O6 0.000000 0.571813 0.250000
O O7 0.000000 0.500000 0.000000
O O8 0.250000 0.750000 0.500000
O O9 0.417646 0.786873 0.940255
O O10 0.161332 0.759246 0.679750
O O11 0.500000 0.788044 0.750000
#
# Coordination Sequence:
#
# PCOD9280042 Si02
#       5
#     8   8   4   8   8
#     4  11  23  42  67  99 141 181 229 282 346 414
#     4  11  21  38  66  96 130 166 229 276 337 404
#     4  10  26  40  64 102 138 184 224 288 348 410
#     4  10  21  36  63  99 130 168 230 281 337 397
#     4   9  20  35  59  96 125 170 218 283 329 397
#
# _framework density 22.964804000000001
#
# number of rings (size 3 to 8) (size 9 to 14) (size 15 to 20)
#    0.000    1.778    2.222    1.333   10.889    1.778 
#    0.000    0.000    2.444    4.000    0.000    0.000 
#    0.000    0.000    0.000    0.000    0.000    0.000 
#
# Total GULP energy -100308.091119 kJ/mol
# GULP energy per Si atom -5572.671729 kJ/mol
# Density = 2.291253 g / cm^3
# Si number density = 22.964804 Si / 1000 Ang^3
#
#
#
# Elastic Constant Matrix: (Units=GPa)
#
#
# Indices 1 2 3 4 5 6 
#
# 1 113.8423 35.5373 31.7776 0.0000 42.5064 0.0000
# 2 35.5373 133.0957 29.6026 0.0000 32.1511 0.0000
# 3 31.7776 29.6026 50.2052 0.0000 31.8925 0.0000
# 4 0.0000 0.0000 0.0000 21.7259 0.0000 7.4540
# 5 42.5064 32.1511 31.8925 0.0000 40.8952 0.0000
# 6 0.0000 0.0000 0.0000 7.4540 0.0000 37.1309
#
#
#
# Elastic Compliance Matrix: (Units=1/GPa)
#
#
# Indices 1 2 3 4 5 6 
#
# 1 0.014381 -0.000318 0.000835 0.000000 -0.015350 0.000000
# 2 -0.000318 0.009352 -0.001689 0.000000 -0.005705 0.000000
# 3 0.000835 -0.001689 0.039821 0.000000 -0.030595 0.000000
# 4 0.000000 0.000000 0.000000 0.049433 0.000000 -0.009924
# 5 -0.015350 -0.005705 -0.030595 0.000000 0.068752 0.000000
# 6 0.000000 0.000000 0.000000 -0.009924 0.000000 0.028924
#
#
# Mechanical properties :
#
#
# Convention : Reuss Voigt Hill
#
# Bulk Modulus (GPa) = 16.33695 54.55313 35.44504
# Shear Modulus (GPa) = 21.42159 33.29878 27.36019
#
# Velocity S-wave (km/s) = 3.05749 3.81201 3.45541
# Velocity P-wave (km/s) = 4.42648 6.57129 5.60248
#
# Compressibility (1/GPa) = 0.06121092
#
# Stress axis : x y z
#
# Youngs Moduli (GPa) = 69.53457 106.92890 25.11258
#
# Poissons Ratio (x) = 0.03398 -0.02098
# Poissons Ratio (y) = 0.02210 0.04242
# Poissons Ratio (z) = -0.05809 0.18062
#
# Static dielectric constant tensor:
#      x y z
#    x 2.036960 0.000000 0.021260 
#    y 0.000000 1.997810 0.000000 
#    z 0.021260 0.000000 1.990060 
# 
# From -- ./inp_files/38902.got.cif
#   From: 2010.05.17/outbox.cif.g08.bks.cpg/sg15_20_cif.got.tgz:38902.got - 2010.06.03 18:47:42.
