data_PCOD9280440
_publ_section_title
;
Structure prediction by ZEFSAII (Michael W. Deem and Ramdas Pophale) SiO2 
 PCOD9280440
Probable space group: C 2/C
;
_chemical_formula_sum "Si O2"
_cell_formula_units_Z 56
_cell_length_a 29.762440
_cell_length_b 20.796910
_cell_length_c 5.262006
_cell_angle_alpha 90.000000
_cell_angle_beta 59.302833
_cell_angle_gamma 90.000000
_cell_volume 2800.627034
_symmetry_space_group_name_H-M "C 2/C"
_symmetry_group_IT_number 15
_symmetry_cell_setting 'monoclinic'
loop_
_space_group_symop_operation_xyz
x,y,z
-x,y,1/2-z
-x,-y,-z
x,-y,1/2+z
1/2+x,1/2+y,z
1/2-x,1/2+y,1/2-z
1/2-x,1/2-y,-z
1/2+x,1/2-y,1/2+z
loop_
_atom_site_type_symbol
_atom_site_label
_atom_site_fract_x
_atom_site_fract_y
_atom_site_fract_z
Si Si1 0.301137 0.251555 0.104321
Si Si2 0.441360 0.210587 0.317307
Si Si3 0.685249 0.042081 0.257381
Si Si4 0.229912 0.852219 0.919552
Si Si5 0.624592 0.667486 0.476564
Si Si6 0.061908 0.042203 0.552809
Si Si7 0.888978 0.662042 0.986886
O O1 0.262902 0.193547 0.128441
O O2 0.269091 0.306728 0.337828
O O3 0.342101 0.213638 0.170190
O O4 0.339212 0.288507 0.806072
O O5 0.500000 0.214592 0.250000
O O6 0.419764 0.281994 0.312808
O O7 0.430969 0.170940 0.089375
O O8 0.410355 0.178531 0.644450
O O9 0.738664 0.082766 0.135948
O O10 0.638301 0.092954 0.425236
O O11 0.683032 0.990182 0.488285
O O12 0.168711 0.859640 0.039225
O O13 0.595657 0.606758 0.439967
O O14 0.000000 0.058139 0.750000
O O15 0.072682 0.997735 0.278342
#
# Coordination Sequence:
#
# PCOD9280440 Si02
#       7
#     8   8   8   8   8   8   8
#     4   9  20  37  58  90 119 160 195 242 310 362
#     4  11  22  38  65  98 122 150 200 259 315 362
#     4  11  25  42  63  90 122 166 209 245 293 363
#     4  10  21  37  60  85 127 158 197 245 297 360
#     4  11  22  36  62  89 123 161 200 253 299 362
#     4  10  24  43  60  81 118 167 210 248 294 347
#     4  10  21  41  64  88 126 161 195 251 312 364
#
# _framework density 19.995522999999999
#
# number of rings (size 3 to 8) (size 9 to 14) (size 15 to 20)
#    0.000    1.714    1.429    2.143    4.000    1.143 
#    0.000    2.857    0.000    8.571    0.000    0.000 
#    0.000    0.000    0.000    0.000    0.000    0.000 
#
# Total GULP energy -156151.171032 kJ/mol
# GULP energy per Si atom -5576.827537 kJ/mol
# Density = 1.995001 g / cm^3
# Si number density = 19.995523 Si / 1000 Ang^3
#
#
#
# Elastic Constant Matrix: (Units=GPa)
#
#
# Indices 1 2 3 4 5 6 
#
# 1 96.8112 30.9833 8.2316 0.0000 -4.1273 0.0000
# 2 30.9833 63.4371 -5.2403 0.0000 -8.4610 0.0000
# 3 8.2316 -5.2403 31.8779 0.0000 7.3892 0.0000
# 4 0.0000 0.0000 0.0000 22.3305 0.0000 -2.1678
# 5 -4.1273 -8.4610 7.3892 0.0000 30.4998 0.0000
# 6 0.0000 0.0000 0.0000 -2.1678 0.0000 25.8957
#
#
#
# Elastic Compliance Matrix: (Units=1/GPa)
#
#
# Indices 1 2 3 4 5 6 
#
# 1 0.012855 -0.006521 -0.004636 0.000000 0.001054 0.000000
# 2 -0.006521 0.019768 0.004097 0.000000 0.003609 0.000000
# 3 -0.004636 0.004097 0.035093 0.000000 -0.007993 0.000000
# 4 0.000000 0.000000 0.000000 0.045149 0.000000 0.003779
# 5 0.001054 0.003609 -0.007993 0.000000 0.035867 0.000000
# 6 0.000000 0.000000 0.000000 0.003779 0.000000 0.038933
#
#
# Mechanical properties :
#
#
# Convention : Reuss Voigt Hill
#
# Bulk Modulus (GPa) = 18.65772 28.89725 23.77749
# Shear Modulus (GPa) = 22.76335 26.28864 24.52600
#
# Velocity S-wave (km/s) = 3.37771 3.62985 3.50605
# Velocity P-wave (km/s) = 4.95612 5.66136 5.32044
#
# Compressibility (1/GPa) = 0.05359710
#
# Stress axis : x y z
#
# Youngs Moduli (GPa) = 77.78774 50.58572 28.49570
#
# Poissons Ratio (x) = 0.32988 0.13210
# Poissons Ratio (y) = 0.50727 -0.11675
# Poissons Ratio (z) = 0.36061 -0.20725
#
# Static dielectric constant tensor:
#      x y z
#    x 1.774110 0.000000 0.022070 
#    y 0.000000 1.681530 0.000000 
#    z 0.022070 0.000000 1.792420 
# 
# From -- ./inp_files/17173.got.cif
#   From: 2010.05.17/outbox.cif.g08.bks.cpg/sg15_9_cif.got.tgz:17173.got - 2010.06.03 18:47:42.
