data_PCOD9280062
_publ_section_title
;
Structure prediction by ZEFSAII (Michael W. Deem and Ramdas Pophale) SiO2 
 PCOD9280062
Probable space group: C 2/C
;
_chemical_formula_sum "Si O2"
_cell_formula_units_Z 28
_cell_length_a 17.557942
_cell_length_b 16.219317
_cell_length_c 5.075532
_cell_angle_alpha 90.000000
_cell_angle_beta 108.317812
_cell_angle_gamma 90.000000
_cell_volume 1372.157455
_symmetry_space_group_name_H-M "C 2/C"
_symmetry_group_IT_number 15
_symmetry_cell_setting 'monoclinic'
loop_
_space_group_symop_operation_xyz
x,y,z
-x,y,1/2-z
-x,-y,-z
x,-y,1/2+z
1/2+x,1/2+y,z
1/2-x,1/2+y,1/2-z
1/2-x,1/2-y,-z
1/2+x,1/2-y,1/2+z
loop_
_atom_site_type_symbol
_atom_site_label
_atom_site_fract_x
_atom_site_fract_y
_atom_site_fract_z
Si Si1 0.000000 0.153444 0.250000
Si Si2 0.868653 0.946210 0.315174
Si Si3 0.234791 0.308336 0.233796
Si Si4 0.447733 0.814730 0.431948
O O1 0.943917 0.217365 0.349016
O O2 0.050493 0.100026 0.508162
O O3 0.796595 0.883519 0.293005
O O4 0.864978 0.023420 0.511666
O O5 0.250000 0.250000 0.500000
O O6 0.143535 0.341500 0.137791
O O7 0.250000 0.250000 0.000000
O O8 0.500000 0.852592 0.250000
O O9 0.500000 0.823160 0.750000
#
# Coordination Sequence:
#
# PCOD9280062 Si02
#       4
#     4   8   8   8
#     4  10  22  38  62  90 130 162 202 244 326 372
#     4  12  26  39  60  94 135 166 194 255 328 382
#     4  12  22  42  66  89 125 170 221 258 296 376
#     4  10  21  36  64  94 115 159 221 260 303 347
#
# _framework density 20.405819000000001
#
# number of rings (size 3 to 8) (size 9 to 14) (size 15 to 20)
#    0.857    0.000    2.857    6.000    4.000    0.000 
#    0.000    0.000    0.000    5.143    0.000    0.000 
#    0.000    0.000    0.000    0.000    0.000    0.000 
#
# Total GULP energy -78264.392411 kJ/mol
# GULP energy per Si atom -5590.313744 kJ/mol
# Density = 2.035937 g / cm^3
# Si number density = 20.405819 Si / 1000 Ang^3
#
#
#
# Elastic Constant Matrix: (Units=GPa)
#
#
# Indices 1 2 3 4 5 6 
#
# 1 107.7773 6.4665 27.1016 0.0000 21.5945 0.0000
# 2 6.4665 31.5446 -8.6734 0.0000 12.8165 0.0000
# 3 27.1016 -8.6734 106.9851 0.0000 -5.7274 0.0000
# 4 0.0000 0.0000 0.0000 9.5545 0.0000 4.0119
# 5 21.5945 12.8165 -5.7274 0.0000 45.9080 0.0000
# 6 0.0000 0.0000 0.0000 4.0119 0.0000 26.4739
#
#
#
# Elastic Compliance Matrix: (Units=1/GPa)
#
#
# Indices 1 2 3 4 5 6 
#
# 1 0.011229 -0.000989 -0.003214 0.000000 -0.005407 0.000000
# 2 -0.000989 0.036457 0.002704 0.000000 -0.009375 0.000000
# 3 -0.003214 0.002704 0.010491 0.000000 0.002066 0.000000
# 4 0.000000 0.000000 0.000000 0.111775 0.000000 -0.016939
# 5 -0.005407 -0.009375 0.002066 0.000000 0.027201 0.000000
# 6 0.000000 0.000000 0.000000 -0.016939 0.000000 0.040340
#
#
# Mechanical properties :
#
#
# Convention : Reuss Voigt Hill
#
# Bulk Modulus (GPa) = 18.12277 32.89961 25.51119
# Shear Modulus (GPa) = 19.31364 31.14811 25.23087
#
# Velocity S-wave (km/s) = 3.07982 3.91120 3.52014
# Velocity P-wave (km/s) = 4.64193 6.04601 5.38989
#
# Compressibility (1/GPa) = 0.05517919
#
# Stress axis : x y z
#
# Youngs Moduli (GPa) = 89.05230 27.42984 95.31831
#
# Poissons Ratio (x) = 0.02712 0.30638
# Poissons Ratio (y) = 0.08806 -0.25776
# Poissons Ratio (z) = 0.28624 -0.07418
#
# Static dielectric constant tensor:
#      x y z
#    x 1.745500 0.000000 -0.029550 
#    y 0.000000 1.714450 0.000000 
#    z -0.029550 0.000000 1.697570 
# 
# From -- ./inp_files/6270.got.cif
#   From: 2010.05.17/outbox.cif.g08.bks.cpg/sg15_4_cif.got.tgz:6270.got - 2010.06.03 18:47:42.
