data_PCOD9280289
_publ_section_title
;
Structure prediction by ZEFSAII (Michael W. Deem and Ramdas Pophale) SiO2 
 PCOD9280289
Probable space group: C 2/C
;
_chemical_formula_sum "Si O2"
_cell_formula_units_Z 64
_cell_length_a 11.967894
_cell_length_b 31.868444
_cell_length_c 8.756539
_cell_angle_alpha 90.000000
_cell_angle_beta 88.548451
_cell_angle_gamma 90.000000
_cell_volume 3338.656153
_symmetry_space_group_name_H-M "C 2/C"
_symmetry_group_IT_number 15
_symmetry_cell_setting 'monoclinic'
loop_
_space_group_symop_operation_xyz
x,y,z
-x,y,1/2-z
-x,-y,-z
x,-y,1/2+z
1/2+x,1/2+y,z
1/2-x,1/2+y,1/2-z
1/2-x,1/2-y,-z
1/2+x,1/2-y,1/2+z
loop_
_atom_site_type_symbol
_atom_site_label
_atom_site_fract_x
_atom_site_fract_y
_atom_site_fract_z
Si Si1 0.051543 0.673231 0.083548
Si Si2 0.910502 0.858259 0.526389
Si Si3 0.344832 0.638099 0.371178
Si Si4 0.296389 0.890878 0.097080
Si Si5 0.627288 0.121701 0.558541
Si Si6 0.665587 0.736168 0.133669
Si Si7 0.592757 0.740987 0.457448
Si Si8 0.529098 0.044113 0.926130
O O1 0.000000 0.663931 0.250000
O O2 0.148372 0.641912 0.024417
O O3 0.097257 0.720747 0.075563
O O4 0.947255 0.662878 0.973960
O O5 0.872924 0.874071 0.696652
O O6 0.835572 0.883988 0.410939
O O7 0.886902 0.808042 0.504327
O O8 0.043951 0.864333 0.528304
O O9 0.238720 0.618464 0.455629
O O10 0.315702 0.686831 0.352653
O O11 0.341834 0.879735 0.264076
O O12 0.346259 0.936943 0.059754
O O13 0.549670 0.082339 0.517186
O O14 0.666864 0.753707 0.306560
O O15 0.537648 0.741075 0.085724
O O16 0.750000 0.750000 0.000000
O O17 0.500000 0.039760 0.750000
O O18 0.500000 0.000000 0.000000
#
# Coordination Sequence:
#
# PCOD9280289 Si02
#       8
#     8   8   8   8   8   8   8   8
#     4  11  22  35  52  76 110 146 192 243 288 336
#     4   9  19  38  51  76 109 148 197 234 274 321
#     4   9  18  33  55  76 105 147 191 232 268 330
#     4  10  22  36  56  82 115 145 181 230 281 345
#     4  10  21  37  58  84 111 146 182 226 289 338
#     4   9  17  29  51  74  96 141 190 239 295 325
#     4   9  20  33  49  71 107 140 194 250 275 328
#     4   9  20  38  60  90 116 136 167 216 279 345
#
# _framework density 19.169388999999999
#
# number of rings (size 3 to 8) (size 9 to 14) (size 15 to 20)
#    0.000    2.500    0.000    4.125    5.250    5.000 
#    4.500    0.000    0.000    0.750    0.000    0.000 
#    0.000    0.000    0.000    0.000    0.000    0.000 
#
# Total GULP energy -178417.141679 kJ/mol
# GULP energy per Si atom -5575.535677 kJ/mol
# Density = 1.912576 g / cm^3
# Si number density = 19.169389 Si / 1000 Ang^3
#
#
#
# Elastic Constant Matrix: (Units=GPa)
#
#
# Indices 1 2 3 4 5 6 
#
# 1 87.8574 24.2173 19.3919 0.0000 -3.1159 0.0000
# 2 24.2173 78.4920 16.1591 0.0000 4.8764 0.0000
# 3 19.3919 16.1591 37.3164 0.0000 -8.7917 0.0000
# 4 0.0000 0.0000 0.0000 24.3395 0.0000 -6.2740
# 5 -3.1159 4.8764 -8.7917 0.0000 36.0882 0.0000
# 6 0.0000 0.0000 0.0000 -6.2740 0.0000 17.7630
#
#
#
# Elastic Compliance Matrix: (Units=1/GPa)
#
#
# Indices 1 2 3 4 5 6 
#
# 1 0.013464 -0.003002 -0.005651 0.000000 0.000191 0.000000
# 2 -0.003002 0.015104 -0.005858 0.000000 -0.003727 0.000000
# 3 -0.005651 -0.005858 0.034312 0.000000 0.008663 0.000000
# 4 0.000000 0.000000 0.000000 0.045201 0.000000 0.015965
# 5 0.000191 -0.003727 0.008663 0.000000 0.030341 0.000000
# 6 0.000000 0.000000 0.000000 0.015965 0.000000 0.061936
#
#
# Mechanical properties :
#
#
# Convention : Reuss Voigt Hill
#
# Bulk Modulus (GPa) = 29.53696 35.91137 32.72417
# Shear Modulus (GPa) = 20.77553 25.23130 23.00341
#
# Velocity S-wave (km/s) = 3.29566 3.63192 3.46787
# Velocity P-wave (km/s) = 5.47026 6.03011 5.75699
#
# Compressibility (1/GPa) = 0.03385589
#
# Stress axis : x y z
#
# Youngs Moduli (GPa) = 74.27295 66.20697 29.14392
#
# Poissons Ratio (x) = 0.19878 0.16470
# Poissons Ratio (y) = 0.22300 0.17074
# Poissons Ratio (z) = 0.41974 0.38787
#
# Static dielectric constant tensor:
#      x y z
#    x 1.704410 0.000000 0.013850 
#    y 0.000000 1.671620 0.000000 
#    z 0.013850 0.000000 1.729250 
# 
# From -- ./inp_files/35687.got.cif
#   From: 2010.05.17/outbox.cif.g08.bks.cpg/sg15_18_cif.got.tgz:35687.got - 2010.06.03 18:47:42.
