data_PCOD9280570
_publ_section_title
;
Structure prediction by ZEFSAII (Michael W. Deem and Ramdas Pophale) SiO2 
 PCOD9280570
Probable space group: C 2/C
;
_chemical_formula_sum "Si O2"
_cell_formula_units_Z 44
_cell_length_a 13.493602
_cell_length_b 18.402199
_cell_length_c 8.408732
_cell_angle_alpha 90.000000
_cell_angle_beta 65.885997
_cell_angle_gamma 90.000000
_cell_volume 1905.778958
_symmetry_space_group_name_H-M "C 2/C"
_symmetry_group_IT_number 15
_symmetry_cell_setting 'monoclinic'
loop_
_space_group_symop_operation_xyz
x,y,z
-x,y,1/2-z
-x,-y,-z
x,-y,1/2+z
1/2+x,1/2+y,z
1/2-x,1/2+y,1/2-z
1/2-x,1/2-y,-z
1/2+x,1/2-y,1/2+z
loop_
_atom_site_type_symbol
_atom_site_label
_atom_site_fract_x
_atom_site_fract_y
_atom_site_fract_z
Si Si1 0.000000 0.499348 0.250000
Si Si2 0.112759 0.963046 0.581033
Si Si3 0.960692 0.608372 0.518207
Si Si4 0.886457 0.890798 0.267023
Si Si5 0.292652 0.854882 0.583333
Si Si6 0.298320 0.785456 0.228712
O O1 0.066850 0.443914 0.314780
O O2 0.928443 0.555272 0.397210
O O3 0.101058 0.934831 0.408370
O O4 0.209320 0.918368 0.598805
O O5 0.000000 0.950073 0.750000
O O6 0.139619 0.047963 0.584700
O O7 0.905394 0.686039 0.569744
O O8 0.090504 0.618109 0.434280
O O9 0.797251 0.830898 0.290946
O O10 0.000000 0.857662 0.250000
O O11 0.311923 0.812382 0.402964
O O12 0.234931 0.798004 0.739664
#
# Coordination Sequence:
#
# PCOD9280570 Si02
#       6
#     4   8   8   8   8   8
#     4  10  24  38  70  94 132 158 210 274 326 384
#     4  10  21  37  61  89 119 161 212 258 313 377
#     4  11  22  43  64 100 125 167 210 271 323 381
#     4  10  21  38  60  89 121 162 211 261 315 376
#     4  10  22  39  64  92 124 168 212 257 318 390
#     4  10  22  39  64  90 127 168 209 260 317 382
#
# _framework density 23.087671
#
# number of rings (size 3 to 8) (size 9 to 14) (size 15 to 20)
#    0.000    1.818    1.818    2.182    5.091    4.364 
#    4.909    0.909    0.000    0.000    0.000    0.000 
#    0.000    0.000    0.000    0.000    0.000    0.000 
#
# Total GULP energy -122964.148427 kJ/mol
# GULP energy per Si atom -5589.279474 kJ/mol
# Density = 2.303512 g / cm^3
# Si number density = 23.087671 Si / 1000 Ang^3
#
#
#
# Elastic Constant Matrix: (Units=GPa)
#
#
# Indices 1 2 3 4 5 6 
#
# 1 133.7892 39.6047 25.5776 0.0000 -2.3445 0.0000
# 2 39.6047 73.9586 13.9658 0.0000 -8.2118 0.0000
# 3 25.5776 13.9658 40.0489 0.0000 7.1424 0.0000
# 4 0.0000 0.0000 0.0000 26.8287 0.0000 -11.4252
# 5 -2.3445 -8.2118 7.1424 0.0000 25.2876 0.0000
# 6 0.0000 0.0000 0.0000 -11.4252 0.0000 4.0776
#
#
#
# Elastic Compliance Matrix: (Units=1/GPa)
#
#
# Indices 1 2 3 4 5 6 
#
# 1 0.009651 -0.004142 -0.004885 0.000000 0.000929 0.000000
# 2 -0.004142 0.017326 -0.004561 0.000000 0.006530 0.000000
# 3 -0.004885 -0.004561 0.031617 0.000000 -0.010864 0.000000
# 4 0.000000 0.000000 0.000000 -0.192911 0.000000 -0.540523
# 5 0.000929 0.006530 -0.010864 0.000000 0.044820 0.000000
# 6 0.000000 0.000000 0.000000 -0.540523 0.000000 -1.269263
#
#
# Mechanical properties :
#
#
# Convention : Reuss Voigt Hill
#
# Bulk Modulus (GPa) = 31.82929 45.12142 38.47535
# Shear Modulus (GPa) = -3.78469 22.48202 9.34867
#
# Velocity S-wave (km/s) = -1.28173 3.12391 2.01445
# Velocity P-wave (km/s) = 3.40966 5.70944 4.70231
#
# Compressibility (1/GPa) = 0.03141761
#
# Stress axis : x y z
#
# Youngs Moduli (GPa) = 103.61788 57.71788 31.62841
#
# Poissons Ratio (x) = 0.23909 0.15450
# Poissons Ratio (y) = 0.42923 0.14425
# Poissons Ratio (z) = 0.50615 0.26324
#
# Static dielectric constant tensor:
#      x y z
#    x 1.831280 0.000000 0.004990 
#    y 0.000000 1.852220 0.000000 
#    z 0.004990 0.000000 1.969060 
# 
# From -- ./inp_files/30763.got.cif
#   From: 2010.05.17/outbox.cif.g08.bks.cpg/sg15_16_cif.got.tgz:30763.got - 2010.06.03 18:47:42.
