data_PCOD9280672
_publ_section_title
;
Structure prediction by ZEFSAII (Michael W. Deem and Ramdas Pophale) SiO2 
 PCOD9280672
Probable space group: C 2/C
;
_chemical_formula_sum "Si O2"
_cell_formula_units_Z 60
_cell_length_a 25.376397
_cell_length_b 9.439001
_cell_length_c 15.988979
_cell_angle_alpha 90.000000
_cell_angle_beta 54.850066
_cell_angle_gamma 90.000000
_cell_volume 3131.433930
_symmetry_space_group_name_H-M "C 2/C"
_symmetry_group_IT_number 15
_symmetry_cell_setting 'monoclinic'
loop_
_space_group_symop_operation_xyz
x,y,z
-x,y,1/2-z
-x,-y,-z
x,-y,1/2+z
1/2+x,1/2+y,z
1/2-x,1/2+y,1/2-z
1/2-x,1/2-y,-z
1/2+x,1/2-y,1/2+z
loop_
_atom_site_type_symbol
_atom_site_label
_atom_site_fract_x
_atom_site_fract_y
_atom_site_fract_z
Si Si1 0.164932 0.734674 0.404480
Si Si2 0.393534 0.023978 0.628760
Si Si3 0.897094 0.995916 0.126789
Si Si4 0.477813 0.442942 0.385412
Si Si5 0.500000 0.895301 0.250000
Si Si6 0.683664 0.271951 0.715548
Si Si7 0.602779 0.326750 0.635981
Si Si8 0.013148 0.379192 0.600286
O O1 0.151638 0.576765 0.384756
O O2 0.135489 0.845778 0.364553
O O3 0.240689 0.754430 0.348010
O O4 0.127753 0.764752 0.525072
O O5 0.353371 0.128509 0.723900
O O6 0.440060 0.109908 0.522660
O O7 0.441624 0.919928 0.634872
O O8 0.950282 0.992218 0.152639
O O9 0.842338 0.109340 0.196859
O O10 0.936247 0.038813 0.008187
O O11 0.439156 0.535452 0.352324
O O12 0.481680 0.275724 0.365052
O O13 0.444071 0.786716 0.276563
O O14 0.472876 0.996635 0.346634
O O15 0.662340 0.334473 0.644892
#
# Coordination Sequence:
#
# PCOD9280672 Si02
#       8
#     8   8   8   8   4   8   8   8
#     4  11  23  42  62  87 131 170 210 258 308 381
#     4  11  22  39  65  94 121 156 217 264 311 365
#     4  10  21  37  62  91 116 161 215 252 316 371
#     4  10  21  39  62  88 127 154 201 271 318 366
#     4  12  22  38  62  90 122 154 206 260 316 374
#     4  12  23  40  63  91 125 173 214 252 308 388
#     4  11  24  39  61  95 124 165 210 258 320 382
#     4  11  22  38  64  92 123 157 197 271 322 368
#
# _framework density 19.160550000000001
#
# number of rings (size 3 to 8) (size 9 to 14) (size 15 to 20)
#    0.000    1.067    5.333    2.000    0.000    1.600 
#    0.000    0.000    0.000    0.800    0.000    0.000 
#    0.000    0.000    0.000    0.000    0.000    0.000 
#
# Total GULP energy -167464.436139 kJ/mol
# GULP energy per Si atom -5582.147871 kJ/mol
# Density = 1.911694 g / cm^3
# Si number density = 19.160550 Si / 1000 Ang^3
#
#
#
# Elastic Constant Matrix: (Units=GPa)
#
#
# Indices 1 2 3 4 5 6 
#
# 1 90.2563 42.5145 24.1426 0.0000 -4.3947 0.0000
# 2 42.5145 124.9875 31.3508 0.0000 -7.3234 0.0000
# 3 24.1426 31.3508 42.3648 0.0000 -2.6926 0.0000
# 4 0.0000 0.0000 0.0000 25.5057 0.0000 4.4558
# 5 -4.3947 -7.3234 -2.6926 0.0000 32.2009 0.0000
# 6 0.0000 0.0000 0.0000 4.4558 0.0000 15.8751
#
#
#
# Elastic Compliance Matrix: (Units=1/GPa)
#
#
# Indices 1 2 3 4 5 6 
#
# 1 0.014194 -0.003400 -0.005528 0.000000 0.000702 0.000000
# 2 -0.003400 0.010725 -0.005905 0.000000 0.001481 0.000000
# 3 -0.005528 -0.005905 0.031157 0.000000 0.000508 0.000000
# 4 0.000000 0.000000 0.000000 0.041228 0.000000 -0.011572
# 5 0.000702 0.001481 0.000508 0.000000 0.031530 0.000000
# 6 0.000000 0.000000 0.000000 -0.011572 0.000000 0.066240
#
#
# Mechanical properties :
#
#
# Convention : Reuss Voigt Hill
#
# Bulk Modulus (GPa) = 37.86497 50.40273 44.13385
# Shear Modulus (GPa) = 21.40918 25.35638 23.38278
#
# Velocity S-wave (km/s) = 3.34632 3.64175 3.49716
# Velocity P-wave (km/s) = 5.89366 6.63670 6.27619
#
# Compressibility (1/GPa) = 0.02640963
#
# Stress axis : x y z
#
# Youngs Moduli (GPa) = 70.45164 93.23627 32.09569
#
# Poissons Ratio (x) = 0.31705 0.17742
# Poissons Ratio (y) = 0.23957 0.18953
# Poissons Ratio (z) = 0.38945 0.55057
#
# Static dielectric constant tensor:
#      x y z
#    x 1.684980 0.000000 0.026060 
#    y 0.000000 1.667930 0.000000 
#    z 0.026060 0.000000 1.669930 
# 
# From -- ./inp_files/218575.got.cif
#   From: 2010.05.17/outbox.cif.g08.bks.cpg/sg15_110_cif.got.tgz:218575.got - 2010.06.03 18:47:42.
