data_PCOD9280845
_publ_section_title
;
Structure prediction by ZEFSAII (Michael W. Deem and Ramdas Pophale) SiO2 
 PCOD9280845
Probable space group: C 2/C
;
_chemical_formula_sum "Si O2"
_cell_formula_units_Z 44
_cell_length_a 19.020654
_cell_length_b 18.304323
_cell_length_c 5.019808
_cell_angle_alpha 90.000000
_cell_angle_beta 93.490715
_cell_angle_gamma 90.000000
_cell_volume 1744.454789
_symmetry_space_group_name_H-M "C 2/C"
_symmetry_group_IT_number 15
_symmetry_cell_setting 'monoclinic'
loop_
_space_group_symop_operation_xyz
x,y,z
-x,y,1/2-z
-x,-y,-z
x,-y,1/2+z
1/2+x,1/2+y,z
1/2-x,1/2+y,1/2-z
1/2-x,1/2-y,-z
1/2+x,1/2-y,1/2+z
loop_
_atom_site_type_symbol
_atom_site_label
_atom_site_fract_x
_atom_site_fract_y
_atom_site_fract_z
Si Si1 0.000000 0.945424 0.750000
Si Si2 0.744828 0.127395 0.989728
Si Si3 0.617484 0.047984 0.758554
Si Si4 0.182008 0.754459 0.296688
Si Si5 0.646323 0.549542 0.155642
Si Si6 0.953758 0.694866 0.975680
O O1 0.924862 0.907006 0.776496
O O2 0.000000 0.000000 0.500000
O O3 0.690423 0.188237 0.088072
O O4 0.782691 0.090088 0.247300
O O5 0.699145 0.073207 0.798759
O O6 0.806433 0.170169 0.852181
O O7 0.575354 0.118417 0.649038
O O8 0.602871 0.982823 0.548872
O O9 0.250000 0.750000 0.500000
O O10 0.112166 0.743199 0.447319
O O11 0.644819 0.479707 0.356002
O O12 0.000000 0.728767 0.750000
O O13 0.000000 0.682241 0.250000
#
# Coordination Sequence:
#
# PCOD9280845 Si02
#       6
#     4   8   8   8   8   8
#     4   8  16  34  56  84 128 174 204 256 340 406
#     4  11  24  42  71 107 140 185 244 304 356 425
#     4  12  25  43  72 110 148 189 241 297 370 447
#     4  11  25  47  75  98 141 194 242 298 362 419
#     4  10  21  37  64  98 139 179 224 286 355 426
#     4  12  27  49  75 106 150 195 243 307 367 433
#
# _framework density 25.222781000000001
#
# number of rings (size 3 to 8) (size 9 to 14) (size 15 to 20)
#    0.000    1.091    1.818    4.364    5.091    2.182 
#    0.000    1.818    2.000    0.000    0.000    0.000 
#    0.000    0.182    0.000    0.000    0.000    0.000 
#
# Total GULP energy -123256.259789 kJ/mol
# GULP energy per Si atom -5602.557263 kJ/mol
# Density = 2.516537 g / cm^3
# Si number density = 25.222781 Si / 1000 Ang^3
#
#
#
# Elastic Constant Matrix: (Units=GPa)
#
#
# Indices 1 2 3 4 5 6 
#
# 1 140.1733 27.8236 37.7894 0.0000 -7.4554 0.0000
# 2 27.8236 52.6197 22.2810 0.0000 -9.5875 0.0000
# 3 37.7894 22.2810 130.5284 0.0000 5.6254 0.0000
# 4 0.0000 0.0000 0.0000 30.5755 0.0000 -7.4707
# 5 -7.4554 -9.5875 5.6254 0.0000 52.3315 0.0000
# 6 0.0000 0.0000 0.0000 -7.4707 0.0000 21.3103
#
#
#
# Elastic Compliance Matrix: (Units=1/GPa)
#
#
# Indices 1 2 3 4 5 6 
#
# 1 0.008370 -0.003502 -0.001858 0.000000 0.000750 0.000000
# 2 -0.003502 0.022888 -0.003066 0.000000 0.004024 0.000000
# 3 -0.001858 -0.003066 0.008799 0.000000 -0.001772 0.000000
# 4 0.000000 0.000000 0.000000 0.035770 0.000000 0.012540
# 5 0.000750 0.004024 -0.001772 0.000000 0.020144 0.000000
# 6 0.000000 0.000000 0.000000 0.012540 0.000000 0.051322
#
#
# Mechanical properties :
#
#
# Convention : Reuss Voigt Hill
#
# Bulk Modulus (GPa) = 43.09666 55.45661 49.27663
# Shear Modulus (GPa) = 29.09020 36.53862 32.81441
#
# Velocity S-wave (km/s) = 3.39976 3.81022 3.61083
# Velocity P-wave (km/s) = 5.70391 6.43362 6.07973
#
# Compressibility (1/GPa) = 0.02320366
#
# Stress axis : x y z
#
# Youngs Moduli (GPa) = 119.47473 43.69139 113.65212
#
# Poissons Ratio (x) = 0.15303 0.21113
# Poissons Ratio (y) = 0.41845 0.34850
# Poissons Ratio (z) = 0.22195 0.13397
#
# Static dielectric constant tensor:
#      x y z
#    x 2.056930 0.000000 -0.011440 
#    y 0.000000 2.000340 0.000000 
#    z -0.011440 0.000000 1.961610 
# 
# From -- ./inp_files/12948.got.cif
#   From: 2010.05.17/outbox.cif.g08.bks.cpg/sg15_7_cif.got.tgz:12948.got - 2010.06.03 18:47:42.
