data_PCOD9280242
_publ_section_title
;
Structure prediction by ZEFSAII (Michael W. Deem and Ramdas Pophale) SiO2 
 PCOD9280242
Probable space group: C 2/C
;
_chemical_formula_sum "Si O2"
_cell_formula_units_Z 48
_cell_length_a 17.172991
_cell_length_b 34.404293
_cell_length_c 5.104569
_cell_angle_alpha 90.000000
_cell_angle_beta 56.679833
_cell_angle_gamma 90.000000
_cell_volume 2520.132642
_symmetry_space_group_name_H-M "C 2/C"
_symmetry_group_IT_number 15
_symmetry_cell_setting 'monoclinic'
loop_
_space_group_symop_operation_xyz
x,y,z
-x,y,1/2-z
-x,-y,-z
x,-y,1/2+z
1/2+x,1/2+y,z
1/2-x,1/2+y,1/2-z
1/2-x,1/2-y,-z
1/2+x,1/2-y,1/2+z
loop_
_atom_site_type_symbol
_atom_site_label
_atom_site_fract_x
_atom_site_fract_y
_atom_site_fract_z
Si Si1 0.596590 0.026322 0.500459
Si Si2 0.303334 0.473354 0.695389
Si Si3 0.000000 0.205657 0.250000
Si Si4 0.000000 0.257449 0.750000
Si Si5 0.610240 0.606060 0.577486
Si Si6 0.788664 0.725476 0.679697
Si Si7 0.172357 0.150296 0.973177
O O1 0.500000 0.047955 0.750000
O O2 0.698188 0.044063 0.359872
O O3 0.594602 0.010070 0.208942
O O4 0.311893 0.507731 0.465527
O O5 0.375311 0.439584 0.497474
O O6 0.977544 0.231419 0.540172
O O7 0.914870 0.178813 0.335680
O O8 0.099119 0.277388 0.514155
O O9 0.500000 0.615770 0.750000
O O10 0.647262 0.620280 0.789237
O O11 0.673566 0.627506 0.243090
O O12 0.750000 0.750000 0.500000
O O13 0.752119 0.681117 0.754771
O O14 0.750000 0.750000 0.000000
#
# Coordination Sequence:
#
# PCOD9280242 Si02
#       7
#     8   8   4   4   8   8   8
#     4   8  14  27  50  76  98 125 165 215 267 321
#     4  10  21  37  57  83 111 142 185 237 289 346
#     4  12  20  36  64  86 116 153 208 245 280 346
#     4  12  22  38  60  94 118 151 200 247 294 338
#     4  12  24  38  59  83 114 155 193 237 293 346
#     4  12  23  37  62  90 119 157 196 245 293 338
#     4  12  23  38  58  86 115 154 199 241 281 341
#
# _framework density 19.046614999999999
#
# number of rings (size 3 to 8) (size 9 to 14) (size 15 to 20)
#    0.000    1.000    5.000    3.000    0.000    0.667 
#    0.000    0.000    3.667    0.000    0.000    0.000 
#    0.000    0.000    0.000    0.000    0.000    0.000 
#
# Total GULP energy -133845.489995 kJ/mol
# GULP energy per Si atom -5576.895416 kJ/mol
# Density = 1.900326 g / cm^3
# Si number density = 19.046615 Si / 1000 Ang^3
#
#
#
# Elastic Constant Matrix: (Units=GPa)
#
#
# Indices 1 2 3 4 5 6 
#
# 1 41.1606 2.6354 21.3970 0.0000 -14.3439 0.0000
# 2 2.6354 45.1164 16.0502 0.0000 -14.9062 0.0000
# 3 21.3970 16.0502 88.8425 0.0000 1.3149 0.0000
# 4 0.0000 0.0000 0.0000 33.0133 0.0000 0.8056
# 5 -14.3439 -14.9062 1.3149 0.0000 45.9702 0.0000
# 6 0.0000 0.0000 0.0000 0.8056 0.0000 25.3533
#
#
#
# Elastic Compliance Matrix: (Units=1/GPa)
#
#
# Indices 1 2 3 4 5 6 
#
# 1 0.032957 0.005367 -0.009089 0.000000 0.012283 0.000000
# 2 0.005367 0.027737 -0.006464 0.000000 0.010853 0.000000
# 3 -0.009089 -0.006464 0.014692 0.000000 -0.005352 0.000000
# 4 0.000000 0.000000 0.000000 0.030314 0.000000 -0.000963
# 5 0.012283 0.010853 -0.005352 0.000000 0.029258 0.000000
# 6 0.000000 0.000000 0.000000 -0.000963 0.000000 0.039473
#
#
# Mechanical properties :
#
#
# Convention : Reuss Voigt Hill
#
# Bulk Modulus (GPa) = 18.17750 28.36497 23.27123
# Shear Modulus (GPa) = 23.45864 29.86984 26.66424
#
# Velocity S-wave (km/s) = 3.51329 3.96441 3.74565
# Velocity P-wave (km/s) = 5.10117 5.99000 5.56337
#
# Compressibility (1/GPa) = 0.05501306
#
# Stress axis : x y z
#
# Youngs Moduli (GPa) = 30.34283 36.05316 68.06524
#
# Poissons Ratio (x) = -0.19348 0.61862
# Poissons Ratio (y) = -0.16284 0.43997
# Poissons Ratio (z) = 0.27578 0.23305
#
# Static dielectric constant tensor:
#      x y z
#    x 1.689440 0.000000 -0.054900 
#    y 0.000000 1.640920 0.000000 
#    z -0.054900 0.000000 1.677120 
# 
# From -- ./inp_files/14505.got.cif
#   From: 2010.05.17/outbox.cif.g08.bks.cpg/sg15_8_cif.got.tgz:14505.got - 2010.06.03 18:47:42.
