data_PCOD9280286
_publ_section_title
;
Structure prediction by ZEFSAII (Michael W. Deem and Ramdas Pophale) SiO2 
 PCOD9280286
Probable space group: C 2/C
;
_chemical_formula_sum "Si O2"
_cell_formula_units_Z 48
_cell_length_a 17.747080
_cell_length_b 28.195223
_cell_length_c 4.893675
_cell_angle_alpha 90.000000
_cell_angle_beta 61.078797
_cell_angle_gamma 90.000000
_cell_volume 2143.321691
_symmetry_space_group_name_H-M "C 2/C"
_symmetry_group_IT_number 15
_symmetry_cell_setting 'monoclinic'
loop_
_space_group_symop_operation_xyz
x,y,z
-x,y,1/2-z
-x,-y,-z
x,-y,1/2+z
1/2+x,1/2+y,z
1/2-x,1/2+y,1/2-z
1/2-x,1/2-y,-z
1/2+x,1/2-y,1/2+z
loop_
_atom_site_type_symbol
_atom_site_label
_atom_site_fract_x
_atom_site_fract_y
_atom_site_fract_z
Si Si1 0.409574 0.967871 0.830841
Si Si2 0.330768 0.294128 0.666145
Si Si3 0.915743 0.115341 0.217581
Si Si4 0.828293 0.965068 0.611333
Si Si5 0.712473 0.803832 0.371189
Si Si6 0.229399 0.403108 0.161686
O O1 0.500000 0.943333 0.750000
O O2 0.327933 0.938606 0.067021
O O3 0.409386 0.985143 0.521961
O O4 0.398902 0.336530 0.575306
O O5 0.351627 0.241033 0.527035
O O6 0.253498 0.310614 0.598476
O O7 0.292893 0.288720 0.037531
O O8 0.908508 0.069170 0.037265
O O9 0.829552 0.108580 0.560309
O O10 0.000000 0.117425 0.250000
O O11 0.827413 0.008713 0.826872
O O12 0.750351 0.929441 0.837541
O O13 0.683341 0.852613 0.282800
#
# Coordination Sequence:
#
# PCOD9280286 Si02
#       6
#     8   8   8   8   8   8
#     4  10  21  37  58  83 111 148 190 243 301 359
#     4   9  18  35  56  82 113 146 199 243 296 355
#     4   9  21  37  58  85 121 167 203 246 293 357
#     4  10  22  35  51  78 114 154 199 240 281 337
#     4   9  18  33  58  84 107 146 191 249 302 351
#     4   9  20  35  59  83 114 151 194 243 297 355
#
# _framework density 22.395142
#
# number of rings (size 3 to 8) (size 9 to 14) (size 15 to 20)
#    1.000    1.667    0.000    1.000    2.333    3.333 
#    0.000    6.667    0.000   13.000    0.000    0.000 
#    0.000    0.000    0.000    0.000    0.000    1.333 
#
# Total GULP energy -133642.503349 kJ/mol
# GULP energy per Si atom -5568.437640 kJ/mol
# Density = 2.234417 g / cm^3
# Si number density = 22.395142 Si / 1000 Ang^3
#
#
#
# Elastic Constant Matrix: (Units=GPa)
#
#
# Indices 1 2 3 4 5 6 
#
# 1 109.6671 48.3032 28.3042 0.0000 4.2658 0.0000
# 2 48.3032 147.8895 3.8613 0.0000 12.8010 0.0000
# 3 28.3042 3.8613 72.0998 0.0000 6.9562 0.0000
# 4 0.0000 0.0000 0.0000 4.8930 0.0000 8.1922
# 5 4.2658 12.8010 6.9562 0.0000 31.5435 0.0000
# 6 0.0000 0.0000 0.0000 8.1922 0.0000 16.9621
#
#
#
# Elastic Compliance Matrix: (Units=1/GPa)
#
#
# Indices 1 2 3 4 5 6 
#
# 1 0.011970 -0.003873 -0.004585 0.000000 0.000964 0.000000
# 2 -0.003873 0.008262 0.001380 0.000000 -0.003134 0.000000
# 3 -0.004585 0.001380 0.015929 0.000000 -0.003453 0.000000
# 4 0.000000 0.000000 0.000000 1.067885 0.000000 -0.515755
# 5 0.000964 -0.003134 -0.003453 0.000000 0.033605 0.000000
# 6 0.000000 0.000000 0.000000 -0.515755 0.000000 0.308048
#
#
# Mechanical properties :
#
#
# Convention : Reuss Voigt Hill
#
# Bulk Modulus (GPa) = 45.44298 54.51044 49.97671
# Shear Modulus (GPa) = 3.40787 27.29224 15.35006
#
# Velocity S-wave (km/s) = 1.23491 3.49473 2.62089
# Velocity P-wave (km/s) = 4.72957 6.37788 5.61454
#
# Compressibility (1/GPa) = 0.02200560
#
# Stress axis : x y z
#
# Youngs Moduli (GPa) = 83.53946 121.03399 62.77972
#
# Poissons Ratio (x) = 0.46882 0.28783
# Poissons Ratio (y) = 0.32359 -0.08666
# Poissons Ratio (z) = 0.38301 -0.16708
#
# Static dielectric constant tensor:
#      x y z
#    x 1.880220 0.000000 0.013850 
#    y 0.000000 1.929020 0.000000 
#    z 0.013850 0.000000 1.850710 
# 
# From -- ./inp_files/10776.got.cif
#   From: 2010.05.17/outbox.cif.g08.bks.cpg/sg15_6_cif.got.tgz:10776.got - 2010.06.03 18:47:42.
