data_PCOD9280126
_publ_section_title
;
Structure prediction by ZEFSAII (Michael W. Deem and Ramdas Pophale) SiO2 
 PCOD9280126
Probable space group: C 2/C
;
_chemical_formula_sum "Si O2"
_cell_formula_units_Z 56
_cell_length_a 16.507628
_cell_length_b 20.914721
_cell_length_c 19.447924
_cell_angle_alpha 90.000000
_cell_angle_beta 30.369681
_cell_angle_gamma 90.000000
_cell_volume 3394.669878
_symmetry_space_group_name_H-M "C 2/C"
_symmetry_group_IT_number 15
_symmetry_cell_setting 'monoclinic'
loop_
_space_group_symop_operation_xyz
x,y,z
-x,y,1/2-z
-x,-y,-z
x,-y,1/2+z
1/2+x,1/2+y,z
1/2-x,1/2+y,1/2-z
1/2-x,1/2-y,-z
1/2+x,1/2-y,1/2+z
loop_
_atom_site_type_symbol
_atom_site_label
_atom_site_fract_x
_atom_site_fract_y
_atom_site_fract_z
Si Si1 0.668240 0.706547 0.296016
Si Si2 0.571279 0.224900 0.623908
Si Si3 0.880499 0.175379 0.598752
Si Si4 0.685049 0.417784 0.471560
Si Si5 0.399768 0.086583 0.944697
Si Si6 0.260177 0.543464 0.708898
Si Si7 0.821340 0.072423 0.266244
O O1 0.543952 0.723740 0.326218
O O2 0.791146 0.765566 0.199928
O O3 0.557910 0.696693 0.444728
O O4 0.740128 0.637649 0.225050
O O5 0.500000 0.208848 0.750000
O O6 0.750000 0.250000 0.500000
O O7 0.575555 0.162988 0.572388
O O8 0.802820 0.147892 0.583231
O O9 0.853759 0.109431 0.660498
O O10 0.825706 0.425735 0.423205
O O11 0.682662 0.469395 0.411465
O O12 0.512777 0.419624 0.633541
O O13 0.571042 0.056917 0.837571
O O14 0.269896 0.065793 0.095578
O O15 0.289919 0.487122 0.739590
#
# Coordination Sequence:
#
# PCOD9280126 Si02
#       7
#     8   8   8   8   8   8   8
#     4  11  19  31  45  72  94 138 168 210 233 303
#     4  12  21  30  46  72 107 139 170 200 245 293
#     4   9  20  32  50  67 101 134 170 208 247 297
#     4   9  20  35  53  69 101 141 176 202 252 307
#     4  12  20  33  51  75 104 139 175 211 252 307
#     4  10  21  37  49  69 105 145 168 215 263 295
#     4  11  22  33  51  73 105 135 180 215 253 303
#
# _framework density 16.496449999999999
#
# number of rings (size 3 to 8) (size 9 to 14) (size 15 to 20)
#    0.857    0.571    1.429    7.714    0.000    0.000 
#    0.000    0.000    0.000    0.000    0.000    0.000 
#    0.000    6.857    0.000    0.000    0.000    0.000 
#
# Total GULP energy -155929.590697 kJ/mol
# GULP energy per Si atom -5568.913953 kJ/mol
# Density = 1.645890 g / cm^3
# Si number density = 16.496450 Si / 1000 Ang^3
#
#
#
# Elastic Constant Matrix: (Units=GPa)
#
#
# Indices 1 2 3 4 5 6 
#
# 1 26.9048 30.3672 11.1181 -0.0038 5.3572 0.0059
# 2 30.3672 86.9535 11.5094 -0.0145 13.7395 0.0098
# 3 11.1181 11.5094 83.2804 0.0008 13.5407 0.0073
# 4 -0.0038 -0.0145 0.0008 20.9971 0.0080 3.7959
# 5 5.3572 13.7395 13.5407 0.0080 21.3165 -0.0057
# 6 0.0059 0.0098 0.0073 3.7959 -0.0057 24.2368
#
#
#
# Elastic Compliance Matrix: (Units=1/GPa)
#
#
# Indices 1 2 3 4 5 6 
#
# 1 0.063812 -0.021785 -0.005781 -0.000003 0.001677 -0.000004
# 2 -0.021785 0.020259 0.001496 0.000015 -0.008533 -0.000008
# 3 -0.005781 0.001496 0.013932 0.000004 -0.008361 -0.000006
# 4 -0.000003 0.000015 0.000004 0.049013 -0.000032 -0.007676
# 5 0.001677 -0.008533 -0.008361 -0.000032 0.057302 0.000024
# 6 -0.000004 -0.000008 -0.000006 -0.007676 0.000024 0.042462
#
#
# Mechanical properties :
#
#
# Convention : Reuss Voigt Hill
#
# Bulk Modulus (GPa) = 21.80415 33.68090 27.74252
# Shear Modulus (GPa) = 15.91303 22.91966 19.41635
#
# Velocity S-wave (km/s) = 3.10922 3.73147 3.43447
# Velocity P-wave (km/s) = 5.11233 6.24712 5.70799
#
# Compressibility (1/GPa) = 0.04586283
#
# Stress axis : x y z
#
# Youngs Moduli (GPa) = 15.67104 49.36118 71.77648
#
# Poissons Ratio (x) = 1.07534 0.41493
# Poissons Ratio (y) = 0.34140 -0.10738
# Poissons Ratio (z) = 0.09059 -0.07384
#
# Static dielectric constant tensor:
#      x y z
#    x 1.549700 0.000000 -0.010120 
#    y 0.000000 1.590720 0.000010 
#    z -0.010120 0.000010 1.627720 
# 
# From -- ./inp_files/249517.got.cif
#   From: 2010.05.17/outbox.cif.g08.bks.cpg/sg15_125_cif.got.tgz:249517.got - 2010.06.03 18:47:42.
