data_PCOD9280433
_publ_section_title
;
Structure prediction by ZEFSAII (Michael W. Deem and Ramdas Pophale) SiO2 
 PCOD9280433
Probable space group: C 2/C
;
_chemical_formula_sum "Si O2"
_cell_formula_units_Z 48
_cell_length_a 10.066920
_cell_length_b 18.489208
_cell_length_c 21.672835
_cell_angle_alpha 90.000000
_cell_angle_beta 43.522295
_cell_angle_gamma 90.000000
_cell_volume 2777.927238
_symmetry_space_group_name_H-M "C 2/C"
_symmetry_group_IT_number 15
_symmetry_cell_setting 'monoclinic'
loop_
_space_group_symop_operation_xyz
x,y,z
-x,y,1/2-z
-x,-y,-z
x,-y,1/2+z
1/2+x,1/2+y,z
1/2-x,1/2+y,1/2-z
1/2-x,1/2-y,-z
1/2+x,1/2-y,1/2+z
loop_
_atom_site_type_symbol
_atom_site_label
_atom_site_fract_x
_atom_site_fract_y
_atom_site_fract_z
Si Si1 0.064499 0.568927 0.017247
Si Si2 0.905646 0.071850 0.003749
Si Si3 0.228604 0.338836 0.677192
Si Si4 0.776613 0.291730 0.086570
Si Si5 0.053700 0.209763 0.895453
Si Si6 0.288433 0.652133 0.297602
O O1 0.233912 0.557922 0.011559
O O2 0.880683 0.605187 0.113432
O O3 0.148642 0.627223 0.940218
O O4 0.000000 0.500000 0.000000
O O5 0.817359 0.114510 0.091921
O O6 0.056310 0.127601 0.919776
O O7 0.000000 0.000000 0.000000
O O8 0.284979 0.255486 0.644825
O O9 0.288661 0.361453 0.724662
O O10 0.000000 0.345200 0.750000
O O11 0.562489 0.289667 0.129895
O O12 0.912018 0.250442 0.991428
O O13 0.234245 0.263189 0.828391
O O14 0.500000 0.635023 0.250000
#
# Coordination Sequence:
#
# PCOD9280433 Si02
#       6
#     8   8   8   8   8   8
#     4  10  21  39  56  81 118 152 182 223 281 346
#     4  10  21  37  60  82 110 153 190 222 276 346
#     4  11  18  36  61  82 104 143 196 237 274 324
#     4   8  15  32  59  77  97 141 185 217 263 329
#     4   8  15  34  55  77 104 137 179 221 268 324
#     4  11  22  36  57  84 113 141 184 244 285 316
#
# _framework density 17.279070000000001
#
# number of rings (size 3 to 8) (size 9 to 14) (size 15 to 20)
#    0.000    2.333    3.333    2.000    2.333    0.000 
#    3.000    5.833    0.000    0.000    0.000    0.000 
#    0.000    0.000    0.000    0.000    0.000    0.000 
#
# Total GULP energy -133639.464971 kJ/mol
# GULP energy per Si atom -5568.311040 kJ/mol
# Density = 1.723974 g / cm^3
# Si number density = 17.279070 Si / 1000 Ang^3
#
#
#
# Elastic Constant Matrix: (Units=GPa)
#
#
# Indices 1 2 3 4 5 6 
#
# 1 107.4276 51.4889 34.7620 0.0000 4.7609 0.0013
# 2 51.4889 128.1529 27.9652 0.0004 4.6174 0.0013
# 3 34.7620 27.9652 59.3862 0.0006 9.3677 0.0013
# 4 0.0000 0.0004 0.0006 16.9138 0.0001 -6.3695
# 5 4.7609 4.6174 9.3677 0.0001 25.4259 -0.0008
# 6 0.0013 0.0013 0.0013 -6.3695 -0.0008 0.1084
#
#
#
# Elastic Compliance Matrix: (Units=1/GPa)
#
#
# Indices 1 2 3 4 5 6 
#
# 1 0.013101 -0.004002 -0.005852 0.000001 0.000430 0.000001
# 2 -0.004002 0.009920 -0.002296 0.000001 -0.000206 0.000002
# 3 -0.005852 -0.002296 0.022409 0.000004 -0.006744 0.000012
# 4 0.000001 0.000001 0.000004 -0.002799 -0.000007 -0.164430
# 5 0.000430 -0.000206 -0.006744 -0.000007 0.041771 -0.000019
# 6 0.000001 0.000002 0.000012 -0.164430 -0.000019 -0.436632
#
#
# Mechanical properties :
#
#
# Convention : Reuss Voigt Hill
#
# Bulk Modulus (GPa) = 47.32642 58.15546 52.74094
# Shear Modulus (GPa) = -15.58190 20.53967 2.47889
#
# Velocity S-wave (km/s) = -3.00622 3.45150 1.19905
# Velocity P-wave (km/s) = 3.92417 7.04368 5.70143
#
# Compressibility (1/GPa) = 0.02112985
#
# Stress axis : x y z
#
# Youngs Moduli (GPa) = 76.32728 100.80989 44.62419
#
# Poissons Ratio (x) = 0.40347 0.26114
# Poissons Ratio (y) = 0.30549 0.10245
# Poissons Ratio (z) = 0.44667 0.23145
#
# Static dielectric constant tensor:
#      x y z
#    x 1.536360 0.000000 -0.014440 
#    y 0.000000 1.628610 0.000000 
#    z -0.014440 0.000000 1.584260 
# 
# From -- ./inp_files/233407.got.cif
#   From: 2010.05.17/outbox.cif.g08.bks.cpg/sg15_117_cif.got.tgz:233407.got - 2010.06.03 18:47:42.
