data_PCOD9280820
_publ_section_title
;
Structure prediction by ZEFSAII (Michael W. Deem and Ramdas Pophale) SiO2 
 PCOD9280820
Probable space group: C 2/C
;
_chemical_formula_sum "Si O2"
_cell_formula_units_Z 48
_cell_length_a 11.749632
_cell_length_b 13.431440
_cell_length_c 26.151564
_cell_angle_alpha 90.000000
_cell_angle_beta 147.020097
_cell_angle_gamma 90.000000
_cell_volume 2246.563046
_symmetry_space_group_name_H-M "C 2/C"
_symmetry_group_IT_number 15
_symmetry_cell_setting 'monoclinic'
loop_
_space_group_symop_operation_xyz
x,y,z
-x,y,1/2-z
-x,-y,-z
x,-y,1/2+z
1/2+x,1/2+y,z
1/2-x,1/2+y,1/2-z
1/2-x,1/2-y,-z
1/2+x,1/2-y,1/2+z
loop_
_atom_site_type_symbol
_atom_site_label
_atom_site_fract_x
_atom_site_fract_y
_atom_site_fract_z
Si Si1 0.933496 0.412550 0.834228
Si Si2 0.570412 0.112138 0.834774
Si Si3 0.455603 0.533378 0.787184
Si Si4 0.244986 0.263695 0.214651
Si Si5 0.083809 0.772398 0.984335
Si Si6 0.905803 0.402437 0.489619
O O1 0.695779 0.456234 0.742017
O O2 0.925834 0.305999 0.804382
O O3 0.014328 0.396715 0.922212
O O4 0.055492 0.503249 0.854399
O O5 0.500000 0.105742 0.750000
O O6 0.412703 0.193434 0.801396
O O7 0.800164 0.151568 0.934859
O O8 0.500000 0.481532 0.750000
O O9 0.325666 0.631976 0.722862
O O10 0.656735 0.575575 0.892347
O O11 0.121247 0.201792 0.125362
O O12 0.250000 0.750000 0.000000
O O13 0.002614 0.684334 0.990747
O O14 0.000000 0.500000 0.500000
#
# Coordination Sequence:
#
# PCOD9280820 Si02
#       6
#     8   8   8   8   8   8
#     4  11  25  39  66  96 123 171 215 259 318 381
#     4  10  22  42  61  91 129 164 216 264 314 388
#     4  11  22  40  63  94 131 158 211 265 308 381
#     4  10  22  41  62  91 126 168 206 260 323 371
#     4  10  21  37  64  92 128 165 209 262 318 383
#     4  12  22  38  65  98 125 165 212 265 321 368
#
# _framework density 21.365970999999998
#
# number of rings (size 3 to 8) (size 9 to 14) (size 15 to 20)
#    0.000    1.333    3.333    3.000    7.000    2.000 
#    0.000    0.833    0.000    0.000    0.000    0.000 
#    0.000    0.000    0.000    0.000    0.000    0.000 
#
# Total GULP energy -133803.466239 kJ/mol
# GULP energy per Si atom -5575.144427 kJ/mol
# Density = 2.131734 g / cm^3
# Si number density = 21.365971 Si / 1000 Ang^3
#
#
#
# Elastic Constant Matrix: (Units=GPa)
#
#
# Indices 1 2 3 4 5 6 
#
# 1 54.9518 5.4286 32.2872 -0.0001 -25.6647 0.0000
# 2 5.4286 45.3963 3.1689 -0.0001 -15.6967 0.0000
# 3 32.2872 3.1689 105.3989 -0.0001 -33.0981 0.0000
# 4 -0.0001 -0.0001 -0.0001 29.1938 0.0000 -9.1995
# 5 -25.6647 -15.6967 -33.0981 0.0000 44.2696 0.0000
# 6 0.0000 0.0000 0.0000 -9.1995 0.0000 14.9442
#
#
#
# Elastic Compliance Matrix: (Units=1/GPa)
#
#
# Indices 1 2 3 4 5 6 
#
# 1 0.026447 0.001549 -0.004131 0.000000 0.012793 0.000000
# 2 0.001549 0.025784 0.002487 0.000000 0.011900 0.000000
# 3 -0.004131 0.002487 0.013334 0.000000 0.008456 0.000000
# 4 0.000000 0.000000 0.000000 0.042498 0.000000 0.026161
# 5 0.012793 0.011900 0.008456 0.000000 0.040547 0.000000
# 6 0.000000 0.000000 0.000000 0.026161 0.000000 0.083020
#
#
# Mechanical properties :
#
#
# Convention : Reuss Voigt Hill
#
# Bulk Modulus (GPa) = 15.29621 31.94624 23.62123
# Shear Modulus (GPa) = 19.71537 28.67235 24.19386
#
# Velocity S-wave (km/s) = 3.04097 3.66726 3.36870
# Velocity P-wave (km/s) = 4.41641 5.73725 5.11961
#
# Compressibility (1/GPa) = 0.06537568
#
# Stress axis : x y z
#
# Youngs Moduli (GPa) = 37.81201 38.78378 74.99737
#
# Poissons Ratio (x) = -0.06009 0.30979
# Poissons Ratio (y) = -0.05858 -0.18652
# Poissons Ratio (z) = 0.15619 -0.09646
#
# Static dielectric constant tensor:
#      x y z
#    x 1.879660 0.000000 0.078880 
#    y 0.000000 1.854620 0.000000 
#    z 0.078880 0.000000 1.886130 
# 
# From -- ./inp_files/238952.got.cif
#   From: 2010.05.17/outbox.cif.g08.bks.cpg/sg15_120_cif.got.tgz:238952.got - 2010.06.03 18:47:42.
