data_PCOD9280032
_publ_section_title
;
Structure prediction by ZEFSAII (Michael W. Deem and Ramdas Pophale) SiO2 
 PCOD9280032
Probable space group: C 2/C
;
_chemical_formula_sum "Si O2"
_cell_formula_units_Z 44
_cell_length_a 27.774754
_cell_length_b 5.194631
_cell_length_c 21.862138
_cell_angle_alpha 90.000000
_cell_angle_beta 143.752245
_cell_angle_gamma 90.000000
_cell_volume 1865.044987
_symmetry_space_group_name_H-M "C 2/C"
_symmetry_group_IT_number 15
_symmetry_cell_setting 'monoclinic'
loop_
_space_group_symop_operation_xyz
x,y,z
-x,y,1/2-z
-x,-y,-z
x,-y,1/2+z
1/2+x,1/2+y,z
1/2-x,1/2+y,1/2-z
1/2-x,1/2-y,-z
1/2+x,1/2-y,1/2+z
loop_
_atom_site_type_symbol
_atom_site_label
_atom_site_fract_x
_atom_site_fract_y
_atom_site_fract_z
Si Si1 0.500000 0.091984 0.750000
Si Si2 0.206211 0.014747 0.392173
Si Si3 0.610321 0.027628 0.256535
Si Si4 0.665538 0.604640 0.110628
Si Si5 0.649193 0.637889 0.464326
Si Si6 0.641307 0.896628 0.657949
O O1 0.455181 0.931893 0.757000
O O2 0.436456 0.269898 0.648999
O O3 0.149390 0.248284 0.309449
O O4 0.296141 0.107794 0.467361
O O5 0.194656 0.005455 0.453464
O O6 0.365459 0.880270 0.399121
O O7 0.676003 0.252097 0.333237
O O8 0.586708 0.046923 0.161530
O O9 0.763493 0.589877 0.222386
O O10 0.628572 0.381772 0.115929
O O11 0.645769 0.530678 0.021054
#
# Coordination Sequence:
#
# PCOD9280032 Si02
#       6
#     4   8   8   8   8   8
#     4  10  26  42  66  94 140 174 220 270 338 382
#     4  10  23  38  70  92 130 168 223 276 328 373
#     4  11  22  44  64  99 130 172 215 277 323 394
#     4  10  21  36  63  94 129 162 213 272 318 380
#     4  10  22  43  63 101 130 176 218 275 325 392
#     4  10  21  37  62  95 127 163 213 272 319 377
#
# _framework density 23.591926000000001
#
# number of rings (size 3 to 8) (size 9 to 14) (size 15 to 20)
#    0.000    1.818    1.818    1.091    5.091   12.364 
#    0.000    1.818    0.000    0.000    0.000    0.000 
#    0.000    0.000    0.000    0.000    0.000    0.000 
#
# Total GULP energy -123230.330671 kJ/mol
# GULP energy per Si atom -5601.378667 kJ/mol
# Density = 2.353823 g / cm^3
# Si number density = 23.591926 Si / 1000 Ang^3
#
#
#
# Elastic Constant Matrix: (Units=GPa)
#
#
# Indices 1 2 3 4 5 6 
#
# 1 114.5597 19.4089 28.9923 0.0018 -23.2234 -0.0001
# 2 19.4089 68.8508 -2.3404 0.0017 -1.0712 -0.0022
# 3 28.9923 -2.3404 27.6239 0.0020 -0.2666 0.0017
# 4 0.0018 0.0017 0.0020 19.4781 -0.0007 -12.3728
# 5 -23.2234 -1.0712 -0.2666 -0.0007 35.5705 -0.0014
# 6 -0.0001 -0.0022 0.0017 -12.3728 -0.0014 65.5513
#
#
#
# Elastic Compliance Matrix: (Units=1/GPa)
#
#
# Indices 1 2 3 4 5 6 
#
# 1 0.015922 -0.004910 -0.017029 0.000002 0.010120 0.000001
# 2 -0.004910 0.016087 0.006490 -0.000002 -0.002672 0.000000
# 3 -0.017029 0.006490 0.054521 -0.000007 -0.010514 -0.000003
# 4 0.000002 -0.000002 -0.000007 0.058334 0.000003 0.011010
# 5 0.010120 -0.002672 -0.010514 0.000003 0.034561 0.000001
# 6 0.000001 0.000000 -0.000003 0.011010 0.000001 0.017333
#
#
# Mechanical properties :
#
#
# Convention : Reuss Voigt Hill
#
# Bulk Modulus (GPa) = 17.97479 33.68402 25.82941
# Shear Modulus (GPa) = 20.30865 35.11823 27.71344
#
# Velocity S-wave (km/s) = 2.93717 3.86238 3.43111
# Velocity P-wave (km/s) = 4.37473 5.84803 5.16419
#
# Compressibility (1/GPa) = 0.05563347
#
# Stress axis : x y z
#
# Youngs Moduli (GPa) = 62.80614 62.16099 18.34140
#
# Poissons Ratio (x) = 0.30520 0.31234
# Poissons Ratio (y) = 0.30837 -0.11904
# Poissons Ratio (z) = 1.06953 -0.40344
#
# Static dielectric constant tensor:
#      x y z
#    x 1.937440 0.000000 0.011020 
#    y 0.000000 1.872140 0.000000 
#    z 0.011020 0.000000 1.903480 
# 
# From -- ./inp_files/214474.got.cif
#   From: 2010.05.17/outbox.cif.g08.bks.cpg/sg15_108_cif.got.tgz:214474.got - 2010.06.03 18:47:42.
