data_PCOD9280574
_publ_section_title
;
Structure prediction by ZEFSAII (Michael W. Deem and Ramdas Pophale) SiO2 
 PCOD9280574
Probable space group: C 2/C
;
_chemical_formula_sum "Si O2"
_cell_formula_units_Z 56
_cell_length_a 27.015695
_cell_length_b 9.856115
_cell_length_c 19.359595
_cell_angle_alpha 90.000000
_cell_angle_beta 147.555623
_cell_angle_gamma 90.000000
_cell_volume 2765.490595
_symmetry_space_group_name_H-M "C 2/C"
_symmetry_group_IT_number 15
_symmetry_cell_setting 'monoclinic'
loop_
_space_group_symop_operation_xyz
x,y,z
-x,y,1/2-z
-x,-y,-z
x,-y,1/2+z
1/2+x,1/2+y,z
1/2-x,1/2+y,1/2-z
1/2-x,1/2-y,-z
1/2+x,1/2-y,1/2+z
loop_
_atom_site_type_symbol
_atom_site_label
_atom_site_fract_x
_atom_site_fract_y
_atom_site_fract_z
Si Si1 0.000000 0.870589 0.250000
Si Si2 0.729194 0.241295 0.361267
Si Si3 0.449704 0.893382 0.038136
Si Si4 0.582442 0.822549 0.066909
Si Si5 0.642939 0.135504 0.382512
Si Si6 0.802642 0.813774 0.323643
Si Si7 0.400535 0.572238 0.501844
Si Si8 0.500000 0.090835 0.750000
O O1 0.080516 0.767855 0.321861
O O2 0.032454 0.952796 0.354735
O O3 0.666455 0.137076 0.329579
O O4 0.767881 0.344476 0.464294
O O5 0.685613 0.314656 0.245224
O O6 0.814231 0.157784 0.430214
O O7 0.522744 0.848551 0.065237
O O8 0.481005 0.847897 0.151728
O O9 0.351025 0.824412 0.906054
O O10 0.438247 0.056115 0.012742
O O11 0.693250 0.823273 0.211105
O O12 0.557369 0.677867 0.003508
O O13 0.587756 0.005476 0.340550
O O14 0.859683 0.937016 0.422247
#
# Coordination Sequence:
#
# PCOD9280574 Si02
#       8
#     4   8   8   8   8   8   8   4
#     4   9  18  33  54  86 122 158 198 256 296 364
#     4   9  19  35  59  90 116 157 205 258 311 354
#     4  11  25  40  65  91 125 168 210 253 316 371
#     4  10  22  42  66  92 117 164 218 259 305 364
#     4   9  18  34  60  87 116 152 212 262 296 350
#     4  11  23  39  63  92 132 157 203 259 314 379
#     4  10  21  37  61  89 125 160 202 257 311 362
#     4  11  22  37  62  88 124 160 214 252 302 384
#
# _framework density 20.249572000000001
#
# number of rings (size 3 to 8) (size 9 to 14) (size 15 to 20)
#    0.000    2.000    0.000    5.143    8.000    1.143 
#    0.000    0.714    6.286    0.000    0.000    0.000 
#    0.000    0.000    0.000    0.000    0.000    0.000 
#
# Total GULP energy -156270.998571 kJ/mol
# GULP energy per Si atom -5581.107092 kJ/mol
# Density = 2.020348 g / cm^3
# Si number density = 20.249572 Si / 1000 Ang^3
#
#
#
# Elastic Constant Matrix: (Units=GPa)
#
#
# Indices 1 2 3 4 5 6 
#
# 1 93.7391 -3.7245 32.9487 0.0000 -6.9426 0.0000
# 2 -3.7245 24.9221 24.0663 0.0000 0.2818 0.0000
# 3 32.9487 24.0663 113.3447 0.0000 -33.1727 0.0000
# 4 0.0000 0.0000 0.0000 36.7346 0.0000 8.5281
# 5 -6.9426 0.2818 -33.1727 0.0000 29.1426 0.0000
# 6 0.0000 0.0000 0.0000 8.5281 0.0000 4.7298
#
#
#
# Elastic Compliance Matrix: (Units=1/GPa)
#
#
# Indices 1 2 3 4 5 6 
#
# 1 0.013209 0.009094 -0.007311 0.000000 -0.005263 0.000000
# 2 0.009094 0.064908 -0.023956 0.000000 -0.025730 0.000000
# 3 -0.007311 -0.023956 0.023382 0.000000 0.025105 0.000000
# 4 0.000000 0.000000 0.000000 0.046821 0.000000 -0.084420
# 5 -0.005263 -0.025730 0.025105 0.000000 0.061886 0.000000
# 6 0.000000 0.000000 0.000000 -0.084420 0.000000 0.363637
#
#
# Mechanical properties :
#
#
# Convention : Reuss Voigt Hill
#
# Bulk Modulus (GPa) = 17.49688 37.62078 27.55883
# Shear Modulus (GPa) = 7.84634 26.03575 16.94105
#
# Velocity S-wave (km/s) = 1.97059 3.58962 2.89556
# Velocity P-wave (km/s) = 3.71981 5.98326 4.98178
#
# Compressibility (1/GPa) = 0.05715305
#
# Stress axis : x y z
#
# Youngs Moduli (GPa) = 75.70481 15.40644 42.76801
#
# Poissons Ratio (x) = -0.14010 0.31268
# Poissons Ratio (y) = -0.68843 1.02453
# Poissons Ratio (z) = 0.55348 0.36907
#
# Static dielectric constant tensor:
#      x y z
#    x 1.742530 0.000000 -0.008010 
#    y 0.000000 1.705100 0.000000 
#    z -0.008010 0.000000 1.768450 
# 
# From -- ./inp_files/259048.got.cif
#   From: 2010.05.17/outbox.cif.g08.bks.cpg/sg15_130_cif.got.tgz:259048.got - 2010.06.03 18:47:42.
