data_PCOD9280800
_publ_section_title
;
Structure prediction by ZEFSAII (Michael W. Deem and Ramdas Pophale) SiO2 
 PCOD9280800
Probable space group: C 2/C
;
_chemical_formula_sum "Si O2"
_cell_formula_units_Z 44
_cell_length_a 15.609817
_cell_length_b 8.093101
_cell_length_c 17.296893
_cell_angle_alpha 90.000000
_cell_angle_beta 130.557869
_cell_angle_gamma 90.000000
_cell_volume 1660.165442
_symmetry_space_group_name_H-M "C 2/C"
_symmetry_group_IT_number 15
_symmetry_cell_setting 'monoclinic'
loop_
_space_group_symop_operation_xyz
x,y,z
-x,y,1/2-z
-x,-y,-z
x,-y,1/2+z
1/2+x,1/2+y,z
1/2-x,1/2+y,1/2-z
1/2-x,1/2-y,-z
1/2+x,1/2-y,1/2+z
loop_
_atom_site_type_symbol
_atom_site_label
_atom_site_fract_x
_atom_site_fract_y
_atom_site_fract_z
Si Si1 0.835690 0.315242 0.484489
Si Si2 0.578949 0.651595 0.389886
Si Si3 0.596902 0.406643 0.608335
Si Si4 0.500000 0.657976 0.750000
Si Si5 0.732601 0.816694 0.601279
Si Si6 0.603897 0.244938 0.174743
O O1 0.750000 0.250000 0.500000
O O2 0.827822 0.199997 0.403674
O O3 0.801216 0.505138 0.452631
O O4 0.973755 0.308848 0.577172
O O5 0.466103 0.709916 0.366537
O O6 0.551958 0.465966 0.344617
O O7 0.666129 0.679744 0.511461
O O8 0.638869 0.720788 0.348618
O O9 0.500000 0.500000 0.500000
O O10 0.639975 0.563546 0.680615
O O11 0.408179 0.765808 0.740071
O O12 0.689674 0.831143 0.663568
#
# Coordination Sequence:
#
# PCOD9280800 Si02
#       6
#     8   8   8   4   8   8
#     4  11  21  33  60  95 120 147 201 257 302 355
#     4  10  21  37  64  87 119 163 203 252 303 373
#     4   9  16  33  54  84 113 157 191 235 297 362
#     4  10  22  42  58  84 128 172 198 246 326 374
#     4  11  21  37  67  95 118 155 218 261 296 356
#     4  10  21  38  63  85 123 164 201 251 304 373
#
# _framework density 26.503381000000001
#
# number of rings (size 3 to 8) (size 9 to 14) (size 15 to 20)
#    0.000    1.818    3.636    3.818    2.545    0.000 
#    0.000    8.182    0.000    0.000    0.000    0.000 
#    0.000    0.000    0.000    0.000    0.000    0.000 
#
# Total GULP energy -122565.810799 kJ/mol
# GULP energy per Si atom -5571.173218 kJ/mol
# Density = 2.644306 g / cm^3
# Si number density = 26.503381 Si / 1000 Ang^3
#
#
#
# Elastic Constant Matrix: (Units=GPa)
#
#
# Indices 1 2 3 4 5 6 
#
# 1 305.6670 59.7689 66.7498 0.0000 -45.0527 0.0000
# 2 59.7689 71.6560 30.2706 0.0000 -4.6910 0.0000
# 3 66.7498 30.2706 83.1316 0.0000 -22.9484 0.0000
# 4 0.0000 0.0000 0.0000 34.5116 0.0000 -10.0593
# 5 -45.0527 -4.6910 -22.9484 0.0000 54.4735 0.0000
# 6 0.0000 0.0000 0.0000 -10.0593 0.0000 55.6184
#
#
#
# Elastic Compliance Matrix: (Units=1/GPa)
#
#
# Indices 1 2 3 4 5 6 
#
# 1 0.004672 -0.002902 -0.001920 0.000000 0.002805 0.000000
# 2 -0.002902 0.018371 -0.005189 0.000000 -0.003004 0.000000
# 3 -0.001920 -0.005189 0.016859 0.000000 0.005067 0.000000
# 4 0.000000 0.000000 0.000000 0.030588 0.000000 0.005532
# 5 0.002805 -0.003004 0.005067 0.000000 0.022554 0.000000
# 6 0.000000 0.000000 0.000000 0.005532 0.000000 0.018980
#
#
# Mechanical properties :
#
#
# Convention : Reuss Voigt Hill
#
# Bulk Modulus (GPa) = 50.30007 86.00369 68.15188
# Shear Modulus (GPa) = 36.05618 49.16507 42.61062
#
# Velocity S-wave (km/s) = 3.69241 4.31170 4.01402
# Velocity P-wave (km/s) = 6.09906 7.57022 6.87411
#
# Compressibility (1/GPa) = 0.01988069
#
# Stress axis : x y z
#
# Youngs Moduli (GPa) = 214.05492 54.43257 59.31530
#
# Poissons Ratio (x) = 0.15796 0.11389
# Poissons Ratio (y) = 0.62117 0.30777
# Poissons Ratio (z) = 0.41101 0.28243
#
# Static dielectric constant tensor:
#      x y z
#    x 2.193650 0.000000 0.073400 
#    y 0.000000 2.048140 0.000000 
#    z 0.073400 0.000000 2.321600 
# 
# From -- ./inp_files/242075.got.cif
#   From: 2010.05.17/outbox.cif.g08.bks.cpg/sg15_122_cif.got.tgz:242075.got - 2010.06.03 18:47:42.
