data_PCOD9280585
_publ_section_title
;
Structure prediction by ZEFSAII (Michael W. Deem and Ramdas Pophale) SiO2 
 PCOD9280585
Probable space group: C 2/C
;
_chemical_formula_sum "Si O2"
_cell_formula_units_Z 44
_cell_length_a 16.497232
_cell_length_b 12.430006
_cell_length_c 13.135565
_cell_angle_alpha 90.000000
_cell_angle_beta 47.573476
_cell_angle_gamma 90.000000
_cell_volume 1988.253456
_symmetry_space_group_name_H-M "C 2/C"
_symmetry_group_IT_number 15
_symmetry_cell_setting 'monoclinic'
loop_
_space_group_symop_operation_xyz
x,y,z
-x,y,1/2-z
-x,-y,-z
x,-y,1/2+z
1/2+x,1/2+y,z
1/2-x,1/2+y,1/2-z
1/2-x,1/2-y,-z
1/2+x,1/2-y,1/2+z
loop_
_atom_site_type_symbol
_atom_site_label
_atom_site_fract_x
_atom_site_fract_y
_atom_site_fract_z
Si Si1 0.306716 0.148060 0.254164
Si Si2 0.000000 0.698099 0.750000
Si Si3 0.020300 0.227660 0.010439
Si Si4 0.669571 0.539213 0.873123
Si Si5 0.814842 0.341655 0.089841
Si Si6 0.326617 0.011515 0.900653
O O1 0.271903 0.246045 0.357089
O O2 0.371639 0.062237 0.268377
O O3 0.195981 0.082965 0.316391
O O4 0.374119 0.196246 0.104452
O O5 0.010085 0.763764 0.845688
O O6 0.103003 0.617773 0.649345
O O7 0.927437 0.281595 0.019799
O O8 0.060496 0.107493 0.947987
O O9 0.765435 0.604488 0.733265
O O10 0.704320 0.538183 0.962566
O O11 0.824433 0.434903 0.999473
#
# Coordination Sequence:
#
# PCOD9280585 Si02
#       6
#     8   4   8   8   8   8
#     4   9  21  40  60  88 123 159 200 253 305 356
#     4  12  22  36  64  88 120 154 206 250 300 356
#     4  11  22  39  61  91 122 158 204 252 299 364
#     4   9  22  40  58  94 121 160 198 254 310 353
#     4  11  20  39  65  88 123 159 206 247 301 365
#     4  10  21  37  61  91 117 157 204 252 297 357
#
# _framework density 22.129974000000001
#
# number of rings (size 3 to 8) (size 9 to 14) (size 15 to 20)
#    1.091    0.727    1.818    2.727    0.000    3.636 
#    3.273    0.000    0.000    0.000    0.000    0.000 
#    0.000    0.000    0.000    0.000    0.000    0.000 
#
# Total GULP energy -122552.301831 kJ/mol
# GULP energy per Si atom -5570.559174 kJ/mol
# Density = 2.207961 g / cm^3
# Si number density = 22.129974 Si / 1000 Ang^3
#
#
#
# Elastic Constant Matrix: (Units=GPa)
#
#
# Indices 1 2 3 4 5 6 
#
# 1 44.0365 1.8434 21.7114 0.0000 9.7110 0.0000
# 2 1.8434 84.6557 25.4619 0.0000 -0.5615 0.0000
# 3 21.7114 25.4619 72.4143 0.0000 4.2574 0.0000
# 4 0.0000 0.0000 0.0000 34.5694 0.0000 3.1603
# 5 9.7110 -0.5615 4.2574 0.0000 22.1332 0.0000
# 6 0.0000 0.0000 0.0000 3.1603 0.0000 32.8929
#
#
#
# Elastic Compliance Matrix: (Units=1/GPa)
#
#
# Indices 1 2 3 4 5 6 
#
# 1 0.029459 0.001950 -0.008861 0.000000 -0.011171 0.000000
# 2 0.001950 0.013372 -0.005316 0.000000 0.000506 0.000000
# 3 -0.008861 -0.005316 0.018322 0.000000 0.000229 0.000000
# 4 0.000000 0.000000 0.000000 0.029184 0.000000 -0.002804
# 5 -0.011171 0.000506 0.000229 0.000000 0.050051 0.000000
# 6 0.000000 0.000000 0.000000 -0.002804 0.000000 0.030671
#
#
# Mechanical properties :
#
#
# Convention : Reuss Voigt Hill
#
# Bulk Modulus (GPa) = 27.24949 33.23776 30.24362
# Shear Modulus (GPa) = 24.06760 28.05842 26.06301
#
# Velocity S-wave (km/s) = 3.30139 3.56461 3.43552
# Velocity P-wave (km/s) = 5.18385 5.65631 5.42523
#
# Compressibility (1/GPa) = 0.03669793
#
# Stress axis : x y z
#
# Youngs Moduli (GPa) = 33.94520 74.78076 54.57904
#
# Poissons Ratio (x) = -0.14579 0.48364
# Poissons Ratio (y) = -0.06618 0.29016
# Poissons Ratio (z) = 0.30080 0.39755
#
# Static dielectric constant tensor:
#      x y z
#    x 1.866230 0.000000 -0.027040 
#    y 0.000000 1.861760 0.000000 
#    z -0.027040 0.000000 1.811160 
# 
# From -- ./inp_files/167516.got.cif
#   From: 2010.05.17/outbox.cif.g08.bks.cpg/sg15_84_cif.got.tgz:167516.got - 2010.06.03 18:47:42.
