data_PCOD9280686
_publ_section_title
;
Structure prediction by ZEFSAII (Michael W. Deem and Ramdas Pophale) SiO2 
 PCOD9280686
Probable space group: C 2/C
;
_chemical_formula_sum "Si O2"
_cell_formula_units_Z 44
_cell_length_a 9.650893
_cell_length_b 17.878981
_cell_length_c 11.783915
_cell_angle_alpha 90.000000
_cell_angle_beta 66.011966
_cell_angle_gamma 90.000000
_cell_volume 1857.677831
_symmetry_space_group_name_H-M "C 2/C"
_symmetry_group_IT_number 15
_symmetry_cell_setting 'monoclinic'
loop_
_space_group_symop_operation_xyz
x,y,z
-x,y,1/2-z
-x,-y,-z
x,-y,1/2+z
1/2+x,1/2+y,z
1/2-x,1/2+y,1/2-z
1/2-x,1/2-y,-z
1/2+x,1/2-y,1/2+z
loop_
_atom_site_type_symbol
_atom_site_label
_atom_site_fract_x
_atom_site_fract_y
_atom_site_fract_z
Si Si1 0.955196 0.920233 0.939026
Si Si2 0.500000 0.090096 0.750000
Si Si3 0.815655 0.669660 0.012112
Si Si4 0.596218 0.334623 0.112430
Si Si5 0.406439 0.842657 0.921733
Si Si6 0.254253 0.025157 0.337122
O O1 0.839003 0.871715 0.909222
O O2 0.020406 0.867987 0.022506
O O3 0.840644 0.983263 0.029029
O O4 0.103069 0.948660 0.824790
O O5 0.410395 0.138195 0.872597
O O6 0.629982 0.033869 0.754700
O O7 0.750000 0.750000 0.000000
O O8 0.929713 0.654678 0.077092
O O9 0.500000 0.362584 0.250000
O O10 0.601013 0.243950 0.113999
O O11 0.773057 0.354593 0.058606
O O12 0.352254 0.904552 0.849321
#
# Coordination Sequence:
#
# PCOD9280686 Si02
#       6
#     8   4   8   8   8   8
#     4   9  19  39  63  86 125 170 209 275 321 383
#     4  10  24  38  66  92 126 176 210 270 330 404
#     4  11  22  40  65  98 135 168 218 276 337 385
#     4  10  21  37  62  93 124 171 222 266 320 392
#     4  10  22  37  62  94 128 170 215 271 326 392
#     4   9  20  40  60  88 123 168 215 256 332 389
#
# _framework density 23.685485
#
# number of rings (size 3 to 8) (size 9 to 14) (size 15 to 20)
#    0.000    2.182    1.818    0.000    6.364    2.909 
#    0.000    1.818    0.000    0.000    0.000    0.000 
#    0.000    0.000    0.000    0.000    0.000    0.000 
#
# Total GULP energy -122622.087486 kJ/mol
# GULP energy per Si atom -5573.731249 kJ/mol
# Density = 2.363158 g / cm^3
# Si number density = 23.685485 Si / 1000 Ang^3
#
#
#
# Elastic Constant Matrix: (Units=GPa)
#
#
# Indices 1 2 3 4 5 6 
#
# 1 196.4271 57.3704 38.6158 0.0000 -47.8687 0.0000
# 2 57.3704 135.5391 30.1249 0.0000 -11.8828 0.0000
# 3 38.6158 30.1249 95.8571 0.0000 -31.5687 0.0000
# 4 0.0000 0.0000 0.0000 21.2251 0.0000 -16.8757
# 5 -47.8687 -11.8828 -31.5687 0.0000 41.7965 0.0000
# 6 0.0000 0.0000 0.0000 -16.8757 0.0000 46.8172
#
#
#
# Elastic Compliance Matrix: (Units=1/GPa)
#
#
# Indices 1 2 3 4 5 6 
#
# 1 0.007886 -0.002695 0.000522 0.000000 0.008659 0.000000
# 2 -0.002695 0.008860 -0.002510 0.000000 -0.002463 0.000000
# 3 0.000522 -0.002510 0.014606 0.000000 0.010916 0.000000
# 4 0.000000 0.000000 0.000000 0.066041 0.000000 0.023805
# 5 0.008659 -0.002463 0.010916 0.000000 0.041387 0.000000
# 6 0.000000 0.000000 0.000000 0.023805 0.000000 0.029940
#
#
# Mechanical properties :
#
#
# Convention : Reuss Voigt Hill
#
# Bulk Modulus (GPa) = 45.48343 75.56061 60.52202
# Shear Modulus (GPa) = 26.96657 42.08192 34.52425
#
# Velocity S-wave (km/s) = 3.37787 4.21966 3.82201
# Velocity P-wave (km/s) = 5.87010 7.46402 6.71453
#
# Compressibility (1/GPa) = 0.02198603
#
# Stress axis : x y z
#
# Youngs Moduli (GPa) = 126.81308 112.86045 68.46651
#
# Poissons Ratio (x) = 0.30412 -0.03573
# Poissons Ratio (y) = 0.34171 0.17186
# Poissons Ratio (z) = -0.06619 0.28330
#
# Static dielectric constant tensor:
#      x y z
#    x 1.939300 0.000000 0.021180 
#    y 0.000000 2.181270 0.000000 
#    z 0.021180 0.000000 1.953630 
# 
# From -- ./inp_files/134760.got.cif
#   From: 2010.05.17/outbox.cif.g08.bks.cpg/sg15_68_cif.got.tgz:134760.got - 2010.06.03 18:47:42.
