data_PCOD9280287
_publ_section_title
;
Structure prediction by ZEFSAII (Michael W. Deem and Ramdas Pophale) SiO2 
 PCOD9280287
Probable space group: C 2/C
;
_chemical_formula_sum "Si O2"
_cell_formula_units_Z 40
_cell_length_a 11.200246
_cell_length_b 31.714653
_cell_length_c 4.961765
_cell_angle_alpha 90.000000
_cell_angle_beta 111.417019
_cell_angle_gamma 90.000000
_cell_volume 1640.774345
_symmetry_space_group_name_H-M "C 2/C"
_symmetry_group_IT_number 15
_symmetry_cell_setting 'monoclinic'
loop_
_space_group_symop_operation_xyz
x,y,z
-x,y,1/2-z
-x,-y,-z
x,-y,1/2+z
1/2+x,1/2+y,z
1/2-x,1/2+y,1/2-z
1/2-x,1/2-y,-z
1/2+x,1/2-y,1/2+z
loop_
_atom_site_type_symbol
_atom_site_label
_atom_site_fract_x
_atom_site_fract_y
_atom_site_fract_z
Si Si1 0.881126 0.122074 0.856512
Si Si2 0.630351 0.715420 0.687850
Si Si3 0.724429 0.106939 0.206941
Si Si4 0.642555 0.018248 0.267978
Si Si5 0.134327 0.304575 0.708489
O O1 0.888229 0.170536 0.967213
O O2 0.766456 0.114644 0.549964
O O3 0.000000 0.114423 0.750000
O O4 0.842478 0.098662 0.099340
O O5 0.500000 0.719721 0.750000
O O6 0.634864 0.760603 0.541815
O O7 0.751281 0.705950 0.984365
O O8 0.640688 0.064914 0.147014
O O9 0.658946 0.151481 0.076769
O O10 0.500000 0.005624 0.250000
O O11 0.709025 0.013013 0.612120
O O12 0.000000 0.309538 0.750000
#
# Coordination Sequence:
#
# PCOD9280287 Si02
#       5
#     8   8   8   8   8
#     4  10  21  37  58  83 114 155 197 234 280 344
#     4   8  16  32  52  78 116 161 199 234 285 347
#     4  11  21  36  60  85 113 148 191 243 292 344
#     4  10  21  38  60  85 114 147 183 228 292 365
#     4   9  17  31  53  84 119 152 195 247 292 340
#
# _framework density 24.378734000000001
#
# number of rings (size 3 to 8) (size 9 to 14) (size 15 to 20)
#    0.000    2.400    0.000    2.400    0.000    0.800 
#    0.000    8.000    0.000   28.800    0.000    0.000 
#    0.000    0.000    0.000    0.000    0.000    0.000 
#
# Total GULP energy -111352.882876 kJ/mol
# GULP energy per Si atom -5567.644144 kJ/mol
# Density = 2.432325 g / cm^3
# Si number density = 24.378734 Si / 1000 Ang^3
#
#
#
# Elastic Constant Matrix: (Units=GPa)
#
#
# Indices 1 2 3 4 5 6 
#
# 1 133.4585 40.4402 20.6043 0.0000 -18.3154 0.0000
# 2 40.4402 105.0216 10.2981 0.0000 -23.5580 0.0000
# 3 20.6043 10.2981 77.1711 0.0000 -17.5200 0.0000
# 4 0.0000 0.0000 0.0000 -29.9979 0.0000 18.6102
# 5 -18.3154 -23.5580 -17.5200 0.0000 46.2728 0.0000
# 6 0.0000 0.0000 0.0000 18.6102 0.0000 20.0860
#
#
#
# Elastic Compliance Matrix: (Units=1/GPa)
#
#
# Indices 1 2 3 4 5 6 
#
# 1 0.008824 -0.002927 -0.001653 0.000000 0.001377 0.000000
# 2 -0.002927 0.011723 0.000338 0.000000 0.004938 0.000000
# 3 -0.001653 0.000338 0.014491 0.000000 0.005004 0.000000
# 4 0.000000 0.000000 0.000000 -0.021168 0.000000 0.019613
# 5 0.001377 0.004938 0.005004 0.000000 0.026565 0.000000
# 6 0.000000 0.000000 0.000000 0.019613 0.000000 0.031614
#
#
# Mechanical properties :
#
#
# Convention : Reuss Voigt Hill
#
# Bulk Modulus (GPa) = 37.65813 50.92626 44.29219
# Shear Modulus (GPa) = 55.93880 23.55941 39.74911
#
# Velocity S-wave (km/s) = 4.79537 3.11206 4.04230
# Velocity P-wave (km/s) = 6.79275 5.81792 6.32414
#
# Compressibility (1/GPa) = 0.02655469
#
# Stress axis : x y z
#
# Youngs Moduli (GPa) = 113.32743 85.29920 69.01061
#
# Poissons Ratio (x) = 0.24966 0.11406
# Poissons Ratio (y) = 0.33170 -0.02333
# Poissons Ratio (z) = 0.18731 -0.02884
#
# Static dielectric constant tensor:
#      x y z
#    x 2.070730 0.000000 0.187750 
#    y 0.000000 2.003960 0.000000 
#    z 0.187750 0.000000 2.384630 
# 
# From -- ./inp_files/5586.got.cif
#   From: 2010.05.17/outbox.cif.g08.bks.cpg/sg15_3_cif.got.tgz:5586.got - 2010.06.03 18:47:42.
