data_PCOD9280559
_publ_section_title
;
Structure prediction by ZEFSAII (Michael W. Deem and Ramdas Pophale) SiO2 
 PCOD9280559
Probable space group: C 2/C
;
_chemical_formula_sum "Si O2"
_cell_formula_units_Z 36
_cell_length_a 10.578520
_cell_length_b 17.059837
_cell_length_c 8.127669
_cell_angle_alpha 90.000000
_cell_angle_beta 92.470639
_cell_angle_gamma 90.000000
_cell_volume 1465.419304
_symmetry_space_group_name_H-M "C 2/C"
_symmetry_group_IT_number 15
_symmetry_cell_setting 'monoclinic'
loop_
_space_group_symop_operation_xyz
x,y,z
-x,y,1/2-z
-x,-y,-z
x,-y,1/2+z
1/2+x,1/2+y,z
1/2-x,1/2+y,1/2-z
1/2-x,1/2-y,-z
1/2+x,1/2-y,1/2+z
loop_
_atom_site_type_symbol
_atom_site_label
_atom_site_fract_x
_atom_site_fract_y
_atom_site_fract_z
Si Si1 0.225785 0.552860 0.293977
Si Si2 0.327943 0.109402 0.579464
Si Si3 0.941440 0.672398 0.070861
Si Si4 0.053458 0.841985 0.090603
Si Si5 0.000000 0.930025 0.750000
O O1 0.157776 0.470938 0.321017
O O2 0.186646 0.621277 0.423018
O O3 0.373231 0.530770 0.311164
O O4 0.203294 0.581917 0.108385
O O5 0.463478 0.149471 0.568260
O O6 0.207490 0.163781 0.623831
O O7 0.000000 0.646707 0.250000
O O8 0.960572 0.765656 0.078185
O O9 0.000000 0.884362 0.250000
O O10 0.039133 0.880010 0.911915
#
# Coordination Sequence:
#
# PCOD9280559 Si02
#       5
#     8   8   8   8   4
#     4  10  22  37  60  86 124 153 199 251 297 358
#     4  10  21  37  61  88 119 157 199 247 302 358
#     4   9  19  40  60  86 120 159 198 247 301 357
#     4  10  22  39  64  86 120 161 200 246 301 359
#     4  10  24  40  58  92 122 152 200 252 294 354
#
# _framework density 24.566344999999998
#
# number of rings (size 3 to 8) (size 9 to 14) (size 15 to 20)
#    0.000    2.222    0.000    1.333    4.667    4.444 
#    4.000    0.000    0.000    0.000    0.000    0.000 
#    0.000    0.000    0.000    0.000    0.000    0.000 
#
# Total GULP energy -100241.684314 kJ/mol
# GULP energy per Si atom -5568.982462 kJ/mol
# Density = 2.451043 g / cm^3
# Si number density = 24.566345 Si / 1000 Ang^3
#
#
#
# Elastic Constant Matrix: (Units=GPa)
#
#
# Indices 1 2 3 4 5 6 
#
# 1 73.0460 33.2786 44.5708 0.0000 -33.5500 0.0000
# 2 33.2786 79.8467 18.6446 0.0000 -20.3821 0.0000
# 3 44.5708 18.6446 115.3415 0.0000 -20.0774 0.0000
# 4 0.0000 0.0000 0.0000 217.9235 0.0000 -133.1990
# 5 -33.5500 -20.3821 -20.0774 0.0000 30.5701 0.0000
# 6 0.0000 0.0000 0.0000 -133.1990 0.0000 104.8562
#
#
#
# Elastic Compliance Matrix: (Units=1/GPa)
#
#
# Indices 1 2 3 4 5 6 
#
# 1 0.033542 -0.004956 -0.007145 0.000000 0.028815 0.000000
# 2 -0.004956 0.015887 0.000276 0.000000 0.005334 0.000000
# 3 -0.007145 0.000276 0.011351 0.000000 -0.000202 0.000000
# 4 0.000000 0.000000 0.000000 0.020525 0.000000 0.026073
# 5 0.028815 0.005334 -0.000202 0.000000 0.067759 0.000000
# 6 0.000000 0.000000 0.000000 0.026073 0.000000 0.042658
#
#
# Mechanical properties :
#
#
# Convention : Reuss Voigt Hill
#
# Bulk Modulus (GPa) = 26.93247 51.24692 39.08970
# Shear Modulus (GPa) = 21.95411 82.11930 52.03671
#
# Velocity S-wave (km/s) = 2.99267 5.78793 4.60740
# Velocity P-wave (km/s) = 4.78836 8.09770 6.65211
#
# Compressibility (1/GPa) = 0.03712990
#
# Stress axis : x y z
#
# Youngs Moduli (GPa) = 29.81352 62.94526 88.09813
#
# Poissons Ratio (x) = 0.31195 0.62942
# Poissons Ratio (y) = 0.14775 -0.02428
# Poissons Ratio (z) = 0.21300 -0.01734
#
# Static dielectric constant tensor:
#      x y z
#    x 2.055120 0.000000 -0.024450 
#    y 0.000000 1.984940 0.000000 
#    z -0.024450 0.000000 1.924030 
# 
# From -- ./inp_files/28696.got.cif
#   From: 2010.05.17/outbox.cif.g08.bks.cpg/sg15_15_cif.got.tgz:28696.got - 2010.06.03 18:47:42.
