data_PCOD9280681
_publ_section_title
;
Structure prediction by ZEFSAII (Michael W. Deem and Ramdas Pophale) SiO2 
 PCOD9280681
Probable space group: C 2/C
;
_chemical_formula_sum "Si O2"
_cell_formula_units_Z 32
_cell_length_a 12.162420
_cell_length_b 9.794326
_cell_length_c 14.894954
_cell_angle_alpha 90.000000
_cell_angle_beta 39.691140
_cell_angle_gamma 90.000000
_cell_volume 1133.172016
_symmetry_space_group_name_H-M "C 2/C"
_symmetry_group_IT_number 15
_symmetry_cell_setting 'monoclinic'
loop_
_space_group_symop_operation_xyz
x,y,z
-x,y,1/2-z
-x,-y,-z
x,-y,1/2+z
1/2+x,1/2+y,z
1/2-x,1/2+y,1/2-z
1/2-x,1/2-y,-z
1/2+x,1/2-y,1/2+z
loop_
_atom_site_type_symbol
_atom_site_label
_atom_site_fract_x
_atom_site_fract_y
_atom_site_fract_z
Si Si1 0.678942 0.881540 0.792272
Si Si2 0.847514 0.001123 0.523555
Si Si3 0.179842 0.552436 0.961544
Si Si4 0.491839 0.226399 0.862048
O O1 0.697019 0.939739 0.680465
O O2 0.480850 0.843114 0.939014
O O3 0.817450 0.762675 0.720793
O O4 0.737398 0.995840 0.829241
O O5 0.828150 0.922090 0.440662
O O6 0.865682 0.157565 0.480130
O O7 0.000000 0.000000 0.500000
O O8 0.076901 0.419727 0.064859
O O9 0.500000 0.238052 0.750000
#
# Coordination Sequence:
#
# PCOD9280681 Si02
#       4
#     8   8   8   8
#     4  10  23  37  59  97 127 159 203 259 319 359
#     4  10  21  37  62  92 126 160 200 258 308 366
#     4  11  22  39  65  94 125 162 207 263 308 369
#     4  11  21  37  66  95 121 156 214 264 302 362
#
# _framework density 28.239315000000001
#
# number of rings (size 3 to 8) (size 9 to 14) (size 15 to 20)
#    0.000    1.500    2.500    3.000    3.500    0.000 
#    0.000    0.000    0.000   43.500    0.000    0.000 
#    0.000    0.000    0.000    0.000    0.000    0.000 
#
# Total GULP energy -89555.784855 kJ/mol
# GULP energy per Si atom -5597.236553 kJ/mol
# Density = 2.817504 g / cm^3
# Si number density = 28.239315 Si / 1000 Ang^3
#
#
#
# Elastic Constant Matrix: (Units=GPa)
#
#
# Indices 1 2 3 4 5 6 
#
# 1 165.7442 27.1031 14.1152 0.0000 12.3039 0.0000
# 2 27.1031 85.5458 25.8567 0.0000 7.3823 0.0000
# 3 14.1152 25.8567 99.9704 0.0000 36.1055 0.0000
# 4 0.0000 0.0000 0.0000 45.5602 0.0000 0.6623
# 5 12.3039 7.3823 36.1055 0.0000 70.7239 0.0000
# 6 0.0000 0.0000 0.0000 0.6623 0.0000 40.9475
#
#
#
# Elastic Compliance Matrix: (Units=1/GPa)
#
#
# Indices 1 2 3 4 5 6 
#
# 1 0.006422 -0.001931 -0.000094 0.000000 -0.000868 0.000000
# 2 -0.001931 0.013273 -0.003410 0.000000 0.000691 0.000000
# 3 -0.000094 -0.003410 0.013197 0.000000 -0.006365 0.000000
# 4 0.000000 0.000000 0.000000 0.021954 0.000000 -0.000355
# 5 -0.000868 0.000691 -0.006365 0.000000 0.017468 0.000000
# 6 0.000000 0.000000 0.000000 -0.000355 0.000000 0.024427
#
#
# Mechanical properties :
#
#
# Convention : Reuss Voigt Hill
#
# Bulk Modulus (GPa) = 45.41088 53.93449 49.67269
# Shear Modulus (GPa) = 43.49704 50.39202 46.94453
#
# Velocity S-wave (km/s) = 3.92892 4.22887 4.08166
# Velocity P-wave (km/s) = 6.05785 6.55630 6.31200
#
# Compressibility (1/GPa) = 0.02202115
#
# Stress axis : x y z
#
# Youngs Moduli (GPa) = 155.72423 75.34369 75.77527
#
# Poissons Ratio (x) = 0.14551 0.00711
# Poissons Ratio (y) = 0.30075 0.25838
# Poissons Ratio (z) = 0.01461 0.25691
#
# Static dielectric constant tensor:
#      x y z
#    x 2.345610 0.000000 -0.081430 
#    y 0.000000 2.258400 0.000000 
#    z -0.081430 0.000000 2.218710 
# 
# From -- ./inp_files/75522.got.cif
#   From: 2010.05.17/outbox.cif.g08.bks.cpg/sg15_38_cif.got.tgz:75522.got - 2010.06.03 18:47:42.
