data_PCOD9280351
_publ_section_title
;
Structure prediction by ZEFSAII (Michael W. Deem and Ramdas Pophale) SiO2 
 PCOD9280351
Probable space group: C 2/C
;
_chemical_formula_sum "Si O2"
_cell_formula_units_Z 48
_cell_length_a 16.961039
_cell_length_b 17.324843
_cell_length_c 8.183865
_cell_angle_alpha 90.000000
_cell_angle_beta 87.745982
_cell_angle_gamma 90.000000
_cell_volume 2402.946297
_symmetry_space_group_name_H-M "C 2/C"
_symmetry_group_IT_number 15
_symmetry_cell_setting 'monoclinic'
loop_
_space_group_symop_operation_xyz
x,y,z
-x,y,1/2-z
-x,-y,-z
x,-y,1/2+z
1/2+x,1/2+y,z
1/2-x,1/2+y,1/2-z
1/2-x,1/2-y,-z
1/2+x,1/2-y,1/2+z
loop_
_atom_site_type_symbol
_atom_site_label
_atom_site_fract_x
_atom_site_fract_y
_atom_site_fract_z
Si Si1 0.604107 0.396995 0.595225
Si Si2 0.941357 0.459548 0.877442
Si Si3 0.836244 0.044511 0.749120
Si Si4 0.341879 0.917896 0.176240
Si Si5 0.046525 0.843141 0.081482
Si Si6 0.590679 0.758492 0.285910
O O1 0.623739 0.460942 0.729645
O O2 0.655140 0.423405 0.435167
O O3 0.515408 0.389497 0.529462
O O4 0.617271 0.312438 0.669210
O O5 0.895791 0.525152 0.779803
O O6 0.000000 0.414636 0.750000
O O7 0.877490 0.415797 0.990638
O O8 0.000000 0.500000 0.000000
O O9 0.745700 0.049036 0.809029
O O10 0.886268 0.100373 0.861155
O O11 0.352604 0.831061 0.238439
O O12 0.000000 0.817772 0.250000
O O13 0.082893 0.775459 0.969327
O O14 0.500000 0.781485 0.250000
#
# Coordination Sequence:
#
# PCOD9280351 Si02
#       6
#     8   8   8   8   8   8
#     4  10  21  37  59  82 115 158 197 232 280 348
#     4   9  19  37  58  80 108 152 198 232 277 344
#     4  11  21  36  57  86 119 151 193 240 288 344
#     4  11  22  37  60  87 118 150 190 245 296 341
#     4   9  20  37  58  85 115 155 197 234 281 342
#     4  10  21  38  58  83 114 152 196 242 290 341
#
# _framework density 19.975477000000001
#
# number of rings (size 3 to 8) (size 9 to 14) (size 15 to 20)
#    0.000    2.000    0.000    4.000    0.000    6.667 
#    0.000    5.000    0.000    0.000    0.000    0.000 
#    0.000    0.000    0.000    0.000    0.000    0.000 
#
# Total GULP energy -133928.637009 kJ/mol
# GULP energy per Si atom -5580.359875 kJ/mol
# Density = 1.993001 g / cm^3
# Si number density = 19.975477 Si / 1000 Ang^3
#
#
#
# Elastic Constant Matrix: (Units=GPa)
#
#
# Indices 1 2 3 4 5 6 
#
# 1 68.5886 27.5362 35.8099 0.0000 -6.2102 0.0000
# 2 27.5362 76.8395 34.4843 0.0000 13.2849 0.0000
# 3 35.8099 34.4843 99.5444 0.0000 -8.1343 0.0000
# 4 0.0000 0.0000 0.0000 9.7249 0.0000 -7.9780
# 5 -6.2102 13.2849 -8.1343 0.0000 21.7941 0.0000
# 6 0.0000 0.0000 0.0000 -7.9780 0.0000 9.2314
#
#
#
# Elastic Compliance Matrix: (Units=1/GPa)
#
#
# Indices 1 2 3 4 5 6 
#
# 1 0.020289 -0.006799 -0.004262 0.000000 0.008335 0.000000
# 2 -0.006799 0.021282 -0.006338 0.000000 -0.017276 0.000000
# 3 -0.004262 -0.006338 0.014432 0.000000 0.008035 0.000000
# 4 0.000000 0.000000 0.000000 0.353336 0.000000 0.305360
# 5 0.008335 -0.017276 0.008035 0.000000 0.061789 0.000000
# 6 0.000000 0.000000 0.000000 0.305360 0.000000 0.372224
#
#
# Mechanical properties :
#
#
# Convention : Reuss Voigt Hill
#
# Bulk Modulus (GPa) = 47.16268 48.95927 48.06097
# Shear Modulus (GPa) = 5.64832 17.95955 11.80394
#
# Velocity S-wave (km/s) = 1.68338 3.00172 2.43352
# Velocity P-wave (km/s) = 5.23831 6.04786 5.65759
#
# Compressibility (1/GPa) = 0.02120321
#
# Stress axis : x y z
#
# Youngs Moduli (GPa) = 49.28701 46.98799 69.29277
#
# Poissons Ratio (x) = 0.31947 0.29536
# Poissons Ratio (y) = 0.33510 0.43921
# Poissons Ratio (z) = 0.21008 0.29783
#
# Static dielectric constant tensor:
#      x y z
#    x 1.689620 0.000000 -0.022230 
#    y 0.000000 1.681970 0.000000 
#    z -0.022230 0.000000 1.763970 
# 
# From -- ./inp_files/47450.got.cif
#   From: 2010.05.17/outbox.cif.g08.bks.cpg/sg15_24_cif.got.tgz:47450.got - 2010.06.03 18:47:42.
