data_PCOD9280274
_publ_section_title
;
Structure prediction by ZEFSAII (Michael W. Deem and Ramdas Pophale) SiO2 
 PCOD9280274
Probable space group: C 2/C
;
_chemical_formula_sum "Si O2"
_cell_formula_units_Z 32
_cell_length_a 12.269270
_cell_length_b 7.221392
_cell_length_c 14.537781
_cell_angle_alpha 90.000000
_cell_angle_beta 89.818580
_cell_angle_gamma 90.000000
_cell_volume 1288.058504
_symmetry_space_group_name_H-M "C 2/C"
_symmetry_group_IT_number 15
_symmetry_cell_setting 'monoclinic'
loop_
_space_group_symop_operation_xyz
x,y,z
-x,y,1/2-z
-x,-y,-z
x,-y,1/2+z
1/2+x,1/2+y,z
1/2-x,1/2+y,1/2-z
1/2-x,1/2-y,-z
1/2+x,1/2-y,1/2+z
loop_
_atom_site_type_symbol
_atom_site_label
_atom_site_fract_x
_atom_site_fract_y
_atom_site_fract_z
Si Si1 0.665202 0.039459 0.951832
Si Si2 0.843219 0.007552 0.815150
Si Si3 0.971854 0.699167 0.395646
Si Si4 0.295259 0.915547 0.354866
O O1 0.749759 0.110237 0.877480
O O2 0.591641 0.881577 0.905302
O O3 0.729503 0.954497 0.038286
O O4 0.581550 0.181450 0.001307
O O5 0.835792 0.792672 0.839403
O O6 0.952560 0.104561 0.849468
O O7 0.802974 0.039456 0.712503
O O8 0.897781 0.553871 0.337738
#
# Coordination Sequence:
#
# PCOD9280274 Si02
#       4
#     8   8   8   8
#     4   9  21  41  58  85 123 153 196 251 298 351
#     4  12  20  38  66  79 125 158 191 255 299 351
#     4   9  21  40  56  88 117 151 205 239 296 368
#     4  10  21  37  57  91 111 156 204 237 302 365
#
# _framework density 24.843591
#
# number of rings (size 3 to 8) (size 9 to 14) (size 15 to 20)
#    1.500    0.500    2.500    1.500    0.000    2.000 
#    0.000    0.000    5.500    0.000    0.000    0.000 
#    0.000    0.000    0.000    0.000    0.000    0.000 
#
# Total GULP energy -89473.953351 kJ/mol
# GULP energy per Si atom -5592.122084 kJ/mol
# Density = 2.478705 g / cm^3
# Si number density = 24.843591 Si / 1000 Ang^3
#
#
#
# Elastic Constant Matrix: (Units=GPa)
#
#
# Indices 1 2 3 4 5 6 
#
# 1 86.6001 10.0182 48.3550 0.0000 7.3971 0.0000
# 2 10.0182 95.2720 16.1403 0.0000 6.9361 0.0000
# 3 48.3550 16.1403 141.0541 0.0000 15.8469 0.0000
# 4 0.0000 0.0000 0.0000 36.8390 0.0000 14.7808
# 5 7.3971 6.9361 15.8469 0.0000 24.6934 0.0000
# 6 0.0000 0.0000 0.0000 14.7808 0.0000 24.2221
#
#
#
# Elastic Compliance Matrix: (Units=1/GPa)
#
#
# Indices 1 2 3 4 5 6 
#
# 1 0.014352 -0.000629 -0.004726 0.000000 -0.001090 0.000000
# 2 -0.000629 0.010864 -0.000761 0.000000 -0.002375 0.000000
# 3 -0.004726 -0.000761 0.009283 0.000000 -0.004328 0.000000
# 4 0.000000 0.000000 0.000000 0.035946 0.000000 -0.021935
# 5 -0.001090 -0.002375 -0.004328 0.000000 0.044268 0.000000
# 6 0.000000 0.000000 0.000000 -0.021935 0.000000 0.054670
#
#
# Mechanical properties :
#
#
# Convention : Reuss Voigt Hill
#
# Bulk Modulus (GPa) = 44.90757 52.43924 48.67341
# Shear Modulus (GPa) = 26.45006 33.71174 30.08090
#
# Velocity S-wave (km/s) = 3.26646 3.68769 3.48345
# Velocity P-wave (km/s) = 5.68698 6.26783 5.98445
#
# Compressibility (1/GPa) = 0.02226796
#
# Stress axis : x y z
#
# Youngs Moduli (GPa) = 69.67758 92.04549 107.72727
#
# Poissons Ratio (x) = 0.05792 0.50907
# Poissons Ratio (y) = 0.04384 0.08194
# Poissons Ratio (z) = 0.32926 0.07001
#
# Static dielectric constant tensor:
#      x y z
#    x 1.936150 0.000000 -0.043250 
#    y 0.000000 1.985380 0.000000 
#    z -0.043250 0.000000 1.928790 
# 
# From -- ./inp_files/202068.got.cif
#   From: 2010.05.17/outbox.cif.g08.bks.cpg/sg15_102_cif.got.tgz:202068.got - 2010.06.03 18:47:42.
