data_PCOD9280930
_publ_section_title
;
Structure prediction by ZEFSAII (Michael W. Deem and Ramdas Pophale) SiO2 
 PCOD9280930
Probable space group: C 2/C
;
_chemical_formula_sum "Si O2"
_cell_formula_units_Z 40
_cell_length_a 20.479196
_cell_length_b 14.209152
_cell_length_c 14.295884
_cell_angle_alpha 90.000000
_cell_angle_beta 22.355460
_cell_angle_gamma 90.000000
_cell_volume 1582.257873
_symmetry_space_group_name_H-M "C 2/C"
_symmetry_group_IT_number 15
_symmetry_cell_setting 'monoclinic'
loop_
_space_group_symop_operation_xyz
x,y,z
-x,y,1/2-z
-x,-y,-z
x,-y,1/2+z
1/2+x,1/2+y,z
1/2-x,1/2+y,1/2-z
1/2-x,1/2-y,-z
1/2+x,1/2-y,1/2+z
loop_
_atom_site_type_symbol
_atom_site_label
_atom_site_fract_x
_atom_site_fract_y
_atom_site_fract_z
Si Si1 0.320113 0.617365 0.505947
Si Si2 0.625362 0.975555 0.651960
Si Si3 0.670043 0.684129 0.684381
Si Si4 0.383617 0.542688 0.071625
Si Si5 0.936564 0.357658 0.570838
O O1 0.275731 0.546701 0.479843
O O2 0.358310 0.545471 0.538516
O O3 0.500000 0.671342 0.250000
O O4 0.132102 0.657421 0.778924
O O5 0.500000 0.030916 0.750000
O O6 0.690761 0.897131 0.491430
O O7 0.573842 0.921093 0.817865
O O8 0.750000 0.750000 0.500000
O O9 0.634288 0.753302 0.816366
O O10 0.498336 0.629763 0.880839
O O11 0.192709 0.588683 0.328188
O O12 0.500000 0.500000 0.000000
#
# Coordination Sequence:
#
# PCOD9280930 Si02
#       5
#     8   8   8   8   8
#     4  11  23  42  64  99 138 186 239 275 333 415
#     4  10  21  37  67 101 136 172 224 284 351 406
#     4  10  23  39  69 105 140 166 222 290 354 394
#     4  11  24  42  66 100 137 184 229 274 346 415
#     4  10  25  40  63 101 146 176 224 293 344 400
#
# _framework density 25.280328999999998
#
# number of rings (size 3 to 8) (size 9 to 14) (size 15 to 20)
#    0.000    1.600    2.000    2.400   11.200    0.000 
#    0.000    0.000    0.000    4.800    0.000    0.000 
#    0.000    0.200    0.000    0.000    0.000    0.000 
#
# Total GULP energy -111544.420045 kJ/mol
# GULP energy per Si atom -5577.221002 kJ/mol
# Density = 2.522279 g / cm^3
# Si number density = 25.280329 Si / 1000 Ang^3
#
#
#
# Elastic Constant Matrix: (Units=GPa)
#
#
# Indices 1 2 3 4 5 6 
#
# 1 131.0863 24.1902 44.5020 0.0000 -33.7701 0.0000
# 2 24.1902 49.0730 29.0733 -0.0002 9.0404 0.0001
# 3 44.5020 29.0733 190.7760 -0.0005 -1.6625 0.0002
# 4 0.0000 -0.0002 -0.0005 45.5773 0.0002 9.2029
# 5 -33.7701 9.0404 -1.6625 0.0002 29.9246 -0.0001
# 6 0.0000 0.0001 0.0002 9.2029 -0.0001 10.0659
#
#
#
# Elastic Compliance Matrix: (Units=1/GPa)
#
#
# Indices 1 2 3 4 5 6 
#
# 1 0.015393 -0.010242 -0.001853 0.000000 0.020362 0.000000
# 2 -0.010242 0.030764 -0.002482 0.000000 -0.020989 -0.000001
# 3 -0.001853 -0.002482 0.006043 0.000000 -0.001005 0.000000
# 4 0.000000 0.000000 0.000000 0.026908 -0.000001 -0.024601
# 5 0.020362 -0.020989 -0.001005 -0.000001 0.062682 0.000001
# 6 0.000000 -0.000001 0.000000 -0.024601 0.000001 0.121837
#
#
# Mechanical properties :
#
#
# Convention : Reuss Voigt Hill
#
# Bulk Modulus (GPa) = 43.38836 62.94069 53.16453
# Shear Modulus (GPa) = 16.64104 35.32488 25.98296
#
# Velocity S-wave (km/s) = 2.56844 3.74214 3.20940
# Velocity P-wave (km/s) = 5.09863 6.60474 5.89994
#
# Compressibility (1/GPa) = 0.02304765
#
# Stress axis : x y z
#
# Youngs Moduli (GPa) = 64.96422 32.50601 165.47037
#
# Poissons Ratio (x) = 0.33291 0.30654
# Poissons Ratio (y) = 0.66534 0.41071
# Poissons Ratio (z) = 0.12035 0.08068
#
# Static dielectric constant tensor:
#      x y z
#    x 1.734290 0.000000 0.167880 
#    y 0.000000 2.027380 0.000000 
#    z 0.167880 0.000000 2.122690 
# 
# From -- ./inp_files/169065.got.cif
#   From: 2010.05.17/outbox.cif.g08.bks.cpg/sg15_85_cif.got.tgz:169065.got - 2010.06.03 18:47:42.
