data_PCOD9280155
_publ_section_title
;
Structure prediction by ZEFSAII (Michael W. Deem and Ramdas Pophale) SiO2 
 PCOD9280155
Probable space group: C 2/C
;
_chemical_formula_sum "Si O2"
_cell_formula_units_Z 56
_cell_length_a 23.972564
_cell_length_b 5.237561
_cell_length_c 28.038418
_cell_angle_alpha 90.000000
_cell_angle_beta 127.220560
_cell_angle_gamma 90.000000
_cell_volume 2803.372733
_symmetry_space_group_name_H-M "C 2/C"
_symmetry_group_IT_number 15
_symmetry_cell_setting 'monoclinic'
loop_
_space_group_symop_operation_xyz
x,y,z
-x,y,1/2-z
-x,-y,-z
x,-y,1/2+z
1/2+x,1/2+y,z
1/2-x,1/2+y,1/2-z
1/2-x,1/2-y,-z
1/2+x,1/2-y,1/2+z
loop_
_atom_site_type_symbol
_atom_site_label
_atom_site_fract_x
_atom_site_fract_y
_atom_site_fract_z
Si Si1 0.786112 0.527761 0.634266
Si Si2 0.353825 0.485029 0.904560
Si Si3 0.193978 0.985537 0.411922
Si Si4 0.947343 0.537798 0.094226
Si Si5 0.570497 0.201519 0.813425
Si Si6 0.558740 0.012209 0.072780
Si Si7 0.865953 0.962274 0.523911
O O1 0.729821 0.502669 0.647070
O O2 0.766736 0.779753 0.593120
O O3 0.868648 0.571846 0.687591
O O4 0.784980 0.276996 0.600942
O O5 0.397781 0.727021 0.909663
O O6 0.389808 0.227002 0.906031
O O7 0.356796 0.485851 0.963704
O O8 0.113381 0.057049 0.356413
O O9 0.196210 0.995033 0.469976
O O10 0.947429 0.475623 0.150360
O O11 0.921376 0.821013 0.068920
O O12 0.018667 0.498020 0.102266
O O13 0.893590 0.325418 0.045467
O O14 0.500000 0.265690 0.750000
O O15 0.500000 0.000000 0.000000
#
# Coordination Sequence:
#
# PCOD9280155 Si02
#       7
#     8   8   8   8   8   8   8
#     4  10  21  37  54  86 115 147 186 228 288 341
#     4  12  23  34  58  82 119 164 179 227 278 335
#     4   9  19  35  52  82 115 142 179 232 276 345
#     4  11  21  36  56  85 114 144 196 237 266 334
#     4   9  21  40  63  84 109 141 191 242 298 330
#     4  12  22  37  56  81 119 158 198 221 265 329
#     4  11  18  34  52  82 117 147 186 226 275 330
#
# _framework density 19.975939
#
# number of rings (size 3 to 8) (size 9 to 14) (size 15 to 20)
#    0.857    0.571    4.286    2.143    0.000    1.714 
#    0.000    0.000    0.000    1.714    0.000    0.000 
#    0.000    0.000    0.000    0.000    0.000    0.000 
#
# Total GULP energy -156169.761622 kJ/mol
# GULP energy per Si atom -5577.491486 kJ/mol
# Density = 1.993047 g / cm^3
# Si number density = 19.975939 Si / 1000 Ang^3
#
#
#
# Elastic Constant Matrix: (Units=GPa)
#
#
# Indices 1 2 3 4 5 6 
#
# 1 115.5873 23.5191 11.0241 0.0007 21.0082 -0.0016
# 2 23.5191 101.9690 -2.4774 0.0018 9.5958 -0.0075
# 3 11.0241 -2.4774 44.7203 -0.0003 16.3237 -0.0008
# 4 0.0007 0.0018 -0.0003 8.8336 0.0003 2.4724
# 5 21.0082 9.5958 16.3237 0.0003 17.0990 0.0006
# 6 -0.0016 -0.0075 -0.0008 2.4724 0.0006 48.3019
#
#
#
# Elastic Compliance Matrix: (Units=1/GPa)
#
#
# Indices 1 2 3 4 5 6 
#
# 1 0.011593 -0.001024 0.003184 0.000000 -0.016709 0.000000
# 2 -0.001024 0.010968 0.004063 -0.000002 -0.008776 0.000002
# 3 0.003184 0.004063 0.036931 0.000001 -0.041449 0.000002
# 4 0.000000 -0.000002 0.000001 0.114850 -0.000002 -0.005879
# 5 -0.016709 -0.008776 -0.041449 -0.000002 0.123506 -0.000004
# 6 0.000000 0.000002 0.000002 -0.005879 -0.000004 0.021004
#
#
# Mechanical properties :
#
#
# Convention : Reuss Voigt Hill
#
# Bulk Modulus (GPa) = 13.90070 36.26759 25.08415
# Shear Modulus (GPa) = 15.13390 30.19427 22.66409
#
# Velocity S-wave (km/s) = 2.75545 3.89206 3.37199
# Velocity P-wave (km/s) = 4.13487 6.19617 5.26734
#
# Compressibility (1/GPa) = 0.07193881
#
# Stress axis : x y z
#
# Youngs Moduli (GPa) = 86.25917 91.17681 27.07750
#
# Poissons Ratio (x) = 0.09338 -0.08622
# Poissons Ratio (y) = 0.08835 -0.11003
# Poissons Ratio (z) = -0.27468 -0.37048
#
# Static dielectric constant tensor:
#      x y z
#    x 1.771010 0.000000 0.038100 
#    y 0.000000 1.703370 0.000000 
#    z 0.038100 0.000000 1.724510 
# 
# From -- ./inp_files/301721.got.cif
#   From: 2010.05.17/outbox.cif.g08.bks.cpg/sg15_151_cif.got.tgz:301721.got - 2010.06.03 18:47:42.
