data_PCOD9280140
_publ_section_title
;
Structure prediction by ZEFSAII (Michael W. Deem and Ramdas Pophale) SiO2 
 PCOD9280140
Probable space group: C 2/C
;
_chemical_formula_sum "Si O2"
_cell_formula_units_Z 48
_cell_length_a 9.949698
_cell_length_b 15.344117
_cell_length_c 15.452143
_cell_angle_alpha 90.000000
_cell_angle_beta 104.015481
_cell_angle_gamma 90.000000
_cell_volume 2288.839625
_symmetry_space_group_name_H-M "C 2/C"
_symmetry_group_IT_number 15
_symmetry_cell_setting 'monoclinic'
loop_
_space_group_symop_operation_xyz
x,y,z
-x,y,1/2-z
-x,-y,-z
x,-y,1/2+z
1/2+x,1/2+y,z
1/2-x,1/2+y,1/2-z
1/2-x,1/2-y,-z
1/2+x,1/2-y,1/2+z
loop_
_atom_site_type_symbol
_atom_site_label
_atom_site_fract_x
_atom_site_fract_y
_atom_site_fract_z
Si Si1 0.394498 0.631365 0.492080
Si Si2 0.499385 0.760543 0.647455
Si Si3 0.578228 0.776048 0.130552
Si Si4 0.466846 0.902424 0.967786
Si Si5 0.297961 0.813135 0.172155
Si Si6 0.206900 0.059846 0.521066
O O1 0.400954 0.694203 0.577739
O O2 0.358389 0.690020 0.402986
O O3 0.551515 0.597355 0.499211
O O4 0.304758 0.544384 0.488235
O O5 0.500000 0.748774 0.750000
O O6 0.487421 0.860969 0.615815
O O7 0.652580 0.734110 0.638840
O O8 0.425630 0.762262 0.148303
O O9 0.667631 0.817330 0.221080
O O10 0.546447 0.841177 0.047952
O O11 0.301710 0.899542 0.960584
O O12 0.500000 0.000000 0.000000
O O13 0.280803 0.905451 0.120477
#
# Coordination Sequence:
#
# PCOD9280140 Si02
#       6
#     8   8   8   8   8   8
#     4   9  18  35  62  83 111 147 189 235 285 333
#     4  10  21  37  57  82 114 151 188 233 283 336
#     4   9  18  35  58  81 111 147 190 233 277 336
#     4  10  21  37  53  79 113 153 186 224 281 341
#     4   9  18  35  57  84 111 144 191 234 276 335
#     4   9  18  35  60  84 110 148 188 234 284 335
#
# _framework density 20.971325
#
# number of rings (size 3 to 8) (size 9 to 14) (size 15 to 20)
#    0.000    2.667    0.000    1.000    0.000    6.667 
#    9.000    3.333   36.667    0.000    0.000    0.000 
#    0.000    0.000    0.000    0.000    0.000    0.000 
#
# Total GULP energy -133857.801568 kJ/mol
# GULP energy per Si atom -5577.408399 kJ/mol
# Density = 2.092359 g / cm^3
# Si number density = 20.971325 Si / 1000 Ang^3
#
#
#
# Elastic Constant Matrix: (Units=GPa)
#
#
# Indices 1 2 3 4 5 6 
#
# 1 65.1989 28.8190 10.6454 0.0000 2.6710 0.0000
# 2 28.8190 126.3647 51.8145 0.0000 -11.4460 0.0000
# 3 10.6454 51.8145 103.3050 0.0000 -12.1588 0.0000
# 4 0.0000 0.0000 0.0000 14.0352 0.0000 5.6987
# 5 2.6710 -11.4460 -12.1588 0.0000 22.5552 0.0000
# 6 0.0000 0.0000 0.0000 5.6987 0.0000 28.4595
#
#
#
# Elastic Compliance Matrix: (Units=1/GPa)
#
#
# Indices 1 2 3 4 5 6 
#
# 1 0.017445 -0.004311 -0.000145 0.000000 -0.004332 0.000000
# 2 -0.004311 0.011164 -0.004728 0.000000 0.003627 0.000000
# 3 -0.000145 -0.004728 0.012585 0.000000 0.004402 0.000000
# 4 0.000000 0.000000 0.000000 0.077555 0.000000 -0.015530
# 5 -0.004332 0.003627 0.004402 0.000000 0.049062 0.000000
# 6 0.000000 0.000000 0.000000 -0.015530 0.000000 0.038247
#
#
# Mechanical properties :
#
#
# Convention : Reuss Voigt Hill
#
# Bulk Modulus (GPa) = 43.81386 53.04736 48.43061
# Shear Modulus (GPa) = 21.54842 26.58262 24.06552
#
# Velocity S-wave (km/s) = 3.20897 3.56416 3.39122
# Velocity P-wave (km/s) = 5.88792 6.50290 6.20304
#
# Compressibility (1/GPa) = 0.02282383
#
# Stress axis : x y z
#
# Youngs Moduli (GPa) = 57.32465 89.57171 79.46145
#
# Poissons Ratio (x) = 0.38617 0.01153
# Poissons Ratio (y) = 0.24715 0.37573
# Poissons Ratio (z) = 0.00831 0.42354
#
# Static dielectric constant tensor:
#      x y z
#    x 1.840270 0.000000 0.000460 
#    y 0.000000 1.762140 0.000000 
#    z 0.000460 0.000000 1.751150 
# 
# From -- ./inp_files/143726.got.cif
#   From: 2010.05.17/outbox.cif.g08.bks.cpg/sg15_72_cif.got.tgz:143726.got - 2010.06.03 18:47:42.
