data_PCOD9280774
_publ_section_title
;
Structure prediction by ZEFSAII (Michael W. Deem and Ramdas Pophale) SiO2 
 PCOD9280774
Probable space group: C 2/C
;
_chemical_formula_sum "Si O2"
_cell_formula_units_Z 60
_cell_length_a 19.152353
_cell_length_b 9.527175
_cell_length_c 31.898099
_cell_angle_alpha 90.000000
_cell_angle_beta 152.188293
_cell_angle_gamma 90.000000
_cell_volume 2715.597796
_symmetry_space_group_name_H-M "C 2/C"
_symmetry_group_IT_number 15
_symmetry_cell_setting 'monoclinic'
loop_
_space_group_symop_operation_xyz
x,y,z
-x,y,1/2-z
-x,-y,-z
x,-y,1/2+z
1/2+x,1/2+y,z
1/2-x,1/2+y,1/2-z
1/2-x,1/2-y,-z
1/2+x,1/2-y,1/2+z
loop_
_atom_site_type_symbol
_atom_site_label
_atom_site_fract_x
_atom_site_fract_y
_atom_site_fract_z
Si Si1 0.507919 0.125174 0.058091
Si Si2 0.500000 0.566661 0.250000
Si Si3 0.149581 0.695581 0.983025
Si Si4 0.299292 0.595037 0.577928
Si Si5 0.875961 0.977479 0.898219
Si Si6 0.950728 0.845611 0.355306
Si Si7 0.760428 0.225017 0.876490
Si Si8 0.349281 0.171326 0.852316
O O1 0.565889 0.191511 0.132738
O O2 0.595997 0.208929 0.069606
O O3 0.566670 0.964837 0.083373
O O4 0.332122 0.171697 0.965564
O O5 0.581405 0.470028 0.326885
O O6 0.376523 0.670225 0.203799
O O7 0.973189 0.712502 0.883005
O O8 0.250000 0.750000 0.000000
O O9 0.192751 0.532604 0.007361
O O10 0.200861 0.769758 0.053592
O O11 0.395493 0.650382 0.589873
O O12 0.936882 0.044331 0.886668
O O13 0.741239 0.074547 0.844451
O O14 0.834826 0.815142 0.870453
O O15 0.000000 0.000000 0.000000
O O16 0.809882 0.871298 0.250351
#
# Coordination Sequence:
#
# PCOD9280774 Si02
#       8
#     8   4   8   8   8   8   8   8
#     4  10  23  41  67  98 133 178 226 276 338 423
#     4  10  22  40  66 100 138 174 236 290 348 408
#     4  10  21  37  63  94 127 174 225 272 338 413
#     4  10  22  39  65  96 135 180 226 281 343 409
#     4  11  23  43  68 100 134 184 226 286 352 418
#     4  11  23  41  66  99 141 176 233 289 342 414
#     4  10  22  41  66  98 134 175 226 283 342 414
#     4  11  22  40  70  99 133 177 228 280 351 410
#
# _framework density 22.094583
#
# number of rings (size 3 to 8) (size 9 to 14) (size 15 to 20)
#    0.000    1.600    1.333    2.800    0.000   11.200 
#    0.000    0.000    5.867    0.800    0.000    0.000 
#    0.000    0.000    0.000    0.000    0.000    0.000 
#
# Total GULP energy -167338.286836 kJ/mol
# GULP energy per Si atom -5577.942895 kJ/mol
# Density = 2.204429 g / cm^3
# Si number density = 22.094583 Si / 1000 Ang^3
#
#
#
# Elastic Constant Matrix: (Units=GPa)
#
#
# Indices 1 2 3 4 5 6 
#
# 1 149.7620 40.8233 40.2049 0.0000 18.0278 0.0000
# 2 40.8233 102.9689 13.1346 0.0000 -12.0042 0.0001
# 3 40.2049 13.1346 98.4582 0.0004 13.6275 0.0000
# 4 0.0000 0.0000 0.0004 29.7416 0.0000 1.0600
# 5 18.0278 -12.0042 13.6275 0.0000 25.6761 0.0000
# 6 0.0000 0.0001 0.0000 1.0600 0.0000 37.6976
#
#
#
# Elastic Compliance Matrix: (Units=1/GPa)
#
#
# Indices 1 2 3 4 5 6 
#
# 1 0.009324 -0.004273 -0.002218 0.000000 -0.007367 0.000000
# 2 -0.004273 0.012689 -0.001278 0.000000 0.009611 0.000000
# 3 -0.002218 -0.001278 0.011980 0.000000 -0.005399 0.000000
# 4 0.000000 0.000000 0.000000 0.033657 0.000000 -0.000946
# 5 -0.007367 0.009611 -0.005399 0.000000 0.051478 0.000000
# 6 0.000000 0.000000 0.000000 -0.000946 0.000000 0.026554
#
#
# Mechanical properties :
#
#
# Convention : Reuss Voigt Hill
#
# Bulk Modulus (GPa) = 54.18350 59.94605 57.06477
# Shear Modulus (GPa) = 29.87377 35.75815 32.81596
#
# Velocity S-wave (km/s) = 3.68106 4.02731 3.85807
# Velocity P-wave (km/s) = 6.53021 6.98685 6.76239
#
# Compressibility (1/GPa) = 0.01845580
#
# Stress axis : x y z
#
# Youngs Moduli (GPa) = 107.24831 78.80770 83.47253
#
# Poissons Ratio (x) = 0.33672 0.18513
# Poissons Ratio (y) = 0.45823 0.10670
# Poissons Ratio (z) = 0.23786 0.10074
#
# Static dielectric constant tensor:
#      x y z
#    x 3.662590 0.000000 0.810980 
#    y 0.000000 3.172790 0.000000 
#    z 0.810980 0.000000 2.194870 
# 
# From -- ./inp_files/316085.got.cif
#   From: 2010.05.17/outbox.cif.g08.bks.cpg/sg15_159_cif.got.tgz:316085.got - 2010.06.03 18:47:42.
