data_PCOD9280756
_publ_section_title
;
Structure prediction by ZEFSAII (Michael W. Deem and Ramdas Pophale) SiO2 
 PCOD9280756
Probable space group: C 2/C
;
_chemical_formula_sum "Si O2"
_cell_formula_units_Z 48
_cell_length_a 12.171548
_cell_length_b 13.651889
_cell_length_c 24.801754
_cell_angle_alpha 90.000000
_cell_angle_beta 148.140003
_cell_angle_gamma 90.000000
_cell_volume 2175.343061
_symmetry_space_group_name_H-M "C 2/C"
_symmetry_group_IT_number 15
_symmetry_cell_setting 'monoclinic'
loop_
_space_group_symop_operation_xyz
x,y,z
-x,y,1/2-z
-x,-y,-z
x,-y,1/2+z
1/2+x,1/2+y,z
1/2-x,1/2+y,1/2-z
1/2-x,1/2-y,-z
1/2+x,1/2-y,1/2+z
loop_
_atom_site_type_symbol
_atom_site_label
_atom_site_fract_x
_atom_site_fract_y
_atom_site_fract_z
Si Si1 0.838764 0.935425 0.352430
Si Si2 0.569556 0.339179 0.836534
Si Si3 0.520152 0.859375 0.363467
Si Si4 0.939128 0.647477 0.946663
Si Si5 0.439918 0.564985 0.664399
Si Si6 0.000092 0.865740 0.965350
O O1 0.965972 0.898475 0.352471
O O2 0.603363 0.911270 0.236190
O O3 0.934794 0.884658 0.445259
O O4 0.870437 0.048949 0.382253
O O5 0.500000 0.299779 0.750000
O O6 0.492284 0.258206 0.846185
O O7 0.498121 0.450528 0.811938
O O8 0.817628 0.346358 0.938962
O O9 0.430404 0.896547 0.382721
O O10 0.769789 0.870205 0.466462
O O11 0.805868 0.588061 0.934278
O O12 0.882849 0.762147 0.917524
O O13 0.500000 0.602075 0.750000
#
# Coordination Sequence:
#
# PCOD9280756 Si02
#       6
#     8   8   8   8   8   8
#     4  11  22  41  64  91 131 170 214 266 314 393
#     4  10  21  37  63  92 120 166 221 264 312 383
#     4  11  20  39  68  90 123 169 215 265 314 385
#     4  11  21  39  64  93 129 163 208 273 325 383
#     4  11  22  39  59  93 130 167 211 267 329 377
#     4  10  23  40  64  94 125 168 219 261 324 379
#
# _framework density 22.065484000000001
#
# number of rings (size 3 to 8) (size 9 to 14) (size 15 to 20)
#    0.000    1.333    1.667    7.000    0.000    0.667 
#    0.000    3.333    0.000    0.000    0.000    0.000 
#    0.000    0.000    0.000    0.000    0.000    0.000 
#
# Total GULP energy -133867.908042 kJ/mol
# GULP energy per Si atom -5577.829502 kJ/mol
# Density = 2.201526 g / cm^3
# Si number density = 22.065484 Si / 1000 Ang^3
#
#
#
# Elastic Constant Matrix: (Units=GPa)
#
#
# Indices 1 2 3 4 5 6 
#
# 1 86.7682 3.5929 9.6779 0.0003 -6.3824 -0.0001
# 2 3.5929 80.7896 22.1372 0.0000 -4.2449 0.0000
# 3 9.6779 22.1372 86.2028 0.0001 -25.1193 0.0000
# 4 0.0003 0.0000 0.0001 26.7952 -0.0001 -4.1446
# 5 -6.3824 -4.2449 -25.1193 -0.0001 26.8071 0.0000
# 6 -0.0001 0.0000 0.0000 -4.1446 0.0000 19.1803
#
#
#
# Elastic Compliance Matrix: (Units=1/GPa)
#
#
# Indices 1 2 3 4 5 6 
#
# 1 0.011765 -0.000237 -0.000625 0.000000 0.002177 0.000000
# 2 -0.000237 0.013364 -0.003859 0.000000 -0.001556 0.000000
# 3 -0.000625 -0.003859 0.017113 0.000000 0.015276 0.000000
# 4 0.000000 0.000000 0.000000 0.038611 0.000000 0.008343
# 5 0.002177 -0.001556 0.015276 0.000000 0.051889 0.000000
# 6 0.000000 0.000000 0.000000 0.008343 0.000000 0.053940
#
#
# Mechanical properties :
#
#
# Convention : Reuss Voigt Hill
#
# Bulk Modulus (GPa) = 30.48901 36.06405 33.27653
# Shear Modulus (GPa) = 24.14790 29.11335 26.63063
#
# Velocity S-wave (km/s) = 3.31172 3.63630 3.47780
# Velocity P-wave (km/s) = 5.33581 5.83180 5.58931
#
# Compressibility (1/GPa) = 0.03279870
#
# Stress axis : x y z
#
# Youngs Moduli (GPa) = 84.99996 74.82816 58.43522
#
# Poissons Ratio (x) = 0.01777 0.03654
# Poissons Ratio (y) = 0.02018 0.22548
# Poissons Ratio (z) = 0.05315 0.28874
#
# Static dielectric constant tensor:
#      x y z
#    x 1.872400 0.000000 0.005770 
#    y 0.000000 1.866190 0.000000 
#    z 0.005770 0.000000 1.883540 
# 
# From -- ./inp_files/293127.got.cif
#   From: 2010.05.17/outbox.cif.g08.bks.cpg/sg15_147_cif.got.tgz:293127.got - 2010.06.03 18:47:42.
