data_PCOD9280279
_publ_section_title
;
Structure prediction by ZEFSAII (Michael W. Deem and Ramdas Pophale) SiO2 
 PCOD9280279
Probable space group: C 2/C
;
_chemical_formula_sum "Si O2"
_cell_formula_units_Z 36
_cell_length_a 8.003268
_cell_length_b 11.071998
_cell_length_c 18.899009
_cell_angle_alpha 90.000000
_cell_angle_beta 116.626727
_cell_angle_gamma 90.000000
_cell_volume 1497.074187
_symmetry_space_group_name_H-M "C 2/C"
_symmetry_group_IT_number 15
_symmetry_cell_setting 'monoclinic'
loop_
_space_group_symop_operation_xyz
x,y,z
-x,y,1/2-z
-x,-y,-z
x,-y,1/2+z
1/2+x,1/2+y,z
1/2-x,1/2+y,1/2-z
1/2-x,1/2-y,-z
1/2+x,1/2-y,1/2+z
loop_
_atom_site_type_symbol
_atom_site_label
_atom_site_fract_x
_atom_site_fract_y
_atom_site_fract_z
Si Si1 0.215864 0.244769 0.578142
Si Si2 0.621039 0.762710 0.148499
Si Si3 0.012566 0.523861 0.101282
Si Si4 0.355573 0.368320 0.991460
Si Si5 0.000000 0.353380 0.750000
O O1 0.250000 0.250000 0.500000
O O2 0.421921 0.235780 0.650469
O O3 0.123357 0.368828 0.585088
O O4 0.061112 0.140404 0.565021
O O5 0.611293 0.662247 0.084706
O O6 0.815692 0.730602 0.221967
O O7 0.617429 0.897154 0.114784
O O8 0.995981 0.563573 0.179877
O O9 0.798874 0.527448 0.031464
O O10 0.250000 0.250000 0.000000
#
# Coordination Sequence:
#
# PCOD9280279 Si02
#       5
#     8   8   8   8   4
#     4   9  19  35  57  86 112 137 181 229 273 336
#     4  10  21  37  58  80 110 152 186 225 280 324
#     4  10  21  38  59  80 112 151 183 227 282 326
#     4   8  17  35  55  84 116 136 175 230 273 333
#     4  10  24  40  52  80 114 144 196 238 260 322
#
# _framework density 24.046906
#
# number of rings (size 3 to 8) (size 9 to 14) (size 15 to 20)
#    0.000    2.667    0.000    0.000    0.000   13.333 
#    0.000   15.556    0.000    0.000    0.000    0.000 
#    0.000    0.000    0.000    0.000    0.000    0.000 
#
# Total GULP energy -100446.651523 kJ/mol
# GULP energy per Si atom -5580.369529 kJ/mol
# Density = 2.399217 g / cm^3
# Si number density = 24.046906 Si / 1000 Ang^3
#
#
#
# Elastic Constant Matrix: (Units=GPa)
#
#
# Indices 1 2 3 4 5 6 
#
# 1 120.6301 19.9997 59.3419 0.0000 36.3307 0.0000
# 2 19.9997 99.4204 32.7121 0.0000 7.0842 0.0000
# 3 59.3419 32.7121 59.7320 0.0000 15.1524 0.0000
# 4 0.0000 0.0000 0.0000 21.5956 0.0000 -9.0057
# 5 36.3307 7.0842 15.1524 0.0000 62.3889 0.0000
# 6 0.0000 0.0000 0.0000 -9.0057 0.0000 32.7583
#
#
#
# Elastic Compliance Matrix: (Units=1/GPa)
#
#
# Indices 1 2 3 4 5 6 
#
# 1 0.019172 0.002837 -0.018848 0.000000 -0.006909 0.000000
# 2 0.002837 0.012693 -0.009575 0.000000 -0.000768 0.000000
# 3 -0.018848 -0.009575 0.040122 0.000000 0.002319 0.000000
# 4 0.000000 0.000000 0.000000 0.052302 0.000000 0.014379
# 5 -0.006909 -0.000768 0.002319 0.000000 0.019576 0.000000
# 6 0.000000 0.000000 0.000000 0.014379 0.000000 0.034479
#
#
# Mechanical properties :
#
#
# Convention : Reuss Voigt Hill
#
# Bulk Modulus (GPa) = 48.04211 55.98778 52.01494
# Shear Modulus (GPa) = 21.14574 34.53050 27.83812
#
# Velocity S-wave (km/s) = 2.96861 3.79352 3.40613
# Velocity P-wave (km/s) = 5.63667 6.52082 6.09480
#
# Compressibility (1/GPa) = 0.02081507
#
# Stress axis : x y z
#
# Youngs Moduli (GPa) = 52.15866 78.78545 24.92396
#
# Poissons Ratio (x) = -0.22352 0.46977
# Poissons Ratio (y) = -0.14798 0.23864
# Poissons Ratio (z) = 0.98310 0.75436
#
# Static dielectric constant tensor:
#      x y z
#    x 1.975660 0.000000 0.042460 
#    y 0.000000 1.923040 0.000000 
#    z 0.042460 0.000000 2.005960 
# 
# From -- ./inp_files/187590.got.cif
#   From: 2010.05.17/outbox.cif.g08.bks.cpg/sg15_94_cif.got.tgz:187590.got - 2010.06.03 18:47:42.
