data_PCOD9280709
_publ_section_title
;
Structure prediction by ZEFSAII (Michael W. Deem and Ramdas Pophale) SiO2 
 PCOD9280709
Probable space group: C 2/C
;
_chemical_formula_sum "Si O2"
_cell_formula_units_Z 52
_cell_length_a 10.989640
_cell_length_b 10.229645
_cell_length_c 22.887153
_cell_angle_alpha 90.000000
_cell_angle_beta 50.805577
_cell_angle_gamma 90.000000
_cell_volume 1994.072154
_symmetry_space_group_name_H-M "C 2/C"
_symmetry_group_IT_number 15
_symmetry_cell_setting 'monoclinic'
loop_
_space_group_symop_operation_xyz
x,y,z
-x,y,1/2-z
-x,-y,-z
x,-y,1/2+z
1/2+x,1/2+y,z
1/2-x,1/2+y,1/2-z
1/2-x,1/2-y,-z
1/2+x,1/2-y,1/2+z
loop_
_atom_site_type_symbol
_atom_site_label
_atom_site_fract_x
_atom_site_fract_y
_atom_site_fract_z
Si Si1 0.461897 0.214789 0.976787
Si Si2 0.000000 0.679591 0.250000
Si Si3 0.947118 0.010950 0.421420
Si Si4 0.652478 0.999432 0.076388
Si Si5 0.789498 0.096987 0.861630
Si Si6 0.766635 0.832649 0.141477
Si Si7 0.174919 0.400645 0.805088
O O1 0.488694 0.346006 0.931478
O O2 0.369937 0.115371 0.963444
O O3 0.626583 0.145047 0.938971
O O4 0.356210 0.251455 0.063573
O O5 0.898805 0.777785 0.320719
O O6 0.870888 0.607381 0.248909
O O7 0.824924 0.949792 0.506644
O O8 0.869961 0.003510 0.381312
O O9 0.101162 0.924952 0.372117
O O10 0.650791 0.926915 0.139953
O O11 0.504507 0.093652 0.115012
O O12 0.754032 0.027628 0.810283
O O13 0.727073 0.724858 0.202370
#
# Coordination Sequence:
#
# PCOD9280709 Si02
#       7
#     8   4   8   8   8   8   8
#     4  10  21  37  62  96 131 164 199 246 309 384
#     4  12  28  44  62  88 116 164 220 266 304 356
#     4  11  21  35  64  99 131 162 197 246 311 384
#     4  10  21  37  62  96 130 165 198 245 314 376
#     4  11  25  44  64  90 121 166 208 258 315 355
#     4  11  21  35  64  99 130 164 195 247 314 376
#     4  11  25  44  64  88 123 162 210 262 303 371
#
# _framework density 26.077292
#
# number of rings (size 3 to 8) (size 9 to 14) (size 15 to 20)
#    0.000    1.231    1.538    6.462    4.308    6.154 
#    0.000    0.000    0.000    0.000    0.000    0.000 
#    0.000    0.000    0.000    0.000    0.000    0.000 
#
# Total GULP energy -145630.416686 kJ/mol
# GULP energy per Si atom -5601.169873 kJ/mol
# Density = 2.601794 g / cm^3
# Si number density = 26.077292 Si / 1000 Ang^3
#
#
#
# Elastic Constant Matrix: (Units=GPa)
#
#
# Indices 1 2 3 4 5 6 
#
# 1 130.9078 41.6011 13.8665 0.0000 34.1087 0.0000
# 2 41.6011 53.1093 12.5191 0.0000 22.8628 0.0000
# 3 13.8665 12.5191 48.6128 0.0000 21.2044 0.0000
# 4 0.0000 0.0000 0.0000 28.1125 0.0000 7.5646
# 5 34.1087 22.8628 21.2044 0.0000 48.6830 0.0000
# 6 0.0000 0.0000 0.0000 7.5646 0.0000 46.9795
#
#
#
# Elastic Compliance Matrix: (Units=1/GPa)
#
#
# Indices 1 2 3 4 5 6 
#
# 1 0.010941 -0.006648 0.000707 0.000000 -0.004851 0.000000
# 2 -0.006648 0.027733 -0.001971 0.000000 -0.007508 0.000000
# 3 0.000707 -0.001971 0.025541 0.000000 -0.010695 0.000000
# 4 0.000000 0.000000 0.000000 0.037182 0.000000 -0.005987
# 5 -0.004851 -0.007508 -0.010695 0.000000 0.032124 0.000000
# 6 0.000000 0.000000 0.000000 -0.005987 0.000000 0.022250
#
#
# Mechanical properties :
#
#
# Convention : Reuss Voigt Hill
#
# Bulk Modulus (GPa) = 20.66449 40.95589 30.81019
# Shear Modulus (GPa) = 26.63446 35.73121 31.18284
#
# Velocity S-wave (km/s) = 3.19935 3.70564 3.46176
# Velocity P-wave (km/s) = 4.64643 5.83513 5.27437
#
# Compressibility (1/GPa) = 0.04839219
#
# Stress axis : x y z
#
# Youngs Moduli (GPa) = 91.40036 36.05748 39.15198
#
# Poissons Ratio (x) = 0.23973 -0.02770
# Poissons Ratio (y) = 0.60767 0.07716
# Poissons Ratio (z) = -0.06466 0.07106
#
# Static dielectric constant tensor:
#      x y z
#    x 2.034040 0.000000 -0.006700 
#    y 0.000000 1.982530 0.000000 
#    z -0.006700 0.000000 2.154890 
# 
# From -- ./inp_files/269202.got.cif
#   From: 2010.05.17/outbox.cif.g08.bks.cpg/sg15_135_cif.got.tgz:269202.got - 2010.06.03 18:47:42.
