data_PCOD9280636
_publ_section_title
;
Structure prediction by ZEFSAII (Michael W. Deem and Ramdas Pophale) SiO2 
 PCOD9280636
Probable space group: C 2/C
;
_chemical_formula_sum "Si O2"
_cell_formula_units_Z 32
_cell_length_a 8.404608
_cell_length_b 23.154099
_cell_length_c 8.760161
_cell_angle_alpha 90.000000
_cell_angle_beta 129.061111
_cell_angle_gamma 90.000000
_cell_volume 1323.684607
_symmetry_space_group_name_H-M "C 2/C"
_symmetry_group_IT_number 15
_symmetry_cell_setting 'monoclinic'
loop_
_space_group_symop_operation_xyz
x,y,z
-x,y,1/2-z
-x,-y,-z
x,-y,1/2+z
1/2+x,1/2+y,z
1/2-x,1/2+y,1/2-z
1/2-x,1/2-y,-z
1/2+x,1/2-y,1/2+z
loop_
_atom_site_type_symbol
_atom_site_label
_atom_site_fract_x
_atom_site_fract_y
_atom_site_fract_z
Si Si1 0.353022 0.429250 0.350866
Si Si2 0.391859 0.822100 0.349152
Si Si3 0.711268 0.707030 0.328827
Si Si4 0.710799 0.978990 0.959105
O O1 0.297484 0.364718 0.269348
O O2 0.592429 0.443523 0.486415
O O3 0.263089 0.454126 0.453233
O O4 0.229042 0.466687 0.149069
O O5 0.500000 0.833177 0.250000
O O6 0.326569 0.755216 0.322331
O O7 0.587153 0.829992 0.577094
O O8 0.500000 0.676217 0.250000
O O9 0.750000 0.750000 0.500000
O O10 0.500000 0.962920 0.750000
#
# Coordination Sequence:
#
# PCOD9280636 Si02
#       4
#     8   8   8   8
#     4  10  21  37  62  83 116 150 188 233 291 335
#     4   9  16  31  53  84 115 143 181 235 284 332
#     4   7  13  27  48  76 116 136 178 233 271 325
#     4  10  21  39  57  82 117 148 193 239 274 340
#
# _framework density 24.174941
#
# number of rings (size 3 to 8) (size 9 to 14) (size 15 to 20)
#    0.000    3.500    0.000    1.500    0.000    0.000 
#   13.500    0.000   38.500    6.000    0.000    0.000 
#    0.000    0.000    0.000    0.000    0.000    0.000 
#
# Total GULP energy -89101.580810 kJ/mol
# GULP energy per Si atom -5568.848801 kJ/mol
# Density = 2.411992 g / cm^3
# Si number density = 24.174941 Si / 1000 Ang^3
#
#
#
# Elastic Constant Matrix: (Units=GPa)
#
#
# Indices 1 2 3 4 5 6 
#
# 1 36.8401 25.0583 32.7533 0.0000 29.7475 0.0000
# 2 25.0583 74.6737 17.1500 0.0000 30.0649 0.0000
# 3 32.7533 17.1500 93.4620 0.0000 51.5371 0.0000
# 4 0.0000 0.0000 0.0000 17.9969 0.0000 15.1480
# 5 29.7475 30.0649 51.5371 0.0000 59.7925 0.0000
# 6 0.0000 0.0000 0.0000 15.1480 0.0000 19.1846
#
#
#
# Elastic Compliance Matrix: (Units=1/GPa)
#
#
# Indices 1 2 3 4 5 6 
#
# 1 0.053252 -0.010443 -0.009590 0.000000 -0.012977 0.000000
# 2 -0.010443 0.019292 0.004962 0.000000 -0.008782 0.000000
# 3 -0.009590 0.004962 0.022669 0.000000 -0.017263 0.000000
# 4 0.000000 0.000000 0.000000 0.165667 0.000000 -0.130809
# 5 -0.012977 -0.008782 -0.017263 0.000000 0.042476 0.000000
# 6 0.000000 0.000000 0.000000 -0.130809 0.000000 0.155411
#
#
# Mechanical properties :
#
#
# Convention : Reuss Voigt Hill
#
# Bulk Modulus (GPa) = 15.36745 39.43320 27.40033
# Shear Modulus (GPa) = 9.79242 28.06243 18.92743
#
# Velocity S-wave (km/s) = 2.01481 3.41076 2.80113
# Velocity P-wave (km/s) = 3.43266 5.64429 4.67125
#
# Compressibility (1/GPa) = 0.06507259
#
# Stress axis : x y z
#
# Youngs Moduli (GPa) = 18.77866 51.83484 44.11296
#
# Poissons Ratio (x) = 0.54129 0.42304
# Poissons Ratio (y) = 0.19610 -0.21890
# Poissons Ratio (z) = 0.18009 -0.25722
#
# Static dielectric constant tensor:
#      x y z
#    x 2.017510 0.000000 0.033410 
#    y 0.000000 2.030270 0.000000 
#    z 0.033410 0.000000 2.125410 
# 
# From -- ./inp_files/24738.got.cif
#   From: 2010.05.17/outbox.cif.g08.bks.cpg/sg15_13_cif.got.tgz:24738.got - 2010.06.03 18:47:42.
