data_PCOD9280834
_publ_section_title
;
Structure prediction by ZEFSAII (Michael W. Deem and Ramdas Pophale) SiO2 
 PCOD9280834
Probable space group: C 2/C
;
_chemical_formula_sum "Si O2"
_cell_formula_units_Z 52
_cell_length_a 18.261617
_cell_length_b 11.593833
_cell_length_c 21.535465
_cell_angle_alpha 90.000000
_cell_angle_beta 143.762296
_cell_angle_gamma 90.000000
_cell_volume 2695.307684
_symmetry_space_group_name_H-M "C 2/C"
_symmetry_group_IT_number 15
_symmetry_cell_setting 'monoclinic'
loop_
_space_group_symop_operation_xyz
x,y,z
-x,y,1/2-z
-x,-y,-z
x,-y,1/2+z
1/2+x,1/2+y,z
1/2-x,1/2+y,1/2-z
1/2-x,1/2-y,-z
1/2+x,1/2-y,1/2+z
loop_
_atom_site_type_symbol
_atom_site_label
_atom_site_fract_x
_atom_site_fract_y
_atom_site_fract_z
Si Si1 0.128160 0.072065 0.588616
Si Si2 0.659497 0.091637 0.292286
Si Si3 0.300628 0.374112 0.016820
Si Si4 0.237993 0.278307 0.418813
Si Si5 0.000000 0.439931 0.250000
Si Si6 0.906778 0.842094 0.303155
Si Si7 0.854354 0.032794 0.167932
O O1 0.156961 0.147971 0.546255
O O2 0.126284 0.152606 0.647426
O O3 0.240701 0.982337 0.676960
O O4 0.000000 0.000000 0.500000
O O5 0.723493 0.091572 0.403842
O O6 0.634919 0.220553 0.253819
O O7 0.530858 0.023426 0.213142
O O8 0.445524 0.358720 0.100931
O O9 0.294562 0.465459 0.068539
O O10 0.250000 0.250000 0.000000
O O11 0.250000 0.250000 0.500000
O O12 0.117127 0.357614 0.333154
O O13 0.210673 0.155666 0.367549
O O14 0.850756 0.946814 0.224108
O O15 0.000000 0.051780 0.250000
#
# Coordination Sequence:
#
# PCOD9280834 Si02
#       7
#     8   8   8   8   4   8   8
#     4  11  25  44  64  92 132 180 213 267 337 396
#     4  11  22  42  65  89 130 166 213 270 324 388
#     4  11  20  38  66  97 127 163 217 268 326 383
#     4  11  24  43  67  96 129 172 220 276 325 392
#     4  10  22  40  64  98 120 166 214 266 322 376
#     4  11  24  39  63  95 127 173 213 267 331 398
#     4  10  21  37  64  95 126 164 219 272 318 391
#
# _framework density 19.292788000000002
#
# number of rings (size 3 to 8) (size 9 to 14) (size 15 to 20)
#    0.000    1.231    3.846    2.769    5.385    0.000 
#    2.769    0.000    0.000    3.692    0.000    0.000 
#    0.000    0.000    0.000    0.000    0.000    0.000 
#
# Total GULP energy -145115.792666 kJ/mol
# GULP energy per Si atom -5581.376641 kJ/mol
# Density = 1.924888 g / cm^3
# Si number density = 19.292788 Si / 1000 Ang^3
#
#
#
# Elastic Constant Matrix: (Units=GPa)
#
#
# Indices 1 2 3 4 5 6 
#
# 1 108.2802 54.0579 37.4509 0.0000 0.5455 0.0000
# 2 54.0579 153.1322 35.3431 0.0000 2.7132 0.0000
# 3 37.4509 35.3431 65.7358 0.0000 -9.3618 0.0000
# 4 0.0000 0.0000 0.0000 26.8545 0.0000 6.6348
# 5 0.5455 2.7132 -9.3618 0.0000 31.9281 0.0000
# 6 0.0000 0.0000 0.0000 6.6348 0.0000 31.0980
#
#
#
# Elastic Compliance Matrix: (Units=1/GPa)
#
#
# Indices 1 2 3 4 5 6 
#
# 1 0.012844 -0.003152 -0.005861 0.000000 -0.001670 0.000000
# 2 -0.003152 0.008340 -0.002903 0.000000 -0.001506 0.000000
# 3 -0.005861 -0.002903 0.021040 0.000000 0.006516 0.000000
# 4 0.000000 0.000000 0.000000 0.039310 0.000000 -0.008387
# 5 -0.001670 -0.001506 0.006516 0.000000 0.033388 0.000000
# 6 0.000000 0.000000 0.000000 -0.008387 0.000000 0.033946
#
#
# Mechanical properties :
#
#
# Convention : Reuss Voigt Hill
#
# Bulk Modulus (GPa) = 54.36782 64.53911 59.45347
# Shear Modulus (GPa) = 27.95970 31.32921 29.64446
#
# Velocity S-wave (km/s) = 3.81101 4.03411 3.92415
# Velocity P-wave (km/s) = 6.89975 7.43127 7.17044
#
# Compressibility (1/GPa) = 0.01839323
#
# Stress axis : x y z
#
# Youngs Moduli (GPa) = 77.85486 119.91002 47.52857
#
# Poissons Ratio (x) = 0.37795 0.27856
# Poissons Ratio (y) = 0.24540 0.13795
# Poissons Ratio (z) = 0.45630 0.34804
#
# Static dielectric constant tensor:
#      x y z
#    x 1.780190 0.000000 -0.023140 
#    y 0.000000 1.690280 0.000000 
#    z -0.023140 0.000000 1.690250 
# 
# From -- ./inp_files/248679.got.cif
#   From: 2010.05.17/outbox.cif.g08.bks.cpg/sg15_125_cif.got.tgz:248679.got - 2010.06.03 18:47:42.
