data_PCOD9280263
_publ_section_title
;
Structure prediction by ZEFSAII (Michael W. Deem and Ramdas Pophale) SiO2 
 PCOD9280263
Probable space group: C 2/C
;
_chemical_formula_sum "Si O2"
_cell_formula_units_Z 40
_cell_length_a 9.170555
_cell_length_b 26.065923
_cell_length_c 16.026164
_cell_angle_alpha 90.000000
_cell_angle_beta 29.350321
_cell_angle_gamma 90.000000
_cell_volume 1877.697804
_symmetry_space_group_name_H-M "C 2/C"
_symmetry_group_IT_number 15
_symmetry_cell_setting 'monoclinic'
loop_
_space_group_symop_operation_xyz
x,y,z
-x,y,1/2-z
-x,-y,-z
x,-y,1/2+z
1/2+x,1/2+y,z
1/2-x,1/2+y,1/2-z
1/2-x,1/2-y,-z
1/2+x,1/2-y,1/2+z
loop_
_atom_site_type_symbol
_atom_site_label
_atom_site_fract_x
_atom_site_fract_y
_atom_site_fract_z
Si Si1 0.352153 0.165311 0.580620
Si Si2 0.247120 0.862373 0.306473
Si Si3 0.145303 0.944703 0.914966
Si Si4 0.642752 0.715635 0.413994
Si Si5 0.637303 0.634248 0.274457
O O1 0.413594 0.136084 0.635876
O O2 0.439052 0.224826 0.547370
O O3 0.514370 0.140789 0.421449
O O4 0.000000 0.163269 0.750000
O O5 0.500000 0.863667 0.250000
O O6 0.017707 0.907908 0.437432
O O7 0.050857 0.810808 0.416428
O O8 0.500000 0.946427 0.750000
O O9 0.086026 0.916344 0.855537
O O10 0.000000 0.000000 0.000000
O O11 0.564640 0.682923 0.370127
O O12 0.000000 0.710938 0.250000
O O13 0.500000 0.635647 0.250000
#
# Coordination Sequence:
#
# PCOD9280263 Si02
#       5
#     8   8   8   8   8
#     4  11  21  35  58  89 124 164 209 251 290 344
#     4  11  22  37  59  88 121 159 202 247 303 359
#     4  11  24  46  69  87 115 157 199 246 314 377
#     4  10  21  37  57  85 128 176 207 235 292 358
#     4  11  23  39  61  92 125 156 201 255 298 351
#
# _framework density 21.302682000000001
#
# number of rings (size 3 to 8) (size 9 to 14) (size 15 to 20)
#    0.000    1.200    0.000    9.000    0.000    8.000 
#    0.000    5.000    0.000    0.000    0.000    0.000 
#    0.000    0.000    0.000    0.000    0.000    0.000 
#
# Total GULP energy -111822.285778 kJ/mol
# GULP energy per Si atom -5591.114289 kJ/mol
# Density = 2.125420 g / cm^3
# Si number density = 21.302682 Si / 1000 Ang^3
#
#
#
# Elastic Constant Matrix: (Units=GPa)
#
#
# Indices 1 2 3 4 5 6 
#
# 1 98.3224 32.1019 -0.6709 0.0000 6.3370 0.0000
# 2 32.1019 122.6812 36.5960 0.0000 5.8079 0.0000
# 3 -0.6709 36.5960 95.9152 0.0001 12.6790 0.0000
# 4 0.0000 0.0000 0.0001 37.3535 0.0000 -0.3562
# 5 6.3370 5.8079 12.6790 0.0000 49.3946 0.0000
# 6 0.0000 0.0000 0.0000 -0.3562 0.0000 12.1021
#
#
#
# Elastic Compliance Matrix: (Units=1/GPa)
#
#
# Indices 1 2 3 4 5 6 
#
# 1 0.011377 -0.003373 0.001560 0.000000 -0.001463 0.000000
# 2 -0.003373 0.010200 -0.003948 0.000000 0.000247 0.000000
# 3 0.001560 -0.003948 0.012326 0.000000 -0.002900 0.000000
# 4 0.000000 0.000000 0.000000 0.026779 0.000000 0.000788
# 5 -0.001463 0.000247 -0.002900 0.000000 0.021148 0.000000
# 6 0.000000 0.000000 0.000000 0.000788 0.000000 0.082653
#
#
# Mechanical properties :
#
#
# Convention : Reuss Voigt Hill
#
# Bulk Modulus (GPa) = 44.68035 50.33031 47.50533
# Shear Modulus (GPa) = 27.25301 36.36281 31.80791
#
# Velocity S-wave (km/s) = 3.58064 4.13602 3.86831
# Velocity P-wave (km/s) = 6.17367 6.81810 6.50387
#
# Compressibility (1/GPa) = 0.02238120
#
# Stress axis : x y z
#
# Youngs Moduli (GPa) = 87.89759 98.04092 81.12635
#
# Poissons Ratio (x) = 0.33070 -0.12656
# Poissons Ratio (y) = 0.29648 0.32028
# Poissons Ratio (z) = -0.13712 0.38706
#
# Static dielectric constant tensor:
#      x y z
#    x 1.861480 0.000000 -0.060690 
#    y 0.000000 1.723370 0.000000 
#    z -0.060690 0.000000 1.822310 
# 
# From -- ./inp_files/23745.got.cif
#   From: 2010.05.17/outbox.cif.g08.bks.cpg/sg15_12_cif.got.tgz:23745.got - 2010.06.03 18:47:42.
