data_PCOD9280868
_publ_section_title
;
Structure prediction by ZEFSAII (Michael W. Deem and Ramdas Pophale) SiO2 
 PCOD9280868
Probable space group: C 2/C
;
_chemical_formula_sum "Si O2"
_cell_formula_units_Z 48
_cell_length_a 15.786253
_cell_length_b 29.975132
_cell_length_c 9.361936
_cell_angle_alpha 90.000000
_cell_angle_beta 34.436687
_cell_angle_gamma 90.000000
_cell_volume 2505.155944
_symmetry_space_group_name_H-M "C 2/C"
_symmetry_group_IT_number 15
_symmetry_cell_setting 'monoclinic'
loop_
_space_group_symop_operation_xyz
x,y,z
-x,y,1/2-z
-x,-y,-z
x,-y,1/2+z
1/2+x,1/2+y,z
1/2-x,1/2+y,1/2-z
1/2-x,1/2-y,-z
1/2+x,1/2-y,1/2+z
loop_
_atom_site_type_symbol
_atom_site_label
_atom_site_fract_x
_atom_site_fract_y
_atom_site_fract_z
Si Si1 0.836409 0.048240 0.149471
Si Si2 0.603618 0.122977 0.467421
Si Si3 0.186818 0.041783 0.657750
Si Si4 0.887121 0.618096 0.523210
Si Si5 0.174505 0.812244 0.480437
Si Si6 0.663221 0.214997 0.454971
O O1 0.744984 0.092851 0.307146
O O2 0.780842 0.006225 0.318042
O O3 0.810534 0.039027 0.017335
O O4 0.013136 0.053460 0.934163
O O5 0.501121 0.101808 0.487539
O O6 0.652081 0.173735 0.361729
O O7 0.500000 0.126775 0.750000
O O8 0.296372 0.078828 0.570797
O O9 0.769786 0.650495 0.765802
O O10 0.000000 0.639635 0.250000
O O11 0.236304 0.802174 0.553443
O O12 0.202049 0.765298 0.357818
O O13 0.000000 0.823323 0.750000
O O14 0.500000 0.221569 0.750000
#
# Coordination Sequence:
#
# PCOD9280868 Si02
#       6
#     8   8   8   8   8   8
#     4  10  23  44  62  89 122 158 206 250 307 372
#     4  11  22  39  63  90 123 165 205 251 304 373
#     4  10  24  42  64  87 123 161 200 256 306 368
#     4  12  24  41  60  95 134 160 201 261 316 360
#     4  10  21  37  65  92 121 164 216 253 296 368
#     4   9  18  38  62  89 121 160 213 254 295 356
#
# _framework density 19.160482999999999
#
# number of rings (size 3 to 8) (size 9 to 14) (size 15 to 20)
#    0.000    1.667    5.000    0.000    4.667    1.333 
#    3.000    0.833    3.667    0.000    0.000    0.000 
#    0.000    0.000    0.000    0.000    0.000    0.000 
#
# Total GULP energy -133781.232169 kJ/mol
# GULP energy per Si atom -5574.218007 kJ/mol
# Density = 1.911687 g / cm^3
# Si number density = 19.160483 Si / 1000 Ang^3
#
#
#
# Elastic Constant Matrix: (Units=GPa)
#
#
# Indices 1 2 3 4 5 6 
#
# 1 69.9112 2.3789 -3.7032 0.0000 -14.0147 0.0000
# 2 2.3789 87.8469 16.6422 0.0000 -9.3820 0.0000
# 3 -3.7032 16.6422 56.3102 0.0000 -6.2916 0.0000
# 4 0.0000 0.0000 0.0000 20.3165 0.0000 -6.8706
# 5 -14.0147 -9.3820 -6.2916 0.0000 24.6151 0.0000
# 6 0.0000 0.0000 0.0000 -6.8706 0.0000 23.7680
#
#
#
# Elastic Compliance Matrix: (Units=1/GPa)
#
#
# Indices 1 2 3 4 5 6 
#
# 1 0.016408 0.000217 0.002129 0.000000 0.009969 0.000000
# 2 0.000217 0.012416 -0.003204 0.000000 0.004037 0.000000
# 3 0.002129 -0.003204 0.019399 0.000000 0.004949 0.000000
# 4 0.000000 0.000000 0.000000 0.054554 0.000000 0.015770
# 5 0.009969 0.004037 0.004949 0.000000 0.049105 0.000000
# 6 0.000000 0.000000 0.000000 0.015770 0.000000 0.046632
#
#
# Mechanical properties :
#
#
# Convention : Reuss Voigt Hill
#
# Bulk Modulus (GPa) = 21.50297 27.18934 24.34616
# Shear Modulus (GPa) = 23.17698 26.98995 25.08346
#
# Velocity S-wave (km/s) = 3.48174 3.75724 3.62211
# Velocity P-wave (km/s) = 5.23548 5.74835 5.49790
#
# Compressibility (1/GPa) = 0.04650520
#
# Stress axis : x y z
#
# Youngs Moduli (GPa) = 60.94750 80.54328 51.54991
#
# Poissons Ratio (x) = -0.01748 -0.10973
# Poissons Ratio (y) = -0.01323 0.16517
# Poissons Ratio (z) = -0.12974 0.25807
#
# Static dielectric constant tensor:
#      x y z
#    x 1.419820 0.000000 0.272720 
#    y 0.000000 1.708600 0.000000 
#    z 0.272720 0.000000 1.387750 
# 
# From -- ./inp_files/43832.got.cif
#   From: 2010.05.17/outbox.cif.g08.bks.cpg/sg15_22_cif.got.tgz:43832.got - 2010.06.03 18:47:42.
