data_PCOD9280670
_publ_section_title
;
Structure prediction by ZEFSAII (Michael W. Deem and Ramdas Pophale) SiO2 
 PCOD9280670
Probable space group: C 2/C
;
_chemical_formula_sum "Si O2"
_cell_formula_units_Z 56
_cell_length_a 20.850425
_cell_length_b 18.456550
_cell_length_c 14.776596
_cell_angle_alpha 90.000000
_cell_angle_beta 29.166678
_cell_angle_gamma 90.000000
_cell_volume 2771.293365
_symmetry_space_group_name_H-M "C 2/C"
_symmetry_group_IT_number 15
_symmetry_cell_setting 'monoclinic'
loop_
_space_group_symop_operation_xyz
x,y,z
-x,y,1/2-z
-x,-y,-z
x,-y,1/2+z
1/2+x,1/2+y,z
1/2-x,1/2+y,1/2-z
1/2-x,1/2-y,-z
1/2+x,1/2-y,1/2+z
loop_
_atom_site_type_symbol
_atom_site_label
_atom_site_fract_x
_atom_site_fract_y
_atom_site_fract_z
Si Si1 0.168043 0.721212 0.993379
Si Si2 0.127025 0.805821 0.653612
Si Si3 0.842591 0.027092 0.436397
Si Si4 0.436452 0.276905 0.195475
Si Si5 0.294995 0.511874 0.694273
Si Si6 0.648652 0.945297 0.541090
Si Si7 0.040276 0.114785 0.436893
O O1 0.313289 0.742401 0.784655
O O2 0.124000 0.774265 0.129076
O O3 0.165514 0.640610 0.036112
O O4 0.060504 0.724851 0.048091
O O5 0.250000 0.750000 0.500000
O O6 0.165728 0.886026 0.568154
O O7 0.079620 0.825068 0.814556
O O8 0.000000 0.781669 0.750000
O O9 0.773401 0.004453 0.614948
O O10 0.000000 0.009652 0.250000
O O11 0.762855 0.986732 0.455576
O O12 0.490077 0.351556 0.092431
O O13 0.420180 0.566562 0.547227
O O14 0.340835 0.437521 0.684119
O O15 0.178130 0.542508 0.898910
O O16 0.500000 0.966549 0.750000
#
# Coordination Sequence:
#
# PCOD9280670 Si02
#       7
#     8   8   8   8   8   8   8
#     4  10  22  40  58  97 136 172 207 268 334 405
#     4  11  24  45  67 100 134 180 227 281 339 399
#     4  11  23  44  74 100 129 182 235 274 333 410
#     4  10  21  37  62  90 133 174 210 257 334 400
#     4  11  22  41  72 101 129 175 239 283 329 401
#     4  12  24  44  69  99 146 172 213 295 347 392
#     4  11  21  41  70  99 129 174 233 283 324 402
#
# _framework density 20.207170999999999
#
# number of rings (size 3 to 8) (size 9 to 14) (size 15 to 20)
#    0.000    1.143    7.143    0.857    0.000    6.857 
#    0.000    0.000    0.000    0.000    0.000    0.000 
#    0.000    0.000    0.000    0.000    0.000    0.000 
#
# Total GULP energy -156114.649973 kJ/mol
# GULP energy per Si atom -5575.523213 kJ/mol
# Density = 2.016118 g / cm^3
# Si number density = 20.207171 Si / 1000 Ang^3
#
#
#
# Elastic Constant Matrix: (Units=GPa)
#
#
# Indices 1 2 3 4 5 6 
#
# 1 77.2017 44.7244 55.6725 0.0000 -12.6700 -0.0001
# 2 44.7244 58.3632 19.7627 0.0000 -12.8236 -0.0001
# 3 55.6725 19.7627 100.2194 0.0000 -9.8403 -0.0001
# 4 0.0000 0.0000 0.0000 22.3650 0.0000 6.0611
# 5 -12.6700 -12.8236 -9.8403 0.0000 54.3385 0.0001
# 6 -0.0001 -0.0001 -0.0001 6.0611 0.0001 26.1362
#
#
#
# Elastic Compliance Matrix: (Units=1/GPa)
#
#
# Indices 1 2 3 4 5 6 
#
# 1 0.039428 -0.024358 -0.017064 0.000000 0.000355 0.000000
# 2 -0.024358 0.034188 0.007151 0.000000 0.003684 0.000000
# 3 -0.017064 0.007151 0.018145 0.000000 0.000995 0.000000
# 4 0.000000 0.000000 0.000000 0.047711 0.000000 -0.011064
# 5 0.000355 0.003684 0.000995 0.000000 0.019535 0.000000
# 6 0.000000 0.000000 0.000000 -0.011064 0.000000 0.040827
#
#
# Mechanical properties :
#
#
# Convention : Reuss Voigt Hill
#
# Bulk Modulus (GPa) = 43.06968 52.90036 47.98502
# Shear Modulus (GPa) = 18.10832 28.27626 23.19229
#
# Velocity S-wave (km/s) = 2.99680 3.74480 3.39149
# Velocity P-wave (km/s) = 5.77362 6.70328 6.25574
#
# Compressibility (1/GPa) = 0.02321819
#
# Stress axis : x y z
#
# Youngs Moduli (GPa) = 25.36273 29.25021 55.11158
#
# Poissons Ratio (x) = 0.71247 0.94045
# Poissons Ratio (y) = 0.61778 -0.39410
# Poissons Ratio (z) = 0.43280 -0.20917
#
# Static dielectric constant tensor:
#      x y z
#    x 1.796780 0.000000 -0.016510 
#    y 0.000000 1.707640 0.000000 
#    z -0.016510 0.000000 1.768160 
# 
# From -- ./inp_files/169111.got.cif
#   From: 2010.05.17/outbox.cif.g08.bks.cpg/sg15_85_cif.got.tgz:169111.got - 2010.06.03 18:47:42.
