data_PCOD9280955
_publ_section_title
;
Structure prediction by ZEFSAII (Michael W. Deem and Ramdas Pophale) SiO2 
 PCOD9280955
Probable space group: C 2/C
;
_chemical_formula_sum "Si O2"
_cell_formula_units_Z 44
_cell_length_a 12.836022
_cell_length_b 15.818491
_cell_length_c 16.465299
_cell_angle_alpha 90.000000
_cell_angle_beta 34.762008
_cell_angle_gamma 90.000000
_cell_volume 1906.200983
_symmetry_space_group_name_H-M "C 2/C"
_symmetry_group_IT_number 15
_symmetry_cell_setting 'monoclinic'
loop_
_space_group_symop_operation_xyz
x,y,z
-x,y,1/2-z
-x,-y,-z
x,-y,1/2+z
1/2+x,1/2+y,z
1/2-x,1/2+y,1/2-z
1/2-x,1/2-y,-z
1/2+x,1/2-y,1/2+z
loop_
_atom_site_type_symbol
_atom_site_label
_atom_site_fract_x
_atom_site_fract_y
_atom_site_fract_z
Si Si1 0.763579 0.313757 0.818904
Si Si2 0.000000 0.457556 0.750000
Si Si3 0.291295 0.030421 0.539542
Si Si4 0.000000 0.748917 0.750000
Si Si5 0.000000 0.834379 0.250000
Si Si6 0.398760 0.712286 0.487476
Si Si7 0.381319 0.120597 0.075066
O O1 0.864165 0.230125 0.789209
O O2 0.544580 0.319661 0.959866
O O3 0.806338 0.323544 0.696672
O O4 0.852629 0.394103 0.804707
O O5 0.104265 0.500736 0.608416
O O6 0.439492 0.079387 0.500335
O O7 0.135393 0.099047 0.618611
O O8 0.248268 0.950789 0.624301
O O9 0.950040 0.805040 0.861265
O O10 0.187064 0.696489 0.642185
O O11 0.427405 0.813777 0.475458
#
# Coordination Sequence:
#
# PCOD9280955 Si02
#       7
#     8   4   8   4   4   8   8
#     4  10  21  37  68  96 132 160 224 271 331 372
#     4   9  22  37  64  99 127 168 210 269 332 405
#     4  10  22  39  60  95 135 169 213 259 343 390
#     4  10  24  34  56  86 116 164 226 260 320 366
#     4  11  22  37  68 107 127 170 216 275 324 407
#     4  11  20  39  57  88 122 168 217 278 311 381
#     4  10  21  39  63  86 132 178 204 268 330 389
#
# _framework density 23.082560999999998
#
# number of rings (size 3 to 8) (size 9 to 14) (size 15 to 20)
#    0.000    1.818    3.636    0.000    2.545    3.636 
#    0.000    0.000    0.000    3.273    0.000    0.000 
#    0.000    0.000    0.000    0.000    0.000    0.000 
#
# Total GULP energy -122567.248159 kJ/mol
# GULP energy per Si atom -5571.238553 kJ/mol
# Density = 2.303002 g / cm^3
# Si number density = 23.082561 Si / 1000 Ang^3
#
#
#
# Elastic Constant Matrix: (Units=GPa)
#
#
# Indices 1 2 3 4 5 6 
#
# 1 118.9176 11.8922 49.1047 -0.0043 -23.4596 0.0016
# 2 11.8922 30.7417 9.3255 -0.0127 13.0328 0.0068
# 3 49.1047 9.3255 115.4592 -0.0150 -7.4178 0.0096
# 4 -0.0043 -0.0127 -0.0150 17.0417 0.0036 4.9345
# 5 -23.4596 13.0328 -7.4178 0.0036 50.6380 -0.0008
# 6 0.0016 0.0068 0.0096 4.9345 -0.0008 13.3980
#
#
#
# Elastic Compliance Matrix: (Units=1/GPa)
#
#
# Indices 1 2 3 4 5 6 
#
# 1 0.012057 -0.006167 -0.004209 -0.000009 0.006557 0.000008
# 2 -0.006167 0.041201 -0.001585 0.000041 -0.013693 -0.000035
# 3 -0.004209 -0.001585 0.010579 0.000010 0.000008 -0.000010
# 4 -0.000009 0.000041 0.000010 0.065684 -0.000018 -0.024192
# 5 0.006557 -0.013693 0.000008 -0.000018 0.026311 0.000015
# 6 0.000008 -0.000035 -0.000010 -0.024192 0.000015 0.083548
#
#
# Mechanical properties :
#
#
# Convention : Reuss Voigt Hill
#
# Bulk Modulus (GPa) = 25.05216 45.08481 35.06848
# Shear Modulus (GPa) = 18.07617 29.20194 23.63905
#
# Velocity S-wave (km/s) = 2.80144 3.56069 3.20364
# Velocity P-wave (km/s) = 4.61963 6.03979 5.37681
#
# Compressibility (1/GPa) = 0.03991672
#
# Stress axis : x y z
#
# Youngs Moduli (GPa) = 82.93755 24.27140 94.52280
#
# Poissons Ratio (x) = 0.14969 0.39781
# Poissons Ratio (y) = 0.51150 0.14977
# Poissons Ratio (z) = 0.34905 0.03846
#
# Static dielectric constant tensor:
#      x y z
#    x 1.925470 0.000000 -0.015260 
#    y 0.000000 1.856800 0.000000 
#    z -0.015260 0.000000 1.964270 
# 
# From -- ./inp_files/39262.got.cif
#   From: 2010.05.17/outbox.cif.g08.bks.cpg/sg15_20_cif.got.tgz:39262.got - 2010.06.03 18:47:42.
