data_PCOD9280892
_publ_section_title
;
Structure prediction by ZEFSAII (Michael W. Deem and Ramdas Pophale) SiO2 
 PCOD9280892
Probable space group: C 2/C
;
_chemical_formula_sum "Si O2"
_cell_formula_units_Z 56
_cell_length_a 19.286543
_cell_length_b 5.217410
_cell_length_c 23.343696
_cell_angle_alpha 90.000000
_cell_angle_beta 100.171062
_cell_angle_gamma 90.000000
_cell_volume 2312.063763
_symmetry_space_group_name_H-M "C 2/C"
_symmetry_group_IT_number 15
_symmetry_cell_setting 'monoclinic'
loop_
_space_group_symop_operation_xyz
x,y,z
-x,y,1/2-z
-x,-y,-z
x,-y,1/2+z
1/2+x,1/2+y,z
1/2-x,1/2+y,1/2-z
1/2-x,1/2-y,-z
1/2+x,1/2-y,1/2+z
loop_
_atom_site_type_symbol
_atom_site_label
_atom_site_fract_x
_atom_site_fract_y
_atom_site_fract_z
Si Si1 0.394127 0.117023 0.565743
Si Si2 0.801949 0.118646 0.554735
Si Si3 0.860623 0.654947 0.274118
Si Si4 0.740469 0.645102 0.829633
Si Si5 0.027945 0.551480 0.640448
Si Si6 0.545096 0.273862 0.035850
Si Si7 0.361381 0.536334 0.373778
O O1 0.346243 0.364842 0.546422
O O2 0.451894 0.180011 0.623601
O O3 0.436088 0.075467 0.511585
O O4 0.352892 0.860071 0.575161
O O5 0.750000 0.250000 0.500000
O O6 0.766874 0.022729 0.609275
O O7 0.794001 0.501724 0.293768
O O8 0.831291 0.774446 0.211827
O O9 0.933310 0.497482 0.293285
O O10 0.878304 0.888260 0.318406
O O11 0.780705 0.901665 0.853624
O O12 0.017805 0.312168 0.594863
O O13 0.088319 0.716549 0.617093
O O14 0.620655 0.382088 0.067676
O O15 0.500000 0.500000 0.000000
#
# Coordination Sequence:
#
# PCOD9280892 Si02
#       7
#     8   8   8   8   8   8   8
#     4  12  26  45  67  98 144 188 227 273 353 424
#     4  12  30  46  70 100 150 192 224 271 349 458
#     4  10  22  40  73  97 130 169 240 309 337 397
#     4  11  23  43  68 101 133 184 234 285 355 398
#     4  10  23  39  68 102 131 173 235 298 348 394
#     4  11  21  37  67 100 136 175 230 293 344 400
#     4  10  21  37  66 101 131 164 231 302 342 396
#
# _framework density 24.220784999999999
#
# number of rings (size 3 to 8) (size 9 to 14) (size 15 to 20)
#    0.000    1.143    2.857    2.571   12.000    0.000 
#    0.000    0.714    0.000    0.000    0.000    0.000 
#    0.000    0.000    0.000    0.000    0.000    0.000 
#
# Total GULP energy -156009.144806 kJ/mol
# GULP energy per Si atom -5571.755172 kJ/mol
# Density = 2.416566 g / cm^3
# Si number density = 24.220785 Si / 1000 Ang^3
#
#
#
# Elastic Constant Matrix: (Units=GPa)
#
#
# Indices 1 2 3 4 5 6 
#
# 1 39.7755 10.8764 30.1393 0.0000 22.5970 0.0000
# 2 10.8764 57.7792 7.9012 0.0000 7.9070 0.0000
# 3 30.1393 7.9012 122.2851 0.0000 39.9694 0.0000
# 4 0.0000 0.0000 0.0000 23.8767 0.0000 8.2650
# 5 22.5970 7.9070 39.9694 0.0000 47.6287 0.0000
# 6 0.0000 0.0000 0.0000 8.2650 0.0000 35.7689
#
#
#
# Elastic Compliance Matrix: (Units=1/GPa)
#
#
# Indices 1 2 3 4 5 6 
#
# 1 0.037331 -0.004607 -0.004636 0.000000 -0.013056 0.000000
# 2 -0.004607 0.018284 0.000319 0.000000 -0.001118 0.000000
# 3 -0.004636 0.000319 0.011848 0.000000 -0.007796 0.000000
# 4 0.000000 0.000000 0.000000 0.045523 0.000000 -0.010519
# 5 -0.013056 -0.001118 -0.007796 0.000000 0.033918 0.000000
# 6 0.000000 0.000000 0.000000 -0.010519 0.000000 0.030388
#
#
# Mechanical properties :
#
#
# Convention : Reuss Voigt Hill
#
# Bulk Modulus (GPa) = 20.15456 35.29706 27.72581
# Shear Modulus (GPa) = 23.62105 32.84973 28.23539
#
# Velocity S-wave (km/s) = 3.12627 3.68674 3.41801
# Velocity P-wave (km/s) = 4.62284 5.72079 5.20087
#
# Compressibility (1/GPa) = 0.04961657
#
# Stress axis : x y z
#
# Youngs Moduli (GPa) = 26.78752 54.69351 84.40448
#
# Poissons Ratio (x) = 0.25195 0.39127
# Poissons Ratio (y) = 0.12340 -0.02696
# Poissons Ratio (z) = 0.12418 -0.01747
#
# Static dielectric constant tensor:
#      x y z
#    x 1.988280 0.000000 0.031300 
#    y 0.000000 2.124540 0.000000 
#    z 0.031300 0.000000 1.944250 
# 
# From -- ./inp_files/278983.got.cif
#   From: 2010.05.17/outbox.cif.g08.bks.cpg/sg15_140_cif.got.tgz:278983.got - 2010.06.03 18:47:42.
