data_PCOD9280692
_publ_section_title
;
Structure prediction by ZEFSAII (Michael W. Deem and Ramdas Pophale) SiO2 
 PCOD9280692
Probable space group: C 2/C
;
_chemical_formula_sum "Si O2"
_cell_formula_units_Z 60
_cell_length_a 15.382453
_cell_length_b 23.360707
_cell_length_c 9.660873
_cell_angle_alpha 90.000000
_cell_angle_beta 117.754240
_cell_angle_gamma 90.000000
_cell_volume 3072.191234
_symmetry_space_group_name_H-M "C 2/C"
_symmetry_group_IT_number 15
_symmetry_cell_setting 'monoclinic'
loop_
_space_group_symop_operation_xyz
x,y,z
-x,y,1/2-z
-x,-y,-z
x,-y,1/2+z
1/2+x,1/2+y,z
1/2-x,1/2+y,1/2-z
1/2-x,1/2-y,-z
1/2+x,1/2-y,1/2+z
loop_
_atom_site_type_symbol
_atom_site_label
_atom_site_fract_x
_atom_site_fract_y
_atom_site_fract_z
Si Si1 0.278861 0.115943 0.440181
Si Si2 0.610344 0.526106 0.269398
Si Si3 0.690008 0.728787 0.325537
Si Si4 0.500000 0.667745 0.250000
Si Si5 0.013646 0.559491 0.925990
Si Si6 0.343660 0.599103 0.673437
Si Si7 0.541508 0.400157 0.500196
Si Si8 0.336967 0.850688 0.297430
O O1 0.181407 0.076698 0.374110
O O2 0.249057 0.171276 0.325161
O O3 0.376192 0.082892 0.462782
O O4 0.305530 0.134031 0.616553
O O5 0.500000 0.521116 0.250000
O O6 0.670786 0.469062 0.344961
O O7 0.588249 0.540687 0.092168
O O8 0.750000 0.750000 0.500000
O O9 0.592785 0.707264 0.327817
O O10 0.661386 0.780980 0.202951
O O11 0.481482 0.632950 0.376108
O O12 0.934405 0.610816 0.899192
O O13 0.000000 0.548587 0.750000
O O14 0.000000 0.500000 0.000000
O O15 0.380351 0.622719 0.553013
O O16 0.438682 0.599578 0.844460
O O17 0.250261 0.629628 0.666935
#
# Coordination Sequence:
#
# PCOD9280692 Si02
#       8
#     8   8   8   4   8   8   8   8
#     4  10  21  37  62  94 122 161 218 269 309 379
#     4  12  20  35  59  91 128 162 208 247 314 382
#     4  10  21  37  64  94 118 158 209 275 311 368
#     4  12  22  40  68  94 120 162 216 262 310 386
#     4  10  22  43  64  93 127 169 218 271 324 381
#     4  11  24  37  56  90 135 169 197 253 330 381
#     4  11  22  37  58  92 131 163 204 249 315 390
#     4  10  22  40  63  89 125 161 217 266 320 375
#
# _framework density 19.530033
#
# number of rings (size 3 to 8) (size 9 to 14) (size 15 to 20)
#    0.000    1.333    3.333    3.600    6.533    0.000 
#    2.400    0.667    0.000    0.000    0.000    0.000 
#    0.000    0.000    0.000    0.000    0.000    0.000 
#
# Total GULP energy -167059.713977 kJ/mol
# GULP energy per Si atom -5568.657133 kJ/mol
# Density = 1.948558 g / cm^3
# Si number density = 19.530033 Si / 1000 Ang^3
#
#
#
# Elastic Constant Matrix: (Units=GPa)
#
#
# Indices 1 2 3 4 5 6 
#
# 1 128.0943 68.2926 31.2602 0.0000 -4.4645 0.0000
# 2 68.2926 135.5634 25.2794 0.0000 0.9796 0.0000
# 3 31.2602 25.2794 60.4018 0.0000 -3.0268 0.0000
# 4 0.0000 0.0000 0.0000 23.5129 0.0000 9.1118
# 5 -4.4645 0.9796 -3.0268 0.0000 34.1417 0.0000
# 6 0.0000 0.0000 0.0000 9.1118 0.0000 31.2526
#
#
#
# Elastic Compliance Matrix: (Units=1/GPa)
#
#
# Indices 1 2 3 4 5 6 
#
# 1 0.011483 -0.005096 -0.003744 0.000000 0.001316 0.000000
# 2 -0.005096 0.010272 -0.001717 0.000000 -0.001113 0.000000
# 3 -0.003744 -0.001717 0.019276 0.000000 0.001269 0.000000
# 4 0.000000 0.000000 0.000000 0.047947 0.000000 -0.013979
# 5 0.001316 -0.001113 0.001269 0.000000 0.029606 0.000000
# 6 0.000000 0.000000 0.000000 -0.013979 0.000000 0.036073
#
#
# Mechanical properties :
#
#
# Convention : Reuss Voigt Hill
#
# Bulk Modulus (GPa) = 50.21168 63.74709 56.97939
# Shear Modulus (GPa) = 27.41039 31.06325 29.23682
#
# Velocity S-wave (km/s) = 3.75039 3.99248 3.87333
# Velocity P-wave (km/s) = 6.67231 7.34606 7.01728
#
# Compressibility (1/GPa) = 0.01991568
#
# Stress axis : x y z
#
# Youngs Moduli (GPa) = 87.08215 97.34936 51.87815
#
# Poissons Ratio (x) = 0.49612 0.19424
# Poissons Ratio (y) = 0.44380 0.08910
# Poissons Ratio (z) = 0.32606 0.16719
#
# Static dielectric constant tensor:
#      x y z
#    x 1.664780 0.000000 -0.010180 
#    y 0.000000 1.851350 0.000000 
#    z -0.010180 0.000000 1.675330 
# 
# From -- ./inp_files/42701.got.cif
#   From: 2010.05.17/outbox.cif.g08.bks.cpg/sg15_22_cif.got.tgz:42701.got - 2010.06.03 18:47:42.
