data_PCOD9280926
_publ_section_title
;
Structure prediction by ZEFSAII (Michael W. Deem and Ramdas Pophale) SiO2 
 PCOD9280926
Probable space group: C 2/C
;
_chemical_formula_sum "Si O2"
_cell_formula_units_Z 48
_cell_length_a 22.717761
_cell_length_b 9.206922
_cell_length_c 11.319499
_cell_angle_alpha 90.000000
_cell_angle_beta 99.114718
_cell_angle_gamma 90.000000
_cell_volume 2337.698549
_symmetry_space_group_name_H-M "C 2/C"
_symmetry_group_IT_number 15
_symmetry_cell_setting 'monoclinic'
loop_
_space_group_symop_operation_xyz
x,y,z
-x,y,1/2-z
-x,-y,-z
x,-y,1/2+z
1/2+x,1/2+y,z
1/2-x,1/2+y,1/2-z
1/2-x,1/2-y,-z
1/2+x,1/2-y,1/2+z
loop_
_atom_site_type_symbol
_atom_site_label
_atom_site_fract_x
_atom_site_fract_y
_atom_site_fract_z
Si Si1 0.434408 0.177325 0.745713
Si Si2 0.382280 0.381168 0.893752
Si Si3 0.658979 0.059739 0.199523
Si Si4 0.131094 0.193326 0.501310
Si Si5 0.208092 0.950450 0.836675
Si Si6 0.316036 0.752362 0.575437
O O1 0.500000 0.114951 0.750000
O O2 0.435059 0.318318 0.831290
O O3 0.408930 0.233069 0.612690
O O4 0.389468 0.064708 0.794245
O O5 0.324426 0.384713 0.788123
O O6 0.391321 0.540328 0.951706
O O7 0.365000 0.268889 0.990721
O O8 0.722624 0.020041 0.162571
O O9 0.674012 0.114249 0.336146
O O10 0.638304 0.191496 0.108650
O O11 0.190945 0.145307 0.446337
O O12 0.178700 0.106612 0.845900
O O13 0.250000 0.750000 0.500000
#
# Coordination Sequence:
#
# PCOD9280926 Si02
#       6
#     8   8   8   8   8   8
#     4  11  28  47  66  95 131 178 228 276 329 386
#     4  10  21  44  66  93 129 169 223 270 323 398
#     4  12  24  39  67  99 139 177 210 275 335 392
#     4  10  24  43  67  97 130 171 226 273 327 401
#     4  10  21  37  66  98 135 165 213 266 331 402
#     4  11  21  35  60  97 133 170 207 260 333 399
#
# _framework density 20.533014000000001
#
# number of rings (size 3 to 8) (size 9 to 14) (size 15 to 20)
#    0.000    1.333    3.333    1.500    7.000    1.333 
#    0.000    0.833    0.000    0.000    0.000    0.000 
#    0.000    0.000    0.000    0.000    0.000    0.000 
#
# Total GULP energy -133972.799145 kJ/mol
# GULP energy per Si atom -5582.199964 kJ/mol
# Density = 2.048628 g / cm^3
# Si number density = 20.533014 Si / 1000 Ang^3
#
#
#
# Elastic Constant Matrix: (Units=GPa)
#
#
# Indices 1 2 3 4 5 6 
#
# 1 81.5489 37.5992 22.2255 0.0000 -11.2367 0.0000
# 2 37.5992 80.7823 46.0307 0.0000 -7.7104 0.0000
# 3 22.2255 46.0307 101.3847 0.0000 -11.9320 0.0000
# 4 0.0000 0.0000 0.0000 45.2250 0.0000 -8.9593
# 5 -11.2367 -7.7104 -11.9320 0.0000 10.6947 0.0000
# 6 0.0000 0.0000 0.0000 -8.9593 0.0000 20.0631
#
#
#
# Elastic Compliance Matrix: (Units=1/GPa)
#
#
# Indices 1 2 3 4 5 6 
#
# 1 0.017296 -0.007401 0.001242 0.000000 0.014223 0.000000
# 2 -0.007401 0.020025 -0.007696 0.000000 -0.001925 0.000000
# 3 0.001242 -0.007696 0.014488 0.000000 0.011921 0.000000
# 4 0.000000 0.000000 0.000000 0.024258 0.000000 0.010832
# 5 0.014223 -0.001925 0.011921 0.000000 0.120362 0.000000
# 6 0.000000 0.000000 0.000000 0.010832 0.000000 0.054680
#
#
# Mechanical properties :
#
#
# Convention : Reuss Voigt Hill
#
# Bulk Modulus (GPa) = 41.49237 52.82521 47.15879
# Shear Modulus (GPa) = 17.43068 25.72057 21.57562
#
# Velocity S-wave (km/s) = 2.91677 3.54311 3.24509
# Velocity P-wave (km/s) = 5.62093 6.52081 6.08752
#
# Compressibility (1/GPa) = 0.02410081
#
# Stress axis : x y z
#
# Youngs Moduli (GPa) = 57.81712 49.93764 69.02151
#
# Poissons Ratio (x) = 0.36957 -0.08575
# Poissons Ratio (y) = 0.42788 0.53119
# Poissons Ratio (z) = -0.07183 0.38432
#
# Static dielectric constant tensor:
#      x y z
#    x 1.715680 0.000000 0.000680 
#    y 0.000000 1.749050 0.000000 
#    z 0.000680 0.000000 1.756110 
# 
# From -- ./inp_files/116353.got.cif
#   From: 2010.05.17/outbox.cif.g08.bks.cpg/sg15_59_cif.got.tgz:116353.got - 2010.06.03 18:47:42.
