data_PCOD9280079
_publ_section_title
;
Structure prediction by ZEFSAII (Michael W. Deem and Ramdas Pophale) SiO2 
 PCOD9280079
Probable space group: C 2/C
;
_chemical_formula_sum "Si O2"
_cell_formula_units_Z 36
_cell_length_a 9.853086
_cell_length_b 25.200760
_cell_length_c 15.126398
_cell_angle_alpha 90.000000
_cell_angle_beta 151.770418
_cell_angle_gamma 90.000000
_cell_volume 1776.592520
_symmetry_space_group_name_H-M "C 2/C"
_symmetry_group_IT_number 15
_symmetry_cell_setting 'monoclinic'
loop_
_space_group_symop_operation_xyz
x,y,z
-x,y,1/2-z
-x,-y,-z
x,-y,1/2+z
1/2+x,1/2+y,z
1/2-x,1/2+y,1/2-z
1/2-x,1/2-y,-z
1/2+x,1/2-y,1/2+z
loop_
_atom_site_type_symbol
_atom_site_label
_atom_site_fract_x
_atom_site_fract_y
_atom_site_fract_z
Si Si1 0.000000 0.345780 0.750000
Si Si2 0.000000 0.787623 0.750000
Si Si3 0.990844 0.450275 0.844552
Si Si4 0.050799 0.194175 0.481124
Si Si5 0.000000 0.608092 0.750000
Si Si6 0.388516 0.540172 0.096299
O O1 0.048355 0.387805 0.859308
O O2 0.740674 0.309720 0.632695
O O3 0.009353 0.815444 0.851550
O O4 0.722281 0.748845 0.590757
O O5 0.673666 0.461349 0.699655
O O6 0.000000 0.471982 0.750000
O O7 0.240723 0.483558 0.034623
O O8 0.246747 0.147347 0.633500
O O9 0.861126 0.573723 0.593017
O O10 0.500000 0.565718 0.250000
#
# Coordination Sequence:
#
# PCOD9280079 Si02
#       6
#     4   4   8   8   4   8
#     4  10  21  36  65  90 126 164 203 256 307 358
#     4   9  22  42  65  94 118 158 203 248 326 385
#     4  10  22  40  59  89 130 168 205 254 305 351
#     4  10  21  40  66  91 123 158 200 257 314 375
#     4  11  21  38  64  90 124 166 202 256 301 363
#     4  12  24  39  63  90 127 172 215 252 301 359
#
# _framework density 20.263508999999999
#
# number of rings (size 3 to 8) (size 9 to 14) (size 15 to 20)
#    0.667    0.889    3.333    1.333    4.667    0.889 
#    0.000    0.000    0.000    0.000    0.000    0.000 
#    0.000    0.000    0.000    0.000    0.000    0.000 
#
# Total GULP energy -100264.128751 kJ/mol
# GULP energy per Si atom -5570.229375 kJ/mol
# Density = 2.021739 g / cm^3
# Si number density = 20.263509 Si / 1000 Ang^3
#
#
#
# Elastic Constant Matrix: (Units=GPa)
#
#
# Indices 1 2 3 4 5 6 
#
# 1 100.6792 32.4153 84.9016 -0.0013 33.2771 -0.0006
# 2 32.4153 51.2826 35.4498 -0.0002 12.5602 -0.0001
# 3 84.9016 35.4498 130.3664 -0.0040 6.9393 -0.0018
# 4 -0.0013 -0.0002 -0.0040 2.8607 -0.0016 -17.6574
# 5 33.2771 12.5602 6.9393 -0.0016 46.3893 -0.0008
# 6 -0.0006 -0.0001 -0.0018 -17.6574 -0.0008 -7.0663
#
#
#
# Elastic Compliance Matrix: (Units=1/GPa)
#
#
# Indices 1 2 3 4 5 6 
#
# 1 0.036717 -0.002492 -0.022044 0.000000 -0.022366 0.000005
# 2 -0.002492 0.025701 -0.005131 0.000000 -0.004403 0.000002
# 3 -0.022044 -0.005131 0.022687 0.000000 0.013808 -0.000005
# 4 0.000000 0.000000 0.000000 0.021284 0.000000 -0.053185
# 5 -0.022366 -0.004403 0.013808 0.000000 0.036728 -0.000005
# 6 0.000005 0.000002 -0.000005 -0.053185 -0.000005 -0.008617
#
#
# Mechanical properties :
#
#
# Convention : Reuss Voigt Hill
#
# Bulk Modulus (GPa) = 38.80470 65.31795 52.06133
# Shear Modulus (GPa) = 24.70061 17.07417 20.88739
#
# Velocity S-wave (km/s) = 3.49516 2.90592 3.21407
# Velocity P-wave (km/s) = 5.95650 6.60026 6.28662
#
# Compressibility (1/GPa) = 0.02577007
#
# Stress axis : x y z
#
# Youngs Moduli (GPa) = 27.23540 38.90971 44.07815
#
# Poissons Ratio (x) = 0.09698 0.97165
# Poissons Ratio (y) = 0.06788 0.22617
# Poissons Ratio (z) = 0.60037 0.19965
#
# Static dielectric constant tensor:
#      x y z
#    x 1.767800 0.000000 0.027430 
#    y 0.000000 1.787460 0.000000 
#    z 0.027430 0.000000 1.665270 
# 
# From -- ./inp_files/139680.got.cif
#   From: 2010.05.17/outbox.cif.g08.bks.cpg/sg15_70_cif.got.tgz:139680.got - 2010.06.03 18:47:42.
