data_PCOD9280254
_publ_section_title
;
Structure prediction by ZEFSAII (Michael W. Deem and Ramdas Pophale) SiO2 
 PCOD9280254
Probable space group: C 2/C
;
_chemical_formula_sum "Si O2"
_cell_formula_units_Z 56
_cell_length_a 21.755077
_cell_length_b 13.622648
_cell_length_c 9.286498
_cell_angle_alpha 90.000000
_cell_angle_beta 63.235375
_cell_angle_gamma 90.000000
_cell_volume 2457.307204
_symmetry_space_group_name_H-M "C 2/C"
_symmetry_group_IT_number 15
_symmetry_cell_setting 'monoclinic'
loop_
_space_group_symop_operation_xyz
x,y,z
-x,y,1/2-z
-x,-y,-z
x,-y,1/2+z
1/2+x,1/2+y,z
1/2-x,1/2+y,1/2-z
1/2-x,1/2-y,-z
1/2+x,1/2-y,1/2+z
loop_
_atom_site_type_symbol
_atom_site_label
_atom_site_fract_x
_atom_site_fract_y
_atom_site_fract_z
Si Si1 0.281936 0.984047 0.893748
Si Si2 0.254211 0.139406 0.143070
Si Si3 0.574477 0.886044 0.719618
Si Si4 0.061290 0.801571 0.070965
Si Si5 0.602953 0.344834 0.740022
Si Si6 0.853331 0.929414 0.333797
Si Si7 0.388336 0.739075 0.574783
O O1 0.260549 0.948582 0.756330
O O2 0.361802 0.958537 0.832738
O O3 0.228222 0.925294 0.052244
O O4 0.268568 0.092875 0.969553
O O5 0.179027 0.187241 0.215323
O O6 0.313525 0.212841 0.127399
O O7 0.500000 0.927111 0.750000
O O8 0.590775 0.804977 0.579666
O O9 0.571755 0.820836 0.870166
O O10 0.114773 0.885019 0.055524
O O11 0.000000 0.814947 0.250000
O O12 0.047532 0.817425 0.919203
O O13 0.615993 0.461662 0.712697
O O14 0.586522 0.293490 0.607719
O O15 0.876990 0.858353 0.181710
#
# Coordination Sequence:
#
# PCOD9280254 Si02
#       7
#     8   8   8   8   8   8   8
#     4  10  21  37  62  87 126 163 210 262 318 370
#     4  10  22  36  59  97 127 163 209 261 319 375
#     4   9  21  42  62  86 123 169 215 256 313 389
#     4  10  21  37  57  84 122 166 207 249 311 384
#     4  11  21  36  58  92 127 158 207 266 312 364
#     4  10  21  37  59  87 122 165 208 257 316 381
#     4  10  22  37  62  93 125 157 215 263 313 374
#
# _framework density 22.789173000000002
#
# number of rings (size 3 to 8) (size 9 to 14) (size 15 to 20)
#    0.000    2.000    1.429    1.286    8.000    3.429 
#    0.000   10.714    0.000    4.286    0.000    0.000 
#    0.000    0.000    0.000    0.000    0.000    0.000 
#
# Total GULP energy -156250.681003 kJ/mol
# GULP energy per Si atom -5580.381464 kJ/mol
# Density = 2.273730 g / cm^3
# Si number density = 22.789173 Si / 1000 Ang^3
#
#
#
# Elastic Constant Matrix: (Units=GPa)
#
#
# Indices 1 2 3 4 5 6 
#
# 1 123.7191 -2.6384 36.4360 0.0000 4.4647 0.0000
# 2 -2.6384 19.0103 25.2744 0.0000 -1.2427 0.0000
# 3 36.4360 25.2744 147.9528 0.0000 21.2112 0.0000
# 4 0.0000 0.0000 0.0000 14.2557 0.0000 2.6819
# 5 4.4647 -1.2427 21.2112 0.0000 31.5838 0.0000
# 6 0.0000 0.0000 0.0000 2.6819 0.0000 23.9238
#
#
#
# Elastic Compliance Matrix: (Units=1/GPa)
#
#
# Indices 1 2 3 4 5 6 
#
# 1 0.009183 0.005957 -0.003460 0.000000 0.001260 0.000000
# 2 0.005957 0.075998 -0.016330 0.000000 0.013115 0.000000
# 3 -0.003460 -0.016330 0.011533 0.000000 -0.007899 0.000000
# 4 0.000000 0.000000 0.000000 0.071659 0.000000 -0.008033
# 5 0.001260 0.013115 -0.007899 0.000000 0.037305 0.000000
# 6 0.000000 0.000000 0.000000 -0.008033 0.000000 0.042700
#
#
# Mechanical properties :
#
#
# Convention : Reuss Voigt Hill
#
# Bulk Modulus (GPa) = 14.48259 45.42512 29.95385
# Shear Modulus (GPa) = 16.71911 29.39331 23.05621
#
# Velocity S-wave (km/s) = 2.71152 3.59526 3.18420
# Velocity P-wave (km/s) = 4.02144 6.10005 5.16636
#
# Compressibility (1/GPa) = 0.06904845
#
# Stress axis : x y z
#
# Youngs Moduli (GPa) = 108.89333 13.15828 86.70852
#
# Poissons Ratio (x) = -0.07838 0.29999
# Poissons Ratio (y) = -0.64864 1.41592
# Poissons Ratio (z) = 0.37674 0.21487
#
# Static dielectric constant tensor:
#      x y z
#    x 1.904090 0.000000 -0.000350 
#    y 0.000000 1.844040 0.000000 
#    z -0.000350 0.000000 1.871650 
# 
# From -- ./inp_files/61815.got.cif
#   From: 2010.05.17/outbox.cif.g08.bks.cpg/sg15_31_cif.got.tgz:61815.got - 2010.06.03 18:47:42.
