data_PCOD9280584
_publ_section_title
;
Structure prediction by ZEFSAII (Michael W. Deem and Ramdas Pophale) SiO2 
 PCOD9280584
Probable space group: C 2/C
;
_chemical_formula_sum "Si O2"
_cell_formula_units_Z 48
_cell_length_a 29.134230
_cell_length_b 11.876657
_cell_length_c 9.123187
_cell_angle_alpha 90.000000
_cell_angle_beta 141.831727
_cell_angle_gamma 90.000000
_cell_volume 1950.805333
_symmetry_space_group_name_H-M "C 2/C"
_symmetry_group_IT_number 15
_symmetry_cell_setting 'monoclinic'
loop_
_space_group_symop_operation_xyz
x,y,z
-x,y,1/2-z
-x,-y,-z
x,-y,1/2+z
1/2+x,1/2+y,z
1/2-x,1/2+y,1/2-z
1/2-x,1/2-y,-z
1/2+x,1/2-y,1/2+z
loop_
_atom_site_type_symbol
_atom_site_label
_atom_site_fract_x
_atom_site_fract_y
_atom_site_fract_z
Si Si1 0.171015 0.077097 0.250732
Si Si2 0.702700 0.782083 0.116678
Si Si3 0.837423 0.462782 0.274346
Si Si4 0.369725 0.633123 0.040831
Si Si5 0.905258 0.707258 0.396797
Si Si6 0.021396 0.382941 0.976277
O O1 0.187019 0.189031 0.199030
O O2 0.252150 0.032330 0.508729
O O3 0.120636 0.106157 0.264359
O O4 0.135278 0.984254 0.057614
O O5 0.665673 0.900057 0.076610
O O6 0.789009 0.807181 0.328254
O O7 0.664631 0.745619 0.871347
O O8 0.878104 0.582901 0.380216
O O9 0.888981 0.383614 0.300873
O O10 0.419700 0.716555 0.072664
O O11 0.971734 0.701655 0.445771
O O12 0.000000 0.379871 0.750000
O O13 0.000000 0.500000 0.000000
#
# Coordination Sequence:
#
# PCOD9280584 Si02
#       6
#     8   8   8   8   8   8
#     4  11  24  39  61  93 130 166 206 263 313 386
#     4  11  22  37  62  89 126 165 204 260 319 374
#     4  10  21  37  61  90 130 160 206 247 315 374
#     4  11  23  38  59  92 129 165 210 254 329 366
#     4  11  22  38  63  91 129 167 205 259 312 383
#     4  10  21  40  59  90 124 169 205 247 308 374
#
# _framework density 24.605224
#
# number of rings (size 3 to 8) (size 9 to 14) (size 15 to 20)
#    0.000    1.333    3.333    3.500    4.667    1.333 
#    6.000    0.000    0.000    1.000    0.000    0.000 
#    0.000    0.000    0.000    0.000    0.000    0.000 
#
# Total GULP energy -134395.823576 kJ/mol
# GULP energy per Si atom -5599.825982 kJ/mol
# Density = 2.454922 g / cm^3
# Si number density = 24.605224 Si / 1000 Ang^3
#
#
#
# Elastic Constant Matrix: (Units=GPa)
#
#
# Indices 1 2 3 4 5 6 
#
# 1 156.6631 60.5729 25.2844 0.0000 -34.1150 0.0000
# 2 60.5729 100.8893 27.5768 0.0000 -30.2096 0.0000
# 3 25.2844 27.5768 72.9594 0.0000 -31.3039 0.0000
# 4 0.0000 0.0000 0.0000 20.8682 0.0000 -19.4293
# 5 -34.1150 -30.2096 -31.3039 0.0000 47.1321 0.0000
# 6 0.0000 0.0000 0.0000 -19.4293 0.0000 42.9134
#
#
#
# Elastic Compliance Matrix: (Units=1/GPa)
#
#
# Indices 1 2 3 4 5 6 
#
# 1 0.008805 -0.004195 0.000161 0.000000 0.003791 0.000000
# 2 -0.004195 0.014430 -0.001867 0.000000 0.004973 0.000000
# 3 0.000161 -0.001867 0.019430 0.000000 0.011825 0.000000
# 4 0.000000 0.000000 0.000000 0.082840 0.000000 0.037506
# 5 0.003791 0.004973 0.011825 0.000000 0.035002 0.000000
# 6 0.000000 0.000000 0.000000 0.037506 0.000000 0.040284
#
#
# Mechanical properties :
#
#
# Convention : Reuss Voigt Hill
#
# Bulk Modulus (GPa) = 32.40225 61.93109 47.16667
# Shear Modulus (GPa) = 22.43378 36.65458 29.54418
#
# Velocity S-wave (km/s) = 3.02279 3.86386 3.46891
# Velocity P-wave (km/s) = 5.03790 6.71792 5.93763
#
# Compressibility (1/GPa) = 0.03086205
#
# Stress axis : x y z
#
# Youngs Moduli (GPa) = 113.57594 69.30140 51.46809
#
# Poissons Ratio (x) = 0.29072 -0.00828
# Poissons Ratio (y) = 0.47646 0.09608
# Poissons Ratio (z) = -0.01827 0.12937
#
# Static dielectric constant tensor:
#      x y z
#    x 1.981470 0.000000 0.013160 
#    y 0.000000 1.962120 0.000000 
#    z 0.013160 0.000000 1.998680 
# 
# From -- ./inp_files/65231.got.cif
#   From: 2010.05.17/outbox.cif.g08.bks.cpg/sg15_33_cif.got.tgz:65231.got - 2010.06.03 18:47:42.
