data_PCOD9280512
_publ_section_title
;
Structure prediction by ZEFSAII (Michael W. Deem and Ramdas Pophale) SiO2 
 PCOD9280512
Probable space group: C 2/C
;
_chemical_formula_sum "Si O2"
_cell_formula_units_Z 36
_cell_length_a 27.769987
_cell_length_b 10.660133
_cell_length_c 8.881645
_cell_angle_alpha 90.000000
_cell_angle_beta 47.654989
_cell_angle_gamma 90.000000
_cell_volume 1943.283568
_symmetry_space_group_name_H-M "C 2/C"
_symmetry_group_IT_number 15
_symmetry_cell_setting 'monoclinic'
loop_
_space_group_symop_operation_xyz
x,y,z
-x,y,1/2-z
-x,-y,-z
x,-y,1/2+z
1/2+x,1/2+y,z
1/2-x,1/2+y,1/2-z
1/2-x,1/2-y,-z
1/2+x,1/2-y,1/2+z
loop_
_atom_site_type_symbol
_atom_site_label
_atom_site_fract_x
_atom_site_fract_y
_atom_site_fract_z
Si Si1 0.684289 0.173746 0.619582
Si Si2 0.049762 0.390742 0.849559
Si Si3 0.051925 0.828776 0.927818
Si Si4 0.000000 0.035617 0.250000
Si Si5 0.137999 0.463865 0.927043
O O1 0.750000 0.250000 0.500000
O O2 0.620081 0.256379 0.790576
O O3 0.682908 0.055399 0.734926
O O4 0.674349 0.119902 0.472761
O O5 0.097771 0.381302 0.891593
O O6 0.089240 0.445432 0.624678
O O7 0.000000 0.500000 0.000000
O O8 0.007685 0.266823 0.912926
O O9 0.039280 0.880954 0.786525
O O10 0.046228 0.944653 0.054222
#
# Coordination Sequence:
#
# PCOD9280512 Si02
#       5
#     8   8   8   4   8
#     4  11  24  39  58  81 119 162 193 241 280 360
#     4  11  19  33  67  97 111 135 188 278 314 327
#     4  11  21  37  57  83 120 145 198 229 306 344
#     4  10  24  36  54  84 116 162 176 238 292 378
#     4  10  21  37  60  95 114 139 200 252 314 333
#
# _framework density 18.525347
#
# number of rings (size 3 to 8) (size 9 to 14) (size 15 to 20)
#    0.000    1.333    4.444    3.333    0.000    1.778 
#    0.000    4.444    0.000    0.000    0.000    0.000 
#    0.000    0.000    0.000    0.000    0.000    0.000 
#
# Total GULP energy -100575.635604 kJ/mol
# GULP energy per Si atom -5587.535311 kJ/mol
# Density = 1.848318 g / cm^3
# Si number density = 18.525347 Si / 1000 Ang^3
#
#
#
# Elastic Constant Matrix: (Units=GPa)
#
#
# Indices 1 2 3 4 5 6 
#
# 1 107.5535 38.9021 54.6005 0.0000 -3.8102 0.0000
# 2 38.9021 57.8971 10.7353 0.0000 -13.3258 0.0000
# 3 54.6005 10.7353 49.8089 0.0000 -0.2559 0.0000
# 4 0.0000 0.0000 0.0000 29.1930 0.0000 -1.6525
# 5 -3.8102 -13.3258 -0.2559 0.0000 32.5816 0.0000
# 6 0.0000 0.0000 0.0000 -1.6525 0.0000 40.2641
#
#
#
# Elastic Compliance Matrix: (Units=1/GPa)
#
#
# Indices 1 2 3 4 5 6 
#
# 1 0.029275 -0.014992 -0.028875 0.000000 -0.002935 0.000000
# 2 -0.014992 0.027606 0.010533 0.000000 0.009620 0.000000
# 3 -0.028875 0.010533 0.049466 0.000000 0.001320 0.000000
# 4 0.000000 0.000000 0.000000 0.034335 0.000000 0.001409
# 5 -0.002935 0.009620 0.001320 0.000000 0.034294 0.000000
# 6 0.000000 0.000000 0.000000 0.001409 0.000000 0.024894
#
#
# Mechanical properties :
#
#
# Convention : Reuss Voigt Hill
#
# Bulk Modulus (GPa) = 25.20132 47.08171 36.14151
# Shear Modulus (GPa) = 17.87225 27.80917 22.84071
#
# Velocity S-wave (km/s) = 3.10941 3.87866 3.51514
# Velocity P-wave (km/s) = 5.15019 6.74749 6.00221
#
# Compressibility (1/GPa) = 0.03968047
#
# Stress axis : x y z
#
# Youngs Moduli (GPa) = 34.15896 36.22341 20.21595
#
# Poissons Ratio (x) = 0.54305 0.58373
# Poissons Ratio (y) = 0.51210 -0.21294
# Poissons Ratio (z) = 0.98634 -0.38155
#
# Static dielectric constant tensor:
#      x y z
#    x 1.648390 0.000000 0.029010 
#    y 0.000000 1.636930 0.000000 
#    z 0.029010 0.000000 1.641380 
# 
# From -- ./inp_files/45861.got.cif
#   From: 2010.05.17/outbox.cif.g08.bks.cpg/sg15_23_cif.got.tgz:45861.got - 2010.06.03 18:47:42.
