data_PCOD9280295
_publ_section_title
;
Structure prediction by ZEFSAII (Michael W. Deem and Ramdas Pophale) SiO2 
 PCOD9280295
Probable space group: C 2/C
;
_chemical_formula_sum "Si O2"
_cell_formula_units_Z 40
_cell_length_a 19.098310
_cell_length_b 18.204429
_cell_length_c 9.117932
_cell_angle_alpha 90.000000
_cell_angle_beta 134.426444
_cell_angle_gamma 90.000000
_cell_volume 2263.901866
_symmetry_space_group_name_H-M "C 2/C"
_symmetry_group_IT_number 15
_symmetry_cell_setting 'monoclinic'
loop_
_space_group_symop_operation_xyz
x,y,z
-x,y,1/2-z
-x,-y,-z
x,-y,1/2+z
1/2+x,1/2+y,z
1/2-x,1/2+y,1/2-z
1/2-x,1/2-y,-z
1/2+x,1/2-y,1/2+z
loop_
_atom_site_type_symbol
_atom_site_label
_atom_site_fract_x
_atom_site_fract_y
_atom_site_fract_z
Si Si1 0.845145 0.585337 0.711218
Si Si2 0.977105 0.732926 0.887359
Si Si3 0.792090 0.181611 0.155870
Si Si4 0.113437 0.438836 0.898560
Si Si5 0.313884 0.193564 0.187812
O O1 0.919112 0.655125 0.814244
O O2 0.743014 0.612090 0.490166
O O3 0.885482 0.518422 0.674545
O O4 0.839185 0.561380 0.871017
O O5 0.905698 0.797560 0.837925
O O6 0.000000 0.744905 0.750000
O O7 0.078978 0.726643 0.121315
O O8 0.738917 0.179219 0.234407
O O9 0.750000 0.250000 0.000000
O O10 0.168522 0.380973 0.876242
O O11 0.000000 0.415753 0.750000
O O12 0.250000 0.250000 0.000000
#
# Coordination Sequence:
#
# PCOD9280295 Si02
#       5
#     8   8   8   8   8
#     4  11  22  38  57  90 123 153 195 241 307 358
#     4  11  21  38  63  85 124 160 200 243 294 357
#     4  10  21  37  58  85 119 159 197 240 293 353
#     4  12  24  35  60  87 126 156 192 250 306 361
#     4  12  24  37  59  91 122 157 202 245 298 351
#
# _framework density 17.668610000000001
#
# number of rings (size 3 to 8) (size 9 to 14) (size 15 to 20)
#    0.000    0.800    6.000    4.800    0.000    0.000 
#    0.000    0.000    0.000    1.200    0.000    0.000 
#    0.000    0.000    0.000    0.000    0.000    0.000 
#
# Total GULP energy -111700.200443 kJ/mol
# GULP energy per Si atom -5585.010022 kJ/mol
# Density = 1.762840 g / cm^3
# Si number density = 17.668610 Si / 1000 Ang^3
#
#
#
# Elastic Constant Matrix: (Units=GPa)
#
#
# Indices 1 2 3 4 5 6 
#
# 1 114.2665 47.8109 57.9541 0.0000 -15.6724 0.0000
# 2 47.8109 69.2600 44.8816 0.0000 -1.9296 0.0000
# 3 57.9541 44.8816 132.1264 0.0000 -2.5874 0.0000
# 4 0.0000 0.0000 0.0000 23.9035 0.0000 -5.2826
# 5 -15.6724 -1.9296 -2.5874 0.0000 40.3702 0.0000
# 6 0.0000 0.0000 0.0000 -5.2826 0.0000 39.6490
#
#
#
# Elastic Compliance Matrix: (Units=1/GPa)
#
#
# Indices 1 2 3 4 5 6 
#
# 1 0.014421 -0.007411 -0.003710 0.000000 0.005006 0.000000
# 2 -0.007411 0.022332 -0.004376 0.000000 -0.002090 0.000000
# 3 -0.003710 -0.004376 0.010663 0.000000 -0.000966 0.000000
# 4 0.000000 0.000000 0.000000 0.043104 0.000000 0.005743
# 5 0.005006 -0.002090 -0.000966 0.000000 0.026552 0.000000
# 6 0.000000 0.000000 0.000000 0.005743 0.000000 0.025986
#
#
# Mechanical properties :
#
#
# Convention : Reuss Voigt Hill
#
# Bulk Modulus (GPa) = 60.89470 68.54955 64.72213
# Shear Modulus (GPa) = 27.85101 31.78497 29.81799
#
# Velocity S-wave (km/s) = 3.97457 4.24601 4.11253
# Velocity P-wave (km/s) = 7.45672 7.93219 7.69813
#
# Compressibility (1/GPa) = 0.01642179
#
# Stress axis : x y z
#
# Youngs Moduli (GPa) = 69.34512 44.77893 93.78005
#
# Poissons Ratio (x) = 0.33187 0.34790
# Poissons Ratio (y) = 0.51394 0.41038
# Poissons Ratio (z) = 0.25725 0.19595
#
# Static dielectric constant tensor:
#      x y z
#    x 1.606440 0.000000 0.011410 
#    y 0.000000 1.593940 0.000000 
#    z 0.011410 0.000000 1.633240 
# 
# From -- ./inp_files/30183.got.cif
#   From: 2010.05.17/outbox.cif.g08.bks.cpg/sg15_16_cif.got.tgz:30183.got - 2010.06.03 18:47:42.
