data_PCOD9280327
_publ_section_title
;
Structure prediction by ZEFSAII (Michael W. Deem and Ramdas Pophale) SiO2 
 PCOD9280327
Probable space group: C 2/C
;
_chemical_formula_sum "Si O2"
_cell_formula_units_Z 44
_cell_length_a 17.099933
_cell_length_b 9.933653
_cell_length_c 13.910137
_cell_angle_alpha 90.000000
_cell_angle_beta 101.085425
_cell_angle_gamma 90.000000
_cell_volume 2318.755801
_symmetry_space_group_name_H-M "C 2/C"
_symmetry_group_IT_number 15
_symmetry_cell_setting 'monoclinic'
loop_
_space_group_symop_operation_xyz
x,y,z
-x,y,1/2-z
-x,-y,-z
x,-y,1/2+z
1/2+x,1/2+y,z
1/2-x,1/2+y,1/2-z
1/2-x,1/2-y,-z
1/2+x,1/2-y,1/2+z
loop_
_atom_site_type_symbol
_atom_site_label
_atom_site_fract_x
_atom_site_fract_y
_atom_site_fract_z
Si Si1 0.000000 0.981120 0.250000
Si Si2 0.796691 0.602444 0.936459
Si Si3 0.689353 0.387444 0.580698
Si Si4 0.671335 0.395203 0.234228
Si Si5 0.933309 0.921164 0.543522
Si Si6 0.321920 0.791812 0.943442
O O1 0.923760 0.896000 0.268408
O O2 0.963085 0.072894 0.158271
O O3 0.845918 0.737373 0.922084
O O4 0.723862 0.611631 0.842209
O O5 0.828907 0.451762 0.936066
O O6 0.772421 0.622183 0.042974
O O7 0.689540 0.465848 0.680850
O O8 0.641634 0.483504 0.496645
O O9 0.692969 0.278209 0.163397
O O10 0.902936 0.777070 0.501686
O O11 0.000000 0.000000 0.500000
O O12 0.250000 0.750000 0.000000
#
# Coordination Sequence:
#
# PCOD9280327 Si02
#       6
#     4   8   8   8   8   8
#     4  12  20  36  64  84 112 166 206 234 288 376
#     4  11  21  36  59  91 122 148 194 257 302 345
#     4  10  21  37  58  88 120 155 191 249 309 346
#     4  11  21  36  63  88 117 156 205 241 295 365
#     4  11  21  39  61  84 116 156 203 238 293 362
#     4  11  20  38  60  90 120 155 200 253 294 350
#
# _framework density 18.975693
#
# number of rings (size 3 to 8) (size 9 to 14) (size 15 to 20)
#    0.000    1.091    9.091    1.091    0.000    0.000 
#    0.000    0.909    0.000    2.182    0.000    0.000 
#    0.000    0.000    0.000    0.000    0.000    0.000 
#
# Total GULP energy -122518.422931 kJ/mol
# GULP energy per Si atom -5569.019224 kJ/mol
# Density = 1.893250 g / cm^3
# Si number density = 18.975693 Si / 1000 Ang^3
#
#
#
# Elastic Constant Matrix: (Units=GPa)
#
#
# Indices 1 2 3 4 5 6 
#
# 1 38.0070 15.7418 20.6700 0.0000 -6.8331 0.0000
# 2 15.7418 168.3989 25.9595 0.0000 -2.0316 0.0000
# 3 20.6700 25.9595 102.5079 0.0000 2.9894 0.0000
# 4 0.0000 0.0000 0.0000 31.6933 0.0000 -1.4397
# 5 -6.8331 -2.0316 2.9894 0.0000 35.5596 0.0000
# 6 0.0000 0.0000 0.0000 -1.4397 0.0000 16.9861
#
#
#
# Elastic Compliance Matrix: (Units=1/GPa)
#
#
# Indices 1 2 3 4 5 6 
#
# 1 0.031575 -0.001939 -0.006064 0.000000 0.006466 0.000000
# 2 -0.001939 0.006307 -0.001209 0.000000 0.000089 0.000000
# 3 -0.006064 -0.001209 0.011348 0.000000 -0.002188 0.000000
# 4 0.000000 0.000000 0.000000 0.031674 0.000000 0.002685
# 5 0.006466 0.000089 -0.002188 0.000000 0.029553 0.000000
# 6 0.000000 0.000000 0.000000 0.002685 0.000000 0.059099
#
#
# Mechanical properties :
#
#
# Convention : Reuss Voigt Hill
#
# Bulk Modulus (GPa) = 32.46150 48.18404 40.32277
# Shear Modulus (GPa) = 25.22077 33.28398 29.25238
#
# Velocity S-wave (km/s) = 3.64965 4.19266 3.93054
# Velocity P-wave (km/s) = 5.90796 6.99182 6.47261
#
# Compressibility (1/GPa) = 0.03080572
#
# Stress axis : x y z
#
# Youngs Moduli (GPa) = 31.67106 158.55551 88.12014
#
# Poissons Ratio (x) = 0.30739 0.53440
# Poissons Ratio (y) = 0.06140 0.10653
# Poissons Ratio (z) = 0.19207 0.19167
#
# Static dielectric constant tensor:
#      x y z
#    x 2.455520 0.000000 0.089280 
#    y 0.000000 1.781630 0.000000 
#    z 0.089280 0.000000 1.727490 
# 
# From -- ./inp_files/165775.got.cif
#   From: 2010.05.17/outbox.cif.g08.bks.cpg/sg15_83_cif.got.tgz:165775.got - 2010.06.03 18:47:42.
