data_PCOD9280117
_publ_section_title
;
Structure prediction by ZEFSAII (Michael W. Deem and Ramdas Pophale) SiO2 
 PCOD9280117
Probable space group: C 2/C
;
_chemical_formula_sum "Si O2"
_cell_formula_units_Z 44
_cell_length_a 14.612972
_cell_length_b 11.991721
_cell_length_c 26.582213
_cell_angle_alpha 90.000000
_cell_angle_beta 149.670606
_cell_angle_gamma 90.000000
_cell_volume 2352.216043
_symmetry_space_group_name_H-M "C 2/C"
_symmetry_group_IT_number 15
_symmetry_cell_setting 'monoclinic'
loop_
_space_group_symop_operation_xyz
x,y,z
-x,y,1/2-z
-x,-y,-z
x,-y,1/2+z
1/2+x,1/2+y,z
1/2-x,1/2+y,1/2-z
1/2-x,1/2-y,-z
1/2+x,1/2-y,1/2+z
loop_
_atom_site_type_symbol
_atom_site_label
_atom_site_fract_x
_atom_site_fract_y
_atom_site_fract_z
Si Si1 0.191844 0.481759 0.867374
Si Si2 0.957306 0.156366 0.943732
Si Si3 0.374832 0.084779 0.410335
Si Si4 0.930171 0.592721 0.093042
Si Si5 0.500000 0.481605 0.250000
Si Si6 0.546869 0.661854 0.870328
O O1 0.296439 0.584496 0.891667
O O2 0.138144 0.498725 0.900345
O O3 0.000000 0.458198 0.750000
O O4 0.347963 0.386131 0.942982
O O5 0.928042 0.286069 0.941288
O O6 0.962598 0.137164 0.885610
O O7 0.408401 0.060317 0.367048
O O8 0.174736 0.059489 0.333819
O O9 0.500000 0.000000 0.500000
O O10 0.975733 0.705068 0.145696
O O11 0.759457 0.630862 0.977905
O O12 0.517859 0.404862 0.208819
#
# Coordination Sequence:
#
# PCOD9280117 Si02
#       6
#     8   8   8   8   4   8
#     4  10  21  36  69  87 114 162 212 236 294 361
#     4   9  22  43  59  89 131 154 190 265 299 336
#     4  11  23  41  60  87 126 159 193 249 310 354
#     4   9  19  39  59  84 119 155 196 255 288 341
#     4  12  24  34  64  90 114 164 206 236 304 374
#     4   9  19  37  61  84 118 155 201 242 295 352
#
# _framework density 18.705766000000001
#
# number of rings (size 3 to 8) (size 9 to 14) (size 15 to 20)
#    0.000    2.182    1.818    1.091    5.091    0.000 
#    0.000    0.909    0.000    0.000    0.000    0.000 
#    0.000    0.000    0.000    0.000    0.000    0.000 
#
# Total GULP energy -122622.379973 kJ/mol
# GULP energy per Si atom -5573.744544 kJ/mol
# Density = 1.866319 g / cm^3
# Si number density = 18.705766 Si / 1000 Ang^3
#
#
#
# Elastic Constant Matrix: (Units=GPa)
#
#
# Indices 1 2 3 4 5 6 
#
# 1 124.0000 78.5660 40.1373 0.0000 15.3914 0.0000
# 2 78.5660 107.9549 50.6382 0.0000 -5.5261 0.0000
# 3 40.1373 50.6382 98.1310 -0.0002 12.5725 -0.0001
# 4 0.0000 0.0000 -0.0002 14.4701 0.0000 -2.6877
# 5 15.3914 -5.5261 12.5725 0.0000 26.4410 0.0000
# 6 0.0000 0.0000 -0.0001 -2.6877 0.0000 32.7167
#
#
#
# Elastic Compliance Matrix: (Units=1/GPa)
#
#
# Indices 1 2 3 4 5 6 
#
# 1 0.019438 -0.016063 0.002362 0.000000 -0.015795 0.000000
# 2 -0.016063 0.026429 -0.009556 0.000000 0.019418 0.000000
# 3 0.002362 -0.009556 0.015534 0.000000 -0.010758 0.000000
# 4 0.000000 0.000000 0.000000 0.070179 0.000000 0.005765
# 5 -0.015795 0.019418 -0.010758 0.000000 0.056188 0.000000
# 6 0.000000 0.000000 0.000000 0.005765 0.000000 0.031039
#
#
# Mechanical properties :
#
#
# Convention : Reuss Voigt Hill
#
# Bulk Modulus (GPa) = 67.17024 74.30763 70.73894
# Shear Modulus (GPa) = 18.49915 25.44187 21.97051
#
# Velocity S-wave (km/s) = 3.14818 3.69197 3.43086
# Velocity P-wave (km/s) = 7.01438 7.61478 7.32073
#
# Compressibility (1/GPa) = 0.01488754
#
# Stress axis : x y z
#
# Youngs Moduli (GPa) = 51.44650 37.83673 64.37518
#
# Poissons Ratio (x) = 0.60775 -0.15205
# Poissons Ratio (y) = 0.82636 0.61518
# Poissons Ratio (z) = -0.12151 0.36157
#
# Static dielectric constant tensor:
#      x y z
#    x 1.686970 0.000000 -0.018160 
#    y 0.000000 1.641370 0.000000 
#    z -0.018160 0.000000 1.663400 
# 
# From -- ./inp_files/151739.got.cif
#   From: 2010.05.17/outbox.cif.g08.bks.cpg/sg15_76_cif.got.tgz:151739.got - 2010.06.03 18:47:42.
