data_PCOD9280651
_publ_section_title
;
Structure prediction by ZEFSAII (Michael W. Deem and Ramdas Pophale) SiO2 
 PCOD9280651
Probable space group: C 2/C
;
_chemical_formula_sum "Si O2"
_cell_formula_units_Z 40
_cell_length_a 7.012888
_cell_length_b 12.095429
_cell_length_c 17.401573
_cell_angle_alpha 90.000000
_cell_angle_beta 90.971762
_cell_angle_gamma 90.000000
_cell_volume 1475.856799
_symmetry_space_group_name_H-M "C 2/C"
_symmetry_group_IT_number 15
_symmetry_cell_setting 'monoclinic'
loop_
_space_group_symop_operation_xyz
x,y,z
-x,y,1/2-z
-x,-y,-z
x,-y,1/2+z
1/2+x,1/2+y,z
1/2-x,1/2+y,1/2-z
1/2-x,1/2-y,-z
1/2+x,1/2-y,1/2+z
loop_
_atom_site_type_symbol
_atom_site_label
_atom_site_fract_x
_atom_site_fract_y
_atom_site_fract_z
Si Si1 0.696897 0.207076 0.893929
Si Si2 0.000000 0.500000 0.500000
Si Si3 0.887264 0.295788 0.606243
Si Si4 0.000000 0.445510 0.750000
Si Si5 0.832156 0.923630 0.523220
Si Si6 0.273814 0.358536 0.227585
O O1 0.671128 0.100169 0.950693
O O2 0.680095 0.196716 0.803655
O O3 0.924368 0.222977 0.912321
O O4 0.607973 0.315699 0.930364
O O5 0.135489 0.617649 0.462368
O O6 0.165473 0.482976 0.567693
O O7 0.745963 0.207800 0.647530
O O8 0.936017 0.368235 0.680970
O O9 0.177428 0.522880 0.730328
O O10 0.000000 0.000000 0.500000
O O11 0.500000 0.366522 0.250000
#
# Coordination Sequence:
#
# PCOD9280651 Si02
#       6
#     8   4   8   4   8   8
#     4   9  19  40  58  85 128 158 201 268 305 366
#     4  10  22  38  62  90 124 162 208 260 316 372
#     4  10  21  42  61  92 131 160 216 272 306 389
#     4  12  22  40  68  90 124 174 210 260 332 376
#     4  10  21  37  62  87 121 166 203 249 319 375
#     4  10  22  41  61  89 126 164 210 267 315 374
#
# _framework density 27.102902
#
# number of rings (size 3 to 8) (size 9 to 14) (size 15 to 20)
#    0.000    2.000    3.000    1.200    0.000    8.000 
#    1.800   10.000    0.000    0.000    0.000    0.000 
#    0.000    0.000    0.000    0.000    0.000    0.000 
#
# Total GULP energy -111360.091427 kJ/mol
# GULP energy per Si atom -5568.004571 kJ/mol
# Density = 2.704121 g / cm^3
# Si number density = 27.102902 Si / 1000 Ang^3
#
#
#
# Elastic Constant Matrix: (Units=GPa)
#
#
# Indices 1 2 3 4 5 6 
#
# 1 109.1418 40.1917 10.9536 0.0000 -21.3698 0.0000
# 2 40.1917 148.3252 49.1280 0.0000 -14.5442 0.0000
# 3 10.9536 49.1280 152.7293 0.0000 -16.7544 0.0000
# 4 0.0000 0.0000 0.0000 47.0793 0.0000 0.9199
# 5 -21.3698 -14.5442 -16.7544 0.0000 38.8298 0.0000
# 6 0.0000 0.0000 0.0000 0.9199 0.0000 52.9673
#
#
#
# Elastic Compliance Matrix: (Units=1/GPa)
#
#
# Indices 1 2 3 4 5 6 
#
# 1 0.011154 -0.002712 0.000666 0.000000 0.005410 0.000000
# 2 -0.002712 0.008337 -0.002423 0.000000 0.000584 0.000000
# 3 0.000666 -0.002423 0.007579 0.000000 0.002729 0.000000
# 4 0.000000 0.000000 0.000000 0.021248 0.000000 -0.000369
# 5 0.005410 0.000584 0.002729 0.000000 0.030127 0.000000
# 6 0.000000 0.000000 0.000000 -0.000369 0.000000 0.018886
#
#
# Mechanical properties :
#
#
# Convention : Reuss Voigt Hill
#
# Bulk Modulus (GPa) = 55.15699 67.86033 61.50866
# Shear Modulus (GPa) = 44.51876 48.43683 46.47779
#
# Velocity S-wave (km/s) = 4.05728 4.23205 4.14558
# Velocity P-wave (km/s) = 6.50721 6.99805 6.75709
#
# Compressibility (1/GPa) = 0.01813007
#
# Stress axis : x y z
#
# Youngs Moduli (GPa) = 89.65684 119.95026 131.95141
#
# Poissons Ratio (x) = 0.32536 -0.08788
# Poissons Ratio (y) = 0.24319 0.31972
# Poissons Ratio (z) = -0.05971 0.29064
#
# Static dielectric constant tensor:
#      x y z
#    x 2.391730 0.000000 -0.106980 
#    y 0.000000 2.467660 0.000000 
#    z -0.106980 0.000000 2.156530 
# 
# From -- ./inp_files/229815.got.cif
#   From: 2010.05.17/outbox.cif.g08.bks.cpg/sg15_115_cif.got.tgz:229815.got - 2010.06.03 18:47:42.
