data_PCOD9280216
_publ_section_title
;
Structure prediction by ZEFSAII (Michael W. Deem and Ramdas Pophale) SiO2 
 PCOD9280216
Probable space group: C 2/C
;
_chemical_formula_sum "Si O2"
_cell_formula_units_Z 64
_cell_length_a 25.612441
_cell_length_b 17.383290
_cell_length_c 20.368855
_cell_angle_alpha 90.000000
_cell_angle_beta 18.789599
_cell_angle_gamma 90.000000
_cell_volume 2921.002887
_symmetry_space_group_name_H-M "C 2/C"
_symmetry_group_IT_number 15
_symmetry_cell_setting 'monoclinic'
loop_
_space_group_symop_operation_xyz
x,y,z
-x,y,1/2-z
-x,-y,-z
x,-y,1/2+z
1/2+x,1/2+y,z
1/2-x,1/2+y,1/2-z
1/2-x,1/2-y,-z
1/2+x,1/2-y,1/2+z
loop_
_atom_site_type_symbol
_atom_site_label
_atom_site_fract_x
_atom_site_fract_y
_atom_site_fract_z
Si Si1 0.640196 0.078001 0.746930
Si Si2 0.286393 0.644586 0.685556
Si Si3 0.668855 0.451811 0.051478
Si Si4 0.656677 0.354779 0.938544
Si Si5 0.309351 0.021239 0.998373
Si Si6 0.473331 0.745687 0.560128
Si Si7 0.204974 0.475641 0.827942
Si Si8 0.845232 0.673088 0.890806
O O1 0.793954 0.109278 0.603965
O O2 0.596011 0.144556 0.749447
O O3 0.691351 0.000858 0.649200
O O4 0.473447 0.054876 0.979915
O O5 0.430963 0.687582 0.550551
O O6 0.233962 0.566569 0.785126
O O7 0.135114 0.703502 0.859263
O O8 0.500000 0.496469 0.250000
O O9 0.636221 0.383695 0.037877
O O10 0.721601 0.450467 0.065185
O O11 0.818478 0.301795 0.747854
O O12 0.682557 0.425325 0.855295
O O13 0.512099 0.304090 0.079282
O O14 0.500000 0.015739 0.750000
O O15 0.251333 0.100683 0.033866
O O16 0.283720 0.032527 0.106341
O O17 0.000000 0.686967 0.750000
O O18 0.750000 0.750000 0.000000
#
# Coordination Sequence:
#
# PCOD9280216 Si02
#       8
#     8   8   8   8   8   8   8   8
#     4  11  21  40  66  98 128 178 226 269 339 398
#     4  11  23  40  70  99 133 177 219 281 343 401
#     4  11  24  42  67  98 136 170 227 291 325 389
#     4  11  24  46  70 101 137 179 231 286 344 410
#     4  10  22  41  63  97 131 174 226 276 328 405
#     4  10  25  42  63 103 145 167 219 290 350 408
#     4  12  21  41  78  97 128 179 240 275 334 418
#     4  10  21  37  56  84 133 171 210 251 325 409
#
# _framework density 21.910283
#
# number of rings (size 3 to 8) (size 9 to 14) (size 15 to 20)
#    0.000    1.250    6.250    1.125    1.750    6.500 
#    0.000    0.625    0.000    0.000    0.000    0.000 
#    0.000    0.000    0.000    0.000    0.000    0.000 
#
# Total GULP energy -178281.148101 kJ/mol
# GULP energy per Si atom -5571.285878 kJ/mol
# Density = 2.186041 g / cm^3
# Si number density = 21.910283 Si / 1000 Ang^3
#
#
#
# Elastic Constant Matrix: (Units=GPa)
#
#
# Indices 1 2 3 4 5 6 
#
# 1 148.6487 46.7404 17.1723 0.0026 3.4942 -0.0017
# 2 46.7404 99.5564 14.3573 -0.0050 0.2882 -0.0055
# 3 17.1723 14.3573 28.5396 -0.0120 -0.5926 -0.0128
# 4 0.0026 -0.0050 -0.0120 1.6715 0.0048 -19.7291
# 5 3.4942 0.2882 -0.5926 0.0048 32.1693 0.0040
# 6 -0.0017 -0.0055 -0.0128 -19.7291 0.0040 9.6736
#
#
#
# Elastic Compliance Matrix: (Units=1/GPa)
#
#
# Indices 1 2 3 4 5 6 
#
# 1 0.008184 -0.003371 -0.003247 0.000004 -0.000919 0.000004
# 2 -0.003371 0.012220 -0.004115 -0.000001 0.000181 -0.000001
# 3 -0.003247 -0.004115 0.039086 -0.000036 0.001110 -0.000026
# 4 0.000004 -0.000001 -0.000036 -0.025930 0.000009 -0.052883
# 5 -0.000919 0.000181 0.001110 0.000009 0.031204 0.000008
# 6 0.000004 -0.000001 -0.000026 -0.052883 0.000008 -0.004480
#
#
# Mechanical properties :
#
#
# Convention : Reuss Voigt Hill
#
# Bulk Modulus (GPa) = 26.30021 48.14274 37.22147
# Shear Modulus (GPa) = 52.95101 21.93453 37.44277
#
# Velocity S-wave (km/s) = 4.92135 3.16746 4.13839
# Velocity P-wave (km/s) = 6.65752 5.94957 6.31348
#
# Compressibility (1/GPa) = 0.03802251
#
# Stress axis : x y z
#
# Youngs Moduli (GPa) = 122.18831 81.83096 25.58442
#
# Poissons Ratio (x) = 0.27588 0.08308
# Poissons Ratio (y) = 0.41194 0.10529
# Poissons Ratio (z) = 0.39680 0.33676
#
# Static dielectric constant tensor:
#      x y z
#    x 1.918530 -0.000080 0.056830 
#    y -0.000080 1.665400 0.000020 
#    z 0.056830 0.000020 1.845480 
# 
# From -- ./inp_files/258042.got.cif
#   From: 2010.05.17/outbox.cif.g08.bks.cpg/sg15_130_cif.got.tgz:258042.got - 2010.06.03 18:47:42.
