data_PCOD9280231
_publ_section_title
;
Structure prediction by ZEFSAII (Michael W. Deem and Ramdas Pophale) SiO2 
 PCOD9280231
Probable space group: C 2/C
;
_chemical_formula_sum "Si O2"
_cell_formula_units_Z 40
_cell_length_a 12.665098
_cell_length_b 13.848676
_cell_length_c 10.131985
_cell_angle_alpha 90.000000
_cell_angle_beta 73.079427
_cell_angle_gamma 90.000000
_cell_volume 1700.165781
_symmetry_space_group_name_H-M "C 2/C"
_symmetry_group_IT_number 15
_symmetry_cell_setting 'monoclinic'
loop_
_space_group_symop_operation_xyz
x,y,z
-x,y,1/2-z
-x,-y,-z
x,-y,1/2+z
1/2+x,1/2+y,z
1/2-x,1/2+y,1/2-z
1/2-x,1/2-y,-z
1/2+x,1/2-y,1/2+z
loop_
_atom_site_type_symbol
_atom_site_label
_atom_site_fract_x
_atom_site_fract_y
_atom_site_fract_z
Si Si1 0.684371 0.916028 0.330751
Si Si2 0.644799 0.673003 0.928110
Si Si3 0.000000 0.189484 0.750000
Si Si4 0.821752 0.346485 0.890566
Si Si5 0.500000 0.009025 0.750000
Si Si6 0.764373 0.131129 0.341324
O O1 0.748655 0.877526 0.178992
O O2 0.707147 0.849093 0.446837
O O3 0.555929 0.926126 0.341599
O O4 0.725275 0.021258 0.361511
O O5 0.546771 0.640690 0.865778
O O6 0.670469 0.788471 0.911752
O O7 0.641985 0.646406 0.083088
O O8 0.901432 0.258211 0.831050
O O9 0.722999 0.352033 0.820246
O O10 0.901240 0.440145 0.835723
#
# Coordination Sequence:
#
# PCOD9280231 Si02
#       6
#     8   8   4   8   4   8
#     4  11  20  33  58  86 108 138 181 225 268 324
#     4  10  21  37  57  77 110 148 178 218 269 321
#     4   9  20  36  52  75 110 152 186 215 264 317
#     4   9  18  33  56  80 108 136 173 228 279 320
#     4   9  18  30  52  85 112 130 160 221 292 331
#     4   9  19  35  54  80 109 140 174 217 276 326
#
# _framework density 23.527115999999999
#
# number of rings (size 3 to 8) (size 9 to 14) (size 15 to 20)
#    0.000    2.400    0.000    4.200    0.000    9.600 
#    0.000    1.000    0.000    9.600    0.000    0.000 
#    0.000    0.000    0.000    0.000    0.000    0.000 
#
# Total GULP energy -111598.206124 kJ/mol
# GULP energy per Si atom -5579.910306 kJ/mol
# Density = 2.347357 g / cm^3
# Si number density = 23.527116 Si / 1000 Ang^3
#
#
#
# Elastic Constant Matrix: (Units=GPa)
#
#
# Indices 1 2 3 4 5 6 
#
# 1 76.6163 20.3291 55.5605 0.0000 44.0838 0.0000
# 2 20.3291 61.9981 31.9722 0.0000 -5.4621 0.0000
# 3 55.5605 31.9722 137.6770 0.0000 50.5966 0.0000
# 4 0.0000 0.0000 0.0000 28.5369 0.0000 7.9489
# 5 44.0838 -5.4621 50.5966 0.0000 55.2495 0.0000
# 6 0.0000 0.0000 0.0000 7.9489 0.0000 21.9699
#
#
#
# Elastic Compliance Matrix: (Units=1/GPa)
#
#
# Indices 1 2 3 4 5 6 
#
# 1 0.031723 -0.012650 -0.000155 0.000000 -0.026421 0.000000
# 2 -0.012650 0.026554 -0.008645 0.000000 0.020635 0.000000
# 3 -0.000155 -0.008645 0.014473 0.000000 -0.013986 0.000000
# 4 0.000000 0.000000 0.000000 0.038970 0.000000 -0.014100
# 5 -0.026421 0.020635 -0.013986 0.000000 0.054029 0.000000
# 6 0.000000 0.000000 0.000000 -0.014100 0.000000 0.050618
#
#
# Mechanical properties :
#
#
# Convention : Reuss Voigt Hill
#
# Bulk Modulus (GPa) = 33.50050 54.66833 44.08441
# Shear Modulus (GPa) = 18.57253 32.37992 25.47623
#
# Velocity S-wave (km/s) = 2.81269 3.71385 3.29423
# Velocity P-wave (km/s) = 4.98180 6.45577 5.76608
#
# Compressibility (1/GPa) = 0.02985030
#
# Stress axis : x y z
#
# Youngs Moduli (GPa) = 31.52329 37.65971 69.09359
#
# Poissons Ratio (x) = 0.47638 0.01069
# Poissons Ratio (y) = 0.39876 0.59732
# Poissons Ratio (z) = 0.00488 0.32557
#
# Static dielectric constant tensor:
#      x y z
#    x 1.894580 0.000000 0.057640 
#    y 0.000000 1.936880 0.000000 
#    z 0.057640 0.000000 1.967980 
# 
# From -- ./inp_files/37992.got.cif
#   From: 2010.05.17/outbox.cif.g08.bks.cpg/sg15_19_cif.got.tgz:37992.got - 2010.06.03 18:47:42.
