data_PCOD9280978
_publ_section_title
;
Structure prediction by ZEFSAII (Michael W. Deem and Ramdas Pophale) SiO2 
 PCOD9280978
Probable space group: C 2/C
;
_chemical_formula_sum "Si O2"
_cell_formula_units_Z 64
_cell_length_a 16.732069
_cell_length_b 24.087125
_cell_length_c 16.229921
_cell_angle_alpha 90.000000
_cell_angle_beta 32.138926
_cell_angle_gamma 90.000000
_cell_volume 3479.696850
_symmetry_space_group_name_H-M "C 2/C"
_symmetry_group_IT_number 15
_symmetry_cell_setting 'monoclinic'
loop_
_space_group_symop_operation_xyz
x,y,z
-x,y,1/2-z
-x,-y,-z
x,-y,1/2+z
1/2+x,1/2+y,z
1/2-x,1/2+y,1/2-z
1/2-x,1/2-y,-z
1/2+x,1/2-y,1/2+z
loop_
_atom_site_type_symbol
_atom_site_label
_atom_site_fract_x
_atom_site_fract_y
_atom_site_fract_z
Si Si1 0.328874 0.038129 0.276392
Si Si2 0.744992 0.181775 0.581532
Si Si3 0.885701 0.926353 0.918976
Si Si4 0.040607 0.386091 0.978220
Si Si5 0.417956 0.206468 0.943002
Si Si6 0.630265 0.978877 0.030984
Si Si7 0.260716 0.443713 0.275054
Si Si8 0.460914 0.453981 0.379717
O O1 0.209176 0.059081 0.446704
O O2 0.475623 0.009633 0.186431
O O3 0.257343 0.988732 0.282253
O O4 0.382195 0.086969 0.168875
O O5 0.820261 0.122215 0.532367
O O6 0.589459 0.196286 0.763477
O O7 0.692656 0.181445 0.530974
O O8 0.866366 0.229886 0.490720
O O9 0.000000 0.902701 0.750000
O O10 0.973569 0.978702 0.880168
O O11 0.742803 0.955689 0.000595
O O12 0.093097 0.325887 0.961292
O O13 0.085382 0.426397 0.014477
O O14 0.861355 0.395160 0.127441
O O15 0.712489 0.022163 0.899122
O O16 0.428387 0.426275 0.150892
O O17 0.500000 0.442210 0.250000
#
# Coordination Sequence:
#
# PCOD9280978 Si02
#       8
#     8   8   8   8   8   8   8   8
#     4   9  20  31  53  72 100 143 195 232 258 338
#     4  10  23  34  53  73 105 138 199 233 279 310
#     4  11  21  31  51  75 111 151 187 226 275 321
#     4   9  18  34  55  66  99 139 196 234 276 320
#     4  10  21  38  51  74 101 146 187 251 271 312
#     4   9  16  33  46  71  96 137 191 226 262 319
#     4   9  17  34  46  72 101 138 189 232 264 330
#     4  11  21  33  47  76 116 145 181 227 276 329
#
# _framework density 18.392406000000001
#
# number of rings (size 3 to 8) (size 9 to 14) (size 15 to 20)
#    0.000    2.250    3.750    1.875    7.000    0.500 
#    0.000    0.000    0.000    0.000    0.000    0.000 
#    0.000    0.000    0.000   11.250    0.000    0.125 
#
# Total GULP energy -178466.618355 kJ/mol
# GULP energy per Si atom -5577.081824 kJ/mol
# Density = 1.835054 g / cm^3
# Si number density = 18.392406 Si / 1000 Ang^3
#
#
#
# Elastic Constant Matrix: (Units=GPa)
#
#
# Indices 1 2 3 4 5 6 
#
# 1 72.2909 29.2272 35.7144 -0.0127 -7.8977 -0.0005
# 2 29.2272 63.7955 21.7033 -0.0110 -1.6145 0.0019
# 3 35.7144 21.7033 123.1021 -0.0339 -3.2815 0.0117
# 4 -0.0127 -0.0110 -0.0339 17.1375 0.0120 -2.7812
# 5 -7.8977 -1.6145 -3.2815 0.0120 29.6845 -0.0012
# 6 -0.0005 0.0019 0.0117 -2.7812 -0.0012 25.8777
#
#
#
# Elastic Compliance Matrix: (Units=1/GPa)
#
#
# Indices 1 2 3 4 5 6 
#
# 1 0.019338 -0.007320 -0.004206 -0.000001 0.004282 0.000003
# 2 -0.007320 0.019456 -0.001334 0.000005 -0.001037 0.000000
# 3 -0.004206 -0.001334 0.009575 0.000015 -0.000133 -0.000003
# 4 -0.000001 0.000005 0.000015 0.059388 -0.000022 0.006383
# 5 0.004282 -0.001037 -0.000133 -0.000022 0.034756 -0.000001
# 6 0.000003 0.000000 -0.000003 0.006383 -0.000001 0.039329
#
#
# Mechanical properties :
#
#
# Convention : Reuss Voigt Hill
#
# Bulk Modulus (GPa) = 44.15108 48.05313 46.10210
# Shear Modulus (GPa) = 23.24365 26.04284 24.64325
#
# Velocity S-wave (km/s) = 3.55880 3.76700 3.66438
# Velocity P-wave (km/s) = 6.39874 6.71593 6.55926
#
# Compressibility (1/GPa) = 0.02264950
#
# Stress axis : x y z
#
# Youngs Moduli (GPa) = 51.71114 51.39678 104.43714
#
# Poissons Ratio (x) = 0.37625 0.43923
# Poissons Ratio (y) = 0.37855 0.13933
# Poissons Ratio (z) = 0.21748 0.06857
#
# Static dielectric constant tensor:
#      x y z
#    x 1.667700 0.000000 -0.004770 
#    y 0.000000 1.617660 0.000010 
#    z -0.004770 0.000010 1.732290 
# 
# From -- ./inp_files/212146.got.cif
#   From: 2010.05.17/outbox.cif.g08.bks.cpg/sg15_107_cif.got.tgz:212146.got - 2010.06.03 18:47:42.
