data_PCOD9280852
_publ_section_title
;
Structure prediction by ZEFSAII (Michael W. Deem and Ramdas Pophale) SiO2 
 PCOD9280852
Probable space group: C 2/C
;
_chemical_formula_sum "Si O2"
_cell_formula_units_Z 60
_cell_length_a 13.646918
_cell_length_b 20.457030
_cell_length_c 26.181774
_cell_angle_alpha 90.000000
_cell_angle_beta 159.147721
_cell_angle_gamma 90.000000
_cell_volume 2601.819550
_symmetry_space_group_name_H-M "C 2/C"
_symmetry_group_IT_number 15
_symmetry_cell_setting 'monoclinic'
loop_
_space_group_symop_operation_xyz
x,y,z
-x,y,1/2-z
-x,-y,-z
x,-y,1/2+z
1/2+x,1/2+y,z
1/2-x,1/2+y,1/2-z
1/2-x,1/2-y,-z
1/2+x,1/2-y,1/2+z
loop_
_atom_site_type_symbol
_atom_site_label
_atom_site_fract_x
_atom_site_fract_y
_atom_site_fract_z
Si Si1 0.000000 0.888773 0.750000
Si Si2 0.934308 0.931463 0.606696
Si Si3 0.620942 0.638445 0.858834
Si Si4 0.521027 0.676812 0.078674
Si Si5 0.590728 0.228457 0.060791
Si Si6 0.801595 0.938177 0.911907
Si Si7 0.912643 0.556096 0.085543
Si Si8 0.073931 0.232373 0.662352
O O1 0.933041 0.928748 0.666963
O O2 0.244728 0.838599 0.858507
O O3 0.860976 0.862718 0.544382
O O4 0.256078 0.944981 0.748258
O O5 0.720674 0.984786 0.483616
O O6 0.500000 0.603832 0.750000
O O7 0.401663 0.666697 0.792568
O O8 0.824237 0.595236 0.991965
O O9 0.777790 0.702508 0.913031
O O10 0.615612 0.622750 0.083173
O O11 0.769872 0.711287 0.230233
O O12 0.368853 0.731174 0.970997
O O13 0.668846 0.268121 0.149880
O O14 0.500000 0.962772 0.750000
O O15 0.749047 0.914500 0.944340
O O16 0.000000 0.000000 0.000000
O O17 0.750000 0.250000 0.500000
#
# Coordination Sequence:
#
# PCOD9280852 Si02
#       8
#     4   8   8   8   8   8   8   8
#     4  12  26  50  66 100 142 196 236 294 364 430
#     4  12  27  47  76  97 149 190 248 297 359 425
#     4  11  22  39  69 106 137 174 242 297 351 424
#     4  12  23  44  72 107 140 189 227 299 368 425
#     4  11  24  42  68 100 142 181 230 296 362 429
#     4  12  25  44  75 103 142 188 237 299 357 430
#     4  12  25  48  69 109 139 192 240 299 356 428
#     4  10  21  37  65 101 136 172 227 290 352 415
#
# _framework density 23.060784000000002
#
# number of rings (size 3 to 8) (size 9 to 14) (size 15 to 20)
#    0.000    0.533    6.667    1.600    4.667    2.133 
#    1.200    0.000    0.000    0.000    0.000    0.000 
#    0.000    0.000    0.000    0.000    0.000    0.000 
#
# Total GULP energy -167705.378126 kJ/mol
# GULP energy per Si atom -5590.179271 kJ/mol
# Density = 2.300830 g / cm^3
# Si number density = 23.060784 Si / 1000 Ang^3
#
#
#
# Elastic Constant Matrix: (Units=GPa)
#
#
# Indices 1 2 3 4 5 6 
#
# 1 79.4984 -19.0553 10.6718 0.0126 -27.1133 0.0303
# 2 -19.0553 35.8524 4.3147 0.0144 -2.5110 0.0324
# 3 10.6718 4.3147 50.8787 -0.0098 -17.8620 0.0575
# 4 0.0126 0.0144 -0.0098 37.1847 0.0118 -14.5789
# 5 -27.1133 -2.5110 -17.8620 0.0118 39.7133 -0.0149
# 6 0.0303 0.0324 0.0575 -14.5789 -0.0149 26.1100
#
#
#
# Elastic Compliance Matrix: (Units=1/GPa)
#
#
# Indices 1 2 3 4 5 6 
#
# 1 0.020450 0.011914 -0.000159 -0.000036 0.014644 -0.000050
# 2 0.011914 0.035144 -0.002189 -0.000051 0.009371 -0.000076
# 3 -0.000159 -0.002189 0.023497 -0.000017 0.010322 -0.000052
# 4 -0.000036 -0.000051 -0.000017 0.034430 -0.000038 0.019225
# 5 0.014644 0.009371 0.010322 -0.000038 0.040413 -0.000050
# 6 -0.000050 -0.000076 -0.000052 0.019225 -0.000050 0.049034
#
#
# Mechanical properties :
#
#
# Convention : Reuss Voigt Hill
#
# Bulk Modulus (GPa) = 10.18083 17.56576 13.87329
# Shear Modulus (GPa) = 23.08634 31.95483 27.52058
#
# Velocity S-wave (km/s) = 3.16746 3.72651 3.45830
# Velocity P-wave (km/s) = 4.21918 5.11366 4.68780
#
# Compressibility (1/GPa) = 0.09822383
#
# Stress axis : x y z
#
# Youngs Moduli (GPa) = 48.89909 28.45421 42.55822
#
# Poissons Ratio (x) = -0.33900 0.00675
# Poissons Ratio (y) = -0.58258 0.09317
# Poissons Ratio (z) = 0.00776 0.06229
#
# Static dielectric constant tensor:
#      x y z
#    x 1.966140 -0.000020 -0.002890 
#    y -0.000020 1.852790 -0.000020 
#    z -0.002890 -0.000020 2.013090 
# 
# From -- ./inp_files/297035.got.cif
#   From: 2010.05.17/outbox.cif.g08.bks.cpg/sg15_149_cif.got.tgz:297035.got - 2010.06.03 18:47:42.
