data_PCOD9280164
_publ_section_title
;
Structure prediction by ZEFSAII (Michael W. Deem and Ramdas Pophale) SiO2 
 PCOD9280164
Probable space group: C 2/C
;
_chemical_formula_sum "Si O2"
_cell_formula_units_Z 56
_cell_length_a 21.376120
_cell_length_b 22.490716
_cell_length_c 8.663333
_cell_angle_alpha 90.000000
_cell_angle_beta 51.138194
_cell_angle_gamma 90.000000
_cell_volume 3243.141642
_symmetry_space_group_name_H-M "C 2/C"
_symmetry_group_IT_number 15
_symmetry_cell_setting 'monoclinic'
loop_
_space_group_symop_operation_xyz
x,y,z
-x,y,1/2-z
-x,-y,-z
x,-y,1/2+z
1/2+x,1/2+y,z
1/2-x,1/2+y,1/2-z
1/2-x,1/2-y,-z
1/2+x,1/2-y,1/2+z
loop_
_atom_site_type_symbol
_atom_site_label
_atom_site_fract_x
_atom_site_fract_y
_atom_site_fract_z
Si Si1 0.963411 0.345158 0.140297
Si Si2 0.420309 0.748121 0.946782
Si Si3 0.296106 0.084278 0.928690
Si Si4 0.336937 0.016867 0.593529
Si Si5 0.737420 0.298241 0.653036
Si Si6 0.893006 0.416963 0.736606
Si Si7 0.815287 0.701116 0.342293
O O1 0.886013 0.387049 0.290087
O O2 0.000000 0.326335 0.250000
O O3 0.939767 0.292169 0.059860
O O4 0.031827 0.382348 0.947224
O O5 0.500000 0.718400 0.750000
O O6 0.386955 0.783894 0.849399
O O7 0.346159 0.709675 0.125982
O O8 0.282047 0.060796 0.778266
O O9 0.241248 0.137264 0.071459
O O10 0.292612 0.027719 0.046207
O O11 0.397333 0.057050 0.401076
O O12 0.379970 0.973382 0.646777
O O13 0.750000 0.250000 0.500000
O O14 0.809584 0.290697 0.666441
O O15 0.816645 0.371139 0.851956
O O16 0.750000 0.750000 0.500000
#
# Coordination Sequence:
#
# PCOD9280164 Si02
#       7
#     8   8   8   8   8   8   8
#     4  12  22  34  54  78 117 157 194 235 274 327
#     4  11  23  36  58  84 112 153 190 240 298 342
#     4  11  22  38  52  82 111 151 195 237 279 339
#     4  10  23  35  54  76 116 159 198 231 274 337
#     4  11  22  38  60  84 111 149 195 248 293 342
#     4  11  21  37  51  79 117 155 200 233 276 337
#     4  10  21  37  55  79 109 148 191 241 293 338
#
# _framework density 17.267208
#
# number of rings (size 3 to 8) (size 9 to 14) (size 15 to 20)
#    0.000    1.143    5.714    0.857    2.000    3.429 
#    0.000    0.000    0.000    0.000    0.000    1.000 
#    0.000    0.000    0.000    0.000    0.000    0.000 
#
# Total GULP energy -155897.914402 kJ/mol
# GULP energy per Si atom -5567.782657 kJ/mol
# Density = 1.722791 g / cm^3
# Si number density = 17.267208 Si / 1000 Ang^3
#
#
#
# Elastic Constant Matrix: (Units=GPa)
#
#
# Indices 1 2 3 4 5 6 
#
# 1 63.5288 33.6521 40.6970 0.0000 21.5480 0.0000
# 2 33.6521 80.7884 59.4461 0.0000 6.0279 0.0000
# 3 40.6970 59.4461 118.9313 0.0000 12.0065 0.0000
# 4 0.0000 0.0000 0.0000 44.6391 0.0000 8.1657
# 5 21.5480 6.0279 12.0065 0.0000 27.4973 0.0000
# 6 0.0000 0.0000 0.0000 8.1657 0.0000 17.1996
#
#
#
# Elastic Compliance Matrix: (Units=1/GPa)
#
#
# Indices 1 2 3 4 5 6 
#
# 1 0.028925 -0.007528 -0.004198 0.000000 -0.019183 0.000000
# 2 -0.007528 0.021538 -0.008692 0.000000 0.004973 0.000000
# 3 -0.004198 -0.008692 0.014295 0.000000 -0.001046 0.000000
# 4 0.000000 0.000000 0.000000 0.024532 0.000000 -0.011647
# 5 -0.019183 0.004973 -0.001046 0.000000 0.050767 0.000000
# 6 0.000000 0.000000 0.000000 -0.011647 0.000000 0.063670
#
#
# Mechanical properties :
#
#
# Convention : Reuss Voigt Hill
#
# Bulk Modulus (GPa) = 41.80260 58.98210 50.39235
# Shear Modulus (GPa) = 19.79908 26.49741 23.14825
#
# Velocity S-wave (km/s) = 3.38986 3.92158 3.66538
# Velocity P-wave (km/s) = 6.29153 7.39849 6.86735
#
# Compressibility (1/GPa) = 0.02392196
#
# Stress axis : x y z
#
# Youngs Moduli (GPa) = 34.57260 46.42919 69.95515
#
# Poissons Ratio (x) = 0.34951 0.29370
# Poissons Ratio (y) = 0.26026 0.60802
# Poissons Ratio (z) = 0.14515 0.40354
#
# Static dielectric constant tensor:
#      x y z
#    x 1.628670 0.000000 0.011710 
#    y 0.000000 1.596130 0.000000 
#    z 0.011710 0.000000 1.627420 
# 
# From -- ./inp_files/57769.got.cif
#   From: 2010.05.17/outbox.cif.g08.bks.cpg/sg15_29_cif.got.tgz:57769.got - 2010.06.03 18:47:42.
