data_PCOD9280702
_publ_section_title
;
Structure prediction by ZEFSAII (Michael W. Deem and Ramdas Pophale) SiO2 
 PCOD9280702
Probable space group: C 2/C
;
_chemical_formula_sum "Si O2"
_cell_formula_units_Z 48
_cell_length_a 14.141300
_cell_length_b 19.195203
_cell_length_c 11.886217
_cell_angle_alpha 90.000000
_cell_angle_beta 139.701220
_cell_angle_gamma 90.000000
_cell_volume 2086.786142
_symmetry_space_group_name_H-M "C 2/C"
_symmetry_group_IT_number 15
_symmetry_cell_setting 'monoclinic'
loop_
_space_group_symop_operation_xyz
x,y,z
-x,y,1/2-z
-x,-y,-z
x,-y,1/2+z
1/2+x,1/2+y,z
1/2-x,1/2+y,1/2-z
1/2-x,1/2-y,-z
1/2+x,1/2-y,1/2+z
loop_
_atom_site_type_symbol
_atom_site_label
_atom_site_fract_x
_atom_site_fract_y
_atom_site_fract_z
Si Si1 0.756979 0.737075 0.826064
Si Si2 0.387718 0.307940 0.746435
Si Si3 0.337885 0.143793 0.104944
Si Si4 0.608442 0.388698 0.081078
Si Si5 0.652729 0.478186 0.335406
Si Si6 0.670928 0.104473 0.925141
O O1 0.858954 0.749332 0.811609
O O2 0.698180 0.811173 0.817165
O O3 0.634796 0.682558 0.675313
O O4 0.836730 0.700056 0.002399
O O5 0.500000 0.289138 0.750000
O O6 0.235921 0.330359 0.552600
O O7 0.461505 0.373554 0.878415
O O8 0.500000 0.111958 0.250000
O O9 0.215382 0.086986 0.965141
O O10 0.618440 0.450150 0.179905
O O11 0.738267 0.397799 0.108973
O O12 0.500000 0.502129 0.250000
O O13 0.775697 0.536829 0.457301
O O14 0.500000 0.106413 0.750000
#
# Coordination Sequence:
#
# PCOD9280702 Si02
#       6
#     8   8   8   8   8   8
#     4  10  21  37  63  93 126 160 201 248 299 357
#     4  10  22  40  63  89 121 162 202 244 298 361
#     4  10  21  37  62  95 126 159 200 250 303 355
#     4  10  23  41  62  91 122 158 202 246 297 358
#     4  11  23  41  65  89 120 159 201 250 301 360
#     4  11  26  43  61  89 121 158 204 251 303 358
#
# _framework density 23.001878000000001
#
# number of rings (size 3 to 8) (size 9 to 14) (size 15 to 20)
#    0.000    1.667    0.000    4.000    0.000   16.667 
#    0.000    0.000    0.000    0.000    0.000    0.000 
#    0.000    0.000    0.000    0.000    0.000    0.000 
#
# Total GULP energy -134338.469385 kJ/mol
# GULP energy per Si atom -5597.436224 kJ/mol
# Density = 2.294952 g / cm^3
# Si number density = 23.001878 Si / 1000 Ang^3
#
#
#
# Elastic Constant Matrix: (Units=GPa)
#
#
# Indices 1 2 3 4 5 6 
#
# 1 67.8496 12.9838 55.2708 0.0000 -6.0159 0.0000
# 2 12.9838 70.4748 25.6374 0.0000 -0.9179 0.0000
# 3 55.2708 25.6374 138.1837 0.0000 22.4534 0.0000
# 4 0.0000 0.0000 0.0000 23.6572 0.0000 1.9024
# 5 -6.0159 -0.9179 22.4534 0.0000 46.1665 0.0000
# 6 0.0000 0.0000 0.0000 1.9024 0.0000 29.8779
#
#
#
# Elastic Compliance Matrix: (Units=1/GPa)
#
#
# Indices 1 2 3 4 5 6 
#
# 1 0.024728 -0.000356 -0.011235 0.000000 0.008680 0.000000
# 2 -0.000356 0.015364 -0.002986 0.000000 0.001712 0.000000
# 3 -0.011235 -0.002986 0.013608 0.000000 -0.008142 0.000000
# 4 0.000000 0.000000 0.000000 0.042488 0.000000 -0.002705
# 5 0.008680 0.001712 -0.008142 0.000000 0.026786 0.000000
# 6 0.000000 0.000000 0.000000 -0.002705 0.000000 0.033642
#
#
# Mechanical properties :
#
#
# Convention : Reuss Voigt Hill
#
# Bulk Modulus (GPa) = 40.74090 51.58802 46.16446
# Shear Modulus (GPa) = 25.77967 32.11471 28.94719
#
# Velocity S-wave (km/s) = 3.35141 3.74060 3.55134
# Velocity P-wave (km/s) = 5.72070 6.41347 6.07696
#
# Compressibility (1/GPa) = 0.02454536
#
# Stress axis : x y z
#
# Youngs Moduli (GPa) = 40.43921 65.08877 73.48817
#
# Poissons Ratio (x) = 0.02314 0.82566
# Poissons Ratio (y) = 0.01438 0.21946
# Poissons Ratio (z) = 0.45435 0.19438
#
# Static dielectric constant tensor:
#      x y z
#    x 1.822430 0.000000 -0.021010 
#    y 0.000000 1.897640 0.000000 
#    z -0.021010 0.000000 1.870050 
# 
# From -- ./inp_files/100082.got.cif
#   From: 2010.05.17/outbox.cif.g08.bks.cpg/sg15_51_cif.got.tgz:100082.got - 2010.06.03 18:47:42.
