data_PCOD9280867
_publ_section_title
;
Structure prediction by ZEFSAII (Michael W. Deem and Ramdas Pophale) SiO2 
 PCOD9280867
Probable space group: C 2/C
;
_chemical_formula_sum "Si O2"
_cell_formula_units_Z 48
_cell_length_a 8.140790
_cell_length_b 28.003251
_cell_length_c 10.985000
_cell_angle_alpha 90.000000
_cell_angle_beta 91.359704
_cell_angle_gamma 90.000000
_cell_volume 2503.529786
_symmetry_space_group_name_H-M "C 2/C"
_symmetry_group_IT_number 15
_symmetry_cell_setting 'monoclinic'
loop_
_space_group_symop_operation_xyz
x,y,z
-x,y,1/2-z
-x,-y,-z
x,-y,1/2+z
1/2+x,1/2+y,z
1/2-x,1/2+y,1/2-z
1/2-x,1/2-y,-z
1/2+x,1/2-y,1/2+z
loop_
_atom_site_type_symbol
_atom_site_label
_atom_site_fract_x
_atom_site_fract_y
_atom_site_fract_z
Si Si1 0.234877 0.209844 0.598104
Si Si2 0.309151 0.110458 0.900460
Si Si3 0.500000 0.242253 0.250000
Si Si4 0.314999 0.107599 0.611559
Si Si5 0.500888 0.459951 0.104881
Si Si6 0.262217 0.299353 0.927372
Si Si7 0.500000 0.735677 0.250000
O O1 0.250000 0.250000 0.500000
O O2 0.058909 0.219684 0.650767
O O3 0.274226 0.158132 0.549411
O O4 0.360064 0.227953 0.703649
O O5 0.305655 0.120840 0.755538
O O6 0.499098 0.093116 0.921147
O O7 0.162317 0.072574 0.916918
O O8 0.274510 0.156218 0.985377
O O9 0.371520 0.207260 0.182466
O O10 0.169189 0.070207 0.589188
O O11 0.500000 0.474913 0.250000
O O12 0.500000 0.500000 0.000000
O O13 0.434611 0.297130 0.858476
O O14 0.250000 0.250000 0.000000
#
# Coordination Sequence:
#
# PCOD9280867 Si02
#       7
#     8   8   4   8   8   8   4
#     4  11  21  33  52  82 119 162 201 243 292 356
#     4  10  21  40  63  90 121 162 207 256 314 380
#     4  10  22  32  50  80 126 162 208 244 300 360
#     4  10  21  37  65  92 119 159 213 255 309 381
#     4  10  24  45  69  96 122 159 215 274 331 389
#     4  11  21  36  55  83 127 169 209 258 307 374
#     4  10  22  34  48  82 126 164 208 248 300 358
#
# _framework density 19.172927999999999
#
# number of rings (size 3 to 8) (size 9 to 14) (size 15 to 20)
#    0.000    1.667    0.000    6.000    8.167    0.667 
#    1.500    0.000    0.000    0.000    0.000    0.000 
#    0.000    0.000    0.000    0.000    0.000    0.000 
#
# Total GULP energy -133749.790124 kJ/mol
# GULP energy per Si atom -5572.907922 kJ/mol
# Density = 1.912929 g / cm^3
# Si number density = 19.172928 Si / 1000 Ang^3
#
#
#
# Elastic Constant Matrix: (Units=GPa)
#
#
# Indices 1 2 3 4 5 6 
#
# 1 132.8258 68.9831 44.4131 0.0000 -14.2107 0.0000
# 2 68.9831 103.9188 64.0738 0.0000 6.1956 0.0000
# 3 44.4131 64.0738 81.3832 0.0000 -8.1192 0.0000
# 4 0.0000 0.0000 0.0000 37.6725 0.0000 -1.6331
# 5 -14.2107 6.1956 -8.1192 0.0000 31.9383 0.0000
# 6 0.0000 0.0000 0.0000 -1.6331 0.0000 21.3658
#
#
#
# Elastic Compliance Matrix: (Units=1/GPa)
#
#
# Indices 1 2 3 4 5 6 
#
# 1 0.013207 -0.010365 0.001785 0.000000 0.008341 0.000000
# 2 -0.010365 0.028803 -0.018507 0.000000 -0.014904 0.000000
# 3 0.001785 -0.018507 0.027007 0.000000 0.011250 0.000000
# 4 0.000000 0.000000 0.000000 0.026633 0.000000 0.002036
# 5 0.008341 -0.014904 0.011250 0.000000 0.040773 0.000000
# 6 0.000000 0.000000 0.000000 0.002036 0.000000 0.046959
#
#
# Mechanical properties :
#
#
# Convention : Reuss Voigt Hill
#
# Bulk Modulus (GPa) = 67.37452 74.78532 71.07992
# Shear Modulus (GPa) = 20.61812 27.57249 24.09531
#
# Velocity S-wave (km/s) = 3.28285 3.79634 3.54889
# Velocity P-wave (km/s) = 7.04175 7.63588 7.34482
#
# Compressibility (1/GPa) = 0.01484241
#
# Stress axis : x y z
#
# Youngs Moduli (GPa) = 75.71558 34.71816 37.02770
#
# Poissons Ratio (x) = 0.35986 -0.06610
# Poissons Ratio (y) = 0.78481 0.68529
# Poissons Ratio (z) = -0.13517 0.64255
#
# Static dielectric constant tensor:
#      x y z
#    x 1.871160 0.000000 0.085120 
#    y 0.000000 1.665980 0.000000 
#    z 0.085120 0.000000 1.772070 
# 
# From -- ./inp_files/79424.got.cif
#   From: 2010.05.17/outbox.cif.g08.bks.cpg/sg15_40_cif.got.tgz:79424.got - 2010.06.03 18:47:42.
