data_PCOD9280396
_publ_section_title
;
Structure prediction by ZEFSAII (Michael W. Deem and Ramdas Pophale) SiO2 
 PCOD9280396
Probable space group: C 2/C
;
_chemical_formula_sum "Si O2"
_cell_formula_units_Z 48
_cell_length_a 8.744816
_cell_length_b 11.774214
_cell_length_c 17.323552
_cell_angle_alpha 90.000000
_cell_angle_beta 87.769594
_cell_angle_gamma 90.000000
_cell_volume 1782.339370
_symmetry_space_group_name_H-M "C 2/C"
_symmetry_group_IT_number 15
_symmetry_cell_setting 'monoclinic'
loop_
_space_group_symop_operation_xyz
x,y,z
-x,y,1/2-z
-x,-y,-z
x,-y,1/2+z
1/2+x,1/2+y,z
1/2-x,1/2+y,1/2-z
1/2-x,1/2-y,-z
1/2+x,1/2-y,1/2+z
loop_
_atom_site_type_symbol
_atom_site_label
_atom_site_fract_x
_atom_site_fract_y
_atom_site_fract_z
Si Si1 0.343541 0.875585 0.417139
Si Si2 0.659076 0.567275 0.482771
Si Si3 0.045691 0.199444 0.353282
Si Si4 0.281685 0.489863 0.850755
Si Si5 0.350227 0.726604 0.803092
Si Si6 0.572871 0.189063 0.414594
O O1 0.461325 0.821189 0.354677
O O2 0.419370 0.861798 0.500115
O O3 0.199473 0.789268 0.414366
O O4 0.268821 0.999242 0.420557
O O5 0.500000 0.500000 0.500000
O O6 0.607438 0.678880 0.439292
O O7 0.729445 0.554289 0.565827
O O8 0.193955 0.203817 0.296335
O O9 0.927662 0.095532 0.344690
O O10 0.305882 0.594343 0.793375
O O11 0.134710 0.409145 0.856113
O O12 0.500000 0.747380 0.750000
O O13 0.418679 0.757604 0.886016
#
# Coordination Sequence:
#
# PCOD9280396 Si02
#       6
#     8   8   8   8   8   8
#     4   9  17  34  63  93 116 144 185 237 302 359
#     4   9  16  31  60  92 118 144 177 232 303 356
#     4  10  21  37  59  88 119 150 191 243 295 345
#     4   9  20  39  61  84 114 151 188 235 295 353
#     4  12  26  40  56  82 117 161 206 240 278 336
#     4   9  18  36  61  88 117 146 184 237 294 351
#
# _framework density 26.930897000000002
#
# number of rings (size 3 to 8) (size 9 to 14) (size 15 to 20)
#    0.000    2.333    0.000    6.000    0.000    5.333 
#    0.000    5.833    0.000    0.000    0.000    0.000 
#    0.000    0.000    0.000    0.000    0.000    0.000 
#
# Total GULP energy -134203.137107 kJ/mol
# GULP energy per Si atom -5591.797379 kJ/mol
# Density = 2.686960 g / cm^3
# Si number density = 26.930897 Si / 1000 Ang^3
#
#
#
# Elastic Constant Matrix: (Units=GPa)
#
#
# Indices 1 2 3 4 5 6 
#
# 1 121.1959 60.5554 30.5632 0.0000 -33.7777 0.0000
# 2 60.5554 136.5719 18.4551 0.0000 -9.9829 0.0000
# 3 30.5632 18.4551 59.4270 0.0000 -6.1367 0.0000
# 4 0.0000 0.0000 0.0000 15.0287 0.0000 -10.1147
# 5 -33.7777 -9.9829 -6.1367 0.0000 38.8520 0.0000
# 6 0.0000 0.0000 0.0000 -10.1147 0.0000 47.5522
#
#
#
# Elastic Compliance Matrix: (Units=1/GPa)
#
#
# Indices 1 2 3 4 5 6 
#
# 1 0.015257 -0.005269 -0.005063 0.000000 0.011111 0.000000
# 2 -0.005269 0.009563 -0.000487 0.000000 -0.002200 0.000000
# 3 -0.005063 -0.000487 0.019432 0.000000 -0.001458 0.000000
# 4 0.000000 0.000000 0.000000 0.077657 0.000000 0.016518
# 5 0.011111 -0.002200 -0.001458 0.000000 0.034603 0.000000
# 6 0.000000 0.000000 0.000000 0.016518 0.000000 0.024543
#
#
# Mechanical properties :
#
#
# Convention : Reuss Voigt Hill
#
# Bulk Modulus (GPa) = 44.22016 59.59356 51.90686
# Shear Modulus (GPa) = 23.78335 34.12798 28.95567
#
# Velocity S-wave (km/s) = 2.97497 3.56370 3.28256
# Velocity P-wave (km/s) = 5.31564 6.25377 5.80369
#
# Compressibility (1/GPa) = 0.02261412
#
# Stress axis : x y z
#
# Youngs Moduli (GPa) = 65.54377 104.56706 51.46109
#
# Poissons Ratio (x) = 0.55091 0.26055
# Poissons Ratio (y) = 0.34532 0.02509
# Poissons Ratio (z) = 0.33186 0.05097
#
# Static dielectric constant tensor:
#      x y z
#    x 2.079180 0.000000 -0.019060 
#    y 0.000000 2.093290 0.000000 
#    z -0.019060 0.000000 2.238380 
# 
# From -- ./inp_files/263058.got.cif
#   From: 2010.05.17/outbox.cif.g08.bks.cpg/sg15_132_cif.got.tgz:263058.got - 2010.06.03 18:47:42.
