data_PCOD9280392
_publ_section_title
;
Structure prediction by ZEFSAII (Michael W. Deem and Ramdas Pophale) SiO2 
 PCOD9280392
Probable space group: C 2/C
;
_chemical_formula_sum "Si O2"
_cell_formula_units_Z 56
_cell_length_a 19.227344
_cell_length_b 22.990029
_cell_length_c 16.097012
_cell_angle_alpha 90.000000
_cell_angle_beta 22.506579
_cell_angle_gamma 90.000000
_cell_volume 2723.730389
_symmetry_space_group_name_H-M "C 2/C"
_symmetry_group_IT_number 15
_symmetry_cell_setting 'monoclinic'
loop_
_space_group_symop_operation_xyz
x,y,z
-x,y,1/2-z
-x,-y,-z
x,-y,1/2+z
1/2+x,1/2+y,z
1/2-x,1/2+y,1/2-z
1/2-x,1/2-y,-z
1/2+x,1/2-y,1/2+z
loop_
_atom_site_type_symbol
_atom_site_label
_atom_site_fract_x
_atom_site_fract_y
_atom_site_fract_z
Si Si1 0.630707 0.632463 0.358321
Si Si2 0.611369 0.011567 0.730914
Si Si3 0.399345 0.486213 0.525868
Si Si4 0.760683 0.170269 0.827903
Si Si5 0.715110 0.608537 0.525374
Si Si6 0.356632 0.198824 0.235492
Si Si7 0.730953 0.449588 0.602205
O O1 0.646989 0.580889 0.409174
O O2 0.418994 0.648445 0.592499
O O3 0.753249 0.682532 0.263911
O O4 0.687770 0.606272 0.206606
O O5 0.713884 0.017444 0.704809
O O6 0.675501 0.949019 0.623734
O O7 0.692511 0.057602 0.574915
O O8 0.396336 0.018268 0.967936
O O9 0.500000 0.500000 0.500000
O O10 0.553379 0.509509 0.293507
O O11 0.746896 0.126650 0.921338
O O12 0.830599 0.233147 0.782135
O O13 0.566464 0.180169 0.000711
O O14 0.500000 0.600234 0.750000
O O15 0.773515 0.662353 0.403222
#
# Coordination Sequence:
#
# PCOD9280392 Si02
#       7
#     8   8   8   8   8   8   8
#     4  11  23  40  56  89 124 161 206 260 305 361
#     4  11  22  39  60  91 126 171 208 249 307 372
#     4  10  21  37  59  87 126 162 203 249 302 369
#     4  12  24  40  61  87 121 166 212 250 317 362
#     4  12  22  38  60  88 129 167 205 249 299 373
#     4  12  24  40  61  87 124 162 212 255 301 377
#     4  10  24  37  59  87 124 167 211 254 301 371
#
# _framework density 20.560037000000001
#
# number of rings (size 3 to 8) (size 9 to 14) (size 15 to 20)
#    0.000    0.857    4.286    3.000    6.000    4.571 
#    0.000    0.000    0.000    0.000    0.000    4.000 
#    0.000    0.143    0.000    0.000    0.000    0.000 
#
# Total GULP energy -156395.208846 kJ/mol
# GULP energy per Si atom -5585.543173 kJ/mol
# Density = 2.051324 g / cm^3
# Si number density = 20.560037 Si / 1000 Ang^3
#
#
#
# Elastic Constant Matrix: (Units=GPa)
#
#
# Indices 1 2 3 4 5 6 
#
# 1 74.7009 12.0419 17.6439 -0.0181 -11.1424 -0.0239
# 2 12.0419 54.9952 21.0680 0.0036 10.6640 -0.0036
# 3 17.6439 21.0680 86.8688 -0.0595 -20.9136 -0.0211
# 4 -0.0181 0.0036 -0.0595 34.9894 -0.0040 -0.8620
# 5 -11.1424 10.6640 -20.9136 -0.0040 40.5652 0.0265
# 6 -0.0239 -0.0036 -0.0211 -0.8620 0.0265 23.6382
#
#
#
# Elastic Compliance Matrix: (Units=1/GPa)
#
#
# Indices 1 2 3 4 5 6 
#
# 1 0.014914 -0.003759 -0.001020 0.000007 0.004559 0.000009
# 2 -0.003759 0.024249 -0.007879 -0.000019 -0.011469 0.000005
# 3 -0.001020 -0.007879 0.016053 0.000029 0.010067 0.000002
# 4 0.000007 -0.000019 0.000029 0.028606 0.000024 0.001043
# 5 0.004559 -0.011469 0.010067 0.000024 0.034109 -0.000025
# 6 0.000009 0.000005 0.000002 0.001043 -0.000025 0.042343
#
#
# Mechanical properties :
#
#
# Convention : Reuss Voigt Hill
#
# Bulk Modulus (GPa) = 33.44403 35.34137 34.39270
# Shear Modulus (GPa) = 25.56830 30.89263 28.23046
#
# Velocity S-wave (km/s) = 3.53029 3.88049 3.70952
# Velocity P-wave (km/s) = 5.73751 6.10772 5.92551
#
# Compressibility (1/GPa) = 0.02990070
#
# Stress axis : x y z
#
# Youngs Moduli (GPa) = 67.05326 41.23952 62.29248
#
# Poissons Ratio (x) = 0.15501 0.06354
# Poissons Ratio (y) = 0.25203 0.49078
# Poissons Ratio (z) = 0.06839 0.32491
#
# Static dielectric constant tensor:
#      x y z
#    x 1.788580 -0.000020 0.004800 
#    y -0.000020 1.753700 0.000070 
#    z 0.004800 0.000070 1.770870 
# 
# From -- ./inp_files/216862.got.cif
#   From: 2010.05.17/outbox.cif.g08.bks.cpg/sg15_109_cif.got.tgz:216862.got - 2010.06.03 18:47:42.
