data_PCOD9280100
_publ_section_title
;
Structure prediction by ZEFSAII (Michael W. Deem and Ramdas Pophale) SiO2 
 PCOD9280100
Probable space group: C 2/C
;
_chemical_formula_sum "Si O2"
_cell_formula_units_Z 64
_cell_length_a 10.823689
_cell_length_b 15.616101
_cell_length_c 24.446257
_cell_angle_alpha 90.000000
_cell_angle_beta 44.968316
_cell_angle_gamma 90.000000
_cell_volume 2920.148895
_symmetry_space_group_name_H-M "C 2/C"
_symmetry_group_IT_number 15
_symmetry_cell_setting 'monoclinic'
loop_
_space_group_symop_operation_xyz
x,y,z
-x,y,1/2-z
-x,-y,-z
x,-y,1/2+z
1/2+x,1/2+y,z
1/2-x,1/2+y,1/2-z
1/2-x,1/2-y,-z
1/2+x,1/2-y,1/2+z
loop_
_atom_site_type_symbol
_atom_site_label
_atom_site_fract_x
_atom_site_fract_y
_atom_site_fract_z
Si Si1 0.696474 0.063275 0.975491
Si Si2 0.368140 0.860342 0.640637
Si Si3 0.160651 0.384834 0.044064
Si Si4 0.394212 0.474930 0.833732
Si Si5 0.841519 0.567030 0.834207
Si Si6 0.715240 0.409752 0.803960
Si Si7 0.023642 0.221036 0.438588
Si Si8 0.995681 0.819791 0.432558
O O1 0.843636 0.127326 0.951498
O O2 0.747849 0.043621 0.897074
O O3 0.518245 0.096217 0.057006
O O4 0.704705 0.965392 0.993401
O O5 0.194716 0.887364 0.660950
O O6 0.335110 0.891661 0.713081
O O7 0.424449 0.761821 0.623223
O O8 0.106297 0.425585 0.118977
O O9 0.021637 0.317851 0.063733
O O10 0.340018 0.330894 0.993255
O O11 0.500000 0.512737 0.750000
O O12 0.539398 0.453228 0.833993
O O13 0.802454 0.474660 0.819808
O O14 0.659548 0.617104 0.887922
O O15 0.000000 0.606654 0.750000
O O16 0.655488 0.325375 0.855742
O O17 0.074774 0.211642 0.486102
#
# Coordination Sequence:
#
# PCOD9280100 Si02
#       8
#     8   8   8   8   8   8   8   8
#     4  12  21  44  66  90 138 177 232 279 341 420
#     4  11  26  40  65  95 132 183 231 281 345 421
#     4  10  21  36  66  97 124 172 223 271 339 408
#     4  10  22  40  66  92 129 176 231 284 346 399
#     4  11  23  38  66 100 132 169 229 280 341 414
#     4  11  22  43  63  97 138 174 216 293 353 404
#     4  10  21  38  64  96 133 167 217 281 343 413
#     4  11  24  41  65  96 132 180 224 281 356 405
#
# _framework density 21.916691
#
# number of rings (size 3 to 8) (size 9 to 14) (size 15 to 20)
#    0.000    1.250    2.500    3.000    5.250    2.500 
#    0.000    1.250    0.000    0.000    0.000    0.000 
#    0.000    0.000    0.000    0.000    0.000    0.000 
#
# Total GULP energy -178723.159352 kJ/mol
# GULP energy per Si atom -5585.098730 kJ/mol
# Density = 2.186681 g / cm^3
# Si number density = 21.916691 Si / 1000 Ang^3
#
#
#
# Elastic Constant Matrix: (Units=GPa)
#
#
# Indices 1 2 3 4 5 6 
#
# 1 53.7505 51.1763 31.6806 -0.0001 2.5349 0.0001
# 2 51.1763 122.1487 40.0461 -0.0003 9.3075 0.0002
# 3 31.6806 40.0461 161.3573 -0.0005 11.0613 0.0005
# 4 -0.0001 -0.0003 -0.0005 36.6848 0.0003 0.0794
# 5 2.5349 9.3075 11.0613 0.0003 28.7719 -0.0002
# 6 0.0001 0.0002 0.0005 0.0794 -0.0002 9.7291
#
#
#
# Elastic Compliance Matrix: (Units=1/GPa)
#
#
# Indices 1 2 3 4 5 6 
#
# 1 0.032636 -0.012748 -0.003420 0.000000 0.002563 0.000000
# 2 -0.012748 0.014015 -0.000762 0.000000 -0.003118 0.000000
# 3 -0.003420 -0.000762 0.007210 0.000000 -0.002224 0.000000
# 4 0.000000 0.000000 0.000000 0.027260 0.000000 -0.000222
# 5 0.002563 -0.003118 -0.002224 0.000000 0.036394 0.000001
# 6 0.000000 0.000000 0.000000 -0.000222 0.000001 0.102787
#
#
# Mechanical properties :
#
#
# Convention : Reuss Voigt Hill
#
# Bulk Modulus (GPa) = 49.99139 64.78472 57.38806
# Shear Modulus (GPa) = 19.16971 29.32739 24.24855
#
# Velocity S-wave (km/s) = 2.96068 3.66202 3.32986
# Velocity P-wave (km/s) = 5.87765 6.89233 6.40511
#
# Compressibility (1/GPa) = 0.02000344
#
# Stress axis : x y z
#
# Youngs Moduli (GPa) = 30.64059 71.35254 138.68939
#
# Poissons Ratio (x) = 0.90959 0.47428
# Poissons Ratio (y) = 0.39060 0.10563
# Poissons Ratio (z) = 0.10478 0.05435
#
# Static dielectric constant tensor:
#      x y z
#    x 1.829970 0.000000 0.010820 
#    y 0.000000 1.798270 0.000000 
#    z 0.010820 0.000000 1.889740 
# 
# From -- ./inp_files/293068.got.cif
#   From: 2010.05.17/outbox.cif.g08.bks.cpg/sg15_147_cif.got.tgz:293068.got - 2010.06.03 18:47:42.
