data_PCOD9280711
_publ_section_title
;
Structure prediction by ZEFSAII (Michael W. Deem and Ramdas Pophale) SiO2 
 PCOD9280711
Probable space group: C 2/C
;
_chemical_formula_sum "Si O2"
_cell_formula_units_Z 64
_cell_length_a 25.777755
_cell_length_b 8.867158
_cell_length_c 17.118498
_cell_angle_alpha 90.000000
_cell_angle_beta 140.052619
_cell_angle_gamma 90.000000
_cell_volume 2512.389231
_symmetry_space_group_name_H-M "C 2/C"
_symmetry_group_IT_number 15
_symmetry_cell_setting 'monoclinic'
loop_
_space_group_symop_operation_xyz
x,y,z
-x,y,1/2-z
-x,-y,-z
x,-y,1/2+z
1/2+x,1/2+y,z
1/2-x,1/2+y,1/2-z
1/2-x,1/2-y,-z
1/2+x,1/2-y,1/2+z
loop_
_atom_site_type_symbol
_atom_site_label
_atom_site_fract_x
_atom_site_fract_y
_atom_site_fract_z
Si Si1 0.420683 0.803868 0.612670
Si Si2 0.272110 0.581005 0.449705
Si Si3 0.502059 0.408224 0.581646
Si Si4 0.653685 0.411537 0.825351
Si Si5 0.400176 0.140151 0.637684
Si Si6 0.177990 0.820090 0.090314
Si Si7 0.333961 0.307355 0.253080
Si Si8 0.988880 0.665370 0.019502
O O1 0.500000 0.752952 0.750000
O O2 0.353719 0.676829 0.535396
O O3 0.440402 0.836022 0.544163
O O4 0.396522 0.959639 0.628910
O O5 0.286372 0.486462 0.544137
O O6 0.265089 0.450306 0.376642
O O7 0.205581 0.708311 0.360418
O O8 0.500000 0.500000 0.500000
O O9 0.559153 0.463163 0.716575
O O10 0.410992 0.392576 0.502231
O O11 0.542504 0.256925 0.592472
O O12 0.640905 0.238782 0.840248
O O13 0.674970 0.511798 0.772154
O O14 0.500000 0.172069 0.750000
O O15 0.346330 0.194331 0.500931
O O16 0.204202 0.769654 0.206451
O O17 0.424872 0.243792 0.363193
O O18 0.000000 0.500000 0.000000
#
# Coordination Sequence:
#
# PCOD9280711 Si02
#       8
#     8   8   8   8   8   8   8   8
#     4  11  24  39  63  98 130 168 221 283 343 396
#     4  11  26  41  65  96 136 179 220 277 340 401
#     4  11  19  36  65  98 125 162 232 277 327 393
#     4  11  22  39  68  92 132 175 221 273 331 404
#     4  10  21  37  62  96 134 164 215 283 340 391
#     4  10  21  37  65  92 125 177 224 273 331 399
#     4  11  24  43  66  97 138 179 229 271 342 410
#     4  11  24  40  69  98 132 172 224 289 337 393
#
# _framework density 25.473759999999999
#
# number of rings (size 3 to 8) (size 9 to 14) (size 15 to 20)
#    0.000    1.250    3.750    3.375    3.500    2.000 
#    0.000    0.625    5.500    0.000    0.000    0.000 
#    0.000    0.000    0.000    0.000    0.000    0.000 
#
# Total GULP energy -178518.478199 kJ/mol
# GULP energy per Si atom -5578.702444 kJ/mol
# Density = 2.541578 g / cm^3
# Si number density = 25.473760 Si / 1000 Ang^3
#
#
#
# Elastic Constant Matrix: (Units=GPa)
#
#
# Indices 1 2 3 4 5 6 
#
# 1 71.7089 46.7680 30.4440 0.0000 -12.9594 0.0000
# 2 46.7680 127.2007 29.3360 0.0000 -4.0865 0.0000
# 3 30.4440 29.3360 96.3595 0.0000 -11.1810 0.0000
# 4 0.0000 0.0000 0.0000 33.2509 0.0000 -4.5918
# 5 -12.9594 -4.0865 -11.1810 0.0000 27.9062 0.0000
# 6 0.0000 0.0000 0.0000 -4.5918 0.0000 46.4183
#
#
#
# Elastic Compliance Matrix: (Units=1/GPa)
#
#
# Indices 1 2 3 4 5 6 
#
# 1 0.021271 -0.006702 -0.003826 0.000000 0.007364 0.000000
# 2 -0.006702 0.010568 -0.001344 0.000000 -0.002103 0.000000
# 3 -0.003826 -0.001344 0.012340 0.000000 0.002971 0.000000
# 4 0.000000 0.000000 0.000000 0.030491 0.000000 0.003016
# 5 0.007364 -0.002103 0.002971 0.000000 0.040136 0.000000
# 6 0.000000 0.000000 0.000000 0.003016 0.000000 0.021842
#
#
# Mechanical properties :
#
#
# Convention : Reuss Voigt Hill
#
# Bulk Modulus (GPa) = 48.93196 56.48501 52.70848
# Shear Modulus (GPa) = 29.90360 34.09649 32.00004
#
# Velocity S-wave (km/s) = 3.42994 3.66251 3.54813
# Velocity P-wave (km/s) = 5.91070 6.33303 6.12551
#
# Compressibility (1/GPa) = 0.02043654
#
# Stress axis : x y z
#
# Youngs Moduli (GPa) = 47.01190 94.62440 81.03466
#
# Poissons Ratio (x) = 0.63417 0.31001
# Poissons Ratio (y) = 0.31507 0.10891
# Poissons Ratio (z) = 0.17985 0.12718
#
# Static dielectric constant tensor:
#      x y z
#    x 2.051750 0.000000 0.001060 
#    y 0.000000 2.038190 0.000000 
#    z 0.001060 0.000000 2.014730 
# 
# From -- ./inp_files/224668.got.cif
#   From: 2010.05.17/outbox.cif.g08.bks.cpg/sg15_113_cif.got.tgz:224668.got - 2010.06.03 18:47:42.
