data_PCOD9280352
_publ_section_title
;
Structure prediction by ZEFSAII (Michael W. Deem and Ramdas Pophale) SiO2 
 PCOD9280352
Probable space group: C 2/C
;
_chemical_formula_sum "Si O2"
_cell_formula_units_Z 48
_cell_length_a 17.801188
_cell_length_b 13.967660
_cell_length_c 16.828038
_cell_angle_alpha 90.000000
_cell_angle_beta 149.040842
_cell_angle_gamma 90.000000
_cell_volume 2152.433898
_symmetry_space_group_name_H-M "C 2/C"
_symmetry_group_IT_number 15
_symmetry_cell_setting 'monoclinic'
loop_
_space_group_symop_operation_xyz
x,y,z
-x,y,1/2-z
-x,-y,-z
x,-y,1/2+z
1/2+x,1/2+y,z
1/2-x,1/2+y,1/2-z
1/2-x,1/2-y,-z
1/2+x,1/2-y,1/2+z
loop_
_atom_site_type_symbol
_atom_site_label
_atom_site_fract_x
_atom_site_fract_y
_atom_site_fract_z
Si Si1 0.422880 0.474608 0.097345
Si Si2 0.013653 0.632657 0.166267
Si Si3 0.387945 0.063777 0.717759
Si Si4 0.573221 0.641350 0.153218
Si Si5 0.278017 0.256620 0.431555
Si Si6 0.332452 0.709705 0.433978
O O1 0.500000 0.493260 0.250000
O O2 0.512733 0.534458 0.112836
O O3 0.258487 0.515386 0.950426
O O4 0.405225 0.363154 0.063073
O O5 0.038446 0.521480 0.165787
O O6 0.159734 0.691436 0.277705
O O7 0.000000 0.633020 0.250000
O O8 0.879833 0.684493 0.002122
O O9 0.500000 0.091272 0.750000
O O10 0.323516 0.158931 0.697808
O O11 0.719317 0.661354 0.336832
O O12 0.606819 0.673381 0.094862
O O13 0.441267 0.708238 0.065513
O O14 0.250000 0.250000 0.500000
#
# Coordination Sequence:
#
# PCOD9280352 Si02
#       6
#     8   8   8   8   8   8
#     4  10  21  37  59  83 110 150 195 233 280 342
#     4  10  21  38  59  81 112 153 195 233 279 343
#     4   9  19  35  55  82 110 141 186 238 276 323
#     4  11  22  37  57  86 117 147 187 239 289 336
#     4  11  21  37  60  84 113 152 191 231 282 342
#     4  11  22  38  57  84 116 149 186 238 290 336
#
# _framework density 22.300336000000001
#
# number of rings (size 3 to 8) (size 9 to 14) (size 15 to 20)
#    0.000    1.667    0.000    6.000    0.000    2.667 
#    0.000    0.833    0.000    0.000    0.000    0.000 
#    0.000    0.000    0.000    0.000    0.000    0.000 
#
# Total GULP energy -134113.528940 kJ/mol
# GULP energy per Si atom -5588.063706 kJ/mol
# Density = 2.224958 g / cm^3
# Si number density = 22.300336 Si / 1000 Ang^3
#
#
#
# Elastic Constant Matrix: (Units=GPa)
#
#
# Indices 1 2 3 4 5 6 
#
# 1 73.8205 -18.7581 -5.9668 -0.0001 3.2160 0.0000
# 2 -18.7581 53.3586 17.9623 -0.0001 6.4496 -0.0001
# 3 -5.9668 17.9623 13.2716 -0.0002 2.1530 -0.0002
# 4 -0.0001 -0.0001 -0.0002 38.3243 -0.0001 3.4638
# 5 3.2160 6.4496 2.1530 -0.0001 26.1367 -0.0001
# 6 0.0000 -0.0001 -0.0002 3.4638 -0.0001 6.0132
#
#
#
# Elastic Compliance Matrix: (Units=1/GPa)
#
#
# Indices 1 2 3 4 5 6 
#
# 1 0.015146 0.005969 -0.000737 0.000000 -0.003276 0.000000
# 2 0.005969 0.037363 -0.046896 0.000000 -0.006091 -0.000001
# 3 -0.000737 -0.046896 0.138447 0.000000 0.000259 0.000003
# 4 0.000000 0.000000 0.000000 0.027526 0.000000 -0.015856
# 5 -0.003276 -0.006091 0.000259 0.000000 0.040145 0.000000
# 6 0.000000 -0.000001 0.000003 -0.015856 0.000000 0.175433
#
#
# Mechanical properties :
#
#
# Convention : Reuss Voigt Hill
#
# Bulk Modulus (GPa) = 9.29147 14.10284 11.69715
# Shear Modulus (GPa) = 9.03727 23.90907 16.47317
#
# Velocity S-wave (km/s) = 2.01527 3.27791 2.72084
# Velocity P-wave (km/s) = 3.09688 4.54577 3.88939
#
# Compressibility (1/GPa) = 0.10762564
#
# Stress axis : x y z
#
# Youngs Moduli (GPa) = 66.02326 26.76478 7.22300
#
# Poissons Ratio (x) = -0.15975 0.00533
# Poissons Ratio (y) = -0.39408 0.33873
# Poissons Ratio (z) = 0.04868 1.25517
#
# Static dielectric constant tensor:
#      x y z
#    x 1.792270 0.000000 0.009520 
#    y 0.000000 1.866270 0.000000 
#    z 0.009520 0.000000 1.805090 
# 
# From -- ./inp_files/211305.got.cif
#   From: 2010.05.17/outbox.cif.g08.bks.cpg/sg15_106_cif.got.tgz:211305.got - 2010.06.03 18:47:42.
