data_PCOD9280220
_publ_section_title
;
Structure prediction by ZEFSAII (Michael W. Deem and Ramdas Pophale) SiO2 
 PCOD9280220
Probable space group: C 2/C
;
_chemical_formula_sum "Si O2"
_cell_formula_units_Z 48
_cell_length_a 13.669413
_cell_length_b 12.311479
_cell_length_c 13.429408
_cell_angle_alpha 90.000000
_cell_angle_beta 127.591920
_cell_angle_gamma 90.000000
_cell_volume 1790.804181
_symmetry_space_group_name_H-M "C 2/C"
_symmetry_group_IT_number 15
_symmetry_cell_setting 'monoclinic'
loop_
_space_group_symop_operation_xyz
x,y,z
-x,y,1/2-z
-x,-y,-z
x,-y,1/2+z
1/2+x,1/2+y,z
1/2-x,1/2+y,1/2-z
1/2-x,1/2-y,-z
1/2+x,1/2-y,1/2+z
loop_
_atom_site_type_symbol
_atom_site_label
_atom_site_fract_x
_atom_site_fract_y
_atom_site_fract_z
Si Si1 0.558196 0.639156 0.622998
Si Si2 0.030713 0.761489 0.618806
Si Si3 0.622715 0.931784 0.372262
Si Si4 0.220806 0.648636 0.221720
Si Si5 0.783948 0.872730 0.990621
Si Si6 0.310414 0.925561 0.310440
O O1 0.530817 0.644825 0.486574
O O2 0.623444 0.755860 0.673023
O O3 0.429664 0.618445 0.595747
O O4 0.664974 0.567869 0.737567
O O5 0.148159 0.818003 0.748345
O O6 0.109354 0.674066 0.600177
O O7 0.930419 0.678891 0.607607
O O8 0.500000 0.988248 0.250000
O O9 0.703773 0.023467 0.477641
O O10 0.687424 0.900875 0.308179
O O11 0.261519 0.620001 0.358560
O O12 0.145267 0.544909 0.137376
O O13 0.750000 0.750000 0.000000
#
# Coordination Sequence:
#
# PCOD9280220 Si02
#       6
#     8   8   8   8   8   8
#     4  10  21  37  56  86 114 148 193 243 275 351
#     4   9  19  35  56  88 109 147 193 230 284 339
#     4   9  19  36  57  82 115 151 184 232 285 344
#     4   9  20  38  57  82 114 153 188 235 287 344
#     4  10  22  34  56  83 108 150 191 231 285 333
#     4   9  19  37  59  79 113 155 186 229 293 339
#
# _framework density 26.803601
#
# number of rings (size 3 to 8) (size 9 to 14) (size 15 to 20)
#    0.000    2.667    0.000    0.000    7.000    7.333 
#    6.000    0.000    0.000    0.000    0.000    0.000 
#    0.000    0.000    0.000    0.000    0.000    0.000 
#
# Total GULP energy -133674.018932 kJ/mol
# GULP energy per Si atom -5569.750789 kJ/mol
# Density = 2.674259 g / cm^3
# Si number density = 26.803601 Si / 1000 Ang^3
#
#
#
# Elastic Constant Matrix: (Units=GPa)
#
#
# Indices 1 2 3 4 5 6 
#
# 1 119.1691 14.5952 33.6427 0.0000 11.7177 0.0000
# 2 14.5952 96.5211 -7.8732 0.0000 -5.5702 0.0000
# 3 33.6427 -7.8732 72.5448 0.0000 21.0928 0.0000
# 4 0.0000 0.0000 0.0000 46.3639 0.0000 5.0471
# 5 11.7177 -5.5702 21.0928 0.0000 49.6213 0.0000
# 6 0.0000 0.0000 0.0000 5.0471 0.0000 34.7490
#
#
#
# Elastic Compliance Matrix: (Units=1/GPa)
#
#
# Indices 1 2 3 4 5 6 
#
# 1 0.010006 -0.001929 -0.004678 0.000000 -0.000591 0.000000
# 2 -0.001929 0.010852 0.001809 0.000000 0.000905 0.000000
# 3 -0.004678 0.001809 0.017994 0.000000 -0.006341 0.000000
# 4 0.000000 0.000000 0.000000 0.021915 0.000000 -0.003183
# 5 -0.000591 0.000905 -0.006341 0.000000 0.023089 0.000000
# 6 0.000000 0.000000 0.000000 -0.003183 0.000000 0.029240
#
#
# Mechanical properties :
#
#
# Convention : Reuss Voigt Hill
#
# Bulk Modulus (GPa) = 34.17962 40.99603 37.58783
# Shear Modulus (GPa) = 37.75175 42.67152 40.21163
#
# Velocity S-wave (km/s) = 3.75701 3.99432 3.87749
# Velocity P-wave (km/s) = 5.62137 6.04988 5.83955
#
# Compressibility (1/GPa) = 0.02925720
#
# Stress axis : x y z
#
# Youngs Moduli (GPa) = 99.93581 92.15005 55.57392
#
# Poissons Ratio (x) = 0.17774 0.25997
# Poissons Ratio (y) = 0.19275 -0.10054
# Poissons Ratio (z) = 0.46750 -0.16672
#
# Static dielectric constant tensor:
#      x y z
#    x 2.300470 0.000000 -0.005180 
#    y 0.000000 2.205240 0.000000 
#    z -0.005180 0.000000 2.206570 
# 
# From -- ./inp_files/154115.got.cif
#   From: 2010.05.17/outbox.cif.g08.bks.cpg/sg15_78_cif.got.tgz:154115.got - 2010.06.03 18:47:42.
