data_PCOD9280853
_publ_section_title
;
Structure prediction by ZEFSAII (Michael W. Deem and Ramdas Pophale) SiO2 
 PCOD9280853
Probable space group: C 2/C
;
_chemical_formula_sum "Si O2"
_cell_formula_units_Z 60
_cell_length_a 20.897225
_cell_length_b 12.897863
_cell_length_c 16.354740
_cell_angle_alpha 90.000000
_cell_angle_beta 38.011868
_cell_angle_gamma 90.000000
_cell_volume 2714.607956
_symmetry_space_group_name_H-M "C 2/C"
_symmetry_group_IT_number 15
_symmetry_cell_setting 'monoclinic'
loop_
_space_group_symop_operation_xyz
x,y,z
-x,y,1/2-z
-x,-y,-z
x,-y,1/2+z
1/2+x,1/2+y,z
1/2-x,1/2+y,1/2-z
1/2-x,1/2-y,-z
1/2+x,1/2-y,1/2+z
loop_
_atom_site_type_symbol
_atom_site_label
_atom_site_fract_x
_atom_site_fract_y
_atom_site_fract_z
Si Si1 0.276550 0.600620 0.998433
Si Si2 0.220235 0.816588 0.277566
Si Si3 0.549740 0.157550 0.383643
Si Si4 0.905824 0.526266 0.782531
Si Si5 0.500000 0.454900 0.250000
Si Si6 0.349067 0.215677 0.504129
Si Si7 0.042594 0.065793 0.034378
Si Si8 0.422443 0.782598 0.162378
O O1 0.388418 0.597887 0.841183
O O2 0.186759 0.668752 0.045109
O O3 0.213166 0.494295 0.069165
O O4 0.308181 0.666197 0.046978
O O5 0.139273 0.735682 0.320984
O O6 0.288029 0.853314 0.131915
O O7 0.158675 0.902584 0.390065
O O8 0.305514 0.764291 0.249544
O O9 0.583684 0.052573 0.305127
O O10 0.469823 0.212862 0.401300
O O11 0.482109 0.148005 0.534110
O O12 0.920069 0.645404 0.743556
O O13 0.000000 0.500303 0.750000
O O14 0.531787 0.512585 0.133694
O O15 0.980519 0.173819 0.106308
O O16 0.000000 0.000000 0.000000
#
# Coordination Sequence:
#
# PCOD9280853 Si02
#       8
#     8   8   8   8   4   8   8   8
#     4  11  24  38  65 102 144 185 228 310 358 448
#     4  10  21  42  70  97 136 183 240 294 362 430
#     4  10  21  40  68  99 131 179 234 299 356 438
#     4  12  23  43  67 101 144 187 237 294 374 440
#     4  12  28  44  68 106 142 188 248 290 378 438
#     4  10  21  37  65 105 138 177 238 293 382 417
#     4  11  26  48  72 101 142 191 244 307 363 447
#     4  10  25  43  67  98 137 187 237 297 361 450
#
# _framework density 22.102637999999999
#
# number of rings (size 3 to 8) (size 9 to 14) (size 15 to 20)
#    0.000    1.333    2.667    2.000    8.400    1.067 
#    4.800    1.333    0.000    0.000    0.000    0.000 
#    0.000    0.000    0.000    0.000    0.000    0.000 
#
# Total GULP energy -167230.415931 kJ/mol
# GULP energy per Si atom -5574.347198 kJ/mol
# Density = 2.205233 g / cm^3
# Si number density = 22.102638 Si / 1000 Ang^3
#
#
#
# Elastic Constant Matrix: (Units=GPa)
#
#
# Indices 1 2 3 4 5 6 
#
# 1 74.2605 15.3793 20.2170 0.0000 -12.2099 0.0000
# 2 15.3793 62.6999 23.1519 0.0000 5.0148 0.0000
# 3 20.2170 23.1519 102.5383 0.0000 -18.0121 0.0000
# 4 0.0000 0.0000 0.0000 32.9068 0.0000 8.9406
# 5 -12.2099 5.0148 -18.0121 0.0000 37.5053 0.0000
# 6 0.0000 0.0000 0.0000 8.9406 0.0000 31.5096
#
#
#
# Elastic Compliance Matrix: (Units=1/GPa)
#
#
# Indices 1 2 3 4 5 6 
#
# 1 0.015391 -0.003662 -0.001356 0.000000 0.004849 0.000000
# 2 -0.003662 0.019030 -0.004621 0.000000 -0.005956 0.000000
# 3 -0.001356 -0.004621 0.012116 0.000000 0.005995 0.000000
# 4 0.000000 0.000000 0.000000 0.032927 0.000000 -0.009343
# 5 0.004849 -0.005956 0.005995 0.000000 0.031917 0.000000
# 6 0.000000 0.000000 0.000000 -0.009343 0.000000 0.034387
#
#
# Mechanical properties :
#
#
# Convention : Reuss Voigt Hill
#
# Bulk Modulus (GPa) = 36.68511 39.66613 38.17562
# Shear Modulus (GPa) = 28.71359 32.43435 30.57397
#
# Velocity S-wave (km/s) = 3.60822 3.83488 3.72327
# Velocity P-wave (km/s) = 5.83032 6.13137 5.98274
#
# Compressibility (1/GPa) = 0.02725902
#
# Stress axis : x y z
#
# Youngs Moduli (GPa) = 64.97303 52.54880 82.53363
#
# Poissons Ratio (x) = 0.19245 0.11190
# Poissons Ratio (y) = 0.23796 0.38138
# Poissons Ratio (z) = 0.08809 0.24282
#
# Static dielectric constant tensor:
#      x y z
#    x 1.839500 0.000000 0.019740 
#    y 0.000000 1.856850 0.000000 
#    z 0.019740 0.000000 1.894360 
# 
# From -- ./inp_files/215171.got.cif
#   From: 2010.05.17/outbox.cif.g08.bks.cpg/sg15_108_cif.got.tgz:215171.got - 2010.06.03 18:47:42.
