data_PCOD9280258
_publ_section_title
;
Structure prediction by ZEFSAII (Michael W. Deem and Ramdas Pophale) SiO2 
 PCOD9280258
Probable space group: C 2/C
;
_chemical_formula_sum "Si O2"
_cell_formula_units_Z 56
_cell_length_a 28.665287
_cell_length_b 8.741671
_cell_length_c 12.805523
_cell_angle_alpha 90.000000
_cell_angle_beta 58.185836
_cell_angle_gamma 90.000000
_cell_volume 2726.751637
_symmetry_space_group_name_H-M "C 2/C"
_symmetry_group_IT_number 15
_symmetry_cell_setting 'monoclinic'
loop_
_space_group_symop_operation_xyz
x,y,z
-x,y,1/2-z
-x,-y,-z
x,-y,1/2+z
1/2+x,1/2+y,z
1/2-x,1/2+y,1/2-z
1/2-x,1/2-y,-z
1/2+x,1/2-y,1/2+z
loop_
_atom_site_type_symbol
_atom_site_label
_atom_site_fract_x
_atom_site_fract_y
_atom_site_fract_z
Si Si1 0.456316 0.983819 0.146118
Si Si2 0.544278 0.484934 0.041906
Si Si3 0.731195 0.103904 0.889392
Si Si4 0.000000 0.267735 0.750000
Si Si5 0.237140 0.046586 0.412411
Si Si6 0.500000 0.267972 0.750000
Si Si7 0.653815 0.043797 0.339873
Si Si8 0.160219 0.097604 0.869355
O O1 0.462550 0.125562 0.219733
O O2 0.399219 0.979187 0.153098
O O3 0.467634 0.838527 0.206430
O O4 0.500000 0.000000 0.000000
O O5 0.532850 0.337814 0.128374
O O6 0.536905 0.625108 0.132250
O O7 0.500000 0.500000 0.000000
O O8 0.605326 0.498903 0.923363
O O9 0.722853 0.285256 0.883968
O O10 0.786520 0.054581 0.762512
O O11 0.674661 0.021734 0.925206
O O12 0.747607 0.070891 0.987147
O O13 0.293754 0.999114 0.291614
O O14 0.186759 0.932933 0.451709
O O15 0.647597 0.226440 0.358385
#
# Coordination Sequence:
#
# PCOD9280258 Si02
#       8
#     8   8   8   4   8   4   8   8
#     4  11  23  42  63  89 122 157 203 255 301 361
#     4  11  23  41  61  89 126 160 201 251 299 362
#     4   9  20  38  59  84 113 155 198 241 298 351
#     4  10  24  40  62  90 120 164 202 242 312 362
#     4   9  20  37  57  82 115 151 196 242 290 361
#     4  10  24  40  60  90 118 160 206 242 308 366
#     4  10  21  37  58  84 116 152 194 245 300 351
#     4  10  21  37  57  85 117 152 194 244 297 354
#
# _framework density 20.537258000000001
#
# number of rings (size 3 to 8) (size 9 to 14) (size 15 to 20)
#    0.000    2.000    0.000    2.571    0.000   12.000 
#    0.000    2.857    0.000    0.000    0.000    0.000 
#    0.000    0.000    0.000    0.000    0.000    0.000 
#
# Total GULP energy -156162.854156 kJ/mol
# GULP energy per Si atom -5577.244791 kJ/mol
# Density = 2.049051 g / cm^3
# Si number density = 20.537258 Si / 1000 Ang^3
#
#
#
# Elastic Constant Matrix: (Units=GPa)
#
#
# Indices 1 2 3 4 5 6 
#
# 1 141.1992 22.9730 34.4689 0.0000 -2.6493 0.0000
# 2 22.9730 44.5948 16.8638 0.0000 2.5568 0.0000
# 3 34.4689 16.8638 60.7414 0.0000 7.6723 0.0000
# 4 0.0000 0.0000 0.0000 27.2087 0.0000 10.0641
# 5 -2.6493 2.5568 7.6723 0.0000 24.7234 0.0000
# 6 0.0000 0.0000 0.0000 10.0641 0.0000 17.8580
#
#
#
# Elastic Compliance Matrix: (Units=1/GPa)
#
#
# Indices 1 2 3 4 5 6 
#
# 1 0.008697 -0.002948 -0.004447 0.000000 0.002617 0.000000
# 2 -0.002948 0.026059 -0.005393 0.000000 -0.001337 0.000000
# 3 -0.004447 -0.005393 0.021309 0.000000 -0.006532 0.000000
# 4 0.000000 0.000000 0.000000 0.046432 0.000000 -0.026167
# 5 0.002617 -0.001337 -0.006532 0.000000 0.042893 0.000000
# 6 0.000000 0.000000 0.000000 -0.026167 0.000000 0.070744
#
#
# Mechanical properties :
#
#
# Convention : Reuss Voigt Hill
#
# Bulk Modulus (GPa) = 32.79961 43.90519 38.35240
# Shear Modulus (GPa) = 19.85131 25.44001 22.64566
#
# Velocity S-wave (km/s) = 3.11239 3.52337 3.32424
# Velocity P-wave (km/s) = 5.37786 6.16254 5.78353
#
# Compressibility (1/GPa) = 0.03048817
#
# Stress axis : x y z
#
# Youngs Moduli (GPa) = 114.98777 38.37445 46.92856
#
# Poissons Ratio (x) = 0.11314 0.20869
# Poissons Ratio (y) = 0.33903 0.25308
# Poissons Ratio (z) = 0.51135 0.20695
#
# Static dielectric constant tensor:
#      x y z
#    x 1.750970 0.000000 0.045460 
#    y 0.000000 1.789850 0.000000 
#    z 0.045460 0.000000 1.806710 
# 
# From -- ./inp_files/121923.got.cif
#   From: 2010.05.17/outbox.cif.g08.bks.cpg/sg15_61_cif.got.tgz:121923.got - 2010.06.03 18:47:42.
