data_PCOD9280104
_publ_section_title
;
Structure prediction by ZEFSAII (Michael W. Deem and Ramdas Pophale) SiO2 
 PCOD9280104
Probable space group: C 2/C
;
_chemical_formula_sum "Si O2"
_cell_formula_units_Z 48
_cell_length_a 22.132749
_cell_length_b 11.069570
_cell_length_c 15.362371
_cell_angle_alpha 90.000000
_cell_angle_beta 139.886441
_cell_angle_gamma 90.000000
_cell_volume 2425.021598
_symmetry_space_group_name_H-M "C 2/C"
_symmetry_group_IT_number 15
_symmetry_cell_setting 'monoclinic'
loop_
_space_group_symop_operation_xyz
x,y,z
-x,y,1/2-z
-x,-y,-z
x,-y,1/2+z
1/2+x,1/2+y,z
1/2-x,1/2+y,1/2-z
1/2-x,1/2-y,-z
1/2+x,1/2-y,1/2+z
loop_
_atom_site_type_symbol
_atom_site_label
_atom_site_fract_x
_atom_site_fract_y
_atom_site_fract_z
Si Si1 0.470574 0.220811 0.084771
Si Si2 0.702586 0.252190 0.044534
Si Si3 0.400484 0.441220 0.666590
Si Si4 0.147612 0.802460 0.379355
Si Si5 0.402995 0.749641 0.325026
Si Si6 0.959659 0.557661 0.608079
O O1 0.578410 0.244984 0.230891
O O2 0.405800 0.275537 0.089073
O O3 0.450437 0.076614 0.059639
O O4 0.444453 0.280046 0.964436
O O5 0.790520 0.269668 0.204821
O O6 0.750000 0.250000 0.000000
O O7 0.636200 0.367056 0.957058
O O8 0.636171 0.137458 0.991674
O O9 0.500000 0.493907 0.750000
O O10 0.338782 0.555213 0.622098
O O11 0.413653 0.352482 0.762646
O O12 0.250000 0.750000 0.500000
O O13 0.462204 0.864368 0.356496
O O14 0.000000 0.543473 0.750000
#
# Coordination Sequence:
#
# PCOD9280104 Si02
#       6
#     8   8   8   8   8   8
#     4  11  26  44  60  96 134 163 213 264 321 381
#     4  10  21  36  67  95 120 163 216 254 314 372
#     4  11  20  43  67  91 128 167 214 261 315 385
#     4  11  26  44  66  87 127 180 209 252 334 386
#     4  11  24  40  66  99 124 162 217 269 312 370
#     4  12  20  41  69  90 131 174 207 262 317 386
#
# _framework density 19.793637
#
# number of rings (size 3 to 8) (size 9 to 14) (size 15 to 20)
#    0.000    1.000    8.333    0.500    7.000    2.000 
#    3.000    0.000    0.000    0.000    0.000    0.000 
#    0.000    0.000    0.000    0.000    0.000    0.000 
#
# Total GULP energy -133887.868049 kJ/mol
# GULP energy per Si atom -5578.661169 kJ/mol
# Density = 1.974859 g / cm^3
# Si number density = 19.793637 Si / 1000 Ang^3
#
#
#
# Elastic Constant Matrix: (Units=GPa)
#
#
# Indices 1 2 3 4 5 6 
#
# 1 34.3437 15.0320 47.2231 0.0000 6.7712 0.0000
# 2 15.0320 110.9833 22.3178 0.0000 5.1406 0.0000
# 3 47.2231 22.3178 143.2898 0.0000 1.2882 0.0000
# 4 0.0000 0.0000 0.0000 14.3750 0.0000 10.1195
# 5 6.7712 5.1406 1.2882 0.0000 35.6779 0.0000
# 6 0.0000 0.0000 0.0000 10.1195 0.0000 21.3802
#
#
#
# Elastic Compliance Matrix: (Units=1/GPa)
#
#
# Indices 1 2 3 4 5 6 
#
# 1 0.058076 -0.003696 -0.018476 0.000000 -0.009823 0.000000
# 2 -0.003696 0.009596 -0.000271 0.000000 -0.000672 0.000000
# 3 -0.018476 -0.000271 0.013082 0.000000 0.003073 0.000000
# 4 0.000000 0.000000 0.000000 0.104327 0.000000 -0.049379
# 5 -0.009823 -0.000672 0.003073 0.000000 0.029879 0.000000
# 6 0.000000 0.000000 0.000000 -0.049379 0.000000 0.070144
#
#
# Mechanical properties :
#
#
# Convention : Reuss Voigt Hill
#
# Bulk Modulus (GPa) = 27.87808 50.86250 39.37029
# Shear Modulus (GPa) = 14.62220 27.88954 21.25587
#
# Velocity S-wave (km/s) = 2.72091 3.75776 3.28056
# Velocity P-wave (km/s) = 4.89756 6.67681 5.85517
#
# Compressibility (1/GPa) = 0.03587047
#
# Stress axis : x y z
#
# Youngs Moduli (GPa) = 17.21876 104.20505 76.43884
#
# Poissons Ratio (x) = 0.38512 1.41227
# Poissons Ratio (y) = 0.06364 0.02069
# Poissons Ratio (z) = 0.31813 0.02820
#
# Static dielectric constant tensor:
#      x y z
#    x 1.765660 0.000000 0.142870 
#    y 0.000000 1.729810 0.000000 
#    z 0.142870 0.000000 1.960400 
# 
# From -- ./inp_files/167926.got.cif
#   From: 2010.05.17/outbox.cif.g08.bks.cpg/sg15_84_cif.got.tgz:167926.got - 2010.06.03 18:47:42.
