data_PCOD9280413
_publ_section_title
;
Structure prediction by ZEFSAII (Michael W. Deem and Ramdas Pophale) SiO2 
 PCOD9280413
Probable space group: C 2/C
;
_chemical_formula_sum "Si O2"
_cell_formula_units_Z 56
_cell_length_a 13.855043
_cell_length_b 11.722345
_cell_length_c 23.250363
_cell_angle_alpha 90.000000
_cell_angle_beta 39.841704
_cell_angle_gamma 90.000000
_cell_volume 2419.277298
_symmetry_space_group_name_H-M "C 2/C"
_symmetry_group_IT_number 15
_symmetry_cell_setting 'monoclinic'
loop_
_space_group_symop_operation_xyz
x,y,z
-x,y,1/2-z
-x,-y,-z
x,-y,1/2+z
1/2+x,1/2+y,z
1/2-x,1/2+y,1/2-z
1/2-x,1/2-y,-z
1/2+x,1/2-y,1/2+z
loop_
_atom_site_type_symbol
_atom_site_label
_atom_site_fract_x
_atom_site_fract_y
_atom_site_fract_z
Si Si1 0.769706 0.081234 0.832943
Si Si2 0.689043 0.209445 0.754416
Si Si3 0.552925 0.124599 0.415745
Si Si4 0.693734 0.492998 0.363902
Si Si5 0.085139 0.164196 0.490070
Si Si6 0.272820 0.412736 0.459889
Si Si7 0.014995 0.081289 0.336316
O O1 0.640219 0.984509 0.898935
O O2 0.804205 0.131007 0.880293
O O3 0.905522 0.003789 0.745231
O O4 0.723529 0.168180 0.803503
O O5 0.542204 0.286687 0.811631
O O6 0.826564 0.294139 0.672194
O O7 0.686653 0.093958 0.717533
O O8 0.475054 0.210470 0.497113
O O9 0.405493 0.085871 0.447685
O O10 0.716786 0.595719 0.397475
O O11 0.567296 0.408704 0.447556
O O12 0.612230 0.555868 0.348521
O O13 0.135904 0.157386 0.533718
O O14 0.347255 0.538212 0.424409
#
# Coordination Sequence:
#
# PCOD9280413 Si02
#       7
#     8   8   8   8   8   8   8
#     4  10  21  38  62  85 122 160 205 249 300 374
#     4   9  19  38  63  82 117 176 204 238 308 380
#     4  10  21  37  59  90 122 157 202 255 304 362
#     4   8  16  33  57  83 114 157 199 240 296 372
#     4   9  18  33  59  85 118 148 195 252 304 345
#     4  11  21  36  61  97 119 149 205 270 290 354
#     4   9  19  35  60  86 119 159 209 247 308 359
#
# _framework density 23.147409
#
# number of rings (size 3 to 8) (size 9 to 14) (size 15 to 20)
#    0.000    2.571    0.000    2.143    2.000    0.000 
#    0.000    0.714   25.143    0.000    0.000    0.000 
#    0.000    0.000    0.000    0.000    0.000    0.000 
#
# Total GULP energy -156019.063339 kJ/mol
# GULP energy per Si atom -5572.109405 kJ/mol
# Density = 2.309472 g / cm^3
# Si number density = 23.147409 Si / 1000 Ang^3
#
#
#
# Elastic Constant Matrix: (Units=GPa)
#
#
# Indices 1 2 3 4 5 6 
#
# 1 52.0126 21.3400 21.0398 0.0000 9.9926 0.0000
# 2 21.3400 115.9006 40.5425 0.0000 -4.7178 0.0000
# 3 21.0398 40.5425 55.7138 0.0000 9.6712 0.0000
# 4 0.0000 0.0000 0.0000 36.7090 0.0000 -6.0321
# 5 9.9926 -4.7178 9.6712 0.0000 36.0386 0.0000
# 6 0.0000 0.0000 0.0000 -6.0321 0.0000 10.5056
#
#
#
# Elastic Compliance Matrix: (Units=1/GPa)
#
#
# Indices 1 2 3 4 5 6 
#
# 1 0.023764 -0.002365 -0.006351 0.000000 -0.005194 0.000000
# 2 -0.002365 0.012375 -0.008923 0.000000 0.004670 0.000000
# 3 -0.006351 -0.008923 0.028044 0.000000 -0.006933 0.000000
# 4 0.000000 0.000000 0.000000 0.030079 0.000000 0.017271
# 5 -0.005194 0.004670 -0.006933 0.000000 0.031660 0.000000
# 6 0.000000 0.000000 0.000000 0.017271 0.000000 0.105104
#
#
# Mechanical properties :
#
#
# Convention : Reuss Voigt Hill
#
# Bulk Modulus (GPa) = 34.59728 43.27463 38.93595
# Shear Modulus (GPa) = 18.12001 26.03095 22.07548
#
# Velocity S-wave (km/s) = 2.80091 3.35710 3.09154
# Velocity P-wave (km/s) = 5.04372 5.81057 5.44067
#
# Compressibility (1/GPa) = 0.02890400
#
# Stress axis : x y z
#
# Youngs Moduli (GPa) = 42.08113 80.80931 35.65863
#
# Poissons Ratio (x) = 0.19113 0.22648
# Poissons Ratio (y) = 0.09953 0.31817
# Poissons Ratio (z) = 0.26727 0.72103
#
# Static dielectric constant tensor:
#      x y z
#    x 1.893470 0.000000 0.021390 
#    y 0.000000 1.941060 0.000000 
#    z 0.021390 0.000000 2.010220 
# 
# From -- ./inp_files/295895.got.cif
#   From: 2010.05.17/outbox.cif.g08.bks.cpg/sg15_148_cif.got.tgz:295895.got - 2010.06.03 18:47:42.
