data_PCOD9280432
_publ_section_title
;
Structure prediction by ZEFSAII (Michael W. Deem and Ramdas Pophale) SiO2 
 PCOD9280432
Probable space group: C 2/C
;
_chemical_formula_sum "Si O2"
_cell_formula_units_Z 48
_cell_length_a 18.844979
_cell_length_b 21.779812
_cell_length_c 7.675530
_cell_angle_alpha 90.000000
_cell_angle_beta 44.194941
_cell_angle_gamma 90.000000
_cell_volume 2196.111377
_symmetry_space_group_name_H-M "C 2/C"
_symmetry_group_IT_number 15
_symmetry_cell_setting 'monoclinic'
loop_
_space_group_symop_operation_xyz
x,y,z
-x,y,1/2-z
-x,-y,-z
x,-y,1/2+z
1/2+x,1/2+y,z
1/2-x,1/2+y,1/2-z
1/2-x,1/2-y,-z
1/2+x,1/2-y,1/2+z
loop_
_atom_site_type_symbol
_atom_site_label
_atom_site_fract_x
_atom_site_fract_y
_atom_site_fract_z
Si Si1 0.983439 0.428571 0.072256
Si Si2 0.330847 0.676189 0.210375
Si Si3 0.692038 0.078316 0.096874
Si Si4 0.728061 0.063034 0.447540
Si Si5 0.393320 0.763149 0.398538
Si Si6 0.175640 0.192074 0.663266
O O1 0.864367 0.414353 0.263597
O O2 0.000000 0.424038 0.250000
O O3 0.000000 0.500000 0.000000
O O4 0.073346 0.400759 0.797729
O O5 0.324245 0.607992 0.305715
O O6 0.385465 0.726471 0.232308
O O7 0.210394 0.697046 0.411439
O O8 0.372176 0.677604 0.940916
O O9 0.708342 0.073660 0.276760
O O10 0.760579 0.131880 0.900763
O O11 0.723626 0.010837 0.974228
O O12 0.500000 0.797103 0.250000
O O13 0.390353 0.713530 0.559166
O O14 0.250000 0.250000 0.500000
#
# Coordination Sequence:
#
# PCOD9280432 Si02
#       6
#     8   8   8   8   8   8
#     4   8  14  25  40  66 104 136 170 203 257 325
#     4   9  20  37  55  84 112 139 184 227 273 333
#     4   9  17  28  47  75 105 147 178 219 274 326
#     4   9  17  28  48  75 106 143 175 220 271 329
#     4  10  21  37  60  82 108 146 185 229 276 327
#     4   9  19  35  54  79 112 143 184 228 269 328
#
# _framework density 21.856812999999999
#
# number of rings (size 3 to 8) (size 9 to 14) (size 15 to 20)
#    0.000    3.000    0.000    0.000    2.333    5.333 
#    0.000    0.000    0.000    5.000    0.000    0.000 
#    0.000    0.000    0.000    0.000    0.000    0.000 
#
# Total GULP energy -133660.657824 kJ/mol
# GULP energy per Si atom -5569.194076 kJ/mol
# Density = 2.180707 g / cm^3
# Si number density = 21.856813 Si / 1000 Ang^3
#
#
#
# Elastic Constant Matrix: (Units=GPa)
#
#
# Indices 1 2 3 4 5 6 
#
# 1 60.4271 19.9477 15.4661 0.0000 -2.6538 0.0000
# 2 19.9477 104.2723 19.3883 0.0000 6.4449 0.0000
# 3 15.4661 19.3883 38.9288 0.0000 12.9891 0.0000
# 4 0.0000 0.0000 0.0000 32.5747 0.0000 2.8376
# 5 -2.6538 6.4449 12.9891 0.0000 24.6330 0.0000
# 6 0.0000 0.0000 0.0000 2.8376 0.0000 13.6387
#
#
#
# Elastic Compliance Matrix: (Units=1/GPa)
#
#
# Indices 1 2 3 4 5 6 
#
# 1 0.020124 -0.002602 -0.009283 0.000000 0.007744 0.000000
# 2 -0.002602 0.010906 -0.004068 0.000000 -0.000989 0.000000
# 3 -0.009283 -0.004068 0.038080 0.000000 -0.020016 0.000000
# 4 0.000000 0.000000 0.000000 0.031265 0.000000 -0.006505
# 5 0.007744 -0.000989 -0.020016 0.000000 0.052243 0.000000
# 6 0.000000 0.000000 0.000000 -0.006505 0.000000 0.074674
#
#
# Mechanical properties :
#
#
# Convention : Reuss Voigt Hill
#
# Bulk Modulus (GPa) = 26.87870 34.80359 30.84115
# Shear Modulus (GPa) = 18.40946 24.09102 21.25024
#
# Velocity S-wave (km/s) = 2.90535 3.32357 3.12147
# Velocity P-wave (km/s) = 4.85583 5.53951 5.20890
#
# Compressibility (1/GPa) = 0.03720418
#
# Stress axis : x y z
#
# Youngs Moduli (GPa) = 49.69216 91.69625 26.26031
#
# Poissons Ratio (x) = 0.23863 0.24377
# Poissons Ratio (y) = 0.12932 0.10682
# Poissons Ratio (z) = 0.46128 0.37299
#
# Static dielectric constant tensor:
#      x y z
#    x 1.903290 0.000000 -0.066740 
#    y 0.000000 1.825520 0.000000 
#    z -0.066740 0.000000 1.851620 
# 
# From -- ./inp_files/58403.got.cif
#   From: 2010.05.17/outbox.cif.g08.bks.cpg/sg15_30_cif.got.tgz:58403.got - 2010.06.03 18:47:42.
