data_PCOD9280130
_publ_section_title
;
Structure prediction by ZEFSAII (Michael W. Deem and Ramdas Pophale) SiO2 
 PCOD9280130
Probable space group: C 2/C
;
_chemical_formula_sum "Si O2"
_cell_formula_units_Z 48
_cell_length_a 23.037624
_cell_length_b 22.174138
_cell_length_c 5.063649
_cell_angle_alpha 90.000000
_cell_angle_beta 97.841686
_cell_angle_gamma 90.000000
_cell_volume 2562.522927
_symmetry_space_group_name_H-M "C 2/C"
_symmetry_group_IT_number 15
_symmetry_cell_setting 'monoclinic'
loop_
_space_group_symop_operation_xyz
x,y,z
-x,y,1/2-z
-x,-y,-z
x,-y,1/2+z
1/2+x,1/2+y,z
1/2-x,1/2+y,1/2-z
1/2-x,1/2-y,-z
1/2+x,1/2-y,1/2+z
loop_
_atom_site_type_symbol
_atom_site_label
_atom_site_fract_x
_atom_site_fract_y
_atom_site_fract_z
Si Si1 0.120837 0.744553 0.127481
Si Si2 0.711699 0.838816 0.486054
Si Si3 0.766649 0.959587 0.459832
Si Si4 0.500000 0.633708 0.250000
Si Si5 0.500000 0.283794 0.250000
Si Si6 0.402617 0.540454 0.996218
Si Si7 0.184690 0.221274 0.177932
O O1 0.151603 0.679721 0.096398
O O2 0.054798 0.745003 0.182133
O O3 0.158395 0.778500 0.373881
O O4 0.132658 0.779642 0.862005
O O5 0.722188 0.904932 0.386476
O O6 0.765970 0.826273 0.716624
O O7 0.713771 0.786871 0.262085
O O8 0.834774 0.939613 0.476696
O O9 0.758573 0.012388 0.243021
O O10 0.482816 0.674378 0.491040
O O11 0.447547 0.591568 0.111311
O O12 0.411557 0.484931 0.207009
#
# Coordination Sequence:
#
# PCOD9280130 Si02
#       7
#     8   8   8   4   4   8   8
#     4  10  21  37  51  83 109 143 174 229 270 339
#     4   9  21  35  60  79 111 145 178 227 284 339
#     4  10  23  35  54  84 112 142 184 235 275 323
#     4  12  24  37  56  76 104 159 182 240 260 328
#     4  12  26  35  54  86 116 133 194 224 284 322
#     4  10  21  39  53  73 104 147 196 232 265 308
#     4   9  20  34  59  81 104 144 185 220 280 340
#
# _framework density 18.731539999999999
#
# number of rings (size 3 to 8) (size 9 to 14) (size 15 to 20)
#    1.000    1.000    0.000    3.000    7.000    0.000 
#    0.000    0.000    0.000    0.000    0.000    1.167 
#    0.000    0.000    0.000    0.000    0.000    0.000 
#
# Total GULP energy -133924.351053 kJ/mol
# GULP energy per Si atom -5580.181294 kJ/mol
# Density = 1.868891 g / cm^3
# Si number density = 18.731540 Si / 1000 Ang^3
#
#
#
# Elastic Constant Matrix: (Units=GPa)
#
#
# Indices 1 2 3 4 5 6 
#
# 1 98.7524 29.1634 -2.0588 0.0000 -20.3137 0.0000
# 2 29.1634 49.1740 -10.7727 0.0000 -4.9124 0.0000
# 3 -2.0588 -10.7727 63.3530 0.0000 -2.6727 0.0000
# 4 0.0000 0.0000 0.0000 7.3403 0.0000 -0.8205
# 5 -20.3137 -4.9124 -2.6727 0.0000 24.2675 0.0000
# 6 0.0000 0.0000 0.0000 -0.8205 0.0000 21.2069
#
#
#
# Elastic Compliance Matrix: (Units=1/GPa)
#
#
# Indices 1 2 3 4 5 6 
#
# 1 0.014560 -0.007660 -0.000382 0.000000 0.010595 0.000000
# 2 -0.007660 0.025699 0.004089 0.000000 -0.000760 0.000000
# 3 -0.000382 0.004089 0.016566 0.000000 0.002332 0.000000
# 4 0.000000 0.000000 0.000000 0.136826 0.000000 0.005294
# 5 0.010595 -0.000760 0.002332 0.000000 0.050179 0.000000
# 6 0.000000 0.000000 0.000000 0.005294 0.000000 0.047359
#
#
# Mechanical properties :
#
#
# Convention : Reuss Voigt Hill
#
# Bulk Modulus (GPa) = 20.44284 27.10481 23.77383
# Shear Modulus (GPa) = 15.85273 23.55943 19.70608
#
# Velocity S-wave (km/s) = 2.91230 3.55031 3.24702
# Velocity P-wave (km/s) = 4.71656 5.59534 5.17464
#
# Compressibility (1/GPa) = 0.04891687
#
# Stress axis : x y z
#
# Youngs Moduli (GPa) = 68.68102 38.91208 60.36526
#
# Poissons Ratio (x) = 0.29808 0.02309
# Poissons Ratio (y) = 0.52613 -0.24683
# Poissons Ratio (z) = 0.02627 -0.15911
#
# Static dielectric constant tensor:
#      x y z
#    x 1.679000 0.000000 -0.019970 
#    y 0.000000 1.643120 0.000000 
#    z -0.019970 0.000000 1.674070 
# 
# From -- ./inp_files/13222.got.cif
#   From: 2010.05.17/outbox.cif.g08.bks.cpg/sg15_7_cif.got.tgz:13222.got - 2010.06.03 18:47:42.
