data_PCOD9280934
_publ_section_title
;
Structure prediction by ZEFSAII (Michael W. Deem and Ramdas Pophale) SiO2 
 PCOD9280934
Probable space group: C 2/C
;
_chemical_formula_sum "Si O2"
_cell_formula_units_Z 48
_cell_length_a 22.515593
_cell_length_b 8.282681
_cell_length_c 10.657203
_cell_angle_alpha 90.000000
_cell_angle_beta 88.090821
_cell_angle_gamma 90.000000
_cell_volume 1986.352932
_symmetry_space_group_name_H-M "C 2/C"
_symmetry_group_IT_number 15
_symmetry_cell_setting 'monoclinic'
loop_
_space_group_symop_operation_xyz
x,y,z
-x,y,1/2-z
-x,-y,-z
x,-y,1/2+z
1/2+x,1/2+y,z
1/2-x,1/2+y,1/2-z
1/2-x,1/2-y,-z
1/2+x,1/2-y,1/2+z
loop_
_atom_site_type_symbol
_atom_site_label
_atom_site_fract_x
_atom_site_fract_y
_atom_site_fract_z
Si Si1 0.253487 0.007304 0.919415
Si Si2 0.524088 0.249325 0.044343
Si Si3 0.553651 0.439855 0.648299
Si Si4 0.767945 0.158170 0.828373
Si Si5 0.550460 0.025112 0.827607
Si Si6 0.849963 0.323961 0.303130
O O1 0.283193 0.840903 0.864699
O O2 0.213706 0.081340 0.807656
O O3 0.308070 0.134881 0.924561
O O4 0.224557 0.960890 0.053764
O O5 0.567052 0.376339 0.107814
O O6 0.481316 0.137612 0.129927
O O7 0.476291 0.349098 0.966569
O O8 0.560171 0.130682 0.950494
O O9 0.500000 0.459016 0.750000
O O10 0.609088 0.333027 0.688426
O O11 0.696998 0.180281 0.806765
O O12 0.500000 0.115050 0.750000
O O13 0.606345 0.028876 0.734370
#
# Coordination Sequence:
#
# PCOD9280934 Si02
#       6
#     8   8   8   8   8   8
#     4   9  21  41  68  95 132 169 223 287 338 399
#     4  10  22  33  64  85 138 169 210 271 323 377
#     4  11  20  40  55  91 131 168 217 267 317 393
#     4   9  21  41  67  97 128 170 221 284 343 399
#     4  11  20  38  57  94 127 166 215 263 319 397
#     4  10  21  37  67  87 134 173 219 270 332 406
#
# _framework density 24.164888999999999
#
# number of rings (size 3 to 8) (size 9 to 14) (size 15 to 20)
#    1.000    1.000    3.333    0.500    2.333    0.667 
#    0.000    6.667    0.000    0.000    0.000    0.000 
#    0.000    0.000    0.000    0.000    0.000    0.000 
#
# Total GULP energy -133821.662706 kJ/mol
# GULP energy per Si atom -5575.902613 kJ/mol
# Density = 2.410989 g / cm^3
# Si number density = 24.164889 Si / 1000 Ang^3
#
#
#
# Elastic Constant Matrix: (Units=GPa)
#
#
# Indices 1 2 3 4 5 6 
#
# 1 47.5025 -6.8668 2.3626 0.0000 -5.3173 0.0000
# 2 -6.8668 78.9052 35.0106 0.0000 0.9284 0.0000
# 3 2.3626 35.0106 92.8278 0.0000 9.4342 0.0000
# 4 0.0000 0.0000 0.0000 33.6008 0.0000 9.2290
# 5 -5.3173 0.9284 9.4342 0.0000 15.6700 0.0000
# 6 0.0000 0.0000 0.0000 9.2290 0.0000 19.6909
#
#
#
# Elastic Compliance Matrix: (Units=1/GPa)
#
#
# Indices 1 2 3 4 5 6 
#
# 1 0.022640 0.003037 -0.002646 0.000000 0.009096 0.000000
# 2 0.003037 0.015738 -0.006415 0.000000 0.003961 0.000000
# 3 -0.002646 -0.006415 0.014180 0.000000 -0.009055 0.000000
# 4 0.000000 0.000000 0.000000 0.034159 0.000000 -0.016010
# 5 0.009096 0.003961 -0.009055 0.000000 0.072119 0.000000
# 6 0.000000 0.000000 0.000000 -0.016010 0.000000 0.058289
#
#
# Mechanical properties :
#
#
# Convention : Reuss Voigt Hill
#
# Bulk Modulus (GPa) = 24.68556 31.13870 27.91213
# Shear Modulus (GPa) = 20.60359 26.37427 23.48893
#
# Velocity S-wave (km/s) = 2.92314 3.30726 3.12112
# Velocity P-wave (km/s) = 4.65088 5.24384 4.95624
#
# Compressibility (1/GPa) = 0.04050952
#
# Stress axis : x y z
#
# Youngs Moduli (GPa) = 44.16883 63.54154 70.52251
#
# Poissons Ratio (x) = -0.19300 0.18662
# Poissons Ratio (y) = -0.13416 0.45243
# Poissons Ratio (z) = 0.11688 0.40765
#
# Static dielectric constant tensor:
#      x y z
#    x 1.876260 0.000000 -0.004340 
#    y 0.000000 2.015090 0.000000 
#    z -0.004340 0.000000 2.049470 
# 
# From -- ./inp_files/121122.got.cif
#   From: 2010.05.17/outbox.cif.g08.bks.cpg/sg15_61_cif.got.tgz:121122.got - 2010.06.03 18:47:42.
