data_PCOD9280400
_publ_section_title
;
Structure prediction by ZEFSAII (Michael W. Deem and Ramdas Pophale) SiO2 
 PCOD9280400
Probable space group: C 2/C
;
_chemical_formula_sum "Si O2"
_cell_formula_units_Z 40
_cell_length_a 21.669974
_cell_length_b 5.413883
_cell_length_c 14.871278
_cell_angle_alpha 90.000000
_cell_angle_beta 96.559452
_cell_angle_gamma 90.000000
_cell_volume 1733.258142
_symmetry_space_group_name_H-M "C 2/C"
_symmetry_group_IT_number 15
_symmetry_cell_setting 'monoclinic'
loop_
_space_group_symop_operation_xyz
x,y,z
-x,y,1/2-z
-x,-y,-z
x,-y,1/2+z
1/2+x,1/2+y,z
1/2-x,1/2+y,1/2-z
1/2-x,1/2-y,-z
1/2+x,1/2-y,1/2+z
loop_
_atom_site_type_symbol
_atom_site_label
_atom_site_fract_x
_atom_site_fract_y
_atom_site_fract_z
Si Si1 0.439360 0.072886 0.544953
Si Si2 0.605865 0.987907 0.783211
Si Si3 0.367418 0.313736 0.386725
Si Si4 0.740523 0.165514 0.802739
Si Si5 0.023583 0.104610 0.165969
O O1 0.421737 0.902783 0.626304
O O2 0.384850 0.117743 0.465626
O O3 0.462983 0.317009 0.600987
O O4 0.500000 0.000000 0.500000
O O5 0.669133 0.133837 0.818835
O O6 0.559070 0.163098 0.719063
O O7 0.625819 0.784613 0.714480
O O8 0.295946 0.390629 0.382382
O O9 0.425064 0.501980 0.394065
O O10 0.748800 0.446864 0.769282
O O11 0.000000 0.953567 0.250000
#
# Coordination Sequence:
#
# PCOD9280400 Si02
#       5
#     8   8   8   8   8
#     4  11  23  38  61  94 126 164 212 261 319 389
#     4  10  22  41  60  88 126 162 212 260 318 379
#     4  11  22  39  65  85 126 166 206 268 319 377
#     4  10  21  41  68  93 125 173 220 264 322 385
#     4  10  21  37  59  88 123 160 204 256 318 381
#
# _framework density 23.077922999999998
#
# number of rings (size 3 to 8) (size 9 to 14) (size 15 to 20)
#    0.000    1.600    4.000    0.600    2.800    0.800 
#    0.000    0.000    0.000    7.200    0.000    0.000 
#    0.000    0.000    0.000    0.000    0.000    0.000 
#
# Total GULP energy -111466.002215 kJ/mol
# GULP energy per Si atom -5573.300111 kJ/mol
# Density = 2.302540 g / cm^3
# Si number density = 23.077923 Si / 1000 Ang^3
#
#
#
# Elastic Constant Matrix: (Units=GPa)
#
#
# Indices 1 2 3 4 5 6 
#
# 1 98.8536 -1.9243 24.7781 0.0000 20.1989 0.0000
# 2 -1.9243 32.4131 -0.3806 0.0000 -8.6039 0.0000
# 3 24.7781 -0.3806 100.9764 0.0000 -13.0319 0.0000
# 4 0.0000 0.0000 0.0000 24.0348 0.0000 3.2155
# 5 20.1989 -8.6039 -13.0319 0.0000 38.9062 0.0000
# 6 0.0000 0.0000 0.0000 3.2155 0.0000 28.2052
#
#
#
# Elastic Compliance Matrix: (Units=1/GPa)
#
#
# Indices 1 2 3 4 5 6 
#
# 1 0.012880 -0.001529 -0.004257 0.000000 -0.008451 0.000000
# 2 -0.001529 0.033076 0.001616 0.000000 0.008649 0.000000
# 3 -0.004257 0.001616 0.011795 0.000000 0.006518 0.000000
# 4 0.000000 0.000000 0.000000 0.042251 0.000000 -0.004817
# 5 -0.008451 0.008649 0.006518 0.000000 0.034186 0.000000
# 6 0.000000 0.000000 0.000000 -0.004817 0.000000 0.036004
#
#
# Mechanical properties :
#
#
# Convention : Reuss Voigt Hill
#
# Bulk Modulus (GPa) = 20.23794 30.79884 25.51839
# Shear Modulus (GPa) = 25.64083 32.21391 28.92737
#
# Velocity S-wave (km/s) = 3.33686 3.74020 3.54427
# Velocity P-wave (km/s) = 4.86155 5.65921 5.27548
#
# Compressibility (1/GPa) = 0.04941213
#
# Stress axis : x y z
#
# Youngs Moduli (GPa) = 77.63964 30.23352 84.77987
#
# Poissons Ratio (x) = 0.04621 0.36091
# Poissons Ratio (y) = 0.11868 -0.13701
# Poissons Ratio (z) = 0.33051 -0.04886
#
# Static dielectric constant tensor:
#      x y z
#    x 1.958860 0.000000 -0.009490 
#    y 0.000000 1.957930 0.000000 
#    z -0.009490 0.000000 1.909990 
# 
# From -- ./inp_files/170470.got.cif
#   From: 2010.05.17/outbox.cif.g08.bks.cpg/sg15_86_cif.got.tgz:170470.got - 2010.06.03 18:47:42.
