data_PCOD9280071
_publ_section_title
;
Structure prediction by ZEFSAII (Michael W. Deem and Ramdas Pophale) SiO2 
 PCOD9280071
Probable space group: C 2/C
;
_chemical_formula_sum "Si O2"
_cell_formula_units_Z 56
_cell_length_a 7.268673
_cell_length_b 14.790196
_cell_length_c 28.130862
_cell_angle_alpha 90.000000
_cell_angle_beta 124.565804
_cell_angle_gamma 90.000000
_cell_volume 2490.362616
_symmetry_space_group_name_H-M "C 2/C"
_symmetry_group_IT_number 15
_symmetry_cell_setting 'monoclinic'
loop_
_space_group_symop_operation_xyz
x,y,z
-x,y,1/2-z
-x,-y,-z
x,-y,1/2+z
1/2+x,1/2+y,z
1/2-x,1/2+y,1/2-z
1/2-x,1/2-y,-z
1/2+x,1/2-y,1/2+z
loop_
_atom_site_type_symbol
_atom_site_label
_atom_site_fract_x
_atom_site_fract_y
_atom_site_fract_z
Si Si1 0.954793 0.749302 0.588914
Si Si2 0.885164 0.338218 0.608951
Si Si3 0.205286 0.862710 0.311113
Si Si4 0.760047 0.085465 0.512432
Si Si5 0.966049 0.506295 0.690376
Si Si6 0.197634 0.609885 0.006754
Si Si7 0.433249 0.652460 0.865992
O O1 0.157115 0.783160 0.585268
O O2 0.090071 0.707514 0.652258
O O3 0.813405 0.672920 0.541029
O O4 0.797548 0.836219 0.566260
O O5 0.844397 0.378487 0.551139
O O6 0.903885 0.420064 0.649066
O O7 0.078266 0.261523 0.642445
O O8 0.313870 0.948540 0.300985
O O9 0.000000 0.826163 0.250000
O O10 0.096587 0.880934 0.346986
O O11 0.557764 0.086959 0.520428
O O12 0.951973 0.141755 0.565744
O O13 0.830862 0.981412 0.517642
O O14 0.778772 0.586099 0.664885
O O15 0.000000 0.478456 0.750000
#
# Coordination Sequence:
#
# PCOD9280071 Si02
#       7
#     8   8   8   8   8   8   8
#     4  10  22  40  63 101 133 181 227 293 346 423
#     4  11  25  42  67 106 141 183 235 295 353 436
#     4  11  23  46  73  94 136 184 238 300 359 420
#     4  11  22  41  63 101 147 181 224 288 354 437
#     4  12  27  48  73 100 139 190 242 301 368 432
#     4  10  21  36  64  96 139 178 228 271 359 421
#     4  11  25  47  70 106 144 188 235 296 364 426
#
# _framework density 22.486685999999999
#
# number of rings (size 3 to 8) (size 9 to 14) (size 15 to 20)
#    0.000    1.143    4.286    2.143    4.000    5.714 
#    0.000    0.714    0.000    0.000    0.000    0.000 
#    0.000    0.000    0.000    0.000    0.000    0.000 
#
# Total GULP energy -156337.904354 kJ/mol
# GULP energy per Si atom -5583.496584 kJ/mol
# Density = 2.243551 g / cm^3
# Si number density = 22.486686 Si / 1000 Ang^3
#
#
#
# Elastic Constant Matrix: (Units=GPa)
#
#
# Indices 1 2 3 4 5 6 
#
# 1 71.8435 27.8715 29.7013 0.0000 -15.2234 0.0000
# 2 27.8715 121.8377 46.7298 0.0000 -10.8759 0.0000
# 3 29.7013 46.7298 140.7281 0.0000 -10.5741 0.0000
# 4 0.0000 0.0000 0.0000 28.1672 0.0000 1.1562
# 5 -15.2234 -10.8759 -10.5741 0.0000 33.0808 0.0000
# 6 0.0000 0.0000 0.0000 1.1562 0.0000 10.1228
#
#
#
# Elastic Compliance Matrix: (Units=1/GPa)
#
#
# Indices 1 2 3 4 5 6 
#
# 1 0.017187 -0.002471 -0.002330 0.000000 0.006352 0.000000
# 2 -0.002471 0.009912 -0.002675 0.000000 0.001267 0.000000
# 3 -0.002330 -0.002675 0.008544 0.000000 0.000780 0.000000
# 4 0.000000 0.000000 0.000000 0.035670 0.000000 -0.004074
# 5 0.006352 0.001267 0.000780 0.000000 0.033818 0.000000
# 6 0.000000 0.000000 0.000000 -0.004074 0.000000 0.099252
#
#
# Mechanical properties :
#
#
# Convention : Reuss Voigt Hill
#
# Bulk Modulus (GPa) = 48.32677 60.33495 54.33086
# Shear Modulus (GPa) = 22.10136 29.61461 25.85799
#
# Velocity S-wave (km/s) = 3.13847 3.63296 3.39473
# Velocity P-wave (km/s) = 5.88823 6.66990 6.29122
#
# Compressibility (1/GPa) = 0.02069246
#
# Stress axis : x y z
#
# Youngs Moduli (GPa) = 58.18385 100.88979 117.03766
#
# Poissons Ratio (x) = 0.24932 0.27264
# Poissons Ratio (y) = 0.14378 0.31303
# Poissons Ratio (z) = 0.13554 0.26984
#
# Static dielectric constant tensor:
#      x y z
#    x 1.886230 0.000000 0.005430 
#    y 0.000000 1.879640 0.000000 
#    z 0.005430 0.000000 1.829230 
# 
# From -- ./inp_files/308056.got.cif
#   From: 2010.05.17/outbox.cif.g08.bks.cpg/sg15_155_cif.got.tgz:308056.got - 2010.06.03 18:47:42.
