data_PCOD9280745
_publ_section_title
;
Structure prediction by ZEFSAII (Michael W. Deem and Ramdas Pophale) SiO2 
 PCOD9280745
Probable space group: C 2/C
;
_chemical_formula_sum "Si O2"
_cell_formula_units_Z 60
_cell_length_a 21.774018
_cell_length_b 13.627907
_cell_length_c 13.479154
_cell_angle_alpha 90.000000
_cell_angle_beta 136.512334
_cell_angle_gamma 90.000000
_cell_volume 2752.605912
_symmetry_space_group_name_H-M "C 2/C"
_symmetry_group_IT_number 15
_symmetry_cell_setting 'monoclinic'
loop_
_space_group_symop_operation_xyz
x,y,z
-x,y,1/2-z
-x,-y,-z
x,-y,1/2+z
1/2+x,1/2+y,z
1/2-x,1/2+y,1/2-z
1/2-x,1/2-y,-z
1/2+x,1/2-y,1/2+z
loop_
_atom_site_type_symbol
_atom_site_label
_atom_site_fract_x
_atom_site_fract_y
_atom_site_fract_z
Si Si1 0.050347 0.097697 0.023241
Si Si2 0.662345 0.961399 0.307233
Si Si3 0.587702 0.027193 0.505797
Si Si4 0.000000 0.826629 0.250000
Si Si5 0.713266 0.526167 0.720335
Si Si6 0.919696 0.346315 0.758537
Si Si7 0.907158 0.669280 0.607930
Si Si8 0.896534 0.780910 0.412153
O O1 0.032095 0.115129 0.884636
O O2 0.000928 0.186853 0.022223
O O3 0.153542 0.071132 0.163900
O O4 0.000000 0.000000 0.000000
O O5 0.639757 0.061139 0.339259
O O6 0.591624 0.964490 0.131211
O O7 0.755459 0.966954 0.358327
O O8 0.647915 0.871038 0.363642
O O9 0.694376 0.031296 0.612657
O O10 0.479291 0.889212 0.611472
O O11 0.563420 0.925602 0.423461
O O12 0.923436 0.751550 0.197832
O O13 0.657512 0.622713 0.680772
O O14 0.884359 0.308602 0.822859
O O15 0.864949 0.744847 0.482051
O O16 0.000000 0.716013 0.750000
#
# Coordination Sequence:
#
# PCOD9280745 Si02
#       8
#     8   8   8   4   8   8   8   8
#     4   9  20  46  66  85 126 171 210 254 318 379
#     4  10  21  37  63  90 129 165 202 260 329 381
#     4  10  21  40  64  87 129 161 206 259 329 370
#     4  10  22  36  72  96 114 158 228 258 300 380
#     4   9  22  43  61  92 125 170 205 259 328 369
#     4  11  18  39  63  94 120 161 206 264 310 369
#     4  12  21  37  64  95 121 168 211 255 314 386
#     4  10  21  39  63  89 127 162 216 254 302 391
#
# _framework density 21.797526000000001
#
# number of rings (size 3 to 8) (size 9 to 14) (size 15 to 20)
#    0.800    1.067    2.667    2.000    0.000    0.533 
#   21.600    0.667    0.000    0.000    0.000    0.000 
#    0.000    0.000    0.000    0.000    0.000    0.000 
#
# Total GULP energy -167128.950842 kJ/mol
# GULP energy per Si atom -5570.965028 kJ/mol
# Density = 2.174791 g / cm^3
# Si number density = 21.797526 Si / 1000 Ang^3
#
#
#
# Elastic Constant Matrix: (Units=GPa)
#
#
# Indices 1 2 3 4 5 6 
#
# 1 79.8610 4.6054 26.5805 0.0000 -1.5933 0.0000
# 2 4.6054 55.7115 24.5701 0.0000 -6.2586 0.0000
# 3 26.5805 24.5701 57.3605 0.0000 -12.2554 0.0000
# 4 0.0000 0.0000 0.0000 15.2862 0.0000 -13.0102
# 5 -1.5933 -6.2586 -12.2554 0.0000 36.9913 0.0000
# 6 0.0000 0.0000 0.0000 -13.0102 0.0000 36.9958
#
#
#
# Elastic Compliance Matrix: (Units=1/GPa)
#
#
# Indices 1 2 3 4 5 6 
#
# 1 0.015134 0.002232 -0.008340 0.000000 -0.001733 0.000000
# 2 0.002232 0.022474 -0.010577 0.000000 0.000394 0.000000
# 3 -0.008340 -0.010577 0.027302 0.000000 0.006897 0.000000
# 4 0.000000 0.000000 0.000000 0.093362 0.000000 0.032832
# 5 -0.001733 0.000394 0.006897 0.000000 0.029310 0.000000
# 6 0.000000 0.000000 0.000000 0.032832 0.000000 0.038576
#
#
# Mechanical properties :
#
#
# Convention : Reuss Voigt Hill
#
# Bulk Modulus (GPa) = 31.70382 33.82725 32.76553
# Shear Modulus (GPa) = 18.51570 26.99980 22.75775
#
# Velocity S-wave (km/s) = 2.91768 3.52328 3.23468
# Velocity P-wave (km/s) = 5.09183 5.66603 5.38659
#
# Compressibility (1/GPa) = 0.03154194
#
# Stress axis : x y z
#
# Youngs Moduli (GPa) = 66.07574 44.49587 36.62720
#
# Poissons Ratio (x) = -0.09932 0.30546
# Poissons Ratio (y) = -0.14749 0.38740
# Poissons Ratio (z) = 0.55104 0.47062
#
# Static dielectric constant tensor:
#      x y z
#    x 1.907730 0.000000 -0.019370 
#    y 0.000000 1.772310 0.000000 
#    z -0.019370 0.000000 1.821480 
# 
# From -- ./inp_files/168279.got.cif
#   From: 2010.05.17/outbox.cif.g08.bks.cpg/sg15_85_cif.got.tgz:168279.got - 2010.06.03 18:47:42.
