data_PCOD9280814
_publ_section_title
;
Structure prediction by ZEFSAII (Michael W. Deem and Ramdas Pophale) SiO2 
 PCOD9280814
Probable space group: C 2/C
;
_chemical_formula_sum "Si O2"
_cell_formula_units_Z 52
_cell_length_a 13.236500
_cell_length_b 32.250004
_cell_length_c 8.462763
_cell_angle_alpha 90.000000
_cell_angle_beta 43.703259
_cell_angle_gamma 90.000000
_cell_volume 2496.002984
_symmetry_space_group_name_H-M "C 2/C"
_symmetry_group_IT_number 15
_symmetry_cell_setting 'monoclinic'
loop_
_space_group_symop_operation_xyz
x,y,z
-x,y,1/2-z
-x,-y,-z
x,-y,1/2+z
1/2+x,1/2+y,z
1/2-x,1/2+y,1/2-z
1/2-x,1/2-y,-z
1/2+x,1/2-y,1/2+z
loop_
_atom_site_type_symbol
_atom_site_label
_atom_site_fract_x
_atom_site_fract_y
_atom_site_fract_z
Si Si1 0.683396 0.528912 0.125073
Si Si2 0.500000 0.939659 0.250000
Si Si3 0.528817 0.129235 0.452497
Si Si4 0.682802 0.721480 0.712463
Si Si5 0.956134 0.277747 0.122316
Si Si6 0.740735 0.629712 0.558992
Si Si7 0.573109 0.445228 0.400470
O O1 0.623829 0.483001 0.230760
O O2 0.597733 0.554630 0.358295
O O3 0.856681 0.532688 0.935923
O O4 0.642270 0.545274 0.996350
O O5 0.504050 0.907763 0.390795
O O6 0.523843 0.176197 0.523279
O O7 0.389541 0.128441 0.494120
O O8 0.687352 0.123021 0.193591
O O9 0.750000 0.750000 0.500000
O O10 0.790334 0.720444 0.744956
O O11 0.673409 0.675067 0.657679
O O12 0.533519 0.743404 0.927495
O O13 0.000000 0.266170 0.250000
O O14 0.631343 0.595754 0.751719
#
# Coordination Sequence:
#
# PCOD9280814 Si02
#       7
#     8   4   8   8   8   8   8
#     4  10  24  41  67  87 132 163 207 262 317 376
#     4  12  22  40  62 104 118 164 210 264 308 384
#     4  10  21  37  64  91 129 163 212 265 318 375
#     4  11  22  41  65  92 125 171 217 264 319 387
#     4  11  22  41  61  92 132 172 209 269 331 377
#     4  10  21  41  64  89 124 172 211 260 319 384
#     4  10  22  46  62  91 125 170 203 260 321 373
#
# _framework density 20.833307999999999
#
# number of rings (size 3 to 8) (size 9 to 14) (size 15 to 20)
#    0.000    1.538    3.846    0.923    2.154    1.846 
#    5.538    0.000    0.000    0.000    0.000    0.000 
#    0.000    0.000    0.000    0.000    0.000    0.000 
#
# Total GULP energy -145107.838711 kJ/mol
# GULP energy per Si atom -5581.070720 kJ/mol
# Density = 2.078589 g / cm^3
# Si number density = 20.833308 Si / 1000 Ang^3
#
#
#
# Elastic Constant Matrix: (Units=GPa)
#
#
# Indices 1 2 3 4 5 6 
#
# 1 42.9570 9.3275 17.7010 0.0000 -10.1846 0.0000
# 2 9.3275 123.4860 63.6413 0.0000 -7.0049 0.0000
# 3 17.7010 63.6413 127.5295 0.0000 -22.7043 0.0000
# 4 0.0000 0.0000 0.0000 48.7045 0.0000 -8.9299
# 5 -10.1846 -7.0049 -22.7043 0.0000 33.7150 0.0000
# 6 0.0000 0.0000 0.0000 -8.9299 0.0000 22.4167
#
#
#
# Elastic Compliance Matrix: (Units=1/GPa)
#
#
# Indices 1 2 3 4 5 6 
#
# 1 0.025768 -0.000430 -0.002264 0.000000 0.006170 0.000000
# 2 -0.000430 0.010985 -0.005725 0.000000 -0.001703 0.000000
# 3 -0.002264 -0.005725 0.012134 0.000000 0.006298 0.000000
# 4 0.000000 0.000000 0.000000 0.022150 0.000000 0.008824
# 5 0.006170 -0.001703 0.006298 0.000000 0.035412 0.000000
# 6 0.000000 0.000000 0.000000 0.008824 0.000000 0.048124
#
#
# Mechanical properties :
#
#
# Convention : Reuss Voigt Hill
#
# Bulk Modulus (GPa) = 31.20196 52.81248 42.00722
# Shear Modulus (GPa) = 27.45858 34.52076 30.98967
#
# Velocity S-wave (km/s) = 3.63438 4.07504 3.86100
# Velocity P-wave (km/s) = 5.71149 6.89538 6.33117
#
# Compressibility (1/GPa) = 0.03204927
#
# Stress axis : x y z
#
# Youngs Moduli (GPa) = 38.80773 91.03694 82.41454
#
# Poissons Ratio (x) = 0.03913 0.18655
# Poissons Ratio (y) = 0.01668 0.47184
# Poissons Ratio (z) = 0.08785 0.52120
#
# Static dielectric constant tensor:
#      x y z
#    x 1.793370 0.000000 0.027960 
#    y 0.000000 1.707020 0.000000 
#    z 0.027960 0.000000 1.734180 
# 
# From -- ./inp_files/44775.got.cif
#   From: 2010.05.17/outbox.cif.g08.bks.cpg/sg15_23_cif.got.tgz:44775.got - 2010.06.03 18:47:42.
