data_PCOD9280731
_publ_section_title
;
Structure prediction by ZEFSAII (Michael W. Deem and Ramdas Pophale) SiO2 
 PCOD9280731
Probable space group: C 2/C
;
_chemical_formula_sum "Si O2"
_cell_formula_units_Z 64
_cell_length_a 31.608312
_cell_length_b 14.694003
_cell_length_c 21.151805
_cell_angle_alpha 90.000000
_cell_angle_beta 15.207857
_cell_angle_gamma 90.000000
_cell_volume 2577.049522
_symmetry_space_group_name_H-M "C 2/C"
_symmetry_group_IT_number 15
_symmetry_cell_setting 'monoclinic'
loop_
_space_group_symop_operation_xyz
x,y,z
-x,y,1/2-z
-x,-y,-z
x,-y,1/2+z
1/2+x,1/2+y,z
1/2-x,1/2+y,1/2-z
1/2-x,1/2-y,-z
1/2+x,1/2-y,1/2+z
loop_
_atom_site_type_symbol
_atom_site_label
_atom_site_fract_x
_atom_site_fract_y
_atom_site_fract_z
Si Si1 0.828658 0.438258 0.133749
Si Si2 0.513782 0.810901 0.302304
Si Si3 0.696241 0.628113 0.334758
Si Si4 0.230236 0.205287 0.416158
Si Si5 0.719117 0.963611 0.572662
Si Si6 0.099816 0.268285 0.384084
Si Si7 0.185488 0.587088 0.988074
Si Si8 0.203788 0.846944 0.512723
O O1 0.723496 0.522262 0.311067
O O2 0.832881 0.341742 0.162670
O O3 0.758860 0.425702 0.163716
O O4 0.021432 0.464991 0.858884
O O5 0.500000 0.843105 0.250000
O O6 0.368755 0.842050 0.555388
O O7 0.678461 0.843406 0.096699
O O8 0.535630 0.701198 0.269658
O O9 0.647977 0.677994 0.468970
O O10 0.588949 0.669320 0.432616
O O11 0.219181 0.129067 0.485252
O O12 0.183204 0.305317 0.506261
O O13 0.419790 0.205645 0.125451
O O14 0.765460 0.963102 0.431763
O O15 0.791834 0.046872 0.507585
O O16 0.212100 0.284283 0.161789
O O17 0.000000 0.556334 0.250000
#
# Coordination Sequence:
#
# PCOD9280731 Si02
#       8
#     8   8   8   8   8   8   8   8
#     4  10  21  37  63  91 117 159 209 244 297 362
#     4  11  23  36  58  88 126 158 194 246 306 356
#     4  12  22  39  64  90 125 163 199 253 301 362
#     4  11  22  42  62  89 121 162 201 252 302 355
#     4  10  21  37  63  87 119 157 211 249 289 362
#     4  11  22  39  63  90 122 159 202 247 302 362
#     4  10  22  40  64  89 119 157 203 257 300 353
#     4  11  22  37  60  92 120 158 201 249 300 356
#
# _framework density 24.834603000000001
#
# number of rings (size 3 to 8) (size 9 to 14) (size 15 to 20)
#    0.000    1.250    5.000    1.125    1.750    2.000 
#    0.000    2.500    0.000    0.000    0.000    0.000 
#    0.000    0.000    0.000    0.000    0.000    0.000 
#
# Total GULP energy -178883.252074 kJ/mol
# GULP energy per Si atom -5590.101627 kJ/mol
# Density = 2.477808 g / cm^3
# Si number density = 24.834603 Si / 1000 Ang^3
#
#
#
# Elastic Constant Matrix: (Units=GPa)
#
#
# Indices 1 2 3 4 5 6 
#
# 1 111.9464 2.5394 1.0970 -0.0009 6.5037 0.0003
# 2 2.5394 96.2902 -4.5441 -0.0015 -5.8764 0.0004
# 3 1.0970 -4.5441 49.4862 -0.0009 -7.7167 0.0003
# 4 -0.0009 -0.0015 -0.0009 26.2975 0.0000 -1.0282
# 5 6.5037 -5.8764 -7.7167 0.0000 13.0010 0.0000
# 6 0.0003 0.0004 0.0003 -1.0282 0.0000 28.3056
#
#
#
# Elastic Compliance Matrix: (Units=1/GPa)
#
#
# Indices 1 2 3 4 5 6 
#
# 1 0.009285 -0.000641 -0.001140 0.000000 -0.005611 0.000000
# 2 -0.000641 0.010891 0.002019 0.000001 0.006441 0.000000
# 3 -0.001140 0.002019 0.022756 0.000001 0.014989 0.000000
# 4 0.000000 0.000001 0.000001 0.038081 0.000001 0.001383
# 5 -0.005611 0.006441 0.014989 0.000001 0.091532 0.000000
# 6 0.000000 0.000000 0.000000 0.001383 0.000000 0.035379
#
#
# Mechanical properties :
#
#
# Convention : Reuss Voigt Hill
#
# Bulk Modulus (GPa) = 23.03790 28.43416 25.73603
# Shear Modulus (GPa) = 22.53118 30.76286 26.64702
#
# Velocity S-wave (km/s) = 3.01533 3.52335 3.27919
# Velocity P-wave (km/s) = 4.62813 5.29398 4.97222
#
# Compressibility (1/GPa) = 0.04340674
#
# Stress axis : x y z
#
# Youngs Moduli (GPa) = 107.70622 91.82277 43.94522
#
# Poissons Ratio (x) = 0.05886 0.05008
# Poissons Ratio (y) = 0.06904 -0.08871
# Poissons Ratio (z) = 0.12274 -0.18536
#
# Static dielectric constant tensor:
#      x y z
#    x 1.971290 0.000000 -0.019070 
#    y 0.000000 2.024470 0.000000 
#    z -0.019070 0.000000 1.972620 
# 
# From -- ./inp_files/259424.got.cif
#   From: 2010.05.17/outbox.cif.g08.bks.cpg/sg15_130_cif.got.tgz:259424.got - 2010.06.03 18:47:42.
