data_PCOD9280436
_publ_section_title
;
Structure prediction by ZEFSAII (Michael W. Deem and Ramdas Pophale) SiO2 
 PCOD9280436
Probable space group: C 2/C
;
_chemical_formula_sum "Si O2"
_cell_formula_units_Z 44
_cell_length_a 13.318132
_cell_length_b 25.180366
_cell_length_c 9.193992
_cell_angle_alpha 90.000000
_cell_angle_beta 129.642975
_cell_angle_gamma 90.000000
_cell_volume 2374.214192
_symmetry_space_group_name_H-M "C 2/C"
_symmetry_group_IT_number 15
_symmetry_cell_setting 'monoclinic'
loop_
_space_group_symop_operation_xyz
x,y,z
-x,y,1/2-z
-x,-y,-z
x,-y,1/2+z
1/2+x,1/2+y,z
1/2-x,1/2+y,1/2-z
1/2-x,1/2-y,-z
1/2+x,1/2-y,1/2+z
loop_
_atom_site_type_symbol
_atom_site_label
_atom_site_fract_x
_atom_site_fract_y
_atom_site_fract_z
Si Si1 0.179624 0.488828 0.657583
Si Si2 0.348625 0.700575 0.266761
Si Si3 0.000000 0.493826 0.250000
Si Si4 0.819816 0.096868 0.733243
Si Si5 0.649963 0.293480 0.081452
Si Si6 0.120944 0.909385 0.553980
O O1 0.080670 0.477009 0.698368
O O2 0.214445 0.551437 0.675299
O O3 0.312081 0.459885 0.814268
O O4 0.112305 0.466729 0.449284
O O5 0.494513 0.716378 0.456508
O O6 0.239356 0.743562 0.205966
O O7 0.330653 0.642732 0.317629
O O8 0.341584 0.696733 0.084741
O O9 0.799404 0.155020 0.783727
O O10 0.836113 0.097128 0.573963
O O11 0.965955 0.083875 0.923206
#
# Coordination Sequence:
#
# PCOD9280436 Si02
#       6
#     8   8   4   8   8   8
#     4  11  21  42  54  86 113 155 186 232 282 341
#     4   9  19  37  56  82 111 146 190 236 280 334
#     4  10  24  38  58  74 128 150 188 228 276 344
#     4  10  21  37  60  84 113 146 190 238 281 333
#     4   9  19  37  56  82 111 146 190 236 280 334
#     4  10  21  37  60  84 113 146 190 238 281 333
#
# _framework density 18.532447000000001
#
# number of rings (size 3 to 8) (size 9 to 14) (size 15 to 20)
#    0.000    2.182    1.818    0.545    2.545    0.727 
#    6.545    0.000    0.000    0.000    0.000    0.000 
#    0.000    0.000    0.000    0.000    0.000    0.000 
#
# Total GULP energy -122507.445381 kJ/mol
# GULP energy per Si atom -5568.520245 kJ/mol
# Density = 1.849027 g / cm^3
# Si number density = 18.532447 Si / 1000 Ang^3
#
#
#
# Elastic Constant Matrix: (Units=GPa)
#
#
# Indices 1 2 3 4 5 6 
#
# 1 35.9555 11.6980 -1.7727 0.0000 3.8108 0.0000
# 2 11.6980 60.3854 16.9111 0.0000 12.5781 0.0000
# 3 -1.7727 16.9111 64.6838 0.0000 -3.4370 0.0000
# 4 0.0000 0.0000 0.0000 29.2507 0.0000 6.0583
# 5 3.8108 12.5781 -3.4370 0.0000 15.7654 0.0000
# 6 0.0000 0.0000 0.0000 6.0583 0.0000 15.4121
#
#
#
# Elastic Compliance Matrix: (Units=1/GPa)
#
#
# Indices 1 2 3 4 5 6 
#
# 1 0.030108 -0.006080 0.002312 0.000000 -0.001923 0.000000
# 2 -0.006080 0.023797 -0.007405 0.000000 -0.019130 0.000000
# 3 0.002312 -0.007405 0.017951 0.000000 0.009262 0.000000
# 4 0.000000 0.000000 0.000000 0.037217 0.000000 -0.014630
# 5 -0.001923 -0.019130 0.009262 0.000000 0.081177 0.000000
# 6 0.000000 0.000000 0.000000 -0.014630 0.000000 0.070635
#
#
# Mechanical properties :
#
#
# Convention : Reuss Voigt Hill
#
# Bulk Modulus (GPa) = 20.19703 23.85527 22.02615
# Shear Modulus (GPa) = 16.68156 21.03153 18.85655
#
# Velocity S-wave (km/s) = 3.00347 3.37241 3.19327
# Velocity P-wave (km/s) = 4.79058 5.29757 5.05044
#
# Compressibility (1/GPa) = 0.04951224
#
# Stress axis : x y z
#
# Youngs Moduli (GPa) = 33.21375 42.02292 55.70655
#
# Poissons Ratio (x) = 0.25548 -0.12882
# Poissons Ratio (y) = 0.20193 0.41248
# Poissons Ratio (z) = -0.07680 0.31116
#
# Static dielectric constant tensor:
#      x y z
#    x 1.649700 0.000000 0.009430 
#    y 0.000000 1.608240 0.000000 
#    z 0.009430 0.000000 1.664900 
# 
# From -- ./inp_files/34000.got.cif
#   From: 2010.05.17/outbox.cif.g08.bks.cpg/sg15_17_cif.got.tgz:34000.got - 2010.06.03 18:47:42.
