data_PCOD9280210
_publ_section_title
;
Structure prediction by ZEFSAII (Michael W. Deem and Ramdas Pophale) SiO2 
 PCOD9280210
Probable space group: C 2/C
;
_chemical_formula_sum "Si O2"
_cell_formula_units_Z 60
_cell_length_a 20.299473
_cell_length_b 16.554929
_cell_length_c 26.531211
_cell_angle_alpha 90.000000
_cell_angle_beta 21.124026
_cell_angle_gamma 90.000000
_cell_volume 3213.212696
_symmetry_space_group_name_H-M "C 2/C"
_symmetry_group_IT_number 15
_symmetry_cell_setting 'monoclinic'
loop_
_space_group_symop_operation_xyz
x,y,z
-x,y,1/2-z
-x,-y,-z
x,-y,1/2+z
1/2+x,1/2+y,z
1/2-x,1/2+y,1/2-z
1/2-x,1/2-y,-z
1/2+x,1/2-y,1/2+z
loop_
_atom_site_type_symbol
_atom_site_label
_atom_site_fract_x
_atom_site_fract_y
_atom_site_fract_z
Si Si1 0.000000 0.558867 0.750000
Si Si2 0.803504 0.526368 0.300663
Si Si3 0.701972 0.327572 0.499120
Si Si4 0.908015 0.518326 0.490664
Si Si5 0.402297 0.247224 0.032349
Si Si6 0.323155 0.888559 0.147373
Si Si7 0.560843 0.611680 0.919075
Si Si8 0.110582 0.114151 0.218023
O O1 0.124308 0.506116 0.697758
O O2 0.117446 0.619339 0.632258
O O3 0.652150 0.594950 0.418333
O O4 0.684567 0.455723 0.358918
O O5 0.979300 0.544206 0.139469
O O6 0.750000 0.250000 0.500000
O O7 0.635027 0.295503 0.492642
O O8 0.547805 0.390630 0.627968
O O9 0.848477 0.590459 0.570510
O O10 0.726287 0.462228 0.615826
O O11 0.052650 0.458419 0.415140
O O12 0.388003 0.305321 0.090068
O O13 0.250079 0.177958 0.141234
O O14 0.590084 0.197439 0.900231
O O15 0.125563 0.892522 0.314819
O O16 0.000000 0.150369 0.250000
#
# Coordination Sequence:
#
# PCOD9280210 Si02
#       8
#     4   8   8   8   8   8   8   8
#     4  12  24  38  56  86 120 164 194 242 290 362
#     4  10  22  38  57  80 116 155 200 240 293 340
#     4  12  23  33  54  83 124 161 192 226 290 357
#     4   9  20  37  54  79 112 153 198 242 278 344
#     4  11  21  35  55  88 117 153 191 242 293 352
#     4   9  20  35  57  79 112 149 198 242 287 334
#     4  10  21  37  56  83 114 156 198 243 287 350
#     4  11  21  33  54  82 118 156 189 230 283 352
#
# _framework density 18.672899999999998
#
# number of rings (size 3 to 8) (size 9 to 14) (size 15 to 20)
#    0.000    1.600    2.667    2.400    5.600    4.267 
#    0.000    0.000    0.000    0.000    1.733    1.867 
#    0.000    0.000    0.000    0.000    0.000    0.000 
#
# Total GULP energy -167155.644352 kJ/mol
# GULP energy per Si atom -5571.854812 kJ/mol
# Density = 1.863040 g / cm^3
# Si number density = 18.672900 Si / 1000 Ang^3
#
#
#
# Elastic Constant Matrix: (Units=GPa)
#
#
# Indices 1 2 3 4 5 6 
#
# 1 49.9131 17.1895 18.1975 0.0390 2.8068 -0.0383
# 2 17.1895 37.0818 20.1934 -0.0605 -3.5800 0.0254
# 3 18.1975 20.1934 117.4493 -0.1396 3.9329 0.0913
# 4 0.0390 -0.0605 -0.1396 -91.9762 0.0009 91.2518
# 5 2.8068 -3.5800 3.9329 0.0009 19.7640 0.0018
# 6 -0.0383 0.0254 0.0913 91.2518 0.0018 -48.5638
#
#
#
# Elastic Compliance Matrix: (Units=1/GPa)
#
#
# Indices 1 2 3 4 5 6 
#
# 1 0.024763 -0.011013 -0.001770 0.000009 -0.005159 -0.000011
# 2 -0.011013 0.035491 -0.004695 0.000003 0.008927 0.000023
# 3 -0.001770 -0.004695 0.009680 -0.000005 -0.002525 0.000007
# 4 0.000009 0.000003 -0.000005 0.012581 -0.000003 0.023639
# 5 -0.005159 0.008927 -0.002525 -0.000003 0.053449 0.000001
# 6 -0.000011 0.000023 0.000007 0.023639 0.000001 0.023827
#
#
# Mechanical properties :
#
#
# Convention : Reuss Voigt Hill
#
# Bulk Modulus (GPa) = 28.58934 35.06721 31.82827
# Shear Modulus (GPa) = 24.22401 -14.23093 4.99654
#
# Velocity S-wave (km/s) = 3.60569 -2.76364 1.63757
# Velocity P-wave (km/s) = 5.71651 2.93886 4.54507
#
# Compressibility (1/GPa) = 0.03497807
#
# Stress axis : x y z
#
# Youngs Moduli (GPa) = 40.38256 28.17627 103.30211
#
# Poissons Ratio (x) = 0.31031 0.18290
# Poissons Ratio (y) = 0.44473 0.48497
# Poissons Ratio (z) = 0.07150 0.13228
#
# Static dielectric constant tensor:
#      x y z
#    x 1.671030 0.000000 0.041060 
#    y 0.000000 1.637450 0.000030 
#    z 0.041060 0.000030 1.757970 
# 
# From -- ./inp_files/56682.got.cif
#   From: 2010.05.17/outbox.cif.g08.bks.cpg/sg15_29_cif.got.tgz:56682.got - 2010.06.03 18:47:42.
