data_PCOD9280445
_publ_section_title
;
Structure prediction by ZEFSAII (Michael W. Deem and Ramdas Pophale) SiO2 
 PCOD9280445
Probable space group: C 2/C
;
_chemical_formula_sum "Si O2"
_cell_formula_units_Z 40
_cell_length_a 16.191537
_cell_length_b 9.807841
_cell_length_c 25.015774
_cell_angle_alpha 90.000000
_cell_angle_beta 146.401255
_cell_angle_gamma 90.000000
_cell_volume 2198.333827
_symmetry_space_group_name_H-M "C 2/C"
_symmetry_group_IT_number 15
_symmetry_cell_setting 'monoclinic'
loop_
_space_group_symop_operation_xyz
x,y,z
-x,y,1/2-z
-x,-y,-z
x,-y,1/2+z
1/2+x,1/2+y,z
1/2-x,1/2+y,1/2-z
1/2-x,1/2-y,-z
1/2+x,1/2-y,1/2+z
loop_
_atom_site_type_symbol
_atom_site_label
_atom_site_fract_x
_atom_site_fract_y
_atom_site_fract_z
Si Si1 0.671460 0.309663 0.905052
Si Si2 0.291367 0.619579 0.883379
Si Si3 0.664824 0.675253 0.238702
Si Si4 0.362488 0.319648 0.903509
Si Si5 0.322099 0.017445 0.905984
O O1 0.685529 0.190068 0.869342
O O2 0.502190 0.339933 0.828688
O O3 0.752141 0.437769 0.919256
O O4 0.750000 0.250000 0.000000
O O5 0.238484 0.683479 0.798889
O O6 0.289372 0.457827 0.885626
O O7 0.460894 0.669040 0.987139
O O8 0.656521 0.674696 0.170653
O O9 0.757351 0.556679 0.318294
O O10 0.296177 0.179354 0.890268
O O11 0.500000 0.000000 0.000000
#
# Coordination Sequence:
#
# PCOD9280445 Si02
#       5
#     8   8   8   8   8
#     4  11  21  40  62  85 119 164 199 237 301 366
#     4  10  21  37  60  86 120 151 198 246 299 356
#     4  11  21  39  63  86 116 165 197 240 308 361
#     4  11  21  37  61  89 117 151 201 254 292 352
#     4  11  20  37  60  90 119 155 203 251 291 361
#
# _framework density 18.195599000000001
#
# number of rings (size 3 to 8) (size 9 to 14) (size 15 to 20)
#    0.000    1.200    6.000    3.600    0.000    0.000 
#    0.000    5.000    0.000    0.000    0.000    0.000 
#    0.000    0.000    0.000    0.000    0.000    0.000 
#
# Total GULP energy -111610.373957 kJ/mol
# GULP energy per Si atom -5580.518698 kJ/mol
# Density = 1.815419 g / cm^3
# Si number density = 18.195599 Si / 1000 Ang^3
#
#
#
# Elastic Constant Matrix: (Units=GPa)
#
#
# Indices 1 2 3 4 5 6 
#
# 1 79.4354 48.2229 42.0860 0.0000 -13.3641 0.0000
# 2 48.2229 175.5033 41.1573 0.0000 -0.4152 0.0000
# 3 42.0860 41.1573 119.4942 0.0000 3.4997 0.0000
# 4 0.0000 0.0000 0.0000 30.4448 0.0000 -0.7328
# 5 -13.3641 -0.4152 3.4997 0.0000 22.9691 0.0000
# 6 0.0000 0.0000 0.0000 -0.7328 0.0000 14.9969
#
#
#
# Elastic Compliance Matrix: (Units=1/GPa)
#
#
# Indices 1 2 3 4 5 6 
#
# 1 0.020549 -0.004167 -0.006177 0.000000 0.012822 0.000000
# 2 -0.004167 0.007048 -0.000897 0.000000 -0.002161 0.000000
# 3 -0.006177 -0.000897 0.011008 0.000000 -0.005288 0.000000
# 4 0.000000 0.000000 0.000000 0.032885 0.000000 0.001607
# 5 0.012822 -0.002161 -0.005288 0.000000 0.051763 0.000000
# 6 0.000000 0.000000 0.000000 0.001607 0.000000 0.066759
#
#
# Mechanical properties :
#
#
# Convention : Reuss Voigt Hill
#
# Bulk Modulus (GPa) = 62.02611 70.81836 66.42223
# Shear Modulus (GPa) = 22.94961 29.87994 26.41478
#
# Velocity S-wave (km/s) = 3.55529 4.05674 3.81427
# Velocity P-wave (km/s) = 7.14255 7.80692 7.48211
#
# Compressibility (1/GPa) = 0.01612224
#
# Stress axis : x y z
#
# Youngs Moduli (GPa) = 48.66505 141.88330 90.84294
#
# Poissons Ratio (x) = 0.59124 0.56118
# Poissons Ratio (y) = 0.20279 0.08145
# Poissons Ratio (z) = 0.30063 0.12721
#
# Static dielectric constant tensor:
#      x y z
#    x 1.610060 0.000000 -0.029690 
#    y 0.000000 1.561760 0.000000 
#    z -0.029690 0.000000 1.665480 
# 
# From -- ./inp_files/208877.got.cif
#   From: 2010.05.17/outbox.cif.g08.bks.cpg/sg15_105_cif.got.tgz:208877.got - 2010.06.03 18:47:42.
