data_PCOD9280990
_publ_section_title
;
Structure prediction by ZEFSAII (Michael W. Deem and Ramdas Pophale) SiO2 
 PCOD9280990
Probable space group: C 2/C
;
_chemical_formula_sum "Si O2"
_cell_formula_units_Z 48
_cell_length_a 25.649222
_cell_length_b 14.024998
_cell_length_c 7.628467
_cell_angle_alpha 90.000000
_cell_angle_beta 116.303269
_cell_angle_gamma 90.000000
_cell_volume 2460.060283
_symmetry_space_group_name_H-M "C 2/C"
_symmetry_group_IT_number 15
_symmetry_cell_setting 'monoclinic'
loop_
_space_group_symop_operation_xyz
x,y,z
-x,y,1/2-z
-x,-y,-z
x,-y,1/2+z
1/2+x,1/2+y,z
1/2-x,1/2+y,1/2-z
1/2-x,1/2-y,-z
1/2+x,1/2-y,1/2+z
loop_
_atom_site_type_symbol
_atom_site_label
_atom_site_fract_x
_atom_site_fract_y
_atom_site_fract_z
Si Si1 0.133877 0.203789 0.139889
Si Si2 0.986375 0.109347 0.433732
Si Si3 0.759554 0.076444 0.320540
Si Si4 0.832854 0.691907 0.471635
Si Si5 0.791627 0.877020 0.246993
Si Si6 0.597105 0.286887 0.203070
O O1 0.187795 0.132742 0.193347
O O2 0.148941 0.283658 0.305366
O O3 0.078872 0.141912 0.122972
O O4 0.117709 0.244302 0.925055
O O5 0.032126 0.175981 0.603458
O O6 0.000000 0.122760 0.250000
O O7 0.000000 0.000000 0.500000
O O8 0.701233 0.096826 0.125132
O O9 0.755714 0.115687 0.513469
O O10 0.776092 0.965705 0.343649
O O11 0.788320 0.776843 0.342470
O O12 0.887137 0.709793 0.421848
O O13 0.859572 0.874894 0.286993
#
# Coordination Sequence:
#
# PCOD9280990 Si02
#       6
#     8   8   8   8   8   8
#     4  11  21  33  54  75 105 147 186 219 267 320
#     4  12  21  34  52  76 111 146 186 224 265 331
#     4  11  20  35  55  79 112 149 184 225 277 323
#     4  10  21  38  54  76 112 152 181 231 269 323
#     4   9  20  33  52  78 108 144 182 222 267 326
#     4   9  21  36  51  77 110 146 183 220 270 322
#
# _framework density 19.511716
#
# number of rings (size 3 to 8) (size 9 to 14) (size 15 to 20)
#    1.000    0.667    1.667    4.500    0.000    4.000 
#    0.000    0.000    0.000    0.000    0.000    0.000 
#    0.000   12.000    0.000    0.000    0.000    0.000 
#
# Total GULP energy -133941.168513 kJ/mol
# GULP energy per Si atom -5580.882021 kJ/mol
# Density = 1.946731 g / cm^3
# Si number density = 19.511716 Si / 1000 Ang^3
#
#
#
# Elastic Constant Matrix: (Units=GPa)
#
#
# Indices 1 2 3 4 5 6 
#
# 1 62.9493 5.5662 15.8734 0.0000 3.9362 0.0000
# 2 5.5662 17.1675 6.1082 0.0000 1.7402 0.0000
# 3 15.8734 6.1082 95.2140 0.0000 -14.6095 0.0000
# 4 0.0000 0.0000 0.0000 20.6913 0.0000 5.0222
# 5 3.9362 1.7402 -14.6095 0.0000 33.6080 0.0000
# 6 0.0000 0.0000 0.0000 5.0222 0.0000 11.9556
#
#
#
# Elastic Compliance Matrix: (Units=1/GPa)
#
#
# Indices 1 2 3 4 5 6 
#
# 1 0.017230 -0.004169 -0.003087 0.000000 -0.003144 0.000000
# 2 -0.004169 0.061442 -0.003921 0.000000 -0.004398 0.000000
# 3 -0.003087 -0.003921 0.012167 0.000000 0.005854 0.000000
# 4 0.000000 0.000000 0.000000 0.053817 0.000000 -0.022607
# 5 -0.003144 -0.004398 0.005854 0.000000 0.032895 0.000000
# 6 0.000000 0.000000 0.000000 -0.022607 0.000000 0.093139
#
#
# Mechanical properties :
#
#
# Convention : Reuss Voigt Hill
#
# Bulk Modulus (GPa) = 14.60215 25.60295 20.10255
# Shear Modulus (GPa) = 15.82911 23.10318 19.46615
#
# Velocity S-wave (km/s) = 2.85136 3.44476 3.16201
# Velocity P-wave (km/s) = 4.28256 5.38258 4.86377
#
# Compressibility (1/GPa) = 0.06848308
#
# Stress axis : x y z
#
# Youngs Moduli (GPa) = 58.03977 16.27545 82.18867
#
# Poissons Ratio (x) = 0.06785 0.25375
# Poissons Ratio (y) = 0.24198 0.32230
# Poissons Ratio (z) = 0.17919 0.06382
#
# Static dielectric constant tensor:
#      x y z
#    x 1.702970 0.000000 -0.017260 
#    y 0.000000 1.658150 0.000000 
#    z -0.017260 0.000000 1.731670 
# 
# From -- ./inp_files/62296.got.cif
#   From: 2010.05.17/outbox.cif.g08.bks.cpg/sg15_32_cif.got.tgz:62296.got - 2010.06.03 18:47:42.
