data_PCOD9280858
_publ_section_title
;
Structure prediction by ZEFSAII (Michael W. Deem and Ramdas Pophale) SiO2 
 PCOD9280858
Probable space group: C 2/C
;
_chemical_formula_sum "Si O2"
_cell_formula_units_Z 56
_cell_length_a 17.684281
_cell_length_b 15.650213
_cell_length_c 21.306223
_cell_angle_alpha 90.000000
_cell_angle_beta 28.905556
_cell_angle_gamma 90.000000
_cell_volume 2850.305249
_symmetry_space_group_name_H-M "C 2/C"
_symmetry_group_IT_number 15
_symmetry_cell_setting 'monoclinic'
loop_
_space_group_symop_operation_xyz
x,y,z
-x,y,1/2-z
-x,-y,-z
x,-y,1/2+z
1/2+x,1/2+y,z
1/2-x,1/2+y,1/2-z
1/2-x,1/2-y,-z
1/2+x,1/2-y,1/2+z
loop_
_atom_site_type_symbol
_atom_site_label
_atom_site_fract_x
_atom_site_fract_y
_atom_site_fract_z
Si Si1 0.016451 0.796879 0.130457
Si Si2 0.489262 0.253387 0.939223
Si Si3 0.234601 0.173723 0.591123
Si Si4 0.610920 0.927004 0.351895
Si Si5 0.215988 0.513891 0.400693
Si Si6 0.941003 0.092299 0.565128
Si Si7 0.364393 0.694867 0.299000
O O1 0.142854 0.820369 0.091922
O O2 0.861152 0.778677 0.283889
O O3 0.985939 0.872188 0.102145
O O4 0.094311 0.714946 0.040551
O O5 0.563876 0.166329 0.912909
O O6 0.577748 0.272925 0.810464
O O7 0.501744 0.334531 0.974820
O O8 0.304782 0.235293 0.062626
O O9 0.227081 0.074924 0.613957
O O10 0.670856 0.992217 0.361479
O O11 0.752474 0.913221 0.201835
O O12 0.446262 0.961701 0.446784
O O13 0.332540 0.592923 0.319839
O O14 0.000000 0.000000 0.500000
O O15 0.500000 0.714571 0.250000
#
# Coordination Sequence:
#
# PCOD9280858 Si02
#       7
#     8   8   8   8   8   8   8
#     4  10  23  38  63  92 124 165 204 256 314 373
#     4  11  23  42  63  89 129 164 206 260 314 377
#     4  10  21  41  63  90 127 163 210 251 316 379
#     4  10  21  40  57  93 121 164 205 254 315 369
#     4  10  21  37  65  88 125 161 209 255 309 372
#     4  12  24  38  63  93 129 159 213 261 312 366
#     4  11  24  41  67  92 122 168 211 257 314 376
#
# _framework density 19.647017999999999
#
# number of rings (size 3 to 8) (size 9 to 14) (size 15 to 20)
#    0.000    1.429    2.857    2.143    2.000    1.143 
#    0.000    0.000    0.000    0.000    0.000    0.000 
#    0.000    0.000    0.000    0.000    0.000    0.000 
#
# Total GULP energy -156251.036519 kJ/mol
# GULP energy per Si atom -5580.394161 kJ/mol
# Density = 1.960230 g / cm^3
# Si number density = 19.647018 Si / 1000 Ang^3
#
#
#
# Elastic Constant Matrix: (Units=GPa)
#
#
# Indices 1 2 3 4 5 6 
#
# 1 44.8982 2.9421 12.2919 -0.0008 3.2764 0.0006
# 2 2.9421 89.1147 30.7021 -0.0026 0.1341 0.0025
# 3 12.2919 30.7021 106.1752 -0.0038 -2.8875 0.0044
# 4 -0.0008 -0.0026 -0.0038 32.8703 0.0017 0.6077
# 5 3.2764 0.1341 -2.8875 0.0017 22.1391 -0.0015
# 6 0.0006 0.0025 0.0044 0.6077 -0.0015 14.2834
#
#
#
# Elastic Compliance Matrix: (Units=1/GPa)
#
#
# Indices 1 2 3 4 5 6 
#
# 1 0.023323 0.000224 -0.002869 0.000000 -0.003827 -0.000001
# 2 0.000224 0.012472 -0.003648 0.000001 -0.000585 -0.000001
# 3 -0.002869 -0.003648 0.010856 0.000001 0.001863 -0.000002
# 4 0.000000 0.000001 0.000001 0.030447 -0.000002 -0.001295
# 5 -0.003827 -0.000585 0.001863 -0.000002 0.045982 0.000005
# 6 -0.000001 -0.000001 -0.000002 -0.001295 0.000005 0.070067
#
#
# Mechanical properties :
#
#
# Convention : Reuss Voigt Hill
#
# Bulk Modulus (GPa) = 29.35603 36.89560 33.12581
# Shear Modulus (GPa) = 23.03229 26.80869 24.92049
#
# Velocity S-wave (km/s) = 3.42761 3.69794 3.56534
# Velocity P-wave (km/s) = 5.53523 6.08712 5.81773
#
# Compressibility (1/GPa) = 0.03406455
#
# Stress axis : x y z
#
# Youngs Moduli (GPa) = 42.87678 80.18028 92.11378
#
# Poissons Ratio (x) = -0.01798 0.26427
# Poissons Ratio (y) = -0.00961 0.33606
# Poissons Ratio (z) = 0.12301 0.29252
#
# Static dielectric constant tensor:
#      x y z
#    x 1.708990 0.000000 0.002870 
#    y 0.000000 1.682290 0.000000 
#    z 0.002870 0.000000 1.734730 
# 
# From -- ./inp_files/249223.got.cif
#   From: 2010.05.17/outbox.cif.g08.bks.cpg/sg15_125_cif.got.tgz:249223.got - 2010.06.03 18:47:42.
