data_PCOD9280958
_publ_section_title
;
Structure prediction by ZEFSAII (Michael W. Deem and Ramdas Pophale) SiO2 
 PCOD9280958
Probable space group: C 2/C
;
_chemical_formula_sum "Si O2"
_cell_formula_units_Z 48
_cell_length_a 20.961335
_cell_length_b 18.315213
_cell_length_c 10.963530
_cell_angle_alpha 90.000000
_cell_angle_beta 151.843150
_cell_angle_gamma 90.000000
_cell_volume 1986.182975
_symmetry_space_group_name_H-M "C 2/C"
_symmetry_group_IT_number 15
_symmetry_cell_setting 'monoclinic'
loop_
_space_group_symop_operation_xyz
x,y,z
-x,y,1/2-z
-x,-y,-z
x,-y,1/2+z
1/2+x,1/2+y,z
1/2-x,1/2+y,1/2-z
1/2-x,1/2-y,-z
1/2+x,1/2-y,1/2+z
loop_
_atom_site_type_symbol
_atom_site_label
_atom_site_fract_x
_atom_site_fract_y
_atom_site_fract_z
Si Si1 0.986930 0.754356 0.373323
Si Si2 0.659610 0.008363 0.776818
Si Si3 0.353774 0.115183 0.064903
Si Si4 0.385708 0.473536 0.964801
Si Si5 0.239750 0.664764 0.849493
Si Si6 0.476538 0.620778 0.404233
O O1 0.892675 0.682418 0.219277
O O2 0.939211 0.822123 0.372304
O O3 0.000000 0.769040 0.250000
O O4 0.135101 0.731656 0.676143
O O5 0.679720 0.094754 0.818630
O O6 0.500000 0.000000 0.500000
O O7 0.702218 0.954295 0.957884
O O8 0.748437 0.984532 0.809310
O O9 0.500000 0.094983 0.250000
O O10 0.268475 0.143852 0.806997
O O11 0.500000 0.444233 0.250000
O O12 0.381125 0.417846 0.845577
O O13 0.450002 0.550921 0.030568
O O14 0.610951 0.664974 0.343307
#
# Coordination Sequence:
#
# PCOD9280958 Si02
#       6
#     8   8   8   8   8   8
#     4   9  19  41  69 101 140 187 234 290 348 419
#     4  12  22  41  72 101 136 179 236 290 343 418
#     4   9  20  38  66 102 142 175 230 291 353 403
#     4  11  26  44  66 103 139 185 230 292 355 412
#     4  10  21  37  69 103 139 184 224 293 348 415
#     4  11  23  43  69  97 146 183 237 282 356 431
#
# _framework density 24.166957
#
# number of rings (size 3 to 8) (size 9 to 14) (size 15 to 20)
#    0.000    2.000    5.000    1.000    2.333    0.000 
#    0.000    1.667    0.000    8.000    0.000    0.000 
#    0.000    0.000    0.000    0.000    0.000    0.000 
#
# Total GULP energy -134126.471614 kJ/mol
# GULP energy per Si atom -5588.602984 kJ/mol
# Density = 2.411195 g / cm^3
# Si number density = 24.166957 Si / 1000 Ang^3
#
#
#
# Elastic Constant Matrix: (Units=GPa)
#
#
# Indices 1 2 3 4 5 6 
#
# 1 136.1684 56.3686 61.7053 0.0000 1.9142 0.0000
# 2 56.3686 110.7878 13.8339 0.0000 -8.2607 0.0000
# 3 61.7053 13.8339 111.4290 0.0000 -11.7296 0.0000
# 4 0.0000 0.0000 0.0000 24.8228 0.0000 -6.2183
# 5 1.9142 -8.2607 -11.7296 0.0000 46.4695 0.0000
# 6 0.0000 0.0000 0.0000 -6.2183 0.0000 53.6019
#
#
#
# Elastic Compliance Matrix: (Units=1/GPa)
#
#
# Indices 1 2 3 4 5 6 
#
# 1 0.012933 -0.005982 -0.006767 0.000000 -0.003304 0.000000
# 2 -0.005982 0.012022 0.002127 0.000000 0.002920 0.000000
# 3 -0.006767 0.002127 0.012869 0.000000 0.003905 0.000000
# 4 0.000000 0.000000 0.000000 0.041491 0.000000 0.004813
# 5 -0.003304 0.002920 0.003905 0.000000 0.023160 0.000000
# 6 0.000000 0.000000 0.000000 0.004813 0.000000 0.019214
#
#
# Mechanical properties :
#
#
# Convention : Reuss Voigt Hill
#
# Bulk Modulus (GPa) = 60.31080 69.13343 64.72211
# Shear Modulus (GPa) = 33.67928 40.07734 36.87831
#
# Velocity S-wave (km/s) = 3.73716 4.07671 3.91062
# Velocity P-wave (km/s) = 6.60544 7.12938 6.87241
#
# Compressibility (1/GPa) = 0.01658078
#
# Stress axis : x y z
#
# Youngs Moduli (GPa) = 77.32176 83.18194 77.70850
#
# Poissons Ratio (x) = 0.49757 0.52585
# Poissons Ratio (y) = 0.46251 -0.16531
# Poissons Ratio (z) = 0.52324 -0.17696
#
# Static dielectric constant tensor:
#      x y z
#    x 1.931520 0.000000 -0.024250 
#    y 0.000000 1.904620 0.000000 
#    z -0.024250 0.000000 2.191370 
# 
# From -- ./inp_files/168910.got.cif
#   From: 2010.05.17/outbox.cif.g08.bks.cpg/sg15_85_cif.got.tgz:168910.got - 2010.06.03 18:47:42.
