data_PCOD9280109
_publ_section_title
;
Structure prediction by ZEFSAII (Michael W. Deem and Ramdas Pophale) SiO2 
 PCOD9280109
Probable space group: C 2/C
;
_chemical_formula_sum "Si O2"
_cell_formula_units_Z 64
_cell_length_a 16.582938
_cell_length_b 24.044637
_cell_length_c 9.021399
_cell_angle_alpha 90.000000
_cell_angle_beta 134.355276
_cell_angle_gamma 90.000000
_cell_volume 2571.999834
_symmetry_space_group_name_H-M "C 2/C"
_symmetry_group_IT_number 15
_symmetry_cell_setting 'monoclinic'
loop_
_space_group_symop_operation_xyz
x,y,z
-x,y,1/2-z
-x,-y,-z
x,-y,1/2+z
1/2+x,1/2+y,z
1/2-x,1/2+y,1/2-z
1/2-x,1/2-y,-z
1/2+x,1/2-y,1/2+z
loop_
_atom_site_type_symbol
_atom_site_label
_atom_site_fract_x
_atom_site_fract_y
_atom_site_fract_z
Si Si1 0.882880 0.019408 0.523906
Si Si2 0.098116 0.854649 0.484881
Si Si3 0.729481 0.275295 0.138393
Si Si4 0.843444 0.416513 0.059384
Si Si5 0.085953 0.637336 0.546503
Si Si6 0.611041 0.368255 0.826044
Si Si7 0.719503 0.965317 0.082665
Si Si8 0.842491 0.331487 0.785017
O O1 0.916127 0.079608 0.499563
O O2 0.784019 0.036459 0.510669
O O3 0.000000 0.002467 0.750000
O O4 0.820660 0.979558 0.327650
O O5 0.099777 0.834020 0.656726
O O6 0.217699 0.842292 0.560807
O O7 0.000000 0.836003 0.250000
O O8 0.840067 0.306192 0.345348
O O9 0.670221 0.230291 0.166081
O O10 0.750000 0.250000 0.000000
O O11 0.646879 0.325798 0.999530
O O12 0.712399 0.411624 0.939611
O O13 0.860336 0.479709 0.029817
O O14 0.848467 0.373605 0.931737
O O15 0.911711 0.392406 0.286107
O O16 0.148768 0.589338 0.532508
O O17 0.042625 0.655229 0.152706
O O18 0.500000 0.393321 0.750000
#
# Coordination Sequence:
#
# PCOD9280109 Si02
#       8
#     8   8   8   8   8   8   8   8
#     4  11  24  42  70  99 152 205 248 307 375 454
#     4  10  22  43  66 107 149 197 239 304 382 456
#     4  11  22  39  68 114 143 183 261 333 370 439
#     4  10  21  38  63 102 149 188 244 311 372 449
#     4  11  25  42  72 111 148 198 250 326 388 451
#     4  10  21  36  68 109 142 189 252 311 378 442
#     4  12  23  46  67 109 155 198 262 310 381 464
#     4  11  22  43  73 104 148 195 256 314 394 445
#
# _framework density 24.88336
#
# number of rings (size 3 to 8) (size 9 to 14) (size 15 to 20)
#    0.000    1.250    7.500    0.750    1.750    5.000 
#    0.000    0.625    0.000    6.750    0.000    0.000 
#    0.000    0.000    0.000    0.000    0.000    0.000 
#
# Total GULP energy -178897.602351 kJ/mol
# GULP energy per Si atom -5590.550073 kJ/mol
# Density = 2.482672 g / cm^3
# Si number density = 24.883360 Si / 1000 Ang^3
#
#
#
# Elastic Constant Matrix: (Units=GPa)
#
#
# Indices 1 2 3 4 5 6 
#
# 1 138.2805 49.7395 39.5577 0.0000 34.5489 0.0000
# 2 49.7395 125.0505 11.6339 0.0000 14.6114 0.0000
# 3 39.5577 11.6339 85.8099 0.0000 31.8627 0.0000
# 4 0.0000 0.0000 0.0000 19.1349 0.0000 8.4958
# 5 34.5489 14.6114 31.8627 0.0000 45.0064 0.0000
# 6 0.0000 0.0000 0.0000 8.4958 0.0000 -1.8882
#
#
#
# Elastic Compliance Matrix: (Units=1/GPa)
#
#
# Indices 1 2 3 4 5 6 
#
# 1 0.010415 -0.003309 -0.002419 0.000000 -0.005209 0.000000
# 2 -0.003309 0.009365 0.000599 0.000000 -0.000924 0.000000
# 3 -0.002419 0.000599 0.016375 0.000000 -0.009930 0.000000
# 4 0.000000 0.000000 0.000000 0.017433 0.000000 0.078441
# 5 -0.005209 -0.000924 -0.009930 0.000000 0.033548 0.000000
# 6 0.000000 0.000000 0.000000 0.078441 0.000000 -0.176671
#
#
# Mechanical properties :
#
#
# Convention : Reuss Voigt Hill
#
# Bulk Modulus (GPa) = 38.61359 61.22255 49.91807
# Shear Modulus (GPa) = -70.77713 28.99794 -20.88959
#
# Velocity S-wave (km/s) = -5.33904 3.41743 -2.90056
# Velocity P-wave (km/s) = 4.73873 6.34264 2.98106
#
# Compressibility (1/GPa) = 0.02589762
#
# Stress axis : x y z
#
# Youngs Moduli (GPa) = 96.01350 106.77764 61.06944
#
# Poissons Ratio (x) = 0.35334 0.14771
# Poissons Ratio (y) = 0.31772 -0.03658
# Poissons Ratio (z) = 0.23223 -0.06395
#
# Static dielectric constant tensor:
#      x y z
#    x 1.989650 0.000000 -0.002060 
#    y 0.000000 1.997270 0.000000 
#    z -0.002060 0.000000 2.022560 
# 
# From -- ./inp_files/63720.got.cif
#   From: 2010.05.17/outbox.cif.g08.bks.cpg/sg15_32_cif.got.tgz:63720.got - 2010.06.03 18:47:42.
