data_PCOD9280742
_publ_section_title
;
Structure prediction by ZEFSAII (Michael W. Deem and Ramdas Pophale) SiO2 
 PCOD9280742
Probable space group: C 2/C
;
_chemical_formula_sum "Si O2"
_cell_formula_units_Z 52
_cell_length_a 16.475006
_cell_length_b 8.967209
_cell_length_c 25.304216
_cell_angle_alpha 90.000000
_cell_angle_beta 39.162280
_cell_angle_gamma 90.000000
_cell_volume 2360.816187
_symmetry_space_group_name_H-M "C 2/C"
_symmetry_group_IT_number 15
_symmetry_cell_setting 'monoclinic'
loop_
_space_group_symop_operation_xyz
x,y,z
-x,y,1/2-z
-x,-y,-z
x,-y,1/2+z
1/2+x,1/2+y,z
1/2-x,1/2+y,1/2-z
1/2-x,1/2-y,-z
1/2+x,1/2-y,1/2+z
loop_
_atom_site_type_symbol
_atom_site_label
_atom_site_fract_x
_atom_site_fract_y
_atom_site_fract_z
Si Si1 0.897853 0.327974 0.231369
Si Si2 0.692191 0.093727 0.155890
Si Si3 0.716367 0.450607 0.656069
Si Si4 0.000000 0.833053 0.250000
Si Si5 0.392973 0.818030 0.108908
Si Si6 0.141637 0.848335 0.583717
Si Si7 0.416542 0.418419 0.996683
O O1 0.883798 0.486782 0.265843
O O2 0.875196 0.336485 0.180347
O O3 0.039842 0.259448 0.163803
O O4 0.803303 0.208394 0.306500
O O5 0.601125 0.215305 0.173536
O O6 0.793978 0.192272 0.137824
O O7 0.774714 0.980888 0.078719
O O8 0.594381 0.556637 0.734629
O O9 0.846947 0.530556 0.605879
O O10 0.701624 0.442766 0.600451
O O11 0.533969 0.752638 0.024332
O O12 0.250000 0.750000 0.500000
O O13 0.068207 0.940117 0.574442
O O14 0.500000 0.500000 0.000000
#
# Coordination Sequence:
#
# PCOD9280742 Si02
#       7
#     8   8   8   4   8   8   8
#     4  11  21  38  66  89 124 169 213 259 324 381
#     4  10  21  37  63  89 123 160 216 255 318 377
#     4  11  21  41  64  95 130 165 214 274 318 371
#     4  10  22  36  60  92 124 156 212 274 308 370
#     4   9  21  40  62  92 129 163 211 261 322 384
#     4  11  23  38  64  92 127 166 215 260 321 379
#     4   9  20  41  61  85 127 172 202 255 316 386
#
# _framework density 22.026281000000001
#
# number of rings (size 3 to 8) (size 9 to 14) (size 15 to 20)
#    0.000    1.846    1.538    1.846    4.308    0.000 
#    0.000   15.385    0.000    0.000    0.000    0.000 
#    0.000    0.000    0.000    0.000    0.000    0.000 
#
# Total GULP energy -144938.884202 kJ/mol
# GULP energy per Si atom -5574.572469 kJ/mol
# Density = 2.197615 g / cm^3
# Si number density = 22.026281 Si / 1000 Ang^3
#
#
#
# Elastic Constant Matrix: (Units=GPa)
#
#
# Indices 1 2 3 4 5 6 
#
# 1 103.2021 31.0212 9.0759 0.0000 21.4670 0.0000
# 2 31.0212 100.7712 25.2793 0.0000 8.4409 0.0000
# 3 9.0759 25.2793 54.4817 0.0000 11.4728 0.0000
# 4 0.0000 0.0000 0.0000 23.3511 0.0000 -7.2718
# 5 21.4670 8.4409 11.4728 0.0000 33.0323 0.0000
# 6 0.0000 0.0000 0.0000 -7.2718 0.0000 45.4850
#
#
#
# Elastic Compliance Matrix: (Units=1/GPa)
#
#
# Indices 1 2 3 4 5 6 
#
# 1 0.012157 -0.003401 0.001115 0.000000 -0.007419 0.000000
# 2 -0.003401 0.012222 -0.005300 0.000000 0.000928 0.000000
# 3 0.001115 -0.005300 0.022113 0.000000 -0.007051 0.000000
# 4 0.000000 0.000000 0.000000 0.045068 0.000000 0.007205
# 5 -0.007419 0.000928 -0.007051 0.000000 0.037307 0.000000
# 6 0.000000 0.000000 0.000000 0.007205 0.000000 0.023137
#
#
# Mechanical properties :
#
#
# Convention : Reuss Voigt Hill
#
# Bulk Modulus (GPa) = 31.92753 43.24533 37.58643
# Shear Modulus (GPa) = 28.15069 33.24559 30.69814
#
# Velocity S-wave (km/s) = 3.57886 3.88926 3.73729
# Velocity P-wave (km/s) = 5.62177 6.31226 5.97700
#
# Compressibility (1/GPa) = 0.03132094
#
# Stress axis : x y z
#
# Youngs Moduli (GPa) = 82.25674 81.81871 45.22254
#
# Poissons Ratio (x) = 0.27824 -0.05042
# Poissons Ratio (y) = 0.27973 0.23967
# Poissons Ratio (z) = -0.09171 0.43363
#
# Static dielectric constant tensor:
#      x y z
#    x 1.848930 0.000000 -0.056550 
#    y 0.000000 1.805140 0.000000 
#    z -0.056550 0.000000 1.841560 
# 
# From -- ./inp_files/298327.got.cif
#   From: 2010.05.17/outbox.cif.g08.bks.cpg/sg15_150_cif.got.tgz:298327.got - 2010.06.03 18:47:42.
