data_PCOD9280776
_publ_section_title
;
Structure prediction by ZEFSAII (Michael W. Deem and Ramdas Pophale) SiO2 
 PCOD9280776
Probable space group: C 2/C
;
_chemical_formula_sum "Si O2"
_cell_formula_units_Z 56
_cell_length_a 15.527367
_cell_length_b 8.904914
_cell_length_c 23.306748
_cell_angle_alpha 90.000000
_cell_angle_beta 126.767707
_cell_angle_gamma 90.000000
_cell_volume 2581.541318
_symmetry_space_group_name_H-M "C 2/C"
_symmetry_group_IT_number 15
_symmetry_cell_setting 'monoclinic'
loop_
_space_group_symop_operation_xyz
x,y,z
-x,y,1/2-z
-x,-y,-z
x,-y,1/2+z
1/2+x,1/2+y,z
1/2-x,1/2+y,1/2-z
1/2-x,1/2-y,-z
1/2+x,1/2-y,1/2+z
loop_
_atom_site_type_symbol
_atom_site_label
_atom_site_fract_x
_atom_site_fract_y
_atom_site_fract_z
Si Si1 0.906056 0.158770 0.165619
Si Si2 0.828789 0.629146 0.263314
Si Si3 0.532145 0.338225 0.036237
Si Si4 0.744222 0.825673 0.319347
Si Si5 0.122999 0.821019 0.323243
Si Si6 0.125908 0.300931 0.459032
Si Si7 0.430403 0.143010 0.088806
O O1 0.819880 0.283011 0.149761
O O2 0.938935 0.203991 0.114766
O O3 0.000000 0.168491 0.250000
O O4 0.856270 0.992772 0.151056
O O5 0.747193 0.680132 0.279985
O O6 0.808736 0.464848 0.232341
O O7 0.815472 0.746936 0.205547
O O8 0.948471 0.629704 0.337275
O O9 0.633412 0.364356 0.118291
O O10 0.443062 0.249481 0.037973
O O11 0.500000 0.500000 0.000000
O O12 0.577046 0.239240 0.001444
O O13 0.133241 0.721522 0.384511
O O14 0.000000 0.818407 0.250000
O O15 0.250000 0.250000 0.500000
O O16 0.112816 0.478376 0.443063
#
# Coordination Sequence:
#
# PCOD9280776 Si02
#       7
#     8   8   8   8   8   8   8
#     4  11  22  40  68  94 130 168 218 271 332 387
#     4  10  21  37  63  94 131 163 219 274 330 377
#     4  11  25  45  64  92 134 177 219 270 328 398
#     4  11  22  39  61  97 129 168 219 274 322 395
#     4   9  19  37  61  95 125 166 211 267 323 392
#     4  12  24  43  66  97 135 172 222 270 323 397
#     4  10  22  42  67  90 131 176 217 266 333 388
#
# _framework density 21.692468000000002
#
# number of rings (size 3 to 8) (size 9 to 14) (size 15 to 20)
#    0.000    1.429    1.429    3.857    0.000    5.714 
#    2.571    1.429    0.000    0.000    0.000    0.000 
#    0.000    0.000    0.000    0.000    0.000    0.000 
#
# Total GULP energy -156493.335807 kJ/mol
# GULP energy per Si atom -5589.047707 kJ/mol
# Density = 2.164309 g / cm^3
# Si number density = 21.692468 Si / 1000 Ang^3
#
#
#
# Elastic Constant Matrix: (Units=GPa)
#
#
# Indices 1 2 3 4 5 6 
#
# 1 45.3512 9.8171 21.3496 0.0000 -19.5692 0.0000
# 2 9.8171 137.8916 40.7491 0.0000 -4.8105 0.0000
# 3 21.3496 40.7491 72.6026 0.0000 -20.4057 0.0000
# 4 0.0000 0.0000 0.0000 41.5689 0.0000 -9.3740
# 5 -19.5692 -4.8105 -20.4057 0.0000 29.4709 0.0000
# 6 0.0000 0.0000 0.0000 -9.3740 0.0000 30.8536
#
#
#
# Elastic Compliance Matrix: (Units=1/GPa)
#
#
# Indices 1 2 3 4 5 6 
#
# 1 0.031956 -0.000461 -0.003968 0.000000 0.018397 0.000000
# 2 -0.000461 0.008844 -0.005598 0.000000 -0.002738 0.000000
# 3 -0.003968 -0.005598 0.021213 0.000000 0.011140 0.000000
# 4 0.000000 0.000000 0.000000 0.025826 0.000000 0.007846
# 5 0.018397 -0.002738 0.011140 0.000000 0.053414 0.000000
# 6 0.000000 0.000000 0.000000 0.007846 0.000000 0.034795
#
#
# Mechanical properties :
#
#
# Convention : Reuss Voigt Hill
#
# Bulk Modulus (GPa) = 23.83211 44.40855 34.12033
# Shear Modulus (GPa) = 23.79972 32.64065 28.22019
#
# Velocity S-wave (km/s) = 3.31591 3.88325 3.61074
# Velocity P-wave (km/s) = 5.06661 6.37358 5.75730
#
# Compressibility (1/GPa) = 0.04196020
#
# Stress axis : x y z
#
# Youngs Moduli (GPa) = 31.29293 113.07687 47.14084
#
# Poissons Ratio (x) = 0.05210 0.18705
# Poissons Ratio (y) = 0.01442 0.26388
# Poissons Ratio (z) = 0.12417 0.63297
#
# Static dielectric constant tensor:
#      x y z
#    x 1.773320 0.000000 0.001970 
#    y 0.000000 1.745670 0.000000 
#    z 0.001970 0.000000 1.826680 
# 
# From -- ./inp_files/273273.got.cif
#   From: 2010.05.17/outbox.cif.g08.bks.cpg/sg15_137_cif.got.tgz:273273.got - 2010.06.03 18:47:42.
