data_PCOD9280290
_publ_section_title
;
Structure prediction by ZEFSAII (Michael W. Deem and Ramdas Pophale) SiO2 
 PCOD9280290
Probable space group: C 2/C
;
_chemical_formula_sum "Si O2"
_cell_formula_units_Z 48
_cell_length_a 7.526223
_cell_length_b 21.565245
_cell_length_c 12.262840
_cell_angle_alpha 90.000000
_cell_angle_beta 84.852216
_cell_angle_gamma 90.000000
_cell_volume 1982.290535
_symmetry_space_group_name_H-M "C 2/C"
_symmetry_group_IT_number 15
_symmetry_cell_setting 'monoclinic'
loop_
_space_group_symop_operation_xyz
x,y,z
-x,y,1/2-z
-x,-y,-z
x,-y,1/2+z
1/2+x,1/2+y,z
1/2-x,1/2+y,1/2-z
1/2-x,1/2-y,-z
1/2+x,1/2-y,1/2+z
loop_
_atom_site_type_symbol
_atom_site_label
_atom_site_fract_x
_atom_site_fract_y
_atom_site_fract_z
Si Si1 0.791461 0.112057 0.771196
Si Si2 0.961181 0.303800 0.504530
Si Si3 0.734379 0.424055 0.460713
Si Si4 0.692184 0.435385 0.001235
Si Si5 0.184202 0.349244 0.674069
Si Si6 0.706866 0.756882 0.186418
O O1 0.708222 0.079806 0.669388
O O2 0.724246 0.094315 0.894060
O O3 0.771663 0.184973 0.752105
O O4 0.000000 0.095036 0.750000
O O5 0.842948 0.367780 0.510637
O O6 0.859594 0.255054 0.587515
O O7 0.956464 0.278028 0.381860
O O8 0.140878 0.314946 0.561687
O O9 0.518291 0.417182 0.480008
O O10 0.750353 0.492994 0.506098
O O11 0.743459 0.412930 0.877322
O O12 0.301775 0.305912 0.744332
O O13 0.000000 0.357061 0.750000
#
# Coordination Sequence:
#
# PCOD9280290 Si02
#       6
#     8   8   8   8   8   8
#     4   9  17  33  56  78 108 152 193 237 290 343
#     4   9  18  36  60  82 113 157 200 243 293 350
#     4   9  20  38  58  82 112 152 198 242 292 352
#     4  10  21  37  58  84 117 153 195 245 296 350
#     4  10  21  37  58  86 119 154 194 244 299 351
#     4   9  18  35  57  82 118 156 193 238 297 353
#
# _framework density 24.214413
#
# number of rings (size 3 to 8) (size 9 to 14) (size 15 to 20)
#    0.000    2.667    0.000    1.500    0.000    5.333 
#    0.000   11.667    0.000    0.000    0.000    0.000 
#    0.000    0.000    0.000    0.000    0.000    0.000 
#
# Total GULP energy -133947.248637 kJ/mol
# GULP energy per Si atom -5581.135360 kJ/mol
# Density = 2.415930 g / cm^3
# Si number density = 24.214413 Si / 1000 Ang^3
#
#
#
# Elastic Constant Matrix: (Units=GPa)
#
#
# Indices 1 2 3 4 5 6 
#
# 1 52.0738 9.8218 27.1831 0.0000 1.9595 0.0000
# 2 9.8218 98.3497 60.7564 0.0000 1.3292 0.0000
# 3 27.1831 60.7564 130.4761 0.0000 19.6281 0.0000
# 4 0.0000 0.0000 0.0000 37.2541 0.0000 3.7003
# 5 1.9595 1.3292 19.6281 0.0000 30.2915 0.0000
# 6 0.0000 0.0000 0.0000 3.7003 0.0000 18.7627
#
#
#
# Elastic Compliance Matrix: (Units=1/GPa)
#
#
# Indices 1 2 3 4 5 6 
#
# 1 0.021706 0.001102 -0.005337 0.000000 0.002006 0.000000
# 2 0.001102 0.014799 -0.007770 0.000000 0.004314 0.000000
# 3 -0.005337 -0.007770 0.013619 0.000000 -0.008138 0.000000
# 4 0.000000 0.000000 0.000000 0.027379 0.000000 -0.005400
# 5 0.002006 0.004314 -0.008138 0.000000 0.037967 0.000000
# 6 0.000000 0.000000 0.000000 -0.005400 0.000000 0.054362
#
#
# Mechanical properties :
#
#
# Convention : Reuss Voigt Hill
#
# Bulk Modulus (GPa) = 38.29316 52.93579 45.61447
# Shear Modulus (GPa) = 24.68567 29.47090 27.07828
#
# Velocity S-wave (km/s) = 3.19637 3.49245 3.34768
# Velocity P-wave (km/s) = 5.42871 6.17833 5.81561
#
# Compressibility (1/GPa) = 0.02611432
#
# Stress axis : x y z
#
# Youngs Moduli (GPa) = 46.06970 67.57039 73.42920
#
# Poissons Ratio (x) = -0.07448 0.39191
# Poissons Ratio (y) = -0.05078 0.57054
# Poissons Ratio (z) = 0.24589 0.52502
#
# Static dielectric constant tensor:
#      x y z
#    x 1.999060 0.000000 -0.007400 
#    y 0.000000 1.977700 0.000000 
#    z -0.007400 0.000000 1.932400 
# 
# From -- ./inp_files/79127.got.cif
#   From: 2010.05.17/outbox.cif.g08.bks.cpg/sg15_40_cif.got.tgz:79127.got - 2010.06.03 18:47:42.
