data_PCOD9280131
_publ_section_title
;
Structure prediction by ZEFSAII (Michael W. Deem and Ramdas Pophale) SiO2 
 PCOD9280131
Probable space group: C 2/C
;
_chemical_formula_sum "Si O2"
_cell_formula_units_Z 56
_cell_length_a 32.101537
_cell_length_b 14.483713
_cell_length_c 7.477195
_cell_angle_alpha 90.000000
_cell_angle_beta 124.890620
_cell_angle_gamma 90.000000
_cell_volume 2851.598105
_symmetry_space_group_name_H-M "C 2/C"
_symmetry_group_IT_number 15
_symmetry_cell_setting 'monoclinic'
loop_
_space_group_symop_operation_xyz
x,y,z
-x,y,1/2-z
-x,-y,-z
x,-y,1/2+z
1/2+x,1/2+y,z
1/2-x,1/2+y,1/2-z
1/2-x,1/2-y,-z
1/2+x,1/2-y,1/2+z
loop_
_atom_site_type_symbol
_atom_site_label
_atom_site_fract_x
_atom_site_fract_y
_atom_site_fract_z
Si Si1 0.293797 0.368533 0.951538
Si Si2 0.698409 0.760728 0.555613
Si Si3 0.937492 0.572212 0.977575
Si Si4 0.331094 0.889596 0.335339
Si Si5 0.273251 0.562741 0.793144
Si Si6 0.468649 0.869799 0.949955
Si Si7 0.869871 0.277839 0.767079
O O1 0.251677 0.302106 0.759727
O O2 0.300500 0.464457 0.863917
O O3 0.271099 0.398638 0.087675
O O4 0.346015 0.315329 0.123243
O O5 0.686200 0.807128 0.337496
O O6 0.701547 0.649948 0.544723
O O7 0.656838 0.785838 0.605522
O O8 0.876964 0.567654 0.834101
O O9 0.955525 0.467139 0.008817
O O10 0.952093 0.615334 0.203567
O O11 0.969825 0.631599 0.912277
O O12 0.282418 0.951167 0.259003
O O13 0.350419 0.853556 0.575199
O O14 0.430760 0.791026 0.926978
#
# Coordination Sequence:
#
# PCOD9280131 Si02
#       7
#     8   8   8   8   8   8   8
#     4  11  22  37  53  78 111 147 189 220 268 326
#     4  11  22  37  53  80 108 143 186 224 266 328
#     4   9  20  33  52  81 103 141 184 212 273 327
#     4  11  21  34  56  79 109 147 181 220 274 321
#     4  11  22  35  53  78 112 147 182 223 265 318
#     4   9  19  36  53  74 113 137 176 229 263 318
#     4  10  21  37  52  74 110 143 182 226 269 318
#
# _framework density 19.638112
#
# number of rings (size 3 to 8) (size 9 to 14) (size 15 to 20)
#    0.000    1.714    2.857    2.143    6.000    1.143 
#    0.000    0.000    0.000    0.000    0.000    1.000 
#    4.286    0.143    0.000    0.000    0.000    0.000 
#
# Total GULP energy -156176.820299 kJ/mol
# GULP energy per Si atom -5577.743582 kJ/mol
# Density = 1.959341 g / cm^3
# Si number density = 19.638112 Si / 1000 Ang^3
#
#
#
# Elastic Constant Matrix: (Units=GPa)
#
#
# Indices 1 2 3 4 5 6 
#
# 1 146.7392 38.1762 25.9056 0.0000 14.2742 0.0000
# 2 38.1762 74.6896 7.1048 0.0000 5.1327 0.0000
# 3 25.9056 7.1048 34.7869 0.0000 -4.5183 0.0000
# 4 0.0000 0.0000 0.0000 26.1845 0.0000 2.7369
# 5 14.2742 5.1327 -4.5183 0.0000 19.1802 0.0000
# 6 0.0000 0.0000 0.0000 2.7369 0.0000 33.2401
#
#
#
# Elastic Compliance Matrix: (Units=1/GPa)
#
#
# Indices 1 2 3 4 5 6 
#
# 1 0.009962 -0.003794 -0.007711 0.000000 -0.008215 0.000000
# 2 -0.003794 0.015477 -0.000523 0.000000 -0.001441 0.000000
# 3 -0.007711 -0.000523 0.036475 0.000000 0.014471 0.000000
# 4 0.000000 0.000000 0.000000 0.038522 0.000000 -0.003172
# 5 -0.008215 -0.001441 0.014471 0.000000 0.062046 0.000000
# 6 0.000000 0.000000 0.000000 -0.003172 0.000000 0.030345
#
#
# Mechanical properties :
#
#
# Convention : Reuss Voigt Hill
#
# Bulk Modulus (GPa) = 26.41407 44.28766 35.35087
# Shear Modulus (GPa) = 21.78627 28.05625 24.92126
#
# Velocity S-wave (km/s) = 3.33436 3.78387 3.56620
# Velocity P-wave (km/s) = 5.32011 6.45686 5.91585
#
# Compressibility (1/GPa) = 0.03785861
#
# Stress axis : x y z
#
# Youngs Moduli (GPa) = 100.37783 64.61303 27.41593
#
# Poissons Ratio (x) = 0.24514 0.21141
# Poissons Ratio (y) = 0.38083 0.01433
# Poissons Ratio (z) = 0.77402 0.03378
#
# Static dielectric constant tensor:
#      x y z
#    x 1.774770 0.000000 0.013460 
#    y 0.000000 1.699460 0.000000 
#    z 0.013460 0.000000 1.773410 
# 
# From -- ./inp_files/69455.got.cif
#   From: 2010.05.17/outbox.cif.g08.bks.cpg/sg15_35_cif.got.tgz:69455.got - 2010.06.03 18:47:42.
