data_PCOD9280872
_publ_section_title
;
Structure prediction by ZEFSAII (Michael W. Deem and Ramdas Pophale) SiO2 
 PCOD9280872
Probable space group: C 2/C
;
_chemical_formula_sum "Si O2"
_cell_formula_units_Z 64
_cell_length_a 28.535787
_cell_length_b 19.284634
_cell_length_c 9.342935
_cell_angle_alpha 90.000000
_cell_angle_beta 40.993462
_cell_angle_gamma 90.000000
_cell_volume 3372.643865
_symmetry_space_group_name_H-M "C 2/C"
_symmetry_group_IT_number 15
_symmetry_cell_setting 'monoclinic'
loop_
_space_group_symop_operation_xyz
x,y,z
-x,y,1/2-z
-x,-y,-z
x,-y,1/2+z
1/2+x,1/2+y,z
1/2-x,1/2+y,1/2-z
1/2-x,1/2-y,-z
1/2+x,1/2-y,1/2+z
loop_
_atom_site_type_symbol
_atom_site_label
_atom_site_fract_x
_atom_site_fract_y
_atom_site_fract_z
Si Si1 0.719175 0.779807 0.715519
Si Si2 0.938826 0.305963 0.512743
Si Si3 0.673569 0.594354 0.541453
Si Si4 0.221779 0.986492 0.202613
Si Si5 0.549971 0.036724 0.498870
Si Si6 0.300920 0.217072 0.763315
Si Si7 0.432233 0.291670 0.304207
Si Si8 0.814763 0.559994 0.751101
O O1 0.750000 0.750000 0.500000
O O2 0.635339 0.788488 0.894815
O O3 0.759467 0.853512 0.647441
O O4 0.744428 0.720689 0.765237
O O5 0.930225 0.385007 0.588663
O O6 0.948663 0.258194 0.630526
O O7 0.000000 0.299972 0.250000
O O8 0.675920 0.532189 0.420142
O O9 0.683301 0.566479 0.681497
O O10 0.602663 0.639159 0.681531
O O11 0.280186 0.952129 0.174139
O O12 0.260412 0.037411 0.001035
O O13 0.500000 0.000000 0.500000
O O14 0.617222 0.989246 0.383608
O O15 0.500000 0.044886 0.750000
O O16 0.369113 0.259574 0.549106
O O17 0.328406 0.141123 0.737816
O O18 0.250000 0.250000 0.000000
O O19 0.500000 0.302315 0.250000
#
# Coordination Sequence:
#
# PCOD9280872 Si02
#       8
#     8   8   8   8   8   8   8   8
#     4  11  20  40  65  91 129 169 223 263 317 381
#     4  11  25  43  62  94 129 181 218 265 318 388
#     4  10  21  42  65  96 126 164 210 271 332 381
#     4  10  21  37  65  93 120 157 208 270 322 385
#     4  11  26  38  58  89 134 178 217 252 310 396
#     4  11  25  38  66  97 126 168 217 275 318 377
#     4  11  26  44  65  92 133 170 216 270 329 391
#     4  11  22  37  61  89 127 165 213 263 320 370
#
# _framework density 18.976209999999998
#
# number of rings (size 3 to 8) (size 9 to 14) (size 15 to 20)
#    0.000    1.250    2.500    4.500    7.000    2.000 
#    0.000    0.625    0.000    0.000    0.000    0.000 
#    0.000    0.000    0.000    0.000    0.000    0.000 
#
# Total GULP energy -178509.011555 kJ/mol
# GULP energy per Si atom -5578.406611 kJ/mol
# Density = 1.893302 g / cm^3
# Si number density = 18.976210 Si / 1000 Ang^3
#
#
#
# Elastic Constant Matrix: (Units=GPa)
#
#
# Indices 1 2 3 4 5 6 
#
# 1 152.2866 57.1296 52.3815 0.0000 -9.3785 0.0000
# 2 57.1296 104.9770 37.7040 0.0000 -9.4178 0.0000
# 3 52.3815 37.7040 91.8600 0.0000 1.6081 0.0000
# 4 0.0000 0.0000 0.0000 27.6967 0.0000 6.4390
# 5 -9.3785 -9.4178 1.6081 0.0000 37.0978 0.0000
# 6 0.0000 0.0000 0.0000 6.4390 0.0000 30.1111
#
#
#
# Elastic Compliance Matrix: (Units=1/GPa)
#
#
# Indices 1 2 3 4 5 6 
#
# 1 0.009334 -0.003532 -0.003901 0.000000 0.001632 0.000000
# 2 -0.003532 0.012862 -0.003309 0.000000 0.002516 0.000000
# 3 -0.003901 -0.003309 0.014512 0.000000 -0.002455 0.000000
# 4 0.000000 0.000000 0.000000 0.037994 0.000000 -0.008125
# 5 0.001632 0.002516 -0.002455 0.000000 0.028113 0.000000
# 6 0.000000 0.000000 0.000000 -0.008125 0.000000 0.034948
#
#
# Mechanical properties :
#
#
# Convention : Reuss Voigt Hill
#
# Bulk Modulus (GPa) = 65.69007 71.50598 68.59802
# Shear Modulus (GPa) = 30.42770 32.44169 31.43470
#
# Velocity S-wave (km/s) = 4.00867 4.13921 4.07447
# Velocity P-wave (km/s) = 7.49121 7.78510 7.63957
#
# Compressibility (1/GPa) = 0.01522300
#
# Stress axis : x y z
#
# Youngs Moduli (GPa) = 107.13455 77.74631 68.90774
#
# Poissons Ratio (x) = 0.27460 0.26884
# Poissons Ratio (y) = 0.37840 0.22804
# Poissons Ratio (z) = 0.41798 0.25729
#
# Static dielectric constant tensor:
#      x y z
#    x 1.654720 0.000000 0.000270 
#    y 0.000000 1.720420 0.000000 
#    z 0.000270 0.000000 1.643610 
# 
# From -- ./inp_files/70598.got.cif
#   From: 2010.05.17/outbox.cif.g08.bks.cpg/sg15_36_cif.got.tgz:70598.got - 2010.06.03 18:47:42.
