data_PCOD9280693
_publ_section_title
;
Structure prediction by ZEFSAII (Michael W. Deem and Ramdas Pophale) SiO2 
 PCOD9280693
Probable space group: C 2/C
;
_chemical_formula_sum "Si O2"
_cell_formula_units_Z 44
_cell_length_a 11.684035
_cell_length_b 7.950396
_cell_length_c 22.940317
_cell_angle_alpha 90.000000
_cell_angle_beta 108.620219
_cell_angle_gamma 90.000000
_cell_volume 2019.443222
_symmetry_space_group_name_H-M "C 2/C"
_symmetry_group_IT_number 15
_symmetry_cell_setting 'monoclinic'
loop_
_space_group_symop_operation_xyz
x,y,z
-x,y,1/2-z
-x,-y,-z
x,-y,1/2+z
1/2+x,1/2+y,z
1/2-x,1/2+y,1/2-z
1/2-x,1/2-y,-z
1/2+x,1/2-y,1/2+z
loop_
_atom_site_type_symbol
_atom_site_label
_atom_site_fract_x
_atom_site_fract_y
_atom_site_fract_z
Si Si1 0.408669 0.097085 0.051196
Si Si2 0.652728 0.649743 0.399087
Si Si3 0.500000 0.903051 0.750000
Si Si4 0.935457 0.369370 0.338316
Si Si5 0.196471 0.223897 0.862095
Si Si6 0.610027 0.241924 0.019263
O O1 0.309541 0.168636 0.078990
O O2 0.481477 0.241711 0.029336
O O3 0.511319 0.001576 0.105863
O O4 0.369431 0.952086 0.000196
O O5 0.545981 0.741717 0.347603
O O6 0.674133 0.468203 0.376551
O O7 0.613572 0.650938 0.461020
O O8 0.775054 0.763135 0.420154
O O9 0.587774 0.793516 0.804700
O O10 0.582318 0.022799 0.722638
O O11 0.820839 0.276478 0.346722
#
# Coordination Sequence:
#
# PCOD9280693 Si02
#       6
#     8   8   4   8   8   8
#     4   9  19  39  63  87 134 164 197 239 301 355
#     4  10  21  37  62  94 124 160 205 239 297 364
#     4  10  26  44  64  84 116 160 200 266 332 336
#     4  10  22  44  60  88 119 158 200 262 305 362
#     4  11  23  42  64  93 115 158 211 256 298 371
#     4   9  18  39  60  91 136 170 186 242 298 363
#
# _framework density 21.788186
#
# number of rings (size 3 to 8) (size 9 to 14) (size 15 to 20)
#    0.000    2.182    1.818    0.000    0.000    5.091 
#   13.091    0.000    0.000    0.000    0.000    0.000 
#    0.000    0.000    0.000    0.000    0.000    0.000 
#
# Total GULP energy -122856.798547 kJ/mol
# GULP energy per Si atom -5584.399934 kJ/mol
# Density = 2.173859 g / cm^3
# Si number density = 21.788186 Si / 1000 Ang^3
#
#
#
# Elastic Constant Matrix: (Units=GPa)
#
#
# Indices 1 2 3 4 5 6 
#
# 1 94.5752 17.8327 27.7350 0.0000 -3.6098 0.0000
# 2 17.8327 50.3160 23.5512 0.0000 4.2527 0.0000
# 3 27.7350 23.5512 59.0635 0.0000 -0.2207 0.0000
# 4 0.0000 0.0000 0.0000 37.8311 0.0000 -10.4533
# 5 -3.6098 4.2527 -0.2207 0.0000 23.9528 0.0000
# 6 0.0000 0.0000 0.0000 -10.4533 0.0000 34.7219
#
#
#
# Elastic Compliance Matrix: (Units=1/GPa)
#
#
# Indices 1 2 3 4 5 6 
#
# 1 0.012552 -0.002317 -0.004962 0.000000 0.002257 0.000000
# 2 -0.002317 0.025341 -0.009035 0.000000 -0.004932 0.000000
# 3 -0.004962 -0.009035 0.022868 0.000000 0.001067 0.000000
# 4 0.000000 0.000000 0.000000 0.028832 0.000000 0.008680
# 5 0.002257 -0.004932 0.001067 0.000000 0.042974 0.000000
# 6 0.000000 0.000000 0.000000 0.008680 0.000000 0.031413
#
#
# Mechanical properties :
#
#
# Convention : Reuss Voigt Hill
#
# Bulk Modulus (GPa) = 35.54536 38.02139 36.78338
# Shear Modulus (GPa) = 24.27355 28.29020 26.28188
#
# Velocity S-wave (km/s) = 3.34139 3.60727 3.47687
# Velocity P-wave (km/s) = 5.58892 5.90239 5.74779
#
# Compressibility (1/GPa) = 0.02813307
#
# Stress axis : x y z
#
# Youngs Moduli (GPa) = 79.67058 39.46110 43.73002
#
# Poissons Ratio (x) = 0.09143 0.21698
# Poissons Ratio (y) = 0.18459 0.39511
# Poissons Ratio (z) = 0.39531 0.35654
#
# Static dielectric constant tensor:
#      x y z
#    x 1.852740 0.000000 0.014610 
#    y 0.000000 1.816810 0.000000 
#    z 0.014610 0.000000 1.825300 
# 
# From -- ./inp_files/267867.got.cif
#   From: 2010.05.17/outbox.cif.g08.bks.cpg/sg15_134_cif.got.tgz:267867.got - 2010.06.03 18:47:42.
