data_PCOD9280113
_publ_section_title
;
Structure prediction by ZEFSAII (Michael W. Deem and Ramdas Pophale) SiO2 
 PCOD9280113
Probable space group: C 2/C
;
_chemical_formula_sum "Si O2"
_cell_formula_units_Z 40
_cell_length_a 13.731061
_cell_length_b 15.451266
_cell_length_c 17.812871
_cell_angle_alpha 90.000000
_cell_angle_beta 149.758343
_cell_angle_gamma 90.000000
_cell_volume 1903.396922
_symmetry_space_group_name_H-M "C 2/C"
_symmetry_group_IT_number 15
_symmetry_cell_setting 'monoclinic'
loop_
_space_group_symop_operation_xyz
x,y,z
-x,y,1/2-z
-x,-y,-z
x,-y,1/2+z
1/2+x,1/2+y,z
1/2-x,1/2+y,1/2-z
1/2-x,1/2-y,-z
1/2+x,1/2-y,1/2+z
loop_
_atom_site_type_symbol
_atom_site_label
_atom_site_fract_x
_atom_site_fract_y
_atom_site_fract_z
Si Si1 0.216091 0.677561 0.174188
Si Si2 0.000000 0.466396 0.250000
Si Si3 0.091047 0.207118 0.963817
Si Si4 0.500000 0.298441 0.250000
Si Si5 0.172291 0.064524 0.126562
Si Si6 0.077557 0.310591 0.414590
O O1 0.283168 0.588750 0.257932
O O2 0.383028 0.751546 0.279926
O O3 0.052175 0.712850 0.121762
O O4 0.122837 0.666333 0.030765
O O5 0.152670 0.527998 0.308087
O O6 0.072211 0.397950 0.361456
O O7 0.012320 0.154699 0.838612
O O8 0.311548 0.239450 0.112387
O O9 0.083346 0.151931 0.033243
O O10 0.000000 0.000000 0.000000
O O11 0.250000 0.250000 0.500000
#
# Coordination Sequence:
#
# PCOD9280113 Si02
#       6
#     8   4   8   4   8   8
#     4  12  23  43  75  99 131 188 240 284 339 431
#     4  12  27  44  68 105 144 180 224 306 357 398
#     4  11  21  41  66  96 129 179 226 272 339 423
#     4  10  21  36  68  93 124 166 234 264 317 416
#     4  12  26  44  66 102 150 172 223 306 361 393
#     4  12  23  45  74  99 131 189 249 277 340 433
#
# _framework density 21.015059999999998
#
# number of rings (size 3 to 8) (size 9 to 14) (size 15 to 20)
#    0.000    0.400    6.000    3.000    2.800    0.800 
#    3.600    0.000    0.000    0.000    0.000    0.000 
#    0.000    0.000    0.000    0.000    0.000    0.000 
#
# Total GULP energy -111519.341075 kJ/mol
# GULP energy per Si atom -5575.967054 kJ/mol
# Density = 2.096723 g / cm^3
# Si number density = 21.015060 Si / 1000 Ang^3
#
#
#
# Elastic Constant Matrix: (Units=GPa)
#
#
# Indices 1 2 3 4 5 6 
#
# 1 65.6332 -1.6271 37.3855 0.0000 -13.3507 -0.0004
# 2 -1.6271 49.4776 13.9769 0.0050 -3.4094 0.0036
# 3 37.3855 13.9769 122.8632 0.0048 -24.0749 0.0041
# 4 0.0000 0.0050 0.0048 34.3624 0.0027 -9.6808
# 5 -13.3507 -3.4094 -24.0749 0.0027 59.0561 0.0015
# 6 -0.0004 0.0036 0.0041 -9.6808 0.0015 35.4175
#
#
#
# Elastic Compliance Matrix: (Units=1/GPa)
#
#
# Indices 1 2 3 4 5 6 
#
# 1 0.018922 0.002353 -0.005609 0.000000 0.002127 0.000001
# 2 0.002353 0.021178 -0.003023 -0.000003 0.000522 -0.000003
# 3 -0.005609 -0.003023 0.010767 -0.000002 0.002947 -0.000002
# 4 0.000000 -0.000003 -0.000002 0.031530 -0.000002 0.008618
# 5 0.002127 0.000522 0.002947 -0.000002 0.018645 -0.000002
# 6 0.000001 -0.000003 -0.000002 0.008618 -0.000002 0.030590
#
#
# Mechanical properties :
#
#
# Convention : Reuss Voigt Hill
#
# Bulk Modulus (GPa) = 26.10230 37.49386 31.79808
# Shear Modulus (GPa) = 31.85534 38.31645 35.08589
#
# Velocity S-wave (km/s) = 3.89759 4.27463 4.09046
# Velocity P-wave (km/s) = 5.71863 6.49949 6.12152
#
# Compressibility (1/GPa) = 0.03831081
#
# Stress axis : x y z
#
# Youngs Moduli (GPa) = 52.84875 47.21774 92.87583
#
# Poissons Ratio (x) = -0.11111 0.52090
# Poissons Ratio (y) = -0.12436 0.28076
# Poissons Ratio (z) = 0.29641 0.14274
#
# Static dielectric constant tensor:
#      x y z
#    x 1.938260 0.000020 -0.032160 
#    y 0.000020 1.877820 0.000000 
#    z -0.032160 0.000000 1.780550 
# 
# From -- ./inp_files/37918.got.cif
#   From: 2010.05.17/outbox.cif.g08.bks.cpg/sg15_19_cif.got.tgz:37918.got - 2010.06.03 18:47:42.
