data_PCOD9280495
_publ_section_title
;
Structure prediction by ZEFSAII (Michael W. Deem and Ramdas Pophale) SiO2 
 PCOD9280495
Probable space group: C 2/C
;
_chemical_formula_sum "Si O2"
_cell_formula_units_Z 56
_cell_length_a 17.720603
_cell_length_b 18.363286
_cell_length_c 8.898169
_cell_angle_alpha 90.000000
_cell_angle_beta 67.145387
_cell_angle_gamma 90.000000
_cell_volume 2668.220738
_symmetry_space_group_name_H-M "C 2/C"
_symmetry_group_IT_number 15
_symmetry_cell_setting 'monoclinic'
loop_
_space_group_symop_operation_xyz
x,y,z
-x,y,1/2-z
-x,-y,-z
x,-y,1/2+z
1/2+x,1/2+y,z
1/2-x,1/2+y,1/2-z
1/2-x,1/2-y,-z
1/2+x,1/2-y,1/2+z
loop_
_atom_site_type_symbol
_atom_site_label
_atom_site_fract_x
_atom_site_fract_y
_atom_site_fract_z
Si Si1 0.785496 0.192007 0.753721
Si Si2 0.060888 0.594986 0.009413
Si Si3 0.000000 0.009594 0.750000
Si Si4 0.123788 0.440106 0.902157
Si Si5 0.373290 0.170001 0.825851
Si Si6 0.187971 0.346484 0.618704
Si Si7 0.562750 0.399113 0.482353
Si Si8 0.000000 0.793087 0.750000
O O1 0.709787 0.188812 0.697114
O O2 0.808054 0.274900 0.780230
O O3 0.857462 0.145810 0.623983
O O4 0.756009 0.158043 0.936357
O O5 0.102361 0.650465 0.092812
O O6 0.966618 0.573528 0.100813
O O7 0.117348 0.522537 0.963484
O O8 0.068777 0.629538 0.839229
O O9 0.965067 0.058882 0.644359
O O10 0.066922 0.957953 0.614957
O O11 0.188039 0.417461 0.724632
O O12 0.137323 0.384856 0.028368
O O13 0.420779 0.243023 0.830878
O O14 0.496839 0.342520 0.603134
#
# Coordination Sequence:
#
# PCOD9280495 Si02
#       8
#     8   8   4   8   8   8   8   4
#     4  10  24  43  61  92 136 163 210 264 328 374
#     4  10  21  37  60  91 130 170 214 259 304 377
#     4   9  22  46  74  94 123 154 226 266 317 390
#     4  11  20  37  63  90 128 173 216 257 305 375
#     4  11  22  40  60  97 129 167 217 260 311 392
#     4  10  22  39  58  90 129 172 207 260 316 380
#     4  10  22  45  68  97 120 165 206 276 325 375
#     4  11  22  38  70  94 121 164 220 256 325 378
#
# _framework density 20.987769
#
# number of rings (size 3 to 8) (size 9 to 14) (size 15 to 20)
#    0.000    1.714    1.429    2.143    0.000    8.000 
#   10.286    1.429    0.000    0.000    0.000    0.000 
#    0.000    0.000    0.000    0.000    0.000    0.000 
#
# Total GULP energy -156300.713511 kJ/mol
# GULP energy per Si atom -5582.168340 kJ/mol
# Density = 2.094000 g / cm^3
# Si number density = 20.987769 Si / 1000 Ang^3
#
#
#
# Elastic Constant Matrix: (Units=GPa)
#
#
# Indices 1 2 3 4 5 6 
#
# 1 54.2160 40.7430 21.9211 0.0000 3.6503 0.0000
# 2 40.7430 111.4125 56.8054 0.0000 5.0319 0.0000
# 3 21.9211 56.8054 108.2448 0.0000 6.2263 0.0000
# 4 0.0000 0.0000 0.0000 21.8329 0.0000 -4.6800
# 5 3.6503 5.0319 6.2263 0.0000 25.4454 0.0000
# 6 0.0000 0.0000 0.0000 -4.6800 0.0000 13.3804
#
#
#
# Elastic Compliance Matrix: (Units=1/GPa)
#
#
# Indices 1 2 3 4 5 6 
#
# 1 0.025525 -0.009107 -0.000287 0.000000 -0.001791 0.000000
# 2 -0.009107 0.015523 -0.006289 0.000000 -0.000224 0.000000
# 3 -0.000287 -0.006289 0.012702 0.000000 -0.001823 0.000000
# 4 0.000000 0.000000 0.000000 0.049515 0.000000 0.017319
# 5 -0.001791 -0.000224 -0.001823 0.000000 0.040047 0.000000
# 6 0.000000 0.000000 0.000000 0.017319 0.000000 0.080794
#
#
# Mechanical properties :
#
#
# Convention : Reuss Voigt Hill
#
# Bulk Modulus (GPa) = 44.67557 56.97915 50.82736
# Shear Modulus (GPa) = 19.01626 22.42533 20.72079
#
# Velocity S-wave (km/s) = 3.01335 3.27233 3.14551
# Velocity P-wave (km/s) = 5.78271 6.44090 6.12066
#
# Compressibility (1/GPa) = 0.02238360
#
# Stress axis : x y z
#
# Youngs Moduli (GPa) = 39.17669 64.42146 78.73036
#
# Poissons Ratio (x) = 0.58671 0.02258
# Poissons Ratio (y) = 0.35680 0.49512
# Poissons Ratio (z) = 0.01124 0.40514
#
# Static dielectric constant tensor:
#      x y z
#    x 1.727670 0.000000 -0.017880 
#    y 0.000000 1.776370 0.000000 
#    z -0.017880 0.000000 1.799190 
# 
# From -- ./inp_files/49069.got.cif
#   From: 2010.05.17/outbox.cif.g08.bks.cpg/sg15_25_cif.got.tgz:49069.got - 2010.06.03 18:47:42.
