data_PCOD9280070
_publ_section_title
;
Structure prediction by ZEFSAII (Michael W. Deem and Ramdas Pophale) SiO2 
 PCOD9280070
Probable space group: C 2/C
;
_chemical_formula_sum "Si O2"
_cell_formula_units_Z 60
_cell_length_a 25.432480
_cell_length_b 20.323088
_cell_length_c 14.490460
_cell_angle_alpha 90.000000
_cell_angle_beta 21.931451
_cell_angle_gamma 90.000000
_cell_volume 2797.356023
_symmetry_space_group_name_H-M "C 2/C"
_symmetry_group_IT_number 15
_symmetry_cell_setting 'monoclinic'
loop_
_space_group_symop_operation_xyz
x,y,z
-x,y,1/2-z
-x,-y,-z
x,-y,1/2+z
1/2+x,1/2+y,z
1/2-x,1/2+y,1/2-z
1/2-x,1/2-y,-z
1/2+x,1/2-y,1/2+z
loop_
_atom_site_type_symbol
_atom_site_label
_atom_site_fract_x
_atom_site_fract_y
_atom_site_fract_z
Si Si1 0.500000 0.146267 0.250000
Si Si2 0.832715 0.655318 0.148425
Si Si3 0.265182 0.071557 0.573109
Si Si4 0.683240 0.041041 0.627228
Si Si5 0.617233 0.752412 0.435105
Si Si6 0.354493 0.810376 0.307324
Si Si7 0.362658 0.992174 0.591094
Si Si8 0.827298 0.182503 0.899991
O O1 0.421245 0.103930 0.300887
O O2 0.383913 0.193987 0.481961
O O3 0.753854 0.708026 0.214326
O O4 0.809723 0.580964 0.152012
O O5 0.758297 0.656504 0.371267
O O6 0.995074 0.678211 0.888077
O O7 0.171442 0.131151 0.687173
O O8 0.220904 0.008764 0.585775
O O9 0.298726 0.043663 0.621010
O O10 0.716842 0.117911 0.567969
O O11 0.678483 0.017505 0.740597
O O12 0.530006 0.025143 0.830174
O O13 0.601510 0.794184 0.368831
O O14 0.485760 0.704070 0.663549
O O15 0.250000 0.750000 0.500000
O O16 0.750000 0.250000 0.000000
#
# Coordination Sequence:
#
# PCOD9280070 Si02
#       8
#     4   8   8   8   8   8   8   8
#     4  12  20  34  66 106 126 160 224 290 336 392
#     4  11  22  43  68  97 134 175 220 285 339 398
#     4  12  21  36  64  98 136 168 224 277 334 400
#     4  10  21  39  62  91 132 168 221 280 325 395
#     4  12  24  41  68  99 136 171 226 279 350 400
#     4  11  26  43  64  94 136 178 224 269 331 409
#     4  10  21  36  64  96 125 176 223 272 335 395
#     4  12  21  39  67 103 132 165 216 292 348 383
#
# _framework density 21.448824999999999
#
# number of rings (size 3 to 8) (size 9 to 14) (size 15 to 20)
#    0.000    0.800    6.667    0.800    3.733    0.533 
#    0.000    0.667    0.000    0.000    0.000    0.000 
#    0.000    0.000    0.000    0.000    0.000    0.000 
#
# Total GULP energy -167250.461446 kJ/mol
# GULP energy per Si atom -5575.015382 kJ/mol
# Density = 2.140001 g / cm^3
# Si number density = 21.448825 Si / 1000 Ang^3
#
#
#
# Elastic Constant Matrix: (Units=GPa)
#
#
# Indices 1 2 3 4 5 6 
#
# 1 83.0878 49.0190 8.5983 0.0009 -1.8349 -0.0004
# 2 49.0190 175.1865 22.9037 0.0016 -12.3439 -0.0010
# 3 8.5983 22.9037 35.9034 0.0027 -5.5933 -0.0017
# 4 0.0009 0.0016 0.0027 18.9438 -0.0015 -8.3634
# 5 -1.8349 -12.3439 -5.5933 -0.0015 22.6472 0.0007
# 6 -0.0004 -0.0010 -0.0017 -8.3634 0.0007 35.9335
#
#
#
# Elastic Compliance Matrix: (Units=1/GPa)
#
#
# Indices 1 2 3 4 5 6 
#
# 1 0.014480 -0.003996 -0.001118 0.000000 -0.001281 0.000000
# 2 -0.003996 0.007470 -0.003354 0.000000 0.002920 0.000000
# 3 -0.001118 -0.003354 0.031160 -0.000003 0.005777 0.000000
# 4 0.000000 0.000000 -0.000003 0.058833 0.000003 0.013693
# 5 -0.001281 0.002920 0.005777 0.000003 0.047070 0.000000
# 6 0.000000 0.000000 0.000000 0.013693 0.000000 0.031016
#
#
# Mechanical properties :
#
#
# Convention : Reuss Voigt Hill
#
# Bulk Modulus (GPa) = 27.64362 50.57996 39.11179
# Shear Modulus (GPa) = 22.82856 29.74870 26.28863
#
# Velocity S-wave (km/s) = 3.26594 3.72823 3.50472
# Velocity P-wave (km/s) = 5.20941 6.49352 5.88659
#
# Compressibility (1/GPa) = 0.03617471
#
# Stress axis : x y z
#
# Youngs Moduli (GPa) = 69.05949 133.86056 32.09257
#
# Poissons Ratio (x) = 0.53488 0.03589
# Poissons Ratio (y) = 0.27595 0.10763
# Poissons Ratio (z) = 0.07723 0.44894
#
# Static dielectric constant tensor:
#      x y z
#    x 1.826220 0.000000 0.079040 
#    y 0.000000 1.828290 0.000000 
#    z 0.079040 0.000000 1.973240 
# 
# From -- ./inp_files/179105.got.cif
#   From: 2010.05.17/outbox.cif.g08.bks.cpg/sg15_90_cif.got.tgz:179105.got - 2010.06.03 18:47:42.
