data_PCOD9280897
_publ_section_title
;
Structure prediction by ZEFSAII (Michael W. Deem and Ramdas Pophale) SiO2 
 PCOD9280897
Probable space group: C 2/C
;
_chemical_formula_sum "Si O2"
_cell_formula_units_Z 40
_cell_length_a 12.166898
_cell_length_b 16.035189
_cell_length_c 11.606806
_cell_angle_alpha 90.000000
_cell_angle_beta 45.868412
_cell_angle_gamma 90.000000
_cell_volume 1625.306799
_symmetry_space_group_name_H-M "C 2/C"
_symmetry_group_IT_number 15
_symmetry_cell_setting 'monoclinic'
loop_
_space_group_symop_operation_xyz
x,y,z
-x,y,1/2-z
-x,-y,-z
x,-y,1/2+z
1/2+x,1/2+y,z
1/2-x,1/2+y,1/2-z
1/2-x,1/2-y,-z
1/2+x,1/2-y,1/2+z
loop_
_atom_site_type_symbol
_atom_site_label
_atom_site_fract_x
_atom_site_fract_y
_atom_site_fract_z
Si Si1 0.673918 0.333168 0.103626
Si Si2 0.852573 0.121742 0.119191
Si Si3 0.607608 0.071293 0.475483
Si Si4 0.875146 0.123423 0.437934
Si Si5 0.164801 0.312007 0.286461
O O1 0.500000 0.310495 0.250000
O O2 0.747785 0.357648 0.170534
O O3 0.750000 0.250000 0.000000
O O4 0.671935 0.394405 0.996983
O O5 0.697870 0.101301 0.297331
O O6 0.871206 0.220624 0.136603
O O7 0.005021 0.081578 0.061402
O O8 0.748993 0.067258 0.463741
O O9 0.491693 0.138357 0.614409
O O10 0.500000 0.000000 0.500000
O O11 0.773587 0.184645 0.594397
O O12 0.000000 0.156032 0.250000
#
# Coordination Sequence:
#
# PCOD9280897 Si02
#       5
#     8   8   8   8   8
#     4  10  21  37  66 105 144 182 235 295 361 420
#     4  10  22  42  73 106 139 185 240 300 355 433
#     4  11  26  45  66 103 148 189 229 297 374 439
#     4  10  22  42  67  96 138 178 235 289 355 435
#     4  11  22  41  72 106 142 181 241 299 358 429
#
# _framework density 24.610737
#
# number of rings (size 3 to 8) (size 9 to 14) (size 15 to 20)
#    0.000    1.600    2.000    1.800    8.400    8.800 
#    7.200    7.000    0.000    0.000    0.000    0.000 
#    0.000    0.000    0.000    0.000    0.000    0.000 
#
# Total GULP energy -111574.765983 kJ/mol
# GULP energy per Si atom -5578.738299 kJ/mol
# Density = 2.455472 g / cm^3
# Si number density = 24.610737 Si / 1000 Ang^3
#
#
#
# Elastic Constant Matrix: (Units=GPa)
#
#
# Indices 1 2 3 4 5 6 
#
# 1 180.1279 39.0089 82.2115 -0.0001 15.3665 0.0000
# 2 39.0089 75.9232 43.5806 0.0000 -9.8022 0.0000
# 3 82.2115 43.5806 182.2283 -0.0001 -13.9300 0.0000
# 4 -0.0001 0.0000 -0.0001 -14.7342 0.0001 -9.1402
# 5 15.3665 -9.8022 -13.9300 0.0001 52.7927 0.0000
# 6 0.0000 0.0000 0.0000 -9.1402 0.0000 28.8914
#
#
#
# Elastic Compliance Matrix: (Units=1/GPa)
#
#
# Indices 1 2 3 4 5 6 
#
# 1 0.007908 -0.002696 -0.003202 0.000000 -0.003647 0.000000
# 2 -0.002696 0.016377 -0.002457 0.000000 0.003177 0.000000
# 3 -0.003202 -0.002457 0.007712 0.000000 0.002510 0.000000
# 4 0.000000 0.000000 0.000000 -0.056735 0.000000 -0.017949
# 5 -0.003647 0.003177 0.002510 0.000000 0.021256 0.000000
# 6 0.000000 0.000000 0.000000 -0.017949 0.000000 0.028934
#
#
# Mechanical properties :
#
#
# Convention : Reuss Voigt Hill
#
# Bulk Modulus (GPa) = 65.41788 85.32015 75.36901
# Shear Modulus (GPa) = 105.80329 31.62189 68.71259
#
# Velocity S-wave (km/s) = 6.56384 3.58841 5.28965
# Velocity P-wave (km/s) = 9.16974 7.20500 8.24610
#
# Compressibility (1/GPa) = 0.01528634
#
# Stress axis : x y z
#
# Youngs Moduli (GPa) = 126.45661 61.06030 129.67432
#
# Poissons Ratio (x) = 0.16463 0.41517
# Poissons Ratio (y) = 0.34094 0.31867
# Poissons Ratio (z) = 0.40486 0.15005
#
# Static dielectric constant tensor:
#      x y z
#    x 1.959640 0.000000 0.048660 
#    y 0.000000 2.055820 0.000000 
#    z 0.048660 0.000000 1.901700 
# 
# From -- ./inp_files/89315.got.cif
#   From: 2010.05.17/outbox.cif.g08.bks.cpg/sg15_45_cif.got.tgz:89315.got - 2010.06.03 18:47:42.
