data_PCOD9280353
_publ_section_title
;
Structure prediction by ZEFSAII (Michael W. Deem and Ramdas Pophale) SiO2 
 PCOD9280353
Probable space group: C 2/C
;
_chemical_formula_sum "Si O2"
_cell_formula_units_Z 40
_cell_length_a 5.547894
_cell_length_b 13.239578
_cell_length_c 25.921905
_cell_angle_alpha 90.000000
_cell_angle_beta 110.417391
_cell_angle_gamma 90.000000
_cell_volume 1784.392697
_symmetry_space_group_name_H-M "C 2/C"
_symmetry_group_IT_number 15
_symmetry_cell_setting 'monoclinic'
loop_
_space_group_symop_operation_xyz
x,y,z
-x,y,1/2-z
-x,-y,-z
x,-y,1/2+z
1/2+x,1/2+y,z
1/2-x,1/2+y,1/2-z
1/2-x,1/2-y,-z
1/2+x,1/2-y,1/2+z
loop_
_atom_site_type_symbol
_atom_site_label
_atom_site_fract_x
_atom_site_fract_y
_atom_site_fract_z
Si Si1 0.945173 0.820421 0.190740
Si Si2 0.766127 0.762176 0.069287
Si Si3 0.980128 0.978878 0.059427
Si Si4 0.888800 0.622829 0.654017
Si Si5 0.224771 0.812687 0.924748
O O1 0.201105 0.877372 0.189508
O O2 0.000000 0.770131 0.250000
O O3 0.858694 0.751010 0.136136
O O4 0.692961 0.889986 0.181476
O O5 0.472108 0.729500 0.046583
O O6 0.817885 0.878553 0.060027
O O7 0.967294 0.698280 0.050810
O O8 0.261127 0.952770 0.103288
O O9 0.854970 0.071274 0.080871
O O10 0.000000 0.000000 0.000000
O O11 0.846362 0.735998 0.627196
#
# Coordination Sequence:
#
# PCOD9280353 Si02
#       5
#     8   8   8   8   8
#     4   9  16  33  58  79 107 144 180 231 289 334
#     4   9  21  36  54  84 110 142 191 229 278 337
#     4  10  21  37  59  83 115 157 190 225 280 334
#     4   9  20  34  52  85 111 140 191 228 275 340
#     4   9  19  37  55  76 114 144 177 235 269 314
#
# _framework density 22.416589999999999
#
# number of rings (size 3 to 8) (size 9 to 14) (size 15 to 20)
#    0.000    3.200    0.000    0.600    0.000   10.400 
#    0.000   21.000    0.000   58.800    0.000    0.000 
#    0.000    0.000    0.000    0.000    0.000    0.000 
#
# Total GULP energy -111412.090121 kJ/mol
# GULP energy per Si atom -5570.604506 kJ/mol
# Density = 2.236557 g / cm^3
# Si number density = 22.416590 Si / 1000 Ang^3
#
#
#
# Elastic Constant Matrix: (Units=GPa)
#
#
# Indices 1 2 3 4 5 6 
#
# 1 213.3680 34.1498 17.7548 0.0000 -4.9918 0.0000
# 2 34.1498 121.5853 18.0653 0.0000 7.7901 0.0000
# 3 17.7548 18.0653 119.3040 0.0000 -13.3758 0.0000
# 4 0.0000 0.0000 0.0000 17.2648 0.0000 1.6763
# 5 -4.9918 7.7901 -13.3758 0.0000 15.9069 0.0000
# 6 0.0000 0.0000 0.0000 1.6763 0.0000 10.7505
#
#
#
# Elastic Compliance Matrix: (Units=1/GPa)
#
#
# Indices 1 2 3 4 5 6 
#
# 1 0.004998 -0.001493 -0.000287 0.000000 0.002058 0.000000
# 2 -0.001493 0.009362 -0.001945 0.000000 -0.006689 0.000000
# 3 -0.000287 -0.001945 0.009734 0.000000 0.009047 0.000000
# 4 0.000000 0.000000 0.000000 0.058812 0.000000 -0.009170
# 5 0.002058 -0.006689 0.009047 0.000000 0.074395 0.000000
# 6 0.000000 0.000000 0.000000 -0.009170 0.000000 0.094449
#
#
# Mechanical properties :
#
#
# Convention : Reuss Voigt Hill
#
# Bulk Modulus (GPa) = 60.08715 66.02191 63.05453
# Shear Modulus (GPa) = 18.88599 34.40359 26.64479
#
# Velocity S-wave (km/s) = 2.90574 3.92182 3.45138
# Velocity P-wave (km/s) = 6.17420 7.07275 6.63869
#
# Compressibility (1/GPa) = 0.01664249
#
# Stress axis : x y z
#
# Youngs Moduli (GPa) = 200.09140 106.81922 102.73734
#
# Poissons Ratio (x) = 0.15948 0.02948
# Poissons Ratio (y) = 0.29873 0.19986
# Poissons Ratio (z) = 0.05741 0.20780
#
# Static dielectric constant tensor:
#      x y z
#    x 1.921220 0.000000 0.012310 
#    y 0.000000 1.818980 0.000000 
#    z 0.012310 0.000000 1.925780 
# 
# From -- ./inp_files/285341.got.cif
#   From: 2010.05.17/outbox.cif.g08.bks.cpg/sg15_143_cif.got.tgz:285341.got - 2010.06.03 18:47:42.
