data_PCOD9280781
_publ_section_title
;
Structure prediction by ZEFSAII (Michael W. Deem and Ramdas Pophale) SiO2 
 PCOD9280781
Probable space group: C 2/C
;
_chemical_formula_sum "Si O2"
_cell_formula_units_Z 48
_cell_length_a 23.248588
_cell_length_b 8.903132
_cell_length_c 10.027822
_cell_angle_alpha 90.000000
_cell_angle_beta 114.695319
_cell_angle_gamma 90.000000
_cell_volume 1885.780622
_symmetry_space_group_name_H-M "C 2/C"
_symmetry_group_IT_number 15
_symmetry_cell_setting 'monoclinic'
loop_
_space_group_symop_operation_xyz
x,y,z
-x,y,1/2-z
-x,-y,-z
x,-y,1/2+z
1/2+x,1/2+y,z
1/2-x,1/2+y,1/2-z
1/2-x,1/2-y,-z
1/2+x,1/2-y,1/2+z
loop_
_atom_site_type_symbol
_atom_site_label
_atom_site_fract_x
_atom_site_fract_y
_atom_site_fract_z
Si Si1 0.500000 0.144829 0.250000
Si Si2 0.199133 0.436349 0.807309
Si Si3 0.302738 0.274036 0.726775
Si Si4 0.420727 0.226041 0.428143
Si Si5 0.000000 0.817644 0.750000
Si Si6 0.625675 0.806202 0.961438
Si Si7 0.388461 0.516777 0.731431
O O1 0.474382 0.217605 0.363920
O O2 0.432962 0.086208 0.130989
O O3 0.251898 0.348964 0.775088
O O4 0.216452 0.610821 0.843201
O O5 0.133626 0.395998 0.661604
O O6 0.185889 0.370996 0.941382
O O7 0.330439 0.402516 0.659859
O O8 0.362474 0.225734 0.875410
O O9 0.456323 0.228456 0.602924
O O10 0.386679 0.386612 0.366365
O O11 0.952681 0.924058 0.785300
O O12 0.612634 0.644539 0.882233
#
# Coordination Sequence:
#
# PCOD9280781 Si02
#       7
#     4   8   8   8   4   8   8
#     4   8  17  40  67  88 123 166 207 248 311 384
#     4  10  24  42  62  90 124 166 217 264 318 381
#     4  12  23  43  65  89 126 170 212 267 324 379
#     4  10  21  40  63  95 129 169 213 261 315 381
#     4  12  21  36  65 100 129 162 215 266 311 380
#     4  10  21  41  65  92 125 168 211 261 317 380
#     4  10  21  37  63  95 126 167 211 258 316 383
#
# _framework density 25.453652000000002
#
# number of rings (size 3 to 8) (size 9 to 14) (size 15 to 20)
#    0.000    2.000    0.000    7.000    0.000    1.333 
#    0.000   14.167    0.000    0.000    0.000    0.000 
#    0.000    0.000    0.000    0.000    0.000    0.000 
#
# Total GULP energy -134000.537641 kJ/mol
# GULP energy per Si atom -5583.355735 kJ/mol
# Density = 2.539572 g / cm^3
# Si number density = 25.453652 Si / 1000 Ang^3
#
#
#
# Elastic Constant Matrix: (Units=GPa)
#
#
# Indices 1 2 3 4 5 6 
#
# 1 95.2268 49.0637 -25.3233 0.0000 16.7001 0.0000
# 2 49.0637 165.7927 11.2180 0.0000 11.5136 0.0000
# 3 -25.3233 11.2180 100.5656 0.0000 15.8220 0.0000
# 4 0.0000 0.0000 0.0000 -10.1669 0.0000 53.4196
# 5 16.7001 11.5136 15.8220 0.0000 15.6306 0.0000
# 6 0.0000 0.0000 0.0000 53.4196 0.0000 -117.9697
#
#
#
# Elastic Compliance Matrix: (Units=1/GPa)
#
#
# Indices 1 2 3 4 5 6 
#
# 1 0.020919 -0.004860 0.010423 0.000000 -0.029321 0.000000
# 2 -0.004860 0.007486 -0.002388 0.000000 0.002096 0.000000
# 3 0.010423 -0.002388 0.017020 0.000000 -0.026605 0.000000
# 4 0.000000 0.000000 0.000000 0.071312 0.000000 0.032292
# 5 -0.029321 0.002096 -0.026605 0.000000 0.120691 0.000000
# 6 0.000000 0.000000 0.000000 0.032292 0.000000 0.006146
#
#
# Mechanical properties :
#
#
# Convention : Reuss Voigt Hill
#
# Bulk Modulus (GPa) = 19.31466 47.94466 33.62966
# Shear Modulus (GPa) = 19.64771 -0.72609 9.46081
#
# Velocity S-wave (km/s) = 2.78133 -0.53468 1.93001
# Velocity P-wave (km/s) = 4.23308 4.30067 4.26701
#
# Compressibility (1/GPa) = 0.05177413
#
# Stress axis : x y z
#
# Youngs Moduli (GPa) = 47.80418 133.58590 58.75268
#
# Poissons Ratio (x) = 0.64917 -0.61236
# Poissons Ratio (y) = 0.23231 0.14033
# Poissons Ratio (z) = -0.49824 0.31906
#
# Static dielectric constant tensor:
#      x y z
#    x 2.004410 0.000000 0.049470 
#    y 0.000000 2.033590 0.000000 
#    z 0.049470 0.000000 2.075240 
# 
# From -- ./inp_files/121646.got.cif
#   From: 2010.05.17/outbox.cif.g08.bks.cpg/sg15_61_cif.got.tgz:121646.got - 2010.06.03 18:47:42.
