data_PCOD9280794
_publ_section_title
;
Structure prediction by ZEFSAII (Michael W. Deem and Ramdas Pophale) SiO2 
 PCOD9280794
Probable space group: C 2/C
;
_chemical_formula_sum "Si O2"
_cell_formula_units_Z 48
_cell_length_a 15.427179
_cell_length_b 14.400775
_cell_length_c 15.578033
_cell_angle_alpha 90.000000
_cell_angle_beta 143.894075
_cell_angle_gamma 90.000000
_cell_volume 2039.419829
_symmetry_space_group_name_H-M "C 2/C"
_symmetry_group_IT_number 15
_symmetry_cell_setting 'monoclinic'
loop_
_space_group_symop_operation_xyz
x,y,z
-x,y,1/2-z
-x,-y,-z
x,-y,1/2+z
1/2+x,1/2+y,z
1/2-x,1/2+y,1/2-z
1/2-x,1/2-y,-z
1/2+x,1/2-y,1/2+z
loop_
_atom_site_type_symbol
_atom_site_label
_atom_site_fract_x
_atom_site_fract_y
_atom_site_fract_z
Si Si1 0.059184 0.598350 0.158971
Si Si2 0.228420 0.740214 0.177112
Si Si3 0.721134 0.545151 0.715717
Si Si4 0.721160 0.859559 0.969964
Si Si5 0.447094 0.498313 0.594903
Si Si6 0.545297 0.291093 0.875792
O O1 0.119984 0.676810 0.144485
O O2 0.120445 0.502246 0.169162
O O3 0.137077 0.618982 0.313069
O O4 0.886921 0.606686 0.040591
O O5 0.226337 0.844488 0.211462
O O6 0.395728 0.705329 0.312272
O O7 0.168739 0.743034 0.031675
O O8 0.618836 0.514420 0.712898
O O9 0.633276 0.508098 0.561693
O O10 0.750000 0.750000 0.000000
O O11 0.870106 0.918392 0.083375
O O12 0.411879 0.397847 0.606409
O O13 0.500000 0.244348 0.750000
#
# Coordination Sequence:
#
# PCOD9280794 Si02
#       6
#     8   8   8   8   8   8
#     4  10  21  39  62  97 135 170 223 276 333 409
#     4  11  23  42  71  92 133 179 224 278 339 407
#     4   9  18  37  65  91 121 176 218 265 334 394
#     4  10  21  37  63  99 136 170 218 278 338 405
#     4   9  18  38  65  87 127 172 218 270 332 398
#     4  11  24  45  65  96 129 177 230 284 332 400
#
# _framework density 23.536104999999999
#
# number of rings (size 3 to 8) (size 9 to 14) (size 15 to 20)
#    0.000    2.000    1.667    1.500    4.667    0.000 
#   18.000    0.833    0.000    0.000    0.000    0.000 
#    0.000    0.000    0.000    0.000    0.000    0.000 
#
# Total GULP energy -134268.530638 kJ/mol
# GULP energy per Si atom -5594.522110 kJ/mol
# Density = 2.348254 g / cm^3
# Si number density = 23.536105 Si / 1000 Ang^3
#
#
#
# Elastic Constant Matrix: (Units=GPa)
#
#
# Indices 1 2 3 4 5 6 
#
# 1 64.9953 7.1574 6.1057 0.0000 8.5550 0.0000
# 2 7.1574 68.0348 -11.9255 0.0000 5.5145 0.0000
# 3 6.1057 -11.9255 74.5572 0.0000 2.3962 0.0000
# 4 0.0000 0.0000 0.0000 21.3811 0.0000 8.1298
# 5 8.5550 5.5145 2.3962 0.0000 35.9506 0.0000
# 6 0.0000 0.0000 0.0000 8.1298 0.0000 23.3222
#
#
#
# Elastic Compliance Matrix: (Units=1/GPa)
#
#
# Indices 1 2 3 4 5 6 
#
# 1 0.016169 -0.001677 -0.001480 0.000000 -0.003492 0.000000
# 2 -0.001677 0.015521 0.002689 0.000000 -0.002161 0.000000
# 3 -0.001480 0.002689 0.013996 0.000000 -0.000993 0.000000
# 4 0.000000 0.000000 0.000000 0.053917 0.000000 -0.018795
# 5 -0.003492 -0.002161 -0.000993 0.000000 0.029045 0.000000
# 6 0.000000 0.000000 0.000000 -0.018795 0.000000 0.049429
#
#
# Mechanical properties :
#
#
# Convention : Reuss Voigt Hill
#
# Bulk Modulus (GPa) = 22.34640 23.36251 22.85445
# Shear Modulus (GPa) = 25.78250 29.88075 27.83163
#
# Velocity S-wave (km/s) = 3.31334 3.56697 3.44249
# Velocity P-wave (km/s) = 4.91455 5.18769 5.05297
#
# Compressibility (1/GPa) = 0.04474994
#
# Stress axis : x y z
#
# Youngs Moduli (GPa) = 61.84639 64.42714 71.44978
#
# Poissons Ratio (x) = 0.10807 0.10576
# Poissons Ratio (y) = 0.10375 -0.19216
# Poissons Ratio (z) = 0.09155 -0.17328
#
# Static dielectric constant tensor:
#      x y z
#    x 1.913720 0.000000 -0.038770 
#    y 0.000000 1.826940 0.000000 
#    z -0.038770 0.000000 1.953210 
# 
# From -- ./inp_files/66497.got.cif
#   From: 2010.05.17/outbox.cif.g08.bks.cpg/sg15_34_cif.got.tgz:66497.got - 2010.06.03 18:47:42.
