data_PCOD9280945
_publ_section_title
;
Structure prediction by ZEFSAII (Michael W. Deem and Ramdas Pophale) SiO2 
 PCOD9280945
Probable space group: C 2/C
;
_chemical_formula_sum "Si O2"
_cell_formula_units_Z 36
_cell_length_a 14.716517
_cell_length_b 18.363673
_cell_length_c 11.630884
_cell_angle_alpha 90.000000
_cell_angle_beta 151.747266
_cell_angle_gamma 90.000000
_cell_volume 1487.888640
_symmetry_space_group_name_H-M "C 2/C"
_symmetry_group_IT_number 15
_symmetry_cell_setting 'monoclinic'
loop_
_space_group_symop_operation_xyz
x,y,z
-x,y,1/2-z
-x,-y,-z
x,-y,1/2+z
1/2+x,1/2+y,z
1/2-x,1/2+y,1/2-z
1/2-x,1/2-y,-z
1/2+x,1/2-y,1/2+z
loop_
_atom_site_type_symbol
_atom_site_label
_atom_site_fract_x
_atom_site_fract_y
_atom_site_fract_z
Si Si1 0.050755 0.276450 0.171134
Si Si2 0.574338 0.372965 0.952678
Si Si3 0.842486 0.611544 0.290993
Si Si4 0.279012 0.970695 0.364537
Si Si5 0.000000 0.076339 0.750000
O O1 0.069071 0.190447 0.166655
O O2 0.000000 0.284799 0.250000
O O3 0.242584 0.322429 0.369414
O O4 0.915754 0.313353 0.925516
O O5 0.500000 0.402796 0.750000
O O6 0.645064 0.433743 0.117797
O O7 0.815639 0.553199 0.365336
O O8 0.019150 0.573674 0.415659
O O9 0.646781 0.617558 0.000108
O O10 0.157375 0.963276 0.344486
#
# Coordination Sequence:
#
# PCOD9280945 Si02
#       5
#     8   8   8   8   4
#     4  10  21  38  65  96 129 167 214 282 329 377
#     4  10  21  37  67  96 130 165 218 276 332 381
#     4  10  24  43  64  96 132 174 221 271 327 386
#     4  10  24  43  65  97 133 172 219 275 323 394
#     4  12  24  40  68  94 132 174 220 256 332 402
#
# _framework density 24.195359
#
# number of rings (size 3 to 8) (size 9 to 14) (size 15 to 20)
#    0.000    1.778    0.000    4.000    7.778    5.333 
#    0.000    1.111    0.000    0.000    0.000    0.000 
#    0.000    0.000    0.000    0.000    0.000    0.000 
#
# Total GULP energy -100684.164056 kJ/mol
# GULP energy per Si atom -5593.564670 kJ/mol
# Density = 2.414029 g / cm^3
# Si number density = 24.195359 Si / 1000 Ang^3
#
#
#
# Elastic Constant Matrix: (Units=GPa)
#
#
# Indices 1 2 3 4 5 6 
#
# 1 111.4165 14.6554 28.9351 0.0000 12.4686 0.0000
# 2 14.6554 97.7308 11.6105 0.0000 -18.6650 0.0000
# 3 28.9351 11.6105 159.0806 0.0000 -5.0779 0.0000
# 4 0.0000 0.0000 0.0000 -2.6325 0.0000 8.8219
# 5 12.4686 -18.6650 -5.0779 0.0000 43.0970 0.0000
# 6 0.0000 0.0000 0.0000 8.8219 0.0000 24.0248
#
#
#
# Elastic Compliance Matrix: (Units=1/GPa)
#
#
# Indices 1 2 3 4 5 6 
#
# 1 0.010179 -0.002085 -0.001829 0.000000 -0.004064 0.000000
# 2 -0.002085 0.011652 -0.000292 0.000000 0.005615 0.000000
# 3 -0.001829 -0.000292 0.006678 0.000000 0.001190 0.000000
# 4 0.000000 0.000000 0.000000 -0.170302 0.000000 0.062535
# 5 -0.004064 0.005615 0.001190 0.000000 0.026951 0.000000
# 6 0.000000 0.000000 0.000000 0.062535 0.000000 0.018661
#
#
# Mechanical properties :
#
#
# Convention : Reuss Voigt Hill
#
# Bulk Modulus (GPa) = 49.75854 53.18111 51.46982
# Shear Modulus (GPa) = -61.67570 33.76631 -13.95469
#
# Velocity S-wave (km/s) = -5.05431 3.73979 -2.40417
# Velocity P-wave (km/s) = 3.66762 6.37774 3.68945
#
# Compressibility (1/GPa) = 0.02009705
#
# Stress axis : x y z
#
# Youngs Moduli (GPa) = 98.23776 85.82225 149.74358
#
# Poissons Ratio (x) = 0.17896 0.27389
# Poissons Ratio (y) = 0.20485 0.04371
# Poissons Ratio (z) = 0.17968 0.02505
#
# Static dielectric constant tensor:
#      x y z
#    x 2.044190 0.000000 0.130480 
#    y 0.000000 1.918050 0.000000 
#    z 0.130480 0.000000 2.021330 
# 
# From -- ./inp_files/99920.got.cif
#   From: 2010.05.17/outbox.cif.g08.bks.cpg/sg15_50_cif.got.tgz:99920.got - 2010.06.03 18:47:42.
