data_PCOD9280372
_publ_section_title
;
Structure prediction by ZEFSAII (Michael W. Deem and Ramdas Pophale) SiO2 
 PCOD9280372
Probable space group: C 2/C
;
_chemical_formula_sum "Si O2"
_cell_formula_units_Z 48
_cell_length_a 31.729454
_cell_length_b 8.401660
_cell_length_c 7.783829
_cell_angle_alpha 90.000000
_cell_angle_beta 89.151092
_cell_angle_gamma 90.000000
_cell_volume 2074.786042
_symmetry_space_group_name_H-M "C 2/C"
_symmetry_group_IT_number 15
_symmetry_cell_setting 'monoclinic'
loop_
_space_group_symop_operation_xyz
x,y,z
-x,y,1/2-z
-x,-y,-z
x,-y,1/2+z
1/2+x,1/2+y,z
1/2-x,1/2+y,1/2-z
1/2-x,1/2-y,-z
1/2+x,1/2-y,1/2+z
loop_
_atom_site_type_symbol
_atom_site_label
_atom_site_fract_x
_atom_site_fract_y
_atom_site_fract_z
Si Si1 0.628911 0.422249 0.887846
Si Si2 0.545627 0.746106 0.284488
Si Si3 0.455893 0.920374 0.847652
Si Si4 0.207243 0.574326 0.379295
Si Si5 0.126896 0.746882 0.255304
Si Si6 0.290047 0.746001 0.257389
O O1 0.585542 0.367823 0.798232
O O2 0.628783 0.612424 0.894102
O O3 0.670125 0.364000 0.783965
O O4 0.630988 0.337069 0.072256
O O5 0.500000 0.668252 0.250000
O O6 0.542890 0.839781 0.466267
O O7 0.551358 0.889512 0.148672
O O8 0.500000 0.892498 0.750000
O O9 0.417118 0.843588 0.749111
O O10 0.164389 0.624330 0.286779
O O11 0.247867 0.644072 0.279135
O O12 0.211835 0.384811 0.384067
O O13 0.205612 0.657295 0.564697
#
# Coordination Sequence:
#
# PCOD9280372 Si02
#       6
#     8   8   8   8   8   8
#     4  11  24  40  60  87 119 156 197 242 293 348
#     4  10  21  37  59  86 115 151 194 240 291 347
#     4  10  21  37  59  86 115 151 194 240 291 347
#     4  11  24  41  63  90 120 155 195 240 290 346
#     4  11  24  40  60  87 119 156 197 242 293 348
#     4  11  24  41  63  90 120 155 195 240 290 346
#
# _framework density 23.134917000000002
#
# number of rings (size 3 to 8) (size 9 to 14) (size 15 to 20)
#    0.000    1.333    0.000    6.000    0.000   14.000 
#    0.000    3.333    0.000    0.000    0.000    0.000 
#    0.000    0.000    0.000    0.000    0.000    0.000 
#
# Total GULP energy -134465.379726 kJ/mol
# GULP energy per Si atom -5602.724155 kJ/mol
# Density = 2.308226 g / cm^3
# Si number density = 23.134917 Si / 1000 Ang^3
#
#
#
# Elastic Constant Matrix: (Units=GPa)
#
#
# Indices 1 2 3 4 5 6 
#
# 1 131.2169 33.3371 22.9171 0.0000 2.8849 0.0000
# 2 33.3371 60.1073 -19.3778 0.0000 -1.8856 0.0000
# 3 22.9171 -19.3778 65.7111 0.0000 1.7575 0.0000
# 4 0.0000 0.0000 0.0000 31.0719 0.0000 4.9774
# 5 2.8849 -1.8856 1.7575 0.0000 24.8142 0.0000
# 6 0.0000 0.0000 0.0000 4.9774 0.0000 39.3453
#
#
#
# Elastic Compliance Matrix: (Units=1/GPa)
#
#
# Indices 1 2 3 4 5 6 
#
# 1 0.010726 -0.007942 -0.006045 0.000000 -0.001422 0.000000
# 2 -0.007942 0.024291 0.009878 0.000000 0.002070 0.000000
# 3 -0.006045 0.009878 0.020239 0.000000 0.000020 0.000000
# 4 0.000000 0.000000 0.000000 0.032849 0.000000 -0.004156
# 5 -0.001422 0.002070 0.000020 0.000000 0.040621 0.000000
# 6 0.000000 0.000000 0.000000 -0.004156 0.000000 0.025942
#
#
# Mechanical properties :
#
#
# Convention : Reuss Voigt Hill
#
# Bulk Modulus (GPa) = 21.25960 36.75423 29.00692
# Shear Modulus (GPa) = 28.00114 33.72355 30.86234
#
# Velocity S-wave (km/s) = 3.48277 3.82211 3.65638
# Velocity P-wave (km/s) = 5.03808 5.94974 5.51279
#
# Compressibility (1/GPa) = 0.04703757
#
# Stress axis : x y z
#
# Youngs Moduli (GPa) = 93.23373 41.16717 49.41050
#
# Poissons Ratio (x) = 0.32695 0.29867
# Poissons Ratio (y) = 0.74047 -0.48807
# Poissons Ratio (z) = 0.56357 -0.40664
#
# Static dielectric constant tensor:
#      x y z
#    x 1.809700 0.000000 0.016900 
#    y 0.000000 1.810240 0.000000 
#    z 0.016900 0.000000 1.927890 
# 
# From -- ./inp_files/68578.got.cif
#   From: 2010.05.17/outbox.cif.g08.bks.cpg/sg15_35_cif.got.tgz:68578.got - 2010.06.03 18:47:42.
