data_PCOD9280190
_publ_section_title
;
Structure prediction by ZEFSAII (Michael W. Deem and Ramdas Pophale) SiO2 
 PCOD9280190
Probable space group: C 2/C
;
_chemical_formula_sum "Si O2"
_cell_formula_units_Z 40
_cell_length_a 9.337485
_cell_length_b 17.848603
_cell_length_c 16.317541
_cell_angle_alpha 90.000000
_cell_angle_beta 140.177289
_cell_angle_gamma 90.000000
_cell_volume 1741.605553
_symmetry_space_group_name_H-M "C 2/C"
_symmetry_group_IT_number 15
_symmetry_cell_setting 'monoclinic'
loop_
_space_group_symop_operation_xyz
x,y,z
-x,y,1/2-z
-x,-y,-z
x,-y,1/2+z
1/2+x,1/2+y,z
1/2-x,1/2+y,1/2-z
1/2-x,1/2-y,-z
1/2+x,1/2-y,1/2+z
loop_
_atom_site_type_symbol
_atom_site_label
_atom_site_fract_x
_atom_site_fract_y
_atom_site_fract_z
Si Si1 0.704206 0.886928 0.279782
Si Si2 0.959386 0.778582 0.318063
Si Si3 0.395717 0.417508 0.940299
Si Si4 0.116788 0.631976 0.463708
Si Si5 0.710900 0.460298 0.782139
O O1 0.500000 0.898245 0.250000
O O2 0.718682 0.814863 0.227597
O O3 0.909564 0.868798 0.432784
O O4 0.736102 0.959734 0.236770
O O5 0.000000 0.738852 0.250000
O O6 0.015584 0.714555 0.407481
O O7 0.140963 0.847324 0.392308
O O8 0.184767 0.406864 0.906991
O O9 0.349720 0.409049 0.824319
O O10 0.500000 0.500000 0.000000
O O11 0.930767 0.577271 0.419316
O O12 0.500000 0.465337 0.750000
#
# Coordination Sequence:
#
# PCOD9280190 Si02
#       5
#     8   8   8   8   8
#     4  10  21  37  56  80 114 150 186 232 284 333
#     4  10  21  38  59  85 113 148 192 231 278 336
#     4   9  18  35  56  80 109 147 188 224 278 337
#     4  10  21  38  60  82 115 155 184 227 286 338
#     4  11  21  34  56  86 113 144 191 236 276 331
#
# _framework density 22.967313000000001
#
# number of rings (size 3 to 8) (size 9 to 14) (size 15 to 20)
#    0.000    2.000    0.000    4.800    0.000    2.400 
#    0.000   11.000    0.000    9.600    0.000    0.000 
#    0.000    0.000    0.000    0.000    0.000    0.000 
#
# Total GULP energy -111458.211903 kJ/mol
# GULP energy per Si atom -5572.910595 kJ/mol
# Density = 2.291504 g / cm^3
# Si number density = 22.967313 Si / 1000 Ang^3
#
#
#
# Elastic Constant Matrix: (Units=GPa)
#
#
# Indices 1 2 3 4 5 6 
#
# 1 162.8889 42.2470 13.0161 -0.0001 38.5486 -0.0001
# 2 42.2470 97.4064 13.5425 0.0001 21.0856 0.0002
# 3 13.0161 13.5425 44.8741 0.0010 12.2249 0.0009
# 4 -0.0001 0.0001 0.0010 29.0706 0.0003 3.8544
# 5 38.5486 21.0856 12.2249 0.0003 37.8043 0.0002
# 6 -0.0001 0.0002 0.0009 3.8544 0.0002 26.3577
#
#
#
# Elastic Compliance Matrix: (Units=1/GPa)
#
#
# Indices 1 2 3 4 5 6 
#
# 1 0.008437 -0.002061 0.000225 0.000000 -0.007526 0.000000
# 2 -0.002061 0.012332 -0.001999 0.000000 -0.004130 0.000000
# 3 0.000225 -0.001999 0.024763 -0.000001 -0.007123 -0.000001
# 4 0.000000 0.000000 -0.000001 0.035079 0.000000 -0.005130
# 5 -0.007526 -0.004130 -0.007123 0.000000 0.038733 0.000000
# 6 0.000000 0.000000 -0.000001 -0.005130 0.000000 0.038690
#
#
# Mechanical properties :
#
#
# Convention : Reuss Voigt Hill
#
# Bulk Modulus (GPa) = 26.41150 49.19784 37.80467
# Shear Modulus (GPa) = 28.03880 34.40410 31.22145
#
# Velocity S-wave (km/s) = 3.49780 3.87455 3.69099
# Velocity P-wave (km/s) = 5.27612 6.44077 5.88731
#
# Compressibility (1/GPa) = 0.03786230
#
# Stress axis : x y z
#
# Youngs Moduli (GPa) = 118.52713 81.08817 40.38317
#
# Poissons Ratio (x) = 0.16715 -0.00909
# Poissons Ratio (y) = 0.24433 0.08071
# Poissons Ratio (z) = -0.02669 0.16207
#
# Static dielectric constant tensor:
#      x y z
#    x 1.999220 0.000000 -0.132800 
#    y 0.000000 1.879530 0.000000 
#    z -0.132800 0.000000 2.064370 
# 
# From -- ./inp_files/77635.got.cif
#   From: 2010.05.17/outbox.cif.g08.bks.cpg/sg15_39_cif.got.tgz:77635.got - 2010.06.03 18:47:42.
