data_PCOD9280561
_publ_section_title
;
Structure prediction by ZEFSAII (Michael W. Deem and Ramdas Pophale) SiO2 
 PCOD9280561
Probable space group: C 2/C
;
_chemical_formula_sum "Si O2"
_cell_formula_units_Z 52
_cell_length_a 15.983742
_cell_length_b 12.824726
_cell_length_c 11.562657
_cell_angle_alpha 90.000000
_cell_angle_beta 106.587553
_cell_angle_gamma 90.000000
_cell_volume 2271.559056
_symmetry_space_group_name_H-M "C 2/C"
_symmetry_group_IT_number 15
_symmetry_cell_setting 'monoclinic'
loop_
_space_group_symop_operation_xyz
x,y,z
-x,y,1/2-z
-x,-y,-z
x,-y,1/2+z
1/2+x,1/2+y,z
1/2-x,1/2+y,1/2-z
1/2-x,1/2-y,-z
1/2+x,1/2-y,1/2+z
loop_
_atom_site_type_symbol
_atom_site_label
_atom_site_fract_x
_atom_site_fract_y
_atom_site_fract_z
Si Si1 0.149336 0.139888 0.149290
Si Si2 0.384047 0.428334 0.498642
Si Si3 0.943935 0.297603 0.978859
Si Si4 0.668912 0.061641 0.205369
Si Si5 0.684472 0.889032 0.381282
Si Si6 0.500000 0.397547 0.750000
Si Si7 0.641310 0.151700 0.608248
O O1 0.236417 0.111756 0.252044
O O2 0.168363 0.235327 0.068870
O O3 0.066871 0.167316 0.198091
O O4 0.119357 0.032211 0.078308
O O5 0.434303 0.327546 0.466026
O O6 0.282859 0.393382 0.467018
O O7 0.434167 0.454996 0.637173
O O8 0.879837 0.333001 0.057163
O O9 0.038113 0.344839 0.044872
O O10 0.904089 0.354874 0.851934
O O11 0.655469 0.003684 0.323358
O O12 0.668508 0.969247 0.107430
O O13 0.679101 0.832556 0.254290
#
# Coordination Sequence:
#
# PCOD9280561 Si02
#       7
#     8   8   8   8   8   4   8
#     4  11  22  41  59  88 125 152 202 245 297 358
#     4  11  23  37  61  91 121 158 197 246 303 340
#     4  12  19  36  64  90 122 150 203 247 293 351
#     4   9  23  36  60  90 119 161 194 242 303 347
#     4   9  21  37  58  92 117 155 196 246 290 351
#     4  12  22  36  64  90 116 160 198 254 292 350
#     4  10  21  37  61  88 121 153 200 243 297 340
#
# _framework density 22.891767000000002
#
# number of rings (size 3 to 8) (size 9 to 14) (size 15 to 20)
#    0.923    0.615    1.538    4.615    0.000    0.000 
#    0.000    0.000    3.385    2.769    0.000    0.000 
#    0.000    0.000    0.000    0.000    0.000    0.000 
#
# Total GULP energy -144792.224689 kJ/mol
# GULP energy per Si atom -5568.931719 kJ/mol
# Density = 2.283966 g / cm^3
# Si number density = 22.891767 Si / 1000 Ang^3
#
#
#
# Elastic Constant Matrix: (Units=GPa)
#
#
# Indices 1 2 3 4 5 6 
#
# 1 49.0947 24.6511 32.2786 0.0000 32.1388 0.0000
# 2 24.6511 131.5349 26.2330 0.0000 29.9984 0.0000
# 3 32.2786 26.2330 117.8897 0.0000 50.2851 0.0000
# 4 0.0000 0.0000 0.0000 20.0956 0.0000 23.0791
# 5 32.1388 29.9984 50.2851 0.0000 40.7418 0.0000
# 6 0.0000 0.0000 0.0000 23.0791 0.0000 17.5936
#
#
#
# Elastic Compliance Matrix: (Units=1/GPa)
#
#
# Indices 1 2 3 4 5 6 
#
# 1 0.043932 0.000181 0.005849 0.000000 -0.042007 0.000000
# 2 0.000181 0.009315 0.001825 0.000000 -0.009253 0.000000
# 3 0.005849 0.001825 0.019040 0.000000 -0.029457 0.000000
# 4 0.000000 0.000000 0.000000 -0.098240 0.000000 0.128870
# 5 -0.042007 -0.009253 -0.029457 0.000000 0.100852 0.000000
# 6 0.000000 0.000000 0.000000 0.128870 0.000000 -0.112211
#
#
# Mechanical properties :
#
#
# Convention : Reuss Voigt Hill
#
# Bulk Modulus (GPa) = 11.36431 51.64941 31.50686
# Shear Modulus (GPa) = -211.06422 30.04332 -90.51045
#
# Velocity S-wave (km/s) = -9.61255 3.62665 -6.29478
# Velocity P-wave (km/s) = 10.87319 6.33626 6.24813
#
# Compressibility (1/GPa) = 0.08799477
#
# Stress axis : x y z
#
# Youngs Moduli (GPa) = 22.76265 107.35209 52.52203
#
# Poissons Ratio (x) = -0.01938 -0.30720
# Poissons Ratio (y) = -0.00411 -0.09584
# Poissons Ratio (z) = -0.13314 -0.19588
#
# Static dielectric constant tensor:
#      x y z
#    x 1.860330 0.000000 -0.052850 
#    y 0.000000 1.995730 0.000000 
#    z -0.052850 0.000000 1.903460 
# 
# From -- ./inp_files/161063.got.cif
#   From: 2010.05.17/outbox.cif.g08.bks.cpg/sg15_81_cif.got.tgz:161063.got - 2010.06.03 18:47:42.
