data_PCOD9280795
_publ_section_title
;
Structure prediction by ZEFSAII (Michael W. Deem and Ramdas Pophale) SiO2 
 PCOD9280795
Probable space group: C 2/C
;
_chemical_formula_sum "Si O2"
_cell_formula_units_Z 48
_cell_length_a 27.476528
_cell_length_b 5.770264
_cell_length_c 28.536978
_cell_angle_alpha 90.000000
_cell_angle_beta 151.097952
_cell_angle_gamma 90.000000
_cell_volume 2186.727171
_symmetry_space_group_name_H-M "C 2/C"
_symmetry_group_IT_number 15
_symmetry_cell_setting 'monoclinic'
loop_
_space_group_symop_operation_xyz
x,y,z
-x,y,1/2-z
-x,-y,-z
x,-y,1/2+z
1/2+x,1/2+y,z
1/2-x,1/2+y,1/2-z
1/2-x,1/2-y,-z
1/2+x,1/2-y,1/2+z
loop_
_atom_site_type_symbol
_atom_site_label
_atom_site_fract_x
_atom_site_fract_y
_atom_site_fract_z
Si Si1 0.945658 0.313843 0.837681
Si Si2 0.262632 0.662695 0.735052
Si Si3 0.234148 0.296006 0.932759
Si Si4 0.646530 0.032247 0.548625
Si Si5 0.295411 0.164889 0.658928
Si Si6 0.048884 0.957649 0.244932
O O1 0.876567 0.146693 0.810730
O O2 0.859583 0.480830 0.742918
O O3 0.000000 0.171358 0.841005
O O4 0.029286 0.448682 0.937951
O O5 0.243459 0.415126 0.744726
O O6 0.182778 0.671619 0.624717
O O7 0.297427 0.136967 0.950208
O O8 0.246853 0.553800 0.924555
O O9 0.117265 0.240264 0.825706
O O10 0.250000 0.250000 0.000000
O O11 0.698155 0.782223 0.600145
O O12 0.377359 0.356815 0.715646
O O13 0.000000 0.067478 0.250000
#
# Coordination Sequence:
#
# PCOD9280795 Si02
#       6
#     8   8   8   8   8   8
#     4  11  24  45  71 100 143 188 239 305 374 444
#     4  12  27  50  77 106 150 192 254 321 371 440
#     4  10  21  38  63  97 145 185 234 294 359 441
#     4  11  24  44  71 102 139 193 238 306 376 445
#     4  10  21  43  64  99 152 187 238 300 359 441
#     4  10  21  37  63  99 140 187 234 291 359 437
#
# _framework density 21.950613000000001
#
# number of rings (size 3 to 8) (size 9 to 14) (size 15 to 20)
#    0.000    1.333    5.000    2.000    0.000   10.667 
#    0.000    0.000    0.000    0.000    0.000    0.000 
#    0.000    0.000    0.000    0.000    0.000    0.000 
#
# Total GULP energy -133702.530565 kJ/mol
# GULP energy per Si atom -5570.938774 kJ/mol
# Density = 2.190065 g / cm^3
# Si number density = 21.950613 Si / 1000 Ang^3
#
#
#
# Elastic Constant Matrix: (Units=GPa)
#
#
# Indices 1 2 3 4 5 6 
#
# 1 98.4287 31.6999 36.6238 0.0011 -22.8091 0.0027
# 2 31.6999 85.3547 24.5443 0.0051 -15.9947 -0.0068
# 3 36.6238 24.5443 114.5694 0.0006 -22.0615 -0.0010
# 4 0.0011 0.0051 0.0006 23.8447 0.0030 -6.5608
# 5 -22.8091 -15.9947 -22.0615 0.0030 25.5402 0.0032
# 6 0.0027 -0.0068 -0.0010 -6.5608 0.0032 28.9106
#
#
#
# Elastic Compliance Matrix: (Units=1/GPa)
#
#
# Indices 1 2 3 4 5 6 
#
# 1 0.013925 -0.002914 -0.002140 -0.000002 0.008763 -0.000003
# 2 -0.002914 0.014099 -0.001067 -0.000003 0.005305 0.000002
# 3 -0.002140 -0.001067 0.010969 -0.000001 0.006895 -0.000001
# 4 -0.000002 -0.000003 -0.000001 0.044731 -0.000011 0.010151
# 5 0.008763 0.005305 0.006895 -0.000011 0.056258 -0.000008
# 6 -0.000003 0.000002 -0.000001 0.010151 -0.000008 0.036893
#
#
# Mechanical properties :
#
#
# Convention : Reuss Voigt Hill
#
# Bulk Modulus (GPa) = 37.38274 53.78763 45.58519
# Shear Modulus (GPa) = 25.24812 29.35808 27.30310
#
# Velocity S-wave (km/s) = 3.39517 3.66110 3.53064
# Velocity P-wave (km/s) = 5.69535 6.51373 6.11824
#
# Compressibility (1/GPa) = 0.02675032
#
# Stress axis : x y z
#
# Youngs Moduli (GPa) = 71.81371 70.92608 91.16800
#
# Poissons Ratio (x) = 0.20670 0.19507
# Poissons Ratio (y) = 0.20928 0.09731
# Poissons Ratio (z) = 0.15366 0.07570
#
# Static dielectric constant tensor:
#      x y z
#    x 1.931920 -0.000010 -0.011950 
#    y -0.000010 1.871590 0.000000 
#    z -0.011950 0.000000 1.803470 
# 
# From -- ./inp_files/319335.got.cif
#   From: 2010.05.17/outbox.cif.g08.bks.cpg/sg15_160_cif.got.tgz:319335.got - 2010.06.03 18:47:42.
