data_PCOD9280302
_publ_section_title
;
Structure prediction by ZEFSAII (Michael W. Deem and Ramdas Pophale) SiO2 
 PCOD9280302
Probable space group: C 2/C
;
_chemical_formula_sum "Si O2"
_cell_formula_units_Z 48
_cell_length_a 19.232786
_cell_length_b 14.562810
_cell_length_c 23.457314
_cell_angle_alpha 90.000000
_cell_angle_beta 21.236085
_cell_angle_gamma 90.000000
_cell_volume 2379.732336
_symmetry_space_group_name_H-M "C 2/C"
_symmetry_group_IT_number 15
_symmetry_cell_setting 'monoclinic'
loop_
_space_group_symop_operation_xyz
x,y,z
-x,y,1/2-z
-x,-y,-z
x,-y,1/2+z
1/2+x,1/2+y,z
1/2-x,1/2+y,1/2-z
1/2-x,1/2-y,-z
1/2+x,1/2-y,1/2+z
loop_
_atom_site_type_symbol
_atom_site_label
_atom_site_fract_x
_atom_site_fract_y
_atom_site_fract_z
Si Si1 0.592995 0.275138 0.318820
Si Si2 0.416497 0.105916 0.404949
Si Si3 0.196698 0.064070 0.460651
Si Si4 0.016386 0.460203 0.052122
Si Si5 0.142846 0.075383 0.916596
Si Si6 0.032242 0.282073 0.981819
O O1 0.439318 0.213143 0.402452
O O2 0.484192 0.370403 0.413172
O O3 0.808417 0.294450 0.134248
O O4 0.637308 0.214373 0.341000
O O5 0.261811 0.080537 0.475411
O O6 0.625374 0.091274 0.216074
O O7 0.389930 0.038175 0.479216
O O8 0.167736 0.960027 0.462514
O O9 0.827290 0.434147 0.233970
O O10 0.099825 0.359276 0.974066
O O11 0.000000 0.500000 0.000000
O O12 0.069242 0.178723 0.973476
O O13 0.000000 0.000000 0.000000
#
# Coordination Sequence:
#
# PCOD9280302 Si02
#       6
#     8   8   8   8   8   8
#     4  12  20  36  59  87 120 151 186 243 297 345
#     4  10  21  37  58  86 117 153 190 239 297 350
#     4  10  21  38  59  83 117 155 194 235 293 355
#     4  11  22  36  60  87 116 150 194 243 287 341
#     4  11  21  38  59  84 115 154 196 238 286 345
#     4  12  22  35  59  90 117 149 195 240 289 339
#
# _framework density 20.170335999999999
#
# number of rings (size 3 to 8) (size 9 to 14) (size 15 to 20)
#    0.000    1.000    6.667    1.500    0.000    0.000 
#    0.000    0.833    0.000    0.000    0.000    0.000 
#    0.000    0.000    0.000    0.000    0.000    0.000 
#
# Total GULP energy -133645.812047 kJ/mol
# GULP energy per Si atom -5568.575502 kJ/mol
# Density = 2.012443 g / cm^3
# Si number density = 20.170336 Si / 1000 Ang^3
#
#
#
# Elastic Constant Matrix: (Units=GPa)
#
#
# Indices 1 2 3 4 5 6 
#
# 1 86.9819 37.8012 12.0898 -0.0176 20.7463 0.0092
# 2 37.8012 124.5935 12.3924 0.0511 10.6684 -0.0079
# 3 12.0898 12.3924 45.7969 0.0087 8.8516 0.0124
# 4 -0.0176 0.0511 0.0087 29.6187 0.0164 4.5338
# 5 20.7463 10.6684 8.8516 0.0164 22.6532 -0.0172
# 6 0.0092 -0.0079 0.0124 4.5338 -0.0172 26.5763
#
#
#
# Elastic Compliance Matrix: (Units=1/GPa)
#
#
# Indices 1 2 3 4 5 6 
#
# 1 0.016311 -0.003769 -0.000803 0.000027 -0.012849 -0.000019
# 2 -0.003769 0.009347 -0.001461 -0.000019 -0.000380 0.000008
# 3 -0.000803 -0.001461 0.023979 0.000002 -0.007946 -0.000017
# 4 0.000027 -0.000019 0.000002 0.034668 -0.000046 -0.005914
# 5 -0.012849 -0.000380 -0.007946 -0.000046 0.059196 0.000054
# 6 -0.000019 0.000008 -0.000017 -0.005914 0.000054 0.038636
#
#
# Mechanical properties :
#
#
# Convention : Reuss Voigt Hill
#
# Bulk Modulus (GPa) = 26.61537 42.43768 34.52652
# Shear Modulus (GPa) = 24.18671 28.77556 26.48114
#
# Velocity S-wave (km/s) = 3.46659 3.78117 3.62729
# Velocity P-wave (km/s) = 5.40805 6.33627 5.89047
#
# Compressibility (1/GPa) = 0.03757228
#
# Stress axis : x y z
#
# Youngs Moduli (GPa) = 61.30939 106.98253 41.70379
#
# Poissons Ratio (x) = 0.40317 0.03347
# Poissons Ratio (y) = 0.23105 0.06093
# Poissons Ratio (z) = 0.04920 0.15631
#
# Static dielectric constant tensor:
#      x y z
#    x 1.783050 0.000000 0.012960 
#    y 0.000000 1.797040 0.000030 
#    z 0.012960 0.000030 1.726070 
# 
# From -- ./inp_files/280229.got.cif
#   From: 2010.05.17/outbox.cif.g08.bks.cpg/sg15_141_cif.got.tgz:280229.got - 2010.06.03 18:47:42.
