data_PCOD9280837
_publ_section_title
;
Structure prediction by ZEFSAII (Michael W. Deem and Ramdas Pophale) SiO2 
 PCOD9280837
Probable space group: C 2/C
;
_chemical_formula_sum "Si O2"
_cell_formula_units_Z 40
_cell_length_a 5.358814
_cell_length_b 16.769468
_cell_length_c 22.883188
_cell_angle_alpha 90.000000
_cell_angle_beta 64.319447
_cell_angle_gamma 90.000000
_cell_volume 1853.264141
_symmetry_space_group_name_H-M "C 2/C"
_symmetry_group_IT_number 15
_symmetry_cell_setting 'monoclinic'
loop_
_space_group_symop_operation_xyz
x,y,z
-x,y,1/2-z
-x,-y,-z
x,-y,1/2+z
1/2+x,1/2+y,z
1/2-x,1/2+y,1/2-z
1/2-x,1/2-y,-z
1/2+x,1/2-y,1/2+z
loop_
_atom_site_type_symbol
_atom_site_label
_atom_site_fract_x
_atom_site_fract_y
_atom_site_fract_z
Si Si1 0.797756 0.930123 0.500674
Si Si2 0.667086 0.217899 0.572588
Si Si3 0.412255 0.949421 0.095064
Si Si4 0.175681 0.441068 0.790788
Si Si5 0.878292 0.697924 0.394321
O O1 0.804744 0.917765 0.430749
O O2 0.791188 0.849646 0.537849
O O3 0.508406 0.969523 0.552377
O O4 0.000000 0.000000 0.500000
O O5 0.750000 0.250000 0.500000
O O6 0.633852 0.122098 0.575983
O O7 0.883500 0.252082 0.597333
O O8 0.355795 0.251340 0.614994
O O9 0.330098 0.981244 0.166413
O O10 0.500000 0.421346 0.750000
O O11 0.019693 0.367539 0.838261
O O12 0.000000 0.457016 0.750000
#
# Coordination Sequence:
#
# PCOD9280837 Si02
#       5
#     8   8   8   8   8
#     4  10  21  37  64  96 133 172 210 272 336 405
#     4  12  23  41  65 108 140 167 202 278 358 424
#     4  10  24  38  65  98 131 169 221 273 333 396
#     4  11  26  48  68  90 126 182 240 278 313 388
#     4  11  25  41  67  95 137 176 217 268 348 410
#
# _framework density 21.583538000000001
#
# number of rings (size 3 to 8) (size 9 to 14) (size 15 to 20)
#    0.000    1.200    2.000    3.000   14.000    0.000 
#    0.000    6.000    0.000    0.000    0.000    0.000 
#    0.000    0.000    0.000    0.000    0.000    0.000 
#
# Total GULP energy -111599.740332 kJ/mol
# GULP energy per Si atom -5579.987017 kJ/mol
# Density = 2.153441 g / cm^3
# Si number density = 21.583538 Si / 1000 Ang^3
#
#
#
# Elastic Constant Matrix: (Units=GPa)
#
#
# Indices 1 2 3 4 5 6 
#
# 1 155.9487 49.4622 52.2795 0.0000 17.4454 0.0000
# 2 49.4622 122.3353 36.5191 0.0000 3.9300 0.0000
# 3 52.2795 36.5191 108.0551 0.0000 17.9297 0.0000
# 4 0.0000 0.0000 0.0000 22.9937 0.0000 -1.7458
# 5 17.4454 3.9300 17.9297 0.0000 32.7596 0.0000
# 6 0.0000 0.0000 0.0000 -1.7458 0.0000 42.9940
#
#
#
# Elastic Compliance Matrix: (Units=1/GPa)
#
#
# Indices 1 2 3 4 5 6 
#
# 1 0.008439 -0.002491 -0.002799 0.000000 -0.002663 0.000000
# 2 -0.002491 0.009839 -0.002359 0.000000 0.001437 0.000000
# 3 -0.002799 -0.002359 0.012222 0.000000 -0.004915 0.000000
# 4 0.000000 0.000000 0.000000 0.043625 0.000000 0.001771
# 5 -0.002663 0.001437 -0.004915 0.000000 0.034461 0.000000
# 6 0.000000 0.000000 0.000000 0.001771 0.000000 0.023331
#
#
# Mechanical properties :
#
#
# Convention : Reuss Voigt Hill
#
# Bulk Modulus (GPa) = 65.77938 73.65119 69.71529
# Shear Modulus (GPa) = 32.83402 36.28803 34.56102
#
# Velocity S-wave (km/s) = 3.90456 4.10479 4.00593
# Velocity P-wave (km/s) = 7.13234 7.52752 7.33259
#
# Compressibility (1/GPa) = 0.01520233
#
# Stress axis : x y z
#
# Youngs Moduli (GPa) = 118.50280 101.63376 81.82228
#
# Poissons Ratio (x) = 0.25314 0.22903
# Poissons Ratio (y) = 0.29516 0.19299
# Poissons Ratio (z) = 0.33170 0.23972
#
# Static dielectric constant tensor:
#      x y z
#    x 1.908160 0.000000 -0.034560 
#    y 0.000000 1.873560 0.000000 
#    z -0.034560 0.000000 1.800580 
# 
# From -- ./inp_files/226738.got.cif
#   From: 2010.05.17/outbox.cif.g08.bks.cpg/sg15_114_cif.got.tgz:226738.got - 2010.06.03 18:47:42.
