data_PCOD9280479
_publ_section_title
;
Structure prediction by ZEFSAII (Michael W. Deem and Ramdas Pophale) SiO2 
 PCOD9280479
Probable space group: C 2/C
;
_chemical_formula_sum "Si O2"
_cell_formula_units_Z 52
_cell_length_a 12.818216
_cell_length_b 10.478201
_cell_length_c 28.704511
_cell_angle_alpha 90.000000
_cell_angle_beta 39.108914
_cell_angle_gamma 90.000000
_cell_volume 2431.945081
_symmetry_space_group_name_H-M "C 2/C"
_symmetry_group_IT_number 15
_symmetry_cell_setting 'monoclinic'
loop_
_space_group_symop_operation_xyz
x,y,z
-x,y,1/2-z
-x,-y,-z
x,-y,1/2+z
1/2+x,1/2+y,z
1/2-x,1/2+y,1/2-z
1/2-x,1/2-y,-z
1/2+x,1/2-y,1/2+z
loop_
_atom_site_type_symbol
_atom_site_label
_atom_site_fract_x
_atom_site_fract_y
_atom_site_fract_z
Si Si1 0.570921 0.112831 0.274132
Si Si2 0.104143 0.010756 0.380594
Si Si3 0.440512 0.884722 0.160905
Si Si4 0.500000 0.404785 0.750000
Si Si5 0.553736 0.385917 0.308981
Si Si6 0.269900 0.776418 0.375657
Si Si7 0.417226 0.243316 0.972520
O O1 0.500000 0.060265 0.250000
O O2 0.765996 0.093932 0.195715
O O3 0.494518 0.252024 0.308715
O O4 0.527283 0.029210 0.334070
O O5 0.001946 0.927524 0.378506
O O6 0.998356 0.116010 0.443933
O O7 0.196736 0.907511 0.380541
O O8 0.568418 0.805288 0.148425
O O9 0.468861 0.851636 0.097096
O O10 0.251794 0.862295 0.240868
O O11 0.486392 0.497743 0.710832
O O12 0.660873 0.316129 0.688069
O O13 0.136450 0.712801 0.456429
O O14 0.250000 0.250000 0.000000
#
# Coordination Sequence:
#
# PCOD9280479 Si02
#       7
#     8   8   8   4   8   8   8
#     4  11  20  37  60  91 123 162 208 264 312 369
#     4  11  22  38  63  91 121 163 214 253 318 375
#     4  10  21  37  60  90 118 162 206 255 312 374
#     4  12  24  40  60  96 120 164 212 264 320 372
#     4  11  23  35  62  87 127 154 205 268 312 371
#     4  11  23  39  64  88 123 162 215 258 314 384
#     4  10  21  40  62  88 127 166 210 260 316 376
#
# _framework density 21.382062000000001
#
# number of rings (size 3 to 8) (size 9 to 14) (size 15 to 20)
#    0.000    1.231    3.846    4.154    6.462    0.000 
#    0.000    0.769    0.000    4.615    0.000    0.000 
#    0.000    0.000    0.000    0.000    0.000    0.000 
#
# Total GULP energy -145067.135096 kJ/mol
# GULP energy per Si atom -5579.505196 kJ/mol
# Density = 2.133340 g / cm^3
# Si number density = 21.382062 Si / 1000 Ang^3
#
#
#
# Elastic Constant Matrix: (Units=GPa)
#
#
# Indices 1 2 3 4 5 6 
#
# 1 42.0337 5.9009 -3.3115 0.0000 8.8310 0.0000
# 2 5.9009 96.6276 39.8748 0.0000 13.4033 0.0000
# 3 -3.3115 39.8748 81.1869 0.0000 25.3850 0.0000
# 4 0.0000 0.0000 0.0000 11.4727 0.0000 12.4645
# 5 8.8310 13.4033 25.3850 0.0000 21.3233 0.0000
# 6 0.0000 0.0000 0.0000 12.4645 0.0000 27.6437
#
#
#
# Elastic Compliance Matrix: (Units=1/GPa)
#
#
# Indices 1 2 3 4 5 6 
#
# 1 0.029395 -0.002611 0.009199 0.000000 -0.021484 0.000000
# 2 -0.002611 0.013223 -0.006914 0.000000 0.001001 0.000000
# 3 0.009199 -0.006914 0.025360 0.000000 -0.029655 0.000000
# 4 0.000000 0.000000 0.000000 0.170867 0.000000 -0.077043
# 5 -0.021484 0.001001 -0.029655 0.000000 0.090470 0.000000
# 6 0.000000 0.000000 0.000000 -0.077043 0.000000 0.070913
#
#
# Mechanical properties :
#
#
# Convention : Reuss Voigt Hill
#
# Bulk Modulus (GPa) = 14.85293 33.86406 24.35850
# Shear Modulus (GPa) = 11.81133 23.91353 17.86243
#
# Velocity S-wave (km/s) = 2.35286 3.34787 2.89345
# Velocity P-wave (km/s) = 3.78719 5.55124 4.75179
#
# Compressibility (1/GPa) = 0.06732677
#
# Stress axis : x y z
#
# Youngs Moduli (GPa) = 34.01896 75.62745 39.43140
#
# Poissons Ratio (x) = 0.19747 -0.36273
# Poissons Ratio (y) = 0.08883 0.27262
# Poissons Ratio (z) = -0.31294 0.52286
#
# Static dielectric constant tensor:
#      x y z
#    x 1.808700 0.000000 -0.011400 
#    y 0.000000 1.822060 0.000000 
#    z -0.011400 0.000000 1.799800 
# 
# From -- ./inp_files/313082.got.cif
#   From: 2010.05.17/outbox.cif.g08.bks.cpg/sg15_157_cif.got.tgz:313082.got - 2010.06.03 18:47:42.
