data_PCOD9280059
_publ_section_title
;
Structure prediction by ZEFSAII (Michael W. Deem and Ramdas Pophale) SiO2 
 PCOD9280059
Probable space group: C 2/C
;
_chemical_formula_sum "Si O2"
_cell_formula_units_Z 52
_cell_length_a 11.668046
_cell_length_b 25.193925
_cell_length_c 7.721659
_cell_angle_alpha 90.000000
_cell_angle_beta 90.784889
_cell_angle_gamma 90.000000
_cell_volume 2269.675827
_symmetry_space_group_name_H-M "C 2/C"
_symmetry_group_IT_number 15
_symmetry_cell_setting 'monoclinic'
loop_
_space_group_symop_operation_xyz
x,y,z
-x,y,1/2-z
-x,-y,-z
x,-y,1/2+z
1/2+x,1/2+y,z
1/2-x,1/2+y,1/2-z
1/2-x,1/2-y,-z
1/2+x,1/2-y,1/2+z
loop_
_atom_site_type_symbol
_atom_site_label
_atom_site_fract_x
_atom_site_fract_y
_atom_site_fract_z
Si Si1 0.749387 0.669823 0.540245
Si Si2 0.382254 0.568862 0.985634
Si Si3 0.000000 0.490581 0.250000
Si Si4 0.376424 0.073751 0.052517
Si Si5 0.900028 0.674624 0.874128
Si Si6 0.052965 0.746720 0.063871
Si Si7 0.372299 0.446157 0.074617
O O1 0.714310 0.611783 0.471059
O O2 0.789608 0.672107 0.745337
O O3 0.855461 0.697959 0.446104
O O4 0.633684 0.704038 0.516777
O O5 0.517496 0.579828 0.015811
O O6 0.373673 0.566057 0.777219
O O7 0.369890 0.509980 0.058791
O O8 0.100132 0.532966 0.293165
O O9 0.046871 0.453856 0.097502
O O10 0.402504 0.136094 0.040451
O O11 0.243937 0.072764 0.008734
O O12 0.000000 0.654120 0.750000
O O13 0.946532 0.731633 0.936686
O O14 0.000000 0.754719 0.250000
#
# Coordination Sequence:
#
# PCOD9280059 Si02
#       7
#     8   8   4   8   8   8   8
#     4  10  22  44  70  91 128 173 206 271 332 387
#     4  10  21  40  63  95 126 170 205 255 321 384
#     4  10  24  32  56  88 128 166 222 248 308 382
#     4  11  20  37  55  91 124 174 204 263 306 378
#     4  10  21  39  63  88 127 166 207 262 328 376
#     4  10  24  42  67  97 124 161 223 275 322 386
#     4  10  21  36  64  92 128 165 212 255 303 385
#
# _framework density 22.910762999999999
#
# number of rings (size 3 to 8) (size 9 to 14) (size 15 to 20)
#    0.000    1.846    2.308    0.923    3.231    1.846 
#    2.769    0.000   30.462    0.000    0.000    0.000 
#    0.000    0.000    0.000    0.000    0.000    0.000 
#
# Total GULP energy -145000.785276 kJ/mol
# GULP energy per Si atom -5576.953280 kJ/mol
# Density = 2.285862 g / cm^3
# Si number density = 22.910763 Si / 1000 Ang^3
#
#
#
# Elastic Constant Matrix: (Units=GPa)
#
#
# Indices 1 2 3 4 5 6 
#
# 1 70.7076 10.7173 5.1966 0.0000 19.7362 0.0000
# 2 10.7173 46.0464 2.2133 0.0000 13.7792 0.0000
# 3 5.1966 2.2133 10.1942 0.0000 8.6526 0.0000
# 4 0.0000 0.0000 0.0000 -50.0148 0.0000 -8.9294
# 5 19.7362 13.7792 8.6526 0.0000 35.2793 0.0000
# 6 0.0000 0.0000 0.0000 -8.9294 0.0000 34.5927
#
#
#
# Elastic Compliance Matrix: (Units=1/GPa)
#
#
# Indices 1 2 3 4 5 6 
#
# 1 0.016829 -0.001272 -0.000926 0.000000 -0.008691 0.000000
# 2 -0.001272 0.024790 0.003638 0.000000 -0.009863 0.000000
# 3 -0.000926 0.003638 0.124451 0.000000 -0.031426 0.000000
# 4 0.000000 0.000000 0.000000 -0.019113 0.000000 -0.004934
# 5 -0.008691 -0.009863 -0.031426 0.000000 0.044767 0.000000
# 6 0.000000 0.000000 0.000000 -0.004934 0.000000 0.027634
#
#
# Mechanical properties :
#
#
# Convention : Reuss Voigt Hill
#
# Bulk Modulus (GPa) = 5.91892 18.13361 12.02626
# Shear Modulus (GPa) = 18.32874 11.22618 14.77746
#
# Velocity S-wave (km/s) = 2.83151 2.21599 2.54244
# Velocity P-wave (km/s) = 3.64403 3.80520 3.72549
#
# Compressibility (1/GPa) = 0.16894974
#
# Stress axis : x y z
#
# Youngs Moduli (GPa) = 59.41974 40.33903 8.03528
#
# Poissons Ratio (x) = 0.05130 0.00744
# Poissons Ratio (y) = 0.07557 -0.02923
# Poissons Ratio (z) = 0.05503 -0.14674
#
# Static dielectric constant tensor:
#      x y z
#    x 1.843480 0.000000 0.012800 
#    y 0.000000 1.888710 0.000000 
#    z 0.012800 0.000000 1.923970 
# 
# From -- ./inp_files/33663.got.cif
#   From: 2010.05.17/outbox.cif.g08.bks.cpg/sg15_17_cif.got.tgz:33663.got - 2010.06.03 18:47:42.
