data_PCOD9280322
_publ_section_title
;
Structure prediction by ZEFSAII (Michael W. Deem and Ramdas Pophale) SiO2 
 PCOD9280322
Probable space group: C 2/C
;
_chemical_formula_sum "Si O2"
_cell_formula_units_Z 56
_cell_length_a 9.335818
_cell_length_b 28.268387
_cell_length_c 21.193767
_cell_angle_alpha 90.000000
_cell_angle_beta 149.389682
_cell_angle_gamma 90.000000
_cell_volume 2848.045319
_symmetry_space_group_name_H-M "C 2/C"
_symmetry_group_IT_number 15
_symmetry_cell_setting 'monoclinic'
loop_
_space_group_symop_operation_xyz
x,y,z
-x,y,1/2-z
-x,-y,-z
x,-y,1/2+z
1/2+x,1/2+y,z
1/2-x,1/2+y,1/2-z
1/2-x,1/2-y,-z
1/2+x,1/2-y,1/2+z
loop_
_atom_site_type_symbol
_atom_site_label
_atom_site_fract_x
_atom_site_fract_y
_atom_site_fract_z
Si Si1 0.513305 0.287444 0.991077
Si Si2 0.334043 0.554056 0.873928
Si Si3 0.176076 0.862235 0.484259
Si Si4 0.005432 0.775034 0.662422
Si Si5 0.672474 0.619362 0.254468
Si Si6 0.533313 0.285692 0.330943
Si Si7 0.662416 0.445727 0.632271
O O1 0.573880 0.290510 0.939658
O O2 0.221297 0.260456 0.890427
O O3 0.470742 0.336473 0.011001
O O4 0.751013 0.250124 0.102743
O O5 0.477475 0.595033 0.887873
O O6 0.382553 0.500927 0.867412
O O7 0.000000 0.561168 0.750000
O O8 0.487261 0.559268 0.000654
O O9 0.487999 0.882309 0.612835
O O10 0.179029 0.820705 0.434262
O O11 0.110825 0.824656 0.728048
O O12 0.240333 0.734478 0.744899
O O13 0.500000 0.601142 0.250000
O O14 0.584083 0.590664 0.158083
O O15 0.500000 0.309139 0.250000
O O16 0.000000 0.439788 0.750000
#
# Coordination Sequence:
#
# PCOD9280322 Si02
#       7
#     8   8   8   8   8   8   8
#     4  10  21  37  58  87 123 170 214 262 313 382
#     4  10  23  41  71 102 123 164 224 282 340 391
#     4  12  23  39  64  92 129 174 220 268 334 401
#     4  10  22  36  57  88 127 165 214 264 314 378
#     4  12  25  40  67  98 129 171 223 267 331 397
#     4  10  22  38  53  81 129 173 211 258 317 383
#     4  10  21  46  73  95 130 164 224 286 328 402
#
# _framework density 19.662609
#
# number of rings (size 3 to 8) (size 9 to 14) (size 15 to 20)
#    0.000    1.429    2.857    2.143    4.000    0.000 
#    5.143    1.429    0.000    0.000    0.000    0.000 
#    0.000    0.000    0.000    0.000    0.000    0.000 
#
# Total GULP energy -156218.486566 kJ/mol
# GULP energy per Si atom -5579.231663 kJ/mol
# Density = 1.961786 g / cm^3
# Si number density = 19.662609 Si / 1000 Ang^3
#
#
#
# Elastic Constant Matrix: (Units=GPa)
#
#
# Indices 1 2 3 4 5 6 
#
# 1 75.7310 25.5139 17.0437 0.0003 -4.1392 0.0008
# 2 25.5139 79.8250 19.7649 -0.0002 5.9370 0.0004
# 3 17.0437 19.7649 87.1785 -0.0018 8.6525 0.0041
# 4 0.0003 -0.0002 -0.0018 32.4596 0.0001 -8.8701
# 5 -4.1392 5.9370 8.6525 0.0001 30.2442 -0.0003
# 6 0.0008 0.0004 0.0041 -8.8701 -0.0003 12.9345
#
#
#
# Elastic Compliance Matrix: (Units=1/GPa)
#
#
# Indices 1 2 3 4 5 6 
#
# 1 0.015501 -0.004650 -0.002344 0.000000 0.003705 0.000000
# 2 -0.004650 0.014763 -0.002148 0.000000 -0.002920 0.000001
# 3 -0.002344 -0.002148 0.012769 0.000000 -0.003552 -0.000004
# 4 0.000000 0.000000 0.000000 0.037912 0.000000 0.025999
# 5 0.003705 -0.002920 -0.003552 0.000000 0.035161 0.000002
# 6 0.000000 0.000001 -0.000004 0.025999 0.000002 0.095142
#
#
# Mechanical properties :
#
#
# Convention : Reuss Voigt Hill
#
# Bulk Modulus (GPa) = 40.40643 40.81996 40.61319
# Shear Modulus (GPa) = 21.02781 27.15510 24.09146
#
# Velocity S-wave (km/s) = 3.27376 3.72028 3.50414
# Velocity P-wave (km/s) = 5.90631 6.26572 6.08867
#
# Compressibility (1/GPa) = 0.02474854
#
# Stress axis : x y z
#
# Youngs Moduli (GPa) = 64.51134 67.73880 78.31736
#
# Poissons Ratio (x) = 0.31496 0.18358
# Poissons Ratio (y) = 0.29996 0.16824
# Poissons Ratio (z) = 0.15122 0.14551
#
# Static dielectric constant tensor:
#      x y z
#    x 1.740270 0.000000 -0.054340 
#    y 0.000000 1.683330 0.000000 
#    z -0.054340 0.000000 1.746810 
# 
# From -- ./inp_files/234943.got.cif
#   From: 2010.05.17/outbox.cif.g08.bks.cpg/sg15_118_cif.got.tgz:234943.got - 2010.06.03 18:47:42.
