data_PCOD9280537
_publ_section_title
;
Structure prediction by ZEFSAII (Michael W. Deem and Ramdas Pophale) SiO2 
 PCOD9280537
Probable space group: C 2/C
;
_chemical_formula_sum "Si O2"
_cell_formula_units_Z 40
_cell_length_a 16.635762
_cell_length_b 9.554381
_cell_length_c 25.917670
_cell_angle_alpha 90.000000
_cell_angle_beta 29.163264
_cell_angle_gamma 90.000000
_cell_volume 2007.416584
_symmetry_space_group_name_H-M "C 2/C"
_symmetry_group_IT_number 15
_symmetry_cell_setting 'monoclinic'
loop_
_space_group_symop_operation_xyz
x,y,z
-x,y,1/2-z
-x,-y,-z
x,-y,1/2+z
1/2+x,1/2+y,z
1/2-x,1/2+y,1/2-z
1/2-x,1/2-y,-z
1/2+x,1/2-y,1/2+z
loop_
_atom_site_type_symbol
_atom_site_label
_atom_site_fract_x
_atom_site_fract_y
_atom_site_fract_z
Si Si1 0.141150 0.952940 0.961016
Si Si2 0.647139 0.081551 0.574682
Si Si3 0.346123 0.893234 0.751998
Si Si4 0.445828 0.624396 0.339662
Si Si5 0.385353 0.600087 0.682598
O O1 0.283066 0.889105 0.846104
O O2 0.223936 0.074045 0.949519
O O3 0.042727 0.862724 0.058215
O O4 0.000000 0.000000 0.000000
O O5 0.538901 0.220663 0.644016
O O6 0.755726 0.088520 0.461882
O O7 0.533371 0.945826 0.642695
O O8 0.317276 0.742709 0.743453
O O9 0.241608 0.010838 0.780274
O O10 0.500000 0.630600 0.250000
O O11 0.552311 0.506017 0.308328
#
# Coordination Sequence:
#
# PCOD9280537 Si02
#       5
#     8   8   8   8   8
#     4   9  20  38  59  82 113 152 187 228 284 339
#     4  10  21  37  61  85 112 154 194 225 279 347
#     4  11  21  38  60  83 115 151 190 236 281 335
#     4  10  21  38  58  85 117 147 187 238 284 330
#     4  10  23  38  57  85 116 148 191 236 283 338
#
# _framework density 19.926107999999999
#
# number of rings (size 3 to 8) (size 9 to 14) (size 15 to 20)
#    0.000    2.000    0.000    3.000    0.000    9.600 
#    0.000    2.000    0.000    0.000    0.000    0.000 
#    0.000    0.000    0.000    0.000    0.000    0.000 
#
# Total GULP energy -111489.840287 kJ/mol
# GULP energy per Si atom -5574.492014 kJ/mol
# Density = 1.988076 g / cm^3
# Si number density = 19.926108 Si / 1000 Ang^3
#
#
#
# Elastic Constant Matrix: (Units=GPa)
#
#
# Indices 1 2 3 4 5 6 
#
# 1 61.5925 32.7970 52.4282 -0.0003 11.4769 0.0001
# 2 32.7970 92.9276 34.7331 -0.0002 5.9640 0.0001
# 3 52.4282 34.7331 123.2521 -0.0006 35.5583 0.0003
# 4 -0.0003 -0.0002 -0.0006 21.6109 0.0004 -4.8590
# 5 11.4769 5.9640 35.5583 0.0004 37.0501 -0.0002
# 6 0.0001 0.0001 0.0003 -4.8590 -0.0002 27.2494
#
#
#
# Elastic Compliance Matrix: (Units=1/GPa)
#
#
# Indices 1 2 3 4 5 6 
#
# 1 0.028494 -0.006032 -0.011277 0.000000 0.002967 0.000000
# 2 -0.006032 0.013394 -0.001557 0.000000 0.001207 0.000000
# 3 -0.011277 -0.001557 0.016967 0.000000 -0.012540 0.000000
# 4 0.000000 0.000000 0.000000 0.048206 -0.000001 0.008596
# 5 0.002967 0.001207 -0.012540 -0.000001 0.037912 0.000000
# 6 0.000000 0.000000 0.000000 0.008596 0.000000 0.038231
#
#
# Mechanical properties :
#
#
# Convention : Reuss Voigt Hill
#
# Bulk Modulus (GPa) = 47.33987 57.52099 52.43043
# Shear Modulus (GPa) = 21.93220 27.70299 24.81760
#
# Velocity S-wave (km/s) = 3.32124 3.73270 3.53297
# Velocity P-wave (km/s) = 6.20619 6.89255 6.55835
#
# Compressibility (1/GPa) = 0.02112384
#
# Stress axis : x y z
#
# Youngs Moduli (GPa) = 35.09571 74.65818 58.93886
#
# Poissons Ratio (x) = 0.45033 0.66463
# Poissons Ratio (y) = 0.21169 0.09176
# Poissons Ratio (z) = 0.39576 0.11624
#
# Static dielectric constant tensor:
#      x y z
#    x 1.715670 0.000000 -0.031720 
#    y 0.000000 1.682700 0.000000 
#    z -0.031720 0.000000 1.753660 
# 
# From -- ./inp_files/150800.got.cif
#   From: 2010.05.17/outbox.cif.g08.bks.cpg/sg15_76_cif.got.tgz:150800.got - 2010.06.03 18:47:42.
