data_PCOD9280003
_publ_section_title
;
Structure prediction by ZEFSAII (Michael W. Deem and Ramdas Pophale) SiO2 
 PCOD9280003
Probable space group: C 2/C
;
_chemical_formula_sum "Si O2"
_cell_formula_units_Z 52
_cell_length_a 7.748663
_cell_length_b 18.321736
_cell_length_c 17.306904
_cell_angle_alpha 90.000000
_cell_angle_beta 53.220055
_cell_angle_gamma 90.000000
_cell_volume 1967.946566
_symmetry_space_group_name_H-M "C 2/C"
_symmetry_group_IT_number 15
_symmetry_cell_setting 'monoclinic'
loop_
_space_group_symop_operation_xyz
x,y,z
-x,y,1/2-z
-x,-y,-z
x,-y,1/2+z
1/2+x,1/2+y,z
1/2-x,1/2+y,1/2-z
1/2-x,1/2-y,-z
1/2+x,1/2-y,1/2+z
loop_
_atom_site_type_symbol
_atom_site_label
_atom_site_fract_x
_atom_site_fract_y
_atom_site_fract_z
Si Si1 0.922206 0.695127 0.357612
Si Si2 0.609926 0.411839 0.637906
Si Si3 0.500000 0.500000 0.000000
Si Si4 0.824101 0.843788 0.351610
Si Si5 0.935985 0.433509 0.955553
Si Si6 0.950725 0.862822 0.005831
Si Si7 0.046065 0.734997 0.648477
O O1 0.951467 0.780534 0.365384
O O2 0.038295 0.636682 0.379279
O O3 0.672998 0.678599 0.441093
O O4 0.000000 0.681399 0.250000
O O5 0.500000 0.427618 0.750000
O O6 0.524957 0.427284 0.570832
O O7 0.587004 0.322801 0.632442
O O8 0.830811 0.458580 0.576595
O O9 0.776710 0.475903 0.942304
O O10 0.432254 0.426503 0.072717
O O11 0.681942 0.892644 0.443365
O O12 0.657633 0.795683 0.344391
O O13 0.000000 0.880607 0.250000
O O14 0.751599 0.809596 0.062994
O O15 0.000000 0.720273 0.750000
#
# Coordination Sequence:
#
# PCOD9280003 Si02
#       7
#     8   8   4   8   8   8   8
#     4  10  21  36  63 101 135 167 213 275 347 428
#     4  11  22  39  71 103 135 168 217 286 359 426
#     4  10  28  44  66  88 128 188 246 278 322 402
#     4  11  23  38  65 103 137 175 219 281 358 423
#     4  11  23  43  65  94 137 186 228 282 337 394
#     4  11  21  45  64  88 136 173 226 278 338 398
#     4  11  24  39  66 106 138 171 216 281 361 429
#
# _framework density 26.423480999999999
#
# number of rings (size 3 to 8) (size 9 to 14) (size 15 to 20)
#    0.000    1.231    3.077    2.769   10.769    0.615 
#    0.000    5.385    0.000    0.000    0.000    0.000 
#    0.000    0.000    0.000    0.000    0.000    0.000 
#
# Total GULP energy -144872.729612 kJ/mol
# GULP energy per Si atom -5572.028062 kJ/mol
# Density = 2.636334 g / cm^3
# Si number density = 26.423481 Si / 1000 Ang^3
#
#
#
# Elastic Constant Matrix: (Units=GPa)
#
#
# Indices 1 2 3 4 5 6 
#
# 1 139.9137 12.5911 30.3562 0.0000 -7.7057 0.0000
# 2 12.5911 136.5577 34.4781 0.0000 1.0769 0.0000
# 3 30.3562 34.4781 155.4446 0.0000 1.8303 0.0000
# 4 0.0000 0.0000 0.0000 -37.0935 0.0000 -1.4808
# 5 -7.7057 1.0769 1.8303 0.0000 49.7375 0.0000
# 6 0.0000 0.0000 0.0000 -1.4808 0.0000 30.7584
#
#
#
# Elastic Compliance Matrix: (Units=1/GPa)
#
#
# Indices 1 2 3 4 5 6 
#
# 1 0.007553 -0.000350 -0.001412 0.000000 0.001230 0.000000
# 2 -0.000350 0.007774 -0.001654 0.000000 -0.000162 0.000000
# 3 -0.001412 -0.001654 0.007081 0.000000 -0.000444 0.000000
# 4 0.000000 0.000000 0.000000 -0.026907 0.000000 -0.001295
# 5 0.001230 -0.000162 -0.000444 0.000000 0.020316 0.000000
# 6 0.000000 0.000000 0.000000 -0.001295 0.000000 0.032449
#
#
# Mechanical properties :
#
#
# Convention : Reuss Voigt Hill
#
# Bulk Modulus (GPa) = 64.19902 65.19630 64.69766
# Shear Modulus (GPa) = 82.93383 32.31319 57.62351
#
# Velocity S-wave (km/s) = 5.60844 3.50079 4.67494
# Velocity P-wave (km/s) = 8.14177 6.40842 7.32653
#
# Compressibility (1/GPa) = 0.01557656
#
# Stress axis : x y z
#
# Youngs Moduli (GPa) = 132.40168 128.63295 141.22306
#
# Poissons Ratio (x) = 0.04497 0.19939
# Poissons Ratio (y) = 0.04629 0.23360
# Poissons Ratio (z) = 0.18694 0.21278
#
# Static dielectric constant tensor:
#      x y z
#    x 2.692570 0.000000 0.172310 
#    y 0.000000 2.233430 0.000000 
#    z 0.172310 0.000000 2.128250 
# 
# From -- ./inp_files/192440.got.cif
#   From: 2010.05.17/outbox.cif.g08.bks.cpg/sg15_97_cif.got.tgz:192440.got - 2010.06.03 18:47:42.
