data_PCOD9280546
_publ_section_title
;
Structure prediction by ZEFSAII (Michael W. Deem and Ramdas Pophale) SiO2 
 PCOD9280546
Probable space group: C 2/C
;
_chemical_formula_sum "Si O2"
_cell_formula_units_Z 56
_cell_length_a 25.146508
_cell_length_b 8.615277
_cell_length_c 17.130550
_cell_angle_alpha 90.000000
_cell_angle_beta 134.061893
_cell_angle_gamma 90.000000
_cell_volume 2666.851253
_symmetry_space_group_name_H-M "C 2/C"
_symmetry_group_IT_number 15
_symmetry_cell_setting 'monoclinic'
loop_
_space_group_symop_operation_xyz
x,y,z
-x,y,1/2-z
-x,-y,-z
x,-y,1/2+z
1/2+x,1/2+y,z
1/2-x,1/2+y,1/2-z
1/2-x,1/2-y,-z
1/2+x,1/2-y,1/2+z
loop_
_atom_site_type_symbol
_atom_site_label
_atom_site_fract_x
_atom_site_fract_y
_atom_site_fract_z
Si Si1 0.641342 0.564754 0.760532
Si Si2 0.445334 0.982966 0.257586
Si Si3 0.931081 0.219965 0.368271
Si Si4 0.792997 0.345558 0.610341
Si Si5 0.049809 0.076532 0.378381
Si Si6 0.480592 0.269157 0.092114
Si Si7 0.197341 0.887395 0.973875
O O1 0.631837 0.414098 0.696205
O O2 0.692691 0.717508 0.807605
O O3 0.560318 0.643755 0.675267
O O4 0.664604 0.482782 0.866006
O O5 0.500000 0.903387 0.250000
O O6 0.371644 0.082016 0.160785
O O7 0.503147 0.108569 0.350029
O O8 0.417739 0.862074 0.295326
O O9 0.950604 0.263203 0.475681
O O10 0.004077 0.142651 0.404034
O O11 0.750000 0.250000 0.500000
O O12 0.742854 0.494993 0.574573
O O13 0.124151 0.172219 0.441397
O O14 0.000000 0.073436 0.250000
O O15 0.069880 0.896099 0.416059
O O16 0.250000 0.750000 0.000000
#
# Coordination Sequence:
#
# PCOD9280546 Si02
#       7
#     8   8   8   8   8   8   8
#     4   9  18  36  57  80 115 160 201 240 304 364
#     4  11  23  36  64  94 121 151 211 265 305 366
#     4  11  21  36  61  91 124 155 201 261 317 361
#     4   9  21  36  55  89 124 156 194 253 319 358
#     4  11  20  36  62  91 119 157 212 256 293 369
#     4  10  21  37  61  86 123 162 202 251 315 371
#     4  11  21  34  58  92 127 155 201 264 312 355
#
# _framework density 20.998546999999999
#
# number of rings (size 3 to 8) (size 9 to 14) (size 15 to 20)
#    0.000    1.714    2.857    3.857    6.000    0.000 
#    0.000    0.000    0.000   15.429    0.000    0.000 
#    0.000    0.000    0.000    0.000    0.000    0.000 
#
# Total GULP energy -155936.452750 kJ/mol
# GULP energy per Si atom -5569.159027 kJ/mol
# Density = 2.095075 g / cm^3
# Si number density = 20.998547 Si / 1000 Ang^3
#
#
#
# Elastic Constant Matrix: (Units=GPa)
#
#
# Indices 1 2 3 4 5 6 
#
# 1 48.0681 15.9393 32.8556 0.0000 11.6470 0.0000
# 2 15.9393 102.7078 27.7336 0.0000 9.4338 0.0000
# 3 32.8556 27.7336 84.5654 0.0000 10.8765 0.0000
# 4 0.0000 0.0000 0.0000 31.0590 0.0000 7.0662
# 5 11.6470 9.4338 10.8765 0.0000 23.0064 0.0000
# 6 0.0000 0.0000 0.0000 7.0662 0.0000 21.4703
#
#
#
# Elastic Compliance Matrix: (Units=1/GPa)
#
#
# Indices 1 2 3 4 5 6 
#
# 1 0.030631 -0.001048 -0.010241 0.000000 -0.010236 0.000000
# 2 -0.001048 0.010903 -0.002834 0.000000 -0.002600 0.000000
# 3 -0.010241 -0.002834 0.016948 0.000000 -0.001666 0.000000
# 4 0.000000 0.000000 0.000000 0.034803 0.000000 -0.011454
# 5 -0.010236 -0.002600 -0.001666 0.000000 0.050502 0.000000
# 6 0.000000 0.000000 0.000000 -0.011454 0.000000 0.050346
#
#
# Mechanical properties :
#
#
# Convention : Reuss Voigt Hill
#
# Bulk Modulus (GPa) = 33.07304 43.15536 38.11420
# Shear Modulus (GPa) = 21.50935 25.69465 23.60200
#
# Velocity S-wave (km/s) = 3.20398 3.50185 3.35622
# Velocity P-wave (km/s) = 5.42878 6.07839 5.76275
#
# Compressibility (1/GPa) = 0.03023611
#
# Stress axis : x y z
#
# Youngs Moduli (GPa) = 32.64628 91.71675 59.00548
#
# Poissons Ratio (x) = 0.09615 0.60426
# Poissons Ratio (y) = 0.03422 0.16722
# Poissons Ratio (z) = 0.33432 0.25992
#
# Static dielectric constant tensor:
#      x y z
#    x 1.768050 0.000000 0.051520 
#    y 0.000000 1.871710 0.000000 
#    z 0.051520 0.000000 1.671010 
# 
# From -- ./inp_files/224436.got.cif
#   From: 2010.05.17/outbox.cif.g08.bks.cpg/sg15_113_cif.got.tgz:224436.got - 2010.06.03 18:47:42.
