data_PCOD9280063
_publ_section_title
;
Structure prediction by ZEFSAII (Michael W. Deem and Ramdas Pophale) SiO2 
 PCOD9280063
Probable space group: C 2/C
;
_chemical_formula_sum "Si O2"
_cell_formula_units_Z 48
_cell_length_a 14.000171
_cell_length_b 22.645004
_cell_length_c 19.707211
_cell_angle_alpha 90.000000
_cell_angle_beta 158.081589
_cell_angle_gamma 90.000000
_cell_volume 2332.236043
_symmetry_space_group_name_H-M "C 2/C"
_symmetry_group_IT_number 15
_symmetry_cell_setting 'monoclinic'
loop_
_space_group_symop_operation_xyz
x,y,z
-x,y,1/2-z
-x,-y,-z
x,-y,1/2+z
1/2+x,1/2+y,z
1/2-x,1/2+y,1/2-z
1/2-x,1/2-y,-z
1/2+x,1/2-y,1/2+z
loop_
_atom_site_type_symbol
_atom_site_label
_atom_site_fract_x
_atom_site_fract_y
_atom_site_fract_z
Si Si1 0.539573 0.479278 0.103998
Si Si2 0.910112 0.895065 0.558842
Si Si3 0.410787 0.829795 0.863904
Si Si4 0.307002 0.123396 0.065577
Si Si5 0.682530 0.704613 0.754938
Si Si6 0.879574 0.617462 0.777325
O O1 0.525408 0.538982 0.137338
O O2 0.788110 0.437475 0.263835
O O3 0.500000 0.500000 0.000000
O O4 0.318246 0.436062 0.986798
O O5 0.779194 0.886927 0.397882
O O6 0.677855 0.885871 0.457392
O O7 0.144435 0.850537 0.719790
O O8 0.531065 0.881509 0.896522
O O9 0.360691 0.773645 0.782919
O O10 0.615185 0.810046 0.053806
O O11 0.500000 0.145690 0.250000
O O12 0.080921 0.170112 0.904522
O O13 0.794065 0.676451 0.759235
#
# Coordination Sequence:
#
# PCOD9280063 Si02
#       6
#     8   8   8   8   8   8
#     4   9  19  35  62  94 124 161 209 259 299 371
#     4  10  21  36  64  94 124 167 213 263 306 375
#     4  12  24  40  65  91 126 168 212 261 326 371
#     4  11  22  38  66  96 126 162 207 258 315 371
#     4  11  24  43  62  91 130 165 212 266 314 387
#     4   9  20  39  60  90 129 161 217 258 315 366
#
# _framework density 20.581106999999999
#
# number of rings (size 3 to 8) (size 9 to 14) (size 15 to 20)
#    0.000    1.667    0.000    6.000    7.000    1.333 
#    0.000    3.333    7.333    0.000    0.000    0.000 
#    0.000    0.000    0.000    0.000    0.000    0.000 
#
# Total GULP energy -134077.445416 kJ/mol
# GULP energy per Si atom -5586.560226 kJ/mol
# Density = 2.053426 g / cm^3
# Si number density = 20.581107 Si / 1000 Ang^3
#
#
#
# Elastic Constant Matrix: (Units=GPa)
#
#
# Indices 1 2 3 4 5 6 
#
# 1 75.0948 10.9637 23.6860 0.0098 21.9575 0.0025
# 2 10.9637 71.1020 22.2736 0.0672 3.5636 -0.0069
# 3 23.6860 22.2736 131.5323 0.0345 13.7879 -0.0132
# 4 0.0098 0.0672 0.0345 4.2052 0.0074 -0.3707
# 5 21.9575 3.5636 13.7879 0.0074 25.1621 -0.0136
# 6 0.0025 -0.0069 -0.0132 -0.3707 -0.0136 23.2603
#
#
#
# Elastic Compliance Matrix: (Units=1/GPa)
#
#
# Indices 1 2 3 4 5 6 
#
# 1 0.018412 -0.001627 -0.001464 0.000020 -0.015034 -0.000012
# 2 -0.001627 0.015010 -0.002307 -0.000218 0.000558 0.000000
# 3 -0.001464 -0.002307 0.008582 -0.000024 -0.003098 0.000002
# 4 0.000020 -0.000218 -0.000024 0.238141 -0.000042 0.003795
# 5 -0.015034 0.000558 -0.003098 -0.000042 0.054480 0.000031
# 6 -0.000012 0.000000 0.000002 0.003795 0.000031 0.043052
#
#
# Mechanical properties :
#
#
# Convention : Reuss Voigt Hill
#
# Bulk Modulus (GPa) = 32.04389 43.50842 37.77615
# Shear Modulus (GPa) = 12.53519 25.24590 18.89055
#
# Velocity S-wave (km/s) = 2.47060 3.50616 3.03290
# Velocity P-wave (km/s) = 4.87256 6.12999 5.53708
#
# Compressibility (1/GPa) = 0.03120720
#
# Stress axis : x y z
#
# Youngs Moduli (GPa) = 54.31305 66.62148 116.52534
#
# Poissons Ratio (x) = 0.10839 0.17060
# Poissons Ratio (y) = 0.08836 0.26886
# Poissons Ratio (z) = 0.07952 0.15372
#
# Static dielectric constant tensor:
#      x y z
#    x 1.746570 0.000000 -0.001430 
#    y 0.000000 1.748290 -0.000010 
#    z -0.001430 -0.000010 1.715040 
# 
# From -- ./inp_files/245650.got.cif
#   From: 2010.05.17/outbox.cif.g08.bks.cpg/sg15_123_cif.got.tgz:245650.got - 2010.06.03 18:47:42.
