data_PCOD9280786
_publ_section_title
;
Structure prediction by ZEFSAII (Michael W. Deem and Ramdas Pophale) SiO2 
 PCOD9280786
Probable space group: C 2/C
;
_chemical_formula_sum "Si O2"
_cell_formula_units_Z 48
_cell_length_a 14.041799
_cell_length_b 17.715562
_cell_length_c 14.049826
_cell_angle_alpha 90.000000
_cell_angle_beta 41.212197
_cell_angle_gamma 90.000000
_cell_volume 2302.687112
_symmetry_space_group_name_H-M "C 2/C"
_symmetry_group_IT_number 15
_symmetry_cell_setting 'monoclinic'
loop_
_space_group_symop_operation_xyz
x,y,z
-x,y,1/2-z
-x,-y,-z
x,-y,1/2+z
1/2+x,1/2+y,z
1/2-x,1/2+y,1/2-z
1/2-x,1/2-y,-z
1/2+x,1/2-y,1/2+z
loop_
_atom_site_type_symbol
_atom_site_label
_atom_site_fract_x
_atom_site_fract_y
_atom_site_fract_z
Si Si1 0.443283 0.081618 0.682970
Si Si2 0.415609 0.245675 0.410235
Si Si3 0.064427 0.413576 0.805549
Si Si4 0.195460 0.320178 0.932617
Si Si5 0.661336 0.643570 0.983543
Si Si6 0.629286 0.353897 0.882285
O O1 0.500000 0.086978 0.750000
O O2 0.548430 0.132354 0.540546
O O3 0.282647 0.114058 0.819026
O O4 0.451574 0.996506 0.638687
O O5 0.500000 0.266899 0.250000
O O6 0.250000 0.250000 0.500000
O O7 0.478574 0.163845 0.394634
O O8 0.429254 0.300816 0.489717
O O9 0.237060 0.400216 0.674379
O O10 0.000000 0.426143 0.750000
O O11 0.152129 0.234788 0.988830
O O12 0.288138 0.314267 0.767546
O O13 0.288113 0.364311 0.944571
O O14 0.509460 0.609237 0.064158
#
# Coordination Sequence:
#
# PCOD9280786 Si02
#       6
#     8   8   8   8   8   8
#     4   9  20  40  64  89 130 172 208 259 325 382
#     4  11  22  42  66  95 124 168 222 270 312 378
#     4  10  21  40  64  88 129 168 215 262 324 377
#     4  10  21  39  62  94 128 167 210 261 315 389
#     4  10  21  37  63  96 126 165 213 261 316 382
#     4  12  22  37  64  93 127 166 214 270 312 376
#
# _framework density 20.845210999999999
#
# number of rings (size 3 to 8) (size 9 to 14) (size 15 to 20)
#    0.000    1.667    3.333    2.500    0.000    4.000 
#    0.000    0.000    3.667    0.000    0.000    0.000 
#    0.000    0.000    0.000    0.000    0.000    0.000 
#
# Total GULP energy -133643.269711 kJ/mol
# GULP energy per Si atom -5568.469571 kJ/mol
# Density = 2.079777 g / cm^3
# Si number density = 20.845211 Si / 1000 Ang^3
#
#
#
# Elastic Constant Matrix: (Units=GPa)
#
#
# Indices 1 2 3 4 5 6 
#
# 1 120.4014 10.5714 40.8655 0.0003 -17.2356 -0.0008
# 2 10.5714 71.7160 30.7320 0.0004 -0.0732 -0.0011
# 3 40.8655 30.7320 120.9645 0.0008 0.8721 -0.0020
# 4 0.0003 0.0004 0.0008 41.4190 -0.0005 -55.6956
# 5 -17.2356 -0.0732 0.8721 -0.0005 50.6947 0.0013
# 6 -0.0008 -0.0011 -0.0020 -55.6956 0.0013 114.5638
#
#
#
# Elastic Compliance Matrix: (Units=1/GPa)
#
#
# Indices 1 2 3 4 5 6 
#
# 1 0.009947 -0.000014 -0.003382 0.000000 0.003440 0.000000
# 2 -0.000014 0.015648 -0.003971 0.000000 0.000086 0.000000
# 3 -0.003382 -0.003971 0.010428 0.000000 -0.001335 0.000000
# 4 0.000000 0.000000 0.000000 0.069723 0.000000 0.033896
# 5 0.003440 0.000086 -0.001335 0.000000 0.020919 0.000000
# 6 0.000000 0.000000 0.000000 0.033896 0.000000 0.025207
#
#
# Mechanical properties :
#
#
# Convention : Reuss Voigt Hill
#
# Bulk Modulus (GPa) = 46.97225 53.04661 50.00943
# Shear Modulus (GPa) = 28.78493 56.72971 42.75732
#
# Velocity S-wave (km/s) = 3.72006 5.22243 4.53391
# Velocity P-wave (km/s) = 6.40582 7.86563 7.17296
#
# Compressibility (1/GPa) = 0.02128916
#
# Stress axis : x y z
#
# Youngs Moduli (GPa) = 100.53300 63.90651 95.89603
#
# Poissons Ratio (x) = 0.00087 0.32430
# Poissons Ratio (y) = 0.00137 0.38085
# Poissons Ratio (z) = 0.33998 0.25380
#
# Static dielectric constant tensor:
#      x y z
#    x 1.848760 0.000000 -0.010810 
#    y 0.000000 1.762990 0.000000 
#    z -0.010810 0.000000 1.816140 
# 
# From -- ./inp_files/155086.got.cif
#   From: 2010.05.17/outbox.cif.g08.bks.cpg/sg15_78_cif.got.tgz:155086.got - 2010.06.03 18:47:42.
