data_PCOD9280219
_publ_section_title
;
Structure prediction by ZEFSAII (Michael W. Deem and Ramdas Pophale) SiO2 
 PCOD9280219
Probable space group: C 2/C
;
_chemical_formula_sum "Si O2"
_cell_formula_units_Z 64
_cell_length_a 32.402394
_cell_length_b 8.745230
_cell_length_c 10.779586
_cell_angle_alpha 90.000000
_cell_angle_beta 91.977375
_cell_angle_gamma 90.000000
_cell_volume 3052.753444
_symmetry_space_group_name_H-M "C 2/C"
_symmetry_group_IT_number 15
_symmetry_cell_setting 'monoclinic'
loop_
_space_group_symop_operation_xyz
x,y,z
-x,y,1/2-z
-x,-y,-z
x,-y,1/2+z
1/2+x,1/2+y,z
1/2-x,1/2+y,1/2-z
1/2-x,1/2-y,-z
1/2+x,1/2-y,1/2+z
loop_
_atom_site_type_symbol
_atom_site_label
_atom_site_fract_x
_atom_site_fract_y
_atom_site_fract_z
Si Si1 0.231375 0.398831 0.618820
Si Si2 0.451567 0.887661 0.259671
Si Si3 0.199576 0.282767 0.230905
Si Si4 0.882665 0.164326 0.164377
Si Si5 0.142600 0.310531 0.565431
Si Si6 0.414792 0.921123 0.528623
Si Si7 0.133668 0.181873 0.829989
Si Si8 0.786871 0.870856 0.007310
O O1 0.211758 0.545457 0.690761
O O2 0.259798 0.288692 0.702428
O O3 0.191802 0.317808 0.558095
O O4 0.263194 0.471675 0.523894
O O5 0.500000 0.860921 0.250000
O O6 0.423418 0.743617 0.218967
O O7 0.441046 0.920703 0.403595
O O8 0.438254 0.012891 0.152977
O O9 0.156911 0.267763 0.299979
O O10 0.190517 0.164877 0.117303
O O11 0.879960 0.989426 0.202378
O O12 0.878268 0.174994 0.014971
O O13 0.122813 0.465045 0.509741
O O14 0.133115 0.287495 0.708838
O O15 0.394443 0.761194 0.567979
O O16 0.180748 0.163029 0.881628
O O17 0.750000 0.750000 0.000000
#
# Coordination Sequence:
#
# PCOD9280219 Si02
#       8
#     8   8   8   8   8   8   8   8
#     4  11  23  38  60  91 129 178 230 289 325 395
#     4  11  24  48  77 108 138 173 223 281 347 423
#     4  11  24  40  61  91 129 177 231 281 347 390
#     4  11  27  42  67  98 136 183 223 280 351 417
#     4  11  25  42  66  96 135 180 234 275 340 408
#     4  11  23  46  75 106 136 177 223 281 343 415
#     4  12  24  43  67  97 138 182 226 284 343 409
#     4  10  21  37  56  85 126 173 226 277 332 387
#
# _framework density 20.964680000000001
#
# number of rings (size 3 to 8) (size 9 to 14) (size 15 to 20)
#    0.000    1.000    2.500    4.875    7.000    0.500 
#    0.000    1.250    0.000    0.000    0.000    0.000 
#    0.000    0.000    0.000    0.000    0.000    0.000 
#
# Total GULP energy -178829.925833 kJ/mol
# GULP energy per Si atom -5588.435182 kJ/mol
# Density = 2.091696 g / cm^3
# Si number density = 20.964680 Si / 1000 Ang^3
#
#
#
# Elastic Constant Matrix: (Units=GPa)
#
#
# Indices 1 2 3 4 5 6 
#
# 1 144.8502 52.2115 47.8357 0.0000 3.3711 0.0000
# 2 52.2115 98.8960 22.5640 0.0000 -0.2120 0.0000
# 3 47.8357 22.5640 106.6373 0.0000 -8.6060 0.0000
# 4 0.0000 0.0000 0.0000 27.1290 0.0000 -3.8578
# 5 3.3711 -0.2120 -8.6060 0.0000 30.3612 0.0000
# 6 0.0000 0.0000 0.0000 -3.8578 0.0000 21.6490
#
#
#
# Elastic Compliance Matrix: (Units=1/GPa)
#
#
# Indices 1 2 3 4 5 6 
#
# 1 0.009696 -0.004299 -0.003611 0.000000 -0.002130 0.000000
# 2 -0.004299 0.012541 -0.000695 0.000000 0.000368 0.000000
# 3 -0.003611 -0.000695 0.011438 0.000000 0.003638 0.000000
# 4 0.000000 0.000000 0.000000 0.037819 0.000000 0.006739
# 5 -0.002130 0.000368 0.003638 0.000000 0.034207 0.000000
# 6 0.000000 0.000000 0.000000 0.006739 0.000000 0.047392
#
#
# Mechanical properties :
#
#
# Convention : Reuss Voigt Hill
#
# Bulk Modulus (GPa) = 60.74358 66.17842 63.46100
# Shear Modulus (GPa) = 28.44246 31.01266 29.72756
#
# Velocity S-wave (km/s) = 3.68732 3.85032 3.76970
# Velocity P-wave (km/s) = 6.86772 7.16950 7.02023
#
# Compressibility (1/GPa) = 0.01646265
#
# Stress axis : x y z
#
# Youngs Moduli (GPa) = 103.13930 79.73939 87.42489
#
# Poissons Ratio (x) = 0.34282 0.31573
# Poissons Ratio (y) = 0.44343 0.06079
# Poissons Ratio (z) = 0.37249 0.05544
#
# Static dielectric constant tensor:
#      x y z
#    x 1.701610 0.000000 -0.040370 
#    y 0.000000 1.770110 0.000000 
#    z -0.040370 0.000000 1.884300 
# 
# From -- ./inp_files/125922.got.cif
#   From: 2010.05.17/outbox.cif.g08.bks.cpg/sg15_63_cif.got.tgz:125922.got - 2010.06.03 18:47:42.
