data_PCOD9280448
_publ_section_title
;
Structure prediction by ZEFSAII (Michael W. Deem and Ramdas Pophale) SiO2 
 PCOD9280448
Probable space group: C 2/C
;
_chemical_formula_sum "Si O2"
_cell_formula_units_Z 40
_cell_length_a 9.229707
_cell_length_b 23.616848
_cell_length_c 10.065269
_cell_angle_alpha 90.000000
_cell_angle_beta 55.339323
_cell_angle_gamma 90.000000
_cell_volume 1804.635041
_symmetry_space_group_name_H-M "C 2/C"
_symmetry_group_IT_number 15
_symmetry_cell_setting 'monoclinic'
loop_
_space_group_symop_operation_xyz
x,y,z
-x,y,1/2-z
-x,-y,-z
x,-y,1/2+z
1/2+x,1/2+y,z
1/2-x,1/2+y,1/2-z
1/2-x,1/2-y,-z
1/2+x,1/2-y,1/2+z
loop_
_atom_site_type_symbol
_atom_site_label
_atom_site_fract_x
_atom_site_fract_y
_atom_site_fract_z
Si Si1 0.585842 0.342618 0.057333
Si Si2 0.394770 0.963779 0.667854
Si Si3 0.375390 0.444472 0.189418
Si Si4 0.421785 0.863696 0.034506
Si Si5 0.044591 0.246237 0.085284
O O1 0.500000 0.334756 0.250000
O O2 0.500371 0.400791 0.044991
O O3 0.793954 0.347131 0.977332
O O4 0.526162 0.292066 0.996280
O O5 0.500000 0.964335 0.750000
O O6 0.410536 0.900050 0.602096
O O7 0.500000 0.000000 0.500000
O O8 0.213307 0.995918 0.798023
O O9 0.500000 0.456889 0.250000
O O10 0.206783 0.405199 0.314689
O O11 0.469675 0.808932 0.094776
O O12 0.000000 0.220250 0.250000
O O13 0.250000 0.250000 0.000000
#
# Coordination Sequence:
#
# PCOD9280448 Si02
#       5
#     8   8   8   8   8
#     4   9  19  39  64  87 122 172 212 254 317 394
#     4  10  21  37  60  87 116 159 207 253 310 372
#     4   8  17  38  63  86 116 162 209 255 313 374
#     4   9  20  38  58  84 123 169 207 246 310 391
#     4  12  25  40  63 100 132 164 212 274 327 367
#
# _framework density 22.165144999999999
#
# number of rings (size 3 to 8) (size 9 to 14) (size 15 to 20)
#    0.000    2.800    0.000    3.000    0.000    8.800 
#    0.000   12.000    0.000    0.000    0.000    0.000 
#    0.000    0.000    0.000    0.000    0.000    0.000 
#
# Total GULP energy -111389.849616 kJ/mol
# GULP energy per Si atom -5569.492481 kJ/mol
# Density = 2.211470 g / cm^3
# Si number density = 22.165145 Si / 1000 Ang^3
#
#
#
# Elastic Constant Matrix: (Units=GPa)
#
#
# Indices 1 2 3 4 5 6 
#
# 1 67.4833 55.9641 3.3452 0.0000 -12.3694 0.0000
# 2 55.9641 119.0861 19.2041 0.0000 6.0423 0.0000
# 3 3.3452 19.2041 39.7197 0.0000 17.7901 0.0000
# 4 0.0000 0.0000 0.0000 13.4727 0.0000 1.8575
# 5 -12.3694 6.0423 17.7901 0.0000 29.9266 0.0000
# 6 0.0000 0.0000 0.0000 1.8575 0.0000 15.6915
#
#
#
# Elastic Compliance Matrix: (Units=1/GPa)
#
#
# Indices 1 2 3 4 5 6 
#
# 1 0.030256 -0.014570 -0.003302 0.000000 0.017410 0.000000
# 2 -0.014570 0.016148 -0.003302 0.000000 -0.007319 0.000000
# 3 -0.003302 -0.003302 0.037293 0.000000 -0.022867 0.000000
# 4 0.000000 0.000000 0.000000 0.075456 0.000000 -0.008932
# 5 0.017410 -0.007319 -0.022867 0.000000 0.055682 0.000000
# 6 0.000000 0.000000 0.000000 -0.008932 0.000000 0.064786
#
#
# Mechanical properties :
#
#
# Convention : Reuss Voigt Hill
#
# Bulk Modulus (GPa) = 24.18360 42.59064 33.38712
# Shear Modulus (GPa) = 14.89199 21.66988 18.28094
#
# Velocity S-wave (km/s) = 2.59485 3.13014 2.87498
# Velocity P-wave (km/s) = 4.46228 5.68512 5.11041
#
# Compressibility (1/GPa) = 0.04135033
#
# Stress axis : x y z
#
# Youngs Moduli (GPa) = 33.05148 61.92690 26.81471
#
# Poissons Ratio (x) = 0.90225 0.08853
# Poissons Ratio (y) = 0.48154 0.08855
# Poissons Ratio (z) = 0.10912 0.20449
#
# Static dielectric constant tensor:
#      x y z
#    x 1.769330 0.000000 0.008530 
#    y 0.000000 1.897780 0.000000 
#    z 0.008530 0.000000 1.896920 
# 
# From -- ./inp_files/78982.got.cif
#   From: 2010.05.17/outbox.cif.g08.bks.cpg/sg15_40_cif.got.tgz:78982.got - 2010.06.03 18:47:42.
