data_PCOD9280719
_publ_section_title
;
Structure prediction by ZEFSAII (Michael W. Deem and Ramdas Pophale) SiO2 
 PCOD9280719
Probable space group: C 2/C
;
_chemical_formula_sum "Si O2"
_cell_formula_units_Z 40
_cell_length_a 23.780429
_cell_length_b 8.948398
_cell_length_c 20.424979
_cell_angle_alpha 90.000000
_cell_angle_beta 26.351349
_cell_angle_gamma 90.000000
_cell_volume 1929.242164
_symmetry_space_group_name_H-M "C 2/C"
_symmetry_group_IT_number 15
_symmetry_cell_setting 'monoclinic'
loop_
_space_group_symop_operation_xyz
x,y,z
-x,y,1/2-z
-x,-y,-z
x,-y,1/2+z
1/2+x,1/2+y,z
1/2-x,1/2+y,1/2-z
1/2-x,1/2-y,-z
1/2+x,1/2-y,1/2+z
loop_
_atom_site_type_symbol
_atom_site_label
_atom_site_fract_x
_atom_site_fract_y
_atom_site_fract_z
Si Si1 0.940509 0.608552 0.240053
Si Si2 0.679491 0.564767 0.014950
Si Si3 0.517597 0.100658 0.544942
Si Si4 0.726001 0.692943 0.173976
Si Si5 0.075766 0.960893 0.263396
O O1 0.800412 0.540903 0.384004
O O2 0.000000 0.593723 0.250000
O O3 0.017885 0.509374 0.107686
O O4 0.930090 0.783228 0.234419
O O5 0.721681 0.728829 0.947596
O O6 0.625381 0.533393 0.143437
O O7 0.568127 0.517788 0.081397
O O8 0.394787 0.207602 0.678922
O O9 0.652935 0.183929 0.405102
O O10 0.500000 0.000000 0.500000
O O11 0.668185 0.529980 0.220615
#
# Coordination Sequence:
#
# PCOD9280719 Si02
#       5
#     8   8   8   8   8
#     4  11  23  40  67  99 135 171 220 273 332 389
#     4  10  21  37  62  98 137 168 220 265 333 388
#     4  11  27  48  69  97 132 177 223 271 331 395
#     4  11  23  46  67  93 132 178 225 268 330 394
#     4  11  21  36  66 102 136 172 217 272 333 387
#
# _framework density 20.733530999999999
#
# number of rings (size 3 to 8) (size 9 to 14) (size 15 to 20)
#    0.000    1.200    4.000    2.400    2.800    3.200 
#    3.600    2.000    0.000    0.000    0.000    0.000 
#    0.000    0.000    0.000    0.000    0.000    0.000 
#
# Total GULP energy -111681.519423 kJ/mol
# GULP energy per Si atom -5584.075971 kJ/mol
# Density = 2.068634 g / cm^3
# Si number density = 20.733531 Si / 1000 Ang^3
#
#
#
# Elastic Constant Matrix: (Units=GPa)
#
#
# Indices 1 2 3 4 5 6 
#
# 1 77.3499 50.9050 49.2002 0.0001 -23.7874 0.0000
# 2 50.9050 89.0443 31.4853 0.0002 -21.6873 -0.0001
# 3 49.2002 31.4853 81.3380 0.0001 -41.0441 0.0000
# 4 0.0001 0.0002 0.0001 0.7964 0.0000 -0.7456
# 5 -23.7874 -21.6873 -41.0441 0.0000 39.0235 0.0000
# 6 0.0000 -0.0001 0.0000 -0.7456 0.0000 29.7363
#
#
#
# Elastic Compliance Matrix: (Units=1/GPa)
#
#
# Indices 1 2 3 4 5 6 
#
# 1 0.029657 -0.012725 -0.015897 0.000001 -0.005714 0.000000
# 2 -0.012725 0.018790 0.003791 -0.000004 0.006673 0.000000
# 3 -0.015897 0.003791 0.035409 -0.000002 0.029659 0.000000
# 4 0.000001 -0.000004 -0.000002 1.285766 -0.000003 0.032237
# 5 -0.005714 0.006673 0.029659 -0.000003 0.057046 0.000000
# 6 0.000000 0.000000 0.000000 0.032237 0.000000 0.034437
#
#
# Mechanical properties :
#
#
# Convention : Reuss Voigt Hill
#
# Bulk Modulus (GPa) = 29.24417 56.76815 43.00616
# Shear Modulus (GPa) = 3.28479 21.65403 12.46941
#
# Velocity S-wave (km/s) = 1.26005 3.23522 2.45503
# Velocity P-wave (km/s) = 4.03142 6.43388 5.36876
#
# Compressibility (1/GPa) = 0.03419485
#
# Stress axis : x y z
#
# Youngs Moduli (GPa) = 33.71873 53.22022 28.24144
#
# Poissons Ratio (x) = 0.67724 0.44894
# Poissons Ratio (y) = 0.42908 -0.10707
# Poissons Ratio (z) = 0.53601 -0.20177
#
# Static dielectric constant tensor:
#      x y z
#    x 1.751130 0.000000 0.004940 
#    y 0.000000 1.737780 0.000000 
#    z 0.004940 0.000000 1.762880 
# 
# From -- ./inp_files/116158.got.cif
#   From: 2010.05.17/outbox.cif.g08.bks.cpg/sg15_59_cif.got.tgz:116158.got - 2010.06.03 18:47:42.
