data_PCOD9280246
_publ_section_title
;
Structure prediction by ZEFSAII (Michael W. Deem and Ramdas Pophale) SiO2 
 PCOD9280246
Probable space group: C 2/C
;
_chemical_formula_sum "Si O2"
_cell_formula_units_Z 64
_cell_length_a 30.975316
_cell_length_b 19.615759
_cell_length_c 9.915812
_cell_angle_alpha 90.000000
_cell_angle_beta 141.794888
_cell_angle_gamma 90.000000
_cell_volume 3726.265190
_symmetry_space_group_name_H-M "C 2/C"
_symmetry_group_IT_number 15
_symmetry_cell_setting 'monoclinic'
loop_
_space_group_symop_operation_xyz
x,y,z
-x,y,1/2-z
-x,-y,-z
x,-y,1/2+z
1/2+x,1/2+y,z
1/2-x,1/2+y,1/2-z
1/2-x,1/2-y,-z
1/2+x,1/2-y,1/2+z
loop_
_atom_site_type_symbol
_atom_site_label
_atom_site_fract_x
_atom_site_fract_y
_atom_site_fract_z
Si Si1 0.770761 0.438167 0.464464
Si Si2 0.227783 0.438223 0.341908
Si Si3 0.604008 0.557995 0.247419
Si Si4 0.102278 0.929696 0.059678
Si Si5 0.051935 0.799872 0.501767
Si Si6 0.544381 0.279963 0.987758
Si Si7 0.189679 0.283104 0.259062
Si Si8 0.188577 0.714218 0.432472
O O1 0.786052 0.455904 0.347227
O O2 0.793153 0.500187 0.613256
O O3 0.687059 0.425446 0.274307
O O4 0.806542 0.366356 0.580533
O O5 0.312053 0.433491 0.558114
O O6 0.194410 0.364791 0.291879
O O7 0.582503 0.490678 0.112336
O O8 0.585746 0.555291 0.361706
O O9 0.574445 0.625140 0.104901
O O10 0.067444 0.858784 0.018315
O O11 0.117922 0.753159 0.626212
O O12 0.007570 0.771116 0.515867
O O13 0.000000 0.805526 0.250000
O O14 0.615508 0.241860 0.198467
O O15 0.500000 0.257105 0.750000
O O16 0.250000 0.250000 0.500000
O O17 0.198411 0.272916 0.118057
O O18 0.250000 0.750000 0.500000
#
# Coordination Sequence:
#
# PCOD9280246 Si02
#       8
#     8   8   8   8   8   8   8   8
#     4   9  19  37  60  88 119 147 199 249 297 347
#     4   9  19  37  60  88 116 151 195 252 295 349
#     4  10  21  37  57  83 121 161 205 241 295 359
#     4  10  21  37  57  85 119 164 201 245 293 358
#     4  12  25  41  57  88 124 163 203 248 304 363
#     4  12  25  41  59  87 127 162 202 251 305 358
#     4  11  23  40  65  90 120 160 206 250 300 357
#     4  11  23  40  65  91 119 160 205 252 300 356
#
# _framework density 17.175374000000001
#
# number of rings (size 3 to 8) (size 9 to 14) (size 15 to 20)
#    0.000    1.500    5.000    0.000    3.500    2.000 
#    0.000    0.000    0.000    1.500    0.000    0.000 
#    0.000    0.000    0.000    0.000    0.000    0.000 
#
# Total GULP energy -178648.707152 kJ/mol
# GULP energy per Si atom -5582.772099 kJ/mol
# Density = 1.713628 g / cm^3
# Si number density = 17.175374 Si / 1000 Ang^3
#
#
#
# Elastic Constant Matrix: (Units=GPa)
#
#
# Indices 1 2 3 4 5 6 
#
# 1 116.6110 75.3383 67.5173 0.0000 -13.3885 0.0000
# 2 75.3383 121.5853 86.9388 0.0000 -9.1708 0.0000
# 3 67.5173 86.9388 129.0108 0.0000 -10.7420 0.0000
# 4 0.0000 0.0000 0.0000 34.8159 0.0000 -6.4085
# 5 -13.3885 -9.1708 -10.7420 0.0000 23.7535 0.0000
# 6 0.0000 0.0000 0.0000 -6.4085 0.0000 30.4989
#
#
#
# Elastic Compliance Matrix: (Units=1/GPa)
#
#
# Indices 1 2 3 4 5 6 
#
# 1 0.015365 -0.007136 -0.002848 0.000000 0.004617 0.000000
# 2 -0.007136 0.019229 -0.009290 0.000000 -0.000799 0.000000
# 3 -0.002848 -0.009290 0.015660 0.000000 0.001890 0.000000
# 4 0.000000 0.000000 0.000000 0.029878 0.000000 0.006278
# 5 0.004617 -0.000799 0.001890 0.000000 0.045248 0.000000
# 6 0.000000 0.000000 0.000000 0.006278 0.000000 0.034107
#
#
# Mechanical properties :
#
#
# Convention : Reuss Voigt Hill
#
# Bulk Modulus (GPa) = 85.43019 91.86622 88.64820
# Shear Modulus (GPa) = 24.76034 26.97450 25.86742
#
# Velocity S-wave (km/s) = 3.80098 3.96729 3.88503
# Velocity P-wave (km/s) = 8.31332 8.63650 8.47645
#
# Compressibility (1/GPa) = 0.01170546
#
# Stress axis : x y z
#
# Youngs Moduli (GPa) = 65.08370 52.00505 63.85897
#
# Poissons Ratio (x) = 0.37111 0.18186
# Poissons Ratio (y) = 0.46444 0.59326
# Poissons Ratio (z) = 0.18535 0.48313
#
# Static dielectric constant tensor:
#      x y z
#    x 1.584840 0.000000 0.003230 
#    y 0.000000 1.559120 0.000000 
#    z 0.003230 0.000000 1.563610 
# 
# From -- ./inp_files/70627.got.cif
#   From: 2010.05.17/outbox.cif.g08.bks.cpg/sg15_36_cif.got.tgz:70627.got - 2010.06.03 18:47:42.
