data_PCOD9280208
_publ_section_title
;
Structure prediction by ZEFSAII (Michael W. Deem and Ramdas Pophale) SiO2 
 PCOD9280208
Probable space group: C 2/C
;
_chemical_formula_sum "Si O2"
_cell_formula_units_Z 40
_cell_length_a 26.931230
_cell_length_b 5.130708
_cell_length_c 26.319749
_cell_angle_alpha 90.000000
_cell_angle_beta 152.337764
_cell_angle_gamma 90.000000
_cell_volume 1688.398584
_symmetry_space_group_name_H-M "C 2/C"
_symmetry_group_IT_number 15
_symmetry_cell_setting 'monoclinic'
loop_
_space_group_symop_operation_xyz
x,y,z
-x,y,1/2-z
-x,-y,-z
x,-y,1/2+z
1/2+x,1/2+y,z
1/2-x,1/2+y,1/2-z
1/2-x,1/2-y,-z
1/2+x,1/2-y,1/2+z
loop_
_atom_site_type_symbol
_atom_site_label
_atom_site_fract_x
_atom_site_fract_y
_atom_site_fract_z
Si Si1 0.895731 0.871334 0.379603
Si Si2 0.823722 0.361246 0.257885
Si Si3 0.536341 0.329809 0.225334
Si Si4 0.087011 0.684728 0.888547
Si Si5 0.693223 0.941035 0.376577
O O1 0.865025 0.076128 0.308568
O O2 0.892932 0.584891 0.350507
O O3 0.797220 0.880412 0.329976
O O4 0.000000 0.000000 0.500000
O O5 0.820239 0.385760 0.194796
O O6 0.500000 0.357686 0.250000
O O7 0.499136 0.602837 0.170588
O O8 0.461751 0.092172 0.137490
O O9 0.660679 0.250000 0.343442
O O10 0.115929 0.644347 0.854157
O O11 0.195286 0.813283 0.007447
#
# Coordination Sequence:
#
# PCOD9280208 Si02
#       5
#     8   8   8   8   8
#     4  10  22  43  64  90 128 159 198 265 323 368
#     4  10  23  39  64  95 121 161 210 253 312 380
#     4  10  21  37  56  82 119 162 206 250 300 353
#     4  10  23  39  59  88 125 166 202 251 307 356
#     4  10  23  40  63  91 126 165 212 256 301 374
#
# _framework density 23.691089999999999
#
# number of rings (size 3 to 8) (size 9 to 14) (size 15 to 20)
#    0.000    2.000    0.000    2.400    0.000   18.400 
#    0.000    0.000    0.000    4.800    0.000    0.000 
#    0.000    0.000    0.000    0.000    0.000    0.000 
#
# Total GULP energy -111377.931180 kJ/mol
# GULP energy per Si atom -5568.896559 kJ/mol
# Density = 2.363717 g / cm^3
# Si number density = 23.691090 Si / 1000 Ang^3
#
#
#
# Elastic Constant Matrix: (Units=GPa)
#
#
# Indices 1 2 3 4 5 6 
#
# 1 88.5557 5.1835 24.8779 -0.0024 -22.5495 0.0115
# 2 5.1835 123.6060 -6.9528 -0.0045 6.7703 0.0340
# 3 24.8779 -6.9528 52.1446 -0.0033 1.3005 0.0215
# 4 -0.0024 -0.0045 -0.0033 9.3633 -0.0018 10.4549
# 5 -22.5495 6.7703 1.3005 -0.0018 30.4117 0.0053
# 6 0.0115 0.0340 0.0215 10.4549 0.0053 11.2814
#
#
#
# Elastic Compliance Matrix: (Units=1/GPa)
#
#
# Indices 1 2 3 4 5 6 
#
# 1 0.017408 -0.001983 -0.008912 -0.000125 0.013731 0.000115
# 2 -0.001983 0.008484 0.002163 -0.000942 -0.003452 0.000847
# 3 -0.008912 0.002163 0.023920 -0.001426 -0.008113 0.001282
# 4 -0.000125 -0.000942 -0.001426 -3.071398 -0.000502 2.846378
# 5 0.013731 -0.003452 -0.008113 -0.000502 0.044178 0.000457
# 6 0.000115 0.000847 0.001282 2.846378 0.000457 -2.549203
#
#
# Mechanical properties :
#
#
# Convention : Reuss Voigt Hill
#
# Bulk Modulus (GPa) = 30.91514 34.50261 32.70887
# Shear Modulus (GPa) = -0.90936 26.29115 12.69089
#
# Velocity S-wave (km/s) = -0.62022 3.33490 2.31699
# Velocity P-wave (km/s) = 3.54467 5.42438 4.58195
#
# Compressibility (1/GPa) = 0.03234662
#
# Stress axis : x y z
#
# Youngs Moduli (GPa) = 57.44327 117.87044 41.80654
#
# Poissons Ratio (x) = 0.23379 0.37260
# Poissons Ratio (y) = 0.11394 -0.09044
# Poissons Ratio (z) = 0.51196 -0.25498
#
# Static dielectric constant tensor:
#      x y z
#    x 1.907670 -0.000030 0.042030 
#    y -0.000030 2.158130 0.000020 
#    z 0.042030 0.000020 1.984350 
# 
# From -- ./inp_files/284117.got.cif
#   From: 2010.05.17/outbox.cif.g08.bks.cpg/sg15_143_cif.got.tgz:284117.got - 2010.06.03 18:47:42.
