data_PCOD9280948
_publ_section_title
;
Structure prediction by ZEFSAII (Michael W. Deem and Ramdas Pophale) SiO2 
 PCOD9280948
Probable space group: C 2/C
;
_chemical_formula_sum "Si O2"
_cell_formula_units_Z 56
_cell_length_a 11.240047
_cell_length_b 15.502044
_cell_length_c 16.663254
_cell_angle_alpha 90.000000
_cell_angle_beta 115.073631
_cell_angle_gamma 90.000000
_cell_volume 2629.855758
_symmetry_space_group_name_H-M "C 2/C"
_symmetry_group_IT_number 15
_symmetry_cell_setting 'monoclinic'
loop_
_space_group_symop_operation_xyz
x,y,z
-x,y,1/2-z
-x,-y,-z
x,-y,1/2+z
1/2+x,1/2+y,z
1/2-x,1/2+y,1/2-z
1/2-x,1/2-y,-z
1/2+x,1/2-y,1/2+z
loop_
_atom_site_type_symbol
_atom_site_label
_atom_site_fract_x
_atom_site_fract_y
_atom_site_fract_z
Si Si1 0.706168 0.147130 0.813950
Si Si2 0.254168 0.806696 0.920611
Si Si3 0.059462 0.677339 0.450095
Si Si4 0.631399 0.914241 0.127127
Si Si5 0.619724 0.478898 0.844721
Si Si6 0.919148 0.486204 0.643769
Si Si7 0.492638 0.348762 0.150383
O O1 0.679307 0.241392 0.840148
O O2 0.626507 0.135218 0.709575
O O3 0.679486 0.063637 0.862001
O O4 0.858919 0.148163 0.836633
O O5 0.402005 0.825511 0.928931
O O6 0.176011 0.895740 0.904625
O O7 0.250000 0.750000 0.000000
O O8 0.130440 0.650105 0.552610
O O9 0.109939 0.608129 0.398671
O O10 0.077405 0.771212 0.416284
O O11 0.504883 0.974651 0.095368
O O12 0.757447 0.976575 0.165681
O O13 0.500000 0.458063 0.750000
O O14 0.570124 0.558196 0.884249
O O15 0.000000 0.473719 0.750000
O O16 0.500000 0.336291 0.250000
#
# Coordination Sequence:
#
# PCOD9280948 Si02
#       7
#     8   8   8   8   8   8   8
#     4  10  22  42  68  96 136 173 226 280 329 409
#     4  11  25  43  71 101 135 177 224 283 337 399
#     4  11  23  39  70 100 133 175 226 285 339 396
#     4  11  21  40  69  99 132 174 223 283 336 399
#     4  11  23  43  71  92 137 180 218 261 346 396
#     4  10  21  37  68 100 129 171 228 280 340 398
#     4  10  21  44  66  93 139 179 222 278 339 407
#
# _framework density 21.293942999999999
#
# number of rings (size 3 to 8) (size 9 to 14) (size 15 to 20)
#    0.000    1.429    4.286    1.714    2.000    3.429 
#    0.000    2.857    9.429    0.000    0.000    0.000 
#    0.000    0.000    0.000    0.000    0.000    0.000 
#
# Total GULP energy -156207.388049 kJ/mol
# GULP energy per Si atom -5578.835287 kJ/mol
# Density = 2.124548 g / cm^3
# Si number density = 21.293943 Si / 1000 Ang^3
#
#
#
# Elastic Constant Matrix: (Units=GPa)
#
#
# Indices 1 2 3 4 5 6 
#
# 1 64.5920 26.7193 12.0017 0.0000 -0.7359 0.0000
# 2 26.7193 167.8354 66.8129 0.0000 0.2419 0.0000
# 3 12.0017 66.8129 93.3811 0.0000 -10.7223 0.0000
# 4 0.0000 0.0000 0.0000 36.7778 0.0000 0.5500
# 5 -0.7359 0.2419 -10.7223 0.0000 17.1726 0.0000
# 6 0.0000 0.0000 0.0000 0.5500 0.0000 33.5156
#
#
#
# Elastic Compliance Matrix: (Units=1/GPa)
#
#
# Indices 1 2 3 4 5 6 
#
# 1 0.016586 -0.002545 -0.000243 0.000000 0.000595 0.000000
# 2 -0.002545 0.009003 -0.006616 0.000000 -0.004367 0.000000
# 3 -0.000243 -0.006616 0.016679 0.000000 0.010497 0.000000
# 4 0.000000 0.000000 0.000000 0.027197 0.000000 -0.000446
# 5 0.000595 -0.004367 0.010497 0.000000 0.064873 0.000000
# 6 0.000000 0.000000 0.000000 -0.000446 0.000000 0.029844
#
#
# Mechanical properties :
#
#
# Convention : Reuss Voigt Hill
#
# Bulk Modulus (GPa) = 42.62284 59.65294 51.13789
# Shear Modulus (GPa) = 26.20388 32.17818 29.19103
#
# Velocity S-wave (km/s) = 3.51177 3.89156 3.70653
# Velocity P-wave (km/s) = 6.04179 6.94746 6.51039
#
# Compressibility (1/GPa) = 0.02346160
#
# Stress axis : x y z
#
# Youngs Moduli (GPa) = 60.29058 111.06827 59.95524
#
# Poissons Ratio (x) = 0.28265 0.01455
# Poissons Ratio (y) = 0.15343 0.39668
# Poissons Ratio (z) = 0.01463 0.73485
#
# Static dielectric constant tensor:
#      x y z
#    x 1.832810 0.000000 0.040630 
#    y 0.000000 1.811260 0.000000 
#    z 0.040630 0.000000 1.819740 
# 
# From -- ./inp_files/197926.got.cif
#   From: 2010.05.17/outbox.cif.g08.bks.cpg/sg15_99_cif.got.tgz:197926.got - 2010.06.03 18:47:42.
