data_PCOD9280843
_publ_section_title
;
Structure prediction by ZEFSAII (Michael W. Deem and Ramdas Pophale) SiO2 
 PCOD9280843
Probable space group: C 2/C
;
_chemical_formula_sum "Si O2"
_cell_formula_units_Z 56
_cell_length_a 22.326015
_cell_length_b 10.153612
_cell_length_c 11.845559
_cell_angle_alpha 90.000000
_cell_angle_beta 85.274447
_cell_angle_gamma 90.000000
_cell_volume 2676.138237
_symmetry_space_group_name_H-M "C 2/C"
_symmetry_group_IT_number 15
_symmetry_cell_setting 'monoclinic'
loop_
_space_group_symop_operation_xyz
x,y,z
-x,y,1/2-z
-x,-y,-z
x,-y,1/2+z
1/2+x,1/2+y,z
1/2-x,1/2+y,1/2-z
1/2-x,1/2-y,-z
1/2+x,1/2-y,1/2+z
loop_
_atom_site_type_symbol
_atom_site_label
_atom_site_fract_x
_atom_site_fract_y
_atom_site_fract_z
Si Si1 0.184327 0.731712 0.375472
Si Si2 0.944086 0.290825 0.014256
Si Si3 0.000000 0.992416 0.750000
Si Si4 0.579206 0.743550 0.218984
Si Si5 0.616045 0.637033 0.684567
Si Si6 0.810104 0.119193 0.401977
Si Si7 0.936405 0.400548 0.552272
Si Si8 0.000000 0.484580 0.250000
O O1 0.158661 0.780178 0.260357
O O2 0.194440 0.850685 0.463451
O O3 0.244345 0.644973 0.361648
O O4 0.130498 0.648660 0.437190
O O5 0.911741 0.213626 0.918752
O O6 0.016349 0.288389 0.992562
O O7 0.922969 0.244813 0.142500
O O8 0.936121 0.449506 0.004773
O O9 0.959939 0.880623 0.820609
O O10 0.942696 0.086178 0.733973
O O11 0.645442 0.725358 0.163119
O O12 0.547941 0.880746 0.191223
O O13 0.657926 0.518220 0.632221
O O14 0.961100 0.428217 0.674332
#
# Coordination Sequence:
#
# PCOD9280843 Si02
#       8
#     8   8   4   8   8   8   8   4
#     4  11  25  47  64  89 128 174 214 259 322 375
#     4  10  22  36  65 104 128 160 209 263 327 373
#     4   9  20  35  60  96 122 165 197 262 326 360
#     4   9  20  38  60  93 130 163 206 260 318 377
#     4  11  23  41  68  96 126 165 215 268 312 391
#     4  10  26  45  65  87 125 174 215 262 314 380
#     4  10  21  37  64  98 131 169 202 264 320 385
#     4   9  18  35  62  94 130 161 211 258 320 376
#
# _framework density 20.925674999999998
#
# number of rings (size 3 to 8) (size 9 to 14) (size 15 to 20)
#    0.000    2.000    0.000    1.714   14.000    2.857 
#    5.143    1.429    0.000    0.000    0.000    0.000 
#    0.000    0.000    0.000    0.000    0.000    0.000 
#
# Total GULP energy -155870.952005 kJ/mol
# GULP energy per Si atom -5566.819714 kJ/mol
# Density = 2.087805 g / cm^3
# Si number density = 20.925675 Si / 1000 Ang^3
#
#
#
# Elastic Constant Matrix: (Units=GPa)
#
#
# Indices 1 2 3 4 5 6 
#
# 1 178.5665 53.9195 53.4564 0.0000 9.3430 0.0000
# 2 53.9195 81.5012 44.1530 0.0000 10.3716 0.0000
# 3 53.4564 44.1530 96.6534 0.0000 17.0482 0.0000
# 4 0.0000 0.0000 0.0000 10.4013 0.0000 4.9083
# 5 9.3430 10.3716 17.0482 0.0000 26.5878 0.0000
# 6 0.0000 0.0000 0.0000 4.9083 0.0000 28.3659
#
#
#
# Elastic Compliance Matrix: (Units=1/GPa)
#
#
# Indices 1 2 3 4 5 6 
#
# 1 0.007422 -0.003588 -0.002540 0.000000 0.000420 0.000000
# 2 -0.003588 0.018115 -0.005939 0.000000 -0.001998 0.000000
# 3 -0.002540 -0.005939 0.015670 0.000000 -0.006839 0.000000
# 4 0.000000 0.000000 0.000000 0.104690 0.000000 -0.018115
# 5 0.000420 -0.001998 -0.006839 0.000000 0.042628 0.000000
# 6 0.000000 0.000000 0.000000 -0.018115 0.000000 0.038388
#
#
# Mechanical properties :
#
#
# Convention : Reuss Voigt Hill
#
# Bulk Modulus (GPa) = 58.56737 73.30875 65.93806
# Shear Modulus (GPa) = 19.47526 26.75049 23.11288
#
# Velocity S-wave (km/s) = 3.05403 3.57929 3.32704
# Velocity P-wave (km/s) = 6.36279 7.22432 6.80720
#
# Compressibility (1/GPa) = 0.01707435
#
# Stress axis : x y z
#
# Youngs Moduli (GPa) = 134.73706 55.20410 63.81564
#
# Poissons Ratio (x) = 0.19805 0.16210
# Poissons Ratio (y) = 0.48337 0.37897
# Poissons Ratio (z) = 0.34224 0.32783
#
# Static dielectric constant tensor:
#      x y z
#    x 1.747610 0.000000 -0.022480 
#    y 0.000000 1.777120 0.000000 
#    z -0.022480 0.000000 1.856230 
# 
# From -- ./inp_files/111110.got.cif
#   From: 2010.05.17/outbox.cif.g08.bks.cpg/sg15_56_cif.got.tgz:111110.got - 2010.06.03 18:47:42.
