data_PCOD9280901
_publ_section_title
;
Structure prediction by ZEFSAII (Michael W. Deem and Ramdas Pophale) SiO2 
 PCOD9280901
Probable space group: C 2/C
;
_chemical_formula_sum "Si O2"
_cell_formula_units_Z 56
_cell_length_a 21.826877
_cell_length_b 17.012876
_cell_length_c 18.663593
_cell_angle_alpha 90.000000
_cell_angle_beta 23.654532
_cell_angle_gamma 90.000000
_cell_volume 2780.662378
_symmetry_space_group_name_H-M "C 2/C"
_symmetry_group_IT_number 15
_symmetry_cell_setting 'monoclinic'
loop_
_space_group_symop_operation_xyz
x,y,z
-x,y,1/2-z
-x,-y,-z
x,-y,1/2+z
1/2+x,1/2+y,z
1/2-x,1/2+y,1/2-z
1/2-x,1/2-y,-z
1/2+x,1/2-y,1/2+z
loop_
_atom_site_type_symbol
_atom_site_label
_atom_site_fract_x
_atom_site_fract_y
_atom_site_fract_z
Si Si1 0.010134 0.702665 0.441153
Si Si2 0.193766 0.971086 0.079994
Si Si3 0.129293 0.971246 0.512336
Si Si4 0.992322 0.128391 0.482117
Si Si5 0.151392 0.680847 0.136906
Si Si6 0.302263 0.061421 0.201674
Si Si7 0.786407 0.421972 0.131601
O O1 0.997299 0.782148 0.500402
O O2 0.105970 0.707432 0.265213
O O3 0.091512 0.635394 0.399886
O O4 0.854434 0.663038 0.578449
O O5 0.293969 0.952256 0.042763
O O6 0.213243 0.039580 0.999439
O O7 0.237627 0.894497 0.986065
O O8 0.026854 0.985459 0.294060
O O9 0.082041 0.895344 0.514981
O O10 0.229393 0.025399 0.352235
O O11 0.885194 0.083797 0.654582
O O12 0.159822 0.091921 0.306917
O O13 0.000000 0.669663 0.250000
O O14 0.250000 0.750000 0.000000
O O15 0.373218 0.988211 0.083729
#
# Coordination Sequence:
#
# PCOD9280901 Si02
#       7
#     8   8   8   8   8   8   8
#     4  12  25  37  59  92 135 166 199 266 334 379
#     4  11  20  39  62  92 119 159 218 268 313 375
#     4  10  21  37  66  88 117 166 222 262 298 383
#     4  11  22  40  60  91 124 170 217 258 312 386
#     4  12  27  37  56  92 136 170 200 254 336 401
#     4  11  21  39  60  90 119 168 216 257 317 386
#     4  11  21  40  61  92 122 164 215 265 318 382
#
# _framework density 20.139088000000001
#
# number of rings (size 3 to 8) (size 9 to 14) (size 15 to 20)
#    0.000    0.857    5.714    3.000    4.000    0.000 
#    0.000    0.000    0.000    0.857    3.714    0.000 
#    0.000    0.000    0.000    0.000    0.000    0.000 
#
# Total GULP energy -156023.945802 kJ/mol
# GULP energy per Si atom -5572.283779 kJ/mol
# Density = 2.009325 g / cm^3
# Si number density = 20.139088 Si / 1000 Ang^3
#
#
#
# Elastic Constant Matrix: (Units=GPa)
#
#
# Indices 1 2 3 4 5 6 
#
# 1 129.0531 55.9540 13.3000 0.0002 21.7421 -0.0004
# 2 55.9540 117.0466 22.7368 0.0016 9.6314 -0.0011
# 3 13.3000 22.7368 38.5171 0.0005 11.9816 -0.0004
# 4 0.0002 0.0016 0.0005 23.9285 -0.0005 -4.1760
# 5 21.7421 9.6314 11.9816 -0.0005 26.3314 0.0002
# 6 -0.0004 -0.0011 -0.0004 -4.1760 0.0002 31.7807
#
#
#
# Elastic Compliance Matrix: (Units=1/GPa)
#
#
# Indices 1 2 3 4 5 6 
#
# 1 0.011090 -0.004948 0.001604 0.000000 -0.008077 0.000000
# 2 -0.004948 0.011885 -0.006088 -0.000001 0.002509 0.000000
# 3 0.001604 -0.006088 0.033457 -0.000001 -0.014322 0.000000
# 4 0.000000 -0.000001 -0.000001 0.042772 0.000001 0.005620
# 5 -0.008077 0.002509 -0.014322 0.000001 0.050246 0.000000
# 6 0.000000 0.000000 0.000000 0.005620 0.000000 0.032204
#
#
# Mechanical properties :
#
#
# Convention : Reuss Voigt Hill
#
# Bulk Modulus (GPa) = 26.61790 52.06648 39.34219
# Shear Modulus (GPa) = 23.46969 29.24984 26.35976
#
# Velocity S-wave (km/s) = 3.41747 3.81516 3.62178
# Velocity P-wave (km/s) = 5.36823 6.73178 6.08830
#
# Compressibility (1/GPa) = 0.03756870
#
# Stress axis : x y z
#
# Youngs Moduli (GPa) = 90.17415 84.13743 29.88887
#
# Poissons Ratio (x) = 0.41635 -0.04795
# Poissons Ratio (y) = 0.44622 0.18195
# Poissons Ratio (z) = -0.14466 0.51220
#
# Static dielectric constant tensor:
#      x y z
#    x 1.853210 0.000000 -0.112720 
#    y 0.000000 1.675630 -0.000010 
#    z -0.112720 -0.000010 2.003960 
# 
# From -- ./inp_files/216015.got.cif
#   From: 2010.05.17/outbox.cif.g08.bks.cpg/sg15_109_cif.got.tgz:216015.got - 2010.06.03 18:47:42.
