data_PCOD9280656
_publ_section_title
;
Structure prediction by ZEFSAII (Michael W. Deem and Ramdas Pophale) SiO2 
 PCOD9280656
Probable space group: C 2/C
;
_chemical_formula_sum "Si O2"
_cell_formula_units_Z 48
_cell_length_a 10.316546
_cell_length_b 13.775381
_cell_length_c 28.885169
_cell_angle_alpha 90.000000
_cell_angle_beta 144.844247
_cell_angle_gamma 90.000000
_cell_volume 2363.661825
_symmetry_space_group_name_H-M "C 2/C"
_symmetry_group_IT_number 15
_symmetry_cell_setting 'monoclinic'
loop_
_space_group_symop_operation_xyz
x,y,z
-x,y,1/2-z
-x,-y,-z
x,-y,1/2+z
1/2+x,1/2+y,z
1/2-x,1/2+y,1/2-z
1/2-x,1/2-y,-z
1/2+x,1/2-y,1/2+z
loop_
_atom_site_type_symbol
_atom_site_label
_atom_site_fract_x
_atom_site_fract_y
_atom_site_fract_z
Si Si1 0.258300 0.411784 0.116750
Si Si2 0.249227 0.026394 0.589247
Si Si3 0.653884 0.105941 0.221856
Si Si4 0.282753 0.865247 0.007936
Si Si5 0.000000 0.756457 0.250000
Si Si6 0.567012 0.520757 0.631344
Si Si7 0.500000 0.426642 0.750000
O O1 0.342847 0.322655 0.172547
O O2 0.381834 0.414027 0.103214
O O3 0.347550 0.505597 0.171565
O O4 0.990931 0.400421 0.037112
O O5 0.338326 0.099877 0.576539
O O6 0.207437 0.062370 0.629313
O O7 0.408740 0.931833 0.635405
O O8 0.000000 0.000000 0.500000
O O9 0.634679 0.189018 0.254015
O O10 0.760407 0.013009 0.278958
O O11 0.822728 0.130443 0.229749
O O12 0.250000 0.750000 0.000000
O O13 0.066092 0.925042 0.926262
#
# Coordination Sequence:
#
# PCOD9280656 Si02
#       7
#     8   8   8   8   4   8   4
#     4  10  21  38  58  88 125 162 200 247 310 364
#     4  10  21  37  62  88 120 161 197 247 312 361
#     4  11  19  39  64  89 121 154 209 250 305 370
#     4  11  22  38  62  91 123 160 208 255 301 365
#     4  11  22  36  64  91 118 160 209 258 300 358
#     4  10  21  39  61  88 118 168 200 245 313 366
#     4   9  20  36  62  89 116 166 193 250 308 360
#
# _framework density 20.307473000000002
#
# number of rings (size 3 to 8) (size 9 to 14) (size 15 to 20)
#    0.000    1.667    3.333    1.500    2.333    0.000 
#    0.000    5.833    0.000    0.000    0.000    0.000 
#    0.000    0.000    0.000    0.000    0.000    0.000 
#
# Total GULP energy -133904.046676 kJ/mol
# GULP energy per Si atom -5579.335278 kJ/mol
# Density = 2.026125 g / cm^3
# Si number density = 20.307473 Si / 1000 Ang^3
#
#
#
# Elastic Constant Matrix: (Units=GPa)
#
#
# Indices 1 2 3 4 5 6 
#
# 1 165.6359 35.3433 5.0651 0.0000 2.6515 0.0000
# 2 35.3433 61.4089 0.7138 0.0000 1.3734 0.0000
# 3 5.0651 0.7138 53.8402 0.0000 15.4957 0.0000
# 4 0.0000 0.0000 0.0000 14.3211 0.0000 2.3658
# 5 2.6515 1.3734 15.4957 0.0000 31.2691 0.0000
# 6 0.0000 0.0000 0.0000 2.3658 0.0000 5.7540
#
#
#
# Elastic Compliance Matrix: (Units=1/GPa)
#
#
# Indices 1 2 3 4 5 6 
#
# 1 0.006902 -0.003963 -0.000558 0.000000 -0.000135 0.000000
# 2 -0.003963 0.018576 0.000309 0.000000 -0.000633 0.000000
# 3 -0.000558 0.000309 0.021708 0.000000 -0.010724 0.000000
# 4 0.000000 0.000000 0.000000 0.074916 0.000000 -0.030803
# 5 -0.000135 -0.000633 -0.010724 0.000000 0.037334 0.000000
# 6 0.000000 0.000000 0.000000 -0.030803 0.000000 0.186456
#
#
# Mechanical properties :
#
#
# Convention : Reuss Voigt Hill
#
# Bulk Modulus (GPa) = 25.79875 40.34771 33.07323
# Shear Modulus (GPa) = 13.61517 26.25303 19.93410
#
# Velocity S-wave (km/s) = 2.59212 3.59942 3.13647
# Velocity P-wave (km/s) = 4.65730 6.09803 5.42570
#
# Compressibility (1/GPa) = 0.03876158
#
# Stress axis : x y z
#
# Youngs Moduli (GPa) = 144.88178 53.83373 46.06520
#
# Poissons Ratio (x) = 0.21334 0.02571
# Poissons Ratio (y) = 0.57416 -0.01422
# Poissons Ratio (z) = 0.08085 -0.01662
#
# Static dielectric constant tensor:
#      x y z
#    x 1.788800 0.000000 0.018040 
#    y 0.000000 1.696850 0.000000 
#    z 0.018040 0.000000 1.785380 
# 
# From -- ./inp_files/182495.got.cif
#   From: 2010.05.17/outbox.cif.g08.bks.cpg/sg15_92_cif.got.tgz:182495.got - 2010.06.03 18:47:42.
