data_PCOD9280906
_publ_section_title
;
Structure prediction by ZEFSAII (Michael W. Deem and Ramdas Pophale) SiO2 
 PCOD9280906
Probable space group: C 2/C
;
_chemical_formula_sum "Si O2"
_cell_formula_units_Z 44
_cell_length_a 23.251394
_cell_length_b 13.644938
_cell_length_c 7.837039
_cell_angle_alpha 90.000000
_cell_angle_beta 58.233435
_cell_angle_gamma 90.000000
_cell_volume 2113.945070
_symmetry_space_group_name_H-M "C 2/C"
_symmetry_group_IT_number 15
_symmetry_cell_setting 'monoclinic'
loop_
_space_group_symop_operation_xyz
x,y,z
-x,y,1/2-z
-x,-y,-z
x,-y,1/2+z
1/2+x,1/2+y,z
1/2-x,1/2+y,1/2-z
1/2-x,1/2-y,-z
1/2+x,1/2-y,1/2+z
loop_
_atom_site_type_symbol
_atom_site_label
_atom_site_fract_x
_atom_site_fract_y
_atom_site_fract_z
Si Si1 0.000000 0.257275 0.250000
Si Si2 0.969457 0.397336 0.611927
Si Si3 0.147026 0.713805 0.062609
Si Si4 0.862485 0.251889 0.310840
Si Si5 0.723439 0.615851 0.545573
Si Si6 0.746330 0.894287 0.901631
O O1 0.073285 0.212773 0.182761
O O2 0.988135 0.323323 0.434173
O O3 0.891275 0.371594 0.774172
O O4 0.000000 0.378963 0.750000
O O5 0.000000 0.500000 0.500000
O O6 0.223113 0.674600 0.923272
O O7 0.118817 0.732497 0.917774
O O8 0.155179 0.817789 0.148919
O O9 0.801943 0.173937 0.406283
O O10 0.828196 0.354049 0.429378
O O11 0.730818 0.504375 0.591168
O O12 0.746338 0.617663 0.312431
#
# Coordination Sequence:
#
# PCOD9280906 Si02
#       6
#     4   8   8   8   8   8
#     4  12  24  40  64  88 130 174 202 266 320 378
#     4  12  25  40  60  90 128 170 210 255 318 391
#     4  10  22  40  60  92 127 164 214 264 322 382
#     4  10  22  40  62  91 128 168 214 266 323 386
#     4  10  21  37  66  90 123 165 208 273 319 381
#     4  10  21  38  63  94 123 165 216 266 324 384
#
# _framework density 20.814164000000002
#
# number of rings (size 3 to 8) (size 9 to 14) (size 15 to 20)
#    0.000    1.455    2.727    2.182    2.545    5.818 
#    0.000    0.000    2.000    3.273    0.000    0.000 
#    0.000    0.000    0.000    0.000    0.000    0.000 
#
# Total GULP energy -122556.471868 kJ/mol
# GULP energy per Si atom -5570.748721 kJ/mol
# Density = 2.076679 g / cm^3
# Si number density = 20.814164 Si / 1000 Ang^3
#
#
#
# Elastic Constant Matrix: (Units=GPa)
#
#
# Indices 1 2 3 4 5 6 
#
# 1 141.7616 28.5204 22.8518 0.0000 8.8814 0.0000
# 2 28.5204 116.4792 16.2309 0.0000 -4.1727 0.0000
# 3 22.8518 16.2309 65.6770 0.0000 4.7630 0.0000
# 4 0.0000 0.0000 0.0000 29.2807 0.0000 2.7372
# 5 8.8814 -4.1727 4.7630 0.0000 31.9283 0.0000
# 6 0.0000 0.0000 0.0000 2.7372 0.0000 26.3614
#
#
#
# Elastic Compliance Matrix: (Units=1/GPa)
#
#
# Indices 1 2 3 4 5 6 
#
# 1 0.007877 -0.001701 -0.002169 0.000000 -0.002090 0.000000
# 2 -0.001701 0.009331 -0.001857 0.000000 0.001970 0.000000
# 3 -0.002169 -0.001857 0.016593 0.000000 -0.002115 0.000000
# 4 0.000000 0.000000 0.000000 0.034487 0.000000 -0.003581
# 5 -0.002090 0.001970 -0.002115 0.000000 0.032474 0.000000
# 6 0.000000 0.000000 0.000000 -0.003581 0.000000 0.038306
#
#
# Mechanical properties :
#
#
# Convention : Reuss Voigt Hill
#
# Bulk Modulus (GPa) = 44.74867 51.01376 47.88122
# Shear Modulus (GPa) = 31.65135 34.60174 33.12654
#
# Velocity S-wave (km/s) = 3.90380 4.08169 3.99374
# Velocity P-wave (km/s) = 6.47034 6.83930 6.65738
#
# Compressibility (1/GPa) = 0.02234703
#
# Stress axis : x y z
#
# Youngs Moduli (GPa) = 126.95333 107.16826 60.26684
#
# Poissons Ratio (x) = 0.18233 0.13070
# Poissons Ratio (y) = 0.21599 0.11191
# Poissons Ratio (z) = 0.27532 0.19900
#
# Static dielectric constant tensor:
#      x y z
#    x 1.789060 0.000000 -0.024670 
#    y 0.000000 1.793750 0.000000 
#    z -0.024670 0.000000 1.764120 
# 
# From -- ./inp_files/60808.got.cif
#   From: 2010.05.17/outbox.cif.g08.bks.cpg/sg15_31_cif.got.tgz:60808.got - 2010.06.03 18:47:42.
