data_PCOD9280268
_publ_section_title
;
Structure prediction by ZEFSAII (Michael W. Deem and Ramdas Pophale) SiO2 
 PCOD9280268
Probable space group: C 2/C
;
_chemical_formula_sum "Si O2"
_cell_formula_units_Z 24
_cell_length_a 7.404928
_cell_length_b 21.805024
_cell_length_c 5.525225
_cell_angle_alpha 90.000000
_cell_angle_beta 85.243898
_cell_angle_gamma 90.000000
_cell_volume 889.056540
_symmetry_space_group_name_H-M "C 2/C"
_symmetry_group_IT_number 15
_symmetry_cell_setting 'monoclinic'
loop_
_space_group_symop_operation_xyz
x,y,z
-x,y,1/2-z
-x,-y,-z
x,-y,1/2+z
1/2+x,1/2+y,z
1/2-x,1/2+y,1/2-z
1/2-x,1/2-y,-z
1/2+x,1/2-y,1/2+z
loop_
_atom_site_type_symbol
_atom_site_label
_atom_site_fract_x
_atom_site_fract_y
_atom_site_fract_z
Si Si1 0.041316 0.270900 0.998016
Si Si2 0.099193 0.135580 0.490189
Si Si3 0.708318 0.975740 0.672841
O O1 0.000000 0.302284 0.750000
O O2 0.250000 0.250000 0.000000
O O3 0.000000 0.305961 0.250000
O O4 0.913400 0.209831 0.004317
O O5 0.272689 0.092979 0.435648
O O6 0.000000 0.122003 0.250000
O O7 0.000000 0.118016 0.750000
O O8 0.500000 0.991820 0.750000
O O9 0.787409 0.014786 0.436770
#
# Coordination Sequence:
#
# PCOD9280268 Si02
#       3
#     8   8   8
#     4  10  21  40  63  90 123 158 204 257 312 368
#     4  10  21  37  57  87 118 155 200 246 301 360
#     4  10  21  37  58  85 119 158 199 245 298 357
#
# _framework density 26.994906
#
# number of rings (size 3 to 8) (size 9 to 14) (size 15 to 20)
#    0.000    2.000    0.000    3.000    0.000    4.000 
#    0.000   20.000    0.000    0.000    0.000    0.000 
#    0.000    0.000    0.000    0.000    0.000    0.000 
#
# Total GULP energy -66966.574933 kJ/mol
# GULP energy per Si atom -5580.547911 kJ/mol
# Density = 2.693346 g / cm^3
# Si number density = 26.994906 Si / 1000 Ang^3
#
#
#
# Elastic Constant Matrix: (Units=GPa)
#
#
# Indices 1 2 3 4 5 6 
#
# 1 58.8195 28.2954 61.8641 0.0000 10.6728 0.0000
# 2 28.2954 120.1250 56.3652 0.0000 -20.1619 0.0000
# 3 61.8641 56.3652 349.8771 0.0000 19.5425 0.0000
# 4 0.0000 0.0000 0.0000 43.8582 0.0000 -17.2947
# 5 10.6728 -20.1619 19.5425 0.0000 40.1051 0.0000
# 6 0.0000 0.0000 0.0000 -17.2947 0.0000 22.7004
#
#
#
# Elastic Compliance Matrix: (Units=1/GPa)
#
#
# Indices 1 2 3 4 5 6 
#
# 1 0.024232 -0.005649 -0.002936 0.000000 -0.007858 0.000000
# 2 -0.005649 0.011614 -0.001318 0.000000 0.007984 0.000000
# 3 -0.002936 -0.001318 0.003683 0.000000 -0.001676 0.000000
# 4 0.000000 0.000000 0.000000 0.032592 0.000000 0.024831
# 5 -0.007858 0.007984 -0.001676 0.000000 0.031856 0.000000
# 6 0.000000 0.000000 0.000000 0.024831 0.000000 0.062970
#
#
# Mechanical properties :
#
#
# Convention : Reuss Voigt Hill
#
# Bulk Modulus (GPa) = 50.70167 91.31901 71.01034
# Shear Modulus (GPa) = 25.86266 46.81920 36.34093
#
# Velocity S-wave (km/s) = 3.09861 4.16910 3.67306
# Velocity P-wave (km/s) = 5.62357 7.55492 6.65963
#
# Compressibility (1/GPa) = 0.01972322
#
# Stress axis : x y z
#
# Youngs Moduli (GPa) = 41.26725 86.10342 271.50502
#
# Poissons Ratio (x) = 0.48643 0.79704
# Poissons Ratio (y) = 0.23314 0.35786
# Poissons Ratio (z) = 0.12114 0.11349
#
# Static dielectric constant tensor:
#      x y z
#    x 2.217260 0.000000 -0.013540 
#    y 0.000000 2.089200 0.000000 
#    z -0.013540 0.000000 2.279260 
# 
# From -- ./inp_files/1540.got.cif
#   From: 2010.05.17/outbox.cif.g08.bks.cpg/sg15_1_cif.got.tgz:1540.got - 2010.06.03 18:47:42.
