data_PCOD9280463
_publ_section_title
;
Structure prediction by ZEFSAII (Michael W. Deem and Ramdas Pophale) SiO2 
 PCOD9280463
Probable space group: C 2/C
;
_chemical_formula_sum "Si O2"
_cell_formula_units_Z 40
_cell_length_a 10.302604
_cell_length_b 9.435477
_cell_length_c 19.986480
_cell_angle_alpha 90.000000
_cell_angle_beta 58.261393
_cell_angle_gamma 90.000000
_cell_volume 1652.340170
_symmetry_space_group_name_H-M "C 2/C"
_symmetry_group_IT_number 15
_symmetry_cell_setting 'monoclinic'
loop_
_space_group_symop_operation_xyz
x,y,z
-x,y,1/2-z
-x,-y,-z
x,-y,1/2+z
1/2+x,1/2+y,z
1/2-x,1/2+y,1/2-z
1/2-x,1/2-y,-z
1/2+x,1/2-y,1/2+z
loop_
_atom_site_type_symbol
_atom_site_label
_atom_site_fract_x
_atom_site_fract_y
_atom_site_fract_z
Si Si1 0.866181 0.306261 0.730377
Si Si2 0.627429 0.809671 0.475945
Si Si3 0.477116 0.035619 0.895622
Si Si4 0.509652 0.309711 0.825416
Si Si5 0.052204 0.099825 0.599463
O O1 0.892322 0.442292 0.675112
O O2 0.688666 0.299045 0.797238
O O3 0.000000 0.320488 0.750000
O O4 0.907067 0.166378 0.676224
O O5 0.526299 0.871386 0.445484
O O6 0.800749 0.825947 0.405877
O O7 0.562613 0.662810 0.521867
O O8 0.624777 0.916619 0.541040
O O9 0.427521 0.157454 0.857578
O O10 0.500000 0.349754 0.750000
O O11 0.439712 0.434094 0.889377
#
# Coordination Sequence:
#
# PCOD9280463 Si02
#       5
#     8   8   8   8   8
#     4  11  22  40  63  86 121 166 203 239 298 371
#     4   9  20  41  61  85 120 165 202 240 298 367
#     4  10  21  37  60  88 123 154 198 257 302 342
#     4  12  24  38  61  94 125 153 197 257 304 344
#     4  10  21  38  62  85 119 164 204 237 294 370
#
# _framework density 24.208092000000001
#
# number of rings (size 3 to 8) (size 9 to 14) (size 15 to 20)
#    0.000    1.600    0.000    4.800    0.000    1.600 
#    0.000    0.000    0.000    0.000    0.000    0.000 
#    0.000    0.000    0.000    0.000    0.000    0.000 
#
# Total GULP energy -111619.476174 kJ/mol
# GULP energy per Si atom -5580.973809 kJ/mol
# Density = 2.415299 g / cm^3
# Si number density = 24.208092 Si / 1000 Ang^3
#
#
#
# Elastic Constant Matrix: (Units=GPa)
#
#
# Indices 1 2 3 4 5 6 
#
# 1 66.9715 -18.1143 11.6275 0.0000 3.0561 0.0000
# 2 -18.1143 122.8312 31.9760 0.0000 3.1932 0.0000
# 3 11.6275 31.9760 71.4850 0.0000 -9.4719 0.0000
# 4 0.0000 0.0000 0.0000 50.2855 0.0000 11.3377
# 5 3.0561 3.1932 -9.4719 0.0000 21.6282 0.0000
# 6 0.0000 0.0000 0.0000 11.3377 0.0000 12.3991
#
#
#
# Elastic Compliance Matrix: (Units=1/GPa)
#
#
# Indices 1 2 3 4 5 6 
#
# 1 0.017200 0.004062 -0.005325 0.000000 -0.005362 0.000000
# 2 0.004062 0.010410 -0.005942 0.000000 -0.004713 0.000000
# 3 -0.005325 -0.005942 0.018821 0.000000 0.009872 0.000000
# 4 0.000000 0.000000 0.000000 0.025051 0.000000 -0.022907
# 5 -0.005362 -0.004713 0.009872 0.000000 0.052013 0.000000
# 6 0.000000 0.000000 0.000000 -0.022907 0.000000 0.101597
#
#
# Mechanical properties :
#
#
# Convention : Reuss Voigt Hill
#
# Bulk Modulus (GPa) = 31.22943 34.69624 32.96284
# Shear Modulus (GPa) = 19.98610 32.58246 26.28428
#
# Velocity S-wave (km/s) = 2.87644 3.67268 3.29867
# Velocity P-wave (km/s) = 4.89492 5.68756 5.30606
#
# Compressibility (1/GPa) = 0.03202107
#
# Stress axis : x y z
#
# Youngs Moduli (GPa) = 58.14058 96.06554 53.13245
#
# Poissons Ratio (x) = -0.39024 0.28294
# Poissons Ratio (y) = -0.23618 0.31569
# Poissons Ratio (z) = 0.30961 0.57077
#
# Static dielectric constant tensor:
#      x y z
#    x 1.922880 0.000000 0.030070 
#    y 0.000000 1.947810 0.000000 
#    z 0.030070 0.000000 1.984800 
# 
# From -- ./inp_files/195153.got.cif
#   From: 2010.05.17/outbox.cif.g08.bks.cpg/sg15_98_cif.got.tgz:195153.got - 2010.06.03 18:47:42.
