data_PCOD9280547
_publ_section_title
;
Structure prediction by ZEFSAII (Michael W. Deem and Ramdas Pophale) SiO2 
 PCOD9280547
Probable space group: C 2/C
;
_chemical_formula_sum "Si O2"
_cell_formula_units_Z 44
_cell_length_a 17.930427
_cell_length_b 22.146273
_cell_length_c 5.182897
_cell_angle_alpha 90.000000
_cell_angle_beta 105.429533
_cell_angle_gamma 90.000000
_cell_volume 1983.910837
_symmetry_space_group_name_H-M "C 2/C"
_symmetry_group_IT_number 15
_symmetry_cell_setting 'monoclinic'
loop_
_space_group_symop_operation_xyz
x,y,z
-x,y,1/2-z
-x,-y,-z
x,-y,1/2+z
1/2+x,1/2+y,z
1/2-x,1/2+y,1/2-z
1/2-x,1/2-y,-z
1/2+x,1/2-y,1/2+z
loop_
_atom_site_type_symbol
_atom_site_label
_atom_site_fract_x
_atom_site_fract_y
_atom_site_fract_z
Si Si1 0.353120 0.135388 0.070661
Si Si2 0.592556 0.414197 0.317291
Si Si3 0.742051 0.530845 0.067966
Si Si4 0.834392 0.281447 0.053608
Si Si5 0.409279 0.655575 0.183872
Si Si6 0.000000 0.455693 0.750000
O O1 0.277536 0.093455 0.008644
O O2 0.346232 0.180421 0.305764
O O3 0.425614 0.089210 0.165217
O O4 0.352875 0.174854 0.810816
O O5 0.500000 0.427600 0.250000
O O6 0.649268 0.466849 0.459582
O O7 0.611417 0.362372 0.545351
O O8 0.618952 0.390365 0.062243
O O9 0.768878 0.517618 0.381320
O O10 0.889393 0.223660 0.103469
O O11 0.750000 0.250000 0.000000
O O12 0.500000 0.648061 0.250000
O O13 0.000000 0.500000 0.500000
#
# Coordination Sequence:
#
# PCOD9280547 Si02
#       6
#     8   8   8   8   8   4
#     4  12  26  42  68  94 131 170 224 269 339 391
#     4  10  21  39  60  90 123 163 201 251 309 379
#     4  12  24  41  63  87 120 161 212 262 315 370
#     4  12  24  41  66  97 132 167 212 267 327 406
#     4  10  21  37  61  86 126 159 195 239 309 373
#     4  12  26  48  70  96 136 180 238 298 338 390
#
# _framework density 22.178414
#
# number of rings (size 3 to 8) (size 9 to 14) (size 15 to 20)
#    0.000    0.727    0.000    8.182    2.545    0.727 
#    0.000    0.000    0.000    0.000    0.000    0.000 
#    0.000    0.000    0.000    0.000    0.000    0.000 
#
# Total GULP energy -123005.152769 kJ/mol
# GULP energy per Si atom -5591.143308 kJ/mol
# Density = 2.212794 g / cm^3
# Si number density = 22.178414 Si / 1000 Ang^3
#
#
#
# Elastic Constant Matrix: (Units=GPa)
#
#
# Indices 1 2 3 4 5 6 
#
# 1 62.4203 21.4158 30.2838 0.0000 10.7806 0.0000
# 2 21.4158 91.6014 34.8035 0.0000 -2.2601 0.0000
# 3 30.2838 34.8035 109.7582 0.0000 -3.4302 0.0000
# 4 0.0000 0.0000 0.0000 64.4785 0.0000 -0.8146
# 5 10.7806 -2.2601 -3.4302 0.0000 22.3518 0.0000
# 6 0.0000 0.0000 0.0000 -0.8146 0.0000 35.0211
#
#
#
# Elastic Compliance Matrix: (Units=1/GPa)
#
#
# Indices 1 2 3 4 5 6 
#
# 1 0.021757 -0.003360 -0.005302 0.000000 -0.011647 0.000000
# 2 -0.003360 0.012941 -0.003100 0.000000 0.002453 0.000000
# 3 -0.005302 -0.003100 0.011683 0.000000 0.004037 0.000000
# 4 0.000000 0.000000 0.000000 0.015514 0.000000 0.000361
# 5 -0.011647 0.002453 0.004037 0.000000 0.051224 0.000000
# 6 0.000000 0.000000 0.000000 0.000361 0.000000 0.028563
#
#
# Mechanical properties :
#
#
# Convention : Reuss Voigt Hill
#
# Bulk Modulus (GPa) = 43.74814 48.53177 46.13995
# Shear Modulus (GPa) = 28.93154 36.18874 32.56014
#
# Velocity S-wave (km/s) = 3.61569 4.04383 3.83574
# Velocity P-wave (km/s) = 6.09913 6.61312 6.36131
#
# Compressibility (1/GPa) = 0.02285812
#
# Stress axis : x y z
#
# Youngs Moduli (GPa) = 45.96274 77.27635 85.59598
#
# Poissons Ratio (x) = 0.25962 0.45380
# Poissons Ratio (y) = 0.15442 0.26532
# Poissons Ratio (z) = 0.24368 0.23954
#
# Static dielectric constant tensor:
#      x y z
#    x 1.896440 0.000000 0.037960 
#    y 0.000000 1.742350 0.000000 
#    z 0.037960 0.000000 2.003290 
# 
# From -- ./inp_files/10419.got.cif
#   From: 2010.05.17/outbox.cif.g08.bks.cpg/sg15_6_cif.got.tgz:10419.got - 2010.06.03 18:47:42.
