data_PCOD9280169
_publ_section_title
;
Structure prediction by ZEFSAII (Michael W. Deem and Ramdas Pophale) SiO2 
 PCOD9280169
Probable space group: C 2/C
;
_chemical_formula_sum "Si O2"
_cell_formula_units_Z 44
_cell_length_a 23.342094
_cell_length_b 6.615459
_cell_length_c 12.011863
_cell_angle_alpha 90.000000
_cell_angle_beta 103.323320
_cell_angle_gamma 90.000000
_cell_volume 1804.932709
_symmetry_space_group_name_H-M "C 2/C"
_symmetry_group_IT_number 15
_symmetry_cell_setting 'monoclinic'
loop_
_space_group_symop_operation_xyz
x,y,z
-x,y,1/2-z
-x,-y,-z
x,-y,1/2+z
1/2+x,1/2+y,z
1/2-x,1/2+y,1/2-z
1/2-x,1/2-y,-z
1/2+x,1/2-y,1/2+z
loop_
_atom_site_type_symbol
_atom_site_label
_atom_site_fract_x
_atom_site_fract_y
_atom_site_fract_z
Si Si1 0.000000 0.212737 0.250000
Si Si2 0.173811 0.543736 0.910568
Si Si3 0.550851 0.336004 0.153392
Si Si4 0.174093 0.281913 0.707903
Si Si5 0.943455 0.407724 0.611761
Si Si6 0.222684 0.951175 0.897587
O O1 0.960812 0.369504 0.161993
O O2 0.967027 0.062993 0.321855
O O3 0.163739 0.480976 0.778273
O O4 0.122939 0.434472 0.960280
O O5 0.175444 0.785683 0.913897
O O6 0.238062 0.475127 0.981437
O O7 0.613940 0.300571 0.126278
O O8 0.560508 0.231248 0.278994
O O9 0.497184 0.207286 0.074812
O O10 0.227631 0.332199 0.651427
O O11 0.194181 0.116735 0.807222
#
# Coordination Sequence:
#
# PCOD9280169 Si02
#       6
#     4   8   8   8   8   8
#     4   8  12  26  48  74  96 138 176 210 274 304
#     4  10  21  37  55  81 111 142 185 224 270 329
#     4   8  16  27  50  76 102 136 178 221 263 317
#     4  11  20  37  55  81 112 142 184 226 270 324
#     4   8  15  29  49  75 103 136 176 220 268 316
#     4  11  22  35  57  81 110 148 179 224 275 323
#
# _framework density 24.377638000000001
#
# number of rings (size 3 to 8) (size 9 to 14) (size 15 to 20)
#    0.000    2.909    1.818    1.636    0.000    0.000 
#    0.000    0.909    0.000    1.091    0.000    0.000 
#    0.000    0.000    0.000    0.000    0.000    0.000 
#
# Total GULP energy -122742.981240 kJ/mol
# GULP energy per Si atom -5579.226420 kJ/mol
# Density = 2.432215 g / cm^3
# Si number density = 24.377638 Si / 1000 Ang^3
#
#
#
# Elastic Constant Matrix: (Units=GPa)
#
#
# Indices 1 2 3 4 5 6 
#
# 1 110.8500 19.1667 11.9185 0.0000 14.4329 0.0000
# 2 19.1667 116.0966 10.9189 0.0000 2.0629 0.0000
# 3 11.9185 10.9189 35.3787 0.0000 -9.8476 0.0000
# 4 0.0000 0.0000 0.0000 24.0703 0.0000 3.6854
# 5 14.4329 2.0629 -9.8476 0.0000 20.0176 0.0000
# 6 0.0000 0.0000 0.0000 3.6854 0.0000 18.7070
#
#
#
# Elastic Compliance Matrix: (Units=1/GPa)
#
#
# Indices 1 2 3 4 5 6 
#
# 1 0.011409 -0.001051 -0.006695 0.000000 -0.011411 0.000000
# 2 -0.001051 0.009088 -0.002897 0.000000 -0.001604 0.000000
# 3 -0.006695 -0.002897 0.038053 0.000000 0.023846 0.000000
# 4 0.000000 0.000000 0.000000 0.042837 0.000000 -0.008439
# 5 -0.011411 -0.001604 0.023846 0.000000 0.070080 0.000000
# 6 0.000000 0.000000 0.000000 -0.008439 0.000000 0.055118
#
#
# Mechanical properties :
#
#
# Convention : Reuss Voigt Hill
#
# Bulk Modulus (GPa) = 26.83678 38.48151 32.65914
# Shear Modulus (GPa) = 19.20917 27.24706 23.22812
#
# Velocity S-wave (km/s) = 2.81015 3.34684 3.09017
# Velocity P-wave (km/s) = 4.64348 5.54572 5.11453
#
# Compressibility (1/GPa) = 0.03726230
#
# Stress axis : x y z
#
# Youngs Moduli (GPa) = 87.65370 110.03490 26.27932
#
# Poissons Ratio (x) = 0.11565 0.17595
# Poissons Ratio (y) = 0.09212 0.07614
# Poissons Ratio (z) = 0.58686 0.31880
#
# Static dielectric constant tensor:
#      x y z
#    x 2.089240 0.000000 0.008830 
#    y 0.000000 1.921230 0.000000 
#    z 0.008830 0.000000 1.979750 
# 
# From -- ./inp_files/175507.got.cif
#   From: 2010.05.17/outbox.cif.g08.bks.cpg/sg15_88_cif.got.tgz:175507.got - 2010.06.03 18:47:42.
