data_PCOD9280158
_publ_section_title
;
Structure prediction by ZEFSAII (Michael W. Deem and Ramdas Pophale) SiO2 
 PCOD9280158
Probable space group: C 2/C
;
_chemical_formula_sum "Si O2"
_cell_formula_units_Z 56
_cell_length_a 14.424859
_cell_length_b 22.868879
_cell_length_c 9.780681
_cell_angle_alpha 90.000000
_cell_angle_beta 62.066858
_cell_angle_gamma 90.000000
_cell_volume 2850.555838
_symmetry_space_group_name_H-M "C 2/C"
_symmetry_group_IT_number 15
_symmetry_cell_setting 'monoclinic'
loop_
_space_group_symop_operation_xyz
x,y,z
-x,y,1/2-z
-x,-y,-z
x,-y,1/2+z
1/2+x,1/2+y,z
1/2-x,1/2+y,1/2-z
1/2-x,1/2-y,-z
1/2+x,1/2-y,1/2+z
loop_
_atom_site_type_symbol
_atom_site_label
_atom_site_fract_x
_atom_site_fract_y
_atom_site_fract_z
Si Si1 0.440631 0.953943 0.643740
Si Si2 0.385199 0.214402 0.297006
Si Si3 0.158394 0.346718 0.231919
Si Si4 0.922175 0.331402 0.497870
Si Si5 0.377675 0.464557 0.315020
Si Si6 0.296092 0.664612 0.902767
Si Si7 0.252639 0.473977 0.132662
O O1 0.500000 0.948522 0.750000
O O2 0.422533 0.894466 0.572459
O O3 0.500000 0.000000 0.500000
O O4 0.326669 0.976754 0.763049
O O5 0.500000 0.191024 0.250000
O O6 0.383841 0.214706 0.135415
O O7 0.370293 0.279191 0.367347
O O8 0.296937 0.173680 0.423985
O O9 0.241944 0.330106 0.290349
O O10 0.181394 0.415666 0.190859
O O11 0.044324 0.328728 0.369438
O O12 0.152205 0.324371 0.081644
O O13 0.500000 0.476797 0.250000
O O14 0.350592 0.397919 0.378816
O O15 0.344490 0.468218 0.180268
O O16 0.304407 0.508101 0.453769
#
# Coordination Sequence:
#
# PCOD9280158 Si02
#       7
#     8   8   8   8   8   8   8
#     4  12  22  33  55  90 129 158 193 243 308 369
#     4  11  21  38  62  87 114 153 202 251 304 355
#     4  10  21  37  54  87 120 151 192 240 301 358
#     4  11  21  34  57  84 121 159 189 241 302 364
#     4  11  23  41  59  83 116 160 202 248 294 349
#     4  10  23  39  60  86 115 152 204 253 294 355
#     4  11  22  36  58  85 119 158 197 238 295 363
#
# _framework density 19.645291
#
# number of rings (size 3 to 8) (size 9 to 14) (size 15 to 20)
#    0.000    1.143    2.857    4.714    2.000    0.571 
#    0.000    0.000    0.000    0.000    3.714    0.000 
#    0.000    0.000    0.000    0.000    0.000    0.000 
#
# Total GULP energy -156220.065818 kJ/mol
# GULP energy per Si atom -5579.288065 kJ/mol
# Density = 1.960058 g / cm^3
# Si number density = 19.645291 Si / 1000 Ang^3
#
#
#
# Elastic Constant Matrix: (Units=GPa)
#
#
# Indices 1 2 3 4 5 6 
#
# 1 52.9978 -12.8947 18.4650 0.0000 -3.6838 0.0000
# 2 -12.8947 36.6418 8.5993 0.0000 -11.9554 0.0000
# 3 18.4650 8.5993 101.3662 0.0000 4.8445 0.0000
# 4 0.0000 0.0000 0.0000 6.7711 0.0000 1.7337
# 5 -3.6838 -11.9554 4.8445 0.0000 33.9359 0.0000
# 6 0.0000 0.0000 0.0000 1.7337 0.0000 5.1351
#
#
#
# Elastic Compliance Matrix: (Units=1/GPa)
#
#
# Indices 1 2 3 4 5 6 
#
# 1 0.024560 0.012632 -0.005926 0.000000 0.007962 0.000000
# 2 0.012632 0.038369 -0.006311 0.000000 0.015789 0.000000
# 3 -0.005926 -0.006311 0.011697 0.000000 -0.004536 0.000000
# 4 0.000000 0.000000 0.000000 0.161661 0.000000 -0.054579
# 5 0.007962 0.015789 -0.004536 0.000000 0.036542 0.000000
# 6 0.000000 0.000000 0.000000 -0.054579 0.000000 0.213163
#
#
# Mechanical properties :
#
#
# Convention : Reuss Voigt Hill
#
# Bulk Modulus (GPa) = 13.25976 24.37166 18.81571
# Shear Modulus (GPa) = 9.79738 20.95751 15.37744
#
# Velocity S-wave (km/s) = 2.23561 3.26973 2.80081
# Velocity P-wave (km/s) = 3.66445 5.16600 4.47860
#
# Compressibility (1/GPa) = 0.07541615
#
# Stress axis : x y z
#
# Youngs Moduli (GPa) = 40.71635 26.06263 85.49300
#
# Poissons Ratio (x) = -0.32921 0.50663
# Poissons Ratio (y) = -0.51431 0.53951
# Poissons Ratio (z) = 0.24129 0.16447
#
# Static dielectric constant tensor:
#      x y z
#    x 1.710090 0.000000 0.042300 
#    y 0.000000 1.698210 0.000000 
#    z 0.042300 0.000000 1.706580 
# 
# From -- ./inp_files/42510.got.cif
#   From: 2010.05.17/outbox.cif.g08.bks.cpg/sg15_22_cif.got.tgz:42510.got - 2010.06.03 18:47:42.
