data_PCOD9280472
_publ_section_title
;
Structure prediction by ZEFSAII (Michael W. Deem and Ramdas Pophale) SiO2 
 PCOD9280472
Probable space group: C 2/C
;
_chemical_formula_sum "Si O2"
_cell_formula_units_Z 56
_cell_length_a 16.204192
_cell_length_b 25.473059
_cell_length_c 8.477174
_cell_angle_alpha 90.000000
_cell_angle_beta 52.835353
_cell_angle_gamma 90.000000
_cell_volume 2788.463364
_symmetry_space_group_name_H-M "C 2/C"
_symmetry_group_IT_number 15
_symmetry_cell_setting 'monoclinic'
loop_
_space_group_symop_operation_xyz
x,y,z
-x,y,1/2-z
-x,-y,-z
x,-y,1/2+z
1/2+x,1/2+y,z
1/2-x,1/2+y,1/2-z
1/2-x,1/2-y,-z
1/2+x,1/2-y,1/2+z
loop_
_atom_site_type_symbol
_atom_site_label
_atom_site_fract_x
_atom_site_fract_y
_atom_site_fract_z
Si Si1 0.118508 0.062076 0.665661
Si Si2 0.122390 0.437472 0.114604
Si Si3 0.714746 0.674634 0.530506
Si Si4 0.897673 0.226530 0.302239
Si Si5 0.898767 0.275423 0.955457
Si Si6 0.247224 0.008438 0.776554
Si Si7 0.196510 0.324809 0.922653
O O1 0.147851 0.123197 0.632038
O O2 0.155680 0.037874 0.788435
O O3 0.000000 0.054681 0.750000
O O4 0.191937 0.032390 0.456609
O O5 0.178433 0.451922 0.214151
O O6 0.000000 0.447866 0.250000
O O7 0.181028 0.474784 0.922754
O O8 0.142369 0.377086 0.045530
O O9 0.802175 0.684822 0.560789
O O10 0.640903 0.725124 0.599168
O O11 0.776867 0.671310 0.292805
O O12 0.866463 0.272411 0.460418
O O13 0.805667 0.185625 0.383763
O O14 0.000000 0.200150 0.250000
O O15 0.915590 0.254857 0.112810
O O16 0.000000 0.296446 0.750000
#
# Coordination Sequence:
#
# PCOD9280472 Si02
#       7
#     8   8   8   8   8   8   8
#     4  11  22  43  66  91 126 167 203 263 313 362
#     4  11  22  42  66  91 127 166 202 263 313 365
#     4  10  21  39  59  88 126 158 207 255 298 379
#     4  10  21  38  60  88 124 164 203 252 309 366
#     4  10  21  37  60  89 121 164 204 249 309 365
#     4  10  24  42  64  95 122 160 219 257 305 379
#     4  10  21  39  59  88 126 160 206 252 304 371
#
# _framework density 20.082744999999999
#
# number of rings (size 3 to 8) (size 9 to 14) (size 15 to 20)
#    0.000    1.714    1.429    2.571    2.000    1.143 
#    5.143    1.429    0.000    0.000    0.000    0.000 
#    0.000    0.000    0.000    0.000    0.000    0.000 
#
# Total GULP energy -156448.832371 kJ/mol
# GULP energy per Si atom -5587.458299 kJ/mol
# Density = 2.003704 g / cm^3
# Si number density = 20.082745 Si / 1000 Ang^3
#
#
#
# Elastic Constant Matrix: (Units=GPa)
#
#
# Indices 1 2 3 4 5 6 
#
# 1 139.7754 20.8470 16.9989 0.0000 -19.7675 0.0000
# 2 20.8470 50.3933 -1.6692 0.0000 -3.8328 0.0000
# 3 16.9989 -1.6692 31.1090 0.0000 -9.4029 0.0000
# 4 0.0000 0.0000 0.0000 25.0109 0.0000 -4.8653
# 5 -19.7675 -3.8328 -9.4029 0.0000 30.6980 0.0000
# 6 0.0000 0.0000 0.0000 -4.8653 0.0000 11.9414
#
#
#
# Elastic Compliance Matrix: (Units=1/GPa)
#
#
# Indices 1 2 3 4 5 6 
#
# 1 0.008684 -0.003409 -0.003710 0.000000 0.004030 0.000000
# 2 -0.003409 0.021488 0.003486 0.000000 0.001556 0.000000
# 3 -0.003710 0.003486 0.037214 0.000000 0.009445 0.000000
# 4 0.000000 0.000000 0.000000 0.043424 0.000000 0.017693
# 5 0.004030 0.001556 0.009445 0.000000 0.038258 0.000000
# 6 0.000000 0.000000 0.000000 0.017693 0.000000 0.090951
#
#
# Mechanical properties :
#
#
# Convention : Reuss Voigt Hill
#
# Bulk Modulus (GPa) = 16.63343 32.62569 24.62956
# Shear Modulus (GPa) = 18.70385 25.87012 22.28699
#
# Velocity S-wave (km/s) = 3.05510 3.59301 3.33492
# Velocity P-wave (km/s) = 4.55469 5.78739 5.20764
#
# Compressibility (1/GPa) = 0.06011989
#
# Stress axis : x y z
#
# Youngs Moduli (GPa) = 115.15635 46.53798 26.87151
#
# Poissons Ratio (x) = 0.15864 0.09969
# Poissons Ratio (y) = 0.39254 -0.09367
# Poissons Ratio (z) = 0.42723 -0.16222
#
# Static dielectric constant tensor:
#      x y z
#    x 1.724030 0.000000 0.011920 
#    y 0.000000 1.671060 0.000000 
#    z 0.011920 0.000000 1.705770 
# 
# From -- ./inp_files/43607.got.cif
#   From: 2010.05.17/outbox.cif.g08.bks.cpg/sg15_22_cif.got.tgz:43607.got - 2010.06.03 18:47:42.
