data_PCOD9280198
_publ_section_title
;
Structure prediction by ZEFSAII (Michael W. Deem and Ramdas Pophale) SiO2 
 PCOD9280198
Probable space group: C 2/C
;
_chemical_formula_sum "Si O2"
_cell_formula_units_Z 44
_cell_length_a 10.703679
_cell_length_b 8.974392
_cell_length_c 24.883791
_cell_angle_alpha 90.000000
_cell_angle_beta 113.110455
_cell_angle_gamma 90.000000
_cell_volume 2198.489530
_symmetry_space_group_name_H-M "C 2/C"
_symmetry_group_IT_number 15
_symmetry_cell_setting 'monoclinic'
loop_
_space_group_symop_operation_xyz
x,y,z
-x,y,1/2-z
-x,-y,-z
x,-y,1/2+z
1/2+x,1/2+y,z
1/2-x,1/2+y,1/2-z
1/2-x,1/2-y,-z
1/2+x,1/2-y,1/2+z
loop_
_atom_site_type_symbol
_atom_site_label
_atom_site_fract_x
_atom_site_fract_y
_atom_site_fract_z
Si Si1 0.908861 0.572331 0.530508
Si Si2 0.904999 0.070429 0.029288
Si Si3 0.314056 0.424607 0.233491
Si Si4 0.005468 0.419730 0.334480
Si Si5 0.533195 0.423710 0.836913
Si Si6 0.500000 0.845950 0.750000
O O1 0.909182 0.750870 0.523101
O O2 0.752002 0.521835 0.502211
O O3 0.000000 0.500000 0.500000
O O4 0.969461 0.541253 0.599489
O O5 0.953372 0.038102 0.098261
O O6 0.000000 0.000000 0.000000
O O7 0.153875 0.416652 0.206528
O O8 0.364077 0.485288 0.183781
O O9 0.385634 0.532650 0.288740
O O10 0.385268 0.264432 0.253607
O O11 0.059836 0.252669 0.334320
O O12 0.063049 0.547192 0.305801
#
# Coordination Sequence:
#
# PCOD9280198 Si02
#       6
#     8   8   8   8   8   4
#     4  10  23  39  58  86 115 148 191 235 279 333
#     4  10  22  40  60  83 114 152 191 231 280 336
#     4  10  21  37  56  81 112 144 183 231 276 330
#     4  11  21  36  58  81 112 146 181 229 282 331
#     4   9  20  38  57  80 112 148 184 226 279 332
#     4  10  22  34  54  86 108 140 188 224 276 338
#
# _framework density 20.013739999999999
#
# number of rings (size 3 to 8) (size 9 to 14) (size 15 to 20)
#    0.000    2.182    0.000    3.273    0.000    8.000 
#    0.000    3.636    0.000    0.000    0.000    0.000 
#    0.000    0.000    0.000    0.000    0.000    0.000 
#
# Total GULP energy -122900.341425 kJ/mol
# GULP energy per Si atom -5586.379156 kJ/mol
# Density = 1.996819 g / cm^3
# Si number density = 20.013740 Si / 1000 Ang^3
#
#
#
# Elastic Constant Matrix: (Units=GPa)
#
#
# Indices 1 2 3 4 5 6 
#
# 1 84.3581 12.9546 34.6187 0.0000 1.1472 0.0000
# 2 12.9546 69.3249 47.7575 0.0000 -19.5220 0.0000
# 3 34.6187 47.7575 124.1946 0.0000 -10.7140 0.0000
# 4 0.0000 0.0000 0.0000 31.7078 0.0000 -10.5591
# 5 1.1472 -19.5220 -10.7140 0.0000 24.6433 0.0000
# 6 0.0000 0.0000 0.0000 -10.5591 0.0000 27.1840
#
#
#
# Elastic Compliance Matrix: (Units=1/GPa)
#
#
# Indices 1 2 3 4 5 6 
#
# 1 0.013540 -0.000769 -0.003725 0.000000 -0.002859 0.000000
# 2 -0.000769 0.024458 -0.007809 0.000000 0.016016 0.000000
# 3 -0.003725 -0.007809 0.012025 0.000000 -0.000785 0.000000
# 4 0.000000 0.000000 0.000000 0.036224 0.000000 0.014070
# 5 -0.002859 0.016016 -0.000785 0.000000 0.053059 0.000000
# 6 0.000000 0.000000 0.000000 0.014070 0.000000 0.042252
#
#
# Mechanical properties :
#
#
# Convention : Reuss Voigt Hill
#
# Bulk Modulus (GPa) = 39.34358 52.05992 45.70175
# Shear Modulus (GPa) = 23.29518 28.87680 26.08599
#
# Velocity S-wave (km/s) = 3.41539 3.80261 3.61419
# Velocity P-wave (km/s) = 5.93752 6.73412 6.34832
#
# Compressibility (1/GPa) = 0.02541711
#
# Stress axis : x y z
#
# Youngs Moduli (GPa) = 73.85574 40.88583 83.15707
#
# Poissons Ratio (x) = 0.03145 0.30977
# Poissons Ratio (y) = 0.05680 0.64938
# Poissons Ratio (z) = 0.27512 0.31928
#
# Static dielectric constant tensor:
#      x y z
#    x 1.703200 0.000000 0.009290 
#    y 0.000000 1.717020 0.000000 
#    z 0.009290 0.000000 1.689580 
# 
# From -- ./inp_files/268122.got.cif
#   From: 2010.05.17/outbox.cif.g08.bks.cpg/sg15_135_cif.got.tgz:268122.got - 2010.06.03 18:47:42.
