data_PCOD9280452
_publ_section_title
;
Structure prediction by ZEFSAII (Michael W. Deem and Ramdas Pophale) SiO2 
 PCOD9280452
Probable space group: C 2/C
;
_chemical_formula_sum "Si O2"
_cell_formula_units_Z 64
_cell_length_a 8.467058
_cell_length_b 19.265744
_cell_length_c 19.187485
_cell_angle_alpha 90.000000
_cell_angle_beta 62.710076
_cell_angle_gamma 90.000000
_cell_volume 2781.573344
_symmetry_space_group_name_H-M "C 2/C"
_symmetry_group_IT_number 15
_symmetry_cell_setting 'monoclinic'
loop_
_space_group_symop_operation_xyz
x,y,z
-x,y,1/2-z
-x,-y,-z
x,-y,1/2+z
1/2+x,1/2+y,z
1/2-x,1/2+y,1/2-z
1/2-x,1/2-y,-z
1/2+x,1/2-y,1/2+z
loop_
_atom_site_type_symbol
_atom_site_label
_atom_site_fract_x
_atom_site_fract_y
_atom_site_fract_z
Si Si1 0.460930 0.029833 0.332407
Si Si2 0.598815 0.336483 0.022033
Si Si3 0.314150 0.562454 0.538895
Si Si4 0.334106 0.328306 0.327646
Si Si5 0.587152 0.186420 0.145486
Si Si6 0.355598 0.051794 0.064026
Si Si7 0.958092 0.323430 0.341486
Si Si8 0.831330 0.715406 0.088443
O O1 0.500000 0.995138 0.250000
O O2 0.420424 0.109722 0.326361
O O3 0.618305 0.031447 0.359608
O O4 0.282946 0.999354 0.401643
O O5 0.505505 0.407545 0.018134
O O6 0.632739 0.341464 0.097646
O O7 0.464924 0.272975 0.030002
O O8 0.780563 0.319826 0.946917
O O9 0.305432 0.544994 0.458162
O O10 0.186110 0.624267 0.595636
O O11 0.500000 0.356882 0.250000
O O12 0.336047 0.244640 0.320723
O O13 0.140203 0.347130 0.341157
O O14 0.397322 0.212378 0.155236
O O15 0.370920 0.136459 0.056913
O O16 0.500000 0.000000 0.000000
O O17 0.866061 0.247898 0.375907
O O18 0.000000 0.326511 0.250000
#
# Coordination Sequence:
#
# PCOD9280452 Si02
#       8
#     8   8   8   8   8   8   8   8
#     4  10  21  39  64  87 120 170 217 264 321 385
#     4  10  22  37  60  93 125 165 207 266 323 384
#     4  10  22  38  64  89 126 162 220 262 318 385
#     4  11  22  37  59  88 129 164 206 260 329 389
#     4  10  21  37  60  87 122 162 211 253 326 379
#     4   9  20  37  61  92 117 164 209 258 310 372
#     4  11  23  36  61  95 128 165 208 267 322 381
#     4   9  19  36  60  87 125 158 212 257 312 379
#
# _framework density 23.008561
#
# number of rings (size 3 to 8) (size 9 to 14) (size 15 to 20)
#    0.000    2.000    0.000    4.500    7.000    2.500 
#    0.000    0.000    0.000    0.000    0.000    0.000 
#    0.000    0.000    0.000    0.000    0.000    0.000 
#
# Total GULP energy -178271.159818 kJ/mol
# GULP energy per Si atom -5570.973744 kJ/mol
# Density = 2.295619 g / cm^3
# Si number density = 23.008561 Si / 1000 Ang^3
#
#
#
# Elastic Constant Matrix: (Units=GPa)
#
#
# Indices 1 2 3 4 5 6 
#
# 1 110.9635 32.4177 53.3796 0.0000 -4.5507 0.0000
# 2 32.4177 74.2232 12.6191 0.0000 7.3037 0.0000
# 3 53.3796 12.6191 138.8297 0.0000 16.5708 0.0000
# 4 0.0000 0.0000 0.0000 -47.9933 0.0000 -8.8238
# 5 -4.5507 7.3037 16.5708 0.0000 32.6658 0.0000
# 6 0.0000 0.0000 0.0000 -8.8238 0.0000 29.3690
#
#
#
# Elastic Compliance Matrix: (Units=1/GPa)
#
#
# Indices 1 2 3 4 5 6 
#
# 1 0.013449 -0.005536 -0.005364 0.000000 0.005832 0.000000
# 2 -0.005536 0.016171 0.001258 0.000000 -0.005025 0.000000
# 3 -0.005364 0.001258 0.009872 0.000000 -0.006036 0.000000
# 4 0.000000 0.000000 0.000000 -0.019746 0.000000 -0.005932
# 5 0.005832 -0.005025 -0.006036 0.000000 0.035611 0.000000
# 6 0.000000 0.000000 0.000000 -0.005932 0.000000 0.032267
#
#
# Mechanical properties :
#
#
# Convention : Reuss Voigt Hill
#
# Bulk Modulus (GPa) = 49.48322 57.87214 53.67768
# Shear Modulus (GPa) = 43.99708 17.84828 30.92268
#
# Velocity S-wave (km/s) = 4.37762 2.78820 3.66999
# Velocity P-wave (km/s) = 6.86327 5.96427 6.42950
#
# Compressibility (1/GPa) = 0.02020887
#
# Stress axis : x y z
#
# Youngs Moduli (GPa) = 74.35581 61.83807 101.30033
#
# Poissons Ratio (x) = 0.34233 0.54338
# Poissons Ratio (y) = 0.41162 -0.12748
# Poissons Ratio (z) = 0.39885 -0.07782
#
# Static dielectric constant tensor:
#      x y z
#    x 1.874500 0.000000 0.012330 
#    y 0.000000 1.945330 0.000000 
#    z 0.012330 0.000000 1.934240 
# 
# From -- ./inp_files/233841.got.cif
#   From: 2010.05.17/outbox.cif.g08.bks.cpg/sg15_117_cif.got.tgz:233841.got - 2010.06.03 18:47:42.
