data_PCOD9280017
_publ_section_title
;
Structure prediction by ZEFSAII (Michael W. Deem and Ramdas Pophale) SiO2 
 PCOD9280017
Probable space group: C 2/C
;
_chemical_formula_sum "Si O2"
_cell_formula_units_Z 56
_cell_length_a 12.201845
_cell_length_b 6.933331
_cell_length_c 31.758602
_cell_angle_alpha 90.000000
_cell_angle_beta 50.008356
_cell_angle_gamma 90.000000
_cell_volume 2058.429132
_symmetry_space_group_name_H-M "C 2/C"
_symmetry_group_IT_number 15
_symmetry_cell_setting 'monoclinic'
loop_
_space_group_symop_operation_xyz
x,y,z
-x,y,1/2-z
-x,-y,-z
x,-y,1/2+z
1/2+x,1/2+y,z
1/2-x,1/2+y,1/2-z
1/2-x,1/2-y,-z
1/2+x,1/2-y,1/2+z
loop_
_atom_site_type_symbol
_atom_site_label
_atom_site_fract_x
_atom_site_fract_y
_atom_site_fract_z
Si Si1 0.360457 0.380963 0.616611
Si Si2 0.367957 0.862853 0.239594
Si Si3 0.916330 0.179173 0.380329
Si Si4 0.773584 0.704716 0.143052
Si Si5 0.895411 0.806202 0.520712
Si Si6 0.581744 0.934770 0.568981
Si Si7 0.866367 0.785644 0.262878
O O1 0.492714 0.459018 0.612099
O O2 0.290951 0.580042 0.619137
O O3 0.403267 0.247633 0.567423
O O4 0.250055 0.268153 0.673165
O O5 0.474081 0.760292 0.181628
O O6 0.330169 0.751261 0.291833
O O7 0.215099 0.888721 0.254347
O O8 0.421750 0.079331 0.232890
O O9 0.792711 0.097943 0.381278
O O10 0.887465 0.347675 0.421695
O O11 0.921000 0.617555 0.124293
O O12 0.727610 0.841574 0.551469
O O13 0.933214 0.650688 0.475294
O O14 0.000000 0.000000 0.500000
O O15 0.000000 0.889940 0.250000
#
# Coordination Sequence:
#
# PCOD9280017 Si02
#       7
#     8   8   8   8   8   8   8
#     4  10  22  40  63  89 128 163 208 264 319 373
#     4  10  21  36  63  90 127 169 204 248 318 378
#     4  11  22  41  59  97 127 159 212 260 310 385
#     4  11  21  41  63  90 128 170 204 257 314 381
#     4  11  22  44  67  92 123 168 216 272 324 373
#     4  11  23  39  71  91 121 170 217 262 320 380
#     4  10  21  38  60  91 124 167 207 260 312 377
#
# _framework density 27.205214000000002
#
# number of rings (size 3 to 8) (size 9 to 14) (size 15 to 20)
#    0.000    1.429    2.857    3.000    2.000    0.571 
#    2.571   12.143    0.000    0.000    0.000    0.000 
#    0.000    0.000    0.000    0.000    0.000    0.000 
#
# Total GULP energy -156440.833819 kJ/mol
# GULP energy per Si atom -5587.172636 kJ/mol
# Density = 2.714329 g / cm^3
# Si number density = 27.205214 Si / 1000 Ang^3
#
#
#
# Elastic Constant Matrix: (Units=GPa)
#
#
# Indices 1 2 3 4 5 6 
#
# 1 203.5820 26.4642 21.4458 -0.0005 21.5060 -0.0003
# 2 26.4642 76.8695 12.5150 -0.0010 -2.7691 -0.0006
# 3 21.4458 12.5150 73.4923 -0.0001 14.9753 -0.0002
# 4 -0.0005 -0.0010 -0.0001 23.9561 -0.0001 0.0556
# 5 21.5060 -2.7691 14.9753 -0.0001 48.7457 -0.0001
# 6 -0.0003 -0.0006 -0.0002 0.0556 -0.0001 33.3782
#
#
#
# Elastic Compliance Matrix: (Units=1/GPa)
#
#
# Indices 1 2 3 4 5 6 
#
# 1 0.005477 -0.001833 -0.000824 0.000000 -0.002267 0.000000
# 2 -0.001833 0.014105 -0.002342 0.000001 0.002329 0.000000
# 3 -0.000824 -0.002342 0.015147 0.000000 -0.004423 0.000000
# 4 0.000000 0.000001 0.000000 0.041743 0.000000 -0.000070
# 5 -0.002267 0.002329 -0.004423 0.000000 0.023006 0.000000
# 6 0.000000 0.000000 0.000000 -0.000070 0.000000 0.029960
#
#
# Mechanical properties :
#
#
# Convention : Reuss Voigt Hill
#
# Bulk Modulus (GPa) = 40.43384 52.75485 46.59434
# Shear Modulus (GPa) = 33.85710 40.78394 37.32052
#
# Velocity S-wave (km/s) = 3.53159 3.87605 3.70782
# Velocity P-wave (km/s) = 5.61465 6.28214 5.95775
#
# Compressibility (1/GPa) = 0.02473176
#
# Stress axis : x y z
#
# Youngs Moduli (GPa) = 182.59487 70.89550 66.01814
#
# Poissons Ratio (x) = 0.12995 0.05440
# Poissons Ratio (y) = 0.33469 0.15460
# Poissons Ratio (z) = 0.15046 0.16602
#
# Static dielectric constant tensor:
#      x y z
#    x 2.152320 0.000000 -0.042280 
#    y 0.000000 2.121310 0.000000 
#    z -0.042280 0.000000 2.140660 
# 
# From -- ./inp_files/310245.got.cif
#   From: 2010.05.17/outbox.cif.g08.bks.cpg/sg15_156_cif.got.tgz:310245.got - 2010.06.03 18:47:42.
