data_PCOD9280339
_publ_section_title
;
Structure prediction by ZEFSAII (Michael W. Deem and Ramdas Pophale) SiO2 
 PCOD9280339
Probable space group: C 2/C
;
_chemical_formula_sum "Si O2"
_cell_formula_units_Z 44
_cell_length_a 32.626932
_cell_length_b 6.620045
_cell_length_c 8.560275
_cell_angle_alpha 90.000000
_cell_angle_beta 103.081063
_cell_angle_gamma 90.000000
_cell_volume 1800.970150
_symmetry_space_group_name_H-M "C 2/C"
_symmetry_group_IT_number 15
_symmetry_cell_setting 'monoclinic'
loop_
_space_group_symop_operation_xyz
x,y,z
-x,y,1/2-z
-x,-y,-z
x,-y,1/2+z
1/2+x,1/2+y,z
1/2-x,1/2+y,1/2-z
1/2-x,1/2-y,-z
1/2+x,1/2-y,1/2+z
loop_
_atom_site_type_symbol
_atom_site_label
_atom_site_fract_x
_atom_site_fract_y
_atom_site_fract_z
Si Si1 0.377300 0.694947 0.396071
Si Si2 0.385169 0.032239 0.200990
Si Si3 0.290884 0.521325 0.440810
Si Si4 0.557904 0.665018 0.568264
Si Si5 0.500000 0.594649 0.250000
Si Si6 0.296428 0.801533 0.736894
O O1 0.387298 0.867638 0.532793
O O2 0.329177 0.634524 0.386120
O O3 0.406009 0.498531 0.443729
O O4 0.386671 0.793904 0.235721
O O5 0.420766 0.146718 0.330040
O O6 0.339464 0.091567 0.230850
O O7 0.292861 0.609921 0.615945
O O8 0.297582 0.284999 0.413115
O O9 0.244955 0.571600 0.333660
O O10 0.529529 0.717293 0.394005
O O11 0.528615 0.548636 0.667043
#
# Coordination Sequence:
#
# PCOD9280339 Si02
#       6
#     8   8   8   8   4   8
#     4  11  24  40  65  96 129 172 215 258 317 382
#     4  11  24  40  65  96 129 172 215 258 317 382
#     4  10  21  37  58  90 129 169 214 259 306 365
#     4  11  22  46  66  96 126 168 210 266 328 383
#     4  10  24  42  74  90 126 162 212 274 326 384
#     4  10  21  37  58  90 129 169 214 259 306 365
#
# _framework density 24.431276
#
# number of rings (size 3 to 8) (size 9 to 14) (size 15 to 20)
#    0.000    1.455    3.636    1.091    2.545    2.182 
#    0.000    5.455    0.000    0.000    0.000    0.000 
#    0.000    0.000    0.000    0.000    0.000    0.000 
#
# Total GULP energy -123183.577571 kJ/mol
# GULP energy per Si atom -5599.253526 kJ/mol
# Density = 2.437567 g / cm^3
# Si number density = 24.431276 Si / 1000 Ang^3
#
#
#
# Elastic Constant Matrix: (Units=GPa)
#
#
# Indices 1 2 3 4 5 6 
#
# 1 108.4010 -3.2182 31.2904 0.0000 0.0566 0.0000
# 2 -3.2182 16.2924 17.1407 0.0000 -3.3899 0.0000
# 3 31.2904 17.1407 68.0782 0.0000 13.3911 0.0000
# 4 0.0000 0.0000 0.0000 21.0635 0.0000 -33.4833
# 5 0.0566 -3.3899 13.3911 0.0000 41.2588 0.0000
# 6 0.0000 0.0000 0.0000 -33.4833 0.0000 -11.4358
#
#
#
# Elastic Compliance Matrix: (Units=1/GPa)
#
#
# Indices 1 2 3 4 5 6 
#
# 1 0.012603 0.014204 -0.010249 0.000000 0.004476 0.000000
# 2 0.014204 0.108659 -0.038069 0.000000 0.021264 0.000000
# 3 -0.010249 -0.038069 0.031616 0.000000 -0.013375 0.000000
# 4 0.000000 0.000000 0.000000 0.008396 0.000000 -0.024584
# 5 0.004476 0.021264 -0.013375 0.000000 0.030319 0.000000
# 6 0.000000 0.000000 0.000000 -0.024584 0.000000 -0.015465
#
#
# Mechanical properties :
#
#
# Convention : Reuss Voigt Hill
#
# Bulk Modulus (GPa) = 11.81358 31.46638 21.63998
# Shear Modulus (GPa) = 18.34362 20.01454 19.17908
#
# Velocity S-wave (km/s) = 2.74309 2.86530 2.80486
# Velocity P-wave (km/s) = 3.85729 4.88407 4.40073
#
# Compressibility (1/GPa) = 0.08464832
#
# Stress axis : x y z
#
# Youngs Moduli (GPa) = 79.34725 9.20307 31.62979
#
# Poissons Ratio (x) = -0.13072 0.32418
# Poissons Ratio (y) = -1.12702 1.20412
# Poissons Ratio (z) = 0.81325 0.35035
#
# Static dielectric constant tensor:
#      x y z
#    x 1.893470 0.000000 -0.008070 
#    y 0.000000 1.898450 0.000000 
#    z -0.008070 0.000000 1.963930 
# 
# From -- ./inp_files/68345.got.cif
#   From: 2010.05.17/outbox.cif.g08.bks.cpg/sg15_35_cif.got.tgz:68345.got - 2010.06.03 18:47:42.
