data_PCOD9280605
_publ_section_title
;
Structure prediction by ZEFSAII (Michael W. Deem and Ramdas Pophale) SiO2 
 PCOD9280605
Probable space group: C 2/C
;
_chemical_formula_sum "Si O2"
_cell_formula_units_Z 64
_cell_length_a 14.787356
_cell_length_b 16.662824
_cell_length_c 19.775348
_cell_angle_alpha 90.000000
_cell_angle_beta 148.266752
_cell_angle_gamma 90.000000
_cell_volume 2562.833219
_symmetry_space_group_name_H-M "C 2/C"
_symmetry_group_IT_number 15
_symmetry_cell_setting 'monoclinic'
loop_
_space_group_symop_operation_xyz
x,y,z
-x,y,1/2-z
-x,-y,-z
x,-y,1/2+z
1/2+x,1/2+y,z
1/2-x,1/2+y,1/2-z
1/2-x,1/2-y,-z
1/2+x,1/2-y,1/2+z
loop_
_atom_site_type_symbol
_atom_site_label
_atom_site_fract_x
_atom_site_fract_y
_atom_site_fract_z
Si Si1 0.148572 0.416419 0.456917
Si Si2 0.806916 0.202941 0.145268
Si Si3 0.698912 0.704555 0.209606
Si Si4 0.688505 0.837728 0.869761
Si Si5 0.163879 0.870808 0.045000
Si Si6 0.665226 0.348231 0.397597
Si Si7 0.680730 0.032780 0.588626
Si Si8 0.241649 0.604702 0.759096
O O1 0.187832 0.327450 0.509056
O O2 0.242527 0.429512 0.446589
O O3 0.242142 0.468610 0.573752
O O4 0.944363 0.425168 0.331173
O O5 0.734249 0.177940 0.173258
O O6 0.799946 0.298976 0.143646
O O7 0.000000 0.178064 0.250000
O O8 0.762688 0.670323 0.178217
O O9 0.725570 0.801678 0.225245
O O10 0.504091 0.672749 0.089251
O O11 0.500000 0.877943 0.750000
O O12 0.664843 0.746454 0.882806
O O13 0.815731 0.868226 0.010619
O O14 0.129239 0.904381 0.097087
O O15 0.500000 0.379385 0.250000
O O16 0.827339 0.386541 0.461272
O O17 0.785134 0.051681 0.722180
O O18 0.500000 0.000000 0.500000
#
# Coordination Sequence:
#
# PCOD9280605 Si02
#       8
#     8   8   8   8   8   8   8   8
#     4  11  21  39  57  88 130 176 207 255 321 398
#     4  11  21  34  58  91 132 163 205 264 326 390
#     4  11  21  36  64  95 127 162 207 279 331 388
#     4  10  23  40  68  99 131 167 219 289 347 392
#     4  11  21  35  63  92 129 160 214 270 332 382
#     4  10  22  42  67  96 132 169 227 277 338 398
#     4  10  23  41  63  89 126 177 223 260 318 405
#     4  10  21  37  61  94 124 166 217 263 322 393
#
# _framework density 24.972362
#
# number of rings (size 3 to 8) (size 9 to 14) (size 15 to 20)
#    0.000    1.500    3.750    2.250    1.750    5.500 
#    0.000    3.750    0.000    1.500    0.000    0.000 
#    0.000    0.000    0.000    0.000    0.000    0.000 
#
# Total GULP energy -178606.686945 kJ/mol
# GULP energy per Si atom -5581.458967 kJ/mol
# Density = 2.491552 g / cm^3
# Si number density = 24.972362 Si / 1000 Ang^3
#
#
#
# Elastic Constant Matrix: (Units=GPa)
#
#
# Indices 1 2 3 4 5 6 
#
# 1 128.6823 0.1714 54.9447 0.0002 -38.6591 -0.0004
# 2 0.1714 23.7248 16.1233 0.0000 -9.3796 -0.0008
# 3 54.9447 16.1233 78.0123 -0.0006 -30.9296 -0.0016
# 4 0.0002 0.0000 -0.0006 14.2153 -0.0009 -9.3401
# 5 -38.6591 -9.3796 -30.9296 -0.0009 52.1729 -0.0009
# 6 -0.0004 -0.0008 -0.0016 -9.3401 -0.0009 31.2948
#
#
#
# Elastic Compliance Matrix: (Units=1/GPa)
#
#
# Indices 1 2 3 4 5 6 
#
# 1 0.013304 0.008210 -0.008593 0.000000 0.006240 0.000000
# 2 0.008210 0.054648 -0.014079 0.000001 0.007562 0.000001
# 3 -0.008593 -0.014079 0.023861 0.000003 0.005247 0.000002
# 4 0.000000 0.000001 0.000003 0.087506 0.000004 0.026117
# 5 0.006240 0.007562 0.005247 0.000004 0.028261 0.000002
# 6 0.000000 0.000001 0.000002 0.026117 0.000002 0.039749
#
#
# Mechanical properties :
#
#
# Convention : Reuss Voigt Hill
#
# Bulk Modulus (GPa) = 15.90092 41.43313 28.66703
# Shear Modulus (GPa) = 16.82287 30.14861 23.48574
#
# Velocity S-wave (km/s) = 2.59831 3.47836 3.07003
# Velocity P-wave (km/s) = 3.92210 5.72360 4.90624
#
# Compressibility (1/GPa) = 0.06288942
#
# Stress axis : x y z
#
# Youngs Moduli (GPa) = 75.16715 18.29883 41.91010
#
# Poissons Ratio (x) = -0.15024 0.36013
# Poissons Ratio (y) = -0.61715 0.59006
# Poissons Ratio (z) = 0.64591 0.25763
#
# Static dielectric constant tensor:
#      x y z
#    x 2.002190 0.000000 -0.004630 
#    y 0.000000 2.057190 0.000000 
#    z -0.004630 0.000000 2.036000 
# 
# From -- ./inp_files/206493.got.cif
#   From: 2010.05.17/outbox.cif.g08.bks.cpg/sg15_104_cif.got.tgz:206493.got - 2010.06.03 18:47:42.
