data_PCOD9280977
_publ_section_title
;
Structure prediction by ZEFSAII (Michael W. Deem and Ramdas Pophale) SiO2 
 PCOD9280977
Probable space group: C 2/C
;
_chemical_formula_sum "Si O2"
_cell_formula_units_Z 52
_cell_length_a 20.922803
_cell_length_b 28.827680
_cell_length_c 5.373645
_cell_angle_alpha 90.000000
_cell_angle_beta 49.354925
_cell_angle_gamma 90.000000
_cell_volume 2459.248672
_symmetry_space_group_name_H-M "C 2/C"
_symmetry_group_IT_number 15
_symmetry_cell_setting 'monoclinic'
loop_
_space_group_symop_operation_xyz
x,y,z
-x,y,1/2-z
-x,-y,-z
x,-y,1/2+z
1/2+x,1/2+y,z
1/2-x,1/2+y,1/2-z
1/2-x,1/2-y,-z
1/2+x,1/2-y,1/2+z
loop_
_atom_site_type_symbol
_atom_site_label
_atom_site_fract_x
_atom_site_fract_y
_atom_site_fract_z
Si Si1 0.360444 0.094691 0.781308
Si Si2 0.500000 0.639016 0.750000
Si Si3 0.064890 0.774604 0.388791
Si Si4 0.000000 0.529814 0.250000
Si Si5 0.217877 0.828201 0.098599
Si Si6 0.316566 0.383095 0.814702
Si Si7 0.606965 0.816887 0.612343
Si Si8 0.000000 0.373506 0.250000
O O1 0.416805 0.062059 0.464251
O O2 0.363372 0.147755 0.674281
O O3 0.417875 0.096805 0.882598
O O4 0.261823 0.081790 0.037098
O O5 0.474385 0.676511 0.602258
O O6 0.583139 0.609206 0.474795
O O7 0.152548 0.786701 0.299233
O O8 0.085195 0.736831 0.124061
O O9 0.000000 0.753862 0.750000
O O10 0.000000 0.500000 0.500000
O O11 0.194894 0.865033 0.374030
O O12 0.202185 0.846057 0.858882
O O13 0.314354 0.816104 0.897611
O O14 0.529819 0.841926 0.946103
#
# Coordination Sequence:
#
# PCOD9280977 Si02
#       8
#     8   4   8   4   8   8   8   4
#     4  11  24  41  61  90 119 156 200 238 293 372
#     4  10  22  37  54  82 117 156 208 255 304 325
#     4  11  21  34  50  76 115 158 207 263 299 331
#     4  12  27  43  70  96 130 152 180 232 304 371
#     4  10  21  38  50  81 110 159 206 261 296 334
#     4  10  21  38  63  80 116 156 202 253 293 347
#     4  11  22  34  57  78 113 162 208 244 300 343
#     4  12  19  36  56  80 115 154 200 247 280 356
#
# _framework density 21.144667999999999
#
# number of rings (size 3 to 8) (size 9 to 14) (size 15 to 20)
#    0.000    1.231    5.385    0.923    2.154    0.000 
#    0.000    3.846    0.000    0.000    0.000    1.077 
#    0.000    0.000    0.000    0.308    0.000    0.000 
#
# Total GULP energy -144895.180518 kJ/mol
# GULP energy per Si atom -5572.891558 kJ/mol
# Density = 2.109654 g / cm^3
# Si number density = 21.144668 Si / 1000 Ang^3
#
#
#
# Elastic Constant Matrix: (Units=GPa)
#
#
# Indices 1 2 3 4 5 6 
#
# 1 101.0575 22.8687 27.1821 0.0000 -31.3596 0.0000
# 2 22.8687 43.1544 26.8948 0.0000 -8.5293 0.0000
# 3 27.1821 26.8948 104.9019 0.0000 -26.2917 0.0000
# 4 0.0000 0.0000 0.0000 16.9063 0.0000 11.7412
# 5 -31.3596 -8.5293 -26.2917 0.0000 57.3563 0.0000
# 6 0.0000 0.0000 0.0000 11.7412 0.0000 26.9898
#
#
#
# Elastic Compliance Matrix: (Units=1/GPa)
#
#
# Indices 1 2 3 4 5 6 
#
# 1 0.013175 -0.005473 -0.000463 0.000000 0.006178 0.000000
# 2 -0.005473 0.029901 -0.006647 0.000000 -0.001593 0.000000
# 3 -0.000463 -0.006647 0.012479 0.000000 0.004479 0.000000
# 4 0.000000 0.000000 0.000000 0.084756 0.000000 -0.036871
# 5 0.006178 -0.001593 0.004479 0.000000 0.022629 0.000000
# 6 0.000000 0.000000 0.000000 -0.036871 0.000000 0.053091
#
#
# Mechanical properties :
#
#
# Convention : Reuss Voigt Hill
#
# Bulk Modulus (GPa) = 32.90487 44.77835 38.84161
# Shear Modulus (GPa) = 19.89456 31.72837 25.81146
#
# Velocity S-wave (km/s) = 3.07070 3.87788 3.49765
# Velocity P-wave (km/s) = 5.30734 6.42446 5.89243
#
# Compressibility (1/GPa) = 0.03039063
#
# Stress axis : x y z
#
# Youngs Moduli (GPa) = 75.89997 33.44422 80.13248
#
# Poissons Ratio (x) = 0.18303 0.03707
# Poissons Ratio (y) = 0.41537 0.53264
# Poissons Ratio (z) = 0.03511 0.22230
#
# Static dielectric constant tensor:
#      x y z
#    x 1.856130 0.000000 -0.010320 
#    y 0.000000 1.753900 0.000000 
#    z -0.010320 0.000000 1.833270 
# 
# From -- ./inp_files/11636.got.cif
#   From: 2010.05.17/outbox.cif.g08.bks.cpg/sg15_6_cif.got.tgz:11636.got - 2010.06.03 18:47:42.
