data_PCOD9280885
_publ_section_title
;
Structure prediction by ZEFSAII (Michael W. Deem and Ramdas Pophale) SiO2 
 PCOD9280885
Probable space group: C 2/C
;
_chemical_formula_sum "Si O2"
_cell_formula_units_Z 64
_cell_length_a 26.088092
_cell_length_b 8.721587
_cell_length_c 14.004767
_cell_angle_alpha 90.000000
_cell_angle_beta 55.443150
_cell_angle_gamma 90.000000
_cell_volume 2624.284786
_symmetry_space_group_name_H-M "C 2/C"
_symmetry_group_IT_number 15
_symmetry_cell_setting 'monoclinic'
loop_
_space_group_symop_operation_xyz
x,y,z
-x,y,1/2-z
-x,-y,-z
x,-y,1/2+z
1/2+x,1/2+y,z
1/2-x,1/2+y,1/2-z
1/2-x,1/2-y,-z
1/2+x,1/2-y,1/2+z
loop_
_atom_site_type_symbol
_atom_site_label
_atom_site_fract_x
_atom_site_fract_y
_atom_site_fract_z
Si Si1 0.245291 0.750002 0.269343
Si Si2 0.243925 0.920553 0.463694
Si Si3 0.070587 0.026117 0.456146
Si Si4 0.621391 0.166617 0.937019
Si Si5 0.686480 0.469005 0.206150
Si Si6 0.551885 0.301625 0.634001
Si Si7 0.961272 0.445709 0.131285
Si Si8 0.880514 0.518364 0.870733
O O1 0.233775 0.878443 0.363905
O O2 0.308864 0.776761 0.144915
O O3 0.259864 0.586832 0.306247
O O4 0.195616 0.798791 0.241026
O O5 0.250000 0.750000 0.500000
O O6 0.310974 0.999672 0.406979
O O7 0.195736 0.012387 0.582513
O O8 0.119749 0.023068 0.317142
O O9 0.085818 0.898802 0.518529
O O10 0.076843 0.189626 0.499837
O O11 0.000000 0.000000 0.500000
O O12 0.601995 0.108731 0.853033
O O13 0.614809 0.046719 0.028098
O O14 0.500000 0.393546 0.750000
O O15 0.505561 0.181014 0.631215
O O16 0.601152 0.199274 0.640100
O O17 0.934167 0.548743 0.245084
O O18 0.000000 0.500000 0.000000
#
# Coordination Sequence:
#
# PCOD9280885 Si02
#       8
#     8   8   8   8   8   8   8   8
#     4  10  21  41  65  92 127 167 210 268 319 379
#     4  10  21  37  65  96 123 163 215 260 322 384
#     4  11  24  43  62  90 136 177 212 265 331 392
#     4  11  21  39  67  92 129 167 214 272 326 381
#     4  10  23  39  66  94 127 167 220 263 321 385
#     4  10  23  39  62  91 125 173 222 259 315 399
#     4  11  21  39  63  95 126 164 219 269 316 385
#     4  11  22  39  68  95 124 167 219 272 320 383
#
# _framework density 24.387597
#
# number of rings (size 3 to 8) (size 9 to 14) (size 15 to 20)
#    0.000    1.500    5.000    0.000    3.500    0.000 
#    2.250    0.625    2.750    0.000    0.000    0.000 
#    0.000    0.000    0.000    0.000    0.000    0.000 
#
# Total GULP energy -178639.634298 kJ/mol
# GULP energy per Si atom -5582.488572 kJ/mol
# Density = 2.433209 g / cm^3
# Si number density = 24.387597 Si / 1000 Ang^3
#
#
#
# Elastic Constant Matrix: (Units=GPa)
#
#
# Indices 1 2 3 4 5 6 
#
# 1 53.5640 10.3389 18.7667 0.0000 -5.2260 0.0000
# 2 10.3389 26.2216 24.1591 0.0000 -4.7499 0.0000
# 3 18.7667 24.1591 150.8897 0.0000 2.8696 0.0000
# 4 0.0000 0.0000 0.0000 35.3868 0.0000 1.8970
# 5 -5.2260 -4.7499 2.8696 0.0000 32.0526 0.0000
# 6 0.0000 0.0000 0.0000 1.8970 0.0000 22.1525
#
#
#
# Elastic Compliance Matrix: (Units=1/GPa)
#
#
# Indices 1 2 3 4 5 6 
#
# 1 0.020688 -0.006181 -0.001633 0.000000 0.002603 0.000000
# 2 -0.006181 0.048347 -0.007101 0.000000 0.006792 0.000000
# 3 -0.001633 -0.007101 0.008006 0.000000 -0.002035 0.000000
# 4 0.000000 0.000000 0.000000 0.028389 0.000000 -0.002431
# 5 0.002603 0.006792 -0.002035 0.000000 0.032812 0.000000
# 6 0.000000 0.000000 0.000000 -0.002431 0.000000 0.045350
#
#
# Mechanical properties :
#
#
# Convention : Reuss Voigt Hill
#
# Bulk Modulus (GPa) = 21.18163 37.46719 29.32441
# Shear Modulus (GPa) = 21.81878 29.74575 25.78227
#
# Velocity S-wave (km/s) = 2.99434 3.49622 3.25497
# Velocity P-wave (km/s) = 4.54522 5.62980 5.11633
#
# Compressibility (1/GPa) = 0.04721072
#
# Stress axis : x y z
#
# Youngs Moduli (GPa) = 48.33611 20.68388 124.90392
#
# Poissons Ratio (x) = 0.12785 0.20396
# Poissons Ratio (y) = 0.29877 0.88698
# Poissons Ratio (z) = 0.07893 0.14688
#
# Static dielectric constant tensor:
#      x y z
#    x 1.801780 0.000000 0.020170 
#    y 0.000000 2.002800 0.000000 
#    z 0.020170 0.000000 2.006340 
# 
# From -- ./inp_files/181143.got.cif
#   From: 2010.05.17/outbox.cif.g08.bks.cpg/sg15_91_cif.got.tgz:181143.got - 2010.06.03 18:47:42.
