data_PCOD9280086
_publ_section_title
;
Structure prediction by ZEFSAII (Michael W. Deem and Ramdas Pophale) SiO2 
 PCOD9280086
Probable space group: C 2/C
;
_chemical_formula_sum "Si O2"
_cell_formula_units_Z 56
_cell_length_a 12.457875
_cell_length_b 25.780037
_cell_length_c 8.407201
_cell_angle_alpha 90.000000
_cell_angle_beta 67.144671
_cell_angle_gamma 90.000000
_cell_volume 2488.105891
_symmetry_space_group_name_H-M "C 2/C"
_symmetry_group_IT_number 15
_symmetry_cell_setting 'monoclinic'
loop_
_space_group_symop_operation_xyz
x,y,z
-x,y,1/2-z
-x,-y,-z
x,-y,1/2+z
1/2+x,1/2+y,z
1/2-x,1/2+y,1/2-z
1/2-x,1/2-y,-z
1/2+x,1/2-y,1/2+z
loop_
_atom_site_type_symbol
_atom_site_label
_atom_site_fract_x
_atom_site_fract_y
_atom_site_fract_z
Si Si1 0.407765 0.545965 0.028051
Si Si2 0.688774 0.897371 0.255934
Si Si3 0.739806 0.468043 0.577326
Si Si4 0.080970 0.861984 0.316822
Si Si5 0.532974 0.922150 0.914344
Si Si6 0.361783 0.821422 0.496695
Si Si7 0.609513 0.293446 0.598031
O O1 0.343302 0.554073 0.234594
O O2 0.500000 0.500000 0.000000
O O3 0.315523 0.521726 0.953960
O O4 0.487952 0.593559 0.922998
O O5 0.792635 0.880784 0.314067
O O6 0.581493 0.922330 0.409734
O O7 0.750349 0.934604 0.090258
O O8 0.639848 0.851211 0.172588
O O9 0.868907 0.462052 0.578074
O O10 0.120457 0.827329 0.437306
O O11 0.000000 0.828347 0.250000
O O12 0.500000 0.930898 0.750000
O O13 0.586828 0.864038 0.912472
O O14 0.417833 0.765531 0.435559
O O15 0.230369 0.803462 0.619052
O O16 0.500000 0.315647 0.750000
#
# Coordination Sequence:
#
# PCOD9280086 Si02
#       7
#     8   8   8   8   8   8   8
#     4  12  25  43  69  98 132 170 220 278 345 400
#     4  10  22  44  69  94 135 179 222 274 337 405
#     4  11  25  44  70  95 128 178 220 279 339 401
#     4  11  25  38  65  97 138 171 216 283 344 396
#     4  11  25  44  70  97 133 183 231 279 333 404
#     4   9  20  41  64  98 137 181 219 273 340 400
#     4  10  21  36  66 101 134 175 228 272 332 419
#
# _framework density 22.507082
#
# number of rings (size 3 to 8) (size 9 to 14) (size 15 to 20)
#    0.000    1.429    1.429    3.857    8.000    0.571 
#    0.000    5.000    0.000    6.857    0.000    0.000 
#    0.000    0.000    0.000    0.000    0.000    0.000 
#
# Total GULP energy -156277.758983 kJ/mol
# GULP energy per Si atom -5581.348535 kJ/mol
# Density = 2.245585 g / cm^3
# Si number density = 22.507082 Si / 1000 Ang^3
#
#
#
# Elastic Constant Matrix: (Units=GPa)
#
#
# Indices 1 2 3 4 5 6 
#
# 1 136.1856 11.6336 26.8957 0.0000 -2.8608 0.0000
# 2 11.6336 91.4946 -8.7533 0.0000 -1.3705 0.0000
# 3 26.8957 -8.7533 83.7504 0.0000 -24.1951 0.0000
# 4 0.0000 0.0000 0.0000 19.8101 0.0000 -3.7910
# 5 -2.8608 -1.3705 -24.1951 0.0000 40.9532 0.0000
# 6 0.0000 0.0000 0.0000 -3.7910 0.0000 40.7441
#
#
#
# Elastic Compliance Matrix: (Units=1/GPa)
#
#
# Indices 1 2 3 4 5 6 
#
# 1 0.008042 -0.001339 -0.003103 0.000000 -0.001316 0.000000
# 2 -0.001339 0.011318 0.002044 0.000000 0.001493 0.000000
# 3 -0.003103 0.002044 0.015805 0.000000 0.009189 0.000000
# 4 0.000000 0.000000 0.000000 0.051395 0.000000 0.004782
# 5 -0.001316 0.001493 0.009189 0.000000 0.029805 0.000000
# 6 0.000000 0.000000 0.000000 0.004782 0.000000 0.024988
#
#
# Mechanical properties :
#
#
# Convention : Reuss Voigt Hill
#
# Bulk Modulus (GPa) = 32.92761 41.22028 37.07394
# Shear Modulus (GPa) = 31.99537 39.07845 35.53691
#
# Velocity S-wave (km/s) = 3.77446 4.17138 3.97788
# Velocity P-wave (km/s) = 5.80147 6.44629 6.13236
#
# Compressibility (1/GPa) = 0.03036965
#
# Stress axis : x y z
#
# Youngs Moduli (GPa) = 124.33965 88.35626 63.27048
#
# Poissons Ratio (x) = 0.11833 0.19633
# Poissons Ratio (y) = 0.16651 -0.12934
# Poissons Ratio (z) = 0.38583 -0.18062
#
# Static dielectric constant tensor:
#      x y z
#    x 1.956160 0.000000 0.011460 
#    y 0.000000 1.877100 0.000000 
#    z 0.011460 0.000000 1.886390 
# 
# From -- ./inp_files/34176.got.cif
#   From: 2010.05.17/outbox.cif.g08.bks.cpg/sg15_18_cif.got.tgz:34176.got - 2010.06.03 18:47:42.
