data_PCOD9280575
_publ_section_title
;
Structure prediction by ZEFSAII (Michael W. Deem and Ramdas Pophale) SiO2 
 PCOD9280575
Probable space group: C 2/C
;
_chemical_formula_sum "Si O2"
_cell_formula_units_Z 60
_cell_length_a 24.074060
_cell_length_b 6.995836
_cell_length_c 20.890919
_cell_angle_alpha 90.000000
_cell_angle_beta 137.778417
_cell_angle_gamma 90.000000
_cell_volume 2364.370420
_symmetry_space_group_name_H-M "C 2/C"
_symmetry_group_IT_number 15
_symmetry_cell_setting 'monoclinic'
loop_
_space_group_symop_operation_xyz
x,y,z
-x,y,1/2-z
-x,-y,-z
x,-y,1/2+z
1/2+x,1/2+y,z
1/2-x,1/2+y,1/2-z
1/2-x,1/2-y,-z
1/2+x,1/2-y,1/2+z
loop_
_atom_site_type_symbol
_atom_site_label
_atom_site_fract_x
_atom_site_fract_y
_atom_site_fract_z
Si Si1 0.500000 0.734470 0.750000
Si Si2 0.839367 0.237841 0.318645
Si Si3 0.862317 0.963709 0.525042
Si Si4 0.665244 0.430924 0.358961
Si Si5 0.304639 0.860103 0.158777
Si Si6 0.840256 0.798383 0.278479
Si Si7 0.479877 0.326227 0.031329
Si Si8 0.923497 0.596402 0.647934
O O1 0.433115 0.600882 0.725033
O O2 0.460286 0.887046 0.665510
O O3 0.849655 0.370964 0.264901
O O4 0.742519 0.240823 0.254822
O O5 0.905632 0.285234 0.430579
O O6 0.852702 0.023894 0.304180
O O7 0.787823 0.932380 0.412988
O O8 0.891258 0.751012 0.570990
O O9 0.822944 0.069553 0.553975
O O10 0.935626 0.075811 0.554308
O O11 0.697806 0.637166 0.365283
O O12 0.687337 0.288499 0.320082
O O13 0.354145 0.946832 0.141631
O O14 0.932595 0.727107 0.376583
O O15 0.500000 0.500000 0.000000
O O16 0.000000 0.693695 0.750000
#
# Coordination Sequence:
#
# PCOD9280575 Si02
#       8
#     4   8   8   8   8   8   8   8
#     4  10  22  34  54  96 130 168 198 264 344 388
#     4  10  22  42  64  94 131 170 225 283 333 401
#     4  11  22  41  67  95 124 178 231 271 328 412
#     4  10  21  37  61  89 132 169 211 274 337 394
#     4  10  21  40  65  90 126 176 227 272 326 403
#     4  10  22  41  64  93 130 177 222 274 338 405
#     4  10  22  37  66  95 124 171 228 271 336 399
#     4   9  22  36  61  95 130 168 221 266 329 397
#
# _framework density 25.376736000000001
#
# number of rings (size 3 to 8) (size 9 to 14) (size 15 to 20)
#    0.400    1.600    0.000    4.000   11.200    2.133 
#    0.000   12.000    0.000    0.000    0.000    2.800 
#    0.000    0.000    0.000    0.000    0.000    0.000 
#
# Total GULP energy -167385.461617 kJ/mol
# GULP energy per Si atom -5579.515387 kJ/mol
# Density = 2.531898 g / cm^3
# Si number density = 25.376736 Si / 1000 Ang^3
#
#
#
# Elastic Constant Matrix: (Units=GPa)
#
#
# Indices 1 2 3 4 5 6 
#
# 1 97.7027 15.0948 49.7733 0.0000 -4.4746 0.0000
# 2 15.0948 70.8301 57.3493 0.0002 7.8764 0.0003
# 3 49.7733 57.3493 158.0286 0.0000 10.7071 0.0000
# 4 0.0000 0.0002 0.0000 35.9933 0.0000 9.5982
# 5 -4.4746 7.8764 10.7071 0.0000 44.1785 0.0000
# 6 0.0000 0.0003 0.0000 9.5982 0.0000 20.5567
#
#
#
# Elastic Compliance Matrix: (Units=1/GPa)
#
#
# Indices 1 2 3 4 5 6 
#
# 1 0.012421 0.000562 -0.004265 0.000000 0.002191 0.000000
# 2 0.000562 0.020166 -0.007377 0.000000 -0.001751 0.000000
# 3 -0.004265 -0.007377 0.010460 0.000000 -0.001652 0.000000
# 4 0.000000 0.000000 0.000000 0.031734 0.000000 -0.014817
# 5 0.002191 -0.001751 -0.001652 0.000000 0.023570 0.000000
# 6 0.000000 0.000000 0.000000 -0.014817 0.000000 0.055564
#
#
# Mechanical properties :
#
#
# Convention : Reuss Voigt Hill
#
# Bulk Modulus (GPa) = 47.87261 63.44403 55.65832
# Shear Modulus (GPa) = 27.31685 33.76863 30.54274
#
# Velocity S-wave (km/s) = 3.28449 3.65182 3.47302
# Velocity P-wave (km/s) = 5.76971 6.54494 6.16951
#
# Compressibility (1/GPa) = 0.02088877
#
# Stress axis : x y z
#
# Youngs Moduli (GPa) = 80.50711 49.58862 95.60039
#
# Poissons Ratio (x) = -0.02788 0.40771
# Poissons Ratio (y) = -0.04526 0.70522
# Poissons Ratio (z) = 0.34334 0.36580
#
# Static dielectric constant tensor:
#      x y z
#    x 2.054900 0.000000 -0.048280 
#    y 0.000000 2.054740 0.000000 
#    z -0.048280 0.000000 2.076930 
# 
# From -- ./inp_files/255202.got.cif
#   From: 2010.05.17/outbox.cif.g08.bks.cpg/sg15_128_cif.got.tgz:255202.got - 2010.06.03 18:47:42.
