data_PCOD9280222
_publ_section_title
;
Structure prediction by ZEFSAII (Michael W. Deem and Ramdas Pophale) SiO2 
 PCOD9280222
Probable space group: C 2/C
;
_chemical_formula_sum "Si O2"
_cell_formula_units_Z 52
_cell_length_a 11.225476
_cell_length_b 24.523190
_cell_length_c 12.811839
_cell_angle_alpha 90.000000
_cell_angle_beta 45.400626
_cell_angle_gamma 90.000000
_cell_volume 2511.272037
_symmetry_space_group_name_H-M "C 2/C"
_symmetry_group_IT_number 15
_symmetry_cell_setting 'monoclinic'
loop_
_space_group_symop_operation_xyz
x,y,z
-x,y,1/2-z
-x,-y,-z
x,-y,1/2+z
1/2+x,1/2+y,z
1/2-x,1/2+y,1/2-z
1/2-x,1/2-y,-z
1/2+x,1/2-y,1/2+z
loop_
_atom_site_type_symbol
_atom_site_label
_atom_site_fract_x
_atom_site_fract_y
_atom_site_fract_z
Si Si1 0.500000 0.942555 0.250000
Si Si2 0.916763 0.726545 0.692134
Si Si3 0.154446 0.431692 0.838499
Si Si4 0.189933 0.523307 0.974168
Si Si5 0.203769 0.138980 0.890283
Si Si6 0.081558 0.055668 0.494779
Si Si7 0.240113 0.676925 0.406397
O O1 0.642463 0.903844 0.209150
O O2 0.596550 0.980289 0.108590
O O3 0.756264 0.687845 0.780898
O O4 0.856712 0.787015 0.758665
O O5 0.000000 0.707698 0.750000
O O6 0.067725 0.712029 0.522229
O O7 0.246141 0.431193 0.672060
O O8 0.210647 0.381175 0.873126
O O9 0.954062 0.432479 0.956373
O O10 0.214890 0.487941 0.855323
O O11 0.355838 0.544843 0.926563
O O12 0.194820 0.163158 0.015297
O O13 0.043216 0.105089 0.953342
O O14 0.000000 0.000000 0.500000
#
# Coordination Sequence:
#
# PCOD9280222 Si02
#       7
#     4   8   8   8   8   8   8
#     4  12  16  40  54  78 124 156 194 232 308 358
#     4  10  21  37  56  86 120 152 196 257 307 360
#     4  11  23  38  64  84 124 167 204 242 304 369
#     4  11  22  40  59  87 122 165 199 245 295 370
#     4  11  20  34  59  83 123 159 190 249 308 364
#     4  12  23  36  57  94 125 158 200 253 294 358
#     4  11  22  37  59  91 115 158 204 249 314 362
#
# _framework density 20.706638000000002
#
# number of rings (size 3 to 8) (size 9 to 14) (size 15 to 20)
#    0.000    0.923    6.923    1.846    4.308    3.077 
#    0.000    0.000    0.000    0.923    0.000    0.000 
#    0.000    0.000    0.000    0.000    0.000    0.000 
#
# Total GULP energy -145170.717952 kJ/mol
# GULP energy per Si atom -5583.489152 kJ/mol
# Density = 2.065951 g / cm^3
# Si number density = 20.706638 Si / 1000 Ang^3
#
#
#
# Elastic Constant Matrix: (Units=GPa)
#
#
# Indices 1 2 3 4 5 6 
#
# 1 95.5963 34.8279 19.0973 0.0000 -21.6759 0.0000
# 2 34.8279 86.3027 37.2486 0.0000 -25.5896 0.0000
# 3 19.0973 37.2486 78.4425 0.0000 -11.4668 0.0000
# 4 0.0000 0.0000 0.0000 37.3742 0.0000 -15.6240
# 5 -21.6759 -25.5896 -11.4668 0.0000 17.1801 0.0000
# 6 0.0000 0.0000 0.0000 -15.6240 0.0000 29.6607
#
#
#
# Elastic Compliance Matrix: (Units=1/GPa)
#
#
# Indices 1 2 3 4 5 6 
#
# 1 0.014725 -0.000424 -0.000842 0.000000 0.017385 0.000000
# 2 -0.000424 0.023574 -0.006689 0.000000 0.030114 0.000000
# 3 -0.000842 -0.006689 0.016087 0.000000 -0.000288 0.000000
# 4 0.000000 0.000000 0.000000 0.034312 0.000000 0.018074
# 5 0.017385 0.030114 -0.000288 0.000000 0.124803 0.000000
# 6 0.000000 0.000000 0.000000 0.018074 0.000000 0.043235
#
#
# Mechanical properties :
#
#
# Convention : Reuss Voigt Hill
#
# Bulk Modulus (GPa) = 25.99010 49.18768 37.58889
# Shear Modulus (GPa) = 17.51474 28.12084 22.81779
#
# Velocity S-wave (km/s) = 2.91151 3.68918 3.32317
# Velocity P-wave (km/s) = 4.88685 6.47710 5.73734
#
# Compressibility (1/GPa) = 0.03847618
#
# Stress axis : x y z
#
# Youngs Moduli (GPa) = 67.91005 42.41885 62.16051
#
# Poissons Ratio (x) = 0.01800 0.05235
# Poissons Ratio (y) = 0.02881 0.41579
# Poissons Ratio (z) = 0.05719 0.28374
#
# Static dielectric constant tensor:
#      x y z
#    x 1.745500 0.000000 -0.020720 
#    y 0.000000 1.771910 0.000000 
#    z -0.020720 0.000000 1.824790 
# 
# From -- ./inp_files/148029.got.cif
#   From: 2010.05.17/outbox.cif.g08.bks.cpg/sg15_75_cif.got.tgz:148029.got - 2010.06.03 18:47:42.
