data_PCOD9280093
_publ_section_title
;
Structure prediction by ZEFSAII (Michael W. Deem and Ramdas Pophale) SiO2 
 PCOD9280093
Probable space group: C 2/C
;
_chemical_formula_sum "Si O2"
_cell_formula_units_Z 48
_cell_length_a 18.648748
_cell_length_b 14.547053
_cell_length_c 9.536992
_cell_angle_alpha 90.000000
_cell_angle_beta 81.172752
_cell_angle_gamma 90.000000
_cell_volume 2556.591958
_symmetry_space_group_name_H-M "C 2/C"
_symmetry_group_IT_number 15
_symmetry_cell_setting 'monoclinic'
loop_
_space_group_symop_operation_xyz
x,y,z
-x,y,1/2-z
-x,-y,-z
x,-y,1/2+z
1/2+x,1/2+y,z
1/2-x,1/2+y,1/2-z
1/2-x,1/2-y,-z
1/2+x,1/2-y,1/2+z
loop_
_atom_site_type_symbol
_atom_site_label
_atom_site_fract_x
_atom_site_fract_y
_atom_site_fract_z
Si Si1 0.906509 0.567406 0.032107
Si Si2 0.961379 0.057681 0.626063
Si Si3 0.841696 0.704356 0.251154
Si Si4 0.500000 0.265479 0.250000
Si Si5 0.702824 0.586519 0.758939
Si Si6 0.500000 0.973262 0.250000
Si Si7 0.721072 0.956471 0.548057
O O1 0.859412 0.652873 0.100022
O O2 0.953337 0.535167 0.154047
O O3 0.853206 0.485025 0.006085
O O4 0.952656 0.583897 0.876851
O O5 0.983721 0.165436 0.625134
O O6 0.875841 0.051782 0.667616
O O7 0.000000 0.018427 0.750000
O O8 0.000000 0.000000 0.500000
O O9 0.803873 0.802715 0.240432
O O10 0.793699 0.635982 0.359642
O O11 0.922514 0.717570 0.295239
O O12 0.757945 0.537660 0.849897
O O13 0.721434 0.556971 0.594266
#
# Coordination Sequence:
#
# PCOD9280093 Si02
#       7
#     8   8   8   4   8   4   8
#     4  11  21  39  63  94 127 172 212 264 318 383
#     4   9  18  38  65  87 117 159 211 265 313 365
#     4  11  22  41  66  92 130 168 221 261 316 387
#     4   8  21  36  62  95 116 164 213 262 316 367
#     4  11  24  40  66  93 129 169 216 261 323 389
#     4  10  21  36  66  93 126 172 215 260 324 373
#     4  12  23  42  62  96 129 176 208 261 331 385
#
# _framework density 18.774994
#
# number of rings (size 3 to 8) (size 9 to 14) (size 15 to 20)
#    0.500    1.000    3.333    2.000    2.333    0.667 
#    0.000    0.000   14.667    0.000    0.000    0.000 
#    0.000    0.000    0.000    0.000    0.000    0.000 
#
# Total GULP energy -133606.736160 kJ/mol
# GULP energy per Si atom -5566.947340 kJ/mol
# Density = 1.873226 g / cm^3
# Si number density = 18.774994 Si / 1000 Ang^3
#
#
#
# Elastic Constant Matrix: (Units=GPa)
#
#
# Indices 1 2 3 4 5 6 
#
# 1 61.4819 35.9545 35.0187 0.0000 -2.2271 0.0000
# 2 35.9545 89.6891 58.0612 0.0000 -8.0997 0.0000
# 3 35.0187 58.0612 139.6761 0.0000 -17.4166 0.0000
# 4 0.0000 0.0000 0.0000 22.0673 0.0000 -3.9508
# 5 -2.2271 -8.0997 -17.4166 0.0000 38.9947 0.0000
# 6 0.0000 0.0000 0.0000 -3.9508 0.0000 31.6203
#
#
#
# Elastic Compliance Matrix: (Units=1/GPa)
#
#
# Indices 1 2 3 4 5 6 
#
# 1 0.021950 -0.007184 -0.002697 0.000000 -0.001443 0.000000
# 2 -0.007184 0.017610 -0.005416 0.000000 0.000829 0.000000
# 3 -0.002697 -0.005416 0.010513 0.000000 0.003417 0.000000
# 4 0.000000 0.000000 0.000000 0.046353 0.000000 0.005792
# 5 -0.001443 0.000829 0.003417 0.000000 0.027260 0.000000
# 6 0.000000 0.000000 0.000000 0.005792 0.000000 0.032349
#
#
# Mechanical properties :
#
#
# Convention : Reuss Voigt Hill
#
# Bulk Modulus (GPa) = 51.33487 60.99064 56.16276
# Shear Modulus (GPa) = 25.89048 29.32398 27.60723
#
# Velocity S-wave (km/s) = 3.71750 3.95633 3.83877
# Velocity P-wave (km/s) = 6.76963 7.30928 7.04463
#
# Compressibility (1/GPa) = 0.01947993
#
# Stress axis : x y z
#
# Youngs Moduli (GPa) = 45.55862 56.78489 95.12097
#
# Poissons Ratio (x) = 0.40792 0.25653
# Poissons Ratio (y) = 0.32728 0.51517
# Poissons Ratio (z) = 0.12287 0.30755
#
# Static dielectric constant tensor:
#      x y z
#    x 2.275930 0.000000 -0.216730 
#    y 0.000000 1.692940 0.000000 
#    z -0.216730 0.000000 1.718070 
# 
# From -- ./inp_files/47495.got.cif
#   From: 2010.05.17/outbox.cif.g08.bks.cpg/sg15_24_cif.got.tgz:47495.got - 2010.06.03 18:47:42.
