data_PCOD9280019
_publ_section_title
;
Structure prediction by ZEFSAII (Michael W. Deem and Ramdas Pophale) SiO2 
 PCOD9280019
Probable space group: C 2/C
;
_chemical_formula_sum "Si O2"
_cell_formula_units_Z 40
_cell_length_a 18.310892
_cell_length_b 9.561261
_cell_length_c 28.309417
_cell_angle_alpha 90.000000
_cell_angle_beta 23.914113
_cell_angle_gamma 90.000000
_cell_volume 2009.110146
_symmetry_space_group_name_H-M "C 2/C"
_symmetry_group_IT_number 15
_symmetry_cell_setting 'monoclinic'
loop_
_space_group_symop_operation_xyz
x,y,z
-x,y,1/2-z
-x,-y,-z
x,-y,1/2+z
1/2+x,1/2+y,z
1/2-x,1/2+y,1/2-z
1/2-x,1/2-y,-z
1/2+x,1/2-y,1/2+z
loop_
_atom_site_type_symbol
_atom_site_label
_atom_site_fract_x
_atom_site_fract_y
_atom_site_fract_z
Si Si1 0.379751 0.561815 0.206295
Si Si2 0.276636 0.982310 0.980199
Si Si3 0.695720 0.266333 0.110760
Si Si4 0.631701 0.122547 0.906572
Si Si5 0.370471 0.135928 0.697883
O O1 0.594170 0.566660 0.077668
O O2 0.319399 0.458455 0.284101
O O3 0.305165 0.717701 0.257631
O O4 0.280686 0.483615 0.221012
O O5 0.247285 0.896811 0.046492
O O6 0.295708 0.868094 0.927720
O O7 0.456820 0.072745 0.878521
O O8 0.500000 0.274425 0.250000
O O9 0.835535 0.268204 0.071580
O O10 0.575509 0.176638 0.888291
O O11 0.500000 0.000000 0.000000
#
# Coordination Sequence:
#
# PCOD9280019 Si02
#       5
#     8   8   8   8   8
#     4  10  23  40  64  92 128 170 213 268 323 386
#     4  11  23  38  67  92 132 170 212 269 327 383
#     4  11  21  38  64  95 122 166 221 260 323 388
#     4  10  21  36  63  91 126 165 216 263 315 395
#     4  10  23  40  64  93 128 167 220 263 325 386
#
# _framework density 19.909312
#
# number of rings (size 3 to 8) (size 9 to 14) (size 15 to 20)
#    1.200    0.400    4.000    0.600   11.200    0.000 
#    0.000    3.000    0.000    0.000    0.000    0.000 
#    0.000    0.000    0.000    0.000    0.000    0.000 
#
# Total GULP energy -111405.527568 kJ/mol
# GULP energy per Si atom -5570.276378 kJ/mol
# Density = 1.986400 g / cm^3
# Si number density = 19.909312 Si / 1000 Ang^3
#
#
#
# Elastic Constant Matrix: (Units=GPa)
#
#
# Indices 1 2 3 4 5 6 
#
# 1 81.8062 20.4366 16.4753 0.0014 -19.3323 0.0002
# 2 20.4366 76.1770 -2.1281 0.0016 -16.4242 0.0013
# 3 16.4753 -2.1281 27.5834 -0.0023 -11.7274 0.0032
# 4 0.0014 0.0016 -0.0023 22.2738 0.0002 -7.4223
# 5 -19.3323 -16.4242 -11.7274 0.0002 40.0401 -0.0002
# 6 0.0002 0.0013 0.0032 -7.4223 -0.0002 29.7120
#
#
#
# Elastic Compliance Matrix: (Units=1/GPa)
#
#
# Indices 1 2 3 4 5 6 
#
# 1 0.015621 -0.003616 -0.008034 -0.000001 0.003706 0.000001
# 2 -0.003616 0.015664 0.006120 -0.000001 0.006472 -0.000001
# 3 -0.008034 0.006120 0.046766 0.000003 0.012329 -0.000004
# 4 -0.000001 -0.000001 0.000003 0.048973 0.000000 0.012234
# 5 0.003706 0.006472 0.012329 0.000000 0.033030 -0.000001
# 6 0.000001 -0.000001 -0.000004 0.012234 -0.000001 0.036713
#
#
# Mechanical properties :
#
#
# Convention : Reuss Voigt Hill
#
# Bulk Modulus (GPa) = 14.92742 28.34823 21.63782
# Shear Modulus (GPa) = 21.72438 28.45738 25.09088
#
# Velocity S-wave (km/s) = 3.30687 3.78478 3.55386
# Velocity P-wave (km/s) = 4.70047 5.77659 5.26609
#
# Compressibility (1/GPa) = 0.06699084
#
# Stress axis : x y z
#
# Youngs Moduli (GPa) = 64.01592 63.84158 21.38305
#
# Poissons Ratio (x) = 0.23087 0.17179
# Poissons Ratio (y) = 0.23150 -0.13086
# Poissons Ratio (z) = 0.51429 -0.39070
#
# Static dielectric constant tensor:
#      x y z
#    x 1.721930 0.000000 0.001700 
#    y 0.000000 1.701610 0.000000 
#    z 0.001700 0.000000 1.724160 
# 
# From -- ./inp_files/315294.got.cif
#   From: 2010.05.17/outbox.cif.g08.bks.cpg/sg15_158_cif.got.tgz:315294.got - 2010.06.03 18:47:42.
