data_PCOD9280913
_publ_section_title
;
Structure prediction by ZEFSAII (Michael W. Deem and Ramdas Pophale) SiO2 
 PCOD9280913
Probable space group: C 2/C
;
_chemical_formula_sum "Si O2"
_cell_formula_units_Z 56
_cell_length_a 10.126873
_cell_length_b 15.883780
_cell_length_c 22.500947
_cell_angle_alpha 90.000000
_cell_angle_beta 140.429847
_cell_angle_gamma 90.000000
_cell_volume 2305.604494
_symmetry_space_group_name_H-M "C 2/C"
_symmetry_group_IT_number 15
_symmetry_cell_setting 'monoclinic'
loop_
_space_group_symop_operation_xyz
x,y,z
-x,y,1/2-z
-x,-y,-z
x,-y,1/2+z
1/2+x,1/2+y,z
1/2-x,1/2+y,1/2-z
1/2-x,1/2-y,-z
1/2+x,1/2-y,1/2+z
loop_
_atom_site_type_symbol
_atom_site_label
_atom_site_fract_x
_atom_site_fract_y
_atom_site_fract_z
Si Si1 0.740333 0.332310 0.942690
Si Si2 0.168874 0.651543 0.896258
Si Si3 0.085647 0.323188 0.891396
Si Si4 0.034420 0.919436 0.472743
Si Si5 0.905050 0.009402 0.629304
Si Si6 0.702955 0.172215 0.570980
Si Si7 0.104918 0.491302 0.720214
O O1 0.619090 0.250772 0.876171
O O2 0.688884 0.418205 0.890660
O O3 0.694063 0.351796 0.995731
O O4 0.987527 0.313825 0.030679
O O5 0.316871 0.627934 0.891870
O O6 0.006029 0.575773 0.843200
O O7 0.091269 0.231520 0.863232
O O8 0.937177 0.399421 0.823072
O O9 0.306705 0.355845 0.943403
O O10 0.108421 0.317355 0.970476
O O11 0.148425 0.954691 0.454714
O O12 0.000000 0.000000 0.500000
O O13 0.793454 0.083373 0.626553
O O14 0.151385 0.004101 0.706625
O O15 0.000000 0.484034 0.750000
#
# Coordination Sequence:
#
# PCOD9280913 Si02
#       7
#     8   8   8   8   8   8   8
#     4  11  23  40  65  93 123 165 220 273 307 365
#     4  11  22  37  65  95 123 159 221 269 314 361
#     4  10  21  37  66  92 117 164 222 262 310 375
#     4  11  16  36  63  88 116 158 217 271 295 354
#     4  11  23  37  59  91 129 169 204 252 324 391
#     4  10  22  41  65  88 123 169 221 263 313 372
#     4  12  24  39  64  96 133 163 202 262 329 389
#
# _framework density 24.288640999999998
#
# number of rings (size 3 to 8) (size 9 to 14) (size 15 to 20)
#    0.000    1.143    5.714    1.286    0.000    1.143 
#    0.000    2.857    0.000    0.000    0.000    0.000 
#    0.000    0.000    0.000    0.000    0.000    0.000 
#
# Total GULP energy -155907.639653 kJ/mol
# GULP energy per Si atom -5568.129988 kJ/mol
# Density = 2.423336 g / cm^3
# Si number density = 24.288641 Si / 1000 Ang^3
#
#
#
# Elastic Constant Matrix: (Units=GPa)
#
#
# Indices 1 2 3 4 5 6 
#
# 1 65.6621 5.3394 1.8598 0.0000 8.9299 0.0000
# 2 5.3394 191.8209 29.7868 0.0000 6.7632 0.0000
# 3 1.8598 29.7868 28.8426 0.0000 15.1691 0.0000
# 4 0.0000 0.0000 0.0000 23.1364 0.0000 5.7951
# 5 8.9299 6.7632 15.1691 0.0000 31.4816 0.0000
# 6 0.0000 0.0000 0.0000 5.7951 0.0000 29.3536
#
#
#
# Elastic Compliance Matrix: (Units=1/GPa)
#
#
# Indices 1 2 3 4 5 6 
#
# 1 0.015977 -0.000652 0.002615 0.000000 -0.005652 0.000000
# 2 -0.000652 0.006368 -0.007919 0.000000 0.002633 0.000000
# 3 0.002615 -0.007919 0.056492 0.000000 -0.026261 0.000000
# 4 0.000000 0.000000 0.000000 0.045470 0.000000 -0.008977
# 5 -0.005652 0.002633 -0.026261 0.000000 0.045456 0.000000
# 6 0.000000 0.000000 0.000000 -0.008977 0.000000 0.035840
#
#
# Mechanical properties :
#
#
# Convention : Reuss Voigt Hill
#
# Bulk Modulus (GPa) = 14.94176 40.03306 27.48741
# Shear Modulus (GPa) = 20.84872 33.41697 27.13285
#
# Velocity S-wave (km/s) = 2.93298 3.71324 3.34593
# Velocity P-wave (km/s) = 4.19940 5.90781 5.12529
#
# Compressibility (1/GPa) = 0.06692650
#
# Stress axis : x y z
#
# Youngs Moduli (GPa) = 62.58961 157.02909 17.70161
#
# Poissons Ratio (x) = 0.10232 -0.04630
# Poissons Ratio (y) = 0.04078 0.14018
# Poissons Ratio (z) = -0.16369 1.24355
#
# Static dielectric constant tensor:
#      x y z
#    x 2.140010 0.000000 -0.099390 
#    y 0.000000 2.284040 0.000000 
#    z -0.099390 0.000000 2.033010 
# 
# From -- ./inp_files/311075.got.cif
#   From: 2010.05.17/outbox.cif.g08.bks.cpg/sg15_156_cif.got.tgz:311075.got - 2010.06.03 18:47:42.
