data_PCOD9280730
_publ_section_title
;
Structure prediction by ZEFSAII (Michael W. Deem and Ramdas Pophale) SiO2 
 PCOD9280730
Probable space group: C 2/C
;
_chemical_formula_sum "Si O2"
_cell_formula_units_Z 28
_cell_length_a 13.999546
_cell_length_b 9.295259
_cell_length_c 8.375406
_cell_angle_alpha 90.000000
_cell_angle_beta 112.044059
_cell_angle_gamma 90.000000
_cell_volume 1010.211011
_symmetry_space_group_name_H-M "C 2/C"
_symmetry_group_IT_number 15
_symmetry_cell_setting 'monoclinic'
loop_
_space_group_symop_operation_xyz
x,y,z
-x,y,1/2-z
-x,-y,-z
x,-y,1/2+z
1/2+x,1/2+y,z
1/2-x,1/2+y,1/2-z
1/2-x,1/2-y,-z
1/2+x,1/2-y,1/2+z
loop_
_atom_site_type_symbol
_atom_site_label
_atom_site_fract_x
_atom_site_fract_y
_atom_site_fract_z
Si Si1 0.375131 0.390286 0.599404
Si Si2 0.677582 0.862287 0.664650
Si Si3 0.000000 0.590149 0.250000
Si Si4 0.382443 0.309404 0.953690
O O1 0.372999 0.273982 0.456354
O O2 0.254842 0.422731 0.578509
O O3 0.418919 0.328605 0.792940
O O4 0.410679 0.543312 0.560744
O O5 0.592617 0.965964 0.692785
O O6 0.759558 0.803293 0.844674
O O7 0.066524 0.685396 0.413402
#
# Coordination Sequence:
#
# PCOD9280730 Si02
#       4
#     8   8   4   8
#     4   9  20  41  61  84 124 154 191 243 305 335
#     4   9  22  40  57  88 121 157 189 247 295 345
#     4  12  22  36  64  92 116 154 202 242 288 344
#     4  10  21  37  63  85 121 152 198 239 293 346
#
# _framework density 27.716982999999999
#
# number of rings (size 3 to 8) (size 9 to 14) (size 15 to 20)
#    1.714    0.571    0.000    2.571    0.000    5.714 
#    0.000    1.429    0.000    0.000    0.000    0.000 
#    0.000    0.000    0.000    0.000    0.000    0.000 
#
# Total GULP energy -78239.199276 kJ/mol
# GULP energy per Si atom -5588.514234 kJ/mol
# Density = 2.765390 g / cm^3
# Si number density = 27.716983 Si / 1000 Ang^3
#
#
#
# Elastic Constant Matrix: (Units=GPa)
#
#
# Indices 1 2 3 4 5 6 
#
# 1 169.9419 -8.0491 22.3024 0.0000 -27.5747 0.0000
# 2 -8.0491 55.5993 63.2043 0.0000 -1.5006 0.0000
# 3 22.3024 63.2043 210.3039 0.0000 29.8687 0.0000
# 4 0.0000 0.0000 0.0000 42.8945 0.0000 5.2111
# 5 -27.5747 -1.5006 29.8687 0.0000 62.2983 0.0000
# 6 0.0000 0.0000 0.0000 5.2111 0.0000 6.5713
#
#
#
# Elastic Compliance Matrix: (Units=1/GPa)
#
#
# Indices 1 2 3 4 5 6 
#
# 1 0.007172 0.004194 -0.002668 0.000000 0.004555 0.000000
# 2 0.004194 0.031260 -0.010956 0.000000 0.007862 0.000000
# 3 -0.002668 -0.010956 0.009160 0.000000 -0.005836 0.000000
# 4 0.000000 0.000000 0.000000 0.025798 0.000000 -0.020458
# 5 0.004555 0.007862 -0.005836 0.000000 0.021055 0.000000
# 6 0.000000 0.000000 0.000000 -0.020458 0.000000 0.168400
#
#
# Mechanical properties :
#
#
# Convention : Reuss Voigt Hill
#
# Bulk Modulus (GPa) = 34.80462 65.64005 50.22234
# Shear Modulus (GPa) = 17.16537 46.24532 31.70535
#
# Velocity S-wave (km/s) = 2.49129 4.08914 3.38582
# Velocity P-wave (km/s) = 4.56725 6.78442 5.78309
#
# Compressibility (1/GPa) = 0.02873182
#
# Stress axis : x y z
#
# Youngs Moduli (GPa) = 139.42688 31.98955 109.17404
#
# Poissons Ratio (x) = -0.13417 0.29128
# Poissons Ratio (y) = -0.58479 1.19615
# Poissons Ratio (z) = 0.37199 0.35049
#
# Static dielectric constant tensor:
#      x y z
#    x 2.528380 0.000000 0.038970 
#    y 0.000000 2.021050 0.000000 
#    z 0.038970 0.000000 2.057130 
# 
# From -- ./inp_files/9384.got.cif
#   From: 2010.05.17/outbox.cif.g08.bks.cpg/sg15_5_cif.got.tgz:9384.got - 2010.06.03 18:47:42.
