data_PCOD9280728
_publ_section_title
;
Structure prediction by ZEFSAII (Michael W. Deem and Ramdas Pophale) SiO2 
 PCOD9280728
Probable space group: C 2/C
;
_chemical_formula_sum "Si O2"
_cell_formula_units_Z 52
_cell_length_a 24.802087
_cell_length_b 9.961751
_cell_length_c 11.965583
_cell_angle_alpha 90.000000
_cell_angle_beta 127.949765
_cell_angle_gamma 90.000000
_cell_volume 2331.240834
_symmetry_space_group_name_H-M "C 2/C"
_symmetry_group_IT_number 15
_symmetry_cell_setting 'monoclinic'
loop_
_space_group_symop_operation_xyz
x,y,z
-x,y,1/2-z
-x,-y,-z
x,-y,1/2+z
1/2+x,1/2+y,z
1/2-x,1/2+y,1/2-z
1/2-x,1/2-y,-z
1/2+x,1/2-y,1/2+z
loop_
_atom_site_type_symbol
_atom_site_label
_atom_site_fract_x
_atom_site_fract_y
_atom_site_fract_z
Si Si1 0.253906 0.607766 0.558710
Si Si2 0.500000 0.829919 0.250000
Si Si3 0.826585 0.369079 0.328917
Si Si4 0.905477 0.830365 0.795132
Si Si5 0.605469 0.389854 0.126155
Si Si6 0.694218 0.616925 0.528585
Si Si7 0.065708 0.414614 0.542662
O O1 0.250000 0.750000 0.500000
O O2 0.193098 0.594404 0.569578
O O3 0.323551 0.604102 0.716865
O O4 0.263781 0.504525 0.471578
O O5 0.536303 0.742156 0.201397
O O6 0.555392 0.909608 0.394421
O O7 0.879920 0.250045 0.371424
O O8 0.866969 0.501312 0.337900
O O9 0.754707 0.320386 0.180942
O O10 0.841683 0.821182 0.626217
O O11 0.928803 0.978442 0.862839
O O12 0.573818 0.240160 0.094674
O O13 0.630553 0.412254 0.030134
O O14 0.000000 0.500000 0.500000
#
# Coordination Sequence:
#
# PCOD9280728 Si02
#       7
#     8   4   8   8   8   8   8
#     4  10  21  37  63 102 137 170 222 287 344 408
#     4  12  26  46  70  94 134 188 232 278 350 408
#     4  11  24  40  69 101 137 182 227 285 345 413
#     4  11  23  44  69  99 134 182 231 281 347 416
#     4  10  23  42  68  96 133 174 228 285 347 409
#     4  10  21  40  68 101 137 177 222 282 357 411
#     4  12  26  47  67  98 137 184 234 286 341 422
#
# _framework density 22.305717999999999
#
# number of rings (size 3 to 8) (size 9 to 14) (size 15 to 20)
#    0.000    1.231    3.077    2.308    2.154    8.000 
#    0.000    0.769    0.000    0.000    0.000    0.000 
#    0.000    0.000    0.000    0.000    0.000    0.000 
#
# Total GULP energy -144846.267557 kJ/mol
# GULP energy per Si atom -5571.010291 kJ/mol
# Density = 2.225495 g / cm^3
# Si number density = 22.305718 Si / 1000 Ang^3
#
#
#
# Elastic Constant Matrix: (Units=GPa)
#
#
# Indices 1 2 3 4 5 6 
#
# 1 116.8397 43.2457 10.4580 0.0000 -3.3859 0.0000
# 2 43.2457 82.8613 5.6452 0.0000 -2.2141 0.0000
# 3 10.4580 5.6452 45.8398 0.0000 9.6661 0.0000
# 4 0.0000 0.0000 0.0000 34.1604 0.0000 -2.8183
# 5 -3.3859 -2.2141 9.6661 0.0000 32.1921 0.0000
# 6 0.0000 0.0000 0.0000 -2.8183 0.0000 37.2703
#
#
#
# Elastic Compliance Matrix: (Units=1/GPa)
#
#
# Indices 1 2 3 4 5 6 
#
# 1 0.010807 -0.005461 -0.002086 0.000000 0.001387 0.000000
# 2 -0.005461 0.014987 -0.000743 0.000000 0.000680 0.000000
# 3 -0.002086 -0.000743 0.023956 0.000000 -0.007464 0.000000
# 4 0.000000 0.000000 0.000000 0.029457 0.000000 0.002228
# 5 0.001387 0.000680 -0.007464 0.000000 0.033497 0.000000
# 6 0.000000 0.000000 0.000000 0.002228 0.000000 0.026999
#
#
# Mechanical properties :
#
#
# Convention : Reuss Voigt Hill
#
# Bulk Modulus (GPa) = 30.14665 40.47095 35.30880
# Shear Modulus (GPa) = 29.87914 33.13735 31.50825
#
# Velocity S-wave (km/s) = 3.66393 3.85853 3.76249
# Velocity P-wave (km/s) = 5.60747 6.16718 5.89397
#
# Compressibility (1/GPa) = 0.03317118
#
# Stress axis : x y z
#
# Youngs Moduli (GPa) = 92.53357 66.72326 41.74280
#
# Poissons Ratio (x) = 0.36438 0.08705
# Poissons Ratio (y) = 0.50533 0.03102
# Poissons Ratio (z) = 0.19298 0.04958
#
# Static dielectric constant tensor:
#      x y z
#    x 1.825800 0.000000 0.007820 
#    y 0.000000 1.826230 0.000000 
#    z 0.007820 0.000000 1.887800 
# 
# From -- ./inp_files/122065.got.cif
#   From: 2010.05.17/outbox.cif.g08.bks.cpg/sg15_62_cif.got.tgz:122065.got - 2010.06.03 18:47:42.
