data_PCOD9280637
_publ_section_title
;
Structure prediction by ZEFSAII (Michael W. Deem and Ramdas Pophale) SiO2 
 PCOD9280637
Probable space group: C 2/C
;
_chemical_formula_sum "Si O2"
_cell_formula_units_Z 64
_cell_length_a 25.013128
_cell_length_b 15.085389
_cell_length_c 8.283275
_cell_angle_alpha 90.000000
_cell_angle_beta 111.041224
_cell_angle_gamma 90.000000
_cell_volume 2917.146639
_symmetry_space_group_name_H-M "C 2/C"
_symmetry_group_IT_number 15
_symmetry_cell_setting 'monoclinic'
loop_
_space_group_symop_operation_xyz
x,y,z
-x,y,1/2-z
-x,-y,-z
x,-y,1/2+z
1/2+x,1/2+y,z
1/2-x,1/2+y,1/2-z
1/2-x,1/2-y,-z
1/2+x,1/2-y,1/2+z
loop_
_atom_site_type_symbol
_atom_site_label
_atom_site_fract_x
_atom_site_fract_y
_atom_site_fract_z
Si Si1 0.614366 0.271184 0.142522
Si Si2 0.560750 0.576814 0.739863
Si Si3 0.133185 0.058564 0.110341
Si Si4 0.787062 0.051612 0.043861
Si Si5 0.115991 0.507607 0.651504
Si Si6 0.263263 0.628889 0.714443
Si Si7 0.436128 0.873501 0.124472
Si Si8 0.660217 0.130873 0.414179
O O1 0.565138 0.343385 0.118593
O O2 0.676324 0.319817 0.209495
O O3 0.618388 0.204152 0.297271
O O4 0.599227 0.212551 0.970719
O O5 0.500000 0.555383 0.750000
O O6 0.589222 0.493910 0.678482
O O7 0.599470 0.608065 0.934227
O O8 0.178175 0.104200 0.280043
O O9 0.168577 0.987270 0.041303
O O10 0.746385 0.107664 0.882697
O O11 0.766152 0.964072 0.115451
O O12 0.066781 0.442063 0.529862
O O13 0.094422 0.571786 0.767522
O O14 0.135749 0.569924 0.528842
O O15 0.165128 0.439459 0.770026
O O16 0.215239 0.676246 0.555165
O O17 0.500000 0.851656 0.250000
#
# Coordination Sequence:
#
# PCOD9280637 Si02
#       8
#     8   8   8   8   8   8   8   8
#     4  11  23  38  52  85 126 150 187 238 295 353
#     4  11  21  37  57  82 112 156 197 239 289 334
#     4   9  17  36  54  77 107 144 197 242 270 315
#     4   9  17  32  60  78 107 147 197 238 268 325
#     4   9  20  41  63  90 111 140 200 251 281 354
#     4  11  19  37  58  85 115 158 196 234 289 344
#     4  10  21  40  65  87 113 151 189 239 302 349
#     4  10  21  37  62  84 116 151 187 241 298 348
#
# _framework density 21.939247000000002
#
# number of rings (size 3 to 8) (size 9 to 14) (size 15 to 20)
#    0.000    2.000    3.750    1.875    0.000    1.000 
#    4.500    2.500    0.000    0.000    0.000    0.000 
#    0.000    0.000    0.000    0.000    0.000    0.000 
#
# Total GULP energy -178231.145660 kJ/mol
# GULP energy per Si atom -5569.723302 kJ/mol
# Density = 2.188931 g / cm^3
# Si number density = 21.939247 Si / 1000 Ang^3
#
#
#
# Elastic Constant Matrix: (Units=GPa)
#
#
# Indices 1 2 3 4 5 6 
#
# 1 28.1964 5.1132 6.8926 0.0000 6.1093 0.0000
# 2 5.1132 58.9727 25.1746 0.0000 -2.4375 0.0000
# 3 6.8926 25.1746 126.3950 0.0000 6.7393 0.0000
# 4 0.0000 0.0000 0.0000 -3.0800 0.0000 30.8653
# 5 6.1093 -2.4375 6.7393 0.0000 28.6155 0.0000
# 6 0.0000 0.0000 0.0000 30.8653 0.0000 -8.2607
#
#
#
# Elastic Compliance Matrix: (Units=1/GPa)
#
#
# Indices 1 2 3 4 5 6 
#
# 1 0.038061 -0.003210 -0.001001 0.000000 -0.008164 0.000000
# 2 -0.003210 0.018979 -0.003775 0.000000 0.003191 0.000000
# 3 -0.001001 -0.003775 0.008835 0.000000 -0.002189 0.000000
# 4 0.000000 0.000000 0.000000 0.008909 0.000000 0.033288
# 5 -0.008164 0.003191 -0.002189 0.000000 0.037476 0.000000
# 6 0.000000 0.000000 0.000000 0.033288 0.000000 0.003322
#
#
# Mechanical properties :
#
#
# Convention : Reuss Voigt Hill
#
# Bulk Modulus (GPa) = 20.03918 31.99165 26.01542
# Shear Modulus (GPa) = 33.74082 15.21388 24.47735
#
# Velocity S-wave (km/s) = 3.92589 2.63621 3.34381
# Velocity P-wave (km/s) = 5.45013 4.88669 5.17608
#
# Compressibility (1/GPa) = 0.04990224
#
# Stress axis : x y z
#
# Youngs Moduli (GPa) = 26.27353 52.69035 113.18756
#
# Poissons Ratio (x) = 0.16915 0.11329
# Poissons Ratio (y) = 0.08434 0.42730
# Poissons Ratio (z) = 0.02630 0.19891
#
# Static dielectric constant tensor:
#      x y z
#    x 1.833020 0.000000 0.067080 
#    y 0.000000 1.835560 0.000000 
#    z 0.067080 0.000000 1.905200 
# 
# From -- ./inp_files/69954.got.cif
#   From: 2010.05.17/outbox.cif.g08.bks.cpg/sg15_35_cif.got.tgz:69954.got - 2010.06.03 18:47:42.
