data_PCOD9280266
_publ_section_title
;
Structure prediction by ZEFSAII (Michael W. Deem and Ramdas Pophale) SiO2 
 PCOD9280266
Probable space group: C 2/C
;
_chemical_formula_sum "Si O2"
_cell_formula_units_Z 56
_cell_length_a 14.289559
_cell_length_b 16.087936
_cell_length_c 13.303022
_cell_angle_alpha 90.000000
_cell_angle_beta 64.071085
_cell_angle_gamma 90.000000
_cell_volume 2750.375788
_symmetry_space_group_name_H-M "C 2/C"
_symmetry_group_IT_number 15
_symmetry_cell_setting 'monoclinic'
loop_
_space_group_symop_operation_xyz
x,y,z
-x,y,1/2-z
-x,-y,-z
x,-y,1/2+z
1/2+x,1/2+y,z
1/2-x,1/2+y,1/2-z
1/2-x,1/2-y,-z
1/2+x,1/2-y,1/2+z
loop_
_atom_site_type_symbol
_atom_site_label
_atom_site_fract_x
_atom_site_fract_y
_atom_site_fract_z
Si Si1 0.622359 0.939580 0.046204
Si Si2 0.251516 0.167357 0.166257
Si Si3 0.941824 0.890584 0.086473
Si Si4 0.973574 0.716550 0.152113
Si Si5 0.702434 0.854105 0.193644
Si Si6 0.900847 0.606861 0.552850
Si Si7 0.555175 0.424836 0.831028
O O1 0.632547 0.914036 0.157284
O O2 0.506353 0.921654 0.060676
O O3 0.705824 0.879727 0.951880
O O4 0.642146 0.033079 0.997906
O O5 0.357742 0.187086 0.176417
O O6 0.195223 0.255708 0.171965
O O7 0.172597 0.107559 0.262093
O O8 0.974434 0.815366 0.142175
O O9 0.820580 0.880318 0.119408
O O10 0.955339 0.978389 0.134921
O O11 0.002449 0.882250 0.952475
O O12 0.000000 0.686583 0.250000
O O13 0.058499 0.680437 0.036111
O O14 0.676767 0.866492 0.322964
O O15 0.500000 0.408276 0.750000
#
# Coordination Sequence:
#
# PCOD9280266 Si02
#       7
#     8   8   8   8   8   8   8
#     4  10  21  37  57  86 122 156 193 250 303 347
#     4  10  22  38  61  92 117 153 206 242 295 364
#     4  10  23  39  59  88 119 157 205 240 290 362
#     4  10  22  43  63  86 122 155 190 249 305 356
#     4  11  21  38  60  86 122 157 194 250 299 350
#     4  10  22  36  59  90 117 154 203 239 296 369
#     4  11  22  39  61  86 120 160 200 249 292 344
#
# _framework density 20.360854
#
# number of rings (size 3 to 8) (size 9 to 14) (size 15 to 20)
#    0.000    1.714    0.000    3.857    0.000    8.000 
#    0.000    9.286    0.000    0.000    0.000    0.000 
#    0.000    0.000    0.000    0.000    0.000    0.000 
#
# Total GULP energy -156363.143405 kJ/mol
# GULP energy per Si atom -5584.397979 kJ/mol
# Density = 2.031451 g / cm^3
# Si number density = 20.360854 Si / 1000 Ang^3
#
#
#
# Elastic Constant Matrix: (Units=GPa)
#
#
# Indices 1 2 3 4 5 6 
#
# 1 31.7258 22.3543 39.5631 0.0000 9.8630 0.0000
# 2 22.3543 66.0577 20.6563 0.0000 3.1214 0.0000
# 3 39.5631 20.6563 123.3945 0.0000 -7.0806 0.0000
# 4 0.0000 0.0000 0.0000 15.6588 0.0000 -1.4008
# 5 9.8630 3.1214 -7.0806 0.0000 29.1555 0.0000
# 6 0.0000 0.0000 0.0000 -1.4008 0.0000 17.3884
#
#
#
# Elastic Compliance Matrix: (Units=1/GPa)
#
#
# Indices 1 2 3 4 5 6 
#
# 1 0.092630 -0.020803 -0.028281 0.000000 -0.035977 0.000000
# 2 -0.020803 0.020813 0.003511 0.000000 0.005662 0.000000
# 3 -0.028281 0.003511 0.017353 0.000000 0.013406 0.000000
# 4 0.000000 0.000000 0.000000 0.064325 0.000000 0.005182
# 5 -0.035977 0.005662 0.013406 0.000000 0.049119 0.000000
# 6 0.000000 0.000000 0.000000 0.005182 0.000000 0.057927
#
#
# Mechanical properties :
#
#
# Convention : Reuss Voigt Hill
#
# Bulk Modulus (GPa) = 25.22126 42.92503 34.07315
# Shear Modulus (GPa) = 12.29921 21.68084 16.99002
#
# Velocity S-wave (km/s) = 2.46043 3.26671 2.89181
# Velocity P-wave (km/s) = 4.52611 5.94613 5.28404
#
# Compressibility (1/GPa) = 0.03964909
#
# Stress axis : x y z
#
# Youngs Moduli (GPa) = 10.79566 48.04753 57.62615
#
# Poissons Ratio (x) = 0.99952 1.62974
# Poissons Ratio (y) = 0.22458 -0.20231
# Poissons Ratio (z) = 0.30531 -0.16868
#
# Static dielectric constant tensor:
#      x y z
#    x 1.712460 0.000000 0.012640 
#    y 0.000000 1.737840 0.000000 
#    z 0.012640 0.000000 1.702120 
# 
# From -- ./inp_files/98645.got.cif
#   From: 2010.05.17/outbox.cif.g08.bks.cpg/sg15_50_cif.got.tgz:98645.got - 2010.06.03 18:47:42.
