data_PCOD9280668
_publ_section_title
;
Structure prediction by ZEFSAII (Michael W. Deem and Ramdas Pophale) SiO2 
 PCOD9280668
Probable space group: C 2/C
;
_chemical_formula_sum "Si O2"
_cell_formula_units_Z 52
_cell_length_a 11.994219
_cell_length_b 14.604139
_cell_length_c 14.801820
_cell_angle_alpha 90.000000
_cell_angle_beta 114.841273
_cell_angle_gamma 90.000000
_cell_volume 2352.869086
_symmetry_space_group_name_H-M "C 2/C"
_symmetry_group_IT_number 15
_symmetry_cell_setting 'monoclinic'
loop_
_space_group_symop_operation_xyz
x,y,z
-x,y,1/2-z
-x,-y,-z
x,-y,1/2+z
1/2+x,1/2+y,z
1/2-x,1/2+y,1/2-z
1/2-x,1/2-y,-z
1/2+x,1/2-y,1/2+z
loop_
_atom_site_type_symbol
_atom_site_label
_atom_site_fract_x
_atom_site_fract_y
_atom_site_fract_z
Si Si1 0.202058 0.652797 0.021445
Si Si2 0.121484 0.511617 0.841474
Si Si3 0.093191 0.013699 0.410101
Si Si4 0.036983 0.599213 0.475820
Si Si5 0.000000 0.141008 0.750000
Si Si6 0.247222 0.276701 0.105978
Si Si7 0.340279 0.582950 0.383059
O O1 0.159577 0.594848 0.919212
O O2 0.250000 0.750000 0.000000
O O3 0.306742 0.583509 0.097690
O O4 0.084815 0.660190 0.048604
O O5 0.082241 0.422748 0.889640
O O6 0.228992 0.480059 0.809147
O O7 0.000000 0.540862 0.750000
O O8 0.979215 0.075339 0.399787
O O9 0.022563 0.931413 0.337213
O O10 0.155979 0.960292 0.514428
O O11 0.149904 0.640379 0.571354
O O12 0.000000 0.500000 0.500000
O O13 0.876089 0.199116 0.696729
O O14 0.195250 0.187403 0.135580
O O15 0.250000 0.250000 0.000000
#
# Coordination Sequence:
#
# PCOD9280668 Si02
#       7
#     8   8   8   8   4   8   8
#     4  10  21  42  67  89 125 173 214 262 328 391
#     4  10  21  37  62  90 124 165 212 261 323 384
#     4  10  22  41  63  90 127 178 209 266 335 397
#     4  10  21  39  66  87 126 170 207 263 330 385
#     4  12  24  40  64  96 136 170 226 268 328 400
#     4  12  22  40  65 100 128 165 223 278 319 387
#     4  10  21  40  63  88 131 166 210 268 334 383
#
# _framework density 22.100676
#
# number of rings (size 3 to 8) (size 9 to 14) (size 15 to 20)
#    0.000    1.538    3.077    2.769    1.077    3.692 
#    1.385    0.000    6.769    0.000    0.000    0.000 
#    0.000    0.000    0.000    0.000    0.000    0.000 
#
# Total GULP energy -144886.262852 kJ/mol
# GULP energy per Si atom -5572.548571 kJ/mol
# Density = 2.205037 g / cm^3
# Si number density = 22.100676 Si / 1000 Ang^3
#
#
#
# Elastic Constant Matrix: (Units=GPa)
#
#
# Indices 1 2 3 4 5 6 
#
# 1 112.0438 42.9301 30.8836 0.0000 44.0561 0.0000
# 2 42.9301 129.7016 39.1342 0.0000 30.1395 0.0000
# 3 30.8836 39.1342 63.6938 0.0000 35.6494 0.0000
# 4 0.0000 0.0000 0.0000 25.2186 0.0000 18.5549
# 5 44.0561 30.1395 35.6494 0.0000 46.0677 0.0000
# 6 0.0000 0.0000 0.0000 18.5549 0.0000 48.0957
#
#
#
# Elastic Compliance Matrix: (Units=1/GPa)
#
#
# Indices 1 2 3 4 5 6 
#
# 1 0.014861 -0.002237 0.002300 0.000000 -0.014528 0.000000
# 2 -0.002237 0.010040 -0.004595 0.000000 -0.000873 0.000000
# 3 0.002300 -0.004595 0.029912 0.000000 -0.022341 0.000000
# 4 0.000000 0.000000 0.000000 0.055370 0.000000 -0.021361
# 5 -0.014528 -0.000873 -0.022341 0.000000 0.053461 0.000000
# 6 0.000000 0.000000 0.000000 -0.021361 0.000000 0.029033
#
#
# Mechanical properties :
#
#
# Convention : Reuss Voigt Hill
#
# Bulk Modulus (GPa) = 21.85817 59.03725 40.44771
# Shear Modulus (GPa) = 23.04250 36.70916 29.87583
#
# Velocity S-wave (km/s) = 3.23246 4.07995 3.68068
# Velocity P-wave (km/s) = 4.88298 6.99754 6.03362
#
# Compressibility (1/GPa) = 0.04574947
#
# Stress axis : x y z
#
# Youngs Moduli (GPa) = 67.29150 99.60364 33.43105
#
# Poissons Ratio (x) = 0.22279 -0.07690
# Poissons Ratio (y) = 0.15051 0.15362
# Poissons Ratio (z) = -0.15479 0.45769
#
# Static dielectric constant tensor:
#      x y z
#    x 1.891210 0.000000 -0.084740 
#    y 0.000000 -1.307870 0.000000 
#    z -0.084740 0.000000 1.754910 
# 
# From -- ./inp_files/198040.got.cif
#   From: 2010.05.17/outbox.cif.g08.bks.cpg/sg15_100_cif.got.tgz:198040.got - 2010.06.03 18:47:42.
