data_PCOD9280583
_publ_section_title
;
Structure prediction by ZEFSAII (Michael W. Deem and Ramdas Pophale) SiO2 
 PCOD9280583
Probable space group: C 2/C
;
_chemical_formula_sum "Si O2"
_cell_formula_units_Z 52
_cell_length_a 22.268143
_cell_length_b 19.793279
_cell_length_c 17.188564
_cell_angle_alpha 90.000000
_cell_angle_beta 161.807076
_cell_angle_gamma 90.000000
_cell_volume 2365.368003
_symmetry_space_group_name_H-M "C 2/C"
_symmetry_group_IT_number 15
_symmetry_cell_setting 'monoclinic'
loop_
_space_group_symop_operation_xyz
x,y,z
-x,y,1/2-z
-x,-y,-z
x,-y,1/2+z
1/2+x,1/2+y,z
1/2-x,1/2+y,1/2-z
1/2-x,1/2-y,-z
1/2+x,1/2-y,1/2+z
loop_
_atom_site_type_symbol
_atom_site_label
_atom_site_fract_x
_atom_site_fract_y
_atom_site_fract_z
Si Si1 0.089427 0.513879 0.283829
Si Si2 0.779141 0.348270 0.694259
Si Si3 0.500000 0.593679 0.250000
Si Si4 0.056123 0.719729 0.409686
Si Si5 0.726355 0.596626 0.784495
Si Si6 0.523550 0.463403 0.170415
Si Si7 0.150525 0.605479 0.738948
O O1 0.000000 0.476791 0.250000
O O2 0.274015 0.556318 0.539846
O O3 0.112170 0.462460 0.240792
O O4 0.924262 0.563677 0.055752
O O5 0.615535 0.293736 0.512335
O O6 0.662904 0.418607 0.539070
O O7 0.888554 0.314086 0.755522
O O8 0.948426 0.360447 0.966346
O O9 0.526095 0.539394 0.210587
O O10 0.685765 0.636917 0.502929
O O11 0.246222 0.673781 0.656645
O O12 0.000000 0.721536 0.250000
O O13 0.744966 0.593007 0.714966
O O14 0.562449 0.555604 0.628242
#
# Coordination Sequence:
#
# PCOD9280583 Si02
#       7
#     8   8   4   8   8   8   8
#     4   9  19  38  60  91 131 163 199 242 301 372
#     4  11  25  39  63  88 124 161 205 252 301 369
#     4  10  24  38  62  84 126 160 206 252 304 366
#     4  11  23  37  60  91 126 163 200 246 304 365
#     4  10  21  37  61  90 129 165 203 243 297 374
#     4  10  22  35  59  90 126 162 197 240 305 362
#     4  10  23  40  60  89 125 163 205 252 309 358
#
# _framework density 21.983893999999999
#
# number of rings (size 3 to 8) (size 9 to 14) (size 15 to 20)
#    0.000    1.846    0.000    3.231   14.000    0.615 
#    5.538    0.000    0.000    3.692    2.000    0.000 
#    0.000    0.000    0.000    0.000    0.000    0.000 
#
# Total GULP energy -144739.204362 kJ/mol
# GULP energy per Si atom -5566.892475 kJ/mol
# Density = 2.193386 g / cm^3
# Si number density = 21.983894 Si / 1000 Ang^3
#
#
#
# Elastic Constant Matrix: (Units=GPa)
#
#
# Indices 1 2 3 4 5 6 
#
# 1 92.3428 42.0239 50.7040 -0.0001 2.5158 0.0003
# 2 42.0239 43.4448 30.4170 0.0000 -18.2941 0.0001
# 3 50.7040 30.4170 146.7720 -0.0001 -9.2173 0.0006
# 4 -0.0001 0.0000 -0.0001 32.4948 0.0000 -12.6913
# 5 2.5158 -18.2941 -9.2173 0.0000 31.3246 0.0002
# 6 0.0003 0.0001 0.0006 -12.6913 0.0002 25.3748
#
#
#
# Elastic Compliance Matrix: (Units=1/GPa)
#
#
# Indices 1 2 3 4 5 6 
#
# 1 0.031501 -0.038312 -0.004591 0.000000 -0.026256 0.000000
# 2 -0.038312 0.081794 -0.000532 0.000000 0.050689 0.000000
# 3 -0.004591 -0.000532 0.008674 0.000000 0.002610 0.000000
# 4 0.000000 0.000000 0.000000 0.038245 0.000000 0.019128
# 5 -0.026256 0.050689 0.002610 0.000000 0.064404 -0.000001
# 6 0.000000 0.000000 0.000000 0.019128 -0.000001 0.048976
#
#
# Mechanical properties :
#
#
# Convention : Reuss Voigt Hill
#
# Bulk Modulus (GPa) = 28.49247 58.76105 43.62676
# Shear Modulus (GPa) = 13.43491 28.46648 20.95070
#
# Velocity S-wave (km/s) = 2.47478 3.60235 3.09042
# Velocity P-wave (km/s) = 4.59943 6.64001 5.71159
#
# Compressibility (1/GPa) = 0.03509700
#
# Stress axis : x y z
#
# Youngs Moduli (GPa) = 31.74514 12.22583 115.29117
#
# Poissons Ratio (x) = 0.46840 0.52935
# Poissons Ratio (y) = 1.21622 0.06138
# Poissons Ratio (z) = 0.14576 0.00651
#
# Static dielectric constant tensor:
#      x y z
#    x 1.961070 0.000000 0.066870 
#    y 0.000000 1.862320 0.000000 
#    z 0.066870 0.000000 1.900020 
# 
# From -- ./inp_files/220135.got.cif
#   From: 2010.05.17/outbox.cif.g08.bks.cpg/sg15_111_cif.got.tgz:220135.got - 2010.06.03 18:47:42.
