data_PCOD9280578
_publ_section_title
;
Structure prediction by ZEFSAII (Michael W. Deem and Ramdas Pophale) SiO2 
 PCOD9280578
Probable space group: C 2/C
;
_chemical_formula_sum "Si O2"
_cell_formula_units_Z 60
_cell_length_a 20.413863
_cell_length_b 29.649953
_cell_length_c 12.766559
_cell_angle_alpha 90.000000
_cell_angle_beta 21.205341
_cell_angle_gamma 90.000000
_cell_volume 2795.022780
_symmetry_space_group_name_H-M "C 2/C"
_symmetry_group_IT_number 15
_symmetry_cell_setting 'monoclinic'
loop_
_space_group_symop_operation_xyz
x,y,z
-x,y,1/2-z
-x,-y,-z
x,-y,1/2+z
1/2+x,1/2+y,z
1/2-x,1/2+y,1/2-z
1/2-x,1/2-y,-z
1/2+x,1/2-y,1/2+z
loop_
_atom_site_type_symbol
_atom_site_label
_atom_site_fract_x
_atom_site_fract_y
_atom_site_fract_z
Si Si1 0.778195 0.056263 0.845094
Si Si2 0.174542 0.295903 0.066511
Si Si3 0.970953 0.642552 0.026346
Si Si4 0.397977 0.484888 0.502210
Si Si5 0.000000 0.736234 0.250000
Si Si6 0.579483 0.047798 0.354602
Si Si7 0.112861 0.820324 0.945426
Si Si8 0.770908 0.654065 0.534399
O O1 0.788892 0.022494 0.731073
O O2 0.749054 0.109308 0.864850
O O3 0.628275 0.048443 0.159164
O O4 0.964673 0.042226 0.627559
O O5 0.000000 0.289133 0.250000
O O6 0.114574 0.327093 0.252370
O O7 0.250000 0.250000 0.000000
O O8 0.326347 0.317262 0.765588
O O9 0.027110 0.590311 0.941648
O O10 0.780505 0.656407 0.254551
O O11 0.926344 0.649529 0.214729
O O12 0.500000 0.506840 0.250000
O O13 0.265793 0.449989 0.642624
O O14 0.936428 0.770686 0.435806
O O15 0.827090 0.702889 0.494622
O O16 0.500000 0.000000 0.500000
O O17 0.922022 0.845190 0.235712
#
# Coordination Sequence:
#
# PCOD9280578 Si02
#       8
#     8   8   8   8   4   8   8   8
#     4   9  20  38  61  88 117 162 199 250 299 364
#     4  10  23  40  62  89 128 164 207 259 318 372
#     4  10  21  42  61  89 121 161 206 256 302 374
#     4   9  18  38  62  86 122 160 204 247 301 363
#     4  12  24  34  64  94 120 158 202 258 312 362
#     4  10  21  37  61  90 122 157 199 255 308 361
#     4  11  22  39  63  87 115 159 209 249 305 373
#     4  11  22  38  63  90 122 153 209 250 306 365
#
# _framework density 21.466729999999998
#
# number of rings (size 3 to 8) (size 9 to 14) (size 15 to 20)
#    0.000    1.867    1.333    2.000    3.733    4.800 
#   14.400    0.000    0.000    0.000    0.000    0.000 
#    0.000    0.000    0.000    0.000    0.000    0.000 
#
# Total GULP energy -167239.833175 kJ/mol
# GULP energy per Si atom -5574.661106 kJ/mol
# Density = 2.141787 g / cm^3
# Si number density = 21.466730 Si / 1000 Ang^3
#
#
#
# Elastic Constant Matrix: (Units=GPa)
#
#
# Indices 1 2 3 4 5 6 
#
# 1 56.1200 28.4613 15.6450 -0.0146 9.5390 -0.0251
# 2 28.4613 152.9906 48.6873 -0.0208 18.7583 -0.0195
# 3 15.6450 48.6873 85.6100 -0.0380 22.6170 -0.0556
# 4 -0.0146 -0.0208 -0.0380 36.1487 0.0140 9.0476
# 5 9.5390 18.7583 22.6170 0.0140 33.7982 0.0247
# 6 -0.0251 -0.0195 -0.0556 9.0476 0.0247 14.6459
#
#
#
# Elastic Compliance Matrix: (Units=1/GPa)
#
#
# Indices 1 2 3 4 5 6 
#
# 1 0.020212 -0.003001 -0.001118 -0.000002 -0.003291 0.000033
# 2 -0.003001 0.008507 -0.003967 0.000002 -0.001220 -0.000008
# 3 -0.001118 -0.003967 0.016370 0.000001 -0.008438 0.000069
# 4 -0.000002 0.000002 0.000001 0.032723 0.000000 -0.020215
# 5 -0.003291 -0.001220 -0.008438 0.000000 0.036839 -0.000102
# 6 0.000033 -0.000008 0.000069 -0.020215 -0.000102 0.080766
#
#
# Mechanical properties :
#
#
# Convention : Reuss Voigt Hill
#
# Bulk Modulus (GPa) = 34.58102 53.36753 43.97428
# Shear Modulus (GPa) = 22.60109 30.38039 26.49074
#
# Velocity S-wave (km/s) = 3.24827 3.76604 3.51670
# Velocity P-wave (km/s) = 5.49659 6.62007 6.08431
#
# Compressibility (1/GPa) = 0.02891760
#
# Stress axis : x y z
#
# Youngs Moduli (GPa) = 49.47595 117.55492 61.08572
#
# Poissons Ratio (x) = 0.35277 0.06827
# Poissons Ratio (y) = 0.14847 0.24234
# Poissons Ratio (z) = 0.05529 0.46637
#
# Static dielectric constant tensor:
#      x y z
#    x 1.856280 -0.000070 -0.021970 
#    y -0.000070 1.802770 -0.000040 
#    z -0.021970 -0.000040 1.819250 
# 
# From -- ./inp_files/174920.got.cif
#   From: 2010.05.17/outbox.cif.g08.bks.cpg/sg15_88_cif.got.tgz:174920.got - 2010.06.03 18:47:42.
