data_PCOD9280879
_publ_section_title
;
Structure prediction by ZEFSAII (Michael W. Deem and Ramdas Pophale) SiO2 
 PCOD9280879
Probable space group: C 2/C
;
_chemical_formula_sum "Si O2"
_cell_formula_units_Z 48
_cell_length_a 9.900043
_cell_length_b 28.292922
_cell_length_c 15.869826
_cell_angle_alpha 90.000000
_cell_angle_beta 34.128738
_cell_angle_gamma 90.000000
_cell_volume 2493.973932
_symmetry_space_group_name_H-M "C 2/C"
_symmetry_group_IT_number 15
_symmetry_cell_setting 'monoclinic'
loop_
_space_group_symop_operation_xyz
x,y,z
-x,y,1/2-z
-x,-y,-z
x,-y,1/2+z
1/2+x,1/2+y,z
1/2-x,1/2+y,1/2-z
1/2-x,1/2-y,-z
1/2+x,1/2-y,1/2+z
loop_
_atom_site_type_symbol
_atom_site_label
_atom_site_fract_x
_atom_site_fract_y
_atom_site_fract_z
Si Si1 0.779926 0.623459 0.607840
Si Si2 0.216395 0.627040 0.694978
Si Si3 0.046468 0.702965 0.369805
Si Si4 0.242802 0.976341 0.405603
Si Si5 0.389717 0.705223 0.039583
Si Si6 0.261010 0.984491 0.075527
O O1 0.500000 0.641550 0.750000
O O2 0.838295 0.620037 0.677525
O O3 0.779826 0.572770 0.560470
O O4 0.969250 0.657557 0.464345
O O5 0.259148 0.575603 0.632649
O O6 0.446643 0.660187 0.565107
O O7 0.000000 0.647846 0.750000
O O8 0.285683 0.703097 0.188414
O O9 0.834466 0.706217 0.409332
O O10 0.034366 0.747547 0.439059
O O11 0.500000 0.999662 0.250000
O O12 0.247827 0.982058 0.501952
O O13 0.000000 0.000000 0.500000
O O14 0.000000 0.991381 0.250000
O O15 0.500000 0.000000 0.000000
#
# Coordination Sequence:
#
# PCOD9280879 Si02
#       6
#     8   8   8   8   8   8
#     4  11  21  40  64  90 121 168 216 261 311 376
#     4  11  23  42  62  89 132 173 207 263 334 384
#     4  10  21  37  65  95 122 156 213 266 307 371
#     4  11  23  40  61  90 126 170 214 267 323 380
#     4  10  21  38  62  96 125 160 204 263 320 371
#     4  11  23  40  61  89 122 167 214 263 316 378
#
# _framework density 19.246390999999999
#
# number of rings (size 3 to 8) (size 9 to 14) (size 15 to 20)
#    0.000    1.333    1.667    6.000    2.333    2.667 
#    0.000    4.167    0.000    0.000    0.000    0.000 
#    0.000    0.000    0.000    0.000    0.000    0.000 
#
# Total GULP energy -133783.796358 kJ/mol
# GULP energy per Si atom -5574.324848 kJ/mol
# Density = 1.920259 g / cm^3
# Si number density = 19.246391 Si / 1000 Ang^3
#
#
#
# Elastic Constant Matrix: (Units=GPa)
#
#
# Indices 1 2 3 4 5 6 
#
# 1 94.5218 28.1488 30.5182 0.0000 8.8989 0.0000
# 2 28.1488 68.0361 70.0180 0.0000 21.2881 0.0000
# 3 30.5182 70.0180 118.6708 0.0000 17.9267 0.0000
# 4 0.0000 0.0000 0.0000 22.7817 0.0000 9.3487
# 5 8.8989 21.2881 17.9267 0.0000 46.9183 0.0000
# 6 0.0000 0.0000 0.0000 9.3487 0.0000 29.2476
#
#
#
# Elastic Compliance Matrix: (Units=1/GPa)
#
#
# Indices 1 2 3 4 5 6 
#
# 1 0.012074 -0.004555 -0.000407 0.000000 -0.000068 0.000000
# 2 -0.004555 0.043162 -0.022782 0.000000 -0.010015 0.000000
# 3 -0.000407 -0.022782 0.021650 0.000000 0.002142 0.000000
# 4 0.000000 0.000000 0.000000 0.050522 0.000000 -0.016149
# 5 -0.000068 -0.010015 0.002142 0.000000 0.025052 0.000000
# 6 0.000000 0.000000 0.000000 -0.016149 0.000000 0.039353
#
#
# Mechanical properties :
#
#
# Convention : Reuss Voigt Hill
#
# Bulk Modulus (GPa) = 46.73595 59.84430 53.29013
# Shear Modulus (GPa) = 19.65152 29.95911 24.80531
#
# Velocity S-wave (km/s) = 3.19885 3.94967 3.59392
# Velocity P-wave (km/s) = 6.16273 7.20841 6.70598
#
# Compressibility (1/GPa) = 0.02139680
#
# Stress axis : x y z
#
# Youngs Moduli (GPa) = 82.82299 23.16848 46.19020
#
# Poissons Ratio (x) = 0.10554 0.01881
# Poissons Ratio (y) = 0.37728 1.05231
# Poissons Ratio (z) = 0.03372 0.52783
#
# Static dielectric constant tensor:
#      x y z
#    x 1.681110 0.000000 0.094780 
#    y 0.000000 1.675220 0.000000 
#    z 0.094780 0.000000 2.800110 
# 
# From -- ./inp_files/138940.got.cif
#   From: 2010.05.17/outbox.cif.g08.bks.cpg/sg15_70_cif.got.tgz:138940.got - 2010.06.03 18:47:42.
