data_PCOD9280151
_publ_section_title
;
Structure prediction by ZEFSAII (Michael W. Deem and Ramdas Pophale) SiO2 
 PCOD9280151
Probable space group: C 2/C
;
_chemical_formula_sum "Si O2"
_cell_formula_units_Z 48
_cell_length_a 9.886862
_cell_length_b 15.399077
_cell_length_c 14.927995
_cell_angle_alpha 90.000000
_cell_angle_beta 85.371328
_cell_angle_gamma 90.000000
_cell_volume 2265.353230
_symmetry_space_group_name_H-M "C 2/C"
_symmetry_group_IT_number 15
_symmetry_cell_setting 'monoclinic'
loop_
_space_group_symop_operation_xyz
x,y,z
-x,y,1/2-z
-x,-y,-z
x,-y,1/2+z
1/2+x,1/2+y,z
1/2-x,1/2+y,1/2-z
1/2-x,1/2-y,-z
1/2+x,1/2-y,1/2+z
loop_
_atom_site_type_symbol
_atom_site_label
_atom_site_fract_x
_atom_site_fract_y
_atom_site_fract_z
Si Si1 0.900186 0.624078 0.471267
Si Si2 0.193011 0.569017 0.533667
Si Si3 0.509667 0.602027 0.012855
Si Si4 0.194564 0.292667 0.172860
Si Si5 0.603421 0.254919 0.873524
Si Si6 0.492699 0.732248 0.646758
O O1 0.817644 0.535310 0.466669
O O2 0.850072 0.689234 0.551476
O O3 0.053278 0.598616 0.494357
O O4 0.917103 0.684269 0.382778
O O5 0.327068 0.608390 0.479567
O O6 0.201784 0.608442 0.634470
O O7 0.476893 0.654626 0.923533
O O8 0.500000 0.500000 0.000000
O O9 0.409532 0.646402 0.090612
O O10 0.176606 0.273099 0.278787
O O11 0.334101 0.248164 0.136895
O O12 0.056541 0.261156 0.135575
O O13 0.500000 0.707249 0.750000
#
# Coordination Sequence:
#
# PCOD9280151 Si02
#       6
#     8   8   8   8   8   8
#     4   9  18  35  58  84 109 143 183 231 280 326
#     4   9  18  35  57  85 110 141 185 231 274 326
#     4  10  21  37  57  78 112 150 188 226 273 336
#     4   9  18  35  58  81 109 144 187 229 273 331
#     4   9  18  35  60  81 108 146 189 227 278 332
#     4  10  21  37  54  80 114 151 182 227 282 332
#
# _framework density 21.188748
#
# number of rings (size 3 to 8) (size 9 to 14) (size 15 to 20)
#    0.000    2.667    0.000    1.000    0.000    6.667 
#   12.000    3.333    0.000    0.000    0.000    0.000 
#    0.000    0.000    0.000    0.000    0.000    0.000 
#
# Total GULP energy -133748.775155 kJ/mol
# GULP energy per Si atom -5572.865631 kJ/mol
# Density = 2.114052 g / cm^3
# Si number density = 21.188748 Si / 1000 Ang^3
#
#
#
# Elastic Constant Matrix: (Units=GPa)
#
#
# Indices 1 2 3 4 5 6 
#
# 1 82.3673 27.6657 19.0583 0.0000 -4.4706 0.0000
# 2 27.6657 150.0205 61.3244 0.0000 -12.1847 0.0000
# 3 19.0583 61.3244 83.6739 0.0000 -4.3323 0.0000
# 4 0.0000 0.0000 0.0000 12.8293 0.0000 8.2614
# 5 -4.4706 -12.1847 -4.3323 0.0000 26.7555 0.0000
# 6 0.0000 0.0000 0.0000 8.2614 0.0000 34.4476
#
#
#
# Elastic Compliance Matrix: (Units=1/GPa)
#
#
# Indices 1 2 3 4 5 6 
#
# 1 0.013152 -0.001613 -0.001752 0.000000 0.001179 0.000000
# 2 -0.001613 0.010000 -0.006797 0.000000 0.003184 0.000000
# 3 -0.001752 -0.006797 0.017301 0.000000 -0.000587 0.000000
# 4 0.000000 0.000000 0.000000 0.092183 0.000000 -0.022108
# 5 0.001179 0.003184 -0.000587 0.000000 0.038928 0.000000
# 6 0.000000 0.000000 0.000000 -0.022108 0.000000 0.034332
#
#
# Mechanical properties :
#
#
# Convention : Reuss Voigt Hill
#
# Bulk Modulus (GPa) = 49.67991 59.12872 54.40432
# Shear Modulus (GPa) = 21.46572 28.67403 25.06988
#
# Velocity S-wave (km/s) = 3.18633 3.68267 3.44345
# Velocity P-wave (km/s) = 6.08557 6.78594 6.44528
#
# Compressibility (1/GPa) = 0.02012886
#
# Stress axis : x y z
#
# Youngs Moduli (GPa) = 76.03365 99.99742 57.79941
#
# Poissons Ratio (x) = 0.16134 0.10127
# Poissons Ratio (y) = 0.12268 0.39285
# Poissons Ratio (z) = 0.13322 0.67966
#
# Static dielectric constant tensor:
#      x y z
#    x 1.862430 0.000000 0.015820 
#    y 0.000000 1.761000 0.000000 
#    z 0.015820 0.000000 1.762850 
# 
# From -- ./inp_files/143614.got.cif
#   From: 2010.05.17/outbox.cif.g08.bks.cpg/sg15_72_cif.got.tgz:143614.got - 2010.06.03 18:47:42.
