data_PCOD9280615
_publ_section_title
;
Structure prediction by ZEFSAII (Michael W. Deem and Ramdas Pophale) SiO2 
 PCOD9280615
Probable space group: C 2/C
;
_chemical_formula_sum "Si O2"
_cell_formula_units_Z 64
_cell_length_a 27.122195
_cell_length_b 20.857621
_cell_length_c 11.837265
_cell_angle_alpha 90.000000
_cell_angle_beta 21.886445
_cell_angle_gamma 90.000000
_cell_volume 2496.203045
_symmetry_space_group_name_H-M "C 2/C"
_symmetry_group_IT_number 15
_symmetry_cell_setting 'monoclinic'
loop_
_space_group_symop_operation_xyz
x,y,z
-x,y,1/2-z
-x,-y,-z
x,-y,1/2+z
1/2+x,1/2+y,z
1/2-x,1/2+y,1/2-z
1/2-x,1/2-y,-z
1/2+x,1/2-y,1/2+z
loop_
_atom_site_type_symbol
_atom_site_label
_atom_site_fract_x
_atom_site_fract_y
_atom_site_fract_z
Si Si1 0.304152 0.783528 0.161548
Si Si2 0.224463 0.061230 0.415530
Si Si3 0.495385 0.883625 0.392475
Si Si4 0.212982 0.916152 0.447368
Si Si5 0.353795 0.713214 0.698067
Si Si6 0.239407 0.941524 0.643388
Si Si7 0.533783 0.767747 0.483214
Si Si8 0.411311 0.571691 0.581808
O O1 0.289535 0.857539 0.230024
O O2 0.174179 0.760691 0.368652
O O3 0.418797 0.776176 0.823253
O O4 0.342906 0.751082 0.198092
O O5 0.096379 0.062907 0.765666
O O6 0.270307 0.987357 0.306308
O O7 0.343688 0.095959 0.225860
O O8 0.196265 0.090353 0.353067
O O9 0.500000 0.863930 0.250000
O O10 0.601121 0.940716 0.183861
O O11 0.534225 0.831226 0.403595
O O12 0.208072 0.907592 0.592880
O O13 0.062448 0.921781 0.724665
O O14 0.488632 0.717517 0.483590
O O15 0.337207 0.637879 0.716159
O O16 0.250000 0.750000 0.000000
O O17 0.169066 0.010335 0.789474
#
# Coordination Sequence:
#
# PCOD9280615 Si02
#       8
#     8   8   8   8   8   8   8   8
#     4  10  21  41  70  98 131 170 227 290 339 400
#     4  10  21  37  61  95 134 186 215 268 349 405
#     4  10  21  41  64  98 139 177 225 278 348 404
#     4  11  23  40  61  99 136 170 228 278 331 412
#     4  10  22  43  67  94 129 176 230 280 334 402
#     4  10  21  40  63  98 138 173 220 283 337 414
#     4  10  21  44  70 100 133 177 234 285 341 405
#     4  11  24  41  64  93 135 180 228 273 340 413
#
# _framework density 25.638940000000002
#
# number of rings (size 3 to 8) (size 9 to 14) (size 15 to 20)
#    0.000    1.750    1.250    3.750    0.000    6.500 
#   15.750    8.125    0.000    0.000    0.000    0.000 
#    0.000    0.000    0.000    0.000    0.000    0.000 
#
# Total GULP energy -178785.536261 kJ/mol
# GULP energy per Si atom -5587.048008 kJ/mol
# Density = 2.558058 g / cm^3
# Si number density = 25.638940 Si / 1000 Ang^3
#
#
#
# Elastic Constant Matrix: (Units=GPa)
#
#
# Indices 1 2 3 4 5 6 
#
# 1 255.9103 17.4969 27.2502 -0.0002 -7.3508 0.0000
# 2 17.4969 61.6663 14.5894 -0.0009 -15.6610 -0.0001
# 3 27.2502 14.5894 65.1111 -0.0016 8.0782 0.0000
# 4 -0.0002 -0.0009 -0.0016 27.2073 -0.0002 -1.9156
# 5 -7.3508 -15.6610 8.0782 -0.0002 30.4180 0.0002
# 6 0.0000 -0.0001 0.0000 -1.9156 0.0002 29.5308
#
#
#
# Elastic Compliance Matrix: (Units=1/GPa)
#
#
# Indices 1 2 3 4 5 6 
#
# 1 0.004166 -0.000435 -0.001802 0.000000 0.001261 0.000000
# 2 -0.000435 0.020870 -0.006012 0.000000 0.012237 0.000000
# 3 -0.001802 -0.006012 0.018508 0.000001 -0.008446 0.000000
# 4 0.000000 0.000000 0.000001 0.036923 0.000000 0.002395
# 5 0.001261 0.012237 -0.008446 0.000000 0.041723 0.000000
# 6 0.000000 0.000000 0.000000 0.002395 0.000000 0.034018
#
#
# Mechanical properties :
#
#
# Convention : Reuss Voigt Hill
#
# Bulk Modulus (GPa) = 36.97748 55.70673 46.34211
# Shear Modulus (GPa) = 27.51450 38.98797 33.25123
#
# Velocity S-wave (km/s) = 3.27946 3.90379 3.60516
# Velocity P-wave (km/s) = 5.36595 6.48799 5.95346
#
# Compressibility (1/GPa) = 0.02704349
#
# Stress axis : x y z
#
# Youngs Moduli (GPa) = 240.06624 47.91592 54.03153
#
# Poissons Ratio (x) = 0.02085 0.09738
# Poissons Ratio (y) = 0.10448 0.32485
# Poissons Ratio (z) = 0.43267 0.28809
#
# Static dielectric constant tensor:
#      x y z
#    x 2.116880 0.000000 -0.037630 
#    y 0.000000 2.014540 0.000000 
#    z -0.037630 0.000000 2.053640 
# 
# From -- ./inp_files/124446.got.cif
#   From: 2010.05.17/outbox.cif.g08.bks.cpg/sg15_63_cif.got.tgz:124446.got - 2010.06.03 18:47:42.
