data_PCOD9280710
_publ_section_title
;
Structure prediction by ZEFSAII (Michael W. Deem and Ramdas Pophale) SiO2 
 PCOD9280710
Probable space group: C 2/C
;
_chemical_formula_sum "Si O2"
_cell_formula_units_Z 56
_cell_length_a 18.531748
_cell_length_b 9.925707
_cell_length_c 16.058217
_cell_angle_alpha 90.000000
_cell_angle_beta 133.080492
_cell_angle_gamma 90.000000
_cell_volume 2157.410938
_symmetry_space_group_name_H-M "C 2/C"
_symmetry_group_IT_number 15
_symmetry_cell_setting 'monoclinic'
loop_
_space_group_symop_operation_xyz
x,y,z
-x,y,1/2-z
-x,-y,-z
x,-y,1/2+z
1/2+x,1/2+y,z
1/2-x,1/2+y,1/2-z
1/2-x,1/2-y,-z
1/2+x,1/2-y,1/2+z
loop_
_atom_site_type_symbol
_atom_site_label
_atom_site_fract_x
_atom_site_fract_y
_atom_site_fract_z
Si Si1 0.790824 0.929713 0.622937
Si Si2 0.949041 0.362632 0.547475
Si Si3 0.604132 0.831680 0.545531
Si Si4 0.756557 0.232692 0.605212
Si Si5 0.431441 0.550634 0.021538
Si Si6 0.000000 0.948409 0.750000
Si Si7 0.000000 0.511235 0.250000
Si Si8 0.293681 0.024757 0.630288
O O1 0.799600 0.085705 0.658423
O O2 0.738092 0.938712 0.490525
O O3 0.721775 0.840826 0.627411
O O4 0.900248 0.876275 0.699717
O O5 0.926442 0.516244 0.501218
O O6 0.855565 0.273154 0.449115
O O7 0.049354 0.307874 0.588914
O O8 0.951569 0.387223 0.646438
O O9 0.558461 0.712022 0.454780
O O10 0.750000 0.250000 0.500000
O O11 0.807137 0.369778 0.669533
O O12 0.460474 0.480572 0.132760
O O13 0.500000 0.500000 0.000000
O O14 0.313135 0.548783 0.909302
O O15 0.909228 0.431088 0.221973
#
# Coordination Sequence:
#
# PCOD9280710 Si02
#       8
#     8   8   8   8   8   4   4   8
#     4   9  19  40  61  93 129 166 222 260 325 388
#     4  10  21  37  66  91 125 166 219 259 331 381
#     4  10  21  43  62  88 129 174 202 276 325 381
#     4   9  15  35  56  87 127 162 199 269 315 373
#     4  11  25  47  67  95 136 169 223 273 330 391
#     4  10  24  42  72  96 124 182 218 264 334 398
#     4  12  20  38  62 104 124 170 222 260 324 392
#     4  10  21  37  62  96 133 167 215 271 325 385
#
# _framework density 25.957039000000002
#
# number of rings (size 3 to 8) (size 9 to 14) (size 15 to 20)
#    0.000    2.000    4.286    0.857    0.000    4.571 
#    7.714    0.000    0.000    0.000    0.000    0.000 
#    0.000    0.000    0.000    0.000    0.000    0.000 
#
# Total GULP energy -155966.875589 kJ/mol
# GULP energy per Si atom -5570.245557 kJ/mol
# Density = 2.589796 g / cm^3
# Si number density = 25.957039 Si / 1000 Ang^3
#
#
#
# Elastic Constant Matrix: (Units=GPa)
#
#
# Indices 1 2 3 4 5 6 
#
# 1 234.4949 34.4291 47.1030 0.0000 59.9647 0.0000
# 2 34.4291 102.5365 14.1593 0.0000 17.9197 0.0000
# 3 47.1030 14.1593 76.4226 0.0000 38.7738 0.0000
# 4 0.0000 0.0000 0.0000 9.3492 0.0000 2.4923
# 5 59.9647 17.9197 38.7738 0.0000 46.4186 0.0000
# 6 0.0000 0.0000 0.0000 2.4923 0.0000 10.6711
#
#
#
# Elastic Compliance Matrix: (Units=1/GPa)
#
#
# Indices 1 2 3 4 5 6 
#
# 1 0.006430 -0.000755 0.000422 0.000000 -0.008368 0.000000
# 2 -0.000755 0.010548 0.000143 0.000000 -0.003216 0.000000
# 3 0.000422 0.000143 0.022741 0.000000 -0.019596 0.000000
# 4 0.000000 0.000000 0.000000 0.114063 0.000000 -0.026640
# 5 -0.008368 -0.003216 -0.019596 0.000000 0.049964 0.000000
# 6 0.000000 0.000000 0.000000 -0.026640 0.000000 0.099933
#
#
# Mechanical properties :
#
#
# Convention : Reuss Voigt Hill
#
# Bulk Modulus (GPa) = 25.41989 67.20408 46.31198
# Shear Modulus (GPa) = 15.76429 34.47195 25.11812
#
# Velocity S-wave (km/s) = 2.46706 3.64818 3.11413
# Velocity P-wave (km/s) = 4.23433 6.61002 5.55076
#
# Compressibility (1/GPa) = 0.03933928
#
# Stress axis : x y z
#
# Youngs Moduli (GPa) = 155.51041 94.80036 43.97397
#
# Poissons Ratio (x) = 0.07158 -0.01857
# Poissons Ratio (y) = 0.11741 -0.00627
# Poissons Ratio (z) = -0.06565 -0.01352
#
# Static dielectric constant tensor:
#      x y z
#    x 2.172480 0.000000 0.007340 
#    y 0.000000 2.079980 0.000000 
#    z 0.007340 0.000000 2.072270 
# 
# From -- ./inp_files/210712.got.cif
#   From: 2010.05.17/outbox.cif.g08.bks.cpg/sg15_106_cif.got.tgz:210712.got - 2010.06.03 18:47:42.
