data_PCOD9280516
_publ_section_title
;
Structure prediction by ZEFSAII (Michael W. Deem and Ramdas Pophale) SiO2 
 PCOD9280516
Probable space group: C 2/C
;
_chemical_formula_sum "Si O2"
_cell_formula_units_Z 64
_cell_length_a 18.158470
_cell_length_b 13.683131
_cell_length_c 18.595852
_cell_angle_alpha 90.000000
_cell_angle_beta 40.389440
_cell_angle_gamma 90.000000
_cell_volume 2993.933209
_symmetry_space_group_name_H-M "C 2/C"
_symmetry_group_IT_number 15
_symmetry_cell_setting 'monoclinic'
loop_
_space_group_symop_operation_xyz
x,y,z
-x,y,1/2-z
-x,-y,-z
x,-y,1/2+z
1/2+x,1/2+y,z
1/2-x,1/2+y,1/2-z
1/2-x,1/2-y,-z
1/2+x,1/2-y,1/2+z
loop_
_atom_site_type_symbol
_atom_site_label
_atom_site_fract_x
_atom_site_fract_y
_atom_site_fract_z
Si Si1 0.911966 0.947048 0.967757
Si Si2 0.498856 0.925546 0.335239
Si Si3 0.217841 0.680433 0.338740
Si Si4 0.259646 0.831731 0.208491
Si Si5 0.263965 0.441125 0.937733
Si Si6 0.773518 0.518849 0.279341
Si Si7 0.986772 0.739648 0.560035
Si Si8 0.424794 0.403704 0.241273
O O1 0.828573 0.916366 0.963813
O O2 0.977980 0.851020 0.948554
O O3 0.830160 0.994251 0.089493
O O4 0.000905 0.026106 0.867202
O O5 0.500000 0.908489 0.250000
O O6 0.370431 0.959661 0.450961
O O7 0.602822 0.998985 0.277435
O O8 0.519935 0.823521 0.361449
O O9 0.245099 0.791251 0.299983
O O10 0.273347 0.642910 0.370159
O O11 0.245576 0.620823 0.246405
O O12 0.084286 0.680847 0.447108
O O13 0.275221 0.946082 0.209390
O O14 0.373281 0.779438 0.098819
O O15 0.144409 0.822328 0.250530
O O16 0.331622 0.531017 0.852623
O O17 0.500000 0.362659 0.250000
#
# Coordination Sequence:
#
# PCOD9280516 Si02
#       8
#     8   8   8   8   8   8   8   8
#     4  11  22  42  67 103 133 174 223 282 337 394
#     4  10  21  37  60  95 135 176 213 270 335 394
#     4  11  23  40  63 101 128 182 220 271 336 393
#     4  11  23  42  63  94 133 168 225 274 333 394
#     4  10  21  39  67  95 136 174 221 272 339 401
#     4  11  23  39  65  97 136 172 222 276 327 398
#     4  10  24  36  64  98 135 171 219 273 340 405
#     4  10  23  41  67  93 127 180 226 274 333 392
#
# _framework density 21.376562
#
# number of rings (size 3 to 8) (size 9 to 14) (size 15 to 20)
#    0.000    1.500    3.750    0.750    1.750    8.500 
#    0.000    0.625    0.000    2.250    0.000    0.000 
#    0.000    0.000    0.000    0.000    0.000    0.000 
#
# Total GULP energy -178421.241580 kJ/mol
# GULP energy per Si atom -5575.663799 kJ/mol
# Density = 2.132791 g / cm^3
# Si number density = 21.376562 Si / 1000 Ang^3
#
#
#
# Elastic Constant Matrix: (Units=GPa)
#
#
# Indices 1 2 3 4 5 6 
#
# 1 132.7383 29.2094 57.7058 0.0000 -20.0929 0.0000
# 2 29.2094 35.9108 24.3144 0.0000 -1.8656 0.0000
# 3 57.7058 24.3144 120.9716 0.0000 -14.7349 0.0000
# 4 0.0000 0.0000 0.0000 20.5350 0.0000 -3.2105
# 5 -20.0929 -1.8656 -14.7349 0.0000 33.9487 0.0000
# 6 0.0000 0.0000 0.0000 -3.2105 0.0000 29.3750
#
#
#
# Elastic Compliance Matrix: (Units=1/GPa)
#
#
# Indices 1 2 3 4 5 6 
#
# 1 0.011188 -0.006519 -0.003446 0.000000 0.004768 0.000000
# 2 -0.006519 0.036071 -0.004613 0.000000 -0.003878 0.000000
# 3 -0.003446 -0.004613 0.011147 0.000000 0.002545 0.000000
# 4 0.000000 0.000000 0.000000 0.049544 0.000000 0.005415
# 5 0.004768 -0.003878 0.002545 0.000000 0.033170 0.000000
# 6 0.000000 0.000000 0.000000 0.005415 0.000000 0.034634
#
#
# Mechanical properties :
#
#
# Convention : Reuss Voigt Hill
#
# Bulk Modulus (GPa) = 34.18699 56.89775 45.54237
# Shear Modulus (GPa) = 23.29265 28.66449 25.97857
#
# Velocity S-wave (km/s) = 3.30454 3.66584 3.48987
# Velocity P-wave (km/s) = 5.53059 6.67777 6.13107
#
# Compressibility (1/GPa) = 0.02925089
#
# Stress axis : x y z
#
# Youngs Moduli (GPa) = 89.38199 27.72301 89.70840
#
# Poissons Ratio (x) = 0.18074 0.30911
# Poissons Ratio (y) = 0.58272 0.41378
# Poissons Ratio (z) = 0.30799 0.12787
#
# Static dielectric constant tensor:
#      x y z
#    x 1.822330 0.000000 -0.045340 
#    y 0.000000 1.740840 0.000000 
#    z -0.045340 0.000000 1.867190 
# 
# From -- ./inp_files/211364.got.cif
#   From: 2010.05.17/outbox.cif.g08.bks.cpg/sg15_106_cif.got.tgz:211364.got - 2010.06.03 18:47:42.
