data_PCOD9280455
_publ_section_title
;
Structure prediction by ZEFSAII (Michael W. Deem and Ramdas Pophale) SiO2 
 PCOD9280455
Probable space group: C 2/C
;
_chemical_formula_sum "Si O2"
_cell_formula_units_Z 48
_cell_length_a 7.372433
_cell_length_b 18.548027
_cell_length_c 19.015360
_cell_angle_alpha 90.000000
_cell_angle_beta 122.997540
_cell_angle_gamma 90.000000
_cell_volume 2180.803907
_symmetry_space_group_name_H-M "C 2/C"
_symmetry_group_IT_number 15
_symmetry_cell_setting 'monoclinic'
loop_
_space_group_symop_operation_xyz
x,y,z
-x,y,1/2-z
-x,-y,-z
x,-y,1/2+z
1/2+x,1/2+y,z
1/2-x,1/2+y,1/2-z
1/2-x,1/2-y,-z
1/2+x,1/2-y,1/2+z
loop_
_atom_site_type_symbol
_atom_site_label
_atom_site_fract_x
_atom_site_fract_y
_atom_site_fract_z
Si Si1 0.853300 0.467177 0.564049
Si Si2 0.189586 0.167457 0.978881
Si Si3 0.789504 0.808760 0.173422
Si Si4 0.183114 0.544659 0.727701
Si Si5 0.563605 0.307194 0.944443
Si Si6 0.013958 0.962037 0.891422
O O1 0.877683 0.384319 0.546289
O O2 0.678162 0.467777 0.590512
O O3 0.727320 0.503447 0.472098
O O4 0.069166 0.502842 0.638791
O O5 0.152036 0.155717 0.889384
O O6 0.250000 0.250000 0.000000
O O7 0.990633 0.157993 0.990140
O O8 0.721710 0.873976 0.209678
O O9 0.620405 0.745800 0.123628
O O10 0.000000 0.773003 0.250000
O O11 0.397541 0.504253 0.802684
O O12 0.000000 0.545866 0.750000
O O13 0.572617 0.377163 0.896291
O O14 0.750000 0.250000 0.000000
#
# Coordination Sequence:
#
# PCOD9280455 Si02
#       6
#     8   8   8   8   8   8
#     4   9  17  33  58  81 114 156 190 245 307 358
#     4   9  20  37  56  84 119 154 196 244 308 375
#     4  11  23  37  58  86 121 159 195 252 321 377
#     4  10  21  37  60  88 116 157 210 254 308 381
#     4  10  21  39  63  87 115 160 213 255 305 374
#     4   9  18  33  56  88 117 146 198 257 302 357
#
# _framework density 22.010231999999998
#
# number of rings (size 3 to 8) (size 9 to 14) (size 15 to 20)
#    0.000    2.333    0.000    2.000    0.000    9.333 
#    0.000    3.333    0.000    5.000    0.000    0.000 
#    0.000    0.000    0.000    0.000    0.000    0.000 
#
# Total GULP energy -133872.365481 kJ/mol
# GULP energy per Si atom -5578.015228 kJ/mol
# Density = 2.196014 g / cm^3
# Si number density = 22.010232 Si / 1000 Ang^3
#
#
#
# Elastic Constant Matrix: (Units=GPa)
#
#
# Indices 1 2 3 4 5 6 
#
# 1 41.4245 26.5100 45.6191 0.0000 4.7816 0.0000
# 2 26.5100 157.5343 71.2299 0.0000 21.1675 0.0000
# 3 45.6191 71.2299 154.8148 0.0000 27.1018 0.0000
# 4 0.0000 0.0000 0.0000 42.8572 0.0000 7.4881
# 5 4.7816 21.1675 27.1018 0.0000 43.6566 0.0000
# 6 0.0000 0.0000 0.0000 7.4881 0.0000 22.8290
#
#
#
# Elastic Compliance Matrix: (Units=1/GPa)
#
#
# Indices 1 2 3 4 5 6 
#
# 1 0.036495 -0.001853 -0.010500 0.000000 0.003420 0.000000
# 2 -0.001853 0.008236 -0.002894 0.000000 -0.001994 0.000000
# 3 -0.010500 -0.002894 0.011711 0.000000 -0.004717 0.000000
# 4 0.000000 0.000000 0.000000 0.024752 0.000000 -0.008119
# 5 0.003420 -0.001994 -0.004717 0.000000 0.026426 0.000000
# 6 0.000000 0.000000 0.000000 -0.008119 0.000000 0.046467
#
#
# Mechanical properties :
#
#
# Convention : Reuss Voigt Hill
#
# Bulk Modulus (GPa) = 38.54061 71.16569 54.85315
# Shear Modulus (GPa) = 25.87589 35.89621 30.88605
#
# Velocity S-wave (km/s) = 3.43247 4.04281 3.75007
# Velocity P-wave (km/s) = 5.76693 7.36176 6.61260
#
# Compressibility (1/GPa) = 0.02594666
#
# Stress axis : x y z
#
# Youngs Moduli (GPa) = 27.40133 121.41386 85.39245
#
# Poissons Ratio (x) = 0.22502 0.89660
# Poissons Ratio (y) = 0.05078 0.24716
# Poissons Ratio (z) = 0.28771 0.35142
#
# Static dielectric constant tensor:
#      x y z
#    x 1.914190 0.000000 -0.037150 
#    y 0.000000 1.817840 0.000000 
#    z -0.037150 0.000000 1.828790 
# 
# From -- ./inp_files/192301.got.cif
#   From: 2010.05.17/outbox.cif.g08.bks.cpg/sg15_97_cif.got.tgz:192301.got - 2010.06.03 18:47:42.
