data_PCOD9280792
_publ_section_title
;
Structure prediction by ZEFSAII (Michael W. Deem and Ramdas Pophale) SiO2 
 PCOD9280792
Probable space group: C 2/C
;
_chemical_formula_sum "Si O2"
_cell_formula_units_Z 56
_cell_length_a 31.594121
_cell_length_b 9.484027
_cell_length_c 7.689387
_cell_angle_alpha 90.000000
_cell_angle_beta 108.710591
_cell_angle_gamma 90.000000
_cell_volume 2182.277619
_symmetry_space_group_name_H-M "C 2/C"
_symmetry_group_IT_number 15
_symmetry_cell_setting 'monoclinic'
loop_
_space_group_symop_operation_xyz
x,y,z
-x,y,1/2-z
-x,-y,-z
x,-y,1/2+z
1/2+x,1/2+y,z
1/2-x,1/2+y,1/2-z
1/2-x,1/2-y,-z
1/2+x,1/2-y,1/2+z
loop_
_atom_site_type_symbol
_atom_site_label
_atom_site_fract_x
_atom_site_fract_y
_atom_site_fract_z
Si Si1 0.628485 0.762994 0.965040
Si Si2 0.171463 0.292261 0.382908
Si Si3 0.452056 0.763276 0.137867
Si Si4 0.784447 0.941139 0.752794
Si Si5 0.630250 0.370755 0.112416
Si Si6 0.782647 0.594810 0.045103
Si Si7 0.547940 0.057903 0.220853
O O1 0.619517 0.645154 0.802843
O O2 0.590318 0.876937 0.875981
O O3 0.678083 0.807460 0.969071
O O4 0.635261 0.758879 0.182329
O O5 0.206569 0.168632 0.389107
O O6 0.152887 0.268135 0.552372
O O7 0.191938 0.445818 0.389188
O O8 0.500000 0.701202 0.250000
O O9 0.444930 0.888833 0.270042
O O10 0.416429 0.639889 0.053271
O O11 0.453279 0.859765 0.963872
O O12 0.755121 0.069174 0.647604
O O13 0.832944 0.006379 0.867451
O O14 0.749391 0.871239 0.837129
O O15 0.500000 0.082798 0.250000
#
# Coordination Sequence:
#
# PCOD9280792 Si02
#       7
#     8   8   8   8   8   8   8
#     4  11  26  41  66 100 137 168 224 283 333 405
#     4  12  26  43  68  92 132 185 218 279 342 389
#     4  10  21  38  65  96 135 172 216 279 340 403
#     4  12  25  43  64  91 131 178 230 271 322 401
#     4  11  26  43  66  97 133 175 229 271 335 404
#     4  12  24  41  65  96 129 170 229 275 334 398
#     4  10  21  37  63  99 134 170 213 273 349 407
#
# _framework density 25.661261
#
# number of rings (size 3 to 8) (size 9 to 14) (size 15 to 20)
#    0.000    0.857    2.857    4.714   10.000    1.143 
#    0.000    0.000    0.000    1.714    0.000    0.000 
#    0.000    0.000    0.000    0.000    0.000    0.000 
#
# Total GULP energy -156381.633517 kJ/mol
# GULP energy per Si atom -5585.058340 kJ/mol
# Density = 2.560286 g / cm^3
# Si number density = 25.661261 Si / 1000 Ang^3
#
#
#
# Elastic Constant Matrix: (Units=GPa)
#
#
# Indices 1 2 3 4 5 6 
#
# 1 126.7379 22.7091 30.5626 0.0000 17.0422 0.0000
# 2 22.7091 57.7968 4.1594 0.0000 7.3726 0.0000
# 3 30.5626 4.1594 114.3476 0.0000 22.2985 0.0000
# 4 0.0000 0.0000 0.0000 28.8453 0.0000 12.5022
# 5 17.0422 7.3726 22.2985 0.0000 61.1873 0.0000
# 6 0.0000 0.0000 0.0000 12.5022 0.0000 38.1944
#
#
#
# Elastic Compliance Matrix: (Units=1/GPa)
#
#
# Indices 1 2 3 4 5 6 
#
# 1 0.009162 -0.003272 -0.002055 0.000000 -0.001409 0.000000
# 2 -0.003272 0.018747 0.000490 0.000000 -0.001526 0.000000
# 3 -0.002055 0.000490 0.009879 0.000000 -0.003087 0.000000
# 4 0.000000 0.000000 0.000000 0.040399 0.000000 -0.013224
# 5 -0.001409 -0.001526 -0.003087 0.000000 0.018044 0.000000
# 6 0.000000 0.000000 0.000000 -0.013224 0.000000 0.030510
#
#
# Mechanical properties :
#
#
# Convention : Reuss Voigt Hill
#
# Bulk Modulus (GPa) = 35.57008 45.97161 40.77084
# Shear Modulus (GPa) = 34.29682 41.74216 38.01949
#
# Velocity S-wave (km/s) = 3.65981 4.03756 3.85332
# Velocity P-wave (km/s) = 5.63475 6.29997 5.97662
#
# Compressibility (1/GPa) = 0.02811352
#
# Stress axis : x y z
#
# Youngs Moduli (GPa) = 109.15169 53.34175 101.22869
#
# Poissons Ratio (x) = 0.17454 0.20802
# Poissons Ratio (y) = 0.35716 -0.04963
# Poissons Ratio (z) = 0.22430 -0.02615
#
# Static dielectric constant tensor:
#      x y z
#    x 2.037200 0.000000 -0.064540 
#    y 0.000000 2.051490 0.000000 
#    z -0.064540 0.000000 2.202350 
# 
# From -- ./inp_files/69167.got.cif
#   From: 2010.05.17/outbox.cif.g08.bks.cpg/sg15_35_cif.got.tgz:69167.got - 2010.06.03 18:47:42.
