data_PCOD9280755
_publ_section_title
;
Structure prediction by ZEFSAII (Michael W. Deem and Ramdas Pophale) SiO2 
 PCOD9280755
Probable space group: C 2/C
;
_chemical_formula_sum "Si O2"
_cell_formula_units_Z 44
_cell_length_a 8.436742
_cell_length_b 15.963135
_cell_length_c 18.863533
_cell_angle_alpha 90.000000
_cell_angle_beta 119.487051
_cell_angle_gamma 90.000000
_cell_volume 2211.404983
_symmetry_space_group_name_H-M "C 2/C"
_symmetry_group_IT_number 15
_symmetry_cell_setting 'monoclinic'
loop_
_space_group_symop_operation_xyz
x,y,z
-x,y,1/2-z
-x,-y,-z
x,-y,1/2+z
1/2+x,1/2+y,z
1/2-x,1/2+y,1/2-z
1/2-x,1/2-y,-z
1/2+x,1/2-y,1/2+z
loop_
_atom_site_type_symbol
_atom_site_label
_atom_site_fract_x
_atom_site_fract_y
_atom_site_fract_z
Si Si1 0.075449 0.546204 0.121795
Si Si2 0.189737 0.573780 0.765366
Si Si3 0.062879 0.892449 0.058545
Si Si4 0.571723 0.234300 0.412092
Si Si5 0.228450 0.021109 0.471982
Si Si6 0.000000 0.821500 0.250000
O O1 0.133635 0.508235 0.209286
O O2 0.241397 0.542121 0.102769
O O3 0.994449 0.639147 0.105290
O O4 0.923268 0.485199 0.053565
O O5 0.298271 0.556589 0.861299
O O6 0.332846 0.625017 0.747493
O O7 0.000000 0.615784 0.750000
O O8 0.073390 0.796105 0.081934
O O9 0.107049 0.912492 0.987684
O O10 0.870147 0.932136 0.038300
O O11 0.750000 0.250000 0.500000
O O12 0.582177 0.268367 0.333698
#
# Coordination Sequence:
#
# PCOD9280755 Si02
#       6
#     8   8   8   8   8   4
#     4  11  22  37  64  94 121 162 216 256 317 382
#     4  11  22  40  68  88 123 169 217 258 310 386
#     4  10  21  41  62  89 125 167 210 262 317 376
#     4  11  23  40  64  93 130 167 204 266 332 371
#     4  10  21  37  63  92 120 164 215 254 303 390
#     4  10  26  44  66  92 132 170 212 268 324 378
#
# _framework density 19.896854000000001
#
# number of rings (size 3 to 8) (size 9 to 14) (size 15 to 20)
#    0.000    1.455    3.636    2.182    3.818    0.727 
#    0.000    1.818   16.000    0.000    0.000    0.000 
#    0.000    0.000    0.000    0.000    0.000    0.000 
#
# Total GULP energy -122631.583338 kJ/mol
# GULP energy per Si atom -5574.162879 kJ/mol
# Density = 1.985157 g / cm^3
# Si number density = 19.896854 Si / 1000 Ang^3
#
#
#
# Elastic Constant Matrix: (Units=GPa)
#
#
# Indices 1 2 3 4 5 6 
#
# 1 122.3330 29.3894 31.6261 0.0000 -18.5851 0.0000
# 2 29.3894 77.6960 19.1040 0.0000 -10.4796 0.0000
# 3 31.6261 19.1040 93.7791 0.0000 -2.7603 0.0000
# 4 0.0000 0.0000 0.0000 29.2958 0.0000 4.0665
# 5 -18.5851 -10.4796 -2.7603 0.0000 32.7276 0.0000
# 6 0.0000 0.0000 0.0000 4.0665 0.0000 7.5990
#
#
#
# Elastic Compliance Matrix: (Units=1/GPa)
#
#
# Indices 1 2 3 4 5 6 
#
# 1 0.010230 -0.002541 -0.002792 0.000000 0.004760 0.000000
# 2 -0.002541 0.014757 -0.002058 0.000000 0.003109 0.000000
# 3 -0.002792 -0.002058 0.011988 0.000000 -0.001233 0.000000
# 4 0.000000 0.000000 0.000000 0.036874 0.000000 -0.019733
# 5 0.004760 0.003109 -0.001233 0.000000 0.034150 0.000000
# 6 0.000000 0.000000 0.000000 -0.019733 0.000000 0.142157
#
#
# Mechanical properties :
#
#
# Convention : Reuss Voigt Hill
#
# Bulk Modulus (GPa) = 45.05931 50.44968 47.75449
# Shear Modulus (GPa) = 18.35976 28.17038 23.26507
#
# Velocity S-wave (km/s) = 3.04097 3.76682 3.42319
# Velocity P-wave (km/s) = 5.91824 6.65802 6.29900
#
# Compressibility (1/GPa) = 0.02219297
#
# Stress axis : x y z
#
# Youngs Moduli (GPa) = 97.75293 67.76392 83.41747
#
# Poissons Ratio (x) = 0.17219 0.23292
# Poissons Ratio (y) = 0.24839 0.17166
# Poissons Ratio (z) = 0.27295 0.13944
#
# Static dielectric constant tensor:
#      x y z
#    x 1.781780 0.000000 0.030230 
#    y 0.000000 1.702370 0.000000 
#    z 0.030230 0.000000 1.708980 
# 
# From -- ./inp_files/188761.got.cif
#   From: 2010.05.17/outbox.cif.g08.bks.cpg/sg15_95_cif.got.tgz:188761.got - 2010.06.03 18:47:42.
