data_PCOD9280491
_publ_section_title
;
Structure prediction by ZEFSAII (Michael W. Deem and Ramdas Pophale) SiO2 
 PCOD9280491
Probable space group: C 2/C
;
_chemical_formula_sum "Si O2"
_cell_formula_units_Z 48
_cell_length_a 9.344216
_cell_length_b 11.617602
_cell_length_c 20.233681
_cell_angle_alpha 90.000000
_cell_angle_beta 71.924073
_cell_angle_gamma 90.000000
_cell_volume 2088.109018
_symmetry_space_group_name_H-M "C 2/C"
_symmetry_group_IT_number 15
_symmetry_cell_setting 'monoclinic'
loop_
_space_group_symop_operation_xyz
x,y,z
-x,y,1/2-z
-x,-y,-z
x,-y,1/2+z
1/2+x,1/2+y,z
1/2-x,1/2+y,1/2-z
1/2-x,1/2-y,-z
1/2+x,1/2-y,1/2+z
loop_
_atom_site_type_symbol
_atom_site_label
_atom_site_fract_x
_atom_site_fract_y
_atom_site_fract_z
Si Si1 0.522312 0.894840 0.088728
Si Si2 0.834893 0.433036 0.784200
Si Si3 0.791401 0.859819 0.151760
Si Si4 0.209852 0.817984 0.191780
Si Si5 0.608330 0.857885 0.927138
Si Si6 0.365076 0.437935 0.812443
O O1 0.645137 0.859601 0.125307
O O2 0.366412 0.837111 0.132631
O O3 0.490510 0.033586 0.086263
O O4 0.573507 0.853656 0.009386
O O5 0.702102 0.501275 0.841506
O O6 0.855173 0.307413 0.811447
O O7 0.771625 0.425875 0.719636
O O8 0.000000 0.487789 0.750000
O O9 0.765778 0.826974 0.232347
O O10 0.906279 0.768112 0.104386
O O11 0.108075 0.925474 0.183254
O O12 0.785664 0.889437 0.888626
O O13 0.500000 0.385155 0.750000
#
# Coordination Sequence:
#
# PCOD9280491 Si02
#       6
#     8   8   8   8   8   8
#     4  10  22  40  64  90 130 173 217 265 333 393
#     4  11  22  37  62  92 127 163 214 272 330 384
#     4  11  21  36  62  92 119 169 216 263 322 389
#     4  10  21  37  60  91 122 164 213 271 324 389
#     4  10  21  39  63  92 129 168 222 266 324 405
#     4  10  21  37  61  91 121 164 211 272 323 378
#
# _framework density 22.987306
#
# number of rings (size 3 to 8) (size 9 to 14) (size 15 to 20)
#    0.000    1.667    1.667    4.500    2.333    0.667 
#    0.000    0.833    3.667    6.000    0.000    0.000 
#    0.000    0.000    0.000    0.000    0.000    0.000 
#
# Total GULP energy -133761.926023 kJ/mol
# GULP energy per Si atom -5573.413584 kJ/mol
# Density = 2.293499 g / cm^3
# Si number density = 22.987306 Si / 1000 Ang^3
#
#
#
# Elastic Constant Matrix: (Units=GPa)
#
#
# Indices 1 2 3 4 5 6 
#
# 1 61.8384 -8.7299 37.6739 0.0000 -3.5176 0.0000
# 2 -8.7299 109.9946 1.3470 0.0000 9.6176 0.0000
# 3 37.6739 1.3470 149.6923 0.0000 -13.0051 0.0000
# 4 0.0000 0.0000 0.0000 34.3369 0.0000 -9.2832
# 5 -3.5176 9.6176 -13.0051 0.0000 14.3907 0.0000
# 6 0.0000 0.0000 0.0000 -9.2832 0.0000 22.5135
#
#
#
# Elastic Compliance Matrix: (Units=1/GPa)
#
#
# Indices 1 2 3 4 5 6 
#
# 1 0.019386 0.001676 -0.004970 0.000000 -0.000873 0.000000
# 2 0.001676 0.009869 -0.001137 0.000000 -0.007214 0.000000
# 3 -0.004970 -0.001137 0.008575 0.000000 0.007295 0.000000
# 4 0.000000 0.000000 0.000000 0.032777 0.000000 0.013515
# 5 -0.000873 -0.007214 0.007295 0.000000 0.080690 0.000000
# 6 0.000000 0.000000 0.000000 0.013515 0.000000 0.049991
#
#
# Mechanical properties :
#
#
# Convention : Reuss Voigt Hill
#
# Bulk Modulus (GPa) = 34.52162 42.45634 38.48898
# Shear Modulus (GPa) = 22.74733 33.66383 28.20558
#
# Velocity S-wave (km/s) = 3.14914 3.83097 3.50667
# Velocity P-wave (km/s) = 5.31724 6.17074 5.75982
#
# Compressibility (1/GPa) = 0.02896735
#
# Stress axis : x y z
#
# Youngs Moduli (GPa) = 51.58385 101.32698 116.61595
#
# Poissons Ratio (x) = -0.16980 0.57956
# Poissons Ratio (y) = -0.08644 0.13262
# Poissons Ratio (z) = 0.25636 0.11524
#
# Static dielectric constant tensor:
#      x y z
#    x 1.909650 0.000000 0.022940 
#    y 0.000000 2.051980 0.000000 
#    z 0.022940 0.000000 1.841710 
# 
# From -- ./inp_files/236830.got.cif
#   From: 2010.05.17/outbox.cif.g08.bks.cpg/sg15_119_cif.got.tgz:236830.got - 2010.06.03 18:47:42.
