data_PCOD9280267
_publ_section_title
;
Structure prediction by ZEFSAII (Michael W. Deem and Ramdas Pophale) SiO2 
 PCOD9280267
Probable space group: C 2/C
;
_chemical_formula_sum "Si O2"
_cell_formula_units_Z 48
_cell_length_a 19.554901
_cell_length_b 17.503146
_cell_length_c 15.398272
_cell_angle_alpha 90.000000
_cell_angle_beta 153.220070
_cell_angle_gamma 90.000000
_cell_volume 2374.657793
_symmetry_space_group_name_H-M "C 2/C"
_symmetry_group_IT_number 15
_symmetry_cell_setting 'monoclinic'
loop_
_space_group_symop_operation_xyz
x,y,z
-x,y,1/2-z
-x,-y,-z
x,-y,1/2+z
1/2+x,1/2+y,z
1/2-x,1/2+y,1/2-z
1/2-x,1/2-y,-z
1/2+x,1/2-y,1/2+z
loop_
_atom_site_type_symbol
_atom_site_label
_atom_site_fract_x
_atom_site_fract_y
_atom_site_fract_z
Si Si1 0.000000 0.476256 0.750000
Si Si2 0.044705 0.973561 0.953120
Si Si3 0.146403 0.826869 0.143931
Si Si4 0.385192 0.023485 0.295124
Si Si5 0.323629 0.408290 0.139794
Si Si6 0.500000 0.714819 0.750000
Si Si7 0.994855 0.308213 0.563778
O O1 0.940849 0.517011 0.769485
O O2 0.852316 0.427942 0.556217
O O3 0.062490 0.881705 0.979947
O O4 0.921353 0.013486 0.750535
O O5 0.211775 0.005249 0.119817
O O6 0.000000 0.000000 0.000000
O O7 0.129377 0.868356 0.217727
O O8 0.079623 0.744122 0.088983
O O9 0.327008 0.824169 0.336371
O O10 0.413973 0.113895 0.317661
O O11 0.500000 0.000000 0.500000
O O12 0.363333 0.345230 0.112475
O O13 0.479034 0.764558 0.639153
#
# Coordination Sequence:
#
# PCOD9280267 Si02
#       7
#     4   8   8   8   8   4   8
#     4  12  23  38  64  96 125 172 232 266 335 390
#     4  10  21  41  59  85 129 180 225 264 322 389
#     4  10  22  36  56  89 128 169 218 259 325 392
#     4  12  23  41  64  92 135 174 225 273 323 400
#     4  10  21  37  57  86 130 178 206 264 317 400
#     4  10  23  36  56  94 141 174 204 250 343 416
#     4  11  23  35  57  94 128 177 209 267 331 394
#
# _framework density 20.213439000000001
#
# number of rings (size 3 to 8) (size 9 to 14) (size 15 to 20)
#    0.000    1.333    3.333    2.500    9.333    1.333 
#    0.000    0.000    0.000    0.000    0.000    5.833 
#    0.000    0.000    0.000    0.000    0.000    0.000 
#
# Total GULP energy -133943.894426 kJ/mol
# GULP energy per Si atom -5580.995601 kJ/mol
# Density = 2.016743 g / cm^3
# Si number density = 20.213439 Si / 1000 Ang^3
#
#
#
# Elastic Constant Matrix: (Units=GPa)
#
#
# Indices 1 2 3 4 5 6 
#
# 1 103.6034 24.3105 29.8735 0.0000 20.0022 0.0000
# 2 24.3105 74.7301 42.9146 0.0000 1.3921 0.0000
# 3 29.8735 42.9146 82.1275 0.0000 18.1771 0.0000
# 4 0.0000 0.0000 0.0000 25.1930 0.0000 5.4029
# 5 20.0022 1.3921 18.1771 0.0000 35.0593 0.0000
# 6 0.0000 0.0000 0.0000 5.4029 0.0000 25.6918
#
#
#
# Elastic Compliance Matrix: (Units=1/GPa)
#
#
# Indices 1 2 3 4 5 6 
#
# 1 0.011905 -0.002893 -0.001514 0.000000 -0.005892 0.000000
# 2 -0.002893 0.020628 -0.011195 0.000000 0.006636 0.000000
# 3 -0.001514 -0.011195 0.020658 0.000000 -0.009402 0.000000
# 4 0.000000 0.000000 0.000000 0.041568 0.000000 -0.008742
# 5 -0.005892 0.006636 -0.009402 0.000000 0.036496 0.000000
# 6 0.000000 0.000000 0.000000 -0.008742 0.000000 0.040761
#
#
# Mechanical properties :
#
#
# Convention : Reuss Voigt Hill
#
# Bulk Modulus (GPa) = 45.48539 50.51759 48.00149
# Shear Modulus (GPa) = 23.74715 28.07964 25.91340
#
# Velocity S-wave (km/s) = 3.43128 3.73118 3.58437
# Velocity P-wave (km/s) = 6.18463 6.60368 6.39759
#
# Compressibility (1/GPa) = 0.02198508
#
# Stress axis : x y z
#
# Youngs Moduli (GPa) = 83.99530 48.47745 48.40771
#
# Poissons Ratio (x) = 0.14027 0.07331
# Poissons Ratio (y) = 0.24304 0.54193
# Poissons Ratio (z) = 0.12721 0.54272
#
# Static dielectric constant tensor:
#      x y z
#    x 1.742800 0.000000 -0.067820 
#    y 0.000000 1.771930 0.000000 
#    z -0.067820 0.000000 1.662110 
# 
# From -- ./inp_files/48737.got.cif
#   From: 2010.05.17/outbox.cif.g08.bks.cpg/sg15_25_cif.got.tgz:48737.got - 2010.06.03 18:47:42.
