data_PCOD9280250
_publ_section_title
;
Structure prediction by ZEFSAII (Michael W. Deem and Ramdas Pophale) SiO2 
 PCOD9280250
Probable space group: C 2/C
;
_chemical_formula_sum "Si O2"
_cell_formula_units_Z 48
_cell_length_a 8.537292
_cell_length_b 33.225937
_cell_length_c 17.491246
_cell_angle_alpha 90.000000
_cell_angle_beta 29.446003
_cell_angle_gamma 90.000000
_cell_volume 2439.117546
_symmetry_space_group_name_H-M "C 2/C"
_symmetry_group_IT_number 15
_symmetry_cell_setting 'monoclinic'
loop_
_space_group_symop_operation_xyz
x,y,z
-x,y,1/2-z
-x,-y,-z
x,-y,1/2+z
1/2+x,1/2+y,z
1/2-x,1/2+y,1/2-z
1/2-x,1/2-y,-z
1/2+x,1/2-y,1/2+z
loop_
_atom_site_type_symbol
_atom_site_label
_atom_site_fract_x
_atom_site_fract_y
_atom_site_fract_z
Si Si1 0.176983 0.792602 0.937641
Si Si2 0.615364 0.041309 0.914977
Si Si3 0.194178 0.704800 0.935832
Si Si4 0.200865 0.126252 0.935453
Si Si5 0.291226 0.539047 0.569108
Si Si6 0.176966 0.376584 0.935326
O O1 0.500000 0.793714 0.750000
O O2 0.034869 0.747906 0.982198
O O3 0.221281 0.793371 0.010352
O O4 0.988298 0.832825 0.997985
O O5 0.396564 0.040889 0.931456
O O6 0.000000 0.040234 0.750000
O O7 0.525103 0.083072 0.994948
O O8 0.500000 0.000000 0.000000
O O9 0.500000 0.700613 0.750000
O O10 0.985550 0.665244 0.016780
O O11 0.500000 0.126897 0.750000
O O12 0.035739 0.082400 0.993150
O O13 0.286047 0.126012 0.988761
O O14 0.500000 0.500000 0.500000
O O15 0.000000 0.537667 0.750000
O O16 0.500000 0.380318 0.750000
#
# Coordination Sequence:
#
# PCOD9280250 Si02
#       6
#     8   8   8   8   8   8
#     4  10  21  37  57  84 116 153 197 243 297 361
#     4  11  23  40  62  88 121 161 202 249 306 365
#     4  10  21  37  58  84 116 155 197 243 299 361
#     4  10  22  39  58  84 116 152 195 242 299 359
#     4  10  22  39  59  87 118 153 200 247 296 356
#     4  11  23  38  59  89 119 153 200 250 300 358
#
# _framework density 19.67925
#
# number of rings (size 3 to 8) (size 9 to 14) (size 15 to 20)
#    0.000    1.667    0.000    4.000    0.000    7.333 
#    0.000    0.000    0.000    0.000    0.000    0.000 
#    0.000    0.000    0.000    0.000    0.000    0.000 
#
# Total GULP energy -133662.879399 kJ/mol
# GULP energy per Si atom -5569.286642 kJ/mol
# Density = 1.963446 g / cm^3
# Si number density = 19.679250 Si / 1000 Ang^3
#
#
#
# Elastic Constant Matrix: (Units=GPa)
#
#
# Indices 1 2 3 4 5 6 
#
# 1 54.8862 50.1469 32.1337 0.0000 7.9902 0.0000
# 2 50.1469 261.7110 78.9738 0.0000 -28.8794 0.0000
# 3 32.1337 78.9738 123.0623 0.0000 6.9383 0.0000
# 4 0.0000 0.0000 0.0000 45.2586 0.0000 -9.8789
# 5 7.9902 -28.8794 6.9383 0.0000 33.1380 0.0000
# 6 0.0000 0.0000 0.0000 -9.8789 0.0000 41.6435
#
#
#
# Elastic Compliance Matrix: (Units=1/GPa)
#
#
# Indices 1 2 3 4 5 6 
#
# 1 0.026255 -0.005309 -0.002864 0.000000 -0.010358 0.000000
# 2 -0.005309 0.006720 -0.003368 0.000000 0.007842 0.000000
# 3 -0.002864 -0.003368 0.011295 0.000000 -0.004610 0.000000
# 4 0.000000 0.000000 0.000000 0.023302 0.000000 0.005528
# 5 -0.010358 0.007842 -0.004610 0.000000 0.040474 0.000000
# 6 0.000000 0.000000 0.000000 0.005528 0.000000 0.025325
#
#
# Mechanical properties :
#
#
# Convention : Reuss Voigt Hill
#
# Bulk Modulus (GPa) = 47.19987 84.68536 65.94261
# Shear Modulus (GPa) = 30.57768 42.56835 36.57301
#
# Velocity S-wave (km/s) = 3.94611 4.65597 4.31566
# Velocity P-wave (km/s) = 6.69321 8.48707 7.64295
#
# Compressibility (1/GPa) = 0.02118650
#
# Stress axis : x y z
#
# Youngs Moduli (GPa) = 38.08727 148.80654 88.53167
#
# Poissons Ratio (x) = 0.79009 0.25360
# Poissons Ratio (y) = 0.20222 0.29820
# Poissons Ratio (z) = 0.10910 0.50123
#
# Static dielectric constant tensor:
#      x y z
#    x 1.696920 0.000000 0.009690 
#    y 0.000000 1.749990 0.000000 
#    z 0.009690 0.000000 1.670540 
# 
# From -- ./inp_files/194173.got.cif
#   From: 2010.05.17/outbox.cif.g08.bks.cpg/sg15_98_cif.got.tgz:194173.got - 2010.06.03 18:47:42.
