data_PCOD9280539
_publ_section_title
;
Structure prediction by ZEFSAII (Michael W. Deem and Ramdas Pophale) SiO2 
 PCOD9280539
Probable space group: C 2/C
;
_chemical_formula_sum "Si O2"
_cell_formula_units_Z 56
_cell_length_a 10.801266
_cell_length_b 8.869425
_cell_length_c 29.181323
_cell_angle_alpha 90.000000
_cell_angle_beta 84.083570
_cell_angle_gamma 90.000000
_cell_volume 2780.709144
_symmetry_space_group_name_H-M "C 2/C"
_symmetry_group_IT_number 15
_symmetry_cell_setting 'monoclinic'
loop_
_space_group_symop_operation_xyz
x,y,z
-x,y,1/2-z
-x,-y,-z
x,-y,1/2+z
1/2+x,1/2+y,z
1/2-x,1/2+y,1/2-z
1/2-x,1/2-y,-z
1/2+x,1/2-y,1/2+z
loop_
_atom_site_type_symbol
_atom_site_label
_atom_site_fract_x
_atom_site_fract_y
_atom_site_fract_z
Si Si1 0.518238 0.897173 0.195240
Si Si2 0.309365 0.259971 0.047123
Si Si3 0.828050 0.588786 0.548210
Si Si4 0.193394 0.753579 0.855991
Si Si5 0.535205 0.783638 0.644587
Si Si6 0.274971 0.612855 0.641765
Si Si7 0.426755 0.736679 0.960723
O O1 0.500000 0.905240 0.250000
O O2 0.408148 0.800202 0.176592
O O3 0.658122 0.842267 0.177684
O O4 0.512689 0.062754 0.172502
O O5 0.238233 0.337136 0.091457
O O6 0.441387 0.343841 0.039044
O O7 0.338180 0.086497 0.058864
O O8 0.250000 0.250000 0.000000
O O9 0.846927 0.685123 0.593420
O O10 0.688330 0.623484 0.535945
O O11 0.911154 0.647916 0.503147
O O12 0.338054 0.704385 0.841549
O O13 0.202388 0.934219 0.857393
O O14 0.406540 0.691039 0.649053
O O15 0.570991 0.811588 0.589785
#
# Coordination Sequence:
#
# PCOD9280539 Si02
#       7
#     8   8   8   8   8   8   8
#     4  11  25  43  68  94 118 160 211 263 325 375
#     4  11  24  34  56  90 127 165 207 248 301 362
#     4  10  21  37  61  85 123 172 204 245 297 363
#     4  10  22  41  66  88 130 167 207 258 309 370
#     4   9  21  44  65  90 130 162 203 258 311 370
#     4  10  24  42  61  94 128 162 208 259 308 370
#     4   9  20  37  59  87 121 163 211 238 299 362
#
# _framework density 20.138748
#
# number of rings (size 3 to 8) (size 9 to 14) (size 15 to 20)
#    0.000    2.000    0.000    2.143   10.000    7.429 
#    0.000    0.714    0.000    0.000    0.000    0.000 
#    0.000    0.000    0.000    0.000    0.000    0.000 
#
# Total GULP energy -156265.071920 kJ/mol
# GULP energy per Si atom -5580.895426 kJ/mol
# Density = 2.009291 g / cm^3
# Si number density = 20.138748 Si / 1000 Ang^3
#
#
#
# Elastic Constant Matrix: (Units=GPa)
#
#
# Indices 1 2 3 4 5 6 
#
# 1 111.4914 31.6130 59.0327 0.0000 -7.3364 0.0000
# 2 31.6130 50.8652 24.1277 0.0000 2.1360 0.0000
# 3 59.0327 24.1277 126.7887 0.0000 -9.7244 0.0000
# 4 0.0000 0.0000 0.0000 17.6343 0.0000 1.2342
# 5 -7.3364 2.1360 -9.7244 0.0000 26.4844 0.0000
# 6 0.0000 0.0000 0.0000 1.2342 0.0000 29.9048
#
#
#
# Elastic Compliance Matrix: (Units=1/GPa)
#
#
# Indices 1 2 3 4 5 6 
#
# 1 0.013475 -0.006143 -0.004919 0.000000 0.002422 0.000000
# 2 -0.006143 0.024703 -0.002186 0.000000 -0.004497 0.000000
# 3 -0.004919 -0.002186 0.010807 0.000000 0.002782 0.000000
# 4 0.000000 0.000000 0.000000 0.056872 0.000000 -0.002347
# 5 0.002422 -0.004497 0.002782 0.000000 0.039813 0.000000
# 6 0.000000 0.000000 0.000000 -0.002347 0.000000 0.033536
#
#
# Mechanical properties :
#
#
# Convention : Reuss Voigt Hill
#
# Bulk Modulus (GPa) = 44.46564 57.63246 51.04905
# Shear Modulus (GPa) = 23.45223 26.42948 24.94085
#
# Velocity S-wave (km/s) = 3.41623 3.62659 3.52298
# Velocity P-wave (km/s) = 6.13909 6.79824 6.47705
#
# Compressibility (1/GPa) = 0.02248928
#
# Stress axis : x y z
#
# Youngs Moduli (GPa) = 74.21044 40.48023 92.53429
#
# Poissons Ratio (x) = 0.24868 0.45520
# Poissons Ratio (y) = 0.45589 0.20225
# Poissons Ratio (z) = 0.36506 0.08848
#
# Static dielectric constant tensor:
#      x y z
#    x 1.775990 0.000000 0.002770 
#    y 0.000000 1.696570 0.000000 
#    z 0.002770 0.000000 1.708630 
# 
# From -- ./inp_files/309934.got.cif
#   From: 2010.05.17/outbox.cif.g08.bks.cpg/sg15_155_cif.got.tgz:309934.got - 2010.06.03 18:47:42.
