data_PCOD9280976
_publ_section_title
;
Structure prediction by ZEFSAII (Michael W. Deem and Ramdas Pophale) SiO2 
 PCOD9280976
Probable space group: C 2/C
;
_chemical_formula_sum "Si O2"
_cell_formula_units_Z 32
_cell_length_a 17.831930
_cell_length_b 8.364838
_cell_length_c 15.074534
_cell_angle_alpha 90.000000
_cell_angle_beta 147.757515
_cell_angle_gamma 90.000000
_cell_volume 1199.601838
_symmetry_space_group_name_H-M "C 2/C"
_symmetry_group_IT_number 15
_symmetry_cell_setting 'monoclinic'
loop_
_space_group_symop_operation_xyz
x,y,z
-x,y,1/2-z
-x,-y,-z
x,-y,1/2+z
1/2+x,1/2+y,z
1/2-x,1/2+y,1/2-z
1/2-x,1/2-y,-z
1/2+x,1/2-y,1/2+z
loop_
_atom_site_type_symbol
_atom_site_label
_atom_site_fract_x
_atom_site_fract_y
_atom_site_fract_z
Si Si1 0.617618 0.797693 0.808941
Si Si2 0.333470 0.210157 0.453068
Si Si3 0.918422 0.951444 0.787569
Si Si4 0.288239 0.997131 0.764927
O O1 0.500000 0.886337 0.750000
O O2 0.547976 0.630851 0.707241
O O3 0.676934 0.891137 0.784604
O O4 0.750000 0.750000 0.000000
O O5 0.221958 0.117232 0.402887
O O6 0.457180 0.327385 0.603470
O O7 0.389617 0.067275 0.445284
O O8 0.232013 0.325475 0.291718
O O9 0.858634 0.968711 0.828372
#
# Coordination Sequence:
#
# PCOD9280976 Si02
#       4
#     8   8   8   8
#     4  12  27  44  68 100 145 177 218 291 358 394
#     4  10  21  37  74  96 137 170 243 277 314 398
#     4  10  22  43  66 102 132 182 230 274 332 411
#     4  10  21  41  70 100 133 182 236 269 334 406
#
# _framework density 26.675519000000001
#
# number of rings (size 3 to 8) (size 9 to 14) (size 15 to 20)
#    1.500    0.000    2.500    2.250    3.500    3.000 
#    0.000    6.250    0.000    0.000    0.000    0.000 
#    0.000    0.000    0.000    0.000    0.000    0.000 
#
# Total GULP energy -89329.572858 kJ/mol
# GULP energy per Si atom -5583.098304 kJ/mol
# Density = 2.661480 g / cm^3
# Si number density = 26.675519 Si / 1000 Ang^3
#
#
#
# Elastic Constant Matrix: (Units=GPa)
#
#
# Indices 1 2 3 4 5 6 
#
# 1 178.2540 13.0943 9.6619 0.0000 9.4846 0.0000
# 2 13.0943 81.2168 5.4931 0.0000 13.5768 0.0000
# 3 9.6619 5.4931 44.7504 0.0000 0.2420 0.0000
# 4 0.0000 0.0000 0.0000 53.2629 0.0000 9.1073
# 5 9.4846 13.5768 0.2420 0.0000 21.8400 0.0000
# 6 0.0000 0.0000 0.0000 9.1073 0.0000 37.6291
#
#
#
# Elastic Compliance Matrix: (Units=1/GPa)
#
#
# Indices 1 2 3 4 5 6 
#
# 1 0.005828 -0.000489 -0.001186 0.000000 -0.002214 0.000000
# 2 -0.000489 0.013903 -0.001555 0.000000 -0.008413 0.000000
# 3 -0.001186 -0.001555 0.022787 0.000000 0.001230 0.000000
# 4 0.000000 0.000000 0.000000 0.019585 0.000000 -0.004740
# 5 -0.002214 -0.008413 0.001230 0.000000 0.051965 0.000000
# 6 0.000000 0.000000 0.000000 -0.004740 0.000000 0.027722
#
#
# Mechanical properties :
#
#
# Convention : Reuss Voigt Hill
#
# Bulk Modulus (GPa) = 27.73492 40.07996 33.90744
# Shear Modulus (GPa) = 31.19708 40.94455 36.07082
#
# Velocity S-wave (km/s) = 3.42351 3.92204 3.68123
# Velocity P-wave (km/s) = 5.10362 5.96385 5.55043
#
# Compressibility (1/GPa) = 0.03605563
#
# Stress axis : x y z
#
# Youngs Moduli (GPa) = 171.58541 71.92577 43.88552
#
# Poissons Ratio (x) = 0.03520 0.05206
# Poissons Ratio (y) = 0.08397 0.06826
# Poissons Ratio (z) = 0.20355 0.11188
#
# Static dielectric constant tensor:
#      x y z
#    x 2.088030 0.000000 -0.037380 
#    y 0.000000 2.079930 0.000000 
#    z -0.037380 0.000000 2.209500 
# 
# From -- ./inp_files/208807.got.cif
#   From: 2010.05.17/outbox.cif.g08.bks.cpg/sg15_105_cif.got.tgz:208807.got - 2010.06.03 18:47:42.
