data_PCOD9280229
_publ_section_title
;
Structure prediction by ZEFSAII (Michael W. Deem and Ramdas Pophale) SiO2 
 PCOD9280229
Probable space group: C 2/C
;
_chemical_formula_sum "Si O2"
_cell_formula_units_Z 40
_cell_length_a 17.501251
_cell_length_b 18.282907
_cell_length_c 5.669269
_cell_angle_alpha 90.000000
_cell_angle_beta 69.250032
_cell_angle_gamma 90.000000
_cell_volume 1696.351742
_symmetry_space_group_name_H-M "C 2/C"
_symmetry_group_IT_number 15
_symmetry_cell_setting 'monoclinic'
loop_
_space_group_symop_operation_xyz
x,y,z
-x,y,1/2-z
-x,-y,-z
x,-y,1/2+z
1/2+x,1/2+y,z
1/2-x,1/2+y,1/2-z
1/2-x,1/2-y,-z
1/2+x,1/2-y,1/2+z
loop_
_atom_site_type_symbol
_atom_site_label
_atom_site_fract_x
_atom_site_fract_y
_atom_site_fract_z
Si Si1 0.262780 0.960975 0.287552
Si Si2 0.318898 0.316073 0.640929
Si Si3 0.414950 0.588188 0.364517
Si Si4 0.429310 0.734525 0.637636
Si Si5 0.341279 0.828390 0.431375
O O1 0.165190 0.942915 0.415877
O O2 0.321920 0.891138 0.265739
O O3 0.277975 0.991899 0.009770
O O4 0.378661 0.381648 0.656267
O O5 0.344183 0.284425 0.363691
O O6 0.228652 0.342619 0.795808
O O7 0.330492 0.248575 0.807861
O O8 0.500000 0.544160 0.250000
O O9 0.441439 0.660739 0.478924
O O10 0.500000 0.742631 0.750000
O O11 0.421023 0.808101 0.494192
#
# Coordination Sequence:
#
# PCOD9280229 Si02
#       5
#     8   8   8   8   8
#     4  11  27  43  62  86 119 174 225 253 290 349
#     4   9  18  35  57  89 117 157 191 250 328 369
#     4  10  21  37  56  90 129 158 197 251 310 375
#     4  11  20  32  65  94 124 154 187 257 330 385
#     4   9  21  36  58  86 120 156 206 260 300 368
#
# _framework density 23.580015
#
# number of rings (size 3 to 8) (size 9 to 14) (size 15 to 20)
#    0.000    2.000    2.000    1.800    8.400    0.800 
#    0.000    0.000    0.000    1.200    0.000    0.000 
#    0.000    0.000    0.000    0.000    0.000    0.000 
#
# Total GULP energy -111579.134214 kJ/mol
# GULP energy per Si atom -5578.956711 kJ/mol
# Density = 2.352635 g / cm^3
# Si number density = 23.580015 Si / 1000 Ang^3
#
#
#
# Elastic Constant Matrix: (Units=GPa)
#
#
# Indices 1 2 3 4 5 6 
#
# 1 55.4087 28.4167 21.6719 0.0000 28.4675 0.0000
# 2 28.4167 62.5674 12.9499 0.0000 19.7134 0.0000
# 3 21.6719 12.9499 86.4207 0.0000 2.1080 0.0000
# 4 0.0000 0.0000 0.0000 40.7935 0.0000 10.5997
# 5 28.4675 19.7134 2.1080 0.0000 36.2504 0.0000
# 6 0.0000 0.0000 0.0000 10.5997 0.0000 19.3029
#
#
#
# Elastic Compliance Matrix: (Units=1/GPa)
#
#
# Indices 1 2 3 4 5 6 
#
# 1 0.037965 -0.007707 -0.007752 0.000000 -0.025172 0.000000
# 2 -0.007707 0.021472 -0.001149 0.000000 -0.005557 0.000000
# 3 -0.007752 -0.001149 0.013543 0.000000 0.005925 0.000000
# 4 0.000000 0.000000 0.000000 0.028594 0.000000 -0.015701
# 5 -0.025172 -0.005557 0.005925 0.000000 0.050031 0.000000
# 6 0.000000 0.000000 0.000000 -0.015701 0.000000 0.060428
#
#
# Mechanical properties :
#
#
# Convention : Reuss Voigt Hill
#
# Bulk Modulus (GPa) = 25.14866 36.71930 30.93398
# Shear Modulus (GPa) = 19.34209 28.69325 24.01767
#
# Velocity S-wave (km/s) = 2.86715 3.49212 3.19495
# Velocity P-wave (km/s) = 4.65286 5.64499 5.17276
#
# Compressibility (1/GPa) = 0.03976354
#
# Stress axis : x y z
#
# Youngs Moduli (GPa) = 26.33994 46.57197 73.83947
#
# Poissons Ratio (x) = 0.35895 0.57238
# Poissons Ratio (y) = 0.20301 0.08485
# Poissons Ratio (z) = 0.20418 0.05352
#
# Static dielectric constant tensor:
#      x y z
#    x 1.975510 0.000000 -0.026080 
#    y 0.000000 1.931950 0.000000 
#    z -0.026080 0.000000 1.945890 
# 
# From -- ./inp_files/9813.got.cif
#   From: 2010.05.17/outbox.cif.g08.bks.cpg/sg15_5_cif.got.tgz:9813.got - 2010.06.03 18:47:42.
