data_PCOD9280052
_publ_section_title
;
Structure prediction by ZEFSAII (Michael W. Deem and Ramdas Pophale) SiO2 
 PCOD9280052
Probable space group: C 2/C
;
_chemical_formula_sum "Si O2"
_cell_formula_units_Z 28
_cell_length_a 11.706337
_cell_length_b 8.915907
_cell_length_c 14.318819
_cell_angle_alpha 90.000000
_cell_angle_beta 134.733385
_cell_angle_gamma 90.000000
_cell_volume 1061.671809
_symmetry_space_group_name_H-M "C 2/C"
_symmetry_group_IT_number 15
_symmetry_cell_setting 'monoclinic'
loop_
_space_group_symop_operation_xyz
x,y,z
-x,y,1/2-z
-x,-y,-z
x,-y,1/2+z
1/2+x,1/2+y,z
1/2-x,1/2+y,1/2-z
1/2-x,1/2-y,-z
1/2+x,1/2-y,1/2+z
loop_
_atom_site_type_symbol
_atom_site_label
_atom_site_fract_x
_atom_site_fract_y
_atom_site_fract_z
Si Si1 0.510329 0.293598 0.890483
Si Si2 0.825853 0.182197 0.829170
Si Si3 0.789881 0.486149 0.075107
Si Si4 0.000000 0.249190 0.750000
O O1 0.326778 0.292767 0.756080
O O2 0.380768 0.559882 0.069026
O O3 0.596732 0.149644 0.894020
O O4 0.536527 0.272806 0.017225
O O5 0.752800 0.037065 0.839748
O O6 0.888009 0.169298 0.760900
O O7 0.883193 0.640204 0.122416
#
# Coordination Sequence:
#
# PCOD9280052 Si02
#       4
#     8   8   8   4
#     4   9  18  40  64  81 128 152 193 256 294 330
#     4  10  21  36  64  90 117 162 193 247 295 354
#     4   9  19  39  60  86 121 150 197 251 280 352
#     4  12  22  36  66  88 120 162 194 238 310 346
#
# _framework density 26.373498000000001
#
# number of rings (size 3 to 8) (size 9 to 14) (size 15 to 20)
#    1.714    0.571    2.857    0.000    0.000    3.429 
#    0.000    0.000    6.286    0.000    0.000    0.000 
#    0.000    0.000    0.000    0.000    0.000    0.000 
#
# Total GULP energy -78136.282797 kJ/mol
# GULP energy per Si atom -5581.163057 kJ/mol
# Density = 2.631347 g / cm^3
# Si number density = 26.373498 Si / 1000 Ang^3
#
#
#
# Elastic Constant Matrix: (Units=GPa)
#
#
# Indices 1 2 3 4 5 6 
#
# 1 113.4912 21.7641 14.6021 0.0000 -27.1728 0.0000
# 2 21.7641 42.7241 13.3507 0.0000 15.6553 0.0000
# 3 14.6021 13.3507 103.3348 0.0000 13.9061 0.0000
# 4 0.0000 0.0000 0.0000 30.7030 0.0000 -8.5786
# 5 -27.1728 15.6553 13.9061 0.0000 53.7053 0.0000
# 6 0.0000 0.0000 0.0000 -8.5786 0.0000 5.8137
#
#
#
# Elastic Compliance Matrix: (Units=1/GPa)
#
#
# Indices 1 2 3 4 5 6 
#
# 1 0.013419 -0.009955 -0.001983 0.000000 0.010205 0.000000
# 2 -0.009955 0.034200 -0.001028 0.000000 -0.014740 0.000000
# 3 -0.001983 -0.001028 0.010553 0.000000 -0.003436 0.000000
# 4 0.000000 0.000000 0.000000 0.055418 0.000000 0.081773
# 5 0.010205 -0.014740 -0.003436 0.000000 0.028970 0.000000
# 6 0.000000 0.000000 0.000000 0.081773 0.000000 0.292669
#
#
# Mechanical properties :
#
#
# Convention : Reuss Voigt Hill
#
# Bulk Modulus (GPa) = 31.01936 39.88709 35.45323
# Shear Modulus (GPa) = 10.59527 32.03329 21.31428
#
# Velocity S-wave (km/s) = 2.00652 3.48889 2.84592
# Velocity P-wave (km/s) = 4.14189 5.60238 4.92655
#
# Compressibility (1/GPa) = 0.03223793
#
# Stress axis : x y z
#
# Youngs Moduli (GPa) = 74.52162 29.23983 94.76153
#
# Poissons Ratio (x) = 0.29109 0.18794
# Poissons Ratio (y) = 0.74189 0.09743
# Poissons Ratio (z) = 0.14780 0.03006
#
# Static dielectric constant tensor:
#      x y z
#    x 2.038150 0.000000 0.024370 
#    y 0.000000 2.078530 0.000000 
#    z 0.024370 0.000000 2.098620 
# 
# From -- ./inp_files/140637.got.cif
#   From: 2010.05.17/outbox.cif.g08.bks.cpg/sg15_71_cif.got.tgz:140637.got - 2010.06.03 18:47:42.
