data_PCOD9280925
_publ_section_title
;
Structure prediction by ZEFSAII (Michael W. Deem and Ramdas Pophale) SiO2 
 PCOD9280925
Probable space group: C 2/C
;
_chemical_formula_sum "Si O2"
_cell_formula_units_Z 64
_cell_length_a 19.898682
_cell_length_b 18.798927
_cell_length_c 25.886375
_cell_angle_alpha 90.000000
_cell_angle_beta 161.585628
_cell_angle_gamma 90.000000
_cell_volume 3058.865788
_symmetry_space_group_name_H-M "C 2/C"
_symmetry_group_IT_number 15
_symmetry_cell_setting 'monoclinic'
loop_
_space_group_symop_operation_xyz
x,y,z
-x,y,1/2-z
-x,-y,-z
x,-y,1/2+z
1/2+x,1/2+y,z
1/2-x,1/2+y,1/2-z
1/2-x,1/2-y,-z
1/2+x,1/2-y,1/2+z
loop_
_atom_site_type_symbol
_atom_site_label
_atom_site_fract_x
_atom_site_fract_y
_atom_site_fract_z
Si Si1 0.981568 0.037300 0.401328
Si Si2 0.928758 0.974296 0.255188
Si Si3 0.486229 0.675671 0.636140
Si Si4 0.517242 0.017334 0.596135
Si Si5 0.162892 0.315326 0.808750
Si Si6 0.451442 0.316007 0.492132
Si Si7 0.875739 0.674338 0.838707
Si Si8 0.088302 0.527538 0.259103
O O1 0.036797 0.115246 0.462580
O O2 0.993643 0.026975 0.348605
O O3 0.747244 0.013541 0.248380
O O4 0.156930 0.983694 0.553014
O O5 0.019570 0.896903 0.335900
O O6 0.000000 0.995652 0.250000
O O7 0.672216 0.972736 0.067114
O O8 0.286971 0.685687 0.453203
O O9 0.527566 0.745174 0.700240
O O10 0.689857 0.670033 0.746282
O O11 0.503821 0.099544 0.570880
O O12 0.500463 0.012901 0.645793
O O13 0.343126 0.318896 0.895719
O O14 0.040053 0.389521 0.715968
O O15 0.247076 0.318457 0.305578
O O16 0.479294 0.242318 0.543161
O O17 0.000000 0.504002 0.250000
#
# Coordination Sequence:
#
# PCOD9280925 Si02
#       8
#     8   8   8   8   8   8   8   8
#     4  12  22  44  68  94 126 172 221 269 313 381
#     4  12  27  43  62  97 136 170 213 271 330 380
#     4  10  22  39  62  90 134 170 215 257 315 388
#     4  12  24  40  71  97 125 171 223 267 317 379
#     4  10  21  39  60  94 129 173 212 256 316 389
#     4  10  21  37  66  97 130 162 211 273 321 372
#     4  10  21  38  63 100 127 162 215 268 320 377
#     4  12  24  41  66  96 132 171 212 265 326 385
#
# _framework density 20.922787
#
# number of rings (size 3 to 8) (size 9 to 14) (size 15 to 20)
#    0.000    1.000    5.000    2.250    3.500    1.500 
#    0.000    1.250    0.000    4.500    0.000    0.000 
#    0.000    0.000    0.000    0.000    0.000    0.000 
#
# Total GULP energy -179106.885420 kJ/mol
# GULP energy per Si atom -5597.090169 kJ/mol
# Density = 2.087517 g / cm^3
# Si number density = 20.922787 Si / 1000 Ang^3
#
#
#
# Elastic Constant Matrix: (Units=GPa)
#
#
# Indices 1 2 3 4 5 6 
#
# 1 100.4646 51.6431 24.3025 -0.0037 -25.9764 -0.0070
# 2 51.6431 110.3685 33.0222 0.0029 -12.1222 0.0122
# 3 24.3025 33.0222 78.1178 0.0417 -7.4814 0.0356
# 4 -0.0037 0.0029 0.0417 31.2707 -0.0104 -15.3600
# 5 -25.9764 -12.1222 -7.4814 -0.0104 28.3520 -0.0034
# 6 -0.0070 0.0122 0.0356 -15.3600 -0.0034 33.6532
#
#
#
# Elastic Compliance Matrix: (Units=1/GPa)
#
#
# Indices 1 2 3 4 5 6 
#
# 1 0.016524 -0.005956 -0.001454 0.000016 0.012209 0.000016
# 2 -0.005956 0.012841 -0.003665 0.000002 -0.000933 -0.000001
# 3 -0.001454 -0.003665 0.014902 -0.000034 0.001033 -0.000030
# 4 0.000016 0.000002 -0.000034 0.041220 0.000024 0.018814
# 5 0.012209 -0.000933 0.001033 0.000024 0.046331 0.000017
# 6 0.000016 -0.000001 -0.000030 0.018814 0.000017 0.038302
#
#
# Mechanical properties :
#
#
# Convention : Reuss Voigt Hill
#
# Bulk Modulus (GPa) = 45.21174 56.32072 50.76623
# Shear Modulus (GPa) = 25.04497 30.65406 27.84952
#
# Velocity S-wave (km/s) = 3.46355 3.83182 3.65233
# Velocity P-wave (km/s) = 6.13601 6.82304 6.48863
#
# Compressibility (1/GPa) = 0.02211815
#
# Stress axis : x y z
#
# Youngs Moduli (GPa) = 60.51884 77.87317 67.10675
#
# Poissons Ratio (x) = 0.46380 0.09755
# Poissons Ratio (y) = 0.36044 0.24594
# Poissons Ratio (z) = 0.08797 0.28540
#
# Static dielectric constant tensor:
#      x y z
#    x 1.775100 -0.000010 0.023900 
#    y -0.000010 1.714980 -0.000040 
#    z 0.023900 -0.000040 1.769310 
# 
# From -- ./inp_files/301367.got.cif
#   From: 2010.05.17/outbox.cif.g08.bks.cpg/sg15_151_cif.got.tgz:301367.got - 2010.06.03 18:47:42.
