data_PCOD9280102
_publ_section_title
;
Structure prediction by ZEFSAII (Michael W. Deem and Ramdas Pophale) SiO2 
 PCOD9280102
Probable space group: C 2/C
;
_chemical_formula_sum "Si O2"
_cell_formula_units_Z 36
_cell_length_a 19.839526
_cell_length_b 16.526790
_cell_length_c 13.029599
_cell_angle_alpha 90.000000
_cell_angle_beta 159.394147
_cell_angle_gamma 90.000000
_cell_volume 1503.543890
_symmetry_space_group_name_H-M "C 2/C"
_symmetry_group_IT_number 15
_symmetry_cell_setting 'monoclinic'
loop_
_space_group_symop_operation_xyz
x,y,z
-x,y,1/2-z
-x,-y,-z
x,-y,1/2+z
1/2+x,1/2+y,z
1/2-x,1/2+y,1/2-z
1/2-x,1/2-y,-z
1/2+x,1/2-y,1/2+z
loop_
_atom_site_type_symbol
_atom_site_label
_atom_site_fract_x
_atom_site_fract_y
_atom_site_fract_z
Si Si1 0.587649 0.195523 0.153975
Si Si2 0.500000 0.780929 0.750000
Si Si3 0.741046 0.046099 0.263210
Si Si4 0.892251 0.141947 0.304943
Si Si5 0.500000 0.939298 0.250000
Si Si6 0.500000 0.437044 0.750000
O O1 0.516051 0.174546 0.165126
O O2 0.806096 0.228249 0.470017
O O3 0.607338 0.118168 0.111800
O O4 0.955143 0.232013 0.422686
O O5 0.912969 0.086172 0.438268
O O6 0.821449 0.995877 0.471831
O O7 0.604154 0.006012 0.983577
O O8 0.994437 0.113356 0.346990
O O9 0.671783 0.121911 0.965644
#
# Coordination Sequence:
#
# PCOD9280102 Si02
#       6
#     8   4   8   8   4   4
#     4  11  21  42  69 106 141 188 240 293 353 417
#     4  10  21  36  67 104 144 182 234 296 351 422
#     4  10  23  45  69 101 146 185 230 302 346 424
#     4  10  24  45  67 105 139 191 232 296 352 427
#     4   8  22  45  65  99 147 182 234 286 362 411
#     4  12  25  45  76  97 145 194 240 286 369 415
#
# _framework density 23.943431
#
# number of rings (size 3 to 8) (size 9 to 14) (size 15 to 20)
#    1.333    0.444    2.222    1.333    3.111    4.444 
#    0.000    2.222    0.000    0.000    0.000    0.000 
#    0.000    0.000    0.000    0.000    0.000    0.000 
#
# Total GULP energy -100362.941132 kJ/mol
# GULP energy per Si atom -5575.718952 kJ/mol
# Density = 2.388893 g / cm^3
# Si number density = 23.943431 Si / 1000 Ang^3
#
#
#
# Elastic Constant Matrix: (Units=GPa)
#
#
# Indices 1 2 3 4 5 6 
#
# 1 151.6167 42.0982 -1.8451 0.0000 -14.4412 0.0000
# 2 42.0982 82.8023 25.4524 0.0000 -12.5349 0.0000
# 3 -1.8451 25.4524 100.7391 0.0000 -14.1797 0.0000
# 4 0.0000 0.0000 0.0000 -1.8823 0.0000 7.7612
# 5 -14.4412 -12.5349 -14.1797 0.0000 43.8414 0.0000
# 6 0.0000 0.0000 0.0000 7.7612 0.0000 11.9280
#
#
#
# Elastic Compliance Matrix: (Units=1/GPa)
#
#
# Indices 1 2 3 4 5 6 
#
# 1 0.007965 -0.004217 0.001478 0.000000 0.001896 0.000000
# 2 -0.004217 0.015663 -0.003772 0.000000 0.001869 0.000000
# 3 0.001478 -0.003772 0.011340 0.000000 0.003076 0.000000
# 4 0.000000 0.000000 0.000000 -0.144253 0.000000 0.093861
# 5 0.001896 0.001869 0.003076 0.000000 0.024964 0.000000
# 6 0.000000 0.000000 0.000000 0.093861 0.000000 0.022764
#
#
# Mechanical properties :
#
#
# Convention : Reuss Voigt Hill
#
# Bulk Modulus (GPa) = 45.56345 51.84102 48.70224
# Shear Modulus (GPa) = -121.29408 28.74093 -46.27657
#
# Velocity S-wave (km/s) = -7.12521 3.46839 -4.40107
# Velocity P-wave (km/s) = 6.97284 6.14314 2.33264
#
# Compressibility (1/GPa) = 0.02194741
#
# Stress axis : x y z
#
# Youngs Moduli (GPa) = 125.54855 63.84366 88.18654
#
# Poissons Ratio (x) = 0.26922 -0.13036
# Poissons Ratio (y) = 0.52943 0.33260
# Poissons Ratio (z) = -0.18559 0.24079
#
# Static dielectric constant tensor:
#      x y z
#    x 1.998930 0.000000 -0.009210 
#    y 0.000000 1.885210 0.000000 
#    z -0.009210 0.000000 1.920830 
# 
# From -- ./inp_files/107875.got.cif
#   From: 2010.05.17/outbox.cif.g08.bks.cpg/sg15_54_cif.got.tgz:107875.got - 2010.06.03 18:47:42.
