data_PCOD9280688
_publ_section_title
;
Structure prediction by ZEFSAII (Michael W. Deem and Ramdas Pophale) SiO2 
 PCOD9280688
Probable space group: C 2/C
;
_chemical_formula_sum "Si O2"
_cell_formula_units_Z 56
_cell_length_a 19.251566
_cell_length_b 30.886498
_cell_length_c 8.879430
_cell_angle_alpha 90.000000
_cell_angle_beta 146.513102
_cell_angle_gamma 90.000000
_cell_volume 2913.125780
_symmetry_space_group_name_H-M "C 2/C"
_symmetry_group_IT_number 15
_symmetry_cell_setting 'monoclinic'
loop_
_space_group_symop_operation_xyz
x,y,z
-x,y,1/2-z
-x,-y,-z
x,-y,1/2+z
1/2+x,1/2+y,z
1/2-x,1/2+y,1/2-z
1/2-x,1/2-y,-z
1/2+x,1/2-y,1/2+z
loop_
_atom_site_type_symbol
_atom_site_label
_atom_site_fract_x
_atom_site_fract_y
_atom_site_fract_z
Si Si1 0.000000 0.798637 0.250000
Si Si2 0.000000 0.315995 0.250000
Si Si3 0.638753 0.440646 0.509471
Si Si4 0.856977 0.443713 0.436738
Si Si5 0.256697 0.147570 0.146699
Si Si6 0.126178 0.269094 0.200818
Si Si7 0.765979 0.992189 0.545493
Si Si8 0.151172 0.347341 0.026609
O O1 0.126059 0.826839 0.443820
O O2 0.044834 0.766552 0.464586
O O3 0.958957 0.288933 0.321407
O O4 0.126333 0.340892 0.532239
O O5 0.732492 0.403555 0.623798
O O6 0.668827 0.456733 0.731413
O O7 0.646600 0.482120 0.413647
O O8 0.500000 0.422037 0.250000
O O9 0.787219 0.471993 0.436896
O O10 0.806712 0.394513 0.336846
O O11 0.000000 0.442071 0.750000
O O12 0.838162 0.468410 0.245216
O O13 0.296811 0.157553 0.047777
O O14 0.250000 0.250000 0.500000
O O15 0.175357 0.306626 0.176982
O O16 0.000000 0.348846 0.750000
#
# Coordination Sequence:
#
# PCOD9280688 Si02
#       8
#     4   4   8   8   8   8   8   8
#     4  12  26  46  72  98 139 179 224 288 344 404
#     4  12  26  44  70 102 131 179 226 282 340 412
#     4  11  23  43  65  95 131 177 227 276 335 398
#     4  10  21  37  62  93 132 168 212 266 329 388
#     4  12  25  44  70 100 139 179 227 284 340 405
#     4  12  26  44  69 101 133 176 227 282 344 411
#     4  10  22  39  63  93 129 174 223 268 325 400
#     4  11  23  43  65  93 137 178 219 275 340 402
#
# _framework density 19.223337999999998
#
# number of rings (size 3 to 8) (size 9 to 14) (size 15 to 20)
#    0.000    0.857    5.714    0.857    4.000    1.143 
#    5.143    0.000    0.000    0.000    0.000    0.000 
#    0.000    0.000    0.000    0.000    0.000    0.000 
#
# Total GULP energy -156283.363806 kJ/mol
# GULP energy per Si atom -5581.548707 kJ/mol
# Density = 1.917958 g / cm^3
# Si number density = 19.223338 Si / 1000 Ang^3
#
#
#
# Elastic Constant Matrix: (Units=GPa)
#
#
# Indices 1 2 3 4 5 6 
#
# 1 103.3764 43.0185 44.9981 0.0000 -10.9031 0.0000
# 2 43.0185 112.0052 57.4773 0.0000 -13.9149 0.0000
# 3 44.9981 57.4773 122.2952 0.0000 -4.3335 0.0000
# 4 0.0000 0.0000 0.0000 41.4952 0.0000 -7.4832
# 5 -10.9031 -13.9149 -4.3335 0.0000 34.0905 0.0000
# 6 0.0000 0.0000 0.0000 -7.4832 0.0000 42.8015
#
#
#
# Elastic Compliance Matrix: (Units=1/GPa)
#
#
# Indices 1 2 3 4 5 6 
#
# 1 0.012503 -0.002879 -0.003162 0.000000 0.002422 0.000000
# 2 -0.002879 0.013034 -0.004933 0.000000 0.003772 0.000000
# 3 -0.003162 -0.004933 0.011604 0.000000 -0.001550 0.000000
# 4 0.000000 0.000000 0.000000 0.024884 0.000000 0.004351
# 5 0.002422 0.003772 -0.001550 0.000000 0.031451 0.000000
# 6 0.000000 0.000000 0.000000 0.004351 0.000000 0.024124
#
#
# Mechanical properties :
#
#
# Convention : Reuss Voigt Hill
#
# Bulk Modulus (GPa) = 65.81522 69.85162 67.83342
# Shear Modulus (GPa) = 34.57555 36.48962 35.53259
#
# Velocity S-wave (km/s) = 4.24562 4.36155 4.30398
# Velocity P-wave (km/s) = 7.63840 7.86002 7.75000
#
# Compressibility (1/GPa) = 0.01519405
#
# Stress axis : x y z
#
# Youngs Moduli (GPa) = 79.98087 76.72321 86.17924
#
# Poissons Ratio (x) = 0.22087 0.27247
# Poissons Ratio (y) = 0.23025 0.42511
# Poissons Ratio (z) = 0.25287 0.37846
#
# Static dielectric constant tensor:
#      x y z
#    x 1.647410 0.000000 -0.022890 
#    y 0.000000 1.686720 0.000000 
#    z -0.022890 0.000000 1.553900 
# 
# From -- ./inp_files/59382.got.cif
#   From: 2010.05.17/outbox.cif.g08.bks.cpg/sg15_30_cif.got.tgz:59382.got - 2010.06.03 18:47:42.
