data_PCOD9280886
_publ_section_title
;
Structure prediction by ZEFSAII (Michael W. Deem and Ramdas Pophale) SiO2 
 PCOD9280886
Probable space group: C 2/C
;
_chemical_formula_sum "Si O2"
_cell_formula_units_Z 52
_cell_length_a 10.767091
_cell_length_b 11.794046
_cell_length_c 24.049568
_cell_angle_alpha 90.000000
_cell_angle_beta 130.931964
_cell_angle_gamma 90.000000
_cell_volume 2307.257683
_symmetry_space_group_name_H-M "C 2/C"
_symmetry_group_IT_number 15
_symmetry_cell_setting 'monoclinic'
loop_
_space_group_symop_operation_xyz
x,y,z
-x,y,1/2-z
-x,-y,-z
x,-y,1/2+z
1/2+x,1/2+y,z
1/2-x,1/2+y,1/2-z
1/2-x,1/2-y,-z
1/2+x,1/2-y,1/2+z
loop_
_atom_site_type_symbol
_atom_site_label
_atom_site_fract_x
_atom_site_fract_y
_atom_site_fract_z
Si Si1 0.000000 0.900775 0.750000
Si Si2 0.262532 0.590057 0.445560
Si Si3 0.922683 0.588642 0.547021
Si Si4 0.103196 0.894470 0.095432
Si Si5 0.689123 0.714374 0.403403
Si Si6 0.135526 0.899084 0.229722
Si Si7 0.764601 0.820612 0.131000
O O1 0.925504 0.828612 0.678779
O O2 0.859908 0.979970 0.737721
O O3 0.108187 0.528265 0.429375
O O4 0.331503 0.500667 0.420709
O O5 0.406160 0.604801 0.533345
O O6 0.238919 0.705786 0.405241
O O7 0.769890 0.611930 0.461237
O O8 0.901243 0.696336 0.582718
O O9 0.100963 0.605803 0.572317
O O10 0.162084 0.783706 0.080252
O O11 0.183658 0.897853 0.179913
O O12 0.221880 0.811449 0.297149
O O13 0.940283 0.875671 0.169940
#
# Coordination Sequence:
#
# PCOD9280886 Si02
#       7
#     4   8   8   8   8   8   8
#     4  10  22  40  58  90 122 172 210 264 326 398
#     4  10  21  40  69  92 124 172 218 269 333 382
#     4  10  21  40  64  98 124 168 220 270 320 405
#     4  10  21  40  64  95 126 166 214 272 324 396
#     4  10  21  37  65  97 125 160 222 265 328 382
#     4  10  25  44  57  89 133 169 214 260 340 394
#     4  10  22  45  60  90 132 169 213 272 320 396
#
# _framework density 22.537578
#
# number of rings (size 3 to 8) (size 9 to 14) (size 15 to 20)
#    0.000    2.154    1.538    0.923    6.462    0.615 
#   11.077    3.846    0.000    0.000    0.000    0.000 
#    0.000    0.000    0.000    0.000    0.000    0.000 
#
# Total GULP energy -145217.446040 kJ/mol
# GULP energy per Si atom -5585.286386 kJ/mol
# Density = 2.248628 g / cm^3
# Si number density = 22.537578 Si / 1000 Ang^3
#
#
#
# Elastic Constant Matrix: (Units=GPa)
#
#
# Indices 1 2 3 4 5 6 
#
# 1 51.7096 24.3743 11.8142 0.0000 7.8104 0.0000
# 2 24.3743 78.5602 25.1788 0.0000 1.8283 0.0000
# 3 11.8142 25.1788 112.8156 0.0000 -18.8721 0.0000
# 4 0.0000 0.0000 0.0000 11.9826 0.0000 -26.8292
# 5 7.8104 1.8283 -18.8721 0.0000 40.9777 0.0000
# 6 0.0000 0.0000 0.0000 -26.8292 0.0000 15.2769
#
#
#
# Elastic Compliance Matrix: (Units=1/GPa)
#
#
# Indices 1 2 3 4 5 6 
#
# 1 0.023649 -0.006629 -0.001844 0.000000 -0.005061 0.000000
# 2 -0.006629 0.015752 -0.002955 0.000000 -0.000800 0.000000
# 3 -0.001844 -0.002955 0.010615 0.000000 0.005372 0.000000
# 4 0.000000 0.000000 0.000000 -0.028462 0.000000 -0.049985
# 5 -0.005061 -0.000800 0.005372 0.000000 0.027878 0.000000
# 6 0.000000 0.000000 0.000000 -0.049985 0.000000 -0.022324
#
#
# Mechanical properties :
#
#
# Convention : Reuss Voigt Hill
#
# Bulk Modulus (GPa) = 36.81815 40.64667 38.73241
# Shear Modulus (GPa) = 84.72260 25.76199 55.24230
#
# Velocity S-wave (km/s) = 6.13786 3.38460 4.95625
# Velocity P-wave (km/s) = 8.16106 5.77479 7.06934
#
# Compressibility (1/GPa) = 0.02716052
#
# Stress axis : x y z
#
# Youngs Moduli (GPa) = 42.28509 63.48591 94.20353
#
# Poissons Ratio (x) = 0.42083 0.17368
# Poissons Ratio (y) = 0.28030 0.27839
# Poissons Ratio (z) = 0.07796 0.18762
#
# Static dielectric constant tensor:
#      x y z
#    x 1.882760 0.000000 -0.035150 
#    y 0.000000 1.873050 0.000000 
#    z -0.035150 0.000000 1.870980 
# 
# From -- ./inp_files/269315.got.cif
#   From: 2010.05.17/outbox.cif.g08.bks.cpg/sg15_135_cif.got.tgz:269315.got - 2010.06.03 18:47:42.
