data_PCOD9280234
_publ_section_title
;
Structure prediction by ZEFSAII (Michael W. Deem and Ramdas Pophale) SiO2 
 PCOD9280234
Probable space group: C 2/C
;
_chemical_formula_sum "Si O2"
_cell_formula_units_Z 56
_cell_length_a 10.518379
_cell_length_b 9.625339
_cell_length_c 29.784539
_cell_angle_alpha 90.000000
_cell_angle_beta 63.226651
_cell_angle_gamma 90.000000
_cell_volume 2692.202347
_symmetry_space_group_name_H-M "C 2/C"
_symmetry_group_IT_number 15
_symmetry_cell_setting 'monoclinic'
loop_
_space_group_symop_operation_xyz
x,y,z
-x,y,1/2-z
-x,-y,-z
x,-y,1/2+z
1/2+x,1/2+y,z
1/2-x,1/2+y,1/2-z
1/2-x,1/2-y,-z
1/2+x,1/2-y,1/2+z
loop_
_atom_site_type_symbol
_atom_site_label
_atom_site_fract_x
_atom_site_fract_y
_atom_site_fract_z
Si Si1 0.500000 0.997651 0.750000
Si Si2 0.010570 0.083716 0.451616
Si Si3 0.539376 0.636658 0.819034
Si Si4 0.618142 0.325836 0.071313
Si Si5 0.045909 0.340091 0.496232
Si Si6 0.223919 0.906413 0.842341
Si Si7 0.185216 0.727526 0.769669
Si Si8 0.000000 0.949634 0.750000
O O1 0.387637 0.922158 0.800892
O O2 0.596316 0.094879 0.767434
O O3 0.968065 0.239580 0.472573
O O4 0.164652 0.089099 0.402316
O O5 0.000000 0.000000 0.500000
O O6 0.916864 0.988390 0.433670
O O7 0.440792 0.711166 0.870427
O O8 0.643659 0.537301 0.831684
O O9 0.650196 0.716846 0.770145
O O10 0.448627 0.542818 0.799488
O O11 0.786845 0.319342 0.040648
O O12 0.538497 0.229013 0.047179
O O13 0.000000 0.500000 0.500000
O O14 0.168843 0.770809 0.824024
O O15 0.122377 0.853748 0.750351
#
# Coordination Sequence:
#
# PCOD9280234 Si02
#       8
#     4   8   8   8   8   8   8   4
#     4   9  18  33  52  74 106 141 170 217 276 320
#     4   9  19  38  59  79 110 148 184 227 277 328
#     4   9  18  33  53  75 104 141 176 214 268 327
#     4   9  20  38  55  78 111 141 178 229 274 325
#     4  10  21  37  57  81 107 139 183 230 277 327
#     4   9  18  34  54  78 106 139 181 221 266 328
#     4   9  18  32  49  75 106 132 170 219 262 318
#     4   9  18  31  48  72 102 135 170 211 258 314
#
# _framework density 20.800815
#
# number of rings (size 3 to 8) (size 9 to 14) (size 15 to 20)
#    0.000    2.857    0.000    0.000    0.000    4.571 
#    0.000   15.714    0.000    0.000    0.000    0.000 
#    0.000    0.000    0.000    0.000    0.000    0.000 
#
# Total GULP energy -155958.755426 kJ/mol
# GULP energy per Si atom -5569.955551 kJ/mol
# Density = 2.075347 g / cm^3
# Si number density = 20.800815 Si / 1000 Ang^3
#
#
#
# Elastic Constant Matrix: (Units=GPa)
#
#
# Indices 1 2 3 4 5 6 
#
# 1 40.9048 20.2633 20.0319 0.0000 1.1400 0.0000
# 2 20.2633 98.1655 42.3556 0.0000 10.2095 0.0000
# 3 20.0319 42.3556 145.1731 0.0000 1.7593 0.0000
# 4 0.0000 0.0000 0.0000 15.7401 0.0000 1.8381
# 5 1.1400 10.2095 1.7593 0.0000 10.3517 0.0000
# 6 0.0000 0.0000 0.0000 1.8381 0.0000 27.8689
#
#
#
# Elastic Compliance Matrix: (Units=1/GPa)
#
#
# Indices 1 2 3 4 5 6 
#
# 1 0.028043 -0.004963 -0.002448 0.000000 0.002223 0.000000
# 2 -0.004963 0.013915 -0.003222 0.000000 -0.012630 0.000000
# 3 -0.002448 -0.003222 0.008141 0.000000 0.002064 0.000000
# 4 0.000000 0.000000 0.000000 0.064025 0.000000 -0.004223
# 5 0.002223 -0.012630 0.002064 0.000000 0.108463 0.000000
# 6 0.000000 0.000000 0.000000 -0.004223 0.000000 0.036161
#
#
# Mechanical properties :
#
#
# Convention : Reuss Voigt Hill
#
# Bulk Modulus (GPa) = 34.68393 49.94944 42.31668
# Shear Modulus (GPa) = 17.26365 24.23166 20.74765
#
# Velocity S-wave (km/s) = 2.88401 3.41682 3.16166
# Velocity P-wave (km/s) = 5.27262 6.29536 5.80655
#
# Compressibility (1/GPa) = 0.02883180
#
# Stress axis : x y z
#
# Youngs Moduli (GPa) = 35.65975 71.86426 122.83221
#
# Poissons Ratio (x) = 0.35669 0.30074
# Poissons Ratio (y) = 0.17699 0.39576
# Poissons Ratio (z) = 0.08731 0.23154
#
# Static dielectric constant tensor:
#      x y z
#    x 1.773530 0.000000 0.021470 
#    y 0.000000 1.818620 0.000000 
#    z 0.021470 0.000000 1.769100 
# 
# From -- ./inp_files/310258.got.cif
#   From: 2010.05.17/outbox.cif.g08.bks.cpg/sg15_156_cif.got.tgz:310258.got - 2010.06.03 18:47:42.
