data_PCOD9280430
_publ_section_title
;
Structure prediction by ZEFSAII (Michael W. Deem and Ramdas Pophale) SiO2 
 PCOD9280430
Probable space group: C 2/C
;
_chemical_formula_sum "Si O2"
_cell_formula_units_Z 28
_cell_length_a 12.754521
_cell_length_b 17.983022
_cell_length_c 5.308447
_cell_angle_alpha 90.000000
_cell_angle_beta 57.657494
_cell_angle_gamma 90.000000
_cell_volume 1028.683388
_symmetry_space_group_name_H-M "C 2/C"
_symmetry_group_IT_number 15
_symmetry_cell_setting 'monoclinic'
loop_
_space_group_symop_operation_xyz
x,y,z
-x,y,1/2-z
-x,-y,-z
x,-y,1/2+z
1/2+x,1/2+y,z
1/2-x,1/2+y,1/2-z
1/2-x,1/2-y,-z
1/2+x,1/2-y,1/2+z
loop_
_atom_site_type_symbol
_atom_site_label
_atom_site_fract_x
_atom_site_fract_y
_atom_site_fract_z
Si Si1 0.388043 0.675532 0.229200
Si Si2 0.860654 0.027597 0.103025
Si Si3 0.500000 0.946800 0.750000
Si Si4 0.178414 0.688654 0.916504
O O1 0.500000 0.645862 0.250000
O O2 0.365663 0.614860 0.041787
O O3 0.272047 0.674792 0.565099
O O4 0.422412 0.756300 0.084073
O O5 0.798619 0.013767 0.452097
O O6 0.000000 0.000000 0.000000
O O7 0.614683 0.886324 0.597344
O O8 0.500000 0.000000 0.500000
O O9 0.250000 0.750000 0.000000
#
# Coordination Sequence:
#
# PCOD9280430 Si02
#       4
#     8   8   4   8
#     4  11  24  44  77 110 155 206 272 344 419 499
#     4  10  21  37  60 102 144 184 226 303 396 460
#     4  12  32  58  86 120 176 232 286 350 432 520
#     4  11  28  49  81 113 158 220 285 339 418 506
#
# _framework density 27.219258
#
# number of rings (size 3 to 8) (size 9 to 14) (size 15 to 20)
#    0.000    1.143    2.857    1.714   14.000    4.571 
#    0.000    0.000    0.000    0.000    0.000    0.000 
#    0.000    0.000    0.000    0.000    0.000    0.000 
#
# Total GULP energy -78262.616414 kJ/mol
# GULP energy per Si atom -5590.186887 kJ/mol
# Density = 2.715731 g / cm^3
# Si number density = 27.219258 Si / 1000 Ang^3
#
#
#
# Elastic Constant Matrix: (Units=GPa)
#
#
# Indices 1 2 3 4 5 6 
#
# 1 78.7341 49.7048 26.6481 0.0000 1.9164 0.0000
# 2 49.7048 267.6285 78.2418 0.0000 5.6859 0.0000
# 3 26.6481 78.2418 149.8846 0.0000 10.2628 0.0000
# 4 0.0000 0.0000 0.0000 64.7960 0.0000 3.4996
# 5 1.9164 5.6859 10.2628 0.0000 49.2514 0.0000
# 6 0.0000 0.0000 0.0000 3.4996 0.0000 40.8101
#
#
#
# Elastic Compliance Matrix: (Units=1/GPa)
#
#
# Indices 1 2 3 4 5 6 
#
# 1 0.014631 -0.002309 -0.001395 0.000000 -0.000012 0.000000
# 2 -0.002309 0.004774 -0.002080 0.000000 -0.000028 0.000000
# 3 -0.001395 -0.002080 0.008101 0.000000 -0.001394 0.000000
# 4 0.000000 0.000000 0.000000 0.015505 0.000000 -0.001330
# 5 -0.000012 -0.000028 -0.001394 0.000000 0.020598 0.000000
# 6 0.000000 0.000000 0.000000 -0.001330 0.000000 0.024618
#
#
# Mechanical properties :
#
#
# Convention : Reuss Voigt Hill
#
# Bulk Modulus (GPa) = 62.74192 89.49294 76.11743
# Shear Modulus (GPa) = 47.57042 53.74832 50.65937
#
# Velocity S-wave (km/s) = 4.18506 4.44852 4.31880
# Velocity P-wave (km/s) = 6.81568 7.70296 7.27287
#
# Compressibility (1/GPa) = 0.01593831
#
# Stress axis : x y z
#
# Youngs Moduli (GPa) = 68.34676 209.46887 123.44423
#
# Poissons Ratio (x) = 0.48372 0.17221
# Poissons Ratio (y) = 0.15783 0.25671
# Poissons Ratio (z) = 0.09534 0.43561
#
# Static dielectric constant tensor:
#      x y z
#    x 2.184930 0.000000 0.059850 
#    y 0.000000 2.131590 0.000000 
#    z 0.059850 0.000000 2.539640 
# 
# From -- ./inp_files/6482.got.cif
#   From: 2010.05.17/outbox.cif.g08.bks.cpg/sg15_4_cif.got.tgz:6482.got - 2010.06.03 18:47:42.
