data_PCOD9280199
_publ_section_title
;
Structure prediction by ZEFSAII (Michael W. Deem and Ramdas Pophale) SiO2 
 PCOD9280199
Probable space group: C 2/C
;
_chemical_formula_sum "Si O2"
_cell_formula_units_Z 48
_cell_length_a 7.210620
_cell_length_b 21.907974
_cell_length_c 12.431186
_cell_angle_alpha 90.000000
_cell_angle_beta 84.204996
_cell_angle_gamma 90.000000
_cell_volume 1953.719652
_symmetry_space_group_name_H-M "C 2/C"
_symmetry_group_IT_number 15
_symmetry_cell_setting 'monoclinic'
loop_
_space_group_symop_operation_xyz
x,y,z
-x,y,1/2-z
-x,-y,-z
x,-y,1/2+z
1/2+x,1/2+y,z
1/2-x,1/2+y,1/2-z
1/2-x,1/2-y,-z
1/2+x,1/2-y,1/2+z
loop_
_atom_site_type_symbol
_atom_site_label
_atom_site_fract_x
_atom_site_fract_y
_atom_site_fract_z
Si Si1 0.319231 0.770092 0.817117
Si Si2 0.802839 0.081600 0.477878
Si Si3 0.891217 0.013273 0.162763
Si Si4 0.903635 0.834586 0.483806
Si Si5 0.424103 0.907624 0.078652
Si Si6 0.500000 0.989199 0.750000
Si Si7 0.500000 0.194995 0.750000
O O1 0.500000 0.798173 0.750000
O O2 0.194927 0.811743 0.901962
O O3 0.181040 0.737707 0.740966
O O4 0.389872 0.716614 0.893443
O O5 0.836698 0.032729 0.571169
O O6 0.581539 0.084882 0.477792
O O7 0.885746 0.145673 0.510683
O O8 0.947413 0.060296 0.379202
O O9 0.693063 0.042370 0.206942
O O10 0.000000 0.976575 0.250000
O O11 0.779512 0.892778 0.453478
O O12 0.435213 0.965407 0.156723
O O13 0.482913 0.849567 0.148296
#
# Coordination Sequence:
#
# PCOD9280199 Si02
#       7
#     8   8   8   8   8   4   4
#     4  10  21  37  56  81 112 146 186 231 278 331
#     4  10  21  37  56  81 112 146 186 231 278 331
#     4  10  21  37  56  81 112 146 186 231 278 331
#     4  10  21  37  56  81 112 146 186 231 278 331
#     4   9  18  34  58  84 108 142 188 232 273 320
#     4   9  18  34  58  84 108 142 188 232 273 320
#     4   9  18  34  58  84 108 142 188 232 273 320
#
# _framework density 24.568519999999999
#
# number of rings (size 3 to 8) (size 9 to 14) (size 15 to 20)
#    0.000    2.333    0.000    2.000    0.000    6.000 
#    6.000   10.000    0.000    0.000    0.000    0.000 
#    0.000    0.000    0.000    0.000    0.000    0.000 
#
# Total GULP energy -134212.443789 kJ/mol
# GULP energy per Si atom -5592.185158 kJ/mol
# Density = 2.451260 g / cm^3
# Si number density = 24.568520 Si / 1000 Ang^3
#
#
#
# Elastic Constant Matrix: (Units=GPa)
#
#
# Indices 1 2 3 4 5 6 
#
# 1 102.6326 0.7035 37.4829 0.0000 -25.9496 0.0000
# 2 0.7035 27.5256 -0.4616 0.0000 6.6249 0.0000
# 3 37.4829 -0.4616 54.5682 0.0000 -16.5360 0.0000
# 4 0.0000 0.0000 0.0000 8.4474 0.0000 6.4284
# 5 -25.9496 6.6249 -16.5360 0.0000 40.7965 0.0000
# 6 0.0000 0.0000 0.0000 6.4284 0.0000 11.7863
#
#
#
# Elastic Compliance Matrix: (Units=1/GPa)
#
#
# Indices 1 2 3 4 5 6 
#
# 1 0.014199 -0.001975 -0.007907 0.000000 0.006147 0.000000
# 2 -0.001975 0.038230 -0.000663 0.000000 -0.007733 0.000000
# 3 -0.007907 -0.000663 0.025377 0.000000 0.005364 0.000000
# 4 0.000000 0.000000 0.000000 0.202378 0.000000 -0.110379
# 5 0.006147 -0.007733 0.005364 0.000000 0.031852 0.000000
# 6 0.000000 0.000000 0.000000 -0.110379 0.000000 0.145047
#
#
# Mechanical properties :
#
#
# Convention : Reuss Voigt Hill
#
# Bulk Modulus (GPa) = 17.63192 28.90843 23.27018
# Shear Modulus (GPa) = 10.05875 22.00614 16.03245
#
# Velocity S-wave (km/s) = 2.02560 2.99608 2.55730
# Velocity P-wave (km/s) = 3.55850 4.87449 4.26753
#
# Compressibility (1/GPa) = 0.05671532
#
# Stress axis : x y z
#
# Youngs Moduli (GPa) = 70.42654 26.15717 39.40558
#
# Poissons Ratio (x) = 0.05166 0.31159
# Poissons Ratio (y) = 0.13910 0.02614
# Poissons Ratio (z) = 0.55688 0.01735
#
# Static dielectric constant tensor:
#      x y z
#    x 1.897840 0.000000 0.007270 
#    y 0.000000 1.938320 0.000000 
#    z 0.007270 0.000000 2.059820 
# 
# From -- ./inp_files/130375.got.cif
#   From: 2010.05.17/outbox.cif.g08.bks.cpg/sg15_66_cif.got.tgz:130375.got - 2010.06.03 18:47:42.
