data_PCOD9280984
_publ_section_title
;
Structure prediction by ZEFSAII (Michael W. Deem and Ramdas Pophale) SiO2 
 PCOD9280984
Probable space group: C 2/C
;
_chemical_formula_sum "Si O2"
_cell_formula_units_Z 56
_cell_length_a 25.167708
_cell_length_b 13.420052
_cell_length_c 8.769749
_cell_angle_alpha 90.000000
_cell_angle_beta 90.778508
_cell_angle_gamma 90.000000
_cell_volume 2961.726407
_symmetry_space_group_name_H-M "C 2/C"
_symmetry_group_IT_number 15
_symmetry_cell_setting 'monoclinic'
loop_
_space_group_symop_operation_xyz
x,y,z
-x,y,1/2-z
-x,-y,-z
x,-y,1/2+z
1/2+x,1/2+y,z
1/2-x,1/2+y,1/2-z
1/2-x,1/2-y,-z
1/2+x,1/2-y,1/2+z
loop_
_atom_site_type_symbol
_atom_site_label
_atom_site_fract_x
_atom_site_fract_y
_atom_site_fract_z
Si Si1 0.735764 0.246416 0.819986
Si Si2 0.225980 0.562635 0.289750
Si Si3 0.688008 0.403062 0.266858
Si Si4 0.118080 0.000260 0.516093
Si Si5 0.063289 0.136916 0.260354
Si Si6 0.120017 0.650543 0.783645
Si Si7 0.147220 0.495825 0.035532
O O1 0.730400 0.355730 0.749804
O O2 0.787949 0.206490 0.732742
O O3 0.680988 0.189090 0.792963
O O4 0.750000 0.250000 0.000000
O O5 0.259997 0.462464 0.286201
O O6 0.181865 0.560044 0.155684
O O7 0.191929 0.564188 0.441376
O O8 0.664542 0.446035 0.421349
O O9 0.644066 0.423383 0.137190
O O10 0.083158 0.065153 0.398211
O O11 0.086790 0.916027 0.609375
O O12 0.085131 0.249474 0.283734
O O13 0.000000 0.138321 0.250000
O O14 0.113735 0.583553 0.631381
O O15 0.116123 0.571512 0.923371
#
# Coordination Sequence:
#
# PCOD9280984 Si02
#       7
#     8   8   8   8   8   8   8
#     4  12  20  30  54  84 123 164 199 233 298 361
#     4  11  20  33  52  79 126 167 200 234 286 353
#     4  11  20  34  55  88 128 158 195 235 293 387
#     4  10  23  39  61  93 123 155 198 251 319 380
#     4  11  24  46  68  88 117 158 213 275 325 361
#     4  11  23  39  60  88 122 168 212 249 308 359
#     4  10  21  38  53  83 122 164 207 246 293 356
#
# _framework density 18.907889999999998
#
# number of rings (size 3 to 8) (size 9 to 14) (size 15 to 20)
#    0.000    1.143    4.286    4.714    2.000    0.571 
#    0.000    0.714    0.000    0.000    0.000    0.000 
#    0.000    0.000    0.000    0.000    0.000    0.000 
#
# Total GULP energy -156253.375053 kJ/mol
# GULP energy per Si atom -5580.477680 kJ/mol
# Density = 1.886485 g / cm^3
# Si number density = 18.907890 Si / 1000 Ang^3
#
#
#
# Elastic Constant Matrix: (Units=GPa)
#
#
# Indices 1 2 3 4 5 6 
#
# 1 62.1379 11.2944 9.5554 0.0000 -1.1124 0.0000
# 2 11.2944 65.2216 16.5434 0.0000 3.4201 0.0000
# 3 9.5554 16.5434 79.4499 0.0000 -1.3174 0.0000
# 4 0.0000 0.0000 0.0000 27.9912 0.0000 -1.3610
# 5 -1.1124 3.4201 -1.3174 0.0000 8.6637 0.0000
# 6 0.0000 0.0000 0.0000 -1.3610 0.0000 23.8370
#
#
#
# Elastic Compliance Matrix: (Units=1/GPa)
#
#
# Indices 1 2 3 4 5 6 
#
# 1 0.016859 -0.002720 -0.001411 0.000000 0.003024 0.000000
# 2 -0.002720 0.017051 -0.003349 0.000000 -0.007589 0.000000
# 3 -0.001411 -0.003349 0.013507 0.000000 0.003195 0.000000
# 4 0.000000 0.000000 0.000000 0.035825 0.000000 0.002045
# 5 0.003024 -0.007589 0.003195 0.000000 0.119294 0.000000
# 6 0.000000 0.000000 0.000000 0.002045 0.000000 0.042068
#
#
# Mechanical properties :
#
#
# Convention : Reuss Voigt Hill
#
# Bulk Modulus (GPa) = 30.81122 31.28843 31.04983
# Shear Modulus (GPa) = 18.49232 23.39280 20.94256
#
# Velocity S-wave (km/s) = 3.13073 3.52120 3.33169
# Velocity P-wave (km/s) = 5.42212 5.75461 5.59084
#
# Compressibility (1/GPa) = 0.03245571
#
# Stress axis : x y z
#
# Youngs Moduli (GPa) = 59.31632 58.64813 74.03790
#
# Poissons Ratio (x) = 0.15953 0.10447
# Poissons Ratio (y) = 0.16134 0.24796
# Poissons Ratio (z) = 0.08370 0.19642
#
# Static dielectric constant tensor:
#      x y z
#    x 1.603260 0.000000 0.000780 
#    y 0.000000 1.669950 0.000000 
#    z 0.000780 0.000000 1.696370 
# 
# From -- ./inp_files/55613.got.cif
#   From: 2010.05.17/outbox.cif.g08.bks.cpg/sg15_28_cif.got.tgz:55613.got - 2010.06.03 18:47:42.
