data_PCOD9280816
_publ_section_title
;
Structure prediction by ZEFSAII (Michael W. Deem and Ramdas Pophale) SiO2 
 PCOD9280816
Probable space group: C 2/C
;
_chemical_formula_sum "Si O2"
_cell_formula_units_Z 60
_cell_length_a 22.620845
_cell_length_b 22.164370
_cell_length_c 10.733503
_cell_angle_alpha 90.000000
_cell_angle_beta 30.178563
_cell_angle_gamma 90.000000
_cell_volume 2705.276119
_symmetry_space_group_name_H-M "C 2/C"
_symmetry_group_IT_number 15
_symmetry_cell_setting 'monoclinic'
loop_
_space_group_symop_operation_xyz
x,y,z
-x,y,1/2-z
-x,-y,-z
x,-y,1/2+z
1/2+x,1/2+y,z
1/2-x,1/2+y,1/2-z
1/2-x,1/2-y,-z
1/2+x,1/2-y,1/2+z
loop_
_atom_site_type_symbol
_atom_site_label
_atom_site_fract_x
_atom_site_fract_y
_atom_site_fract_z
Si Si1 0.120081 0.207069 0.789776
Si Si2 0.658882 0.473367 0.683592
Si Si3 0.063908 0.583253 0.502566
Si Si4 0.387145 0.941476 0.116058
Si Si5 0.725628 0.594021 0.705912
Si Si6 0.731218 0.191810 0.211732
Si Si7 0.920764 0.140883 0.021096
Si Si8 0.500000 0.448079 0.750000
O O1 0.212682 0.156629 0.663033
O O2 0.170982 0.220365 0.559562
O O3 0.125069 0.261702 0.878199
O O4 0.997592 0.173884 0.986663
O O5 0.772003 0.444415 0.412178
O O6 0.704627 0.535767 0.657823
O O7 0.558071 0.482564 0.762053
O O8 0.616501 0.424832 0.862244
O O9 0.086325 0.511344 0.464790
O O10 0.178370 0.625117 0.282518
O O11 0.000000 0.599124 0.750000
O O12 0.986101 0.589647 0.519313
O O13 0.344832 0.911359 0.065899
O O14 0.609580 0.590735 0.004039
O O15 0.805435 0.180527 0.200968
O O16 0.000000 0.134905 0.750000
#
# Coordination Sequence:
#
# PCOD9280816 Si02
#       8
#     8   8   8   8   8   8   8   4
#     4  10  22  40  59  87 123 155 206 257 300 364
#     4  11  21  38  60  92 129 160 198 252 312 380
#     4  11  22  42  61  88 119 161 211 259 306 369
#     4  10  23  37  62  89 120 157 202 252 312 364
#     4  11  21  36  55  88 122 158 192 249 301 364
#     4  10  22  40  62  86 116 161 213 253 303 364
#     4  10  21  37  64  92 120 165 203 257 316 368
#     4  10  22  32  54  88 126 158 190 238 304 374
#
# _framework density 22.178882000000002
#
# number of rings (size 3 to 8) (size 9 to 14) (size 15 to 20)
#    0.000    1.600    1.333    3.600    0.933    4.267 
#    1.200    1.333    0.000    4.000    0.000    0.000 
#    0.000    0.000    0.000    0.000    0.000    0.000 
#
# Total GULP energy -167399.420972 kJ/mol
# GULP energy per Si atom -5579.980699 kJ/mol
# Density = 2.212840 g / cm^3
# Si number density = 22.178882 Si / 1000 Ang^3
#
#
#
# Elastic Constant Matrix: (Units=GPa)
#
#
# Indices 1 2 3 4 5 6 
#
# 1 158.1865 55.2745 5.0818 0.0000 -28.4335 0.0000
# 2 55.2745 77.9195 -6.9052 0.0000 -5.0699 0.0000
# 3 5.0818 -6.9052 34.5483 0.0000 2.9684 0.0000
# 4 0.0000 0.0000 0.0000 6.5336 0.0000 0.6365
# 5 -28.4335 -5.0699 2.9684 0.0000 36.6195 0.0000
# 6 0.0000 0.0000 0.0000 0.6365 0.0000 14.0565
#
#
#
# Elastic Compliance Matrix: (Units=1/GPa)
#
#
# Indices 1 2 3 4 5 6 
#
# 1 0.010212 -0.007087 -0.003540 0.000000 0.007235 0.000000
# 2 -0.007087 0.018079 0.004948 0.000000 -0.003401 0.000000
# 3 -0.003540 0.004948 0.030847 0.000000 -0.004564 0.000000
# 4 0.000000 0.000000 0.000000 0.153733 0.000000 -0.006961
# 5 0.007235 -0.003401 -0.004564 0.000000 0.032825 0.000000
# 6 0.000000 0.000000 0.000000 -0.006961 0.000000 0.071457
#
#
# Mechanical properties :
#
#
# Convention : Reuss Voigt Hill
#
# Bulk Modulus (GPa) = 20.92990 41.95071 31.44030
# Shear Modulus (GPa) = 14.51640 25.92215 20.21927
#
# Velocity S-wave (km/s) = 2.56112 3.42245 3.02262
# Velocity P-wave (km/s) = 4.26651 5.87991 5.13695
#
# Compressibility (1/GPa) = 0.04777855
#
# Stress axis : x y z
#
# Youngs Moduli (GPa) = 97.91961 55.31383 32.41816
#
# Poissons Ratio (x) = 0.39204 0.11477
# Poissons Ratio (y) = 0.69400 -0.16041
# Poissons Ratio (z) = 0.34668 -0.27370
#
# Static dielectric constant tensor:
#      x y z
#    x 1.898510 0.000000 0.063690 
#    y 0.000000 1.796460 0.000000 
#    z 0.063690 0.000000 1.942020 
# 
# From -- ./inp_files/119930.got.cif
#   From: 2010.05.17/outbox.cif.g08.bks.cpg/sg15_60_cif.got.tgz:119930.got - 2010.06.03 18:47:42.
