data_PCOD9280281
_publ_section_title
;
Structure prediction by ZEFSAII (Michael W. Deem and Ramdas Pophale) SiO2 
 PCOD9280281
Probable space group: C 2/C
;
_chemical_formula_sum "Si O2"
_cell_formula_units_Z 48
_cell_length_a 13.409218
_cell_length_b 13.763404
_cell_length_c 15.943455
_cell_angle_alpha 90.000000
_cell_angle_beta 38.447955
_cell_angle_gamma 90.000000
_cell_volume 1829.636884
_symmetry_space_group_name_H-M "C 2/C"
_symmetry_group_IT_number 15
_symmetry_cell_setting 'monoclinic'
loop_
_space_group_symop_operation_xyz
x,y,z
-x,y,1/2-z
-x,-y,-z
x,-y,1/2+z
1/2+x,1/2+y,z
1/2-x,1/2+y,1/2-z
1/2-x,1/2-y,-z
1/2+x,1/2-y,1/2+z
loop_
_atom_site_type_symbol
_atom_site_label
_atom_site_fract_x
_atom_site_fract_y
_atom_site_fract_z
Si Si1 0.865352 0.880728 0.118363
Si Si2 0.281616 0.593016 0.847834
Si Si3 0.831231 0.324884 0.814807
Si Si4 0.297458 0.503708 0.507181
Si Si5 0.515394 0.149030 0.653978
Si Si6 0.937623 0.332577 0.563426
O O1 0.869906 0.935697 0.204007
O O2 0.671899 0.858654 0.246633
O O3 0.965839 0.782151 0.059383
O O4 0.892465 0.929799 0.011063
O O5 0.308427 0.709243 0.841600
O O6 0.336138 0.525815 0.887316
O O7 0.087482 0.594293 0.972375
O O8 0.720669 0.401453 0.934047
O O9 0.830754 0.352721 0.716117
O O10 0.000000 0.342815 0.750000
O O11 0.124545 0.558684 0.612678
O O12 0.500000 0.212737 0.750000
O O13 0.605343 0.171974 0.506992
#
# Coordination Sequence:
#
# PCOD9280281 Si02
#       6
#     8   8   8   8   8   8
#     4   9  21  37  56  90 116 145 199 240 290 344
#     4  10  22  37  61  86 115 154 195 238 289 353
#     4  11  21  36  60  85 113 151 199 237 294 343
#     4  11  21  35  59  87 115 148 197 250 279 336
#     4   9  20  35  57  86 116 146 198 240 284 346
#     4  10  21  37  58  80 119 156 182 242 294 344
#
# _framework density 26.234712999999999
#
# number of rings (size 3 to 8) (size 9 to 14) (size 15 to 20)
#    0.000    2.000    1.667    2.000    2.333    4.000 
#    0.000    0.833    0.000    0.000    0.000    0.000 
#    0.000    0.000    0.000    0.000    0.000    0.000 
#
# Total GULP energy -133812.711116 kJ/mol
# GULP energy per Si atom -5575.529630 kJ/mol
# Density = 2.617500 g / cm^3
# Si number density = 26.234713 Si / 1000 Ang^3
#
#
#
# Elastic Constant Matrix: (Units=GPa)
#
#
# Indices 1 2 3 4 5 6 
#
# 1 73.4799 19.2659 36.5535 -0.0001 26.0296 0.0001
# 2 19.2659 61.1630 24.5848 -0.0001 -7.4272 0.0001
# 3 36.5535 24.5848 131.5257 -0.0001 49.6527 0.0001
# 4 -0.0001 -0.0001 -0.0001 38.5562 0.0001 11.8786
# 5 26.0296 -7.4272 49.6527 0.0001 64.4466 -0.0001
# 6 0.0001 0.0001 0.0001 11.8786 -0.0001 44.3710
#
#
#
# Elastic Compliance Matrix: (Units=1/GPa)
#
#
# Indices 1 2 3 4 5 6 
#
# 1 0.018387 -0.006160 -0.001251 0.000000 -0.007173 0.000000
# 2 -0.006160 0.021882 -0.006020 0.000000 0.009648 0.000000
# 3 -0.001251 -0.006020 0.012899 0.000000 -0.010127 0.000000
# 4 0.000000 0.000000 0.000000 0.028268 0.000000 -0.007568
# 5 -0.007173 0.009648 -0.010127 0.000000 0.027328 0.000000
# 6 0.000000 0.000000 0.000000 -0.007568 0.000000 0.024563
#
#
# Mechanical properties :
#
#
# Convention : Reuss Voigt Hill
#
# Bulk Modulus (GPa) = 38.01548 47.44192 42.72870
# Shear Modulus (GPa) = 29.59314 41.85904 35.72609
#
# Velocity S-wave (km/s) = 3.36224 3.99878 3.69424
# Velocity P-wave (km/s) = 5.44011 6.28038 5.87529
#
# Compressibility (1/GPa) = 0.02630507
#
# Stress axis : x y z
#
# Youngs Moduli (GPa) = 54.38489 45.70026 77.52526
#
# Poissons Ratio (x) = 0.28152 0.09699
# Poissons Ratio (y) = 0.33501 0.46674
# Poissons Ratio (z) = 0.06804 0.27514
#
# Static dielectric constant tensor:
#      x y z
#    x 2.185260 0.000000 -0.005670 
#    y 0.000000 2.021050 0.000000 
#    z -0.005670 0.000000 2.130810 
# 
# From -- ./inp_files/153790.got.cif
#   From: 2010.05.17/outbox.cif.g08.bks.cpg/sg15_77_cif.got.tgz:153790.got - 2010.06.03 18:47:42.
