data_PCOD9280091
_publ_section_title
;
Structure prediction by ZEFSAII (Michael W. Deem and Ramdas Pophale) SiO2 
 PCOD9280091
Probable space group: C 2/C
;
_chemical_formula_sum "Si O2"
_cell_formula_units_Z 40
_cell_length_a 10.507106
_cell_length_b 16.318080
_cell_length_c 12.218563
_cell_angle_alpha 90.000000
_cell_angle_beta 109.269040
_cell_angle_gamma 90.000000
_cell_volume 1977.583477
_symmetry_space_group_name_H-M "C 2/C"
_symmetry_group_IT_number 15
_symmetry_cell_setting 'monoclinic'
loop_
_space_group_symop_operation_xyz
x,y,z
-x,y,1/2-z
-x,-y,-z
x,-y,1/2+z
1/2+x,1/2+y,z
1/2-x,1/2+y,1/2-z
1/2-x,1/2-y,-z
1/2+x,1/2-y,1/2+z
loop_
_atom_site_type_symbol
_atom_site_label
_atom_site_fract_x
_atom_site_fract_y
_atom_site_fract_z
Si Si1 0.853663 0.182723 0.573775
Si Si2 0.702256 0.024892 0.477984
Si Si3 0.087652 0.598111 0.098783
Si Si4 0.347840 0.266322 0.318852
Si Si5 0.126381 0.634257 0.865740
O O1 0.750000 0.250000 0.500000
O O2 0.813364 0.093968 0.517323
O O3 0.836020 0.188280 0.699691
O O4 0.007218 0.206964 0.592915
O O5 0.558526 0.066592 0.409141
O O6 0.678139 0.979971 0.589487
O O7 0.714634 0.949593 0.397365
O O8 0.146697 0.667758 0.193040
O O9 0.073776 0.641304 0.975114
O O10 0.223062 0.292952 0.357199
O O11 0.000000 0.626068 0.750000
#
# Coordination Sequence:
#
# PCOD9280091 Si02
#       5
#     8   8   8   8   8
#     4  11  23  41  59  89 127 163 207 255 305 369
#     4   9  20  38  63  85 125 154 201 249 298 370
#     4   9  19  39  61  90 122 150 206 247 306 369
#     4  11  23  38  65  89 120 167 204 253 314 364
#     4  10  21  36  66  91 123 156 207 254 310 360
#
# _framework density 20.226704999999999
#
# number of rings (size 3 to 8) (size 9 to 14) (size 15 to 20)
#    1.200    0.800    2.000    1.800    0.000    2.400 
#    0.000    0.000    4.400    0.000    0.000    0.000 
#    0.000    0.000    0.000    0.000    0.000    0.000 
#
# Total GULP energy -111496.458728 kJ/mol
# GULP energy per Si atom -5574.822936 kJ/mol
# Density = 2.018067 g / cm^3
# Si number density = 20.226705 Si / 1000 Ang^3
#
#
#
# Elastic Constant Matrix: (Units=GPa)
#
#
# Indices 1 2 3 4 5 6 
#
# 1 27.4254 13.1078 5.3728 0.0000 11.9522 0.0000
# 2 13.1078 107.7154 6.7890 0.0000 19.3138 0.0000
# 3 5.3728 6.7890 44.4746 0.0000 14.9374 0.0000
# 4 0.0000 0.0000 0.0000 26.8549 0.0000 5.4831
# 5 11.9522 19.3138 14.9374 0.0000 26.2102 0.0000
# 6 0.0000 0.0000 0.0000 5.4831 0.0000 32.6219
#
#
#
# Elastic Compliance Matrix: (Units=1/GPa)
#
#
# Indices 1 2 3 4 5 6 
#
# 1 0.046011 -0.002044 0.001601 0.000000 -0.020388 0.000000
# 2 -0.002044 0.010845 0.001190 0.000000 -0.007737 0.000000
# 3 0.001601 0.001190 0.028011 0.000000 -0.017571 0.000000
# 4 0.000000 0.000000 0.000000 0.038561 0.000000 -0.006481
# 5 -0.020388 -0.007737 -0.017571 0.000000 0.063166 0.000000
# 6 0.000000 0.000000 0.000000 -0.006481 0.000000 0.031744
#
#
# Mechanical properties :
#
#
# Convention : Reuss Voigt Hill
#
# Bulk Modulus (GPa) = 11.57924 25.57273 18.57598
# Shear Modulus (GPa) = 20.35582 27.42711 23.89147
#
# Velocity S-wave (km/s) = 3.17580 3.68637 3.44056
# Velocity P-wave (km/s) = 4.38004 5.54883 4.99871
#
# Compressibility (1/GPa) = 0.08636143
#
# Stress axis : x y z
#
# Youngs Moduli (GPa) = 21.73382 92.20976 35.70010
#
# Poissons Ratio (x) = 0.18851 -0.05716
# Poissons Ratio (y) = 0.04443 -0.04249
# Poissons Ratio (z) = -0.03480 -0.10975
#
# Static dielectric constant tensor:
#      x y z
#    x 1.689090 0.000000 -0.030130 
#    y 0.000000 1.750320 0.000000 
#    z -0.030130 0.000000 1.743010 
# 
# From -- ./inp_files/144805.got.cif
#   From: 2010.05.17/outbox.cif.g08.bks.cpg/sg15_73_cif.got.tgz:144805.got - 2010.06.03 18:47:42.
