data_PCOD9280330
_publ_section_title
;
Structure prediction by ZEFSAII (Michael W. Deem and Ramdas Pophale) SiO2 
 PCOD9280330
Probable space group: C 2/C
;
_chemical_formula_sum "Si O2"
_cell_formula_units_Z 56
_cell_length_a 5.171463
_cell_length_b 27.583205
_cell_length_c 21.387370
_cell_angle_alpha 90.000000
_cell_angle_beta 79.972891
_cell_angle_gamma 90.000000
_cell_volume 3004.212912
_symmetry_space_group_name_H-M "C 2/C"
_symmetry_group_IT_number 15
_symmetry_cell_setting 'monoclinic'
loop_
_space_group_symop_operation_xyz
x,y,z
-x,y,1/2-z
-x,-y,-z
x,-y,1/2+z
1/2+x,1/2+y,z
1/2-x,1/2+y,1/2-z
1/2-x,1/2-y,-z
1/2+x,1/2-y,1/2+z
loop_
_atom_site_type_symbol
_atom_site_label
_atom_site_fract_x
_atom_site_fract_y
_atom_site_fract_z
Si Si1 0.754106 0.503687 0.056972
Si Si2 0.942078 0.268849 0.583551
Si Si3 0.726268 0.291588 0.292591
Si Si4 0.983597 0.812329 0.525581
Si Si5 0.845076 0.605125 0.849496
Si Si6 0.097795 0.083279 0.983908
Si Si7 0.145510 0.045235 0.683991
O O1 0.666434 0.558434 0.046823
O O2 0.772080 0.492215 0.129389
O O3 0.562237 0.460744 0.041141
O O4 0.000000 0.500000 0.000000
O O5 0.868879 0.248241 0.653973
O O6 0.727533 0.304349 0.561797
O O7 0.963920 0.222662 0.535853
O O8 0.222959 0.294120 0.570230
O O9 0.500000 0.300758 0.250000
O O10 0.797775 0.340475 0.328308
O O11 0.000000 0.276276 0.250000
O O12 0.951436 0.866751 0.502302
O O13 0.594167 0.575489 0.835618
O O14 0.117729 0.582953 0.813100
O O15 0.831168 0.597719 0.925645
O O16 0.000000 0.022630 0.750000
#
# Coordination Sequence:
#
# PCOD9280330 Si02
#       7
#     8   8   8   8   8   8   8
#     4  10  21  37  58  89 121 160 199 250 315 354
#     4  10  22  38  57  90 114 157 202 235 302 350
#     4  12  23  37  58  86 126 163 196 243 301 375
#     4  10  21  38  62  84 120 151 199 256 289 351
#     4  11  21  36  56  87 120 156 195 232 310 368
#     4  10  21  37  60  90 121 155 198 258 304 361
#     4  11  22  36  56  81 121 158 197 243 292 372
#
# _framework density 18.640488000000001
#
# number of rings (size 3 to 8) (size 9 to 14) (size 15 to 20)
#    0.000    1.429    2.857    3.429    2.000    0.000 
#    0.000    0.000    0.000    2.571    0.000    0.000 
#    0.000    0.000    0.000    0.000    0.000    0.000 
#
# Total GULP energy -156113.035975 kJ/mol
# GULP energy per Si atom -5575.465571 kJ/mol
# Density = 1.859806 g / cm^3
# Si number density = 18.640488 Si / 1000 Ang^3
#
#
#
# Elastic Constant Matrix: (Units=GPa)
#
#
# Indices 1 2 3 4 5 6 
#
# 1 80.9959 6.5275 24.6146 0.0000 -17.5625 0.0000
# 2 6.5275 63.0946 31.5134 0.0000 -7.5209 0.0000
# 3 24.6146 31.5134 121.6156 0.0000 -28.2606 0.0000
# 4 0.0000 0.0000 0.0000 10.1766 0.0000 -4.1151
# 5 -17.5625 -7.5209 -28.2606 0.0000 28.0690 0.0000
# 6 0.0000 0.0000 0.0000 -4.1151 0.0000 14.0490
#
#
#
# Elastic Compliance Matrix: (Units=1/GPa)
#
#
# Indices 1 2 3 4 5 6 
#
# 1 0.014390 -0.000011 -0.001068 0.000000 0.007926 0.000000
# 2 -0.000011 0.018206 -0.004678 0.000000 0.000162 0.000000
# 3 -0.001068 -0.004678 0.012016 0.000000 0.010176 0.000000
# 4 0.000000 0.000000 0.000000 0.111467 0.000000 0.032650
# 5 0.007926 0.000162 0.010176 0.000000 0.050874 0.000000
# 6 0.000000 0.000000 0.000000 0.032650 0.000000 0.080743
#
#
# Mechanical properties :
#
#
# Convention : Reuss Voigt Hill
#
# Bulk Modulus (GPa) = 30.21249 43.44633 36.82941
# Shear Modulus (GPa) = 16.11644 23.99564 20.05604
#
# Velocity S-wave (km/s) = 2.94359 3.59177 3.28371
# Velocity P-wave (km/s) = 5.27220 6.36861 5.84617
#
# Compressibility (1/GPa) = 0.03309889
#
# Stress axis : x y z
#
# Youngs Moduli (GPa) = 69.49139 54.92693 83.22527
#
# Poissons Ratio (x) = 0.00058 0.08889
# Poissons Ratio (y) = 0.00073 0.38932
# Poissons Ratio (z) = 0.07422 0.25694
#
# Static dielectric constant tensor:
#      x y z
#    x 1.735910 0.000000 0.038950 
#    y 0.000000 1.633100 0.000000 
#    z 0.038950 0.000000 1.723890 
# 
# From -- ./inp_files/228100.got.cif
#   From: 2010.05.17/outbox.cif.g08.bks.cpg/sg15_115_cif.got.tgz:228100.got - 2010.06.03 18:47:42.
