data_PCOD9280257
_publ_section_title
;
Structure prediction by ZEFSAII (Michael W. Deem and Ramdas Pophale) SiO2 
 PCOD9280257
Probable space group: C 2/C
;
_chemical_formula_sum "Si O2"
_cell_formula_units_Z 56
_cell_length_a 15.364551
_cell_length_b 27.044455
_cell_length_c 8.832227
_cell_angle_alpha 90.000000
_cell_angle_beta 124.413596
_cell_angle_gamma 90.000000
_cell_volume 3027.690233
_symmetry_space_group_name_H-M "C 2/C"
_symmetry_group_IT_number 15
_symmetry_cell_setting 'monoclinic'
loop_
_space_group_symop_operation_xyz
x,y,z
-x,y,1/2-z
-x,-y,-z
x,-y,1/2+z
1/2+x,1/2+y,z
1/2-x,1/2+y,1/2-z
1/2-x,1/2-y,-z
1/2+x,1/2-y,1/2+z
loop_
_atom_site_type_symbol
_atom_site_label
_atom_site_fract_x
_atom_site_fract_y
_atom_site_fract_z
Si Si1 0.773674 0.661614 0.852903
Si Si2 0.461441 0.303823 0.384733
Si Si3 0.021848 0.092663 0.092946
Si Si4 0.272482 0.547476 0.349963
Si Si5 0.019832 0.299792 0.092140
Si Si6 0.186168 0.946729 0.255572
Si Si7 0.900192 0.626564 0.256906
O O1 0.665005 0.691155 0.741431
O O2 0.861158 0.684455 0.830687
O O3 0.745239 0.605019 0.782584
O O4 0.824010 0.657981 0.070305
O O5 0.500000 0.305061 0.250000
O O6 0.506594 0.351804 0.515441
O O7 0.497335 0.253762 0.499368
O O8 0.000000 0.090859 0.250000
O O9 0.136882 0.073242 0.161309
O O10 0.932612 0.059862 0.921827
O O11 0.259259 0.492644 0.272532
O O12 0.312673 0.545698 0.562876
O O13 0.167249 0.580522 0.249881
O O14 0.000000 0.299569 0.250000
O O15 0.945295 0.339203 0.933301
O O16 0.000000 0.611355 0.250000
#
# Coordination Sequence:
#
# PCOD9280257 Si02
#       7
#     8   8   8   8   8   8   8
#     4   9  21  41  59  80 115 149 188 235 277 337
#     4  11  22  38  62  86 112 151 190 228 285 342
#     4  11  22  36  56  87 121 149 187 234 282 340
#     4  11  21  37  61  84 115 152 191 236 283 334
#     4  11  24  39  58  86 116 148 188 235 283 334
#     4  10  21  37  57  85 116 153 190 230 287 338
#     4   9  20  40  60  81 111 150 193 232 278 334
#
# _framework density 18.495947999999999
#
# number of rings (size 3 to 8) (size 9 to 14) (size 15 to 20)
#    0.000    1.714    0.000    6.000    0.000    7.429 
#    0.000    7.143    0.000    0.000    0.000    0.000 
#    0.000    0.000    0.000    0.000    0.000    0.000 
#
# Total GULP energy -156486.131442 kJ/mol
# GULP energy per Si atom -5588.790409 kJ/mol
# Density = 1.845385 g / cm^3
# Si number density = 18.495948 Si / 1000 Ang^3
#
#
#
# Elastic Constant Matrix: (Units=GPa)
#
#
# Indices 1 2 3 4 5 6 
#
# 1 98.9610 63.6879 45.1891 0.0000 -12.8716 0.0000
# 2 63.6879 90.9114 37.1952 0.0000 -14.8176 0.0000
# 3 45.1891 37.1952 65.2307 0.0000 -14.5126 0.0000
# 4 0.0000 0.0000 0.0000 16.3998 0.0000 -10.6666
# 5 -12.8716 -14.8176 -14.5126 0.0000 32.7460 0.0000
# 6 0.0000 0.0000 0.0000 -10.6666 0.0000 16.8184
#
#
#
# Elastic Compliance Matrix: (Units=1/GPa)
#
#
# Indices 1 2 3 4 5 6 
#
# 1 0.021274 -0.011625 -0.008230 0.000000 -0.000546 0.000000
# 2 -0.011625 0.021004 -0.003135 0.000000 0.003546 0.000000
# 3 -0.008230 -0.003135 0.024167 0.000000 0.006057 0.000000
# 4 0.000000 0.000000 0.000000 0.103791 0.000000 0.065827
# 5 -0.000546 0.003546 0.006057 0.000000 0.034612 0.000000
# 6 0.000000 0.000000 0.000000 0.065827 0.000000 0.101208
#
#
# Mechanical properties :
#
#
# Convention : Reuss Voigt Hill
#
# Bulk Modulus (GPa) = 48.86440 60.80528 54.83484
# Shear Modulus (GPa) = 13.93314 20.46155 17.19735
#
# Velocity S-wave (km/s) = 2.74762 3.32968 3.05255
# Velocity P-wave (km/s) = 6.04502 6.90859 6.49118
#
# Compressibility (1/GPa) = 0.02046480
#
# Stress axis : x y z
#
# Youngs Moduli (GPa) = 47.00669 47.61025 41.37929
#
# Poissons Ratio (x) = 0.55346 0.34056
# Poissons Ratio (y) = 0.54645 0.12971
# Poissons Ratio (z) = 0.38688 0.14924
#
# Static dielectric constant tensor:
#      x y z
#    x 1.610770 0.000000 0.011510 
#    y 0.000000 1.627760 0.000000 
#    z 0.011510 0.000000 1.627870 
# 
# From -- ./inp_files/42749.got.cif
#   From: 2010.05.17/outbox.cif.g08.bks.cpg/sg15_22_cif.got.tgz:42749.got - 2010.06.03 18:47:42.
