data_PCOD9280675
_publ_section_title
;
Structure prediction by ZEFSAII (Michael W. Deem and Ramdas Pophale) SiO2 
 PCOD9280675
Probable space group: C 2/C
;
_chemical_formula_sum "Si O2"
_cell_formula_units_Z 56
_cell_length_a 27.175064
_cell_length_b 8.978059
_cell_length_c 19.072868
_cell_angle_alpha 90.000000
_cell_angle_beta 37.789378
_cell_angle_gamma 90.000000
_cell_volume 2851.411102
_symmetry_space_group_name_H-M "C 2/C"
_symmetry_group_IT_number 15
_symmetry_cell_setting 'monoclinic'
loop_
_space_group_symop_operation_xyz
x,y,z
-x,y,1/2-z
-x,-y,-z
x,-y,1/2+z
1/2+x,1/2+y,z
1/2-x,1/2+y,1/2-z
1/2-x,1/2-y,-z
1/2+x,1/2-y,1/2+z
loop_
_atom_site_type_symbol
_atom_site_label
_atom_site_fract_x
_atom_site_fract_y
_atom_site_fract_z
Si Si1 0.762595 0.596957 0.025168
Si Si2 0.962465 0.067312 0.971389
Si Si3 0.082075 0.584761 0.202890
Si Si4 0.319507 0.924662 0.614723
Si Si5 0.674013 0.383301 0.315003
Si Si6 0.889482 0.091812 0.774786
Si Si7 0.016897 0.575290 0.054913
O O1 0.777797 0.625919 0.090134
O O2 0.679276 0.507195 0.113653
O O3 0.750000 0.750000 0.000000
O O4 0.840288 0.504936 0.910601
O O5 0.021189 0.025871 0.840496
O O6 0.965872 0.247288 0.969727
O O7 0.875571 0.991857 0.076264
O O8 0.000000 0.000000 0.000000
O O9 0.102248 0.759621 0.188551
O O10 0.000000 0.566921 0.250000
O O11 0.056609 0.543078 0.310609
O O12 0.330011 0.783220 0.652318
O O13 0.263064 0.050652 0.711570
O O14 0.404436 0.998012 0.502814
O O15 0.640972 0.380769 0.271723
O O16 0.000000 0.500000 0.000000
#
# Coordination Sequence:
#
# PCOD9280675 Si02
#       7
#     8   8   8   8   8   8   8
#     4  11  25  43  60  91 131 171 210 267 317 379
#     4   9  18  36  58  92 121 159 202 260 314 373
#     4  11  22  43  64  91 128 170 215 259 312 390
#     4  11  22  39  59  93 126 167 213 265 321 379
#     4  10  21  37  62  91 129 155 213 267 317 371
#     4   9  21  41  65  86 123 168 212 252 319 381
#     4  11  22  38  67  93 124 166 213 262 326 375
#
# _framework density 19.639399000000001
#
# number of rings (size 3 to 8) (size 9 to 14) (size 15 to 20)
#    0.000    1.714    1.429    3.857    0.000    6.857 
#    5.143    0.000    0.000    0.000    0.000    0.000 
#    0.000    0.000    0.000    0.000    0.000    0.000 
#
# Total GULP energy -156169.713201 kJ/mol
# GULP energy per Si atom -5577.489757 kJ/mol
# Density = 1.959470 g / cm^3
# Si number density = 19.639399 Si / 1000 Ang^3
#
#
#
# Elastic Constant Matrix: (Units=GPa)
#
#
# Indices 1 2 3 4 5 6 
#
# 1 26.1988 15.4369 11.5394 -0.0012 -0.4273 0.0015
# 2 15.4369 89.2805 50.1927 0.0017 -0.6996 0.0001
# 3 11.5394 50.1927 112.5775 0.0002 -9.7216 -0.0002
# 4 -0.0012 0.0017 0.0002 39.0710 0.0002 -0.2581
# 5 -0.4273 -0.6996 -9.7216 0.0002 25.1953 -0.0008
# 6 0.0015 0.0001 -0.0002 -0.2581 -0.0008 26.3456
#
#
#
# Elastic Compliance Matrix: (Units=1/GPa)
#
#
# Indices 1 2 3 4 5 6 
#
# 1 0.042676 -0.006564 -0.001449 0.000002 -0.000018 -0.000002
# 2 -0.006564 0.016079 -0.006690 -0.000001 -0.002246 0.000000
# 3 -0.001449 -0.006690 0.012409 0.000000 0.004578 0.000000
# 4 0.000002 -0.000001 0.000000 0.025596 0.000000 0.000251
# 5 -0.000018 -0.002246 0.004578 0.000000 0.041394 0.000001
# 6 -0.000002 0.000000 0.000000 0.000251 0.000001 0.037959
#
#
# Mechanical properties :
#
#
# Convention : Reuss Voigt Hill
#
# Bulk Modulus (GPa) = 23.94793 42.48830 33.21811
# Shear Modulus (GPa) = 22.78541 28.18159 25.48350
#
# Velocity S-wave (km/s) = 3.40985 3.79219 3.60609
# Velocity P-wave (km/s) = 5.26527 6.39182 5.85570
#
# Compressibility (1/GPa) = 0.04175727
#
# Stress axis : x y z
#
# Youngs Moduli (GPa) = 23.43265 62.19271 80.58439
#
# Poissons Ratio (x) = 0.40824 0.11678
# Poissons Ratio (y) = 0.15381 0.53911
# Poissons Ratio (z) = 0.03396 0.41607
#
# Static dielectric constant tensor:
#      x y z
#    x 1.731390 0.000000 -0.018040 
#    y 0.000000 1.668620 0.000000 
#    z -0.018040 0.000000 1.727530 
# 
# From -- ./inp_files/222006.got.cif
#   From: 2010.05.17/outbox.cif.g08.bks.cpg/sg15_112_cif.got.tgz:222006.got - 2010.06.03 18:47:42.
