data_PCOD9280429
_publ_section_title
;
Structure prediction by ZEFSAII (Michael W. Deem and Ramdas Pophale) SiO2 
 PCOD9280429
Probable space group: C 2/C
;
_chemical_formula_sum "Si O2"
_cell_formula_units_Z 40
_cell_length_a 12.737083
_cell_length_b 12.726877
_cell_length_c 12.045943
_cell_angle_alpha 90.000000
_cell_angle_beta 118.657069
_cell_angle_gamma 90.000000
_cell_volume 1713.494035
_symmetry_space_group_name_H-M "C 2/C"
_symmetry_group_IT_number 15
_symmetry_cell_setting 'monoclinic'
loop_
_space_group_symop_operation_xyz
x,y,z
-x,y,1/2-z
-x,-y,-z
x,-y,1/2+z
1/2+x,1/2+y,z
1/2-x,1/2+y,1/2-z
1/2-x,1/2-y,-z
1/2+x,1/2-y,1/2+z
loop_
_atom_site_type_symbol
_atom_site_label
_atom_site_fract_x
_atom_site_fract_y
_atom_site_fract_z
Si Si1 0.793772 0.118650 0.990086
Si Si2 0.030587 0.385829 0.464238
Si Si3 0.782975 0.890466 0.904599
Si Si4 0.930930 0.726614 0.117621
Si Si5 0.352711 0.260875 0.727760
O O1 0.879467 0.173023 0.126029
O O2 0.761947 0.194508 0.871861
O O3 0.663292 0.106603 0.982346
O O4 0.825741 0.006601 0.956060
O O5 0.939905 0.328162 0.329111
O O6 0.000000 0.500000 0.500000
O O7 0.015531 0.314599 0.564635
O O8 0.846808 0.811300 0.020024
O O9 0.817425 0.847182 0.801255
O O10 0.643462 0.869017 0.862865
O O11 0.000000 0.782198 0.250000
#
# Coordination Sequence:
#
# PCOD9280429 Si02
#       5
#     8   8   8   8   8
#     4  11  23  43  69  92 138 183 218 283 337 399
#     4  11  22  39  68 101 131 177 224 283 333 398
#     4  10  22  39  64  94 133 178 221 272 335 400
#     4  10  21  37  60 101 134 165 223 281 328 402
#     4  10  25  41  62 105 138 170 232 277 338 400
#
# _framework density 23.344113
#
# number of rings (size 3 to 8) (size 9 to 14) (size 15 to 20)
#    0.000    1.600    2.000    1.800    5.600    0.000 
#    0.000    4.000    0.000   19.200    0.000    0.000 
#    0.000    0.000    0.000    0.000    0.000    0.000 
#
# Total GULP energy -111598.092600 kJ/mol
# GULP energy per Si atom -5579.904630 kJ/mol
# Density = 2.329098 g / cm^3
# Si number density = 23.344113 Si / 1000 Ang^3
#
#
#
# Elastic Constant Matrix: (Units=GPa)
#
#
# Indices 1 2 3 4 5 6 
#
# 1 68.4334 33.4376 43.4181 0.0000 -1.1809 0.0000
# 2 33.4376 173.4682 51.1513 0.0000 -18.0038 0.0000
# 3 43.4181 51.1513 160.1050 0.0000 -36.8578 0.0000
# 4 0.0000 0.0000 0.0000 260.6599 0.0000 21.9152
# 5 -1.1809 -18.0038 -36.8578 0.0000 30.4732 0.0000
# 6 0.0000 0.0000 0.0000 21.9152 0.0000 45.1870
#
#
#
# Elastic Compliance Matrix: (Units=1/GPa)
#
#
# Indices 1 2 3 4 5 6 
#
# 1 0.020003 -0.002841 -0.006548 0.000000 -0.008823 0.000000
# 2 -0.002841 0.006840 -0.000707 0.000000 0.003076 0.000000
# 3 -0.006548 -0.000707 0.011216 0.000000 0.012894 0.000000
# 4 0.000000 0.000000 0.000000 0.003999 0.000000 -0.001940
# 5 -0.008823 0.003076 0.012894 0.000000 0.049887 0.000000
# 6 0.000000 0.000000 0.000000 -0.001940 0.000000 0.023071
#
#
# Mechanical properties :
#
#
# Convention : Reuss Voigt Hill
#
# Bulk Modulus (GPa) = 55.96670 73.11340 64.54005
# Shear Modulus (GPa) = 35.41988 85.53066 60.47527
#
# Velocity S-wave (km/s) = 3.89947 6.05959 5.09532
# Velocity P-wave (km/s) = 6.65591 8.96359 7.89453
#
# Compressibility (1/GPa) = 0.01786777
#
# Stress axis : x y z
#
# Youngs Moduli (GPa) = 49.99254 146.19925 89.15914
#
# Poissons Ratio (x) = 0.41529 0.58383
# Poissons Ratio (y) = 0.14201 0.06302
# Poissons Ratio (z) = 0.32736 0.10333
#
# Static dielectric constant tensor:
#      x y z
#    x 1.996450 0.000000 0.092560 
#    y 0.000000 1.888780 0.000000 
#    z 0.092560 0.000000 1.958360 
# 
# From -- ./inp_files/237899.got.cif
#   From: 2010.05.17/outbox.cif.g08.bks.cpg/sg15_119_cif.got.tgz:237899.got - 2010.06.03 18:47:42.
