data_PCOD9280378
_publ_section_title
;
Structure prediction by ZEFSAII (Michael W. Deem and Ramdas Pophale) SiO2 
 PCOD9280378
Probable space group: C 2/C
;
_chemical_formula_sum "Si O2"
_cell_formula_units_Z 56
_cell_length_a 24.338465
_cell_length_b 13.264161
_cell_length_c 17.648148
_cell_angle_alpha 90.000000
_cell_angle_beta 24.038680
_cell_angle_gamma 90.000000
_cell_volume 2320.829961
_symmetry_space_group_name_H-M "C 2/C"
_symmetry_group_IT_number 15
_symmetry_cell_setting 'monoclinic'
loop_
_space_group_symop_operation_xyz
x,y,z
-x,y,1/2-z
-x,-y,-z
x,-y,1/2+z
1/2+x,1/2+y,z
1/2-x,1/2+y,1/2-z
1/2-x,1/2-y,-z
1/2+x,1/2-y,1/2+z
loop_
_atom_site_type_symbol
_atom_site_label
_atom_site_fract_x
_atom_site_fract_y
_atom_site_fract_z
Si Si1 0.338728 0.554365 0.127275
Si Si2 0.902423 0.154062 0.633683
Si Si3 0.316839 0.341115 0.958460
Si Si4 0.075614 0.541941 0.552286
Si Si5 0.445515 0.738238 0.427873
Si Si6 0.693063 0.951153 0.650989
Si Si7 0.150370 0.350011 0.556126
O O1 0.374703 0.442215 0.113120
O O2 0.211729 0.578576 0.340338
O O3 0.278727 0.562397 0.118825
O O4 0.470464 0.622595 0.975014
O O5 0.941687 0.237393 0.522632
O O6 0.769962 0.182720 0.848735
O O7 0.454221 0.343112 0.736216
O O8 0.314142 0.300321 0.048793
O O9 0.250000 0.250000 0.000000
O O10 0.255463 0.450055 0.033891
O O11 0.014748 0.650300 0.649929
O O12 0.119325 0.463232 0.561695
O O13 0.966029 0.480089 0.640215
O O14 0.700845 0.863662 0.578478
O O15 0.000000 0.300835 0.750000
#
# Coordination Sequence:
#
# PCOD9280378 Si02
#       7
#     8   8   8   8   8   8   8
#     4  10  22  37  57  84 119 161 205 249 289 360
#     4  10  22  39  56  85 122 159 205 243 302 359
#     4  11  22  33  53  89 126 155 192 232 300 373
#     4  10  21  37  59  86 125 156 198 244 301 361
#     4  11  23  35  55  89 125 164 188 245 308 360
#     4  11  20  36  58  86 117 160 201 251 292 351
#     4   9  21  38  63  86 115 155 200 251 300 356
#
# _framework density 24.129299
#
# number of rings (size 3 to 8) (size 9 to 14) (size 15 to 20)
#    0.000    1.714    2.857    1.286   12.000    0.571 
#    0.000    0.000    0.000    0.857    0.000    0.000 
#    0.000    0.000    0.000    0.000    0.000    0.000 
#
# Total GULP energy -156186.553866 kJ/mol
# GULP energy per Si atom -5578.091210 kJ/mol
# Density = 2.407438 g / cm^3
# Si number density = 24.129299 Si / 1000 Ang^3
#
#
#
# Elastic Constant Matrix: (Units=GPa)
#
#
# Indices 1 2 3 4 5 6 
#
# 1 172.9306 14.2619 46.2910 0.0000 -3.4000 0.0000
# 2 14.2619 47.0906 3.0263 0.0000 1.9145 0.0000
# 3 46.2910 3.0263 137.3709 0.0000 12.6461 0.0000
# 4 0.0000 0.0000 0.0000 10.3025 0.0000 4.2883
# 5 -3.4000 1.9145 12.6461 0.0000 23.9937 0.0000
# 6 0.0000 0.0000 0.0000 4.2883 0.0000 22.9779
#
#
#
# Elastic Compliance Matrix: (Units=1/GPa)
#
#
# Indices 1 2 3 4 5 6 
#
# 1 0.006635 -0.001951 -0.002411 0.000000 0.002367 0.000000
# 2 -0.001951 0.021892 0.000380 0.000000 -0.002223 0.000000
# 3 -0.002411 0.000380 0.008532 0.000000 -0.004869 0.000000
# 4 0.000000 0.000000 0.000000 0.105239 0.000000 -0.019640
# 5 0.002367 -0.002223 -0.004869 0.000000 0.044756 0.000000
# 6 0.000000 0.000000 0.000000 -0.019640 0.000000 0.047186
#
#
# Mechanical properties :
#
#
# Convention : Reuss Voigt Hill
#
# Bulk Modulus (GPa) = 34.36926 53.83895 44.10410
# Shear Modulus (GPa) = 19.84887 31.04234 25.44561
#
# Velocity S-wave (km/s) = 2.87122 3.59067 3.25091
# Velocity P-wave (km/s) = 5.02659 6.28901 5.69290
#
# Compressibility (1/GPa) = 0.02909577
#
# Stress axis : x y z
#
# Youngs Moduli (GPa) = 150.70570 45.67780 117.20836
#
# Poissons Ratio (x) = 0.08911 0.28258
# Poissons Ratio (y) = 0.29401 -0.04451
# Poissons Ratio (z) = 0.36333 -0.01735
#
# Static dielectric constant tensor:
#      x y z
#    x 2.133550 0.000000 -0.226580 
#    y 0.000000 1.915610 0.000000 
#    z -0.226580 0.000000 2.244130 
# 
# From -- ./inp_files/169121.got.cif
#   From: 2010.05.17/outbox.cif.g08.bks.cpg/sg15_85_cif.got.tgz:169121.got - 2010.06.03 18:47:42.
