data_PCOD9280483
_publ_section_title
;
Structure prediction by ZEFSAII (Michael W. Deem and Ramdas Pophale) SiO2 
 PCOD9280483
Probable space group: C 2/C
;
_chemical_formula_sum "Si O2"
_cell_formula_units_Z 52
_cell_length_a 9.821307
_cell_length_b 26.806950
_cell_length_c 14.574998
_cell_angle_alpha 90.000000
_cell_angle_beta 140.013183
_cell_angle_gamma 90.000000
_cell_volume 2465.889307
_symmetry_space_group_name_H-M "C 2/C"
_symmetry_group_IT_number 15
_symmetry_cell_setting 'monoclinic'
loop_
_space_group_symop_operation_xyz
x,y,z
-x,y,1/2-z
-x,-y,-z
x,-y,1/2+z
1/2+x,1/2+y,z
1/2-x,1/2+y,1/2-z
1/2-x,1/2-y,-z
1/2+x,1/2-y,1/2+z
loop_
_atom_site_type_symbol
_atom_site_label
_atom_site_fract_x
_atom_site_fract_y
_atom_site_fract_z
Si Si1 0.174020 0.872728 0.712879
Si Si2 0.000000 0.047510 0.250000
Si Si3 0.000000 0.318174 0.250000
Si Si4 0.400857 0.526077 0.537902
Si Si5 0.404213 0.378282 0.394535
Si Si6 0.534153 0.723455 0.914775
Si Si7 0.000000 0.585367 0.250000
Si Si8 0.084291 0.760850 0.648365
O O1 0.161461 0.913916 0.784995
O O2 0.392200 0.879476 0.770656
O O3 0.117849 0.815879 0.708903
O O4 0.002302 0.886783 0.546160
O O5 0.894979 0.012463 0.118603
O O6 0.178663 0.354028 0.299756
O O7 0.961323 0.279204 0.146567
O O8 0.500000 0.500000 0.500000
O O9 0.566523 0.570824 0.644673
O O10 0.178592 0.551105 0.391567
O O11 0.543599 0.336205 0.415531
O O12 0.324636 0.741528 0.755417
O O13 0.750000 0.750000 0.000000
O O14 0.485636 0.733487 0.997242
#
# Coordination Sequence:
#
# PCOD9280483 Si02
#       8
#     8   4   4   8   8   8   4   8
#     4  10  22  39  66  97 125 170 215 268 315 392
#     4  12  23  44  68  97 125 162 231 272 320 388
#     4  10  21  41  62  96 128 172 206 254 330 376
#     4  11  23  46  65  95 129 169 215 279 323 385
#     4   9  21  41  62  86 133 171 200 260 333 377
#     4  10  21  37  60  90 124 166 205 256 314 374
#     4  10  22  43  68  87 135 174 211 260 346 370
#     4  10  22  37  64  91 127 163 210 258 308 380
#
# _framework density 21.087727000000001
#
# number of rings (size 3 to 8) (size 9 to 14) (size 15 to 20)
#    0.000    1.846    3.077    0.923    6.462    8.000 
#    5.538    0.000    0.000    0.000    0.000    0.000 
#    0.000    0.000    0.000    0.000    0.000    0.000 
#
# Total GULP energy -145015.354795 kJ/mol
# GULP energy per Si atom -5577.513646 kJ/mol
# Density = 2.103973 g / cm^3
# Si number density = 21.087727 Si / 1000 Ang^3
#
#
#
# Elastic Constant Matrix: (Units=GPa)
#
#
# Indices 1 2 3 4 5 6 
#
# 1 101.2622 46.8508 5.7773 0.0000 11.4072 0.0000
# 2 46.8508 136.1047 13.3607 0.0000 -1.5689 0.0000
# 3 5.7773 13.3607 43.7545 0.0000 1.4143 0.0000
# 4 0.0000 0.0000 0.0000 29.1395 0.0000 8.3224
# 5 11.4072 -1.5689 1.4143 0.0000 28.3423 0.0000
# 6 0.0000 0.0000 0.0000 8.3224 0.0000 -14.1110
#
#
#
# Elastic Compliance Matrix: (Units=1/GPa)
#
#
# Indices 1 2 3 4 5 6 
#
# 1 0.012486 -0.004344 -0.000152 0.000000 -0.005258 0.000000
# 2 -0.004344 0.009094 -0.002280 0.000000 0.002365 0.000000
# 3 -0.000152 -0.002280 0.023611 0.000000 -0.001243 0.000000
# 4 0.000000 0.000000 0.000000 0.029370 0.000000 0.017322
# 5 -0.005258 0.002365 -0.001243 0.000000 0.037592 0.000000
# 6 0.000000 0.000000 0.000000 0.017322 0.000000 -0.060651
#
#
# Mechanical properties :
#
#
# Convention : Reuss Voigt Hill
#
# Bulk Modulus (GPa) = 31.60610 45.89986 38.75298
# Shear Modulus (GPa) = 66.13688 23.01634 44.57661
#
# Velocity S-wave (km/s) = 5.60632 3.30730 4.60267
# Velocity P-wave (km/s) = 7.54508 6.03305 6.83103
#
# Compressibility (1/GPa) = 0.03163946
#
# Stress axis : x y z
#
# Youngs Moduli (GPa) = 80.08916 109.96806 42.35278
#
# Poissons Ratio (x) = 0.47767 0.00645
# Poissons Ratio (y) = 0.34788 0.09655
# Poissons Ratio (z) = 0.01220 0.25069
#
# Static dielectric constant tensor:
#      x y z
#    x 1.792540 0.000000 -0.001460 
#    y 0.000000 1.802010 0.000000 
#    z -0.001460 0.000000 1.782620 
# 
# From -- ./inp_files/138783.got.cif
#   From: 2010.05.17/outbox.cif.g08.bks.cpg/sg15_70_cif.got.tgz:138783.got - 2010.06.03 18:47:42.
