data_PCOD9280968
_publ_section_title
;
Structure prediction by ZEFSAII (Michael W. Deem and Ramdas Pophale) SiO2 
 PCOD9280968
Probable space group: C 2/C
;
_chemical_formula_sum "Si O2"
_cell_formula_units_Z 56
_cell_length_a 6.308719
_cell_length_b 17.038040
_cell_length_c 29.563262
_cell_angle_alpha 90.000000
_cell_angle_beta 114.395544
_cell_angle_gamma 90.000000
_cell_volume 2893.983389
_symmetry_space_group_name_H-M "C 2/C"
_symmetry_group_IT_number 15
_symmetry_cell_setting 'monoclinic'
loop_
_space_group_symop_operation_xyz
x,y,z
-x,y,1/2-z
-x,-y,-z
x,-y,1/2+z
1/2+x,1/2+y,z
1/2-x,1/2+y,1/2-z
1/2-x,1/2-y,-z
1/2+x,1/2-y,1/2+z
loop_
_atom_site_type_symbol
_atom_site_label
_atom_site_fract_x
_atom_site_fract_y
_atom_site_fract_z
Si Si1 0.456188 0.187433 0.943440
Si Si2 0.482255 0.140035 0.195244
Si Si3 0.233850 0.663086 0.055633
Si Si4 0.952410 0.962131 0.874842
Si Si5 0.802589 0.005859 0.696321
Si Si6 0.445552 0.740460 0.876056
Si Si7 0.124090 0.398457 0.370015
O O1 0.580366 0.271296 0.944533
O O2 0.550475 0.128779 0.913445
O O3 0.182111 0.199448 0.913751
O O4 0.538161 0.159561 0.999862
O O5 0.500000 0.155098 0.250000
O O6 0.234986 0.100982 0.160448
O O7 0.514618 0.216742 0.167747
O O8 0.677398 0.075631 0.199142
O O9 0.367608 0.582772 0.077219
O O10 0.126378 0.694812 0.092980
O O11 0.806875 0.030198 0.886300
O O12 0.084961 0.996624 0.843130
O O13 0.601878 0.070798 0.676084
O O14 0.000000 0.024358 0.750000
O O15 0.244803 0.675656 0.857138
#
# Coordination Sequence:
#
# PCOD9280968 Si02
#       7
#     8   8   8   8   8   8   8
#     4  10  21  41  61  96 130 168 210 261 315 377
#     4  11  22  38  69  96 117 162 212 263 310 371
#     4  10  21  37  70  92 123 173 215 257 317 368
#     4  11  21  41  65  93 123 164 212 262 310 374
#     4  11  22  42  69  88 124 168 213 258 313 378
#     4  11  21  42  64  94 132 160 210 264 317 376
#     4  10  25  40  63  93 131 166 201 262 322 379
#
# _framework density 19.350490000000001
#
# number of rings (size 3 to 8) (size 9 to 14) (size 15 to 20)
#    0.000    1.429    4.286    1.286    0.000    0.571 
#    0.000    7.143    3.143    0.000    0.000    0.000 
#    0.000    0.000    0.000    0.000    0.000    0.000 
#
# Total GULP energy -156547.035121 kJ/mol
# GULP energy per Si atom -5590.965540 kJ/mol
# Density = 1.930645 g / cm^3
# Si number density = 19.350490 Si / 1000 Ang^3
#
#
#
# Elastic Constant Matrix: (Units=GPa)
#
#
# Indices 1 2 3 4 5 6 
#
# 1 85.7570 38.5275 24.7393 0.0000 20.7417 0.0000
# 2 38.5275 81.0290 57.8019 0.0000 16.2445 0.0000
# 3 24.7393 57.8019 82.0565 0.0000 20.9306 0.0000
# 4 0.0000 0.0000 0.0000 16.4736 0.0000 -1.2373
# 5 20.7417 16.2445 20.9306 0.0000 18.7399 0.0000
# 6 0.0000 0.0000 0.0000 -1.2373 0.0000 -4.1819
#
#
#
# Elastic Compliance Matrix: (Units=1/GPa)
#
#
# Indices 1 2 3 4 5 6 
#
# 1 0.018762 -0.009106 0.005652 0.000000 -0.019184 0.000000
# 2 -0.009106 0.029330 -0.019579 0.000000 0.006522 0.000000
# 3 0.005652 -0.019579 0.030123 0.000000 -0.022927 0.000000
# 4 0.000000 0.000000 0.000000 0.059384 0.000000 -0.017569
# 5 -0.019184 0.006522 -0.022927 0.000000 0.094550 0.000000
# 6 0.000000 0.000000 0.000000 -0.017569 0.000000 -0.233929
#
#
# Mechanical properties :
#
#
# Convention : Reuss Voigt Hill
#
# Bulk Modulus (GPa) = 31.10663 54.55333 42.82998
# Shear Modulus (GPa) = 90.90791 14.72457 52.81624
#
# Velocity S-wave (km/s) = 6.86161 2.76151 5.23008
# Velocity P-wave (km/s) = 8.88177 6.19849 7.65856
#
# Compressibility (1/GPa) = 0.03214749
#
# Stress axis : x y z
#
# Youngs Moduli (GPa) = 53.30030 34.09475 33.19766
#
# Poissons Ratio (x) = 0.31048 -0.18762
# Poissons Ratio (y) = 0.48537 0.64997
# Poissons Ratio (z) = -0.30123 0.66753
#
# Static dielectric constant tensor:
#      x y z
#    x 1.671170 0.000000 0.007410 
#    y 0.000000 1.661350 0.000000 
#    z 0.007410 0.000000 1.633500 
# 
# From -- ./inp_files/286019.got.cif
#   From: 2010.05.17/outbox.cif.g08.bks.cpg/sg15_144_cif.got.tgz:286019.got - 2010.06.03 18:47:42.
