data_PCOD9280278
_publ_section_title
;
Structure prediction by ZEFSAII (Michael W. Deem and Ramdas Pophale) SiO2 
 PCOD9280278
Probable space group: C 2/C
;
_chemical_formula_sum "Si O2"
_cell_formula_units_Z 56
_cell_length_a 24.745642
_cell_length_b 7.802179
_cell_length_c 13.749838
_cell_angle_alpha 90.000000
_cell_angle_beta 103.511101
_cell_angle_gamma 90.000000
_cell_volume 2581.211092
_symmetry_space_group_name_H-M "C 2/C"
_symmetry_group_IT_number 15
_symmetry_cell_setting 'monoclinic'
loop_
_space_group_symop_operation_xyz
x,y,z
-x,y,1/2-z
-x,-y,-z
x,-y,1/2+z
1/2+x,1/2+y,z
1/2-x,1/2+y,1/2-z
1/2-x,1/2-y,-z
1/2+x,1/2-y,1/2+z
loop_
_atom_site_type_symbol
_atom_site_label
_atom_site_fract_x
_atom_site_fract_y
_atom_site_fract_z
Si Si1 0.874396 0.056576 0.208903
Si Si2 0.447933 0.128357 0.798665
Si Si3 0.662629 0.767351 0.488139
Si Si4 0.803145 0.243164 0.328116
Si Si5 0.243384 0.557879 0.869903
Si Si6 0.593073 0.923017 0.022140
Si Si7 0.434199 0.793867 0.701463
O O1 0.919932 0.192262 0.265001
O O2 0.825459 0.093932 0.264372
O O3 0.898635 0.868659 0.217186
O O4 0.858029 0.120469 0.094503
O O5 0.500000 0.120071 0.750000
O O6 0.454018 0.100213 0.915434
O O7 0.413174 0.962750 0.749689
O O8 0.703132 0.676208 0.581782
O O9 0.699190 0.894316 0.435271
O O10 0.613218 0.882334 0.511036
O O11 0.780115 0.384228 0.244314
O O12 0.853160 0.323933 0.411026
O O13 0.759187 0.141881 0.375085
O O14 0.574020 0.837031 0.914745
O O15 0.500000 0.763846 0.750000
#
# Coordination Sequence:
#
# PCOD9280278 Si02
#       7
#     8   8   8   8   8   8   8
#     4  10  21  42  62  93 129 171 206 269 313 376
#     4  10  23  43  65  91 131 163 213 270 316 382
#     4  10  21  38  62  87 132 166 210 262 320 371
#     4  10  22  37  62  92 128 167 218 251 323 381
#     4  10  21  37  57  94 125 167 209 265 312 372
#     4  11  23  42  66  95 124 175 212 259 331 382
#     4  11  24  42  66  96 125 165 220 263 323 389
#
# _framework density 21.695242
#
# number of rings (size 3 to 8) (size 9 to 14) (size 15 to 20)
#    0.000    1.714    1.429    2.143    2.000    4.000 
#    0.000    3.571    0.000    0.000    0.000    0.000 
#    0.000    0.000    0.000    0.000    0.000    0.000 
#
# Total GULP energy -156486.868537 kJ/mol
# GULP energy per Si atom -5588.816733 kJ/mol
# Density = 2.164586 g / cm^3
# Si number density = 21.695242 Si / 1000 Ang^3
#
#
#
# Elastic Constant Matrix: (Units=GPa)
#
#
# Indices 1 2 3 4 5 6 
#
# 1 24.4261 -2.3326 -2.4859 0.0000 -4.4586 0.0000
# 2 -2.3326 57.2107 15.0197 0.0000 -15.7640 0.0000
# 3 -2.4859 15.0197 122.7990 0.0000 15.5892 0.0000
# 4 0.0000 0.0000 0.0000 8.2444 0.0000 -4.9962
# 5 -4.4586 -15.7640 15.5892 0.0000 24.8538 0.0000
# 6 0.0000 0.0000 0.0000 -4.9962 0.0000 -51.6622
#
#
#
# Elastic Compliance Matrix: (Units=1/GPa)
#
#
# Indices 1 2 3 4 5 6 
#
# 1 0.043535 0.005456 -0.001322 0.000000 0.012100 0.000000
# 2 0.005456 0.024651 -0.005448 0.000000 0.020031 0.000000
# 3 -0.001322 -0.005448 0.010052 0.000000 -0.009997 0.000000
# 4 0.000000 0.000000 0.000000 0.114579 0.000000 -0.011081
# 5 0.012100 0.020031 -0.009997 0.000000 0.061382 0.000000
# 6 0.000000 0.000000 0.000000 -0.011081 0.000000 -0.018285
#
#
# Mechanical properties :
#
#
# Convention : Reuss Voigt Hill
#
# Bulk Modulus (GPa) = 13.22556 24.98203 19.10379
# Shear Modulus (GPa) = 18.95769 9.23619 14.09694
#
# Velocity S-wave (km/s) = 2.95925 2.06555 2.55183
# Velocity P-wave (km/s) = 4.21729 4.15074 4.18414
#
# Compressibility (1/GPa) = 0.07561117
#
# Stress axis : x y z
#
# Youngs Moduli (GPa) = 22.97002 40.56577 99.48170
#
# Poissons Ratio (x) = -0.22133 0.13153
# Poissons Ratio (y) = -0.12533 0.54194
# Poissons Ratio (z) = 0.03037 0.22099
#
# Static dielectric constant tensor:
#      x y z
#    x 1.862500 0.000000 -0.002910 
#    y 0.000000 1.762400 0.000000 
#    z -0.002910 0.000000 1.783570 
# 
# From -- ./inp_files/171955.got.cif
#   From: 2010.05.17/outbox.cif.g08.bks.cpg/sg15_86_cif.got.tgz:171955.got - 2010.06.03 18:47:42.
