data_PCOD9280275
_publ_section_title
;
Structure prediction by ZEFSAII (Michael W. Deem and Ramdas Pophale) SiO2 
 PCOD9280275
Probable space group: C 2/C
;
_chemical_formula_sum "Si O2"
_cell_formula_units_Z 60
_cell_length_a 5.108003
_cell_length_b 22.021956
_cell_length_c 23.447796
_cell_angle_alpha 90.000000
_cell_angle_beta 78.370398
_cell_angle_gamma 90.000000
_cell_volume 2583.454076
_symmetry_space_group_name_H-M "C 2/C"
_symmetry_group_IT_number 15
_symmetry_cell_setting 'monoclinic'
loop_
_space_group_symop_operation_xyz
x,y,z
-x,y,1/2-z
-x,-y,-z
x,-y,1/2+z
1/2+x,1/2+y,z
1/2-x,1/2+y,1/2-z
1/2-x,1/2-y,-z
1/2+x,1/2-y,1/2+z
loop_
_atom_site_type_symbol
_atom_site_label
_atom_site_fract_x
_atom_site_fract_y
_atom_site_fract_z
Si Si1 0.218335 0.885520 0.535433
Si Si2 0.143492 0.942944 0.658107
Si Si3 0.184996 0.307409 0.567113
Si Si4 0.885368 0.631316 0.312520
Si Si5 0.285143 0.681210 0.881735
Si Si6 0.000000 0.156734 0.750000
Si Si7 0.265534 0.895234 0.407126
Si Si8 0.263311 0.044080 0.797381
O O1 0.182566 0.933629 0.588367
O O2 0.462978 0.840620 0.539247
O O3 0.254485 0.915855 0.472589
O O4 0.962406 0.841320 0.543470
O O5 0.415179 0.921922 0.675572
O O6 0.911161 0.894074 0.683149
O O7 0.007434 0.004982 0.684890
O O8 0.113014 0.323248 0.635556
O O9 0.195059 0.235115 0.572337
O O10 0.000000 0.658111 0.250000
O O11 0.376303 0.690862 0.811006
O O12 0.479558 0.628806 0.897678
O O13 0.980508 0.658852 0.893410
O O14 0.204422 0.109076 0.770545
O O15 0.356344 0.945389 0.358078
O O16 0.500000 0.016491 0.750000
#
# Coordination Sequence:
#
# PCOD9280275 Si02
#       8
#     8   8   8   8   8   4   8   8
#     4  10  22  43  59  93 127 159 210 267 302 388
#     4  10  23  37  62  88 123 161 206 255 317 368
#     4  10  22  39  63  89 127 163 209 256 319 371
#     4  10  21  37  57  91 122 159 205 260 308 376
#     4  11  23  40  63  94 119 174 204 258 319 373
#     4  10  24  40  60  88 136 150 214 258 306 382
#     4  11  24  40  64  89 127 164 212 259 315 366
#     4  11  23  41  63  91 124 167 210 265 318 380
#
# _framework density 23.224719
#
# number of rings (size 3 to 8) (size 9 to 14) (size 15 to 20)
#    0.000    1.600    1.333    2.400    4.667    3.733 
#    0.000    0.000    0.000    7.200    0.000    0.000 
#    0.000    0.000    0.000    0.000    0.000    0.000 
#
# Total GULP energy -167712.264368 kJ/mol
# GULP energy per Si atom -5590.408812 kJ/mol
# Density = 2.317186 g / cm^3
# Si number density = 23.224719 Si / 1000 Ang^3
#
#
#
# Elastic Constant Matrix: (Units=GPa)
#
#
# Indices 1 2 3 4 5 6 
#
# 1 79.2622 11.9211 26.6823 0.0000 -2.2019 0.0000
# 2 11.9211 47.0254 5.1714 0.0000 -5.8172 0.0000
# 3 26.6823 5.1714 112.6990 0.0000 15.1024 0.0000
# 4 0.0000 0.0000 0.0000 24.4859 0.0000 3.5651
# 5 -2.2019 -5.8172 15.1024 0.0000 21.4668 0.0000
# 6 0.0000 0.0000 0.0000 3.5651 0.0000 -19.6182
#
#
#
# Elastic Compliance Matrix: (Units=1/GPa)
#
#
# Indices 1 2 3 4 5 6 
#
# 1 0.014387 -0.002826 -0.003723 0.000000 0.003329 0.000000
# 2 -0.002826 0.022972 -0.001303 0.000000 0.006852 0.000000
# 3 -0.003723 -0.001303 0.010945 0.000000 -0.008435 0.000000
# 4 0.000000 0.000000 0.000000 0.039787 0.000000 0.007230
# 5 0.003329 0.006852 -0.008435 0.000000 0.054716 0.000000
# 6 0.000000 0.000000 0.000000 0.007230 0.000000 -0.049659
#
#
# Mechanical properties :
#
#
# Convention : Reuss Voigt Hill
#
# Bulk Modulus (GPa) = 30.67456 36.28180 33.47818
# Shear Modulus (GPa) = 41.76459 18.28103 30.02281
#
# Velocity S-wave (km/s) = 4.24522 2.80864 3.59933
# Velocity P-wave (km/s) = 6.10455 5.11604 5.63203
#
# Compressibility (1/GPa) = 0.03260031
#
# Stress axis : x y z
#
# Youngs Moduli (GPa) = 69.50701 43.53033 91.36855
#
# Poissons Ratio (x) = 0.12302 0.34013
# Poissons Ratio (y) = 0.19643 0.11908
# Poissons Ratio (z) = 0.25875 0.05673
#
# Static dielectric constant tensor:
#      x y z
#    x 1.835820 0.000000 0.013980 
#    y 0.000000 1.885140 0.000000 
#    z 0.013980 0.000000 1.913550 
# 
# From -- ./inp_files/261662.got.cif
#   From: 2010.05.17/outbox.cif.g08.bks.cpg/sg15_131_cif.got.tgz:261662.got - 2010.06.03 18:47:42.
