data_PCOD9280038
_publ_section_title
;
Structure prediction by ZEFSAII (Michael W. Deem and Ramdas Pophale) SiO2 
 PCOD9280038
Probable space group: C 2/C
;
_chemical_formula_sum "Si O2"
_cell_formula_units_Z 56
_cell_length_a 30.624786
_cell_length_b 11.700471
_cell_length_c 8.516479
_cell_angle_alpha 90.000000
_cell_angle_beta 117.392562
_cell_angle_gamma 90.000000
_cell_volume 2709.495121
_symmetry_space_group_name_H-M "C 2/C"
_symmetry_group_IT_number 15
_symmetry_cell_setting 'monoclinic'
loop_
_space_group_symop_operation_xyz
x,y,z
-x,y,1/2-z
-x,-y,-z
x,-y,1/2+z
1/2+x,1/2+y,z
1/2-x,1/2+y,1/2-z
1/2-x,1/2-y,-z
1/2+x,1/2-y,1/2+z
loop_
_atom_site_type_symbol
_atom_site_label
_atom_site_fract_x
_atom_site_fract_y
_atom_site_fract_z
Si Si1 0.330069 0.965000 0.166512
Si Si2 0.994931 0.628216 0.053185
Si Si3 0.398602 0.188038 0.288287
Si Si4 0.729752 0.879564 0.724955
Si Si5 0.178415 0.838637 0.184956
Si Si6 0.175462 0.076925 0.325658
Si Si7 0.890945 0.736299 0.913753
O O1 0.372547 0.062646 0.230941
O O2 0.282365 0.027935 0.161333
O O3 0.350855 0.860274 0.301787
O O4 0.312515 0.912192 0.973056
O O5 0.000000 0.624300 0.250000
O O6 0.044426 0.686285 0.073318
O O7 0.943312 0.690302 0.935301
O O8 0.000000 0.500000 0.000000
O O9 0.369126 0.261062 0.365183
O O10 0.393864 0.240825 0.106666
O O11 0.722094 0.752357 0.777596
O O12 0.780257 0.884147 0.714969
O O13 0.174996 0.941443 0.301206
O O14 0.182244 0.887811 0.016703
O O15 0.127255 0.143902 0.185598
#
# Coordination Sequence:
#
# PCOD9280038 Si02
#       7
#     8   8   8   8   8   8   8
#     4  11  20  36  63  93 128 162 202 255 316 376
#     4  10  21  36  63  96 128 159 206 264 329 385
#     4  10  22  40  62  94 127 162 204 264 322 383
#     4  11  24  39  63  93 131 166 212 258 316 382
#     4  11  25  42  63  89 123 170 215 262 315 378
#     4  12  25  42  63  87 129 171 218 260 310 376
#     4  11  22  38  62  91 129 165 205 259 318 372
#
# _framework density 20.668057999999998
#
# number of rings (size 3 to 8) (size 9 to 14) (size 15 to 20)
#    0.000    1.143    4.286    2.143    2.000    1.143 
#    0.000    4.286    0.000    0.000    0.000    0.000 
#    0.000    0.000    0.000    0.000    0.000    0.000 
#
# Total GULP energy -156510.310734 kJ/mol
# GULP energy per Si atom -5589.653955 kJ/mol
# Density = 2.062102 g / cm^3
# Si number density = 20.668058 Si / 1000 Ang^3
#
#
#
# Elastic Constant Matrix: (Units=GPa)
#
#
# Indices 1 2 3 4 5 6 
#
# 1 118.0753 39.3462 12.8576 0.0000 7.1957 0.0000
# 2 39.3462 111.0025 29.7851 0.0000 3.8839 0.0000
# 3 12.8576 29.7851 40.8616 0.0000 1.0406 0.0000
# 4 0.0000 0.0000 0.0000 26.1227 0.0000 -9.6586
# 5 7.1957 3.8839 1.0406 0.0000 27.1559 0.0000
# 6 0.0000 0.0000 0.0000 -9.6586 0.0000 39.0046
#
#
#
# Elastic Compliance Matrix: (Units=1/GPa)
#
#
# Indices 1 2 3 4 5 6 
#
# 1 0.009736 -0.003195 -0.000681 0.000000 -0.002097 0.000000
# 2 -0.003195 0.012293 -0.007940 0.000000 -0.000607 0.000000
# 3 -0.000681 -0.007940 0.030471 0.000000 0.000148 0.000000
# 4 0.000000 0.000000 0.000000 0.042139 0.000000 0.010435
# 5 -0.002097 -0.000607 0.000148 0.000000 0.037461 0.000000
# 6 0.000000 0.000000 0.000000 0.010435 0.000000 0.028222
#
#
# Mechanical properties :
#
#
# Convention : Reuss Voigt Hill
#
# Bulk Modulus (GPa) = 34.64071 48.21301 41.42686
# Shear Modulus (GPa) = 25.82956 30.98667 28.40811
#
# Velocity S-wave (km/s) = 3.53899 3.87622 3.71144
# Velocity P-wave (km/s) = 5.78759 6.58873 6.20111
#
# Compressibility (1/GPa) = 0.02886777
#
# Stress axis : x y z
#
# Youngs Moduli (GPa) = 102.71442 81.34715 32.81798
#
# Poissons Ratio (x) = 0.25989 0.02236
# Poissons Ratio (y) = 0.32815 0.26057
# Poissons Ratio (z) = 0.06998 0.64589
#
# Static dielectric constant tensor:
#      x y z
#    x 1.765640 0.000000 0.006070 
#    y 0.000000 1.750990 0.000000 
#    z 0.006070 0.000000 1.740750 
# 
# From -- ./inp_files/69467.got.cif
#   From: 2010.05.17/outbox.cif.g08.bks.cpg/sg15_35_cif.got.tgz:69467.got - 2010.06.03 18:47:42.
