data_PCOD9280371
_publ_section_title
;
Structure prediction by ZEFSAII (Michael W. Deem and Ramdas Pophale) SiO2 
 PCOD9280371
Probable space group: C 2/C
;
_chemical_formula_sum "Si O2"
_cell_formula_units_Z 40
_cell_length_a 11.655522
_cell_length_b 8.160084
_cell_length_c 25.792556
_cell_angle_alpha 90.000000
_cell_angle_beta 44.353869
_cell_angle_gamma 90.000000
_cell_volume 1714.954110
_symmetry_space_group_name_H-M "C 2/C"
_symmetry_group_IT_number 15
_symmetry_cell_setting 'monoclinic'
loop_
_space_group_symop_operation_xyz
x,y,z
-x,y,1/2-z
-x,-y,-z
x,-y,1/2+z
1/2+x,1/2+y,z
1/2-x,1/2+y,1/2-z
1/2-x,1/2-y,-z
1/2+x,1/2-y,1/2+z
loop_
_atom_site_type_symbol
_atom_site_label
_atom_site_fract_x
_atom_site_fract_y
_atom_site_fract_z
Si Si1 0.636283 0.042381 0.171213
Si Si2 0.412794 0.074452 0.651078
Si Si3 0.991288 0.197214 0.039862
Si Si4 0.914203 0.144896 0.953015
Si Si5 0.279515 0.732032 0.699660
O O1 0.500000 0.134194 0.250000
O O2 0.550999 0.987401 0.146082
O O3 0.683649 0.884521 0.190733
O O4 0.801800 0.138785 0.106666
O O5 0.498140 0.143236 0.572500
O O6 0.308672 0.209591 0.716653
O O7 0.292916 0.921463 0.680599
O O8 0.013709 0.214580 0.971263
O O9 0.097948 0.047902 0.029015
O O10 0.033240 0.166088 0.865285
O O11 0.750000 0.250000 0.000000
#
# Coordination Sequence:
#
# PCOD9280371 Si02
#       5
#     8   8   8   8   8
#     4   9  19  37  57  83 116 149 191 243 288 333
#     4  11  21  39  63  85 114 150 191 243 285 331
#     4  10  22  38  59  85 115 153 194 233 285 343
#     4  10  21  39  58  84 121 154 187 234 286 342
#     4  10  21  37  59  86 115 150 194 235 286 345
#
# _framework density 23.324238999999999
#
# number of rings (size 3 to 8) (size 9 to 14) (size 15 to 20)
#    0.000    2.000    0.000    4.800    0.000    2.400 
#    0.000   25.000    0.000    0.000    0.000    0.000 
#    0.000    0.000    0.000    0.000    0.000    0.000 
#
# Total GULP energy -111803.519530 kJ/mol
# GULP energy per Si atom -5590.175976 kJ/mol
# Density = 2.327115 g / cm^3
# Si number density = 23.324239 Si / 1000 Ang^3
#
#
#
# Elastic Constant Matrix: (Units=GPa)
#
#
# Indices 1 2 3 4 5 6 
#
# 1 57.5439 7.8196 4.0078 0.0000 -12.3280 0.0000
# 2 7.8196 55.9398 -6.0090 0.0000 5.6874 0.0000
# 3 4.0078 -6.0090 81.2202 0.0000 -12.5482 0.0000
# 4 0.0000 0.0000 0.0000 45.9107 0.0000 -2.2241
# 5 -12.3280 5.6874 -12.5482 0.0000 45.1573 0.0000
# 6 0.0000 0.0000 0.0000 -2.2241 0.0000 23.7297
#
#
#
# Elastic Compliance Matrix: (Units=1/GPa)
#
#
# Indices 1 2 3 4 5 6 
#
# 1 0.019024 -0.003255 -0.000328 0.000000 0.005512 0.000000
# 2 -0.003255 0.018748 0.001093 0.000000 -0.002946 0.000000
# 3 -0.000328 0.001093 0.012929 0.000000 0.003366 0.000000
# 4 0.000000 0.000000 0.000000 0.021881 0.000000 0.002051
# 5 0.005512 -0.002946 0.003366 0.000000 0.024956 0.000000
# 6 0.000000 0.000000 0.000000 0.002051 0.000000 0.042333
#
#
# Mechanical properties :
#
#
# Convention : Reuss Voigt Hill
#
# Bulk Modulus (GPa) = 21.87188 22.92675 22.39931
# Shear Modulus (GPa) = 31.23184 35.55190 33.39187
#
# Velocity S-wave (km/s) = 3.66324 3.90840 3.78780
# Velocity P-wave (km/s) = 5.22400 5.49712 5.36230
#
# Compressibility (1/GPa) = 0.04572080
#
# Stress axis : x y z
#
# Youngs Moduli (GPa) = 52.56467 53.33827 77.34438
#
# Poissons Ratio (x) = 0.17362 0.02536
# Poissons Ratio (y) = 0.17110 -0.08450
# Poissons Ratio (z) = 0.01724 -0.05827
#
# Static dielectric constant tensor:
#      x y z
#    x 1.875230 0.000000 -0.005000 
#    y 0.000000 1.914780 0.000000 
#    z -0.005000 0.000000 1.946610 
# 
# From -- ./inp_files/235706.got.cif
#   From: 2010.05.17/outbox.cif.g08.bks.cpg/sg15_118_cif.got.tgz:235706.got - 2010.06.03 18:47:42.
