data_PCOD9280168
_publ_section_title
;
Structure prediction by ZEFSAII (Michael W. Deem and Ramdas Pophale) SiO2 
 PCOD9280168
Probable space group: C 2/C
;
_chemical_formula_sum "Si O2"
_cell_formula_units_Z 52
_cell_length_a 11.860957
_cell_length_b 29.211454
_cell_length_c 8.975016
_cell_angle_alpha 90.000000
_cell_angle_beta 123.199682
_cell_angle_gamma 90.000000
_cell_volume 2602.033387
_symmetry_space_group_name_H-M "C 2/C"
_symmetry_group_IT_number 15
_symmetry_cell_setting 'monoclinic'
loop_
_space_group_symop_operation_xyz
x,y,z
-x,y,1/2-z
-x,-y,-z
x,-y,1/2+z
1/2+x,1/2+y,z
1/2-x,1/2+y,1/2-z
1/2-x,1/2-y,-z
1/2+x,1/2-y,1/2+z
loop_
_atom_site_type_symbol
_atom_site_label
_atom_site_fract_x
_atom_site_fract_y
_atom_site_fract_z
Si Si1 0.858525 0.889378 0.581076
Si Si2 0.891205 0.560684 0.448672
Si Si3 0.801443 0.812158 0.741589
Si Si4 0.766993 0.278889 0.358512
Si Si5 0.003595 0.649020 0.079199
Si Si6 0.500000 0.014630 0.250000
Si Si7 0.040592 0.850237 0.120950
O O1 0.743434 0.917261 0.581186
O O2 0.839021 0.835943 0.613914
O O3 0.874211 0.886024 0.415903
O O4 0.000000 0.905322 0.750000
O O5 0.996367 0.603287 0.521192
O O6 0.926428 0.518731 0.580559
O O7 0.897950 0.543177 0.282164
O O8 0.808933 0.758056 0.764866
O O9 0.647548 0.826310 0.661841
O O10 0.906070 0.835330 0.933960
O O11 0.750000 0.250000 0.500000
O O12 0.630107 0.305330 0.219950
O O13 0.882722 0.316581 0.459862
O O14 0.000000 0.636130 0.250000
O O15 0.000000 0.870327 0.250000
#
# Coordination Sequence:
#
# PCOD9280168 Si02
#       7
#     8   8   8   8   8   4   8
#     4   9  22  42  62  88 128 164 201 254 314 383
#     4  10  22  42  66  96 123 156 203 252 333 374
#     4  10  21  37  55  80 126 170 211 252 311 347
#     4  12  22  32  56  88 124 166 224 267 294 351
#     4  11  20  35  59  89 126 164 206 261 303 365
#     4  10  22  42  70  94 122 154 194 266 316 404
#     4  11  21  37  57  82 115 169 213 258 299 363
#
# _framework density 19.984370999999999
#
# number of rings (size 3 to 8) (size 9 to 14) (size 15 to 20)
#    0.000    1.538    3.846    0.923    2.154    0.615 
#    0.000    5.385    0.000    0.000    0.000    0.000 
#    0.000    0.000    0.000    0.000    0.000    0.000 
#
# Total GULP energy -145042.598597 kJ/mol
# GULP energy per Si atom -5578.561484 kJ/mol
# Density = 1.993889 g / cm^3
# Si number density = 19.984371 Si / 1000 Ang^3
#
#
#
# Elastic Constant Matrix: (Units=GPa)
#
#
# Indices 1 2 3 4 5 6 
#
# 1 126.2194 48.5038 42.9094 0.0000 -21.6512 0.0000
# 2 48.5038 88.4637 21.7293 0.0000 -11.6362 0.0000
# 3 42.9094 21.7293 58.2843 0.0000 -16.3491 0.0000
# 4 0.0000 0.0000 0.0000 18.0485 0.0000 -2.3694
# 5 -21.6512 -11.6362 -16.3491 0.0000 38.4416 0.0000
# 6 0.0000 0.0000 0.0000 -2.3694 0.0000 20.2361
#
#
#
# Elastic Compliance Matrix: (Units=1/GPa)
#
#
# Indices 1 2 3 4 5 6 
#
# 1 0.012523 -0.004875 -0.006628 0.000000 0.002758 0.000000
# 2 -0.004875 0.014484 -0.001534 0.000000 0.000986 0.000000
# 3 -0.006628 -0.001534 0.024334 0.000000 0.006152 0.000000
# 4 0.000000 0.000000 0.000000 0.056271 0.000000 0.006589
# 5 0.002758 0.000986 0.006152 0.000000 0.030482 0.000000
# 6 0.000000 0.000000 0.000000 0.006589 0.000000 0.050188
#
#
# Mechanical properties :
#
#
# Convention : Reuss Voigt Hill
#
# Bulk Modulus (GPa) = 39.57836 55.47251 47.52543
# Shear Modulus (GPa) = 22.44387 26.00022 24.22205
#
# Velocity S-wave (km/s) = 3.35486 3.61089 3.48523
# Velocity P-wave (km/s) = 5.90376 6.72331 6.32682
#
# Compressibility (1/GPa) = 0.02526634
#
# Stress axis : x y z
#
# Youngs Moduli (GPa) = 79.85602 69.04383 41.09412
#
# Poissons Ratio (x) = 0.33660 0.27237
# Poissons Ratio (y) = 0.38931 0.06304
# Poissons Ratio (z) = 0.52928 0.10591
#
# Static dielectric constant tensor:
#      x y z
#    x 1.735800 0.000000 -0.038450 
#    y 0.000000 1.721450 0.000000 
#    z -0.038450 0.000000 1.730330 
# 
# From -- ./inp_files/35371.got.cif
#   From: 2010.05.17/outbox.cif.g08.bks.cpg/sg15_18_cif.got.tgz:35371.got - 2010.06.03 18:47:42.
