data_PCOD9280535
_publ_section_title
;
Structure prediction by ZEFSAII (Michael W. Deem and Ramdas Pophale) SiO2 
 PCOD9280535
Probable space group: C 2/C
;
_chemical_formula_sum "Si O2"
_cell_formula_units_Z 40
_cell_length_a 6.745300
_cell_length_b 12.139728
_cell_length_c 21.319656
_cell_angle_alpha 90.000000
_cell_angle_beta 91.688512
_cell_angle_gamma 90.000000
_cell_volume 1745.025599
_symmetry_space_group_name_H-M "C 2/C"
_symmetry_group_IT_number 15
_symmetry_cell_setting 'monoclinic'
loop_
_space_group_symop_operation_xyz
x,y,z
-x,y,1/2-z
-x,-y,-z
x,-y,1/2+z
1/2+x,1/2+y,z
1/2-x,1/2+y,1/2-z
1/2-x,1/2-y,-z
1/2+x,1/2-y,1/2+z
loop_
_atom_site_type_symbol
_atom_site_label
_atom_site_fract_x
_atom_site_fract_y
_atom_site_fract_z
Si Si1 0.709455 0.706786 0.737409
Si Si2 0.814574 0.017881 0.044113
Si Si3 0.549036 0.276759 0.655719
Si Si4 0.938019 0.632874 0.545357
Si Si5 0.648232 0.488410 0.141926
O O1 0.500000 0.760096 0.750000
O O2 0.827676 0.687222 0.803121
O O3 0.664509 0.594886 0.699472
O O4 0.846730 0.781662 0.693867
O O5 0.925432 0.001483 0.111149
O O6 0.647587 0.925138 0.034723
O O7 0.691791 0.126172 0.019566
O O8 0.000000 0.000000 0.000000
O O9 0.496117 0.241170 0.584977
O O10 0.683365 0.384961 0.658982
O O11 0.804250 0.560522 0.592810
#
# Coordination Sequence:
#
# PCOD9280535 Si02
#       5
#     8   8   8   8   8
#     4  10  22  39  57  83 119 154 195 250 288 350
#     4   9  18  36  61  83 117 157 190 246 298 346
#     4  10  22  39  57  88 118 152 206 243 294 362
#     4   9  19  38  58  86 119 151 196 246 292 354
#     4  10  21  37  61  84 117 158 193 243 299 348
#
# _framework density 22.922298999999999
#
# number of rings (size 3 to 8) (size 9 to 14) (size 15 to 20)
#    0.000    2.400    0.000    1.200    2.800    2.400 
#    7.200    9.000    0.000    0.000    0.000    0.000 
#    0.000    0.000    0.000    0.000    0.000    0.000 
#
# Total GULP energy -111460.936599 kJ/mol
# GULP energy per Si atom -5573.046830 kJ/mol
# Density = 2.287013 g / cm^3
# Si number density = 22.922299 Si / 1000 Ang^3
#
#
#
# Elastic Constant Matrix: (Units=GPa)
#
#
# Indices 1 2 3 4 5 6 
#
# 1 122.8420 5.1226 25.1099 0.0000 16.8491 0.0000
# 2 5.1226 65.0398 25.4635 0.0000 10.4422 0.0000
# 3 25.1099 25.4635 83.6529 0.0000 39.6706 0.0000
# 4 0.0000 0.0000 0.0000 12.0385 0.0000 17.8260
# 5 16.8491 10.4422 39.6706 0.0000 40.7446 0.0000
# 6 0.0000 0.0000 0.0000 17.8260 0.0000 28.8721
#
#
#
# Elastic Compliance Matrix: (Units=1/GPa)
#
#
# Indices 1 2 3 4 5 6 
#
# 1 0.008763 0.000330 -0.001806 0.000000 -0.001950 0.000000
# 2 0.000330 0.017505 -0.006010 0.000000 0.001229 0.000000
# 3 -0.001806 -0.006010 0.024599 0.000000 -0.021664 0.000000
# 4 0.000000 0.000000 0.000000 0.968523 0.000000 -0.597977
# 5 -0.001950 0.001229 -0.021664 0.000000 0.046127 0.000000
# 6 0.000000 0.000000 0.000000 -0.597977 0.000000 0.403834
#
#
# Mechanical properties :
#
#
# Convention : Reuss Voigt Hill
#
# Bulk Modulus (GPa) = 27.85954 42.54740 35.20347
# Shear Modulus (GPa) = 3.34160 30.72028 17.03094
#
# Velocity S-wave (km/s) = 1.20870 3.66483 2.72873
# Velocity P-wave (km/s) = 3.75875 6.04234 5.03181
#
# Compressibility (1/GPa) = 0.03589435
#
# Stress axis : x y z
#
# Youngs Moduli (GPa) = 114.11050 57.12658 40.65137
#
# Poissons Ratio (x) = -0.01885 0.07343
# Poissons Ratio (y) = -0.03766 0.24433
# Poissons Ratio (z) = 0.20611 0.34336
#
# Static dielectric constant tensor:
#      x y z
#    x 1.840070 0.000000 0.040890 
#    y 0.000000 1.953460 0.000000 
#    z 0.040890 0.000000 1.959170 
# 
# From -- ./inp_files/285346.got.cif
#   From: 2010.05.17/outbox.cif.g08.bks.cpg/sg15_143_cif.got.tgz:285346.got - 2010.06.03 18:47:42.
