data_PCOD9280646
_publ_section_title
;
Structure prediction by ZEFSAII (Michael W. Deem and Ramdas Pophale) SiO2 
 PCOD9280646
Probable space group: C 2/C
;
_chemical_formula_sum "Si O2"
_cell_formula_units_Z 44
_cell_length_a 25.852938
_cell_length_b 11.185387
_cell_length_c 8.512671
_cell_angle_alpha 90.000000
_cell_angle_beta 53.699740
_cell_angle_gamma 90.000000
_cell_volume 1983.908862
_symmetry_space_group_name_H-M "C 2/C"
_symmetry_group_IT_number 15
_symmetry_cell_setting 'monoclinic'
loop_
_space_group_symop_operation_xyz
x,y,z
-x,y,1/2-z
-x,-y,-z
x,-y,1/2+z
1/2+x,1/2+y,z
1/2-x,1/2+y,1/2-z
1/2-x,1/2-y,-z
1/2+x,1/2-y,1/2+z
loop_
_atom_site_type_symbol
_atom_site_label
_atom_site_fract_x
_atom_site_fract_y
_atom_site_fract_z
Si Si1 0.580638 0.115047 0.744238
Si Si2 0.000000 0.961631 0.750000
Si Si3 0.213795 0.364179 0.140156
Si Si4 0.090873 0.112637 0.814860
Si Si5 0.239766 0.884976 0.087947
Si Si6 0.061876 0.642959 0.416151
O O1 0.639351 0.161945 0.739760
O O2 0.591221 0.129681 0.538638
O O3 0.570436 0.976366 0.802554
O O4 0.513204 0.169599 0.919753
O O5 0.048851 0.891826 0.549719
O O6 0.951000 0.038300 0.732139
O O7 0.235951 0.373966 0.278555
O O8 0.250000 0.250000 0.000000
O O9 0.225715 0.498099 0.048355
O O10 0.164323 0.078823 0.711691
O O11 0.092952 0.250612 0.764399
O O12 0.250000 0.750000 0.000000
#
# Coordination Sequence:
#
# PCOD9280646 Si02
#       6
#     8   4   8   8   8   8
#     4  10  21  38  59  90 119 157 206 249 313 368
#     4  10  24  40  66  90 120 162 212 268 310 378
#     4  12  25  42  66  94 131 175 216 265 321 389
#     4  11  23  43  63  92 124 164 212 259 323 372
#     4  12  26  44  67  96 134 174 217 269 324 394
#     4  10  21  37  62  86 121 156 198 262 305 366
#
# _framework density 22.178439000000001
#
# number of rings (size 3 to 8) (size 9 to 14) (size 15 to 20)
#    0.000    1.091    0.000    6.545    0.000    7.273 
#    0.000    0.000    0.000    0.000    0.000    0.000 
#    0.000    0.000    0.000    0.000    0.000    0.000 
#
# Total GULP energy -122955.163509 kJ/mol
# GULP energy per Si atom -5588.871069 kJ/mol
# Density = 2.212796 g / cm^3
# Si number density = 22.178439 Si / 1000 Ang^3
#
#
#
# Elastic Constant Matrix: (Units=GPa)
#
#
# Indices 1 2 3 4 5 6 
#
# 1 180.3105 28.3953 47.8699 0.0000 -1.0797 0.0000
# 2 28.3953 92.1121 37.1381 0.0000 26.3891 0.0000
# 3 47.8699 37.1381 54.1259 0.0000 8.7771 0.0000
# 4 0.0000 0.0000 0.0000 32.0662 0.0000 12.3156
# 5 -1.0797 26.3891 8.7771 0.0000 37.5932 0.0000
# 6 0.0000 0.0000 0.0000 12.3156 0.0000 28.3405
#
#
#
# Elastic Compliance Matrix: (Units=1/GPa)
#
#
# Indices 1 2 3 4 5 6 
#
# 1 0.007363 -0.000071 -0.006762 0.000000 0.001840 0.000000
# 2 -0.000071 0.018129 -0.010719 0.000000 -0.010226 0.000000
# 3 -0.006762 -0.010719 0.031827 0.000000 -0.000101 0.000000
# 4 0.000000 0.000000 0.000000 0.037433 0.000000 -0.016267
# 5 0.001840 -0.010226 -0.000101 0.000000 0.033855 0.000000
# 6 0.000000 0.000000 0.000000 -0.016267 0.000000 0.042354
#
#
# Mechanical properties :
#
#
# Convention : Reuss Voigt Hill
#
# Bulk Modulus (GPa) = 45.01121 61.48390 53.24755
# Shear Modulus (GPa) = 23.42247 33.80965 28.61606
#
# Velocity S-wave (km/s) = 3.25328 3.90864 3.59592
# Velocity P-wave (km/s) = 5.86949 6.93920 6.42664
#
# Compressibility (1/GPa) = 0.02221669
#
# Stress axis : x y z
#
# Youngs Moduli (GPa) = 135.80672 55.15966 31.41983
#
# Poissons Ratio (x) = 0.00389 0.21247
# Poissons Ratio (y) = 0.00958 0.33678
# Poissons Ratio (z) = 0.91836 0.59124
#
# Static dielectric constant tensor:
#      x y z
#    x 1.789300 0.000000 -0.022940 
#    y 0.000000 1.831930 0.000000 
#    z -0.022940 0.000000 1.829560 
# 
# From -- ./inp_files/60813.got.cif
#   From: 2010.05.17/outbox.cif.g08.bks.cpg/sg15_31_cif.got.tgz:60813.got - 2010.06.03 18:47:42.
