data_PCOD9280689
_publ_section_title
;
Structure prediction by ZEFSAII (Michael W. Deem and Ramdas Pophale) SiO2 
 PCOD9280689
Probable space group: C 2/C
;
_chemical_formula_sum "Si O2"
_cell_formula_units_Z 40
_cell_length_a 11.133481
_cell_length_b 18.292732
_cell_length_c 18.004757
_cell_angle_alpha 90.000000
_cell_angle_beta 34.154856
_cell_angle_gamma 90.000000
_cell_volume 2058.702600
_symmetry_space_group_name_H-M "C 2/C"
_symmetry_group_IT_number 15
_symmetry_cell_setting 'monoclinic'
loop_
_space_group_symop_operation_xyz
x,y,z
-x,y,1/2-z
-x,-y,-z
x,-y,1/2+z
1/2+x,1/2+y,z
1/2-x,1/2+y,1/2-z
1/2-x,1/2-y,-z
1/2+x,1/2-y,1/2+z
loop_
_atom_site_type_symbol
_atom_site_label
_atom_site_fract_x
_atom_site_fract_y
_atom_site_fract_z
Si Si1 0.024411 0.673324 0.652895
Si Si2 0.656009 0.095796 0.891419
Si Si3 0.802254 0.064925 0.300156
Si Si4 0.467464 0.678286 0.108690
Si Si5 0.773424 0.750625 0.398430
O O1 0.278840 0.670410 0.510389
O O2 0.000000 0.655413 0.750000
O O3 0.909607 0.617977 0.657576
O O4 0.921187 0.752107 0.685721
O O5 0.758251 0.165349 0.879331
O O6 0.793893 0.022818 0.811293
O O7 0.431710 0.085020 0.049588
O O8 0.846092 0.106397 0.200109
O O9 0.000000 0.091088 0.250000
O O10 0.403322 0.704849 0.058552
O O11 0.750000 0.750000 0.500000
O O12 0.000000 0.722509 0.250000
#
# Coordination Sequence:
#
# PCOD9280689 Si02
#       5
#     8   8   8   8   8
#     4  10  21  37  62  94 119 152 210 269 308 368
#     4  10  23  38  63  90 126 164 206 256 315 382
#     4  11  20  40  62  91 124 167 208 251 318 383
#     4  10  22  37  66  91 119 163 209 264 316 375
#     4  11  24  41  62  94 129 166 210 267 322 381
#
# _framework density 19.429714000000001
#
# number of rings (size 3 to 8) (size 9 to 14) (size 15 to 20)
#    0.000    1.600    2.000    2.400   11.200    0.000 
#    0.000    6.000    0.000    0.000    0.000    0.000 
#    0.000    0.000    0.000    0.000    0.000    0.000 
#
# Total GULP energy -111489.432579 kJ/mol
# GULP energy per Si atom -5574.471629 kJ/mol
# Density = 1.938549 g / cm^3
# Si number density = 19.429714 Si / 1000 Ang^3
#
#
#
# Elastic Constant Matrix: (Units=GPa)
#
#
# Indices 1 2 3 4 5 6 
#
# 1 126.3002 33.3610 36.7937 -0.0036 23.7001 0.0021
# 2 33.3610 70.3917 32.1828 -0.0247 7.2326 0.0104
# 3 36.7937 32.1828 64.1555 -0.0020 16.8734 -0.0095
# 4 -0.0036 -0.0247 -0.0020 -0.5301 -0.0165 13.2992
# 5 23.7001 7.2326 16.8734 -0.0165 40.1447 0.0129
# 6 0.0021 0.0104 -0.0095 13.2992 0.0129 9.0075
#
#
#
# Elastic Compliance Matrix: (Units=1/GPa)
#
#
# Indices 1 2 3 4 5 6 
#
# 1 0.010491 -0.002978 -0.003412 0.000008 -0.004223 -0.000008
# 2 -0.002978 0.019294 -0.008453 -0.000046 0.001835 0.000034
# 3 -0.003412 -0.008453 0.023446 0.000043 -0.006317 -0.000019
# 4 0.000008 -0.000046 0.000043 -0.049589 -0.000058 0.073216
# 5 -0.004223 0.001835 -0.006317 -0.000058 0.029727 0.000036
# 6 -0.000008 0.000034 -0.000019 0.073216 0.000036 0.002919
#
#
# Mechanical properties :
#
#
# Convention : Reuss Voigt Hill
#
# Bulk Modulus (GPa) = 42.47387 51.72473 47.09930
# Shear Modulus (GPa) = 67.73088 20.29174 44.01131
#
# Velocity S-wave (km/s) = 5.91059 3.23517 4.76453
# Velocity P-wave (km/s) = 8.27574 6.37451 7.38655
#
# Compressibility (1/GPa) = 0.02354389
#
# Stress axis : x y z
#
# Youngs Moduli (GPa) = 95.32320 51.83003 42.65140
#
# Poissons Ratio (x) = 0.15435 0.14552
# Poissons Ratio (y) = 0.28388 0.36054
# Poissons Ratio (z) = 0.32524 0.43813
#
# Static dielectric constant tensor:
#      x y z
#    x 1.670750 0.000000 -0.030860 
#    y 0.000000 1.700220 0.000010 
#    z -0.030860 0.000010 1.727750 
# 
# From -- ./inp_files/30429.got.cif
#   From: 2010.05.17/outbox.cif.g08.bks.cpg/sg15_16_cif.got.tgz:30429.got - 2010.06.03 18:47:42.
