data_PCOD9280157
_publ_section_title
;
Structure prediction by ZEFSAII (Michael W. Deem and Ramdas Pophale) SiO2 
 PCOD9280157
Probable space group: C 2/C
;
_chemical_formula_sum "Si O2"
_cell_formula_units_Z 56
_cell_length_a 24.341030
_cell_length_b 12.058321
_cell_length_c 12.205285
_cell_angle_alpha 90.000000
_cell_angle_beta 122.428946
_cell_angle_gamma 90.000000
_cell_volume 3023.747715
_symmetry_space_group_name_H-M "C 2/C"
_symmetry_group_IT_number 15
_symmetry_cell_setting 'monoclinic'
loop_
_space_group_symop_operation_xyz
x,y,z
-x,y,1/2-z
-x,-y,-z
x,-y,1/2+z
1/2+x,1/2+y,z
1/2-x,1/2+y,1/2-z
1/2-x,1/2-y,-z
1/2+x,1/2-y,1/2+z
loop_
_atom_site_type_symbol
_atom_site_label
_atom_site_fract_x
_atom_site_fract_y
_atom_site_fract_z
Si Si1 0.622519 0.699150 0.160900
Si Si2 0.675614 0.873860 0.369226
Si Si3 0.818137 0.619923 0.060710
Si Si4 0.319466 0.678637 0.949086
Si Si5 0.927484 0.796816 0.136051
Si Si6 0.751903 0.258586 0.682919
Si Si7 0.923020 0.952155 0.687640
O O1 0.627462 0.818631 0.227944
O O2 0.697602 0.684779 0.202296
O O3 0.599634 0.608483 0.224801
O O4 0.580979 0.696450 0.005208
O O5 0.675981 0.785318 0.467601
O O6 0.749435 0.876773 0.401155
O O7 0.660337 0.994796 0.397867
O O8 0.878167 0.703989 0.123916
O O9 0.771030 0.657304 0.108454
O O10 0.780331 0.650542 0.908383
O O11 0.313191 0.720637 0.819073
O O12 0.379103 0.600944 0.044628
O O13 0.000000 0.769691 0.250000
O O14 0.911042 0.916501 0.170333
O O15 0.000000 0.933954 0.750000
#
# Coordination Sequence:
#
# PCOD9280157 Si02
#       7
#     8   8   8   8   8   8   8
#     4   9  20  41  57  83 120 153 194 249 294 339
#     4   9  19  37  58  80 115 147 195 246 296 342
#     4  10  21  37  54  87 115 152 202 237 287 361
#     4   9  19  35  55  83 111 153 186 245 296 335
#     4  10  23  40  58  86 125 159 193 244 287 344
#     4   9  20  35  54  88 115 150 194 244 300 340
#     4  10  22  38  60  87 118 158 201 234 287 360
#
# _framework density 18.520063
#
# number of rings (size 3 to 8) (size 9 to 14) (size 15 to 20)
#    0.000    2.571    0.000    0.857    6.000    8.000 
#    7.714    3.571    0.000    0.000    0.000    0.000 
#    0.000    0.000    0.000    0.000    0.000    0.000 
#
# Total GULP energy -156146.528954 kJ/mol
# GULP energy per Si atom -5576.661748 kJ/mol
# Density = 1.847791 g / cm^3
# Si number density = 18.520063 Si / 1000 Ang^3
#
#
#
# Elastic Constant Matrix: (Units=GPa)
#
#
# Indices 1 2 3 4 5 6 
#
# 1 52.7002 45.4181 35.9243 0.0000 -5.3074 0.0000
# 2 45.4181 103.9960 32.3598 0.0000 -0.7677 0.0000
# 3 35.9243 32.3598 95.7881 0.0000 10.0159 0.0000
# 4 0.0000 0.0000 0.0000 11.6747 0.0000 4.4067
# 5 -5.3074 -0.7677 10.0159 0.0000 27.5005 0.0000
# 6 0.0000 0.0000 0.0000 4.4067 0.0000 23.1984
#
#
#
# Elastic Compliance Matrix: (Units=1/GPa)
#
#
# Indices 1 2 3 4 5 6 
#
# 1 0.039781 -0.013714 -0.011486 0.000000 0.011478 0.000000
# 2 -0.013714 0.015549 0.000127 0.000000 -0.002259 0.000000
# 3 -0.011486 0.000127 0.015527 0.000000 -0.007868 0.000000
# 4 0.000000 0.000000 0.000000 0.092272 0.000000 -0.017528
# 5 0.011478 -0.002259 -0.007868 0.000000 0.041381 0.000000
# 6 0.000000 0.000000 0.000000 -0.017528 0.000000 0.046436
#
#
# Mechanical properties :
#
#
# Convention : Reuss Voigt Hill
#
# Bulk Modulus (GPa) = 48.28805 53.32098 50.80451
# Shear Modulus (GPa) = 16.23395 21.72686 18.98041
#
# Velocity S-wave (km/s) = 2.96389 3.42885 3.20481
# Velocity P-wave (km/s) = 6.15165 6.67304 6.41764
#
# Compressibility (1/GPa) = 0.02070906
#
# Stress axis : x y z
#
# Youngs Moduli (GPa) = 25.13791 64.31212 64.40207
#
# Poissons Ratio (x) = 0.88201 0.73974
# Poissons Ratio (y) = 0.34475 -0.00816
# Poissons Ratio (z) = 0.28874 -0.00815
#
# Static dielectric constant tensor:
#      x y z
#    x 1.639680 0.000000 -0.016910 
#    y 0.000000 1.630070 0.000000 
#    z -0.016910 0.000000 1.668170 
# 
# From -- ./inp_files/117669.got.cif
#   From: 2010.05.17/outbox.cif.g08.bks.cpg/sg15_59_cif.got.tgz:117669.got - 2010.06.03 18:47:42.
