data_PCOD9280827
_publ_section_title
;
Structure prediction by ZEFSAII (Michael W. Deem and Ramdas Pophale) SiO2 
 PCOD9280827
Probable space group: C 2/C
;
_chemical_formula_sum "Si O2"
_cell_formula_units_Z 44
_cell_length_a 18.803839
_cell_length_b 10.766345
_cell_length_c 12.172784
_cell_angle_alpha 90.000000
_cell_angle_beta 55.698091
_cell_angle_gamma 90.000000
_cell_volume 2035.760046
_symmetry_space_group_name_H-M "C 2/C"
_symmetry_group_IT_number 15
_symmetry_cell_setting 'monoclinic'
loop_
_space_group_symop_operation_xyz
x,y,z
-x,y,1/2-z
-x,-y,-z
x,-y,1/2+z
1/2+x,1/2+y,z
1/2-x,1/2+y,1/2-z
1/2-x,1/2-y,-z
1/2+x,1/2-y,1/2+z
loop_
_atom_site_type_symbol
_atom_site_label
_atom_site_fract_x
_atom_site_fract_y
_atom_site_fract_z
Si Si1 0.000000 0.219867 0.250000
Si Si2 0.345244 0.254134 0.504934
Si Si3 0.575715 0.583782 0.390204
Si Si4 0.327313 0.805896 0.506010
Si Si5 0.268341 0.396219 0.221490
Si Si6 0.204711 0.547689 0.074827
O O1 0.049853 0.137944 0.295927
O O2 0.076532 0.293942 0.124632
O O3 0.414622 0.307734 0.527655
O O4 0.283147 0.175041 0.639525
O O5 0.294005 0.374639 0.504218
O O6 0.363303 0.158531 0.390016
O O7 0.500000 0.500000 0.500000
O O8 0.662179 0.501378 0.307870
O O9 0.250000 0.750000 0.500000
O O10 0.319375 0.718324 0.618592
O O11 0.305412 0.950665 0.516198
O O12 0.206134 0.465179 0.185236
#
# Coordination Sequence:
#
# PCOD9280827 Si02
#       6
#     4   8   8   8   8   8
#     4  12  24  40  64  94 132 164 220 266 318 388
#     4  10  22  39  66  96 124 167 217 263 318 385
#     4  11  23  40  61  93 127 166 213 269 318 376
#     4  10  21  39  62  92 123 167 207 255 326 374
#     4  10  21  37  64  94 125 166 213 261 323 380
#     4   9  21  38  63  92 127 162 214 259 313 383
#
# _framework density 21.613548999999999
#
# number of rings (size 3 to 8) (size 9 to 14) (size 15 to 20)
#    0.000    1.818    1.818    2.182   10.182    1.455 
#    0.000    2.727    0.000    0.000    0.000    0.000 
#    0.000    0.000    0.000    0.000    0.000    0.000 
#
# Total GULP energy -122605.910324 kJ/mol
# GULP energy per Si atom -5572.995924 kJ/mol
# Density = 2.156436 g / cm^3
# Si number density = 21.613549 Si / 1000 Ang^3
#
#
#
# Elastic Constant Matrix: (Units=GPa)
#
#
# Indices 1 2 3 4 5 6 
#
# 1 106.8164 46.8815 27.8844 0.0000 16.0394 0.0000
# 2 46.8815 130.6806 28.4433 0.0000 10.0329 0.0000
# 3 27.8844 28.4433 68.7023 0.0000 -7.3453 0.0000
# 4 0.0000 0.0000 0.0000 7.9106 0.0000 -4.6617
# 5 16.0394 10.0329 -7.3453 0.0000 34.4976 0.0000
# 6 0.0000 0.0000 0.0000 -4.6617 0.0000 40.0207
#
#
#
# Elastic Compliance Matrix: (Units=1/GPa)
#
#
# Indices 1 2 3 4 5 6 
#
# 1 0.012837 -0.003153 -0.004548 0.000000 -0.006020 0.000000
# 2 -0.003153 0.009559 -0.002884 0.000000 -0.001928 0.000000
# 3 -0.004548 -0.002884 0.018329 0.000000 0.006856 0.000000
# 4 0.000000 0.000000 0.000000 0.135730 0.000000 0.015810
# 5 -0.006020 -0.001928 0.006856 0.000000 0.033807 0.000000
# 6 0.000000 0.000000 0.000000 0.015810 0.000000 0.026829
#
#
# Mechanical properties :
#
#
# Convention : Reuss Voigt Hill
#
# Bulk Modulus (GPa) = 51.14075 56.95753 54.04914
# Shear Modulus (GPa) = 18.88368 30.01845 24.45106
#
# Velocity S-wave (km/s) = 2.95904 3.73080 3.36711
# Velocity P-wave (km/s) = 5.94873 6.70585 6.33860
#
# Compressibility (1/GPa) = 0.01955388
#
# Stress axis : x y z
#
# Youngs Moduli (GPa) = 77.89942 104.61168 54.55943
#
# Poissons Ratio (x) = 0.32985 0.24816
# Poissons Ratio (y) = 0.24563 0.15735
# Poissons Ratio (z) = 0.35432 0.30170
#
# Static dielectric constant tensor:
#      x y z
#    x 1.846860 0.000000 0.079570 
#    y 0.000000 1.849080 0.000000 
#    z 0.079570 0.000000 1.848200 
# 
# From -- ./inp_files/104111.got.cif
#   From: 2010.05.17/outbox.cif.g08.bks.cpg/sg15_53_cif.got.tgz:104111.got - 2010.06.03 18:47:42.
