data_PCOD9280988
_publ_section_title
;
Structure prediction by ZEFSAII (Michael W. Deem and Ramdas Pophale) SiO2 
 PCOD9280988
Probable space group: C 2/C
;
_chemical_formula_sum "Si O2"
_cell_formula_units_Z 48
_cell_length_a 22.826925
_cell_length_b 7.113418
_cell_length_c 22.362926
_cell_angle_alpha 90.000000
_cell_angle_beta 134.588569
_cell_angle_gamma 90.000000
_cell_volume 2586.042605
_symmetry_space_group_name_H-M "C 2/C"
_symmetry_group_IT_number 15
_symmetry_cell_setting 'monoclinic'
loop_
_space_group_symop_operation_xyz
x,y,z
-x,y,1/2-z
-x,-y,-z
x,-y,1/2+z
1/2+x,1/2+y,z
1/2-x,1/2+y,1/2-z
1/2-x,1/2-y,-z
1/2+x,1/2-y,1/2+z
loop_
_atom_site_type_symbol
_atom_site_label
_atom_site_fract_x
_atom_site_fract_y
_atom_site_fract_z
Si Si1 0.730435 0.023149 0.817558
Si Si2 0.601692 0.490179 0.999083
Si Si3 0.520836 0.782831 0.025683
Si Si4 0.439489 0.555100 0.661698
Si Si5 0.839326 0.123194 0.287281
Si Si6 0.896867 0.211018 0.744544
O O1 0.802512 0.998376 0.917184
O O2 0.703157 0.236125 0.789139
O O3 0.772242 0.952552 0.785926
O O4 0.652098 0.896015 0.775441
O O5 0.555277 0.675940 0.991487
O O6 0.559990 0.324760 0.008166
O O7 0.588696 0.463586 0.919328
O O8 0.591301 0.737486 0.125739
O O9 0.500000 0.000000 0.000000
O O10 0.500000 0.436674 0.750000
O O11 0.373777 0.636221 0.661199
O O12 0.504129 0.719145 0.688496
O O13 0.877382 0.947702 0.279588
#
# Coordination Sequence:
#
# PCOD9280988 Si02
#       6
#     8   8   8   8   8   8
#     4  11  23  32  61  87 118 145 191 247 295 344
#     4  10  21  38  53  89 115 151 194 247 286 334
#     4  10  22  33  59  84 116 153 196 239 286 351
#     4   8  19  39  64  71 118 163 189 235 285 353
#     4  11  21  36  57  85 118 152 187 239 299 350
#     4   9  20  40  57  83 111 159 191 232 291 344
#
# _framework density 18.561178999999999
#
# number of rings (size 3 to 8) (size 9 to 14) (size 15 to 20)
#    1.000    1.000    3.333    0.000    4.667    0.667 
#    0.000    5.833    0.000    0.000    0.000    0.000 
#    0.000    0.000    0.000    0.000    0.000    0.000 
#
# Total GULP energy -133602.087455 kJ/mol
# GULP energy per Si atom -5566.753644 kJ/mol
# Density = 1.851893 g / cm^3
# Si number density = 18.561179 Si / 1000 Ang^3
#
#
#
# Elastic Constant Matrix: (Units=GPa)
#
#
# Indices 1 2 3 4 5 6 
#
# 1 33.1589 -10.3035 9.5971 -0.0001 -8.9306 -0.0001
# 2 -10.3035 56.5702 6.9807 -0.0002 -1.8500 -0.0004
# 3 9.5971 6.9807 72.7437 0.0000 -23.0580 0.0000
# 4 -0.0001 -0.0002 0.0000 12.0707 0.0000 6.5153
# 5 -8.9306 -1.8500 -23.0580 0.0000 29.7972 0.0000
# 6 -0.0001 -0.0004 0.0000 6.5153 0.0000 10.1274
#
#
#
# Elastic Compliance Matrix: (Units=1/GPa)
#
#
# Indices 1 2 3 4 5 6 
#
# 1 0.035543 0.007077 -0.002454 0.000000 0.009193 0.000000
# 2 0.007077 0.019300 -0.002297 0.000000 0.001542 0.000001
# 3 -0.002454 -0.002297 0.018567 0.000000 0.013490 0.000000
# 4 0.000000 0.000000 0.000000 0.126917 0.000000 -0.081650
# 5 0.009193 0.001542 0.013490 0.000000 0.046850 0.000000
# 6 0.000000 0.000001 0.000000 -0.081650 0.000000 0.151271
#
#
# Mechanical properties :
#
#
# Convention : Reuss Voigt Hill
#
# Bulk Modulus (GPa) = 12.81037 19.44681 16.12859
# Shear Modulus (GPa) = 11.90994 20.81228 16.36111
#
# Velocity S-wave (km/s) = 2.53585 3.35219 2.97218
# Velocity P-wave (km/s) = 3.93582 5.04804 4.52623
#
# Compressibility (1/GPa) = 0.07806179
#
# Stress axis : x y z
#
# Youngs Moduli (GPa) = 28.13474 51.81333 53.85905
#
# Poissons Ratio (x) = -0.36670 0.13219
# Poissons Ratio (y) = -0.19912 0.12372
# Poissons Ratio (z) = 0.06906 0.11902
#
# Static dielectric constant tensor:
#      x y z
#    x 1.659610 0.000000 -0.004340 
#    y 0.000000 1.627070 0.000000 
#    z -0.004340 0.000000 1.700540 
# 
# From -- ./inp_files/254452.got.cif
#   From: 2010.05.17/outbox.cif.g08.bks.cpg/sg15_128_cif.got.tgz:254452.got - 2010.06.03 18:47:42.
