data_PCOD9280563
_publ_section_title
;
Structure prediction by ZEFSAII (Michael W. Deem and Ramdas Pophale) SiO2 
 PCOD9280563
Probable space group: C 2/C
;
_chemical_formula_sum "Si O2"
_cell_formula_units_Z 64
_cell_length_a 21.300017
_cell_length_b 21.896954
_cell_length_c 7.991183
_cell_angle_alpha 90.000000
_cell_angle_beta 124.069421
_cell_angle_gamma 90.000000
_cell_volume 3087.404651
_symmetry_space_group_name_H-M "C 2/C"
_symmetry_group_IT_number 15
_symmetry_cell_setting 'monoclinic'
loop_
_space_group_symop_operation_xyz
x,y,z
-x,y,1/2-z
-x,-y,-z
x,-y,1/2+z
1/2+x,1/2+y,z
1/2-x,1/2+y,1/2-z
1/2-x,1/2-y,-z
1/2+x,1/2-y,1/2+z
loop_
_atom_site_type_symbol
_atom_site_label
_atom_site_fract_x
_atom_site_fract_y
_atom_site_fract_z
Si Si1 0.687528 0.831317 0.351213
Si Si2 0.900464 0.754722 0.003922
Si Si3 0.413153 0.353872 0.571615
Si Si4 0.418766 0.100448 0.577427
Si Si5 0.065449 0.728866 0.094575
Si Si6 0.226442 0.456857 0.807020
Si Si7 0.275862 0.416712 0.246447
Si Si8 0.183090 0.143897 0.235178
O O1 0.648062 0.772982 0.218357
O O2 0.624286 0.879116 0.318012
O O3 0.736392 0.858900 0.273987
O O4 0.740039 0.821608 0.591374
O O5 0.867340 0.822292 0.977622
O O6 0.888768 0.721590 0.163417
O O7 0.984364 0.748898 0.052817
O O8 0.500000 0.367394 0.750000
O O9 0.410498 0.285729 0.486223
O O10 0.365464 0.400780 0.383883
O O11 0.369007 0.358571 0.680482
O O12 0.500000 0.072839 0.750000
O O13 0.434883 0.164711 0.503402
O O14 0.358837 0.059248 0.384093
O O15 0.250465 0.526824 0.825356
O O16 0.284634 0.420157 0.775716
O O17 0.241835 0.431965 0.015229
#
# Coordination Sequence:
#
# PCOD9280563 Si02
#       8
#     8   8   8   8   8   8   8   8
#     4  10  21  37  61  88 123 163 206 250 305 363
#     4  11  20  35  56  93 130 162 202 245 309 364
#     4  11  21  40  65  93 125 165 204 248 309 364
#     4  11  21  40  65  93 125 165 204 248 309 364
#     4  11  22  34  60  92 134 160 195 256 304 368
#     4  11  24  45  65  88 123 160 208 260 304 359
#     4  11  24  45  65  88 123 160 208 260 304 359
#     4  10  21  37  61  88 123 163 206 250 305 363
#
# _framework density 20.729384
#
# number of rings (size 3 to 8) (size 9 to 14) (size 15 to 20)
#    0.000    1.250    2.500    5.250    0.000    3.000 
#    0.000   11.250    0.000    0.000    0.000    0.000 
#    0.000    0.000    0.000    0.000    0.000    0.000 
#
# Total GULP energy -178480.286689 kJ/mol
# GULP energy per Si atom -5577.508959 kJ/mol
# Density = 2.068220 g / cm^3
# Si number density = 20.729384 Si / 1000 Ang^3
#
#
#
# Elastic Constant Matrix: (Units=GPa)
#
#
# Indices 1 2 3 4 5 6 
#
# 1 70.4335 -2.2792 19.5550 0.0000 4.4312 0.0000
# 2 -2.2792 48.5194 17.2423 0.0000 10.7888 0.0000
# 3 19.5550 17.2423 61.7316 0.0000 7.8850 0.0000
# 4 0.0000 0.0000 0.0000 24.6406 0.0000 -6.7072
# 5 4.4312 10.7888 7.8850 0.0000 39.1849 0.0000
# 6 0.0000 0.0000 0.0000 -6.7072 0.0000 18.0297
#
#
#
# Elastic Compliance Matrix: (Units=1/GPa)
#
#
# Indices 1 2 3 4 5 6 
#
# 1 0.015990 0.003130 -0.005746 0.000000 -0.001514 0.000000
# 2 0.003130 0.024552 -0.007123 0.000000 -0.005680 0.000000
# 3 -0.005746 -0.007123 0.020195 0.000000 -0.001453 0.000000
# 4 0.000000 0.000000 0.000000 0.045156 0.000000 0.016798
# 5 -0.001514 -0.005680 -0.001453 0.000000 0.027547 0.000000
# 6 0.000000 0.000000 0.000000 0.016798 0.000000 0.061713
#
#
# Mechanical properties :
#
#
# Convention : Reuss Voigt Hill
#
# Bulk Modulus (GPa) = 24.23861 27.74674 25.99267
# Shear Modulus (GPa) = 21.89297 26.11548 24.00422
#
# Velocity S-wave (km/s) = 3.25334 3.55326 3.40660
# Velocity P-wave (km/s) = 5.08238 5.49986 5.29524
#
# Compressibility (1/GPa) = 0.04125650
#
# Stress axis : x y z
#
# Youngs Moduli (GPa) = 62.54078 40.73012 49.51843
#
# Poissons Ratio (x) = -0.12747 0.28453
# Poissons Ratio (y) = -0.19573 0.35274
# Poissons Ratio (z) = 0.35935 0.29014
#
# Static dielectric constant tensor:
#      x y z
#    x 1.749100 0.000000 0.049580 
#    y 0.000000 1.743930 0.000000 
#    z 0.049580 0.000000 1.878910 
# 
# From -- ./inp_files/58647.got.cif
#   From: 2010.05.17/outbox.cif.g08.bks.cpg/sg15_30_cif.got.tgz:58647.got - 2010.06.03 18:47:42.
