data_PCOD9280809
_publ_section_title
;
Structure prediction by ZEFSAII (Michael W. Deem and Ramdas Pophale) SiO2 
 PCOD9280809
Probable space group: C 2/C
;
_chemical_formula_sum "Si O2"
_cell_formula_units_Z 60
_cell_length_a 9.567477
_cell_length_b 17.407103
_cell_length_c 23.743287
_cell_angle_alpha 90.000000
_cell_angle_beta 54.077483
_cell_angle_gamma 90.000000
_cell_volume 3202.200439
_symmetry_space_group_name_H-M "C 2/C"
_symmetry_group_IT_number 15
_symmetry_cell_setting 'monoclinic'
loop_
_space_group_symop_operation_xyz
x,y,z
-x,y,1/2-z
-x,-y,-z
x,-y,1/2+z
1/2+x,1/2+y,z
1/2-x,1/2+y,1/2-z
1/2-x,1/2-y,-z
1/2+x,1/2-y,1/2+z
loop_
_atom_site_type_symbol
_atom_site_label
_atom_site_fract_x
_atom_site_fract_y
_atom_site_fract_z
Si Si1 0.002806 0.953764 0.813057
Si Si2 0.764123 0.308638 0.363208
Si Si3 0.691851 0.978737 0.971938
Si Si4 0.406011 0.730843 0.005760
Si Si5 0.836073 0.942705 0.540747
Si Si6 0.500000 0.304039 0.750000
Si Si7 0.390659 0.815760 0.454214
Si Si8 0.194867 0.481094 0.181961
O O1 0.829601 0.970938 0.889044
O O2 0.016593 0.862245 0.798539
O O3 0.000000 0.986660 0.750000
O O4 0.167962 0.982755 0.807586
O O5 0.582865 0.276712 0.428409
O O6 0.896915 0.315856 0.384945
O O7 0.747938 0.393718 0.342891
O O8 0.840044 0.250580 0.299832
O O9 0.681132 0.897590 0.007635
O O10 0.500000 0.000000 0.000000
O O11 0.752335 0.044904 0.999954
O O12 0.250000 0.750000 0.000000
O O13 0.381356 0.646025 0.038013
O O14 0.444556 0.791462 0.046953
O O15 0.714202 0.972904 0.619028
O O16 0.000000 0.000000 0.500000
O O17 0.250000 0.750000 0.500000
O O18 0.000000 0.482738 0.250000
#
# Coordination Sequence:
#
# PCOD9280809 Si02
#       8
#     8   8   8   8   8   4   8   8
#     4  10  25  41  63  93 134 169 206 269 334 383
#     4  11  21  41  67  92 120 174 217 259 308 397
#     4  12  23  40  67  97 129 166 219 271 322 392
#     4  11  23  37  62  97 134 157 204 275 329 368
#     4  12  22  41  67  94 126 171 218 271 323 378
#     4  10  24  42  70  84 136 168 216 250 328 396
#     4  10  21  37  64  91 122 163 219 252 315 379
#     4  12  25  42  66  95 127 171 224 267 323 393
#
# _framework density 18.737116
#
# number of rings (size 3 to 8) (size 9 to 14) (size 15 to 20)
#    0.400    0.533    4.667    3.200    3.733    1.067 
#    0.000    0.000    0.000    0.000    0.000    0.000 
#    0.000    0.000    0.000    0.000    0.000    0.000 
#
# Total GULP energy -167445.400470 kJ/mol
# GULP energy per Si atom -5581.513349 kJ/mol
# Density = 1.869447 g / cm^3
# Si number density = 18.737116 Si / 1000 Ang^3
#
#
#
# Elastic Constant Matrix: (Units=GPa)
#
#
# Indices 1 2 3 4 5 6 
#
# 1 99.2176 0.9143 28.0060 0.0000 -6.3916 0.0000
# 2 0.9143 64.1055 8.3205 0.0000 0.3469 0.0001
# 3 28.0060 8.3205 108.3359 -0.0002 -8.4518 0.0000
# 4 0.0000 0.0000 -0.0002 16.1550 0.0001 4.3652
# 5 -6.3916 0.3469 -8.4518 0.0001 26.9294 0.0000
# 6 0.0000 0.0001 0.0000 4.3652 0.0000 24.6510
#
#
#
# Elastic Compliance Matrix: (Units=1/GPa)
#
#
# Indices 1 2 3 4 5 6 
#
# 1 0.010955 0.000186 -0.002710 0.000000 0.001747 0.000000
# 2 0.000186 0.015769 -0.001303 0.000000 -0.000568 0.000000
# 3 -0.002710 -0.001303 0.010233 0.000000 0.002585 0.000000
# 4 0.000000 0.000000 0.000000 0.065011 0.000000 -0.011512
# 5 0.001747 -0.000568 0.002585 0.000000 0.038367 0.000000
# 6 0.000000 0.000000 0.000000 -0.011512 0.000000 0.042605
#
#
# Mechanical properties :
#
#
# Convention : Reuss Voigt Hill
#
# Bulk Modulus (GPa) = 34.12772 38.46006 36.29389
# Shear Modulus (GPa) = 24.95489 29.17497 27.06493
#
# Velocity S-wave (km/s) = 3.65340 3.95025 3.80472
# Velocity P-wave (km/s) = 6.00416 6.43247 6.22200
#
# Compressibility (1/GPa) = 0.02930169
#
# Stress axis : x y z
#
# Youngs Moduli (GPa) = 91.28580 63.41602 97.72424
#
# Poissons Ratio (x) = -0.01180 0.26482
# Poissons Ratio (y) = -0.01698 0.12738
# Poissons Ratio (z) = 0.24737 0.08266
#
# Static dielectric constant tensor:
#      x y z
#    x 1.457190 0.000010 0.037310 
#    y 0.000010 1.741490 0.000000 
#    z 0.037310 0.000000 1.649060 
# 
# From -- ./inp_files/233069.got.cif
#   From: 2010.05.17/outbox.cif.g08.bks.cpg/sg15_117_cif.got.tgz:233069.got - 2010.06.03 18:47:42.
