data_PCOD9280362
_publ_section_title
;
Structure prediction by ZEFSAII (Michael W. Deem and Ramdas Pophale) SiO2 
 PCOD9280362
Probable space group: C 2/C
;
_chemical_formula_sum "Si O2"
_cell_formula_units_Z 56
_cell_length_a 20.020844
_cell_length_b 19.933480
_cell_length_c 8.367160
_cell_angle_alpha 90.000000
_cell_angle_beta 131.630857
_cell_angle_gamma 90.000000
_cell_volume 2495.859652
_symmetry_space_group_name_H-M "C 2/C"
_symmetry_group_IT_number 15
_symmetry_cell_setting 'monoclinic'
loop_
_space_group_symop_operation_xyz
x,y,z
-x,y,1/2-z
-x,-y,-z
x,-y,1/2+z
1/2+x,1/2+y,z
1/2-x,1/2+y,1/2-z
1/2-x,1/2-y,-z
1/2+x,1/2-y,1/2+z
loop_
_atom_site_type_symbol
_atom_site_label
_atom_site_fract_x
_atom_site_fract_y
_atom_site_fract_z
Si Si1 0.823355 0.880243 0.355312
Si Si2 0.214651 0.329756 0.619569
Si Si3 0.387628 0.721205 0.221776
Si Si4 0.404969 0.941326 0.593742
Si Si5 0.795647 0.456671 0.114238
Si Si6 0.336465 0.186048 0.095871
Si Si7 0.443965 0.679445 0.812392
O O1 0.873393 0.834994 0.564688
O O2 0.788057 0.944914 0.397132
O O3 0.890470 0.880756 0.312972
O O4 0.738920 0.836463 0.153444
O O5 0.306970 0.293575 0.717069
O O6 0.135481 0.290653 0.401376
O O7 0.216881 0.403421 0.547421
O O8 0.199154 0.326924 0.782532
O O9 0.482980 0.713374 0.454291
O O10 0.500000 0.977787 0.750000
O O11 0.375217 0.939096 0.363077
O O12 0.413166 0.867763 0.681557
O O13 0.327184 0.976018 0.576902
O O14 0.375991 0.260652 0.157342
O O15 0.500000 0.655804 0.750000
#
# Coordination Sequence:
#
# PCOD9280362 Si02
#       7
#     8   8   8   8   8   8   8
#     4  10  22  41  59  90 126 173 215 258 313 387
#     4  10  21  37  59  84 122 166 209 249 318 375
#     4  10  22  37  58  87 125 166 211 257 312 377
#     4  11  23  41  58  91 123 164 217 264 305 385
#     4  10  23  40  64  83 123 167 212 261 318 369
#     4  11  23  37  61  88 132 174 206 253 317 385
#     4  12  24  35  59  93 130 167 210 258 320 376
#
# _framework density 22.437159999999999
#
# number of rings (size 3 to 8) (size 9 to 14) (size 15 to 20)
#    0.000    1.429    1.429    3.429   10.000    0.000 
#    0.000    0.000    0.000    0.000    0.000   90.000 
#    0.000    0.000    0.000    0.000    0.000    0.000 
#
# Total GULP energy -156348.304358 kJ/mol
# GULP energy per Si atom -5583.868013 kJ/mol
# Density = 2.238609 g / cm^3
# Si number density = 22.437160 Si / 1000 Ang^3
#
#
#
# Elastic Constant Matrix: (Units=GPa)
#
#
# Indices 1 2 3 4 5 6 
#
# 1 140.6257 27.2862 22.8901 0.0000 -17.3119 0.0000
# 2 27.2862 51.8076 -0.2322 0.0000 -3.2342 0.0000
# 3 22.8901 -0.2322 110.5481 0.0000 -1.2356 0.0000
# 4 0.0000 0.0000 0.0000 20.3057 0.0000 -8.4929
# 5 -17.3119 -3.2342 -1.2356 0.0000 33.7115 0.0000
# 6 0.0000 0.0000 0.0000 -8.4929 0.0000 25.0298
#
#
#
# Elastic Compliance Matrix: (Units=1/GPa)
#
#
# Indices 1 2 3 4 5 6 
#
# 1 0.008739 -0.004361 -0.001774 0.000000 0.004004 0.000000
# 2 -0.004361 0.021595 0.000947 0.000000 -0.000133 0.000000
# 3 -0.001774 0.000947 0.009410 0.000000 -0.000475 0.000000
# 4 0.000000 0.000000 0.000000 0.057392 0.000000 0.019474
# 5 0.004004 -0.000133 -0.000475 0.000000 0.031690 0.000000
# 6 0.000000 0.000000 0.000000 0.019474 0.000000 0.046560
#
#
# Mechanical properties :
#
#
# Convention : Reuss Voigt Hill
#
# Bulk Modulus (GPa) = 34.05057 44.76330 39.40694
# Shear Modulus (GPa) = 25.56889 32.67856 29.12372
#
# Velocity S-wave (km/s) = 3.37943 3.82048 3.60670
# Velocity P-wave (km/s) = 5.51691 6.28135 5.91150
#
# Compressibility (1/GPa) = 0.02936808
#
# Stress axis : x y z
#
# Youngs Moduli (GPa) = 114.43115 46.30747 106.27208
#
# Poissons Ratio (x) = 0.20193 0.18851
# Poissons Ratio (y) = 0.49899 -0.10062
# Poissons Ratio (z) = 0.20299 -0.04384
#
# Static dielectric constant tensor:
#      x y z
#    x 1.895410 0.000000 0.011280 
#    y 0.000000 1.826060 0.000000 
#    z 0.011280 0.000000 1.823560 
# 
# From -- ./inp_files/57904.got.cif
#   From: 2010.05.17/outbox.cif.g08.bks.cpg/sg15_29_cif.got.tgz:57904.got - 2010.06.03 18:47:42.
