data_PCOD9280325
_publ_section_title
;
Structure prediction by ZEFSAII (Michael W. Deem and Ramdas Pophale) SiO2 
 PCOD9280325
Probable space group: C 2/C
;
_chemical_formula_sum "Si O2"
_cell_formula_units_Z 32
_cell_length_a 10.565927
_cell_length_b 26.460244
_cell_length_c 5.202197
_cell_angle_alpha 90.000000
_cell_angle_beta 116.357855
_cell_angle_gamma 90.000000
_cell_volume 1303.211647
_symmetry_space_group_name_H-M "C 2/C"
_symmetry_group_IT_number 15
_symmetry_cell_setting 'monoclinic'
loop_
_space_group_symop_operation_xyz
x,y,z
-x,y,1/2-z
-x,-y,-z
x,-y,1/2+z
1/2+x,1/2+y,z
1/2-x,1/2+y,1/2-z
1/2-x,1/2-y,-z
1/2+x,1/2-y,1/2+z
loop_
_atom_site_type_symbol
_atom_site_label
_atom_site_fract_x
_atom_site_fract_y
_atom_site_fract_z
Si Si1 0.234179 0.314616 0.766450
Si Si2 0.154297 0.976360 0.143401
Si Si3 0.273435 0.879709 0.239522
Si Si4 0.500000 0.739880 0.750000
Si Si5 0.500000 0.036390 0.750000
O O1 0.236868 0.336878 0.483882
O O2 0.106777 0.274393 0.678359
O O3 0.200966 0.356459 0.957299
O O4 0.387455 0.292027 0.981245
O O5 0.138048 0.916354 0.125856
O O6 0.224823 0.996410 0.465044
O O7 0.000000 0.000000 0.000000
O O8 0.382894 0.921551 0.236189
O O9 0.500000 0.000000 0.500000
#
# Coordination Sequence:
#
# PCOD9280325 Si02
#       5
#     8   8   8   4   4
#     4  11  26  45  72  98 134 172 225 283 342 412
#     4  10  21  37  58  87 130 168 205 258 313 370
#     4  12  24  42  67  99 131 178 227 271 328 403
#     4  10  26  49  70 100 132 172 218 289 360 398
#     4  12  24  41  66  98 142 186 226 269 324 390
#
# _framework density 24.554725000000001
#
# number of rings (size 3 to 8) (size 9 to 14) (size 15 to 20)
#    0.000    1.000    0.000    6.000    0.000   13.000 
#    0.000    0.000    0.000    0.000    0.000    0.000 
#    0.000    0.000    0.000    0.000    0.000    0.000 
#
# Total GULP energy -89406.057085 kJ/mol
# GULP energy per Si atom -5587.878568 kJ/mol
# Density = 2.449884 g / cm^3
# Si number density = 24.554725 Si / 1000 Ang^3
#
#
#
# Elastic Constant Matrix: (Units=GPa)
#
#
# Indices 1 2 3 4 5 6 
#
# 1 99.4091 21.5145 17.1766 0.0000 10.8823 0.0000
# 2 21.5145 79.6439 0.6320 0.0000 5.2578 0.0000
# 3 17.1766 0.6320 98.4674 0.0000 -32.5351 0.0000
# 4 0.0000 0.0000 0.0000 32.3713 0.0000 0.4800
# 5 10.8823 5.2578 -32.5351 0.0000 46.2203 0.0000
# 6 0.0000 0.0000 0.0000 0.4800 0.0000 52.2199
#
#
#
# Elastic Compliance Matrix: (Units=1/GPa)
#
#
# Indices 1 2 3 4 5 6 
#
# 1 0.011880 -0.002842 -0.003742 0.000000 -0.005108 0.000000
# 2 -0.002842 0.013371 0.000168 0.000000 -0.000734 0.000000
# 3 -0.003742 0.000168 0.014454 0.000000 0.011036 0.000000
# 4 0.000000 0.000000 0.000000 0.030896 0.000000 -0.000284
# 5 -0.005108 -0.000734 0.011036 0.000000 0.030690 0.000000
# 6 0.000000 0.000000 0.000000 -0.000284 0.000000 0.019152
#
#
# Mechanical properties :
#
#
# Convention : Reuss Voigt Hill
#
# Bulk Modulus (GPa) = 37.21404 39.57407 38.39405
# Shear Modulus (GPa) = 35.15341 42.04211 38.59776
#
# Velocity S-wave (km/s) = 3.78780 4.14234 3.96903
# Velocity P-wave (km/s) = 5.85819 6.24742 6.05593
#
# Compressibility (1/GPa) = 0.02687158
#
# Stress axis : x y z
#
# Youngs Moduli (GPa) = 84.17317 74.78962 69.18593
#
# Poissons Ratio (x) = 0.21258 0.25888
# Poissons Ratio (y) = 0.23925 -0.01159
# Poissons Ratio (z) = 0.31496 -0.01253
#
# Static dielectric constant tensor:
#      x y z
#    x 2.337840 0.000000 0.072410 
#    y 0.000000 1.954400 0.000000 
#    z 0.072410 0.000000 1.912970 
# 
# From -- ./inp_files/4452.got.cif
#   From: 2010.05.17/outbox.cif.g08.bks.cpg/sg15_3_cif.got.tgz:4452.got - 2010.06.03 18:47:42.
