data_PCOD9280224
_publ_section_title
;
Structure prediction by ZEFSAII (Michael W. Deem and Ramdas Pophale) SiO2 
 PCOD9280224
Probable space group: C 2/C
;
_chemical_formula_sum "Si O2"
_cell_formula_units_Z 56
_cell_length_a 21.413044
_cell_length_b 9.308938
_cell_length_c 29.036576
_cell_angle_alpha 90.000000
_cell_angle_beta 151.611447
_cell_angle_gamma 90.000000
_cell_volume 2751.866694
_symmetry_space_group_name_H-M "C 2/C"
_symmetry_group_IT_number 15
_symmetry_cell_setting 'monoclinic'
loop_
_space_group_symop_operation_xyz
x,y,z
-x,y,1/2-z
-x,-y,-z
x,-y,1/2+z
1/2+x,1/2+y,z
1/2-x,1/2+y,1/2-z
1/2-x,1/2-y,-z
1/2+x,1/2-y,1/2+z
loop_
_atom_site_type_symbol
_atom_site_label
_atom_site_fract_x
_atom_site_fract_y
_atom_site_fract_z
Si Si1 0.788279 0.357497 0.172713
Si Si2 0.914292 0.992141 0.331198
Si Si3 0.959416 0.409228 0.518185
Si Si4 0.282494 0.224836 0.274378
Si Si5 0.957984 0.203140 0.150142
Si Si6 0.196146 0.654225 0.034800
Si Si7 0.600160 0.413786 0.531672
O O1 0.751593 0.310819 0.200604
O O2 0.703189 0.258427 0.083320
O O3 0.741870 0.517546 0.132155
O O4 0.939809 0.318589 0.263762
O O5 0.836630 0.115313 0.309690
O O6 0.956271 0.068088 0.311446
O O7 0.822547 0.852332 0.266085
O O8 0.041443 0.945118 0.442704
O O9 0.861092 0.503515 0.485209
O O10 0.904597 0.256204 0.465990
O O11 0.000000 0.500000 0.500000
O O12 0.089726 0.371128 0.632048
O O13 0.842120 0.153081 0.108176
O O14 0.894013 0.274840 0.063146
O O15 0.500000 0.500000 0.500000
#
# Coordination Sequence:
#
# PCOD9280224 Si02
#       7
#     8   8   8   8   8   8   8
#     4  11  20  40  62  87 125 163 209 252 305 377
#     4  10  21  37  56  88 126 150 203 248 307 368
#     4  11  22  36  61  97 122 161 208 261 318 365
#     4  10  22  35  59  93 119 159 194 258 312 361
#     4  10  24  39  65  89 120 175 209 246 318 371
#     4  11  22  42  65  87 125 163 215 256 300 382
#     4  11  20  37  59  91 126 162 198 257 323 367
#
# _framework density 20.349824000000002
#
# number of rings (size 3 to 8) (size 9 to 14) (size 15 to 20)
#    0.000    1.429    5.714    0.429    4.000    0.000 
#    0.000    2.857    0.000    1.714    0.000    0.000 
#    0.000    0.000    0.000    0.000    0.000    0.000 
#
# Total GULP energy -156461.027022 kJ/mol
# GULP energy per Si atom -5587.893822 kJ/mol
# Density = 2.030351 g / cm^3
# Si number density = 20.349824 Si / 1000 Ang^3
#
#
#
# Elastic Constant Matrix: (Units=GPa)
#
#
# Indices 1 2 3 4 5 6 
#
# 1 78.4905 55.0602 22.8021 0.0001 21.3606 0.0001
# 2 55.0602 156.5563 43.5838 -0.0005 19.9211 -0.0001
# 3 22.8021 43.5838 83.4688 -0.0009 18.1757 -0.0003
# 4 0.0001 -0.0005 -0.0009 34.5804 -0.0002 -0.7833
# 5 21.3606 19.9211 18.1757 -0.0002 31.3416 0.0000
# 6 0.0001 -0.0001 -0.0003 -0.7833 0.0000 24.3594
#
#
#
# Elastic Compliance Matrix: (Units=1/GPa)
#
#
# Indices 1 2 3 4 5 6 
#
# 1 0.019249 -0.005472 -0.000345 0.000000 -0.009440 0.000000
# 2 -0.005472 0.009258 -0.003285 0.000000 -0.000250 0.000000
# 3 -0.000345 -0.003285 0.015204 0.000000 -0.006494 0.000000
# 4 0.000000 0.000000 0.000000 0.028939 0.000000 0.000931
# 5 -0.009440 -0.000250 -0.006494 0.000000 0.042265 0.000000
# 6 0.000000 0.000000 0.000000 0.000931 0.000000 0.041082
#
#
# Mechanical properties :
#
#
# Convention : Reuss Voigt Hill
#
# Bulk Modulus (GPa) = 39.20637 62.37862 50.79250
# Shear Modulus (GPa) = 27.36660 31.19426 29.28043
#
# Velocity S-wave (km/s) = 3.67114 3.91948 3.79734
# Velocity P-wave (km/s) = 6.10555 7.15561 6.65133
#
# Compressibility (1/GPa) = 0.02550606
#
# Stress axis : x y z
#
# Youngs Moduli (GPa) = 51.95205 108.01022 65.77134
#
# Poissons Ratio (x) = 0.59106 0.02271
# Poissons Ratio (y) = 0.28430 0.21605
# Poissons Ratio (z) = 0.01794 0.35481
#
# Static dielectric constant tensor:
#      x y z
#    x 1.730880 0.000000 -0.004590 
#    y 0.000000 1.716070 0.000000 
#    z -0.004590 0.000000 1.782230 
# 
# From -- ./inp_files/317552.got.cif
#   From: 2010.05.17/outbox.cif.g08.bks.cpg/sg15_159_cif.got.tgz:317552.got - 2010.06.03 18:47:42.
