data_PCOD9280729
_publ_section_title
;
Structure prediction by ZEFSAII (Michael W. Deem and Ramdas Pophale) SiO2 
 PCOD9280729
Probable space group: C 2/C
;
_chemical_formula_sum "Si O2"
_cell_formula_units_Z 64
_cell_length_a 16.892954
_cell_length_b 18.070177
_cell_length_c 18.047892
_cell_angle_alpha 90.000000
_cell_angle_beta 33.087087
_cell_angle_gamma 90.000000
_cell_volume 3007.585918
_symmetry_space_group_name_H-M "C 2/C"
_symmetry_group_IT_number 15
_symmetry_cell_setting 'monoclinic'
loop_
_space_group_symop_operation_xyz
x,y,z
-x,y,1/2-z
-x,-y,-z
x,-y,1/2+z
1/2+x,1/2+y,z
1/2-x,1/2+y,1/2-z
1/2-x,1/2-y,-z
1/2+x,1/2-y,1/2+z
loop_
_atom_site_type_symbol
_atom_site_label
_atom_site_fract_x
_atom_site_fract_y
_atom_site_fract_z
Si Si1 0.943053 0.463061 0.467921
Si Si2 0.659834 0.240952 0.644913
Si Si3 0.888949 0.429276 0.777451
Si Si4 0.614858 0.520668 0.022120
Si Si5 0.632389 0.594991 0.229526
Si Si6 0.854858 0.327165 0.192376
Si Si7 0.668641 0.664694 0.357953
Si Si8 0.595552 0.410746 0.373172
O O1 0.768057 0.456000 0.598078
O O2 0.000000 0.500000 0.500000
O O3 0.022154 0.513295 0.344014
O O4 0.001475 0.377429 0.416895
O O5 0.500000 0.213590 0.750000
O O6 0.750000 0.250000 0.500000
O O7 0.650044 0.323191 0.684066
O O8 0.707430 0.187838 0.675339
O O9 0.806353 0.364828 0.796302
O O10 0.000000 0.397845 0.750000
O O11 0.763849 0.478040 0.916496
O O12 0.542129 0.577259 0.136460
O O13 0.480069 0.464210 0.124722
O O14 0.624655 0.549563 0.929513
O O15 0.660825 0.607762 0.295352
O O16 0.849540 0.246986 0.159171
O O17 0.745287 0.377211 0.231900
O O18 0.524372 0.651161 0.518331
#
# Coordination Sequence:
#
# PCOD9280729 Si02
#       8
#     8   8   8   8   8   8   8   8
#     4  12  23  38  63 100 128 156 216 284 329 381
#     4  11  26  40  54  86 137 173 208 248 314 402
#     4  11  23  41  65  94 133 168 211 276 340 394
#     4   9  18  38  60  89 116 159 209 253 324 378
#     4  10  21  37  63  83 127 167 211 265 307 384
#     4  11  23  37  65  89 129 172 218 265 322 386
#     4   9  21  37  60  89 121 170 214 257 313 387
#     4   9  17  33  61  84 114 150 209 260 298 375
#
# _framework density 21.279526000000001
#
# number of rings (size 3 to 8) (size 9 to 14) (size 15 to 20)
#    0.000    1.750    2.500    2.250    8.750    2.500 
#    0.000    0.000    0.000    6.750    0.000    0.000 
#    0.000    0.000    0.000    0.000    0.000    0.000 
#
# Total GULP energy -178421.766127 kJ/mol
# GULP energy per Si atom -5575.680191 kJ/mol
# Density = 2.123109 g / cm^3
# Si number density = 21.279526 Si / 1000 Ang^3
#
#
#
# Elastic Constant Matrix: (Units=GPa)
#
#
# Indices 1 2 3 4 5 6 
#
# 1 66.3425 14.9176 9.1346 -0.0010 -10.1455 0.0007
# 2 14.9176 60.2515 17.2176 -0.0006 2.6102 0.0006
# 3 9.1346 17.2176 80.6868 -0.0020 -4.5766 0.0017
# 4 -0.0010 -0.0006 -0.0020 28.8648 0.0012 -2.0367
# 5 -10.1455 2.6102 -4.5766 0.0012 30.8497 -0.0007
# 6 0.0007 0.0006 0.0017 -2.0367 -0.0007 21.8352
#
#
#
# Elastic Compliance Matrix: (Units=1/GPa)
#
#
# Indices 1 2 3 4 5 6 
#
# 1 0.017024 -0.004274 -0.000683 0.000000 0.005859 0.000000
# 2 -0.004274 0.018880 -0.003747 0.000000 -0.003559 0.000000
# 3 -0.000683 -0.003747 0.013388 0.000001 0.002079 -0.000001
# 4 0.000000 0.000000 0.000001 0.034874 -0.000001 0.003253
# 5 0.005859 -0.003559 0.002079 -0.000001 0.034951 0.000001
# 6 0.000000 0.000000 -0.000001 0.003253 0.000001 0.046101
#
#
# Mechanical properties :
#
#
# Convention : Reuss Voigt Hill
#
# Bulk Modulus (GPa) = 31.36204 32.20226 31.78215
# Shear Modulus (GPa) = 25.87260 27.37735 26.62497
#
# Velocity S-wave (km/s) = 3.49068 3.59075 3.54107
# Velocity P-wave (km/s) = 5.56925 5.68834 5.62911
#
# Compressibility (1/GPa) = 0.03188568
#
# Stress axis : x y z
#
# Youngs Moduli (GPa) = 58.73954 52.96589 74.69180
#
# Poissons Ratio (x) = 0.22636 0.05102
# Poissons Ratio (y) = 0.25103 0.27986
# Poissons Ratio (z) = 0.04012 0.19845
#
# Static dielectric constant tensor:
#      x y z
#    x 1.809430 0.000000 0.003560 
#    y 0.000000 1.849320 0.000000 
#    z 0.003560 0.000000 1.815610 
# 
# From -- ./inp_files/249632.got.cif
#   From: 2010.05.17/outbox.cif.g08.bks.cpg/sg15_125_cif.got.tgz:249632.got - 2010.06.03 18:47:42.
