data_PCOD9280297
_publ_section_title
;
Structure prediction by ZEFSAII (Michael W. Deem and Ramdas Pophale) SiO2 
 PCOD9280297
Probable space group: C 2/C
;
_chemical_formula_sum "Si O2"
_cell_formula_units_Z 32
_cell_length_a 4.990721
_cell_length_b 32.056213
_cell_length_c 9.013109
_cell_angle_alpha 90.000000
_cell_angle_beta 95.924434
_cell_angle_gamma 90.000000
_cell_volume 1434.248152
_symmetry_space_group_name_H-M "C 2/C"
_symmetry_group_IT_number 15
_symmetry_cell_setting 'monoclinic'
loop_
_space_group_symop_operation_xyz
x,y,z
-x,y,1/2-z
-x,-y,-z
x,-y,1/2+z
1/2+x,1/2+y,z
1/2-x,1/2+y,1/2-z
1/2-x,1/2-y,-z
1/2+x,1/2-y,1/2+z
loop_
_atom_site_type_symbol
_atom_site_label
_atom_site_fract_x
_atom_site_fract_y
_atom_site_fract_z
Si Si1 0.503529 0.275181 0.569557
Si Si2 0.256852 0.526635 0.351132
Si Si3 0.130592 0.935918 0.096483
Si Si4 0.233753 0.153783 0.642064
O O1 0.500000 0.275795 0.750000
O O2 0.250000 0.250000 0.500000
O O3 0.415885 0.320090 0.496527
O O4 0.750000 0.250000 0.500000
O O5 0.500000 0.521286 0.250000
O O6 0.208090 0.479576 0.410291
O O7 0.376754 0.558538 0.474630
O O8 0.000000 0.542043 0.250000
O O9 0.291396 0.893124 0.087057
O O10 0.000000 0.934731 0.250000
O O11 0.500000 0.169322 0.750000
O O12 0.000000 0.152035 0.750000
#
# Coordination Sequence:
#
# PCOD9280297 Si02
#       4
#     8   8   8   8
#     4  12  25  44  69  97 129 165 208 258 318 382
#     4  10  21  37  58  85 121 163 209 259 309 362
#     4   9  21  38  60  88 122 164 209 255 309 369
#     4  11  23  41  64  91 125 164 208 257 313 376
#
# _framework density 22.311342
#
# number of rings (size 3 to 8) (size 9 to 14) (size 15 to 20)
#    0.000    1.500    0.000    5.250    0.000   14.000 
#    0.000    2.500    0.000    0.000    0.000    0.000 
#    0.000    0.000    0.000    0.000    0.000    0.000 
#
# Total GULP energy -89186.762992 kJ/mol
# GULP energy per Si atom -5574.172687 kJ/mol
# Density = 2.226056 g / cm^3
# Si number density = 22.311342 Si / 1000 Ang^3
#
#
#
# Elastic Constant Matrix: (Units=GPa)
#
#
# Indices 1 2 3 4 5 6 
#
# 1 130.1593 20.2435 53.3298 0.0000 17.7617 0.0000
# 2 20.2435 93.5605 65.5265 0.0000 -3.0320 0.0000
# 3 53.3298 65.5265 204.9080 0.0000 26.9827 0.0000
# 4 0.0000 0.0000 0.0000 86.7448 0.0000 25.4029
# 5 17.7617 -3.0320 26.9827 0.0000 40.5089 0.0000
# 6 0.0000 0.0000 0.0000 25.4029 0.0000 25.1928
#
#
#
# Elastic Compliance Matrix: (Units=1/GPa)
#
#
# Indices 1 2 3 4 5 6 
#
# 1 0.008886 -0.000848 -0.001666 0.000000 -0.002850 0.000000
# 2 -0.000848 0.014589 -0.005083 0.000000 0.004850 0.000000
# 3 -0.001666 -0.005083 0.007556 0.000000 -0.004683 0.000000
# 4 0.000000 0.000000 0.000000 0.016359 0.000000 -0.016495
# 5 -0.002850 0.004850 -0.004683 0.000000 0.029418 0.000000
# 6 0.000000 0.000000 0.000000 -0.016495 0.000000 0.056327
#
#
# Mechanical properties :
#
#
# Convention : Reuss Voigt Hill
#
# Bulk Modulus (GPa) = 63.14595 78.53638 70.84116
# Shear Modulus (GPa) = 32.55024 49.79116 41.17070
#
# Velocity S-wave (km/s) = 3.82371 4.72916 4.30033
# Velocity P-wave (km/s) = 6.91795 8.06825 7.51514
#
# Compressibility (1/GPa) = 0.01583633
#
# Stress axis : x y z
#
# Youngs Moduli (GPa) = 112.53106 68.54449 132.34282
#
# Poissons Ratio (x) = 0.05813 0.22053
# Poissons Ratio (y) = 0.09543 0.67273
# Poissons Ratio (z) = 0.18751 0.34843
#
# Static dielectric constant tensor:
#      x y z
#    x 1.784280 0.000000 0.022130 
#    y 0.000000 2.037970 0.000000 
#    z 0.022130 0.000000 1.630230 
# 
# From -- ./inp_files/20305.got.cif
#   From: 2010.05.17/outbox.cif.g08.bks.cpg/sg15_11_cif.got.tgz:20305.got - 2010.06.03 18:47:42.
