data_PCOD9280566
_publ_section_title
;
Structure prediction by ZEFSAII (Michael W. Deem and Ramdas Pophale) SiO2 
 PCOD9280566
Probable space group: C 2/C
;
_chemical_formula_sum "Si O2"
_cell_formula_units_Z 64
_cell_length_a 8.178788
_cell_length_b 15.337041
_cell_length_c 31.745860
_cell_angle_alpha 90.000000
_cell_angle_beta 46.336801
_cell_angle_gamma 90.000000
_cell_volume 2880.730191
_symmetry_space_group_name_H-M "C 2/C"
_symmetry_group_IT_number 15
_symmetry_cell_setting 'monoclinic'
loop_
_space_group_symop_operation_xyz
x,y,z
-x,y,1/2-z
-x,-y,-z
x,-y,1/2+z
1/2+x,1/2+y,z
1/2-x,1/2+y,1/2-z
1/2-x,1/2-y,-z
1/2+x,1/2-y,1/2+z
loop_
_atom_site_type_symbol
_atom_site_label
_atom_site_fract_x
_atom_site_fract_y
_atom_site_fract_z
Si Si1 0.001537 0.587998 0.088244
Si Si2 0.905456 0.742107 0.313034
Si Si3 0.234972 0.337609 0.473200
Si Si4 0.315071 0.850621 0.485462
Si Si5 0.583364 0.067308 0.689132
Si Si6 0.342371 0.264797 0.147496
Si Si7 0.380487 0.914600 0.137693
Si Si8 0.353503 0.584295 0.103418
O O1 0.853046 0.675855 0.118668
O O2 0.843688 0.503844 0.118842
O O3 0.177798 0.587020 0.095571
O O4 0.167220 0.589610 0.018909
O O5 0.094207 0.739181 0.316088
O O6 0.798184 0.838177 0.334336
O O7 0.716464 0.669997 0.357659
O O8 0.000000 0.726024 0.250000
O O9 0.250000 0.250000 0.500000
O O10 0.459004 0.325910 0.406532
O O11 0.037580 0.350442 0.474498
O O12 0.250000 0.750000 0.500000
O O13 0.386782 0.879033 0.425499
O O14 0.106339 0.904885 0.541344
O O15 0.500000 0.040471 0.750000
O O16 0.409924 0.059596 0.681177
O O17 0.633910 0.170700 0.681677
O O18 0.789664 0.003292 0.639699
#
# Coordination Sequence:
#
# PCOD9280566 Si02
#       8
#     8   8   8   8   8   8   8   8
#     4   9  22  39  59  89 127 166 199 251 322 378
#     4  11  21  41  63  85 120 168 212 259 312 377
#     4  10  21  37  61  88 128 165 198 254 323 384
#     4  12  22  38  63 100 130 159 214 265 320 387
#     4  11  25  43  64  94 127 169 218 263 310 376
#     4  10  21  40  60  86 120 166 209 250 319 367
#     4  11  24  39  63  94 129 160 212 265 310 378
#     4  10  23  41  64  93 126 166 208 264 320 378
#
# _framework density 22.21659
#
# number of rings (size 3 to 8) (size 9 to 14) (size 15 to 20)
#    0.000    1.500    2.500    2.625    7.000    2.500 
#    0.000    0.625    0.000    0.000    0.000    0.000 
#    0.000    0.000    0.000    0.000    0.000    0.000 
#
# Total GULP energy -178630.937021 kJ/mol
# GULP energy per Si atom -5582.216782 kJ/mol
# Density = 2.216602 g / cm^3
# Si number density = 22.216590 Si / 1000 Ang^3
#
#
#
# Elastic Constant Matrix: (Units=GPa)
#
#
# Indices 1 2 3 4 5 6 
#
# 1 14.1218 2.1878 3.9665 -0.0012 8.9313 0.0013
# 2 2.1878 102.7612 -2.9876 -0.0004 2.9799 0.0004
# 3 3.9665 -2.9876 88.2326 -0.0012 30.5583 0.0009
# 4 -0.0012 -0.0004 -0.0012 21.1248 0.0008 -6.9014
# 5 8.9313 2.9799 30.5583 0.0008 28.5211 -0.0008
# 6 0.0013 0.0004 0.0009 -6.9014 -0.0008 23.9924
#
#
#
# Elastic Compliance Matrix: (Units=1/GPa)
#
#
# Indices 1 2 3 4 5 6 
#
# 1 0.092976 -0.000576 0.009323 0.000005 -0.039044 -0.000005
# 2 -0.000576 0.009830 0.001037 0.000000 -0.001957 0.000000
# 3 0.009323 0.001037 0.019078 0.000002 -0.023468 -0.000001
# 4 0.000005 0.000000 0.000002 0.052248 -0.000005 0.015029
# 5 -0.039044 -0.001957 -0.023468 -0.000005 0.072637 0.000004
# 6 -0.000005 0.000000 -0.000001 0.015029 0.000004 0.046003
#
#
# Mechanical properties :
#
#
# Convention : Reuss Voigt Hill
#
# Bulk Modulus (GPa) = 7.06954 23.49434 15.28194
# Shear Modulus (GPa) = 15.60765 28.19091 21.89928
#
# Velocity S-wave (km/s) = 2.65339 3.56604 3.14302
# Velocity P-wave (km/s) = 3.54631 5.24916 4.47940
#
# Compressibility (1/GPa) = 0.14145193
#
# Stress axis : x y z
#
# Youngs Moduli (GPa) = 10.75542 101.72456 52.41761
#
# Poissons Ratio (x) = 0.05862 -0.48871
# Poissons Ratio (y) = 0.00620 -0.05434
# Poissons Ratio (z) = -0.10028 -0.10546
#
# Static dielectric constant tensor:
#      x y z
#    x 1.783160 -0.000020 0.038470 
#    y -0.000020 1.843460 0.000000 
#    z 0.038470 0.000000 1.844250 
# 
# From -- ./inp_files/308235.got.cif
#   From: 2010.05.17/outbox.cif.g08.bks.cpg/sg15_155_cif.got.tgz:308235.got - 2010.06.03 18:47:42.
