data_PCOD9280475
_publ_section_title
;
Structure prediction by ZEFSAII (Michael W. Deem and Ramdas Pophale) SiO2 
 PCOD9280475
Probable space group: C 2/C
;
_chemical_formula_sum "Si O2"
_cell_formula_units_Z 64
_cell_length_a 26.844712
_cell_length_b 9.079034
_cell_length_c 14.630083
_cell_angle_alpha 90.000000
_cell_angle_beta 111.598938
_cell_angle_gamma 90.000000
_cell_volume 3315.331250
_symmetry_space_group_name_H-M "C 2/C"
_symmetry_group_IT_number 15
_symmetry_cell_setting 'monoclinic'
loop_
_space_group_symop_operation_xyz
x,y,z
-x,y,1/2-z
-x,-y,-z
x,-y,1/2+z
1/2+x,1/2+y,z
1/2-x,1/2+y,1/2-z
1/2-x,1/2-y,-z
1/2+x,1/2-y,1/2+z
loop_
_atom_site_type_symbol
_atom_site_label
_atom_site_fract_x
_atom_site_fract_y
_atom_site_fract_z
Si Si1 0.610151 0.493033 0.457006
Si Si2 0.673609 0.047071 0.179815
Si Si3 0.792576 0.902404 0.755725
Si Si4 0.323989 0.214909 0.933248
Si Si5 0.438271 0.280574 0.213908
Si Si6 0.381837 0.352438 0.364042
Si Si7 0.345019 0.947506 0.616699
Si Si8 0.688599 0.268323 0.924346
O O1 0.635985 0.345678 0.515001
O O2 0.572357 0.428120 0.353159
O O3 0.587513 0.583895 0.527309
O O4 0.657735 0.595586 0.449693
O O5 0.735282 0.032177 0.192034
O O6 0.648927 0.201682 0.132806
O O7 0.671525 0.045914 0.288286
O O8 0.647563 0.909908 0.109670
O O9 0.783605 0.798857 0.838229
O O10 0.810452 0.803727 0.682818
O O11 0.836141 0.028646 0.804749
O O12 0.307984 0.141233 0.018885
O O13 0.500000 0.239603 0.250000
O O14 0.419098 0.318476 0.303209
O O15 0.400324 0.145323 0.154961
O O16 0.343117 0.115860 0.582408
O O17 0.750000 0.250000 0.000000
#
# Coordination Sequence:
#
# PCOD9280475 Si02
#       8
#     8   8   8   8   8   8   8   8
#     4  10  22  39  62  91 126 159 209 264 311 380
#     4  11  21  36  56  88 127 170 205 248 305 380
#     4  11  21  35  55  86 128 166 206 247 304 375
#     4  10  21  38  55  84 121 167 206 254 301 362
#     4  10  22  44  66  87 120 165 217 275 319 359
#     4  10  21  37  60  89 125 160 205 262 312 372
#     4  10  23  39  61  88 125 165 211 259 309 377
#     4  12  23  38  58  92 132 172 202 250 310 381
#
# _framework density 19.304255000000001
#
# number of rings (size 3 to 8) (size 9 to 14) (size 15 to 20)
#    0.000    1.500    2.500    3.000    3.500    1.000 
#    0.000    0.625    0.000   18.750    0.000    0.000 
#    0.000    0.000    0.000    0.000    0.000    0.000 
#
# Total GULP energy -178435.818382 kJ/mol
# GULP energy per Si atom -5576.119324 kJ/mol
# Density = 1.926032 g / cm^3
# Si number density = 19.304255 Si / 1000 Ang^3
#
#
#
# Elastic Constant Matrix: (Units=GPa)
#
#
# Indices 1 2 3 4 5 6 
#
# 1 76.9700 44.8432 30.7289 0.0000 3.7184 0.0000
# 2 44.8432 125.1288 40.0495 0.0000 -2.7538 0.0000
# 3 30.7289 40.0495 87.6235 0.0000 -16.4797 0.0000
# 4 0.0000 0.0000 0.0000 43.1902 0.0000 -6.0387
# 5 3.7184 -2.7538 -16.4797 0.0000 16.6108 0.0000
# 6 0.0000 0.0000 0.0000 -6.0387 0.0000 14.7980
#
#
#
# Elastic Compliance Matrix: (Units=1/GPa)
#
#
# Indices 1 2 3 4 5 6 
#
# 1 0.019100 -0.004985 -0.006613 0.000000 -0.011663 0.000000
# 2 -0.004985 0.010813 -0.003254 0.000000 -0.000320 0.000000
# 3 -0.006613 -0.003254 0.018928 0.000000 0.019719 0.000000
# 4 0.000000 0.000000 0.000000 0.024554 0.000000 0.010020
# 5 -0.011663 -0.000320 0.019719 0.000000 0.082323 0.000000
# 6 0.000000 0.000000 0.000000 0.010020 0.000000 0.071666
#
#
# Mechanical properties :
#
#
# Convention : Reuss Voigt Hill
#
# Bulk Modulus (GPa) = 52.25832 57.88504 55.07168
# Shear Modulus (GPa) = 18.97770 26.52652 22.75211
#
# Velocity S-wave (km/s) = 3.13882 3.71094 3.43681
# Velocity P-wave (km/s) = 6.34554 6.95789 6.65876
#
# Compressibility (1/GPa) = 0.01913571
#
# Stress axis : x y z
#
# Youngs Moduli (GPa) = 52.35574 92.48348 52.83259
#
# Poissons Ratio (x) = 0.46103 0.34940
# Poissons Ratio (y) = 0.26099 0.17192
# Poissons Ratio (z) = 0.34625 0.30095
#
# Static dielectric constant tensor:
#      x y z
#    x 1.627110 0.000000 -0.028180 
#    y 0.000000 1.702400 0.000000 
#    z -0.028180 0.000000 1.738260 
# 
# From -- ./inp_files/176635.got.cif
#   From: 2010.05.17/outbox.cif.g08.bks.cpg/sg15_89_cif.got.tgz:176635.got - 2010.06.03 18:47:42.
