data_PCOD9280095
_publ_section_title
;
Structure prediction by ZEFSAII (Michael W. Deem and Ramdas Pophale) SiO2 
 PCOD9280095
Probable space group: C 2/C
;
_chemical_formula_sum "Si O2"
_cell_formula_units_Z 56
_cell_length_a 19.789824
_cell_length_b 8.833102
_cell_length_c 14.948800
_cell_angle_alpha 90.000000
_cell_angle_beta 107.893673
_cell_angle_gamma 90.000000
_cell_volume 2486.731383
_symmetry_space_group_name_H-M "C 2/C"
_symmetry_group_IT_number 15
_symmetry_cell_setting 'monoclinic'
loop_
_space_group_symop_operation_xyz
x,y,z
-x,y,1/2-z
-x,-y,-z
x,-y,1/2+z
1/2+x,1/2+y,z
1/2-x,1/2+y,1/2-z
1/2-x,1/2-y,-z
1/2+x,1/2-y,1/2+z
loop_
_atom_site_type_symbol
_atom_site_label
_atom_site_fract_x
_atom_site_fract_y
_atom_site_fract_z
Si Si1 0.598648 0.217643 0.159334
Si Si2 0.296493 0.404003 0.708437
Si Si3 0.917636 0.922982 0.192821
Si Si4 0.459489 0.360335 0.024895
Si Si5 0.275498 0.919916 0.483369
Si Si6 0.775356 0.098257 0.867359
Si Si7 0.079370 0.566688 0.551906
O O1 0.611004 0.275812 0.264758
O O2 0.518564 0.263339 0.102225
O O3 0.648706 0.316312 0.113756
O O4 0.607513 0.041398 0.142230
O O5 0.377896 0.436561 0.720018
O O6 0.257700 0.518626 0.623009
O O7 0.276327 0.232470 0.683837
O O8 0.277126 0.459696 0.799058
O O9 0.907104 0.911801 0.082382
O O10 0.000000 0.938703 0.250000
O O11 0.428160 0.246803 0.938744
O O12 0.500000 0.500000 0.000000
O O13 0.250000 0.750000 0.500000
O O14 0.360884 0.938079 0.502346
O O15 0.247385 0.035057 0.546973
O O16 0.000000 0.500000 0.500000
#
# Coordination Sequence:
#
# PCOD9280095 Si02
#       7
#     8   8   8   8   8   8   8
#     4   9  20  40  64  86 132 174 213 275 334 401
#     4  11  23  41  68  93 135 177 225 280 343 406
#     4   9  20  40  62  95 131 177 219 270 344 404
#     4  10  21  36  66  94 130 169 221 274 335 407
#     4  12  25  41  70 101 136 177 232 281 348 420
#     4  11  24  43  66  96 135 175 225 285 341 409
#     4  10  22  41  63  98 132 173 223 272 340 403
#
# _framework density 22.51952
#
# number of rings (size 3 to 8) (size 9 to 14) (size 15 to 20)
#    0.000    1.714    1.429    2.143    4.000    2.286 
#    2.571    0.000    0.000   18.000    0.000    0.000 
#    0.000    0.000    0.000    0.000    0.000    0.000 
#
# Total GULP energy -156323.929657 kJ/mol
# GULP energy per Si atom -5582.997488 kJ/mol
# Density = 2.246826 g / cm^3
# Si number density = 22.519520 Si / 1000 Ang^3
#
#
#
# Elastic Constant Matrix: (Units=GPa)
#
#
# Indices 1 2 3 4 5 6 
#
# 1 129.2870 25.6766 19.3487 0.0000 -20.6824 0.0000
# 2 25.6766 75.2997 -1.1217 0.0000 0.3669 0.0000
# 3 19.3487 -1.1217 32.6503 0.0000 -10.1921 0.0000
# 4 0.0000 0.0000 0.0000 35.2652 0.0000 5.3950
# 5 -20.6824 0.3669 -10.1921 0.0000 23.9042 0.0000
# 6 0.0000 0.0000 0.0000 5.3950 0.0000 31.4380
#
#
#
# Elastic Compliance Matrix: (Units=1/GPa)
#
#
# Indices 1 2 3 4 5 6 
#
# 1 0.010178 -0.003564 -0.003908 0.000000 0.007195 0.000000
# 2 -0.003564 0.014535 0.001822 0.000000 -0.002530 0.000000
# 3 -0.003908 0.001822 0.036846 0.000000 0.012301 0.000000
# 4 0.000000 0.000000 0.000000 0.029121 0.000000 -0.004997
# 5 0.007195 -0.002530 0.012301 0.000000 0.053342 0.000000
# 6 0.000000 0.000000 0.000000 -0.004997 0.000000 0.032666
#
#
# Mechanical properties :
#
#
# Convention : Reuss Voigt Hill
#
# Bulk Modulus (GPa) = 19.89726 36.11602 28.00664
# Shear Modulus (GPa) = 24.42084 31.01038 27.71561
#
# Velocity S-wave (km/s) = 3.29664 3.71488 3.51199
# Velocity P-wave (km/s) = 4.83169 5.87136 5.37671
#
# Compressibility (1/GPa) = 0.05025817
#
# Stress axis : x y z
#
# Youngs Moduli (GPa) = 98.24690 68.79928 27.13996
#
# Poissons Ratio (x) = 0.24520 0.10607
# Poissons Ratio (y) = 0.35016 -0.04944
# Poissons Ratio (z) = 0.38397 -0.12533
#
# Static dielectric constant tensor:
#      x y z
#    x 1.927030 0.000000 0.042740 
#    y 0.000000 1.863440 0.000000 
#    z 0.042740 0.000000 1.854710 
# 
# From -- ./inp_files/166639.got.cif
#   From: 2010.05.17/outbox.cif.g08.bks.cpg/sg15_84_cif.got.tgz:166639.got - 2010.06.03 18:47:42.
