data_PCOD9280969
_publ_section_title
;
Structure prediction by ZEFSAII (Michael W. Deem and Ramdas Pophale) SiO2 
 PCOD9280969
Probable space group: C 2/C
;
_chemical_formula_sum "Si O2"
_cell_formula_units_Z 56
_cell_length_a 17.151495
_cell_length_b 6.282263
_cell_length_c 29.702638
_cell_angle_alpha 90.000000
_cell_angle_beta 115.896866
_cell_angle_gamma 90.000000
_cell_volume 2879.079881
_symmetry_space_group_name_H-M "C 2/C"
_symmetry_group_IT_number 15
_symmetry_cell_setting 'monoclinic'
loop_
_space_group_symop_operation_xyz
x,y,z
-x,y,1/2-z
-x,-y,-z
x,-y,1/2+z
1/2+x,1/2+y,z
1/2-x,1/2+y,1/2-z
1/2-x,1/2-y,-z
1/2+x,1/2-y,1/2+z
loop_
_atom_site_type_symbol
_atom_site_label
_atom_site_fract_x
_atom_site_fract_y
_atom_site_fract_z
Si Si1 0.503170 0.629539 0.872046
Si Si2 0.644381 0.931393 0.696582
Si Si3 0.352235 0.059205 0.055938
Si Si4 0.706415 0.125804 0.556363
Si Si5 0.868531 0.185875 0.376564
Si Si6 0.286917 0.113500 0.694396
Si Si7 0.642901 0.679162 0.373948
O O1 0.435165 0.768798 0.826923
O O2 0.566913 0.784872 0.915256
O O3 0.447252 0.476964 0.890161
O O4 0.563405 0.483026 0.856134
O O5 0.728901 0.806932 0.699369
O O6 0.625060 0.129404 0.659056
O O7 0.663229 0.009795 0.751428
O O8 0.268113 0.181035 0.055034
O O9 0.365741 0.844670 0.087214
O O10 0.336112 0.028336 0.999032
O O11 0.639883 0.212180 0.576445
O O12 0.769279 0.954881 0.595791
O O13 0.780400 0.055400 0.343851
O O14 0.348352 0.197102 0.670468
#
# Coordination Sequence:
#
# PCOD9280969 Si02
#       7
#     8   8   8   8   8   8   8
#     4  10  25  41  62  90 136 160 204 255 322 362
#     4  11  22  42  65  95 120 166 208 266 302 377
#     4  10  21  41  61  97 129 167 204 260 302 380
#     4  10  21  37  70  93 124 165 217 250 311 360
#     4  11  21  41  64  94 122 163 208 265 302 373
#     4  11  22  38  73  89 121 162 216 254 314 362
#     4  11  21  42  65  96 126 167 202 262 307 377
#
# _framework density 19.450659999999999
#
# number of rings (size 3 to 8) (size 9 to 14) (size 15 to 20)
#    0.000    1.429    4.286    1.286    0.000    0.571 
#    0.000    7.143    0.000    0.000    0.000    0.000 
#    0.000    0.000    0.000    0.000    0.000    0.000 
#
# Total GULP energy -156552.486197 kJ/mol
# GULP energy per Si atom -5591.160221 kJ/mol
# Density = 1.940639 g / cm^3
# Si number density = 19.450660 Si / 1000 Ang^3
#
#
#
# Elastic Constant Matrix: (Units=GPa)
#
#
# Indices 1 2 3 4 5 6 
#
# 1 84.9949 26.7495 32.6929 0.0000 1.1032 0.0000
# 2 26.7495 65.7827 1.2067 0.0000 -7.2280 0.0000
# 3 32.6929 1.2067 70.0701 0.0000 -22.4240 0.0000
# 4 0.0000 0.0000 0.0000 17.6686 0.0000 -13.3513
# 5 1.1032 -7.2280 -22.4240 0.0000 18.2568 0.0000
# 6 0.0000 0.0000 0.0000 -13.3513 0.0000 1.0110
#
#
#
# Elastic Compliance Matrix: (Units=1/GPa)
#
#
# Indices 1 2 3 4 5 6 
#
# 1 0.025240 -0.013670 -0.022673 0.000000 -0.034786 0.000000
# 2 -0.013670 0.023654 0.015211 0.000000 0.028874 0.000000
# 3 -0.022673 0.015211 0.044410 0.000000 0.061939 0.000000
# 4 0.000000 0.000000 0.000000 -0.006303 0.000000 -0.083240
# 5 -0.034786 0.028874 0.061939 0.000000 0.144385 0.000000
# 6 0.000000 0.000000 0.000000 -0.083240 0.000000 -0.110157
#
#
# Mechanical properties :
#
#
# Convention : Reuss Voigt Hill
#
# Bulk Modulus (GPa) = 19.59267 38.01621 28.80444
# Shear Modulus (GPa) = 27.69989 18.06719 22.88354
#
# Velocity S-wave (km/s) = 3.77783 3.05105 3.43372
# Velocity P-wave (km/s) = 5.39669 5.65679 5.52827
#
# Compressibility (1/GPa) = 0.05103951
#
# Stress axis : x y z
#
# Youngs Moduli (GPa) = 39.61927 42.27666 22.51741
#
# Poissons Ratio (x) = 0.57791 0.51054
# Poissons Ratio (y) = 0.54159 -0.34251
# Poissons Ratio (z) = 0.89830 -0.64306
#
# Static dielectric constant tensor:
#      x y z
#    x 1.666340 0.000000 0.005570 
#    y 0.000000 1.676720 0.000000 
#    z 0.005570 0.000000 1.635530 
# 
# From -- ./inp_files/297786.got.cif
#   From: 2010.05.17/outbox.cif.g08.bks.cpg/sg15_149_cif.got.tgz:297786.got - 2010.06.03 18:47:42.
