data_PCOD9280394
_publ_section_title
;
Structure prediction by ZEFSAII (Michael W. Deem and Ramdas Pophale) SiO2 
 PCOD9280394
Probable space group: C 2/C
;
_chemical_formula_sum "Si O2"
_cell_formula_units_Z 44
_cell_length_a 13.455643
_cell_length_b 21.877288
_cell_length_c 18.209089
_cell_angle_alpha 90.000000
_cell_angle_beta 155.622716
_cell_angle_gamma 90.000000
_cell_volume 2212.413157
_symmetry_space_group_name_H-M "C 2/C"
_symmetry_group_IT_number 15
_symmetry_cell_setting 'monoclinic'
loop_
_space_group_symop_operation_xyz
x,y,z
-x,y,1/2-z
-x,-y,-z
x,-y,1/2+z
1/2+x,1/2+y,z
1/2-x,1/2+y,1/2-z
1/2-x,1/2-y,-z
1/2+x,1/2-y,1/2+z
loop_
_atom_site_type_symbol
_atom_site_label
_atom_site_fract_x
_atom_site_fract_y
_atom_site_fract_z
Si Si1 0.158218 0.406424 0.124818
Si Si2 0.500000 0.955670 0.250000
Si Si3 0.554560 0.428534 0.041082
Si Si4 0.222435 0.508296 0.050454
Si Si5 0.220850 0.710146 0.584243
Si Si6 0.648869 0.839766 0.782478
O O1 0.377967 0.415419 0.329095
O O2 0.190021 0.443718 0.070325
O O3 0.146429 0.335065 0.099720
O O4 0.937067 0.440381 0.015705
O O5 0.286668 0.917849 0.145838
O O6 0.628825 0.992156 0.403558
O O7 0.500000 0.500000 0.000000
O O8 0.324363 0.388894 0.864815
O O9 0.500000 0.524435 0.250000
O O10 0.500000 0.699177 0.750000
O O11 0.197990 0.781699 0.585833
O O12 0.046095 0.690367 0.401698
O O13 0.500000 0.867225 0.750000
#
# Coordination Sequence:
#
# PCOD9280394 Si02
#       6
#     8   4   8   8   8   8
#     4  10  22  38  59  90 126 162 207 263 316 376
#     4  10  24  38  60  92 134 162 214 264 314 386
#     4  11  24  40  64  92 132 167 216 263 325 385
#     4  10  21  37  59  87 130 166 209 256 317 377
#     4  11  22  40  65  94 127 162 214 269 321 387
#     4  11  24  40  67  93 126 170 212 266 330 378
#
# _framework density 19.887786999999999
#
# number of rings (size 3 to 8) (size 9 to 14) (size 15 to 20)
#    0.000    1.455    0.000    6.000   11.455    0.000 
#    0.000    0.000    2.000    3.273    0.000    0.000 
#    0.000    0.000    0.000    0.000    0.000    0.000 
#
# Total GULP energy -122954.625925 kJ/mol
# GULP energy per Si atom -5588.846633 kJ/mol
# Density = 1.984252 g / cm^3
# Si number density = 19.887787 Si / 1000 Ang^3
#
#
#
# Elastic Constant Matrix: (Units=GPa)
#
#
# Indices 1 2 3 4 5 6 
#
# 1 77.4065 24.1853 29.3385 -0.0249 -15.2233 0.0029
# 2 24.1853 89.8526 25.1686 -0.0889 16.2426 -0.0028
# 3 29.3385 25.1686 112.6672 -0.0925 -4.5569 -0.0212
# 4 -0.0249 -0.0889 -0.0925 32.2468 0.0201 -1.5593
# 5 -15.2233 16.2426 -4.5569 0.0201 42.3874 0.0231
# 6 0.0029 -0.0028 -0.0212 -1.5593 0.0231 16.1969
#
#
#
# Elastic Compliance Matrix: (Units=1/GPa)
#
#
# Indices 1 2 3 4 5 6 
#
# 1 0.017236 -0.005220 -0.003004 -0.000016 0.007867 -0.000021
# 2 -0.005220 0.014539 -0.002199 0.000035 -0.007683 0.000015
# 3 -0.003004 -0.002199 0.010184 0.000021 0.000859 0.000014
# 4 -0.000016 0.000035 0.000021 0.031156 -0.000033 0.003000
# 5 0.007867 -0.007683 0.000859 -0.000033 0.029454 -0.000047
# 6 -0.000021 0.000015 0.000014 0.003000 -0.000047 0.062029
#
#
# Mechanical properties :
#
#
# Convention : Reuss Voigt Hill
#
# Bulk Modulus (GPa) = 47.36558 48.59014 47.97786
# Shear Modulus (GPa) = 25.97648 31.58179 28.77914
#
# Velocity S-wave (km/s) = 3.61799 3.98929 3.80817
# Velocity P-wave (km/s) = 6.42816 6.76051 6.59643
#
# Compressibility (1/GPa) = 0.02111238
#
# Stress axis : x y z
#
# Youngs Moduli (GPa) = 58.01952 68.77929 98.19366
#
# Poissons Ratio (x) = 0.35903 0.29496
# Poissons Ratio (y) = 0.30286 0.21596
# Poissons Ratio (z) = 0.17428 0.15127
#
# Static dielectric constant tensor:
#      x y z
#    x 1.733630 0.000000 -0.020930 
#    y 0.000000 1.686150 0.000000 
#    z -0.020930 0.000000 1.745810 
# 
# From -- ./inp_files/245609.got.cif
#   From: 2010.05.17/outbox.cif.g08.bks.cpg/sg15_123_cif.got.tgz:245609.got - 2010.06.03 18:47:42.
