data_PCOD9280671
_publ_section_title
;
Structure prediction by ZEFSAII (Michael W. Deem and Ramdas Pophale) SiO2 
 PCOD9280671
Probable space group: C 2/C
;
_chemical_formula_sum "Si O2"
_cell_formula_units_Z 48
_cell_length_a 10.031496
_cell_length_b 25.642555
_cell_length_c 10.628849
_cell_angle_alpha 90.000000
_cell_angle_beta 78.528844
_cell_angle_gamma 90.000000
_cell_volume 2679.479065
_symmetry_space_group_name_H-M "C 2/C"
_symmetry_group_IT_number 15
_symmetry_cell_setting 'monoclinic'
loop_
_space_group_symop_operation_xyz
x,y,z
-x,y,1/2-z
-x,-y,-z
x,-y,1/2+z
1/2+x,1/2+y,z
1/2-x,1/2+y,1/2-z
1/2-x,1/2-y,-z
1/2+x,1/2-y,1/2+z
loop_
_atom_site_type_symbol
_atom_site_label
_atom_site_fract_x
_atom_site_fract_y
_atom_site_fract_z
Si Si1 0.152695 0.170801 0.270412
Si Si2 0.572180 0.432048 0.874201
Si Si3 0.656149 0.129270 0.734068
Si Si4 0.645356 0.224178 0.922492
Si Si5 0.894882 0.950816 0.152115
Si Si6 0.837846 0.300751 0.514646
O O1 0.164399 0.120179 0.358250
O O2 0.146804 0.229562 0.321152
O O3 0.268751 0.169899 0.143933
O O4 0.000000 0.164606 0.250000
O O5 0.500000 0.435102 0.750000
O O6 0.641997 0.488802 0.870053
O O7 0.467422 0.429699 0.010937
O O8 0.500000 0.110558 0.750000
O O9 0.677213 0.169446 0.846977
O O10 0.765378 0.083582 0.712264
O O11 0.672760 0.163575 0.605687
O O12 0.750000 0.250000 0.000000
O O13 0.494038 0.216161 0.006443
O O14 0.000000 0.948739 0.250000
O O15 0.750000 0.250000 0.500000
#
# Coordination Sequence:
#
# PCOD9280671 Si02
#       6
#     8   8   8   8   8   8
#     4  11  19  35  61  80 112 152 188 232 286 345
#     4   9  20  36  60  90 115 148 194 244 287 342
#     4  10  21  38  57  80 116 155 187 226 287 357
#     4  11  24  35  53  86 119 145 187 239 285 341
#     4  10  21  37  62  91 114 144 200 247 283 329
#     4  11  20  37  57  81 108 153 195 222 279 354
#
# _framework density 17.913930000000001
#
# number of rings (size 3 to 8) (size 9 to 14) (size 15 to 20)
#    0.000    1.667    3.333    2.500    2.333    0.667 
#    0.000    0.000    3.667   11.000    0.000    0.000 
#    0.000    0.000    0.000    0.000    0.000    0.000 
#
# Total GULP energy -133610.969726 kJ/mol
# GULP energy per Si atom -5567.123739 kJ/mol
# Density = 1.787316 g / cm^3
# Si number density = 17.913930 Si / 1000 Ang^3
#
#
#
# Elastic Constant Matrix: (Units=GPa)
#
#
# Indices 1 2 3 4 5 6 
#
# 1 90.4731 44.4895 37.3499 0.0000 -15.9023 0.0000
# 2 44.4895 97.4370 30.4498 0.0000 -22.4430 0.0000
# 3 37.3499 30.4498 98.2179 0.0000 -22.1812 0.0000
# 4 0.0000 0.0000 0.0000 29.7355 0.0000 -11.7661
# 5 -15.9023 -22.4430 -22.1812 0.0000 26.2259 0.0000
# 6 0.0000 0.0000 0.0000 -11.7661 0.0000 16.8987
#
#
#
# Elastic Compliance Matrix: (Units=1/GPa)
#
#
# Indices 1 2 3 4 5 6 
#
# 1 0.015670 -0.005614 -0.003903 0.000000 0.001397 0.000000
# 2 -0.005614 0.015070 -0.000487 0.000000 0.009081 0.000000
# 3 -0.003903 -0.000487 0.013830 0.000000 0.008914 0.000000
# 4 0.000000 0.000000 0.000000 0.046419 0.000000 0.032320
# 5 0.001397 0.009081 0.008914 0.000000 0.054287 0.000000
# 6 0.000000 0.000000 0.000000 0.032320 0.000000 0.081680
#
#
# Mechanical properties :
#
#
# Convention : Reuss Voigt Hill
#
# Bulk Modulus (GPa) = 40.71148 56.74515 48.72831
# Shear Modulus (GPa) = 19.59636 26.16126 22.87881
#
# Velocity S-wave (km/s) = 3.31103 3.82565 3.57760
# Velocity P-wave (km/s) = 6.11496 7.15957 6.65778
#
# Compressibility (1/GPa) = 0.02456310
#
# Stress axis : x y z
#
# Youngs Moduli (GPa) = 63.81495 66.35778 72.30853
#
# Poissons Ratio (x) = 0.37250 0.28224
# Poissons Ratio (y) = 0.35823 0.03518
# Poissons Ratio (z) = 0.24909 0.03228
#
# Static dielectric constant tensor:
#      x y z
#    x 1.582810 0.000000 -0.018290 
#    y 0.000000 1.320670 0.000000 
#    z -0.018290 0.000000 1.610550 
# 
# From -- ./inp_files/79794.got.cif
#   From: 2010.05.17/outbox.cif.g08.bks.cpg/sg15_40_cif.got.tgz:79794.got - 2010.06.03 18:47:42.
