data_PCOD9280191
_publ_section_title
;
Structure prediction by ZEFSAII (Michael W. Deem and Ramdas Pophale) SiO2 
 PCOD9280191
Probable space group: C 2/C
;
_chemical_formula_sum "Si O2"
_cell_formula_units_Z 64
_cell_length_a 14.524924
_cell_length_b 27.715878
_cell_length_c 9.231815
_cell_angle_alpha 90.000000
_cell_angle_beta 108.568557
_cell_angle_gamma 90.000000
_cell_volume 3522.994516
_symmetry_space_group_name_H-M "C 2/C"
_symmetry_group_IT_number 15
_symmetry_cell_setting 'monoclinic'
loop_
_space_group_symop_operation_xyz
x,y,z
-x,y,1/2-z
-x,-y,-z
x,-y,1/2+z
1/2+x,1/2+y,z
1/2-x,1/2+y,1/2-z
1/2-x,1/2-y,-z
1/2+x,1/2-y,1/2+z
loop_
_atom_site_type_symbol
_atom_site_label
_atom_site_fract_x
_atom_site_fract_y
_atom_site_fract_z
Si Si1 0.097614 0.313120 0.010847
Si Si2 0.294878 0.858582 0.191423
Si Si3 0.897177 0.549307 0.622164
Si Si4 0.797455 0.649935 0.194371
Si Si5 0.606000 0.304842 0.123733
Si Si6 0.878244 0.701436 0.495450
Si Si7 0.896732 0.448947 0.773758
Si Si8 0.382920 0.703513 0.526481
O O1 0.163230 0.352502 0.126213
O O2 0.115220 0.325181 0.852219
O O3 0.131353 0.257432 0.044090
O O4 0.987022 0.315054 0.007732
O O5 0.325338 0.907851 0.130799
O O6 0.181322 0.847058 0.127857
O O7 0.352626 0.814824 0.142562
O O8 0.867507 0.498707 0.680683
O O9 0.908662 0.545160 0.453961
O O10 0.000000 0.561586 0.750000
O O11 0.804868 0.671832 0.357681
O O12 0.820146 0.593553 0.209623
O O13 0.698501 0.667748 0.072400
O O14 0.630689 0.257659 0.042251
O O15 0.621149 0.292409 0.301183
O O16 0.491857 0.313946 0.044973
O O17 0.000000 0.435814 0.750000
#
# Coordination Sequence:
#
# PCOD9280191 Si02
#       8
#     8   8   8   8   8   8   8   8
#     4  11  21  34  57  84 115 157 189 231 273 342
#     4  12  23  36  56  83 118 152 190 230 286 335
#     4  11  24  40  59  87 119 147 186 231 285 347
#     4  12  21  35  59  83 112 154 194 227 279 337
#     4  10  21  37  56  80 114 153 195 242 273 324
#     4  11  21  35  52  86 121 147 186 232 282 339
#     4  11  24  39  61  87 116 149 185 233 285 342
#     4  10  21  37  56  82 111 151 204 235 273 327
#
# _framework density 18.166361999999999
#
# number of rings (size 3 to 8) (size 9 to 14) (size 15 to 20)
#    0.000    1.000    3.750    5.250    3.500    0.000 
#    0.000    1.875    0.000    0.750    0.000    0.000 
#    0.000    0.000    0.000    0.000    0.000    0.000 
#
# Total GULP energy -178766.873407 kJ/mol
# GULP energy per Si atom -5586.464794 kJ/mol
# Density = 1.812501 g / cm^3
# Si number density = 18.166362 Si / 1000 Ang^3
#
#
#
# Elastic Constant Matrix: (Units=GPa)
#
#
# Indices 1 2 3 4 5 6 
#
# 1 66.5413 40.4888 22.3298 0.0000 3.6229 0.0000
# 2 40.4888 87.7435 34.9514 0.0000 3.0010 0.0000
# 3 22.3298 34.9514 77.1794 0.0000 -2.9907 0.0000
# 4 0.0000 0.0000 0.0000 22.6600 0.0000 -2.4829
# 5 3.6229 3.0010 -2.9907 0.0000 24.0383 0.0000
# 6 0.0000 0.0000 0.0000 -2.4829 0.0000 26.1438
#
#
#
# Elastic Compliance Matrix: (Units=1/GPa)
#
#
# Indices 1 2 3 4 5 6 
#
# 1 0.021298 -0.008852 -0.002246 0.000000 -0.002384 0.000000
# 2 -0.008852 0.017739 -0.005533 0.000000 -0.001569 0.000000
# 3 -0.002246 -0.005533 0.016230 0.000000 0.003049 0.000000
# 4 0.000000 0.000000 0.000000 0.044595 0.000000 0.004235
# 5 -0.002384 -0.001569 0.003049 0.000000 0.042535 0.000000
# 6 0.000000 0.000000 0.000000 0.004235 0.000000 0.038652
#
#
# Mechanical properties :
#
#
# Convention : Reuss Voigt Hill
#
# Bulk Modulus (GPa) = 45.44174 47.44492 46.44333
# Shear Modulus (GPa) = 22.55856 23.48136 23.01996
#
# Velocity S-wave (km/s) = 3.52771 3.59914 3.56360
# Velocity P-wave (km/s) = 6.45457 6.59131 6.52330
#
# Compressibility (1/GPa) = 0.02200620
#
# Stress axis : x y z
#
# Youngs Moduli (GPa) = 46.95343 56.37272 61.61265
#
# Poissons Ratio (x) = 0.49899 0.13837
# Poissons Ratio (y) = 0.41561 0.34091
# Poissons Ratio (z) = 0.10545 0.31192
#
# Static dielectric constant tensor:
#      x y z
#    x 1.627570 0.000000 -0.005700 
#    y 0.000000 1.613040 0.000000 
#    z -0.005700 0.000000 1.633850 
# 
# From -- ./inp_files/43505.got.cif
#   From: 2010.05.17/outbox.cif.g08.bks.cpg/sg15_22_cif.got.tgz:43505.got - 2010.06.03 18:47:42.
