data_PCOD9280046
_publ_section_title
;
Structure prediction by ZEFSAII (Michael W. Deem and Ramdas Pophale) SiO2 
 PCOD9280046
Probable space group: C 2/C
;
_chemical_formula_sum "Si O2"
_cell_formula_units_Z 56
_cell_length_a 11.400663
_cell_length_b 19.184892
_cell_length_c 11.668072
_cell_angle_alpha 90.000000
_cell_angle_beta 84.989904
_cell_angle_gamma 90.000000
_cell_volume 2542.295867
_symmetry_space_group_name_H-M "C 2/C"
_symmetry_group_IT_number 15
_symmetry_cell_setting 'monoclinic'
loop_
_space_group_symop_operation_xyz
x,y,z
-x,y,1/2-z
-x,-y,-z
x,-y,1/2+z
1/2+x,1/2+y,z
1/2-x,1/2+y,1/2-z
1/2-x,1/2-y,-z
1/2+x,1/2-y,1/2+z
loop_
_atom_site_type_symbol
_atom_site_label
_atom_site_fract_x
_atom_site_fract_y
_atom_site_fract_z
Si Si1 0.000000 0.537924 0.250000
Si Si2 0.336185 0.078344 0.863861
Si Si3 0.135086 0.039322 0.714163
Si Si4 0.938100 0.273893 0.000350
Si Si5 0.134607 0.120315 0.251760
Si Si6 0.000000 0.694417 0.750000
Si Si7 0.791234 0.137404 0.995727
Si Si8 0.648712 0.856018 0.889610
O O1 0.924801 0.486894 0.338794
O O2 0.912398 0.588032 0.188812
O O3 0.213788 0.058601 0.816712
O O4 0.392231 0.142801 0.789373
O O5 0.327864 0.104308 0.993666
O O6 0.185519 0.079041 0.600062
O O7 0.000000 0.057762 0.750000
O O8 0.142591 0.956501 0.696198
O O9 0.843412 0.336326 0.993722
O O10 0.966625 0.268768 0.133341
O O11 0.873413 0.204650 0.962947
O O12 0.056066 0.294843 0.923696
O O13 0.172034 0.114371 0.380523
O O14 0.229659 0.167845 0.178645
O O15 0.000000 0.141384 0.250000
#
# Coordination Sequence:
#
# PCOD9280046 Si02
#       8
#     4   8   8   8   8   4   8   8
#     4  11  20  36  64 104 140 179 216 294 346 397
#     4  10  21  36  64 102 138 174 224 290 340 404
#     4  11  25  43  67  98 137 191 229 282 343 414
#     4  10  23  44  72 100 139 185 225 290 335 420
#     4  11  27  43  68 100 141 183 226 291 343 413
#     4   9  18  40  66 100 136 171 232 276 358 385
#     4  11  25  48  68 100 143 186 230 278 354 403
#     4  11  23  40  67 104 136 179 234 275 344 413
#
# _framework density 22.027334
#
# number of rings (size 3 to 8) (size 9 to 14) (size 15 to 20)
#    0.000    1.429    2.857    1.286    5.000    1.143 
#    6.429    0.714    0.000    0.000    0.000    0.000 
#    0.000    0.000    0.000    0.000    0.000    0.000 
#
# Total GULP energy -156752.947941 kJ/mol
# GULP energy per Si atom -5598.319569 kJ/mol
# Density = 2.197720 g / cm^3
# Si number density = 22.027334 Si / 1000 Ang^3
#
#
#
# Elastic Constant Matrix: (Units=GPa)
#
#
# Indices 1 2 3 4 5 6 
#
# 1 157.1393 21.0594 36.6298 0.0000 -6.1421 0.0000
# 2 21.0594 65.1157 16.3239 0.0000 -7.2912 0.0000
# 3 36.6298 16.3239 79.5458 0.0000 -6.9018 0.0000
# 4 0.0000 0.0000 0.0000 -1.9643 0.0000 0.1199
# 5 -6.1421 -7.2912 -6.9018 0.0000 33.2088 0.0000
# 6 0.0000 0.0000 0.0000 0.1199 0.0000 15.7635
#
#
#
# Elastic Compliance Matrix: (Units=1/GPa)
#
#
# Indices 1 2 3 4 5 6 
#
# 1 0.007288 -0.001562 -0.003002 0.000000 0.000381 0.000000
# 2 -0.001562 0.016807 -0.002480 0.000000 0.002886 0.000000
# 3 -0.003002 -0.002480 0.014631 0.000000 0.001941 0.000000
# 4 0.000000 0.000000 0.000000 -0.508850 0.000000 0.003871
# 5 0.000381 0.002886 0.001941 0.000000 0.031220 0.000000
# 6 0.000000 0.000000 0.000000 0.003871 0.000000 0.063408
#
#
# Mechanical properties :
#
#
# Convention : Reuss Voigt Hill
#
# Bulk Modulus (GPa) = 40.58621 49.98080 45.28350
# Shear Modulus (GPa) = -14.15648 24.58746 5.21549
#
# Velocity S-wave (km/s) = -2.53786 3.34462 1.54041
# Velocity P-wave (km/s) = 3.14289 6.13636 4.87507
#
# Compressibility (1/GPa) = 0.02463891
#
# Stress axis : x y z
#
# Youngs Moduli (GPa) = 137.21488 59.49870 68.34707
#
# Poissons Ratio (x) = 0.09292 0.20521
# Poissons Ratio (y) = 0.21428 0.16947
# Poissons Ratio (z) = 0.41198 0.14753
#
# Static dielectric constant tensor:
#      x y z
#    x 1.812440 0.000000 -0.017230 
#    y 0.000000 1.811260 0.000000 
#    z -0.017230 0.000000 1.767860 
# 
# From -- ./inp_files/89005.got.cif
#   From: 2010.05.17/outbox.cif.g08.bks.cpg/sg15_45_cif.got.tgz:89005.got - 2010.06.03 18:47:42.
