data_PCOD9280989
_publ_section_title
;
Structure prediction by ZEFSAII (Michael W. Deem and Ramdas Pophale) SiO2 
 PCOD9280989
Probable space group: C 2/C
;
_chemical_formula_sum "Si O2"
_cell_formula_units_Z 56
_cell_length_a 27.577097
_cell_length_b 18.619467
_cell_length_c 7.974785
_cell_angle_alpha 90.000000
_cell_angle_beta 140.790491
_cell_angle_gamma 90.000000
_cell_volume 2588.572593
_symmetry_space_group_name_H-M "C 2/C"
_symmetry_group_IT_number 15
_symmetry_cell_setting 'monoclinic'
loop_
_space_group_symop_operation_xyz
x,y,z
-x,y,1/2-z
-x,-y,-z
x,-y,1/2+z
1/2+x,1/2+y,z
1/2-x,1/2+y,1/2-z
1/2-x,1/2-y,-z
1/2+x,1/2-y,1/2+z
loop_
_atom_site_type_symbol
_atom_site_label
_atom_site_fract_x
_atom_site_fract_y
_atom_site_fract_z
Si Si1 0.210064 0.480114 0.506105
Si Si2 0.779566 0.618688 0.130545
Si Si3 0.391912 0.392012 0.290060
Si Si4 0.577894 0.800737 0.356905
Si Si5 0.122093 0.956864 0.617748
Si Si6 0.545473 0.934868 0.033854
Si Si7 0.033553 0.174682 0.024691
O O1 0.210781 0.566929 0.504896
O O2 0.213286 0.436296 0.689648
O O3 0.286474 0.457701 0.609896
O O4 0.129749 0.460588 0.207378
O O5 0.845907 0.677468 0.334269
O O6 0.690735 0.643123 0.894377
O O7 0.404556 0.460916 0.441242
O O8 0.462099 0.338860 0.457130
O O9 0.388066 0.428795 0.096877
O O10 0.500000 0.789435 0.250000
O O11 0.557857 0.870773 0.194319
O O12 0.587122 0.733986 0.254255
O O13 0.077312 0.900732 0.613104
O O14 0.500000 0.910601 0.750000
O O15 0.500000 0.000000 0.000000
O O16 0.000000 0.195859 0.750000
#
# Coordination Sequence:
#
# PCOD9280989 Si02
#       7
#     8   8   8   8   8   8   8
#     4   9  17  31  52  79 104 131 170 216 264 312
#     4   9  18  34  54  79 106 133 170 220 267 314
#     4   9  18  34  58  83 106 134 173 218 266 319
#     4  11  23  37  52  74 107 146 183 221 266 317
#     4   9  18  33  56  82 107 134 170 219 271 319
#     4  11  20  33  54  79 105 141 183 225 266 310
#     4  10  21  38  54  76 109 143 177 217 265 323
#
# _framework density 21.633545000000002
#
# number of rings (size 3 to 8) (size 9 to 14) (size 15 to 20)
#    0.000    2.286    0.000    3.857    0.000    1.143 
#    0.000   13.571    0.000    0.000    0.000    0.000 
#    0.000    0.000    0.000    0.000    0.000    0.000 
#
# Total GULP energy -156292.201835 kJ/mol
# GULP energy per Si atom -5581.864351 kJ/mol
# Density = 2.158431 g / cm^3
# Si number density = 21.633545 Si / 1000 Ang^3
#
#
#
# Elastic Constant Matrix: (Units=GPa)
#
#
# Indices 1 2 3 4 5 6 
#
# 1 68.1830 23.2055 29.8670 0.0000 20.1743 0.0000
# 2 23.2055 73.9355 33.5193 0.0000 8.7343 0.0000
# 3 29.8670 33.5193 72.5274 0.0000 21.6072 0.0000
# 4 0.0000 0.0000 0.0000 39.8918 0.0000 -5.0626
# 5 20.1743 8.7343 21.6072 0.0000 26.4823 0.0000
# 6 0.0000 0.0000 0.0000 -5.0626 0.0000 12.4875
#
#
#
# Elastic Compliance Matrix: (Units=1/GPa)
#
#
# Indices 1 2 3 4 5 6 
#
# 1 0.020925 -0.003623 -0.003368 0.000000 -0.011997 0.000000
# 2 -0.003623 0.017761 -0.007654 0.000000 0.003147 0.000000
# 3 -0.003368 -0.007654 0.022718 0.000000 -0.013446 0.000000
# 4 0.000000 0.000000 0.000000 0.026427 0.000000 0.010714
# 5 -0.011997 0.003147 -0.013446 0.000000 0.056833 0.000000
# 6 0.000000 0.000000 0.000000 0.010714 0.000000 0.084423
#
#
# Mechanical properties :
#
#
# Convention : Reuss Voigt Hill
#
# Bulk Modulus (GPa) = 31.14008 43.09214 37.11611
# Shear Modulus (GPa) = 18.58171 24.30928 21.44549
#
# Velocity S-wave (km/s) = 2.93393 3.35578 3.15192
# Velocity P-wave (km/s) = 5.08949 5.91417 5.51726
#
# Compressibility (1/GPa) = 0.03211296
#
# Stress axis : x y z
#
# Youngs Moduli (GPa) = 47.79024 56.30431 44.01818
#
# Poissons Ratio (x) = 0.20400 0.14826
# Poissons Ratio (y) = 0.17315 0.33691
# Poissons Ratio (z) = 0.16096 0.43095
#
# Static dielectric constant tensor:
#      x y z
#    x 1.802380 0.000000 -0.007250 
#    y 0.000000 1.838330 0.000000 
#    z -0.007250 0.000000 1.825190 
# 
# From -- ./inp_files/49037.got.cif
#   From: 2010.05.17/outbox.cif.g08.bks.cpg/sg15_25_cif.got.tgz:49037.got - 2010.06.03 18:47:42.
