data_PCOD9280333
_publ_section_title
;
Structure prediction by ZEFSAII (Michael W. Deem and Ramdas Pophale) SiO2 
 PCOD9280333
Probable space group: C 2/C
;
_chemical_formula_sum "Si O2"
_cell_formula_units_Z 56
_cell_length_a 14.133673
_cell_length_b 29.124401
_cell_length_c 14.005998
_cell_angle_alpha 90.000000
_cell_angle_beta 149.553209
_cell_angle_gamma 90.000000
_cell_volume 2921.524624
_symmetry_space_group_name_H-M "C 2/C"
_symmetry_group_IT_number 15
_symmetry_cell_setting 'monoclinic'
loop_
_space_group_symop_operation_xyz
x,y,z
-x,y,1/2-z
-x,-y,-z
x,-y,1/2+z
1/2+x,1/2+y,z
1/2-x,1/2+y,1/2-z
1/2-x,1/2-y,-z
1/2+x,1/2-y,1/2+z
loop_
_atom_site_type_symbol
_atom_site_label
_atom_site_fract_x
_atom_site_fract_y
_atom_site_fract_z
Si Si1 0.018623 0.189924 0.651939
Si Si2 0.231131 0.503656 0.349316
Si Si3 0.625535 0.467222 0.725885
Si Si4 0.101830 0.296059 0.735989
Si Si5 0.544798 0.077869 0.897403
Si Si6 0.866433 0.367140 0.415030
Si Si7 0.207106 0.059931 0.911891
O O1 0.812830 0.187685 0.430599
O O2 0.000000 0.183135 0.750000
O O3 0.093579 0.242010 0.705590
O O4 0.160281 0.154520 0.727330
O O5 0.401436 0.467963 0.521209
O O6 0.288551 0.531149 0.304977
O O7 0.218441 0.538782 0.425317
O O8 0.050566 0.472629 0.176339
O O9 0.666254 0.516901 0.807441
O O10 0.737978 0.430262 0.886194
O O11 0.000000 0.301300 0.750000
O O12 0.995043 0.326629 0.566694
O O13 0.500000 0.092343 0.750000
O O14 0.448045 0.110216 0.891157
O O15 0.843435 0.405599 0.477251
O O16 0.000000 0.080572 0.750000
#
# Coordination Sequence:
#
# PCOD9280333 Si02
#       7
#     8   8   8   8   8   8   8
#     4  11  20  42  65  94 133 162 193 238 319 389
#     4  10  21  39  60  80 120 170 211 265 306 360
#     4  10  21  40  57  82 117 173 213 246 321 358
#     4  11  21  39  67  95 130 168 187 240 316 393
#     4  12  25  41  61  83 121 171 219 266 304 361
#     4  12  25  38  59  99 126 159 217 257 304 373
#     4  10  21  37  58  89 126 162 211 257 300 363
#
# _framework density 19.168074000000001
#
# number of rings (size 3 to 8) (size 9 to 14) (size 15 to 20)
#    0.000    1.143    5.714    1.714    0.000    2.286 
#    0.000    0.000    0.000    0.857    0.000    0.000 
#    0.000    0.000    0.000    0.000    0.000    0.000 
#
# Total GULP energy -156594.143367 kJ/mol
# GULP energy per Si atom -5592.647977 kJ/mol
# Density = 1.912445 g / cm^3
# Si number density = 19.168074 Si / 1000 Ang^3
#
#
#
# Elastic Constant Matrix: (Units=GPa)
#
#
# Indices 1 2 3 4 5 6 
#
# 1 100.4355 29.9695 20.9410 0.0000 -15.8425 0.0000
# 2 29.9695 55.0364 1.6723 0.0000 -4.9172 0.0000
# 3 20.9410 1.6723 88.8786 0.0000 12.7558 0.0000
# 4 0.0000 0.0000 0.0000 95.0048 0.0000 4.7984
# 5 -15.8425 -4.9172 12.7558 0.0000 29.7983 0.0000
# 6 0.0000 0.0000 0.0000 4.7984 0.0000 19.1084
#
#
#
# Elastic Compliance Matrix: (Units=1/GPa)
#
#
# Indices 1 2 3 4 5 6 
#
# 1 0.014246 -0.006878 -0.004423 0.000000 0.008332 0.000000
# 2 -0.006878 0.021821 0.001298 0.000000 -0.000612 0.000000
# 3 -0.004423 0.001298 0.013399 0.000000 -0.007873 0.000000
# 4 0.000000 0.000000 0.000000 0.010661 0.000000 -0.002677
# 5 0.008332 -0.000612 -0.007873 0.000000 0.041258 0.000000
# 6 0.000000 0.000000 0.000000 -0.002677 0.000000 0.053005
#
#
# Mechanical properties :
#
#
# Convention : Reuss Voigt Hill
#
# Bulk Modulus (GPa) = 33.94561 38.83513 36.39037
# Shear Modulus (GPa) = 27.14199 41.56683 34.35441
#
# Velocity S-wave (km/s) = 3.76706 4.66182 4.23812
# Velocity P-wave (km/s) = 6.05548 7.02004 6.55553
#
# Compressibility (1/GPa) = 0.02945889
#
# Stress axis : x y z
#
# Youngs Moduli (GPa) = 70.19708 45.82677 74.63309
#
# Poissons Ratio (x) = 0.31522 0.33009
# Poissons Ratio (y) = 0.48285 -0.09687
# Poissons Ratio (z) = 0.31047 -0.05948
#
# Static dielectric constant tensor:
#      x y z
#    x 1.681600 0.000000 0.020990 
#    y 0.000000 1.654510 0.000000 
#    z 0.020990 0.000000 1.723250 
# 
# From -- ./inp_files/157468.got.cif
#   From: 2010.05.17/outbox.cif.g08.bks.cpg/sg15_79_cif.got.tgz:157468.got - 2010.06.03 18:47:42.
