data_PCOD9280628
_publ_section_title
;
Structure prediction by ZEFSAII (Michael W. Deem and Ramdas Pophale) SiO2 
 PCOD9280628
Probable space group: C 2/C
;
_chemical_formula_sum "Si O2"
_cell_formula_units_Z 64
_cell_length_a 18.774860
_cell_length_b 32.243296
_cell_length_c 9.673448
_cell_angle_alpha 90.000000
_cell_angle_beta 32.719374
_cell_angle_gamma 90.000000
_cell_volume 3165.287001
_symmetry_space_group_name_H-M "C 2/C"
_symmetry_group_IT_number 15
_symmetry_cell_setting 'monoclinic'
loop_
_space_group_symop_operation_xyz
x,y,z
-x,y,1/2-z
-x,-y,-z
x,-y,1/2+z
1/2+x,1/2+y,z
1/2-x,1/2+y,1/2-z
1/2-x,1/2-y,-z
1/2+x,1/2-y,1/2+z
loop_
_atom_site_type_symbol
_atom_site_label
_atom_site_fract_x
_atom_site_fract_y
_atom_site_fract_z
Si Si1 0.809026 0.638563 0.782042
Si Si2 0.142602 0.105662 0.579525
Si Si3 0.042545 0.225888 0.521165
Si Si4 0.284873 0.837180 0.637019
Si Si5 0.143591 0.982621 0.222108
Si Si6 0.543913 0.812727 0.893937
Si Si7 0.662332 0.552259 0.983528
Si Si8 0.800709 0.176992 0.797724
O O1 0.741239 0.594382 0.874499
O O2 0.723135 0.668273 0.823306
O O3 0.959855 0.646794 0.489214
O O4 0.814345 0.649248 0.934482
O O5 0.238954 0.122952 0.303448
O O6 0.142763 0.057768 0.624350
O O7 0.168859 0.133818 0.671502
O O8 0.000000 0.115344 0.750000
O O9 0.052137 0.273338 0.458469
O O10 0.923260 0.206247 0.628578
O O11 0.000000 0.225875 0.750000
O O12 0.169427 0.196817 0.310169
O O13 0.397247 0.817500 0.549314
O O14 0.201078 0.967949 0.273767
O O15 0.000000 0.000000 0.500000
O O16 0.200710 0.020582 0.042329
O O17 0.667927 0.806442 0.588944
O O18 0.500000 0.558399 0.250000
#
# Coordination Sequence:
#
# PCOD9280628 Si02
#       8
#     8   8   8   8   8   8   8   8
#     4  12  26  42  64  98 137 174 218 266 338 400
#     4  11  19  38  64  94 132 167 217 259 332 389
#     4  12  22  43  71  97 126 169 236 282 328 388
#     4  11  26  42  65  97 134 179 216 273 337 393
#     4  10  21  37  61  98 139 169 206 275 332 391
#     4  11  26  46  67  91 129 182 225 271 330 400
#     4  10  23  38  64 102 136 168 215 269 333 394
#     4  11  22  42  68  96 125 171 226 279 324 388
#
# _framework density 20.219335999999998
#
# number of rings (size 3 to 8) (size 9 to 14) (size 15 to 20)
#    0.000    1.000    5.000    3.000    8.750    0.500 
#    2.250    0.000    0.000    3.000    0.000    0.000 
#    0.000    0.000    0.000    0.000    0.000    0.000 
#
# Total GULP energy -178677.570277 kJ/mol
# GULP energy per Si atom -5583.674071 kJ/mol
# Density = 2.017332 g / cm^3
# Si number density = 20.219336 Si / 1000 Ang^3
#
#
#
# Elastic Constant Matrix: (Units=GPa)
#
#
# Indices 1 2 3 4 5 6 
#
# 1 100.3117 50.1333 34.1071 0.0000 14.0159 0.0001
# 2 50.1333 123.5956 39.9543 0.0000 -5.4124 0.0000
# 3 34.1071 39.9543 43.6595 0.0000 5.7751 0.0001
# 4 0.0000 0.0000 0.0000 49.4161 0.0000 -137.2559
# 5 14.0159 -5.4124 5.7751 0.0000 37.4308 -0.0001
# 6 0.0001 0.0000 0.0001 -137.2559 -0.0001 592.5426
#
#
#
# Elastic Compliance Matrix: (Units=1/GPa)
#
#
# Indices 1 2 3 4 5 6 
#
# 1 0.015245 -0.003941 -0.007628 0.000000 -0.005101 0.000000
# 2 -0.003941 0.012936 -0.009394 0.000000 0.004796 0.000000
# 3 -0.007628 -0.009394 0.038038 0.000000 -0.004371 0.000000
# 4 0.000000 0.000000 0.000000 0.056746 0.000000 0.013145
# 5 -0.005101 0.004796 -0.004371 0.000000 0.029994 0.000000
# 6 0.000000 0.000000 0.000000 0.013145 0.000000 0.004732
#
#
# Mechanical properties :
#
#
# Convention : Reuss Voigt Hill
#
# Bulk Modulus (GPa) = 41.16319 57.32847 49.24583
# Shear Modulus (GPa) = 24.07129 145.43604 84.75366
#
# Velocity S-wave (km/s) = 3.45412 8.49031 6.48137
# Velocity P-wave (km/s) = 6.02581 11.15924 8.96769
#
# Compressibility (1/GPa) = 0.02429355
#
# Stress axis : x y z
#
# Youngs Moduli (GPa) = 65.59503 77.30168 26.28928
#
# Poissons Ratio (x) = 0.30467 0.20053
# Poissons Ratio (y) = 0.25853 0.24696
# Poissons Ratio (z) = 0.50035 0.72616
#
# Static dielectric constant tensor:
#      x y z
#    x 1.709420 0.000000 0.006910 
#    y 0.000000 1.740880 0.000000 
#    z 0.006910 0.000000 1.744120 
# 
# From -- ./inp_files/52823.got.cif
#   From: 2010.05.17/outbox.cif.g08.bks.cpg/sg15_27_cif.got.tgz:52823.got - 2010.06.03 18:47:42.
