data_PCOD9280831
_publ_section_title
;
Structure prediction by ZEFSAII (Michael W. Deem and Ramdas Pophale) SiO2 
 PCOD9280831
Probable space group: C 2/C
;
_chemical_formula_sum "Si O2"
_cell_formula_units_Z 64
_cell_length_a 25.799392
_cell_length_b 7.099057
_cell_length_c 14.293203
_cell_angle_alpha 90.000000
_cell_angle_beta 104.601929
_cell_angle_gamma 90.000000
_cell_volume 2533.265707
_symmetry_space_group_name_H-M "C 2/C"
_symmetry_group_IT_number 15
_symmetry_cell_setting 'monoclinic'
loop_
_space_group_symop_operation_xyz
x,y,z
-x,y,1/2-z
-x,-y,-z
x,-y,1/2+z
1/2+x,1/2+y,z
1/2-x,1/2+y,1/2-z
1/2-x,1/2-y,-z
1/2+x,1/2-y,1/2+z
loop_
_atom_site_type_symbol
_atom_site_label
_atom_site_fract_x
_atom_site_fract_y
_atom_site_fract_z
Si Si1 0.971620 0.733524 0.917045
Si Si2 0.315748 0.416652 0.337967
Si Si3 0.752228 0.527819 0.530594
Si Si4 0.958048 0.623200 0.310260
Si Si5 0.717007 0.016184 0.656719
Si Si6 0.099032 0.061641 0.262465
Si Si7 0.537773 0.569936 0.907697
Si Si8 0.349753 0.926063 0.209092
O O1 0.968729 0.511839 0.903528
O O2 0.943913 0.807521 0.809511
O O3 0.025928 0.857800 0.937683
O O4 0.942249 0.806966 0.996481
O O5 0.300866 0.508592 0.431338
O O6 0.307169 0.194508 0.352146
O O7 0.269826 0.477181 0.243931
O O8 0.369498 0.456454 0.305855
O O9 0.750000 0.750000 0.500000
O O10 0.765347 0.427037 0.438929
O O11 0.801958 0.495035 0.624053
O O12 0.982003 0.825994 0.351832
O O13 0.899104 0.568920 0.245939
O O14 0.000000 0.561318 0.250000
O O15 0.672917 0.126358 0.697565
O O16 0.135091 0.224081 0.326900
O O17 0.074984 0.938026 0.334568
#
# Coordination Sequence:
#
# PCOD9280831 Si02
#       8
#     8   8   8   8   8   8   8   8
#     4  10  23  43  63  97 131 183 230 291 344 417
#     4  10  21  37  64  94 132 173 220 279 345 422
#     4   9  19  40  66  96 131 176 226 276 350 428
#     4  11  23  43  68  93 142 181 233 296 351 416
#     4  10  21  40  64  93 131 174 219 280 348 417
#     4  11  22  41  64  95 134 176 227 288 355 416
#     4  11  24  42  68  95 135 183 236 282 356 419
#     4  10  23  42  64  99 132 179 226 292 355 422
#
# _framework density 25.263833000000002
#
# number of rings (size 3 to 8) (size 9 to 14) (size 15 to 20)
#    0.000    1.750    0.000    5.250    3.500    3.000 
#    9.000    5.625    0.000    0.000    0.000    0.000 
#    0.000    0.000    0.000    0.000    0.000    0.000 
#
# Total GULP energy -178790.754192 kJ/mol
# GULP energy per Si atom -5587.211069 kJ/mol
# Density = 2.520633 g / cm^3
# Si number density = 25.263833 Si / 1000 Ang^3
#
#
#
# Elastic Constant Matrix: (Units=GPa)
#
#
# Indices 1 2 3 4 5 6 
#
# 1 126.2442 23.1081 46.5871 0.0000 -38.5079 0.0000
# 2 23.1081 104.9066 1.5735 0.0000 -16.2436 0.0000
# 3 46.5871 1.5735 137.4595 0.0000 -40.5717 0.0000
# 4 0.0000 0.0000 0.0000 38.1782 0.0000 -7.4963
# 5 -38.5079 -16.2436 -40.5717 0.0000 47.6614 0.0000
# 6 0.0000 0.0000 0.0000 -7.4963 0.0000 34.3011
#
#
#
# Elastic Compliance Matrix: (Units=1/GPa)
#
#
# Indices 1 2 3 4 5 6 
#
# 1 0.010882 -0.001292 -0.001614 0.000000 0.006978 0.000000
# 2 -0.001292 0.010367 0.001408 0.000000 0.003687 0.000000
# 3 -0.001614 0.001408 0.010100 0.000000 0.007774 0.000000
# 4 0.000000 0.000000 0.000000 0.027367 0.000000 0.005981
# 5 0.006978 0.003687 0.007774 0.000000 0.034493 0.000000
# 6 0.000000 0.000000 0.000000 0.005981 0.000000 0.030461
#
#
# Mechanical properties :
#
#
# Convention : Reuss Voigt Hill
#
# Bulk Modulus (GPa) = 35.27118 56.79418 46.03268
# Shear Modulus (GPa) = 36.73321 43.85091 40.29206
#
# Velocity S-wave (km/s) = 3.81725 4.17072 3.99789
# Velocity P-wave (km/s) = 5.78100 6.76183 6.29056
#
# Compressibility (1/GPa) = 0.02835176
#
# Stress axis : x y z
#
# Youngs Moduli (GPa) = 91.89859 96.46217 99.00918
#
# Poissons Ratio (x) = 0.12466 0.15977
# Poissons Ratio (y) = 0.11876 -0.13937
# Poissons Ratio (z) = 0.14829 -0.13578
#
# Static dielectric constant tensor:
#      x y z
#    x 2.065720 0.000000 0.021040 
#    y 0.000000 2.134130 0.000000 
#    z 0.021040 0.000000 1.992640 
# 
# From -- ./inp_files/180544.got.cif
#   From: 2010.05.17/outbox.cif.g08.bks.cpg/sg15_91_cif.got.tgz:180544.got - 2010.06.03 18:47:42.
