data_PCOD9280468
_publ_section_title
;
Structure prediction by ZEFSAII (Michael W. Deem and Ramdas Pophale) SiO2 
 PCOD9280468
Probable space group: C 2/C
;
_chemical_formula_sum "Si O2"
_cell_formula_units_Z 60
_cell_length_a 21.765914
_cell_length_b 12.718675
_cell_length_c 12.416980
_cell_angle_alpha 90.000000
_cell_angle_beta 57.316158
_cell_angle_gamma 90.000000
_cell_volume 2893.163975
_symmetry_space_group_name_H-M "C 2/C"
_symmetry_group_IT_number 15
_symmetry_cell_setting 'monoclinic'
loop_
_space_group_symop_operation_xyz
x,y,z
-x,y,1/2-z
-x,-y,-z
x,-y,1/2+z
1/2+x,1/2+y,z
1/2-x,1/2+y,1/2-z
1/2-x,1/2-y,-z
1/2+x,1/2-y,1/2+z
loop_
_atom_site_type_symbol
_atom_site_label
_atom_site_fract_x
_atom_site_fract_y
_atom_site_fract_z
Si Si1 0.616296 0.617409 0.771331
Si Si2 0.213361 0.923205 0.715229
Si Si3 0.327187 0.157029 0.274028
Si Si4 0.334276 0.750699 0.384504
Si Si5 0.544630 0.313275 0.554408
Si Si6 0.000000 0.997575 0.750000
Si Si7 0.343117 0.026624 0.922790
Si Si8 0.455592 0.909182 0.485772
O O1 0.667347 0.528086 0.774893
O O2 0.663450 0.721584 0.701972
O O3 0.569553 0.568924 0.717125
O O4 0.561977 0.653190 0.917072
O O5 0.253809 0.872986 0.778986
O O6 0.161011 0.835602 0.712172
O O7 0.275897 0.954083 0.568583
O O8 0.334479 0.080036 0.367598
O O9 0.392341 0.129136 0.128340
O O10 0.250000 0.750000 0.500000
O O11 0.384518 0.717256 0.438359
O O12 0.346749 0.871589 0.341541
O O13 0.511798 0.415441 0.641678
O O14 0.504808 0.199542 0.587511
O O15 0.416227 0.036907 0.922253
O O16 0.500000 0.000000 0.500000
#
# Coordination Sequence:
#
# PCOD9280468 Si02
#       8
#     8   8   8   8   8   4   8   8
#     4  11  24  41  60  87 126 163 202 249 314 361
#     4  10  21  37  60  89 116 157 202 251 306 367
#     4  10  23  37  59  89 121 161 198 255 316 364
#     4   9  17  35  62  84 113 150 196 252 299 349
#     4  10  22  40  60  90 118 158 209 246 298 363
#     4  12  24  42  62  88 122 166 212 248 294 370
#     4   9  20  36  59  89 118 151 203 250 307 361
#     4   9  20  39  59  86 123 157 204 253 299 366
#
# _framework density 20.738541000000001
#
# number of rings (size 3 to 8) (size 9 to 14) (size 15 to 20)
#    0.000    2.133    1.333    2.800    5.600    5.333 
#    0.000    0.000    0.000    0.000    0.000    0.000 
#    0.000    0.000    0.000    0.000    0.000    0.000 
#
# Total GULP energy -167382.346540 kJ/mol
# GULP energy per Si atom -5579.411551 kJ/mol
# Density = 2.069134 g / cm^3
# Si number density = 20.738541 Si / 1000 Ang^3
#
#
#
# Elastic Constant Matrix: (Units=GPa)
#
#
# Indices 1 2 3 4 5 6 
#
# 1 93.8287 86.8206 5.5246 0.0000 5.9044 0.0000
# 2 86.8206 170.6399 12.6873 0.0000 14.8246 0.0000
# 3 5.5246 12.6873 17.1889 0.0000 10.7372 0.0000
# 4 0.0000 0.0000 0.0000 26.3776 0.0000 4.7431
# 5 5.9044 14.8246 10.7372 0.0000 21.0047 0.0000
# 6 0.0000 0.0000 0.0000 4.7431 0.0000 40.3859
#
#
#
# Elastic Compliance Matrix: (Units=1/GPa)
#
#
# Indices 1 2 3 4 5 6 
#
# 1 0.020195 -0.010428 0.000228 0.000000 0.001567 0.000000
# 2 -0.010428 0.011716 -0.002882 0.000000 -0.003864 0.000000
# 3 0.000228 -0.002882 0.086678 0.000000 -0.042338 0.000000
# 4 0.000000 0.000000 0.000000 0.038729 0.000000 -0.004549
# 5 0.001567 -0.003864 -0.042338 0.000000 0.071537 0.000000
# 6 0.000000 0.000000 0.000000 -0.004549 0.000000 0.025295
#
#
# Mechanical properties :
#
#
# Convention : Reuss Voigt Hill
#
# Bulk Modulus (GPa) = 10.81978 54.63583 32.72780
# Shear Modulus (GPa) = 16.07078 29.32864 22.69971
#
# Velocity S-wave (km/s) = 2.78676 3.76468 3.31201
# Velocity P-wave (km/s) = 3.94757 6.73048 5.51736
#
# Compressibility (1/GPa) = 0.09242336
#
# Stress axis : x y z
#
# Youngs Moduli (GPa) = 49.51727 85.35281 11.53697
#
# Poissons Ratio (x) = 0.89007 -0.00263
# Poissons Ratio (y) = 0.51637 0.03325
# Poissons Ratio (z) = -0.01127 0.24601
#
# Static dielectric constant tensor:
#      x y z
#    x 1.863320 0.000000 -0.128740 
#    y 0.000000 1.763210 0.000000 
#    z -0.128740 0.000000 1.860140 
# 
# From -- ./inp_files/167595.got.cif
#   From: 2010.05.17/outbox.cif.g08.bks.cpg/sg15_84_cif.got.tgz:167595.got - 2010.06.03 18:47:42.
