data_PCOD9280949
_publ_section_title
;
Structure prediction by ZEFSAII (Michael W. Deem and Ramdas Pophale) SiO2 
 PCOD9280949
Probable space group: C 2/C
;
_chemical_formula_sum "Si O2"
_cell_formula_units_Z 52
_cell_length_a 7.085463
_cell_length_b 27.677668
_cell_length_c 12.180303
_cell_angle_alpha 90.000000
_cell_angle_beta 63.827176
_cell_angle_gamma 90.000000
_cell_volume 2143.752478
_symmetry_space_group_name_H-M "C 2/C"
_symmetry_group_IT_number 15
_symmetry_cell_setting 'monoclinic'
loop_
_space_group_symop_operation_xyz
x,y,z
-x,y,1/2-z
-x,-y,-z
x,-y,1/2+z
1/2+x,1/2+y,z
1/2-x,1/2+y,1/2-z
1/2-x,1/2-y,-z
1/2+x,1/2-y,1/2+z
loop_
_atom_site_type_symbol
_atom_site_label
_atom_site_fract_x
_atom_site_fract_y
_atom_site_fract_z
Si Si1 0.036143 0.759402 0.985210
Si Si2 0.757612 0.895266 0.266039
Si Si3 0.938241 0.555840 0.490384
Si Si4 0.034007 0.055482 0.969153
Si Si5 0.452396 0.358478 0.635078
Si Si6 0.500000 0.102582 0.250000
Si Si7 0.280976 0.285939 0.235347
O O1 0.996481 0.814261 0.957449
O O2 0.090266 0.731318 0.860391
O O3 0.250000 0.750000 0.000000
O O4 0.843090 0.751048 0.117972
O O5 0.573424 0.910434 0.397884
O O6 0.733244 0.841843 0.223995
O O7 0.000000 0.893941 0.250000
O O8 0.784192 0.935107 0.164767
O O9 0.695651 0.565275 0.520640
O O10 0.000000 0.500000 0.500000
O O11 0.047663 0.572096 0.348707
O O12 0.058027 0.091635 0.065412
O O13 0.000000 0.000000 0.000000
O O14 0.500000 0.349983 0.750000
O O15 0.203349 0.364952 0.682623
O O16 0.500000 0.285875 0.250000
#
# Coordination Sequence:
#
# PCOD9280949 Si02
#       7
#     8   8   8   8   8   4   8
#     4  10  21  37  68 100 131 179 226 291 354 429
#     4   9  18  36  61  88 123 175 228 273 341 423
#     4  10  23  38  60  94 133 170 229 285 343 419
#     4  10  22  39  68  89 130 183 229 282 351 418
#     4  11  25  44  70 102 140 180 237 294 354 436
#     4  10  26  42  64 100 136 180 224 288 358 406
#     4   9  18  33  62  94 128 168 230 277 346 427
#
# _framework density 24.256530999999999
#
# number of rings (size 3 to 8) (size 9 to 14) (size 15 to 20)
#    0.000    2.154    1.538    0.000   16.154    0.615 
#    0.000    0.769    0.000    0.000    0.000    0.000 
#    0.000    0.000    0.000    0.000    0.000    0.000 
#
# Total GULP energy -144985.256082 kJ/mol
# GULP energy per Si atom -5576.356003 kJ/mol
# Density = 2.420132 g / cm^3
# Si number density = 24.256531 Si / 1000 Ang^3
#
#
#
# Elastic Constant Matrix: (Units=GPa)
#
#
# Indices 1 2 3 4 5 6 
#
# 1 92.0570 -7.9475 6.2028 0.0000 10.1880 0.0000
# 2 -7.9475 110.1847 68.1979 0.0000 4.5304 0.0000
# 3 6.2028 68.1979 155.4420 0.0000 -4.1065 0.0000
# 4 0.0000 0.0000 0.0000 41.5780 0.0000 1.0728
# 5 10.1880 4.5304 -4.1065 0.0000 16.5178 0.0000
# 6 0.0000 0.0000 0.0000 1.0728 0.0000 22.4783
#
#
#
# Elastic Compliance Matrix: (Units=1/GPa)
#
#
# Indices 1 2 3 4 5 6 
#
# 1 0.012119 0.002284 -0.001711 0.000000 -0.008526 0.000000
# 2 0.002284 0.013280 -0.006091 0.000000 -0.006565 0.000000
# 3 -0.001711 -0.006091 0.009307 0.000000 0.005040 0.000000
# 4 0.000000 0.000000 0.000000 0.024081 0.000000 -0.001149
# 5 -0.008526 -0.006565 0.005040 0.000000 0.068853 0.000000
# 6 0.000000 0.000000 0.000000 -0.001149 0.000000 0.044542
#
#
# Mechanical properties :
#
#
# Convention : Reuss Voigt Hill
#
# Bulk Modulus (GPa) = 42.24815 54.51000 48.37908
# Shear Modulus (GPa) = 26.16306 35.53019 30.84663
#
# Velocity S-wave (km/s) = 3.28777 3.83138 3.56994
# Velocity P-wave (km/s) = 5.64514 6.48797 6.08117
#
# Compressibility (1/GPa) = 0.02366967
#
# Stress axis : x y z
#
# Youngs Moduli (GPa) = 82.51599 75.29902 107.44522
#
# Poissons Ratio (x) = -0.17195 0.18381
# Poissons Ratio (y) = -0.18843 0.65446
# Poissons Ratio (z) = 0.14116 0.45866
#
# Static dielectric constant tensor:
#      x y z
#    x 1.821920 0.000000 0.046730 
#    y 0.000000 1.929300 0.000000 
#    z 0.046730 0.000000 2.081370 
# 
# From -- ./inp_files/82093.got.cif
#   From: 2010.05.17/outbox.cif.g08.bks.cpg/sg15_42_cif.got.tgz:82093.got - 2010.06.03 18:47:42.
