data_PCOD9280558
_publ_section_title
;
Structure prediction by ZEFSAII (Michael W. Deem and Ramdas Pophale) SiO2 
 PCOD9280558
Probable space group: C 2/C
;
_chemical_formula_sum "Si O2"
_cell_formula_units_Z 40
_cell_length_a 10.321975
_cell_length_b 14.500999
_cell_length_c 20.023808
_cell_angle_alpha 90.000000
_cell_angle_beta 36.960453
_cell_angle_gamma 90.000000
_cell_volume 1802.072837
_symmetry_space_group_name_H-M "C 2/C"
_symmetry_group_IT_number 15
_symmetry_cell_setting 'monoclinic'
loop_
_space_group_symop_operation_xyz
x,y,z
-x,y,1/2-z
-x,-y,-z
x,-y,1/2+z
1/2+x,1/2+y,z
1/2-x,1/2+y,1/2-z
1/2-x,1/2-y,-z
1/2+x,1/2-y,1/2+z
loop_
_atom_site_type_symbol
_atom_site_label
_atom_site_fract_x
_atom_site_fract_y
_atom_site_fract_z
Si Si1 0.979384 0.581760 0.685781
Si Si2 0.746858 0.098843 0.845260
Si Si3 0.646995 0.650827 0.052139
Si Si4 0.135921 0.617751 0.402791
Si Si5 0.653799 0.868420 0.745254
O O1 0.204439 0.581626 0.552511
O O2 0.000000 0.626710 0.750000
O O3 0.819672 0.633288 0.700788
O O4 0.894005 0.478539 0.733357
O O5 0.000000 0.105985 0.750000
O O6 0.672672 0.991527 0.875791
O O7 0.589143 0.139283 0.966537
O O8 0.679091 0.635648 0.118089
O O9 0.404715 0.644913 0.127389
O O10 0.750000 0.750000 0.000000
O O11 0.126875 0.662651 0.333458
O O12 0.500000 0.829377 0.750000
#
# Coordination Sequence:
#
# PCOD9280558 Si02
#       5
#     8   8   8   8   8
#     4   9  20  35  56  86 115 151 196 243 292 345
#     4   9  16  29  53  84 111 143 193 241 282 333
#     4  11  23  39  58  86 122 159 193 235 300 358
#     4   9  18  33  54  79 112 153 188 231 289 346
#     4  10  21  37  61  88 115 150 199 248 289 343
#
# _framework density 22.196662
#
# number of rings (size 3 to 8) (size 9 to 14) (size 15 to 20)
#    0.000    2.400    0.000    4.200    0.000    6.400 
#    0.000    5.000    0.000    0.000    0.000    0.000 
#    0.000    0.000    0.000    0.000    0.000    0.000 
#
# Total GULP energy -111556.888702 kJ/mol
# GULP energy per Si atom -5577.844435 kJ/mol
# Density = 2.214614 g / cm^3
# Si number density = 22.196662 Si / 1000 Ang^3
#
#
#
# Elastic Constant Matrix: (Units=GPa)
#
#
# Indices 1 2 3 4 5 6 
#
# 1 222.3364 -5.5155 106.8078 0.0000 -12.0324 0.0000
# 2 -5.5155 57.6001 20.0293 0.0003 -3.5735 0.0001
# 3 106.8078 20.0293 141.7707 0.0010 -30.5681 0.0000
# 4 0.0000 0.0003 0.0010 14.3726 0.0001 3.4203
# 5 -12.0324 -3.5735 -30.5681 0.0001 44.3232 0.0000
# 6 0.0000 0.0001 0.0000 3.4203 0.0000 -1.6638
#
#
#
# Elastic Compliance Matrix: (Units=1/GPa)
#
#
# Indices 1 2 3 4 5 6 
#
# 1 0.007648 0.002909 -0.006666 0.000000 -0.002287 0.000001
# 2 0.002909 0.019369 -0.005193 0.000000 -0.001230 0.000000
# 3 -0.006666 -0.005193 0.014483 -0.000001 0.007760 -0.000002
# 4 0.000000 0.000000 -0.000001 0.046720 0.000000 0.096045
# 5 -0.002287 -0.001230 0.007760 0.000000 0.027193 -0.000001
# 6 0.000001 0.000000 -0.000002 0.096045 -0.000001 -0.403592
#
#
# Mechanical properties :
#
#
# Convention : Reuss Voigt Hill
#
# Bulk Modulus (GPa) = 42.37477 73.81671 58.09574
# Shear Modulus (GPa) = -19.05410 31.43210 6.18900
#
# Velocity S-wave (km/s) = -2.93306 3.76716 1.67162
# Velocity P-wave (km/s) = 2.76795 7.22841 5.47319
#
# Compressibility (1/GPa) = 0.02359895
#
# Stress axis : x y z
#
# Youngs Moduli (GPa) = 130.74557 51.62886 69.04823
#
# Poissons Ratio (x) = -0.15016 0.46029
# Poissons Ratio (y) = -0.38028 0.35856
# Poissons Ratio (z) = 0.87157 0.26811
#
# Static dielectric constant tensor:
#      x y z
#    x 1.929070 0.000000 0.069090 
#    y 0.000000 1.865670 0.000000 
#    z 0.069090 0.000000 1.834480 
# 
# From -- ./inp_files/76934.got.cif
#   From: 2010.05.17/outbox.cif.g08.bks.cpg/sg15_39_cif.got.tgz:76934.got - 2010.06.03 18:47:42.
