data_PCOD9280723
_publ_section_title
;
Structure prediction by ZEFSAII (Michael W. Deem and Ramdas Pophale) SiO2 
 PCOD9280723
Probable space group: C 2/C
;
_chemical_formula_sum "Si O2"
_cell_formula_units_Z 52
_cell_length_a 11.864011
_cell_length_b 27.349247
_cell_length_c 9.678067
_cell_angle_alpha 90.000000
_cell_angle_beta 129.011610
_cell_angle_gamma 90.000000
_cell_volume 2440.039492
_symmetry_space_group_name_H-M "C 2/C"
_symmetry_group_IT_number 15
_symmetry_cell_setting 'monoclinic'
loop_
_space_group_symop_operation_xyz
x,y,z
-x,y,1/2-z
-x,-y,-z
x,-y,1/2+z
1/2+x,1/2+y,z
1/2-x,1/2+y,1/2-z
1/2-x,1/2-y,-z
1/2+x,1/2-y,1/2+z
loop_
_atom_site_type_symbol
_atom_site_label
_atom_site_fract_x
_atom_site_fract_y
_atom_site_fract_z
Si Si1 0.176170 0.555769 0.398417
Si Si2 0.650744 0.027530 0.077827
Si Si3 0.745532 0.138710 0.666472
Si Si4 0.047752 0.265393 0.009997
Si Si5 0.842207 0.622781 0.601445
Si Si6 0.500000 0.695390 0.750000
Si Si7 0.733365 0.712954 0.362044
O O1 0.223040 0.544965 0.277001
O O2 0.226918 0.511921 0.537908
O O3 0.219620 0.604556 0.513646
O O4 0.000000 0.556807 0.250000
O O5 0.625648 0.074799 0.963399
O O6 0.500000 0.000000 0.000000
O O7 0.634816 0.184178 0.580461
O O8 0.722851 0.112686 0.796985
O O9 0.903099 0.162132 0.773268
O O10 0.093146 0.230747 0.172092
O O11 0.090254 0.232199 0.913493
O O12 0.877327 0.278169 0.880104
O O13 0.743757 0.659201 0.435591
O O14 0.000000 0.647343 0.750000
O O15 0.750000 0.750000 0.500000
#
# Coordination Sequence:
#
# PCOD9280723 Si02
#       7
#     8   8   8   8   8   4   8
#     4  10  21  37  63  94 130 162 212 269 345 403
#     4  10  21  37  62  99 135 165 206 279 348 410
#     4  12  25  41  64  95 131 180 225 277 337 406
#     4  12  25  42  64  94 136 184 230 279 330 400
#     4  12  21  38  67  99 136 173 220 279 349 407
#     4  12  28  44  62  90 140 182 232 284 330 394
#     4  12  23  41  64  98 136 180 229 275 335 404
#
# _framework density 21.311129999999999
#
# number of rings (size 3 to 8) (size 9 to 14) (size 15 to 20)
#    0.000    0.615    4.615    5.077    3.231    0.000 
#    0.000    0.000    0.000    3.692    0.000    0.000 
#    0.000    0.000    0.000    0.000    0.000    0.000 
#
# Total GULP energy -145216.356672 kJ/mol
# GULP energy per Si atom -5585.244487 kJ/mol
# Density = 2.126263 g / cm^3
# Si number density = 21.311130 Si / 1000 Ang^3
#
#
#
# Elastic Constant Matrix: (Units=GPa)
#
#
# Indices 1 2 3 4 5 6 
#
# 1 76.3709 17.7797 20.4229 0.0000 -21.5006 0.0000
# 2 17.7797 121.2179 48.4037 0.0000 -19.2167 0.0000
# 3 20.4229 48.4037 112.5737 0.0000 -38.7430 0.0000
# 4 0.0000 0.0000 0.0000 46.6539 0.0000 -16.5145
# 5 -21.5006 -19.2167 -38.7430 0.0000 33.1784 0.0000
# 6 0.0000 0.0000 0.0000 -16.5145 0.0000 25.4359
#
#
#
# Elastic Compliance Matrix: (Units=1/GPa)
#
#
# Indices 1 2 3 4 5 6 
#
# 1 0.016233 -0.001157 0.001575 0.000000 0.011689 0.000000
# 2 -0.001157 0.010075 -0.003965 0.000000 0.000455 0.000000
# 3 0.001575 -0.003965 0.016490 0.000000 0.017980 0.000000
# 4 0.000000 0.000000 0.000000 0.027831 0.000000 0.018069
# 5 0.011689 0.000455 0.017980 0.000000 0.058974 0.000000
# 6 0.000000 0.000000 0.000000 0.018069 0.000000 0.051046
#
#
# Mechanical properties :
#
#
# Convention : Reuss Voigt Hill
#
# Bulk Modulus (GPa) = 28.00821 53.70836 40.85828
# Shear Modulus (GPa) = 25.04455 35.95738 30.50097
#
# Velocity S-wave (km/s) = 3.43182 4.11208 3.78725
# Velocity P-wave (km/s) = 5.37347 6.91392 6.19179
#
# Compressibility (1/GPa) = 0.03570382
#
# Stress axis : x y z
#
# Youngs Moduli (GPa) = 61.60361 99.25666 60.64166
#
# Poissons Ratio (x) = 0.11484 -0.09553
# Poissons Ratio (y) = 0.07127 0.24047
# Poissons Ratio (z) = -0.09705 0.39360
#
# Static dielectric constant tensor:
#      x y z
#    x 1.838190 0.000000 0.016950 
#    y 0.000000 1.783880 0.000000 
#    z 0.016950 0.000000 1.635760 
# 
# From -- ./inp_files/34447.got.cif
#   From: 2010.05.17/outbox.cif.g08.bks.cpg/sg15_18_cif.got.tgz:34447.got - 2010.06.03 18:47:42.
