data_PCOD9280309
_publ_section_title
;
Structure prediction by ZEFSAII (Michael W. Deem and Ramdas Pophale) SiO2 
 PCOD9280309
Probable space group: C 2/C
;
_chemical_formula_sum "Si O2"
_cell_formula_units_Z 36
_cell_length_a 24.126029
_cell_length_b 14.835879
_cell_length_c 5.239365
_cell_angle_alpha 90.000000
_cell_angle_beta 119.079021
_cell_angle_gamma 90.000000
_cell_volume 1638.945407
_symmetry_space_group_name_H-M "C 2/C"
_symmetry_group_IT_number 15
_symmetry_cell_setting 'monoclinic'
loop_
_space_group_symop_operation_xyz
x,y,z
-x,y,1/2-z
-x,-y,-z
x,-y,1/2+z
1/2+x,1/2+y,z
1/2-x,1/2+y,1/2-z
1/2-x,1/2-y,-z
1/2+x,1/2-y,1/2+z
loop_
_atom_site_type_symbol
_atom_site_label
_atom_site_fract_x
_atom_site_fract_y
_atom_site_fract_z
Si Si1 0.128192 0.675506 0.498144
Si Si2 0.428762 0.537326 0.305284
Si Si3 0.500000 0.937759 0.750000
Si Si4 0.864733 0.205695 0.988193
Si Si5 0.247231 0.060605 0.812908
O O1 0.062331 0.623846 0.386276
O O2 0.123045 0.744794 0.250486
O O3 0.183780 0.606194 0.552618
O O4 0.144762 0.725746 0.799630
O O5 0.500000 0.500000 0.500000
O O6 0.398557 0.523385 0.514668
O O7 0.422047 0.638807 0.197105
O O8 0.500000 0.000000 0.500000
O O9 0.804346 0.140167 0.825980
O O10 0.240719 0.992123 0.562950
#
# Coordination Sequence:
#
# PCOD9280309 Si02
#       5
#     8   8   4   8   8
#     4  12  26  44  68  98 133 172 221 283 330 381
#     4  10  21  37  58  86 126 171 210 252 309 390
#     4  12  26  48  70  96 130 178 230 272 326 394
#     4  12  24  42  66 101 134 170 217 275 335 391
#     4  12  24  44  70  98 132 176 219 269 332 402
#
# _framework density 21.965344000000002
#
# number of rings (size 3 to 8) (size 9 to 14) (size 15 to 20)
#    0.000    0.444    0.000    9.333    0.000    5.333 
#    0.000    0.000    0.000    0.000    0.000    0.000 
#    0.000    0.000    0.000    0.000    0.000    0.000 
#
# Total GULP energy -100821.751156 kJ/mol
# GULP energy per Si atom -5601.208398 kJ/mol
# Density = 2.191535 g / cm^3
# Si number density = 21.965344 Si / 1000 Ang^3
#
#
#
# Elastic Constant Matrix: (Units=GPa)
#
#
# Indices 1 2 3 4 5 6 
#
# 1 147.6149 73.6962 57.6263 0.0000 10.9269 0.0000
# 2 73.6962 110.7548 53.1083 0.0000 -0.4734 0.0000
# 3 57.6263 53.1083 119.9543 0.0000 -28.8319 0.0000
# 4 0.0000 0.0000 0.0000 58.1718 0.0000 -16.4594
# 5 10.9269 -0.4734 -28.8319 0.0000 52.2688 0.0000
# 6 0.0000 0.0000 0.0000 -16.4594 0.0000 57.8369
#
#
#
# Elastic Compliance Matrix: (Units=1/GPa)
#
#
# Indices 1 2 3 4 5 6 
#
# 1 0.011642 -0.005753 -0.004200 0.000000 -0.004803 0.000000
# 2 -0.005753 0.014761 -0.003977 0.000000 -0.000858 0.000000
# 3 -0.004200 -0.003977 0.014200 0.000000 0.008675 0.000000
# 4 0.000000 0.000000 0.000000 0.018696 0.000000 0.005321
# 5 -0.004803 -0.000858 0.008675 0.000000 0.024913 0.000000
# 6 0.000000 0.000000 0.000000 0.005321 0.000000 0.018804
#
#
# Mechanical properties :
#
#
# Convention : Reuss Voigt Hill
#
# Bulk Modulus (GPa) = 78.48250 83.02062 80.75156
# Shear Modulus (GPa) = 37.00319 46.58170 41.79244
#
# Velocity S-wave (km/s) = 4.10886 4.61009 4.36667
# Velocity P-wave (km/s) = 7.63662 8.13729 7.89093
#
# Compressibility (1/GPa) = 0.01274169
#
# Stress axis : x y z
#
# Youngs Moduli (GPa) = 85.89903 67.74825 70.42143
#
# Poissons Ratio (x) = 0.38975 0.29576
# Poissons Ratio (y) = 0.49417 0.28010
# Poissons Ratio (z) = 0.36077 0.26947
#
# Static dielectric constant tensor:
#      x y z
#    x 1.943610 0.000000 0.013940 
#    y 0.000000 1.780280 0.000000 
#    z 0.013940 0.000000 1.812250 
# 
# From -- ./inp_files/15065.got.cif
#   From: 2010.05.17/outbox.cif.g08.bks.cpg/sg15_8_cif.got.tgz:15065.got - 2010.06.03 18:47:42.
