data_PCOD9280161
_publ_section_title
;
Structure prediction by ZEFSAII (Michael W. Deem and Ramdas Pophale) SiO2 
 PCOD9280161
Probable space group: C 2/C
;
_chemical_formula_sum "Si O2"
_cell_formula_units_Z 64
_cell_length_a 22.895759
_cell_length_b 28.917191
_cell_length_c 17.265782
_cell_angle_alpha 90.000000
_cell_angle_beta 160.867377
_cell_angle_gamma 90.000000
_cell_volume 3746.691139
_symmetry_space_group_name_H-M "C 2/C"
_symmetry_group_IT_number 15
_symmetry_cell_setting 'monoclinic'
loop_
_space_group_symop_operation_xyz
x,y,z
-x,y,1/2-z
-x,-y,-z
x,-y,1/2+z
1/2+x,1/2+y,z
1/2-x,1/2+y,1/2-z
1/2-x,1/2-y,-z
1/2+x,1/2-y,1/2+z
loop_
_atom_site_type_symbol
_atom_site_label
_atom_site_fract_x
_atom_site_fract_y
_atom_site_fract_z
Si Si1 0.418635 0.199351 0.271441
Si Si2 0.786992 0.199351 0.639794
Si Si3 0.586462 0.072658 0.735191
Si Si4 0.210620 0.966772 0.354126
Si Si5 0.789012 0.072659 0.140285
Si Si6 0.923619 0.533230 0.280112
Si Si7 0.964843 0.883297 0.996266
Si Si8 0.597992 0.116703 0.129413
O O1 0.604735 0.201085 0.459462
O O2 0.373904 0.250001 0.247794
O O3 0.428124 0.160427 0.348343
O O4 0.267928 0.187933 0.017931
O O5 0.912320 0.160425 0.832532
O O6 0.399949 0.072463 0.549901
O O7 0.557672 0.106919 0.627954
O O8 0.608627 0.019711 0.734822
O O9 0.739076 0.083454 0.989076
O O10 0.373802 0.962781 0.497611
O O11 0.298583 0.958626 0.548583
O O12 0.063833 0.929080 0.151222
O O13 0.143748 0.019713 0.269942
O O14 0.917107 0.106921 0.346827
O O15 0.889064 0.570922 0.301673
O O16 0.780850 0.877345 0.811704
#
# Coordination Sequence:
#
# PCOD9280161 Si02
#       8
#     8   8   8   8   8   8   8   8
#     4  10  21  37  55  74  98 126 154 189 236 289
#     4  10  21  37  55  74  98 126 154 189 236 289
#     4   8  16  31  48  67  95 132 170 203 236 276
#     4   9  17  30  47  67  96 134 169 199 235 281
#     4   8  16  31  48  67  95 132 170 203 236 276
#     4   9  17  30  47  67  96 134 169 199 235 281
#     4  11  20  29  48  75  99 126 161 201 242 284
#     4  11  20  29  48  75  99 126 161 201 242 284
#
# _framework density 17.08174
#
# number of rings (size 3 to 8) (size 9 to 14) (size 15 to 20)
#    0.000    2.500    0.000    4.500    0.000    5.000 
#    0.000    1.250    0.000    6.750    0.000    0.000 
#    0.000    0.000    0.000    0.000    0.000    0.000 
#
# Total GULP energy -178534.801364 kJ/mol
# GULP energy per Si atom -5579.212543 kJ/mol
# Density = 1.704286 g / cm^3
# Si number density = 17.081740 Si / 1000 Ang^3
#
#
#
# Elastic Constant Matrix: (Units=GPa)
#
#
# Indices 1 2 3 4 5 6 
#
# 1 62.4692 60.4102 33.2228 0.0000 -20.3373 0.0000
# 2 60.4102 115.4455 73.4322 0.0000 -35.5344 0.0000
# 3 33.2228 73.4322 77.4838 0.0000 -20.6550 -0.0001
# 4 0.0000 0.0000 0.0000 29.0569 0.0000 -2.3877
# 5 -20.3373 -35.5344 -20.6550 0.0000 19.2225 0.0000
# 6 0.0000 0.0000 -0.0001 -2.3877 0.0000 28.1819
#
#
#
# Elastic Compliance Matrix: (Units=1/GPa)
#
#
# Indices 1 2 3 4 5 6 
#
# 1 0.033632 -0.019188 0.005317 0.000000 0.005825 0.000000
# 2 -0.019188 0.047599 -0.026401 0.000000 0.039322 0.000000
# 3 0.005317 -0.026401 0.033825 0.000000 -0.006833 0.000000
# 4 0.000000 0.000000 0.000000 0.034656 0.000000 0.002936
# 5 0.005825 0.039322 -0.006833 0.000000 0.123533 0.000000
# 6 0.000000 0.000000 0.000000 0.002936 0.000000 0.035733
#
#
# Mechanical properties :
#
#
# Convention : Reuss Voigt Hill
#
# Bulk Modulus (GPa) = 28.97486 65.50323 47.23905
# Shear Modulus (GPa) = 12.46804 21.18115 16.82460
#
# Velocity S-wave (km/s) = 2.70461 3.52517 3.14179
# Velocity P-wave (km/s) = 5.17228 7.41615 6.39342
#
# Compressibility (1/GPa) = 0.03451267
#
# Stress axis : x y z
#
# Youngs Moduli (GPa) = 29.73350 21.00889 29.56403
#
# Poissons Ratio (x) = 0.40312 -0.15719
# Poissons Ratio (y) = 0.57052 0.78051
# Poissons Ratio (z) = -0.15809 0.55465
#
# Static dielectric constant tensor:
#      x y z
#    x 1.592100 0.000000 -0.005210 
#    y 0.000000 1.548800 0.000000 
#    z -0.005210 0.000000 1.594000 
# 
# From -- ./inp_files/220491.got.cif
#   From: 2010.05.17/outbox.cif.g08.bks.cpg/sg15_111_cif.got.tgz:220491.got - 2010.06.03 18:47:42.
