data_PCOD9280344
_publ_section_title
;
Structure prediction by ZEFSAII (Michael W. Deem and Ramdas Pophale) SiO2 
 PCOD9280344
Probable space group: C 2/C
;
_chemical_formula_sum "Si O2"
_cell_formula_units_Z 60
_cell_length_a 17.387787
_cell_length_b 22.318726
_cell_length_c 8.835467
_cell_angle_alpha 90.000000
_cell_angle_beta 63.344113
_cell_angle_gamma 90.000000
_cell_volume 3064.384594
_symmetry_space_group_name_H-M "C 2/C"
_symmetry_group_IT_number 15
_symmetry_cell_setting 'monoclinic'
loop_
_space_group_symop_operation_xyz
x,y,z
-x,y,1/2-z
-x,-y,-z
x,-y,1/2+z
1/2+x,1/2+y,z
1/2-x,1/2+y,1/2-z
1/2-x,1/2-y,-z
1/2+x,1/2-y,1/2+z
loop_
_atom_site_type_symbol
_atom_site_label
_atom_site_fract_x
_atom_site_fract_y
_atom_site_fract_z
Si Si1 0.462414 0.557954 0.115151
Si Si2 0.768625 0.066092 0.221221
Si Si3 0.372225 0.744186 0.486485
Si Si4 0.477494 0.312744 0.445947
Si Si5 0.437285 0.945894 0.100382
Si Si6 0.199163 0.201308 0.253192
Si Si7 0.327224 0.010426 0.455182
Si Si8 0.000000 0.342434 0.250000
O O1 0.500000 0.564890 0.250000
O O2 0.360586 0.548541 0.205486
O O3 0.500000 0.500000 0.000000
O O4 0.476048 0.618699 0.007057
O O5 0.765366 0.137293 0.226788
O O6 0.749385 0.039677 0.073077
O O7 0.701223 0.036694 0.393923
O O8 0.447513 0.719234 0.525174
O O9 0.284012 0.758091 0.655203
O O10 0.344488 0.699576 0.375488
O O11 0.417029 0.801419 0.363788
O O12 0.500000 0.310327 0.250000
O O13 0.382898 0.284934 0.567068
O O14 0.480265 0.885813 0.125036
O O15 0.383999 0.973107 0.287357
O O16 0.378647 0.938888 0.003035
O O17 0.500000 0.000000 0.000000
#
# Coordination Sequence:
#
# PCOD9280344 Si02
#       8
#     8   8   8   8   8   8   8   4
#     4  11  22  39  68  95 126 171 218 268 334 395
#     4  10  21  38  60  91 132 163 209 266 316 391
#     4  11  23  43  69  91 124 174 229 269 326 396
#     4  11  23  43  64  94 134 167 216 279 330 393
#     4  11  21  38  61  90 127 167 205 261 314 391
#     4  10  22  43  66  92 124 174 221 275 327 386
#     4  10  21  37  58  91 130 165 205 254 328 378
#     4  12  22  40  70  94 126 170 232 260 332 408
#
# _framework density 19.579787
#
# number of rings (size 3 to 8) (size 9 to 14) (size 15 to 20)
#    0.000    1.333    2.667    3.600    1.867    1.600 
#    2.400    9.333    0.000    0.000    0.000    0.000 
#    0.000    0.000    0.000    0.000    0.000    0.000 
#
# Total GULP energy -167399.005609 kJ/mol
# GULP energy per Si atom -5579.966854 kJ/mol
# Density = 1.953522 g / cm^3
# Si number density = 19.579787 Si / 1000 Ang^3
#
#
#
# Elastic Constant Matrix: (Units=GPa)
#
#
# Indices 1 2 3 4 5 6 
#
# 1 98.5118 14.1792 32.7445 0.0000 0.9766 0.0000
# 2 14.1792 42.6903 15.8596 0.0000 -1.8026 0.0000
# 3 32.7445 15.8596 102.3732 0.0000 -10.8312 0.0000
# 4 0.0000 0.0000 0.0000 30.9826 0.0000 -0.8559
# 5 0.9766 -1.8026 -10.8312 0.0000 35.4335 0.0000
# 6 0.0000 0.0000 0.0000 -0.8559 0.0000 27.1098
#
#
#
# Elastic Compliance Matrix: (Units=1/GPa)
#
#
# Indices 1 2 3 4 5 6 
#
# 1 0.011710 -0.002655 -0.003496 0.000000 -0.001526 0.000000
# 2 -0.002655 0.025457 -0.003048 0.000000 0.000436 0.000000
# 3 -0.003496 -0.003048 0.011732 0.000000 0.003527 0.000000
# 4 0.000000 0.000000 0.000000 0.032304 0.000000 0.001020
# 5 -0.001526 0.000436 0.003527 0.000000 0.029364 0.000000
# 6 0.000000 0.000000 0.000000 0.001020 0.000000 0.036919
#
#
# Mechanical properties :
#
#
# Convention : Reuss Voigt Hill
#
# Bulk Modulus (GPa) = 32.78612 41.01578 36.90095
# Shear Modulus (GPa) = 28.40053 30.75799 29.57926
#
# Velocity S-wave (km/s) = 3.81268 3.96776 3.89099
# Velocity P-wave (km/s) = 6.01359 6.47953 6.25090
#
# Compressibility (1/GPa) = 0.03050072
#
# Stress axis : x y z
#
# Youngs Moduli (GPa) = 85.39457 39.28133 85.23868
#
# Poissons Ratio (x) = 0.10430 0.29797
# Poissons Ratio (y) = 0.22675 0.25984
# Poissons Ratio (z) = 0.29852 0.11974
#
# Static dielectric constant tensor:
#      x y z
#    x 1.746330 0.000000 -0.025380 
#    y 0.000000 1.677610 0.000000 
#    z -0.025380 0.000000 1.636140 
# 
# From -- ./inp_files/50628.got.cif
#   From: 2010.05.17/outbox.cif.g08.bks.cpg/sg15_26_cif.got.tgz:50628.got - 2010.06.03 18:47:42.
