data_PCOD9280801
_publ_section_title
;
Structure prediction by ZEFSAII (Michael W. Deem and Ramdas Pophale) SiO2 
 PCOD9280801
Probable space group: C 2/C
;
_chemical_formula_sum "Si O2"
_cell_formula_units_Z 56
_cell_length_a 22.308074
_cell_length_b 14.238052
_cell_length_c 8.494220
_cell_angle_alpha 90.000000
_cell_angle_beta 82.790123
_cell_angle_gamma 90.000000
_cell_volume 2676.631452
_symmetry_space_group_name_H-M "C 2/C"
_symmetry_group_IT_number 15
_symmetry_cell_setting 'monoclinic'
loop_
_space_group_symop_operation_xyz
x,y,z
-x,y,1/2-z
-x,-y,-z
x,-y,1/2+z
1/2+x,1/2+y,z
1/2-x,1/2+y,1/2-z
1/2-x,1/2-y,-z
1/2+x,1/2-y,1/2+z
loop_
_atom_site_type_symbol
_atom_site_label
_atom_site_fract_x
_atom_site_fract_y
_atom_site_fract_z
Si Si1 0.833127 0.428776 0.563598
Si Si2 0.399128 0.388036 0.826340
Si Si3 0.173029 0.625651 0.803886
Si Si4 0.956836 0.287595 0.135115
Si Si5 0.526702 0.093244 0.410230
Si Si6 0.767739 0.798106 0.828763
Si Si7 0.956155 0.939318 0.128261
O O1 0.813481 0.535704 0.597144
O O2 0.829159 0.403847 0.379999
O O3 0.901554 0.411243 0.594841
O O4 0.788190 0.365677 0.682553
O O5 0.438476 0.312983 0.711865
O O6 0.329833 0.356184 0.830761
O O7 0.413633 0.488592 0.741654
O O8 0.418150 0.384874 0.005311
O O9 0.105896 0.660026 0.868055
O O10 0.217873 0.714104 0.796312
O O11 0.000000 0.335785 0.250000
O O12 0.999569 0.306082 0.974638
O O13 0.500000 0.082951 0.250000
O O14 0.500000 0.000000 0.500000
O O15 0.750000 0.750000 0.000000
O O16 0.000000 0.895496 0.250000
O O17 0.000000 0.000000 0.000000
#
# Coordination Sequence:
#
# PCOD9280801 Si02
#       7
#     8   8   8   8   8   8   8
#     4  11  21  39  63  91 121 166 206 258 313 376
#     4  10  21  38  67  88 129 173 210 266 320 380
#     4  10  21  37  64  87 123 161 207 256 308 376
#     4  11  20  37  60  91 127 164 201 254 325 382
#     4  12  23  37  63  97 126 160 208 257 328 390
#     4   9  22  41  61  88 123 171 217 249 316 379
#     4   9  18  37  63  98 124 160 216 264 320 384
#
# _framework density 20.92182
#
# number of rings (size 3 to 8) (size 9 to 14) (size 15 to 20)
#    0.000    1.714    2.857    2.571    0.000    2.286 
#    0.000    6.429    3.143    0.000    0.000    0.000 
#    0.000    0.000    0.000    0.000    0.000    0.000 
#
# Total GULP energy -156078.972072 kJ/mol
# GULP energy per Si atom -5574.249003 kJ/mol
# Density = 2.087420 g / cm^3
# Si number density = 20.921820 Si / 1000 Ang^3
#
#
#
# Elastic Constant Matrix: (Units=GPa)
#
#
# Indices 1 2 3 4 5 6 
#
# 1 134.4156 56.6995 19.2922 0.0000 -20.7277 0.0000
# 2 56.6995 100.2105 22.3829 0.0000 -4.6546 0.0000
# 3 19.2922 22.3829 81.4001 0.0000 12.1811 0.0000
# 4 0.0000 0.0000 0.0000 39.9503 0.0000 -8.6759
# 5 -20.7277 -4.6546 12.1811 0.0000 23.0875 0.0000
# 6 0.0000 0.0000 0.0000 -8.6759 0.0000 25.5169
#
#
#
# Elastic Compliance Matrix: (Units=1/GPa)
#
#
# Indices 1 2 3 4 5 6 
#
# 1 0.011937 -0.005573 -0.002966 0.000000 0.011158 0.000000
# 2 -0.005573 0.013586 -0.002254 0.000000 -0.001075 0.000000
# 3 -0.002966 -0.002254 0.015281 0.000000 -0.011180 0.000000
# 4 0.000000 0.000000 0.000000 0.027027 0.000000 0.009189
# 5 0.011158 -0.001075 -0.011180 0.000000 0.059013 0.000000
# 6 0.000000 0.000000 0.000000 0.009189 0.000000 0.042314
#
#
# Mechanical properties :
#
#
# Convention : Reuss Voigt Hill
#
# Bulk Modulus (GPa) = 52.03852 56.97504 54.50678
# Shear Modulus (GPa) = 25.36141 32.22106 28.79123
#
# Velocity S-wave (km/s) = 3.48544 3.92863 3.71365
# Velocity P-wave (km/s) = 6.41285 6.91884 6.67064
#
# Compressibility (1/GPa) = 0.01921653
#
# Stress axis : x y z
#
# Youngs Moduli (GPa) = 83.77364 73.60645 65.44133
#
# Poissons Ratio (x) = 0.41022 0.19413
# Poissons Ratio (y) = 0.46688 0.14750
# Poissons Ratio (z) = 0.24851 0.16591
#
# Static dielectric constant tensor:
#      x y z
#    x 1.731300 0.000000 -0.008970 
#    y 0.000000 1.825450 0.000000 
#    z -0.008970 0.000000 1.816050 
# 
# From -- ./inp_files/55640.got.cif
#   From: 2010.05.17/outbox.cif.g08.bks.cpg/sg15_28_cif.got.tgz:55640.got - 2010.06.03 18:47:42.
