data_PCOD9280379
_publ_section_title
;
Structure prediction by ZEFSAII (Michael W. Deem and Ramdas Pophale) SiO2 
 PCOD9280379
Probable space group: C 2/C
;
_chemical_formula_sum "Si O2"
_cell_formula_units_Z 32
_cell_length_a 21.267856
_cell_length_b 7.066671
_cell_length_c 15.606311
_cell_angle_alpha 90.000000
_cell_angle_beta 31.665058
_cell_angle_gamma 90.000000
_cell_volume 1231.286169
_symmetry_space_group_name_H-M "C 2/C"
_symmetry_group_IT_number 15
_symmetry_cell_setting 'monoclinic'
loop_
_space_group_symop_operation_xyz
x,y,z
-x,y,1/2-z
-x,-y,-z
x,-y,1/2+z
1/2+x,1/2+y,z
1/2-x,1/2+y,1/2-z
1/2-x,1/2-y,-z
1/2+x,1/2-y,1/2+z
loop_
_atom_site_type_symbol
_atom_site_label
_atom_site_fract_x
_atom_site_fract_y
_atom_site_fract_z
Si Si1 0.530807 0.119365 0.813261
Si Si2 0.578144 0.535376 0.993261
Si Si3 0.650164 0.495624 0.160787
Si Si4 0.214872 0.360400 0.666618
O O1 0.500000 0.072359 0.750000
O O2 0.424531 0.241732 0.979652
O O3 0.636907 0.280054 0.688881
O O4 0.583096 0.949018 0.807919
O O5 0.491104 0.445850 0.167395
O O6 0.500000 0.500000 0.000000
O O7 0.705678 0.439236 0.849282
O O8 0.711875 0.365139 0.161161
O O9 0.716071 0.437496 0.998251
#
# Coordination Sequence:
#
# PCOD9280379 Si02
#       4
#     8   8   8   8
#     4  10  21  37  59  87 109 142 192 234 278 326
#     4  10  22  39  54  83 122 145 186 232 268 343
#     4   9  21  37  57  85 112 141 191 231 277 327
#     4  11  20  38  64  82 110 151 184 235 286 319
#
# _framework density 25.989083000000001
#
# number of rings (size 3 to 8) (size 9 to 14) (size 15 to 20)
#    1.500    0.500    2.500    1.500    0.000    7.000 
#    0.000    1.250    0.000    0.000    0.000    0.000 
#    0.000    0.000    0.000    0.000    0.000    0.000 
#
# Total GULP energy -89260.801192 kJ/mol
# GULP energy per Si atom -5578.800075 kJ/mol
# Density = 2.592993 g / cm^3
# Si number density = 25.989083 Si / 1000 Ang^3
#
#
#
# Elastic Constant Matrix: (Units=GPa)
#
#
# Indices 1 2 3 4 5 6 
#
# 1 154.0169 41.8408 16.5076 -0.0006 -32.7734 -0.0001
# 2 41.8408 83.0655 25.6705 -0.0023 -15.3848 -0.0001
# 3 16.5076 25.6705 67.2733 -0.0034 -7.4342 -0.0004
# 4 -0.0006 -0.0023 -0.0034 21.8424 -0.0003 -5.2705
# 5 -32.7734 -15.3848 -7.4342 -0.0003 38.5316 0.0002
# 6 -0.0001 -0.0001 -0.0004 -5.2705 0.0002 26.7937
#
#
#
# Elastic Compliance Matrix: (Units=1/GPa)
#
#
# Indices 1 2 3 4 5 6 
#
# 1 0.008670 -0.003167 -0.000249 0.000000 0.006061 0.000000
# 2 -0.003167 0.015630 -0.004900 0.000001 0.002601 0.000000
# 3 -0.000249 -0.004900 0.016916 0.000002 0.001096 0.000001
# 4 0.000000 0.000001 0.000002 0.048064 0.000001 0.009454
# 5 0.006061 0.002601 0.001096 0.000001 0.032358 0.000000
# 6 0.000000 0.000000 0.000001 0.009454 0.000000 0.039182
#
#
# Mechanical properties :
#
#
# Convention : Reuss Voigt Hill
#
# Bulk Modulus (GPa) = 40.67584 52.48817 46.58200
# Shear Modulus (GPa) = 26.93278 32.12266 29.52772
#
# Velocity S-wave (km/s) = 3.22267 3.51950 3.37435
# Velocity P-wave (km/s) = 5.43439 6.06267 5.75711
#
# Compressibility (1/GPa) = 0.02458462
#
# Stress axis : x y z
#
# Youngs Moduli (GPa) = 115.34329 63.97906 59.11392
#
# Poissons Ratio (x) = 0.20265 0.01471
# Poissons Ratio (y) = 0.36534 0.28963
# Poissons Ratio (z) = 0.02871 0.31347
#
# Static dielectric constant tensor:
#      x y z
#    x 2.099590 0.000000 0.084290 
#    y 0.000000 2.042730 0.000000 
#    z 0.084290 0.000000 2.138790 
# 
# From -- ./inp_files/109883.got.cif
#   From: 2010.05.17/outbox.cif.g08.bks.cpg/sg15_55_cif.got.tgz:109883.got - 2010.06.03 18:47:42.
