data_PCOD9280461
_publ_section_title
;
Structure prediction by ZEFSAII (Michael W. Deem and Ramdas Pophale) SiO2 
 PCOD9280461
Probable space group: C 2/C
;
_chemical_formula_sum "Si O2"
_cell_formula_units_Z 48
_cell_length_a 29.241700
_cell_length_b 16.867354
_cell_length_c 14.711020
_cell_angle_alpha 90.000000
_cell_angle_beta 161.274473
_cell_angle_gamma 90.000000
_cell_volume 2329.403397
_symmetry_space_group_name_H-M "C 2/C"
_symmetry_group_IT_number 15
_symmetry_cell_setting 'monoclinic'
loop_
_space_group_symop_operation_xyz
x,y,z
-x,y,1/2-z
-x,-y,-z
x,-y,1/2+z
1/2+x,1/2+y,z
1/2-x,1/2+y,1/2-z
1/2-x,1/2-y,-z
1/2+x,1/2-y,1/2+z
loop_
_atom_site_type_symbol
_atom_site_label
_atom_site_fract_x
_atom_site_fract_y
_atom_site_fract_z
Si Si1 0.671048 0.796720 0.069863
Si Si2 0.151005 0.458471 0.286860
Si Si3 0.117651 0.170963 0.822423
Si Si4 0.062561 0.996573 0.770451
Si Si5 0.355356 0.220572 0.775088
Si Si6 0.699968 0.574773 0.811653
O O1 0.713752 0.780484 0.254023
O O2 0.738036 0.876376 0.155458
O O3 0.500000 0.807108 0.750000
O O4 0.694053 0.722747 0.044285
O O5 0.272382 0.478989 0.440043
O O6 0.113994 0.367893 0.199655
O O7 0.223233 0.492997 0.515127
O O8 0.000000 0.500000 0.000000
O O9 0.213828 0.134756 0.923240
O O10 0.996044 0.226058 0.549815
O O11 0.046603 0.091438 0.729446
O O12 0.000000 0.974379 0.750000
O O13 0.964079 0.947682 0.515056
O O14 0.250000 0.250000 0.500000
#
# Coordination Sequence:
#
# PCOD9280461 Si02
#       6
#     8   8   8   8   8   8
#     4  10  21  37  60  88 120 160 201 246 303 370
#     4  11  23  39  60  88 122 160 201 252 309 362
#     4  10  21  38  60  86 119 161 202 243 301 372
#     4  11  22  39  62  90 122 161 207 253 301 364
#     4  11  21  38  61  89 121 156 200 256 306 351
#     4  11  22  39  63  89 119 160 207 250 300 363
#
# _framework density 20.606135999999999
#
# number of rings (size 3 to 8) (size 9 to 14) (size 15 to 20)
#    0.000    1.333    0.000    9.000    0.000    1.333 
#    0.000    0.000    0.000    6.000    0.000    0.000 
#    0.000    0.000    0.000    0.000    0.000    0.000 
#
# Total GULP energy -133932.942649 kJ/mol
# GULP energy per Si atom -5580.539277 kJ/mol
# Density = 2.055924 g / cm^3
# Si number density = 20.606136 Si / 1000 Ang^3
#
#
#
# Elastic Constant Matrix: (Units=GPa)
#
#
# Indices 1 2 3 4 5 6 
#
# 1 73.8322 2.8779 31.8927 0.0000 -16.9370 0.0000
# 2 2.8779 103.5649 24.8983 0.0000 -4.3715 0.0000
# 3 31.8927 24.8983 86.0153 0.0000 -0.0402 0.0000
# 4 0.0000 0.0000 0.0000 16.4656 0.0000 -8.7769
# 5 -16.9370 -4.3715 -0.0402 0.0000 37.3563 0.0000
# 6 0.0000 0.0000 0.0000 -8.7769 0.0000 18.5930
#
#
#
# Elastic Compliance Matrix: (Units=1/GPa)
#
#
# Indices 1 2 3 4 5 6 
#
# 1 0.018651 0.001621 -0.007380 0.000000 0.008638 0.000000
# 2 0.001621 0.010574 -0.003661 0.000000 0.001968 0.000000
# 3 -0.007380 -0.003661 0.015420 0.000000 -0.003758 0.000000
# 4 0.000000 0.000000 0.000000 0.081153 0.000000 0.038308
# 5 0.008638 0.001968 -0.003758 0.000000 0.030912 0.000000
# 6 0.000000 0.000000 0.000000 0.038308 0.000000 0.071867
#
#
# Mechanical properties :
#
#
# Convention : Reuss Voigt Hill
#
# Bulk Modulus (GPa) = 38.75390 42.52778 40.64084
# Shear Modulus (GPa) = 19.52986 28.06588 23.79787
#
# Velocity S-wave (km/s) = 3.08193 3.69455 3.40206
# Velocity P-wave (km/s) = 5.61357 6.23561 5.93275
#
# Compressibility (1/GPa) = 0.02580385
#
# Stress axis : x y z
#
# Youngs Moduli (GPa) = 53.61774 94.57234 64.85003
#
# Poissons Ratio (x) = -0.15327 0.47861
# Poissons Ratio (y) = -0.08690 0.23740
# Poissons Ratio (z) = 0.39572 0.34621
#
# Static dielectric constant tensor:
#      x y z
#    x 1.790220 0.000000 -0.021960 
#    y 0.000000 1.737330 0.000000 
#    z -0.021960 0.000000 1.728340 
# 
# From -- ./inp_files/182539.got.cif
#   From: 2010.05.17/outbox.cif.g08.bks.cpg/sg15_92_cif.got.tgz:182539.got - 2010.06.03 18:47:42.
