data_PCOD9280201
_publ_section_title
;
Structure prediction by ZEFSAII (Michael W. Deem and Ramdas Pophale) SiO2 
 PCOD9280201
Probable space group: C 2/C
;
_chemical_formula_sum "Si O2"
_cell_formula_units_Z 40
_cell_length_a 12.253178
_cell_length_b 13.313375
_cell_length_c 13.926247
_cell_angle_alpha 90.000000
_cell_angle_beta 61.425606
_cell_angle_gamma 90.000000
_cell_volume 1995.091696
_symmetry_space_group_name_H-M "C 2/C"
_symmetry_group_IT_number 15
_symmetry_cell_setting 'monoclinic'
loop_
_space_group_symop_operation_xyz
x,y,z
-x,y,1/2-z
-x,-y,-z
x,-y,1/2+z
1/2+x,1/2+y,z
1/2-x,1/2+y,1/2-z
1/2-x,1/2-y,-z
1/2+x,1/2-y,1/2+z
loop_
_atom_site_type_symbol
_atom_site_label
_atom_site_fract_x
_atom_site_fract_y
_atom_site_fract_z
Si Si1 0.286273 0.908901 0.517968
Si Si2 0.224779 0.623701 0.905092
Si Si3 0.870337 0.205488 0.552719
Si Si4 0.447437 0.230719 0.368446
Si Si5 0.473328 0.826368 0.150253
O O1 0.206598 0.887821 0.455366
O O2 0.281904 0.804659 0.580601
O O3 0.431533 0.912201 0.427741
O O4 0.248654 0.006940 0.590343
O O5 0.343910 0.690194 0.878236
O O6 0.163614 0.647671 0.827912
O O7 0.119505 0.657141 0.027678
O O8 0.942508 0.211325 0.621766
O O9 0.977302 0.228852 0.427973
O O10 0.500000 0.180039 0.250000
O O11 0.500000 0.814609 0.250000
#
# Coordination Sequence:
#
# PCOD9280201 Si02
#       5
#     8   8   8   8   8
#     4   9  18  36  56  75 109 139 181 220 268 315
#     4  10  21  37  56  82 109 144 180 228 266 322
#     4   8  19  36  54  77 109 144 170 229 262 320
#     4  10  22  37  55  79 115 143 180 223 275 317
#     4   9  18  32  58  78 108 139 180 221 269 316
#
# _framework density 20.049202999999999
#
# number of rings (size 3 to 8) (size 9 to 14) (size 15 to 20)
#    1.200    1.600    0.000    0.600    2.800    1.600 
#    0.000    1.000    0.000    0.000    0.000    0.000 
#    0.000    0.000    0.000    0.000    0.000    0.000 
#
# Total GULP energy -111336.763819 kJ/mol
# GULP energy per Si atom -5566.838191 kJ/mol
# Density = 2.000357 g / cm^3
# Si number density = 20.049203 Si / 1000 Ang^3
#
#
#
# Elastic Constant Matrix: (Units=GPa)
#
#
# Indices 1 2 3 4 5 6 
#
# 1 149.6168 31.7258 18.4973 0.0000 29.7296 0.0000
# 2 31.7258 46.9755 -3.2981 0.0000 0.9875 0.0000
# 3 18.4973 -3.2981 53.3323 0.0000 21.2081 0.0000
# 4 0.0000 0.0000 0.0000 6.8904 0.0000 1.2132
# 5 29.7296 0.9875 21.2081 0.0000 32.2718 0.0000
# 6 0.0000 0.0000 0.0000 1.2132 0.0000 10.1129
#
#
#
# Elastic Compliance Matrix: (Units=1/GPa)
#
#
# Indices 1 2 3 4 5 6 
#
# 1 0.009810 -0.006472 -0.000389 0.000000 -0.008583 0.000000
# 2 -0.006472 0.025752 0.002409 0.000000 0.003591 0.000000
# 3 -0.000389 0.002409 0.025615 0.000000 -0.016548 0.000000
# 4 0.000000 0.000000 0.000000 0.148261 0.000000 -0.017786
# 5 -0.008583 0.003591 -0.016548 0.000000 0.049659 0.000000
# 6 0.000000 0.000000 0.000000 -0.017786 0.000000 0.101017
#
#
# Mechanical properties :
#
#
# Convention : Reuss Voigt Hill
#
# Bulk Modulus (GPa) = 19.13047 38.19719 28.66383
# Shear Modulus (GPa) = 12.93852 23.38833 18.16343
#
# Velocity S-wave (km/s) = 2.54311 3.41918 3.01315
# Velocity P-wave (km/s) = 4.26447 5.88904 5.14133
#
# Compressibility (1/GPa) = 0.05227263
#
# Stress axis : x y z
#
# Youngs Moduli (GPa) = 101.93908 38.83127 39.03957
#
# Poissons Ratio (x) = 0.25132 0.01520
# Poissons Ratio (y) = 0.65976 -0.09406
# Poissons Ratio (z) = 0.03970 -0.09356
#
# Static dielectric constant tensor:
#      x y z
#    x 1.733990 0.000000 -0.009200 
#    y 0.000000 1.680870 0.000000 
#    z -0.009200 0.000000 1.770350 
# 
# From -- ./inp_files/196768.got.cif
#   From: 2010.05.17/outbox.cif.g08.bks.cpg/sg15_99_cif.got.tgz:196768.got - 2010.06.03 18:47:42.
