data_PCOD9280560
_publ_section_title
;
Structure prediction by ZEFSAII (Michael W. Deem and Ramdas Pophale) SiO2 
 PCOD9280560
Probable space group: C 2/C
;
_chemical_formula_sum "Si O2"
_cell_formula_units_Z 48
_cell_length_a 13.144130
_cell_length_b 6.945545
_cell_length_c 20.536238
_cell_angle_alpha 90.000000
_cell_angle_beta 75.718166
_cell_angle_gamma 90.000000
_cell_volume 1816.874655
_symmetry_space_group_name_H-M "C 2/C"
_symmetry_group_IT_number 15
_symmetry_cell_setting 'monoclinic'
loop_
_space_group_symop_operation_xyz
x,y,z
-x,y,1/2-z
-x,-y,-z
x,-y,1/2+z
1/2+x,1/2+y,z
1/2-x,1/2+y,1/2-z
1/2-x,1/2-y,-z
1/2+x,1/2-y,1/2+z
loop_
_atom_site_type_symbol
_atom_site_label
_atom_site_fract_x
_atom_site_fract_y
_atom_site_fract_z
Si Si1 0.099777 0.234380 0.884520
Si Si2 0.605209 0.867188 0.195417
Si Si3 0.999658 0.388855 0.090340
Si Si4 0.207365 0.585962 0.807505
Si Si5 0.897662 0.070569 0.855809
Si Si6 0.153412 0.896315 0.506266
O O1 0.039945 0.410558 0.932479
O O2 0.187157 0.368658 0.837266
O O3 0.013937 0.151437 0.848609
O O4 0.142512 0.083244 0.930375
O O5 0.500000 0.930606 0.250000
O O6 0.594294 0.641126 0.178618
O O7 0.592319 0.954959 0.125794
O O8 0.695762 0.915141 0.232068
O O9 0.047327 0.214108 0.044090
O O10 0.897425 0.315176 0.146629
O O11 0.313702 0.667636 0.820887
O O12 0.843825 0.055001 0.936855
O O13 0.250000 0.750000 0.500000
#
# Coordination Sequence:
#
# PCOD9280560 Si02
#       6
#     8   8   8   8   8   8
#     4  10  21  37  61  88 120 157 208 243 307 374
#     4   9  19  41  58  79 123 157 194 258 305 353
#     4   8  19  37  62  80 121 164 194 246 316 361
#     4   9  20  40  61  85 124 163 203 253 312 369
#     4  11  22  38  61  95 117 160 211 251 309 377
#     4  11  19  38  63  88 129 160 196 263 313 367
#
# _framework density 26.418996
#
# number of rings (size 3 to 8) (size 9 to 14) (size 15 to 20)
#    1.000    1.333    1.667    1.000    0.000    1.333 
#    6.000    8.333    0.000    0.000    0.000    0.000 
#    0.000    0.000    0.000    0.000    0.000    0.000 
#
# Total GULP energy -133768.171409 kJ/mol
# GULP energy per Si atom -5573.673809 kJ/mol
# Density = 2.635886 g / cm^3
# Si number density = 26.418996 Si / 1000 Ang^3
#
#
#
# Elastic Constant Matrix: (Units=GPa)
#
#
# Indices 1 2 3 4 5 6 
#
# 1 117.6312 9.3865 10.2215 0.0000 26.4784 0.0000
# 2 9.3865 42.2183 15.3364 0.0000 2.6531 0.0000
# 3 10.2215 15.3364 65.2331 0.0000 22.8003 0.0000
# 4 0.0000 0.0000 0.0000 0.4738 0.0000 4.3933
# 5 26.4784 2.6531 22.8003 0.0000 47.0315 0.0000
# 6 0.0000 0.0000 0.0000 4.3933 0.0000 42.0764
#
#
#
# Elastic Compliance Matrix: (Units=1/GPa)
#
#
# Indices 1 2 3 4 5 6 
#
# 1 0.009932 -0.002215 0.001054 -0.000004 -0.005977 0.000000
# 2 -0.002215 0.026519 -0.006984 0.000025 0.003137 -0.000003
# 3 0.001054 -0.006984 0.020319 -0.000007 -0.010050 0.000001
# 4 -0.000004 0.000025 -0.000007 66.234918 0.000010 -6.915713
# 5 -0.005977 0.003137 -0.010050 0.000010 0.029323 -0.000001
# 6 0.000000 -0.000003 0.000001 -6.915713 -0.000001 0.745849
#
#
# Mechanical properties :
#
#
# Convention : Reuss Voigt Hill
#
# Bulk Modulus (GPa) = 24.70427 32.77461 28.73944
# Shear Modulus (GPa) = 0.07452 30.59222 15.33337
#
# Velocity S-wave (km/s) = 0.16813 3.40658 2.41175
# Velocity P-wave (km/s) = 3.06740 5.28258 4.31941
#
# Compressibility (1/GPa) = 0.04047883
#
# Stress axis : x y z
#
# Youngs Moduli (GPa) = 100.68605 37.70910 49.21492
#
# Poissons Ratio (x) = 0.08354 -0.05186
# Poissons Ratio (y) = 0.22305 0.34371
# Poissons Ratio (z) = -0.10611 0.26336
#
# Static dielectric constant tensor:
#      x y z
#    x 2.105070 0.000000 0.011510 
#    y 0.000000 2.161150 0.000000 
#    z 0.011510 0.000000 2.120630 
# 
# From -- ./inp_files/241995.got.cif
#   From: 2010.05.17/outbox.cif.g08.bks.cpg/sg15_121_cif.got.tgz:241995.got - 2010.06.03 18:47:42.
