data_PCOD9280459
_publ_section_title
;
Structure prediction by ZEFSAII (Michael W. Deem and Ramdas Pophale) SiO2 
 PCOD9280459
Probable space group: C 2/C
;
_chemical_formula_sum "Si O2"
_cell_formula_units_Z 40
_cell_length_a 25.132217
_cell_length_b 9.627346
_cell_length_c 14.543695
_cell_angle_alpha 90.000000
_cell_angle_beta 30.232956
_cell_angle_gamma 90.000000
_cell_volume 1771.847196
_symmetry_space_group_name_H-M "C 2/C"
_symmetry_group_IT_number 15
_symmetry_cell_setting 'monoclinic'
loop_
_space_group_symop_operation_xyz
x,y,z
-x,y,1/2-z
-x,-y,-z
x,-y,1/2+z
1/2+x,1/2+y,z
1/2-x,1/2+y,1/2-z
1/2-x,1/2-y,-z
1/2+x,1/2-y,1/2+z
loop_
_atom_site_type_symbol
_atom_site_label
_atom_site_fract_x
_atom_site_fract_y
_atom_site_fract_z
Si Si1 0.917504 0.873046 0.177178
Si Si2 0.615822 0.035307 0.783051
Si Si3 0.884314 0.654696 0.381291
Si Si4 0.347571 0.347739 0.719358
Si Si5 0.209800 0.296448 0.758459
O O1 0.872699 0.773497 0.321539
O O2 0.892286 0.796408 0.117025
O O3 0.858618 0.019944 0.268983
O O4 0.043634 0.876824 0.001073
O O5 0.639667 0.196892 0.756069
O O6 0.621562 0.984920 0.669543
O O7 0.695124 0.939256 0.724055
O O8 0.500000 0.000000 0.000000
O O9 0.801392 0.695002 0.582957
O O10 0.000000 0.661120 0.250000
O O11 0.245477 0.339254 0.806651
#
# Coordination Sequence:
#
# PCOD9280459 Si02
#       5
#     8   8   8   8   8
#     4  10  21  37  60  88 120 151 202 247 298 357
#     4  11  20  37  60  89 118 152 205 249 287 359
#     4  11  21  40  62  85 122 166 200 239 307 367
#     4  11  21  37  61  90 117 154 200 252 295 355
#     4  11  21  39  63  87 118 164 198 242 308 361
#
# _framework density 22.575310999999999
#
# number of rings (size 3 to 8) (size 9 to 14) (size 15 to 20)
#    0.000    1.200    6.000    3.600    0.000    0.000 
#    0.000    5.000    0.000    0.000    0.000    0.000 
#    0.000    0.000    0.000    0.000    0.000    0.000 
#
# Total GULP energy -111699.255440 kJ/mol
# GULP energy per Si atom -5584.962772 kJ/mol
# Density = 2.252393 g / cm^3
# Si number density = 22.575311 Si / 1000 Ang^3
#
#
#
# Elastic Constant Matrix: (Units=GPa)
#
#
# Indices 1 2 3 4 5 6 
#
# 1 99.3071 63.2855 2.1121 0.0000 -19.4883 0.0000
# 2 63.2855 190.5610 -16.2368 0.0000 -8.5260 0.0000
# 3 2.1121 -16.2368 48.6828 0.0000 -9.7840 0.0000
# 4 0.0000 0.0000 0.0000 24.8718 0.0000 0.2816
# 5 -19.4883 -8.5260 -9.7840 0.0000 29.2880 0.0000
# 6 0.0000 0.0000 0.0000 0.2816 0.0000 23.8788
#
#
#
# Elastic Compliance Matrix: (Units=1/GPa)
#
#
# Indices 1 2 3 4 5 6 
#
# 1 0.014568 -0.004512 -0.000485 0.000000 0.008218 0.000000
# 2 -0.004512 0.006951 0.002484 0.000000 -0.000149 0.000000
# 3 -0.000485 0.002484 0.023016 0.000000 0.008089 0.000000
# 4 0.000000 0.000000 0.000000 0.040212 0.000000 -0.000474
# 5 0.008218 -0.000149 0.008089 0.000000 0.042271 0.000000
# 6 0.000000 0.000000 0.000000 -0.000474 0.000000 0.041884
#
#
# Mechanical properties :
#
#
# Convention : Reuss Voigt Hill
#
# Bulk Modulus (GPa) = 25.30998 48.54139 36.92568
# Shear Modulus (GPa) = 26.72407 34.90039 30.81223
#
# Velocity S-wave (km/s) = 3.44433 3.93613 3.69841
# Velocity P-wave (km/s) = 5.20131 6.49662 5.88471
#
# Compressibility (1/GPa) = 0.03951011
#
# Stress axis : x y z
#
# Youngs Moduli (GPa) = 68.64358 143.86388 43.44717
#
# Poissons Ratio (x) = 0.64907 0.02108
# Poissons Ratio (y) = 0.30970 -0.10793
# Poissons Ratio (z) = 0.03330 -0.35738
#
# Static dielectric constant tensor:
#      x y z
#    x 1.838720 0.000000 -0.009860 
#    y 0.000000 1.868590 0.000000 
#    z -0.009860 0.000000 1.909210 
# 
# From -- ./inp_files/208887.got.cif
#   From: 2010.05.17/outbox.cif.g08.bks.cpg/sg15_105_cif.got.tgz:208887.got - 2010.06.03 18:47:42.
