data_PCOD9280765
_publ_section_title
;
Structure prediction by ZEFSAII (Michael W. Deem and Ramdas Pophale) SiO2 
 PCOD9280765
Probable space group: C 2/C
;
_chemical_formula_sum "Si O2"
_cell_formula_units_Z 56
_cell_length_a 16.522506
_cell_length_b 9.063752
_cell_length_c 18.087105
_cell_angle_alpha 90.000000
_cell_angle_beta 77.494548
_cell_angle_gamma 90.000000
_cell_volume 2644.388997
_symmetry_space_group_name_H-M "C 2/C"
_symmetry_group_IT_number 15
_symmetry_cell_setting 'monoclinic'
loop_
_space_group_symop_operation_xyz
x,y,z
-x,y,1/2-z
-x,-y,-z
x,-y,1/2+z
1/2+x,1/2+y,z
1/2-x,1/2+y,1/2-z
1/2-x,1/2-y,-z
1/2+x,1/2-y,1/2+z
loop_
_atom_site_type_symbol
_atom_site_label
_atom_site_fract_x
_atom_site_fract_y
_atom_site_fract_z
Si Si1 0.711537 0.399371 0.476174
Si Si2 0.364608 0.039907 0.369094
Si Si3 0.027292 0.472520 0.910464
Si Si4 0.672740 0.922958 0.789047
Si Si5 0.626419 0.622648 0.593116
Si Si6 0.448669 0.626467 0.592792
Si Si7 0.345918 0.583598 0.742658
O O1 0.750000 0.250000 0.500000
O O2 0.780025 0.458451 0.405733
O O3 0.696935 0.521403 0.542865
O O4 0.623884 0.370980 0.453203
O O5 0.448807 0.965695 0.381577
O O6 0.372645 0.050572 0.279877
O O7 0.356838 0.201485 0.409710
O O8 0.119658 0.508453 0.863039
O O9 0.033283 0.297999 0.891468
O O10 0.000000 0.500000 0.000000
O O11 0.679411 0.744476 0.785984
O O12 0.764499 0.986497 0.766210
O O13 0.543656 0.580014 0.563458
O O14 0.616360 0.593243 0.682699
O O15 0.412399 0.534192 0.668767
#
# Coordination Sequence:
#
# PCOD9280765 Si02
#       7
#     8   8   8   8   8   8   8
#     4  12  24  38  63  92 131 162 203 263 320 363
#     4  10  21  41  60  88 120 167 209 249 305 378
#     4  10  21  37  63  93 124 162 208 255 310 371
#     4  10  21  39  61  91 124 161 206 258 310 370
#     4  10  23  39  64  89 121 167 213 254 303 379
#     4  10  21  42  61  90 128 167 207 254 317 371
#     4  10  21  38  66  91 120 164 211 260 309 372
#
# _framework density 21.176915999999999
#
# number of rings (size 3 to 8) (size 9 to 14) (size 15 to 20)
#    0.000    1.714    1.429    2.571    6.000    3.429 
#    2.571    1.429    0.000    5.143    0.000    0.000 
#    0.000    0.000    0.000    0.000    0.000    0.000 
#
# Total GULP energy -155951.516618 kJ/mol
# GULP energy per Si atom -5569.697022 kJ/mol
# Density = 2.112872 g / cm^3
# Si number density = 21.176916 Si / 1000 Ang^3
#
#
#
# Elastic Constant Matrix: (Units=GPa)
#
#
# Indices 1 2 3 4 5 6 
#
# 1 97.8830 22.3948 0.5853 0.0000 2.4932 0.0000
# 2 22.3948 26.2064 8.6642 0.0000 -8.4120 0.0000
# 3 0.5853 8.6642 51.3584 0.0000 -9.9656 0.0000
# 4 0.0000 0.0000 0.0000 24.5540 0.0000 -6.2006
# 5 2.4932 -8.4120 -9.9656 0.0000 40.3246 0.0000
# 6 0.0000 0.0000 0.0000 -6.2006 0.0000 16.1369
#
#
#
# Elastic Compliance Matrix: (Units=1/GPa)
#
#
# Indices 1 2 3 4 5 6 
#
# 1 0.013205 -0.012750 0.001393 0.000000 -0.003132 0.000000
# 2 -0.012750 0.054747 -0.007060 0.000000 0.010464 0.000000
# 3 0.001393 -0.007060 0.021368 0.000000 0.003722 0.000000
# 4 0.000000 0.000000 0.000000 0.045103 0.000000 0.017331
# 5 -0.003132 0.010464 0.003722 0.000000 0.028095 0.000000
# 6 0.000000 0.000000 0.000000 0.017331 0.000000 0.068629
#
#
# Mechanical properties :
#
#
# Convention : Reuss Voigt Hill
#
# Bulk Modulus (GPa) = 19.05283 26.52625 22.78954
# Shear Modulus (GPa) = 17.51451 25.79001 21.65226
#
# Velocity S-wave (km/s) = 2.87898 3.49354 3.20104
# Velocity P-wave (km/s) = 4.47972 5.36901 4.94440
#
# Compressibility (1/GPa) = 0.05248565
#
# Stress axis : x y z
#
# Youngs Moduli (GPa) = 75.72996 18.26578 46.79816
#
# Poissons Ratio (x) = 0.23289 -0.06518
# Poissons Ratio (y) = 0.96556 0.33040
# Poissons Ratio (z) = -0.10547 0.12896
#
# Static dielectric constant tensor:
#      x y z
#    x 1.813840 0.000000 -0.036350 
#    y 0.000000 1.776010 0.000000 
#    z -0.036350 0.000000 1.840060 
# 
# From -- ./inp_files/209509.got.cif
#   From: 2010.05.17/outbox.cif.g08.bks.cpg/sg15_105_cif.got.tgz:209509.got - 2010.06.03 18:47:42.
