data_PCOD9280841
_publ_section_title
;
Structure prediction by ZEFSAII (Michael W. Deem and Ramdas Pophale) SiO2 
 PCOD9280841
Probable space group: C 2/C
;
_chemical_formula_sum "Si O2"
_cell_formula_units_Z 44
_cell_length_a 20.566319
_cell_length_b 18.742068
_cell_length_c 16.448988
_cell_angle_alpha 90.000000
_cell_angle_beta 161.063440
_cell_angle_gamma 90.000000
_cell_volume 2057.577123
_symmetry_space_group_name_H-M "C 2/C"
_symmetry_group_IT_number 15
_symmetry_cell_setting 'monoclinic'
loop_
_space_group_symop_operation_xyz
x,y,z
-x,y,1/2-z
-x,-y,-z
x,-y,1/2+z
1/2+x,1/2+y,z
1/2-x,1/2+y,1/2-z
1/2-x,1/2-y,-z
1/2+x,1/2-y,1/2+z
loop_
_atom_site_type_symbol
_atom_site_label
_atom_site_fract_x
_atom_site_fract_y
_atom_site_fract_z
Si Si1 0.334183 0.184270 0.148129
Si Si2 0.500000 0.563715 0.750000
Si Si3 0.993733 0.682463 0.980021
Si Si4 0.898440 0.014634 0.291227
Si Si5 0.858034 0.839584 0.807574
Si Si6 0.727965 0.883848 0.142590
O O1 0.348996 0.202129 0.262060
O O2 0.250000 0.250000 0.000000
O O3 0.191103 0.116015 0.970299
O O4 0.434330 0.164436 0.093775
O O5 0.494027 0.516374 0.661138
O O6 0.137552 0.649896 0.083212
O O7 0.888619 0.755529 0.826949
O O8 0.841341 0.628589 0.845198
O O9 0.875024 0.099518 0.259262
O O10 0.709212 0.962590 0.083117
O O11 0.000000 0.000000 0.500000
O O12 0.041900 0.858043 0.087348
#
# Coordination Sequence:
#
# PCOD9280841 Si02
#       6
#     8   4   8   8   8   8
#     4  10  24  34  62  93 140 170 206 266 345 405
#     4  12  26  42  62 100 136 176 226 272 336 416
#     4  10  21  37  64  97 128 167 223 269 328 403
#     4  10  24  43  65  90 136 183 221 276 335 402
#     4  11  20  41  62  91 131 172 229 270 325 395
#     4   9  22  39  60  94 133 174 218 257 345 399
#
# _framework density 21.384374999999999
#
# number of rings (size 3 to 8) (size 9 to 14) (size 15 to 20)
#    1.091    0.727    1.818    2.182   10.182    1.455 
#    3.273    0.909    0.000    1.091    0.000    0.000 
#    0.000    0.000    0.000    0.000    0.000    0.000 
#
# Total GULP energy -122472.478307 kJ/mol
# GULP energy per Si atom -5566.930832 kJ/mol
# Density = 2.133570 g / cm^3
# Si number density = 21.384375 Si / 1000 Ang^3
#
#
#
# Elastic Constant Matrix: (Units=GPa)
#
#
# Indices 1 2 3 4 5 6 
#
# 1 104.9025 53.8176 22.6086 0.0000 9.6741 0.0001
# 2 53.8176 88.0701 21.4187 0.0000 -0.0269 0.0000
# 3 22.6086 21.4187 31.7898 0.0000 19.3815 0.0001
# 4 0.0000 0.0000 0.0000 18.5094 0.0000 -3.7976
# 5 9.6741 -0.0269 19.3815 0.0000 28.9194 0.0001
# 6 0.0001 0.0000 0.0001 -3.7976 0.0001 38.7723
#
#
#
# Elastic Compliance Matrix: (Units=1/GPa)
#
#
# Indices 1 2 3 4 5 6 
#
# 1 0.014685 -0.008180 -0.003269 0.000000 -0.002729 0.000000
# 2 -0.008180 0.020273 -0.016100 0.000000 0.013545 0.000000
# 3 -0.003269 -0.016100 0.074351 0.000000 -0.048751 0.000000
# 4 0.000000 0.000000 0.000000 0.055135 0.000000 0.005400
# 5 -0.002729 0.013545 -0.048751 0.000000 0.068177 0.000000
# 6 0.000000 0.000000 0.000000 0.005400 0.000000 0.026321
#
#
# Mechanical properties :
#
#
# Convention : Reuss Voigt Hill
#
# Bulk Modulus (GPa) = 18.44587 46.71692 32.58139
# Shear Modulus (GPa) = 15.05533 25.70138 20.37835
#
# Velocity S-wave (km/s) = 2.65624 3.47057 3.09035
# Velocity P-wave (km/s) = 4.24877 6.16064 5.29177
#
# Compressibility (1/GPa) = 0.05421269
#
# Stress axis : x y z
#
# Youngs Moduli (GPa) = 68.09569 49.32769 13.44969
#
# Poissons Ratio (x) = 0.40348 0.04396
# Poissons Ratio (y) = 0.55700 0.21654
# Poissons Ratio (z) = 0.22259 0.79416
#
# Static dielectric constant tensor:
#      x y z
#    x 1.875770 0.000000 -0.010090 
#    y 0.000000 1.928370 0.000000 
#    z -0.010090 0.000000 1.816280 
# 
# From -- ./inp_files/163138.got.cif
#   From: 2010.05.17/outbox.cif.g08.bks.cpg/sg15_82_cif.got.tgz:163138.got - 2010.06.03 18:47:42.
