data_PCOD9280035
_publ_section_title
;
Structure prediction by ZEFSAII (Michael W. Deem and Ramdas Pophale) SiO2 
 PCOD9280035
Probable space group: C 2/C
;
_chemical_formula_sum "Si O2"
_cell_formula_units_Z 48
_cell_length_a 14.471650
_cell_length_b 16.837144
_cell_length_c 8.322926
_cell_angle_alpha 90.000000
_cell_angle_beta 113.100229
_cell_angle_gamma 90.000000
_cell_volume 1865.371448
_symmetry_space_group_name_H-M "C 2/C"
_symmetry_group_IT_number 15
_symmetry_cell_setting 'monoclinic'
loop_
_space_group_symop_operation_xyz
x,y,z
-x,y,1/2-z
-x,-y,-z
x,-y,1/2+z
1/2+x,1/2+y,z
1/2-x,1/2+y,1/2-z
1/2-x,1/2-y,-z
1/2+x,1/2-y,1/2+z
loop_
_atom_site_type_symbol
_atom_site_label
_atom_site_fract_x
_atom_site_fract_y
_atom_site_fract_z
Si Si1 0.183271 0.022043 0.528520
Si Si2 0.332320 0.121806 0.421459
Si Si3 0.500000 0.384637 0.750000
Si Si4 0.500000 0.856912 0.250000
Si Si5 0.850818 0.766276 0.784797
Si Si6 0.880582 0.891909 0.199732
Si Si7 0.380868 0.784858 0.664914
O O1 0.276643 0.055592 0.491721
O O2 0.083882 0.061703 0.385204
O O3 0.171845 0.053115 0.701374
O O4 0.167875 0.928239 0.494954
O O5 0.450251 0.108088 0.556711
O O6 0.243757 0.191977 0.364801
O O7 0.347131 0.137847 0.239789
O O8 0.444043 0.328388 0.839253
O O9 0.600690 0.806328 0.279878
O O10 0.841737 0.733282 0.959085
O O11 0.861279 0.801179 0.235748
O O12 0.000000 0.898809 0.250000
O O13 0.500000 0.789848 0.750000
#
# Coordination Sequence:
#
# PCOD9280035 Si02
#       7
#     8   8   4   4   8   8   8
#     4  11  24  40  63  96 135 179 220 260 340 405
#     4  11  25  41  66  97 137 177 223 280 336 397
#     4   9  18  34  60  94 136 168 205 262 326 415
#     4  11  22  40  62  92 140 172 225 280 330 393
#     4  10  21  36  63  95 133 172 216 270 336 395
#     4  11  24  38  66  98 141 173 211 271 341 409
#     4  11  22  40  64 104 138 170 215 284 344 399
#
# _framework density 25.732140999999999
#
# number of rings (size 3 to 8) (size 9 to 14) (size 15 to 20)
#    0.000    1.333    2.500    3.500   11.667    0.000 
#    0.000    0.000    0.000    1.000    0.000    0.000 
#    0.000    0.000    0.000    0.000    0.000    0.000 
#
# Total GULP energy -133628.385036 kJ/mol
# GULP energy per Si atom -5567.849377 kJ/mol
# Density = 2.567357 g / cm^3
# Si number density = 25.732141 Si / 1000 Ang^3
#
#
#
# Elastic Constant Matrix: (Units=GPa)
#
#
# Indices 1 2 3 4 5 6 
#
# 1 136.2305 31.4585 57.5575 0.0000 23.7881 0.0000
# 2 31.4585 16.5995 19.5489 0.0000 -2.5047 0.0000
# 3 57.5575 19.5489 95.8620 0.0000 15.5862 0.0000
# 4 0.0000 0.0000 0.0000 17.0556 0.0000 18.9716
# 5 23.7881 -2.5047 15.5862 0.0000 62.7947 0.0000
# 6 0.0000 0.0000 0.0000 18.9716 0.0000 -61.3131
#
#
#
# Elastic Compliance Matrix: (Units=1/GPa)
#
#
# Indices 1 2 3 4 5 6 
#
# 1 0.016282 -0.028423 -0.002910 0.000000 -0.006580 0.000000
# 2 -0.028423 0.132418 -0.013075 0.000000 0.019294 0.000000
# 3 -0.002910 -0.013075 0.015371 0.000000 -0.003234 0.000000
# 4 0.000000 0.000000 0.000000 0.043619 0.000000 0.013497
# 5 -0.006580 0.019294 -0.003234 0.000000 0.019990 0.000000
# 6 0.000000 0.000000 0.000000 0.013497 0.000000 -0.012134
#
#
# Mechanical properties :
#
#
# Convention : Reuss Voigt Hill
#
# Bulk Modulus (GPa) = 13.28812 51.75795 32.52304
# Shear Modulus (GPa) = 15.17686 13.04925 14.11306
#
# Velocity S-wave (km/s) = 2.43122 2.25437 2.34446
# Velocity P-wave (km/s) = 3.61335 5.18980 4.47160
#
# Compressibility (1/GPa) = 0.07525520
#
# Stress axis : x y z
#
# Youngs Moduli (GPa) = 61.41564 7.55184 65.05629
#
# Poissons Ratio (x) = 0.21465 0.18934
# Poissons Ratio (y) = 1.74562 0.85061
# Poissons Ratio (z) = 0.17874 0.09874
#
# Static dielectric constant tensor:
#      x y z
#    x 1.959670 0.000000 -0.206050 
#    y 0.000000 2.195030 0.000000 
#    z -0.206050 0.000000 1.880370 
# 
# From -- ./inp_files/40976.got.cif
#   From: 2010.05.17/outbox.cif.g08.bks.cpg/sg15_21_cif.got.tgz:40976.got - 2010.06.03 18:47:42.
