data_PCOD9280156
_publ_section_title
;
Structure prediction by ZEFSAII (Michael W. Deem and Ramdas Pophale) SiO2 
 PCOD9280156
Probable space group: C 2/C
;
_chemical_formula_sum "Si O2"
_cell_formula_units_Z 48
_cell_length_a 16.930027
_cell_length_b 18.449081
_cell_length_c 13.637356
_cell_angle_alpha 90.000000
_cell_angle_beta 36.786648
_cell_angle_gamma 90.000000
_cell_volume 2550.769290
_symmetry_space_group_name_H-M "C 2/C"
_symmetry_group_IT_number 15
_symmetry_cell_setting 'monoclinic'
loop_
_space_group_symop_operation_xyz
x,y,z
-x,y,1/2-z
-x,-y,-z
x,-y,1/2+z
1/2+x,1/2+y,z
1/2-x,1/2+y,1/2-z
1/2-x,1/2-y,-z
1/2+x,1/2-y,1/2+z
loop_
_atom_site_type_symbol
_atom_site_label
_atom_site_fract_x
_atom_site_fract_y
_atom_site_fract_z
Si Si1 0.154364 0.487487 0.585845
Si Si2 0.147316 0.196103 0.381215
Si Si3 0.635590 0.540873 0.964187
Si Si4 0.159428 0.057688 0.253873
Si Si5 0.144062 0.822405 0.314953
Si Si6 0.719376 0.336399 0.025725
O O1 0.250297 0.523569 0.571942
O O2 0.221702 0.518632 0.420188
O O3 0.171296 0.399854 0.575912
O O4 0.000000 0.505460 0.750000
O O5 0.182793 0.141541 0.257740
O O6 0.238449 0.265949 0.291801
O O7 0.162098 0.157682 0.473294
O O8 0.994317 0.215732 0.525476
O O9 0.640235 0.478386 0.878678
O O10 0.659837 0.613235 0.876504
O O11 0.484515 0.546800 0.152915
O O12 0.139305 0.849491 0.206268
O O13 0.750000 0.250000 0.000000
#
# Coordination Sequence:
#
# PCOD9280156 Si02
#       6
#     8   8   8   8   8   8
#     4  12  25  39  60  92 122 153 197 253 296 338
#     4  10  21  37  61  88 119 157 197 242 294 351
#     4  10  21  40  62  85 117 161 200 237 293 360
#     4  10  21  40  62  85 117 161 200 237 293 360
#     4  10  21  37  61  88 119 157 197 242 294 351
#     4  10  21  37  54  86 124 157 186 229 296 358
#
# _framework density 18.817852999999999
#
# number of rings (size 3 to 8) (size 9 to 14) (size 15 to 20)
#    0.000    1.667    3.333    1.000    0.000    8.667 
#    0.000    0.833    0.000    0.000    0.000    0.000 
#    0.000    0.000    0.000    0.000    0.000    0.000 
#
# Total GULP energy -133650.483723 kJ/mol
# GULP energy per Si atom -5568.770155 kJ/mol
# Density = 1.877502 g / cm^3
# Si number density = 18.817853 Si / 1000 Ang^3
#
#
#
# Elastic Constant Matrix: (Units=GPa)
#
#
# Indices 1 2 3 4 5 6 
#
# 1 59.8027 26.8600 23.0271 -0.0001 -6.7141 0.0000
# 2 26.8600 76.6155 45.0133 0.0000 -9.2016 0.0000
# 3 23.0271 45.0133 92.6055 -0.0002 -15.0956 0.0001
# 4 -0.0001 0.0000 -0.0002 24.3753 0.0001 -1.5695
# 5 -6.7141 -9.2016 -15.0956 0.0001 27.1069 0.0000
# 6 0.0000 0.0000 0.0001 -1.5695 0.0000 20.8918
#
#
#
# Elastic Compliance Matrix: (Units=1/GPa)
#
#
# Indices 1 2 3 4 5 6 
#
# 1 0.020262 -0.005732 -0.001926 0.000000 0.002000 0.000000
# 2 -0.005732 0.019938 -0.008133 0.000000 0.000819 0.000000
# 3 -0.001926 -0.008133 0.016171 0.000000 0.005768 0.000000
# 4 0.000000 0.000000 0.000000 0.041225 0.000000 0.003097
# 5 0.002000 0.000819 0.005768 0.000000 0.040877 0.000000
# 6 0.000000 0.000000 0.000000 0.003097 0.000000 0.048098
#
#
# Mechanical properties :
#
#
# Convention : Reuss Voigt Hill
#
# Bulk Modulus (GPa) = 40.33877 46.53605 43.43741
# Shear Modulus (GPa) = 22.08334 23.41634 22.74984
#
# Velocity S-wave (km/s) = 3.42940 3.53139 3.48077
# Velocity P-wave (km/s) = 6.09623 6.43514 6.26798
#
# Compressibility (1/GPa) = 0.02479005
#
# Stress axis : x y z
#
# Youngs Moduli (GPa) = 49.35276 50.15521 61.84012
#
# Poissons Ratio (x) = 0.28747 0.11912
# Poissons Ratio (y) = 0.28287 0.50292
# Poissons Ratio (z) = 0.09507 0.40789
#
# Static dielectric constant tensor:
#      x y z
#    x 1.672060 0.000000 0.011100 
#    y 0.000000 1.674370 0.000000 
#    z 0.011100 0.000000 1.650010 
# 
# From -- ./inp_files/163170.got.cif
#   From: 2010.05.17/outbox.cif.g08.bks.cpg/sg15_82_cif.got.tgz:163170.got - 2010.06.03 18:47:42.
