data_PCOD9280602
_publ_section_title
;
Structure prediction by ZEFSAII (Michael W. Deem and Ramdas Pophale) SiO2 
 PCOD9280602
Probable space group: C 2/C
;
_chemical_formula_sum "Si O2"
_cell_formula_units_Z 56
_cell_length_a 13.614231
_cell_length_b 26.386882
_cell_length_c 7.896281
_cell_angle_alpha 90.000000
_cell_angle_beta 72.410993
_cell_angle_gamma 90.000000
_cell_volume 2704.020566
_symmetry_space_group_name_H-M "C 2/C"
_symmetry_group_IT_number 15
_symmetry_cell_setting 'monoclinic'
loop_
_space_group_symop_operation_xyz
x,y,z
-x,y,1/2-z
-x,-y,-z
x,-y,1/2+z
1/2+x,1/2+y,z
1/2-x,1/2+y,1/2-z
1/2-x,1/2-y,-z
1/2+x,1/2-y,1/2+z
loop_
_atom_site_type_symbol
_atom_site_label
_atom_site_fract_x
_atom_site_fract_y
_atom_site_fract_z
Si Si1 0.418247 0.181251 0.090896
Si Si2 0.867121 0.640505 0.466916
Si Si3 0.039322 0.789544 0.536186
Si Si4 0.962349 0.893794 0.580140
Si Si5 0.340032 0.554224 0.628257
Si Si6 0.223615 0.945624 0.957785
Si Si7 0.259066 0.839705 0.375502
O O1 0.358920 0.173000 0.298548
O O2 0.513588 0.142283 0.041882
O O3 0.469726 0.236567 0.053888
O O4 0.346167 0.173546 0.966252
O O5 0.828943 0.584147 0.436878
O O6 0.801604 0.661681 0.660224
O O7 0.159768 0.804902 0.462705
O O8 0.000000 0.781399 0.750000
O O9 0.980070 0.838443 0.489470
O O10 0.846420 0.912144 0.630237
O O11 0.000000 0.885656 0.750000
O O12 0.039841 0.937296 0.475442
O O13 0.284580 0.503107 0.598106
O O14 0.333037 0.556582 0.832972
O O15 0.281164 0.602708 0.583119
#
# Coordination Sequence:
#
# PCOD9280602 Si02
#       7
#     8   8   8   8   8   8   8
#     4  11  23  44  67  86 135 172 223 277 317 377
#     4  10  25  42  62  99 119 178 223 268 324 376
#     4  10  22  39  66 101 127 173 216 256 332 391
#     4  10  21  37  61  93 130 165 202 257 322 394
#     4  10  22  37  62  95 119 170 201 258 333 378
#     4  11  22  40  62  88 131 156 215 262 316 403
#     4  10  22  43  68  94 132 167 216 270 322 391
#
# _framework density 20.709902
#
# number of rings (size 3 to 8) (size 9 to 14) (size 15 to 20)
#    0.000    1.714    0.000    3.429    8.000    0.571 
#   15.429    0.714    3.143    0.000    0.000    0.000 
#    0.000    0.000    0.000    0.000    0.000    0.000 
#
# Total GULP energy -156298.763291 kJ/mol
# GULP energy per Si atom -5582.098689 kJ/mol
# Density = 2.066277 g / cm^3
# Si number density = 20.709902 Si / 1000 Ang^3
#
#
#
# Elastic Constant Matrix: (Units=GPa)
#
#
# Indices 1 2 3 4 5 6 
#
# 1 76.8361 41.1424 13.8896 0.0000 -9.1144 0.0000
# 2 41.1424 90.3741 16.3864 0.0000 0.7427 0.0000
# 3 13.8896 16.3864 110.1297 0.0000 -7.3347 0.0000
# 4 0.0000 0.0000 0.0000 19.1904 0.0000 -8.5361
# 5 -9.1144 0.7427 -7.3347 0.0000 25.9072 0.0000
# 6 0.0000 0.0000 0.0000 -8.5361 0.0000 8.0957
#
#
#
# Elastic Compliance Matrix: (Units=1/GPa)
#
#
# Indices 1 2 3 4 5 6 
#
# 1 0.018340 -0.008285 -0.000647 0.000000 0.006507 0.000000
# 2 -0.008285 0.015132 -0.001457 0.000000 -0.003761 0.000000
# 3 -0.000647 -0.001457 0.009546 0.000000 0.002517 0.000000
# 4 0.000000 0.000000 0.000000 0.098137 0.000000 0.103476
# 5 0.006507 -0.003761 0.002517 0.000000 0.041709 0.000000
# 6 0.000000 0.000000 0.000000 0.103476 0.000000 0.232629
#
#
# Mechanical properties :
#
#
# Convention : Reuss Voigt Hill
#
# Bulk Modulus (GPa) = 44.96491 46.68629 45.82560
# Shear Modulus (GPa) = 11.26926 24.36676 17.81801
#
# Velocity S-wave (km/s) = 2.33523 3.43385 2.93637
# Velocity P-wave (km/s) = 5.38795 6.18980 5.80274
#
# Compressibility (1/GPa) = 0.02223957
#
# Stress axis : x y z
#
# Youngs Moduli (GPa) = 54.52595 66.08482 104.75357
#
# Poissons Ratio (x) = 0.54753 0.06777
# Poissons Ratio (y) = 0.45177 0.15263
# Poissons Ratio (z) = 0.03527 0.09629
#
# Static dielectric constant tensor:
#      x y z
#    x 1.751750 0.000000 -0.008580 
#    y 0.000000 -0.688030 0.000000 
#    z -0.008580 0.000000 1.777630 
# 
# From -- ./inp_files/42107.got.cif
#   From: 2010.05.17/outbox.cif.g08.bks.cpg/sg15_22_cif.got.tgz:42107.got - 2010.06.03 18:47:42.
