data_PCOD9280760
_publ_section_title
;
Structure prediction by ZEFSAII (Michael W. Deem and Ramdas Pophale) SiO2 
 PCOD9280760
Probable space group: C 2/C
;
_chemical_formula_sum "Si O2"
_cell_formula_units_Z 64
_cell_length_a 25.938959
_cell_length_b 7.772206
_cell_length_c 13.317822
_cell_angle_alpha 90.000000
_cell_angle_beta 102.658561
_cell_angle_gamma 90.000000
_cell_volume 2619.650602
_symmetry_space_group_name_H-M "C 2/C"
_symmetry_group_IT_number 15
_symmetry_cell_setting 'monoclinic'
loop_
_space_group_symop_operation_xyz
x,y,z
-x,y,1/2-z
-x,-y,-z
x,-y,1/2+z
1/2+x,1/2+y,z
1/2-x,1/2+y,1/2-z
1/2-x,1/2-y,-z
1/2+x,1/2-y,1/2+z
loop_
_atom_site_type_symbol
_atom_site_label
_atom_site_fract_x
_atom_site_fract_y
_atom_site_fract_z
Si Si1 0.819156 0.359894 0.847052
Si Si2 0.468543 0.935715 0.639827
Si Si3 0.171274 0.098461 0.993760
Si Si4 0.080648 0.941493 0.607507
Si Si5 0.187355 0.715881 0.950182
Si Si6 0.115724 0.787486 0.285136
Si Si7 0.523189 0.753069 0.477303
Si Si8 0.751585 0.467434 0.169131
O O1 0.868051 0.348800 0.793838
O O2 0.769347 0.459128 0.782070
O O3 0.796687 0.164002 0.836769
O O4 0.831207 0.403208 0.966340
O O5 0.500000 0.995915 0.750000
O O6 0.430271 0.789418 0.666032
O O7 0.505160 0.846406 0.572062
O O8 0.447090 0.107901 0.578296
O O9 0.161837 0.901440 0.949746
O O10 0.163154 0.197280 0.886147
O O11 0.227295 0.097020 0.075901
O O12 0.128348 0.139865 0.062583
O O13 0.031160 0.812841 0.598401
O O14 0.099200 0.039176 0.717315
O O15 0.057658 0.091510 0.525187
O O16 0.194880 0.622868 0.848815
O O17 0.250000 0.750000 0.000000
#
# Coordination Sequence:
#
# PCOD9280760 Si02
#       8
#     8   8   8   8   8   8   8   8
#     4  10  22  39  61  90 124 168 214 264 315 377
#     4  11  23  44  64  94 131 167 199 265 332 391
#     4  10  21  37  63  92 124 166 218 266 312 375
#     4  11  21  42  68  99 121 168 219 274 311 396
#     4   8  18  37  59  82 126 164 208 264 322 360
#     4  12  23  39  67  95 130 166 221 263 321 388
#     4  10  24  42  68  94 130 162 211 266 334 384
#     4  10  22  39  62  90 128 171 216 265 322 378
#
# _framework density 24.43074
#
# number of rings (size 3 to 8) (size 9 to 14) (size 15 to 20)
#    0.000    2.000    5.000    0.000    5.250    2.500 
#    0.000    1.250    0.000    0.000    0.000    0.000 
#    0.000    0.000    0.000    0.000    0.000    0.000 
#
# Total GULP energy -178605.349034 kJ/mol
# GULP energy per Si atom -5581.417157 kJ/mol
# Density = 2.437513 g / cm^3
# Si number density = 24.430740 Si / 1000 Ang^3
#
#
#
# Elastic Constant Matrix: (Units=GPa)
#
#
# Indices 1 2 3 4 5 6 
#
# 1 64.9044 6.6745 35.1377 0.0000 -3.1659 0.0000
# 2 6.6745 24.9037 22.0341 0.0000 -0.1212 0.0000
# 3 35.1377 22.0341 63.2893 0.0000 -9.6233 0.0000
# 4 0.0000 0.0000 0.0000 29.7486 0.0000 1.2283
# 5 -3.1659 -0.1212 -9.6233 0.0000 28.7089 0.0000
# 6 0.0000 0.0000 0.0000 1.2283 0.0000 22.6542
#
#
#
# Elastic Compliance Matrix: (Units=1/GPa)
#
#
# Indices 1 2 3 4 5 6 
#
# 1 0.023140 0.007988 -0.016054 0.000000 -0.002796 0.000000
# 2 0.007988 0.062105 -0.027273 0.000000 -0.007999 0.000000
# 3 -0.016054 -0.027273 0.035744 0.000000 0.010096 0.000000
# 4 0.000000 0.000000 0.000000 0.033690 0.000000 -0.001827
# 5 -0.002796 -0.007999 0.010096 0.000000 0.037874 0.000000
# 6 0.000000 0.000000 0.000000 -0.001827 0.000000 0.044241
#
#
# Mechanical properties :
#
#
# Convention : Reuss Voigt Hill
#
# Bulk Modulus (GPa) = 19.87589 31.19890 25.53740
# Shear Modulus (GPa) = 15.42053 22.17239 18.79646
#
# Velocity S-wave (km/s) = 2.51508 3.01584 2.77677
# Velocity P-wave (km/s) = 4.07277 4.99251 4.55591
#
# Compressibility (1/GPa) = 0.05031220
#
# Stress axis : x y z
#
# Youngs Moduli (GPa) = 43.21434 16.10170 27.97711
#
# Poissons Ratio (x) = -0.12862 0.44913
# Poissons Ratio (y) = -0.34520 0.76302
# Poissons Ratio (z) = 0.69374 0.43914
#
# Static dielectric constant tensor:
#      x y z
#    x 1.993100 0.000000 -0.011870 
#    y 0.000000 2.033690 0.000000 
#    z -0.011870 0.000000 1.996940 
# 
# From -- ./inp_files/176601.got.cif
#   From: 2010.05.17/outbox.cif.g08.bks.cpg/sg15_89_cif.got.tgz:176601.got - 2010.06.03 18:47:42.
