data_PCOD9280694
_publ_section_title
;
Structure prediction by ZEFSAII (Michael W. Deem and Ramdas Pophale) SiO2 
 PCOD9280694
Probable space group: C 2/C
;
_chemical_formula_sum "Si O2"
_cell_formula_units_Z 52
_cell_length_a 16.828356
_cell_length_b 28.631960
_cell_length_c 5.015953
_cell_angle_alpha 90.000000
_cell_angle_beta 102.510890
_cell_angle_gamma 90.000000
_cell_volume 2359.442691
_symmetry_space_group_name_H-M "C 2/C"
_symmetry_group_IT_number 15
_symmetry_cell_setting 'monoclinic'
loop_
_space_group_symop_operation_xyz
x,y,z
-x,y,1/2-z
-x,-y,-z
x,-y,1/2+z
1/2+x,1/2+y,z
1/2-x,1/2+y,1/2-z
1/2-x,1/2-y,-z
1/2+x,1/2-y,1/2+z
loop_
_atom_site_type_symbol
_atom_site_label
_atom_site_fract_x
_atom_site_fract_y
_atom_site_fract_z
Si Si1 0.000000 0.464969 0.250000
Si Si2 0.783605 0.389506 0.808324
Si Si3 0.500000 0.802975 0.250000
Si Si4 0.000000 0.034798 0.250000
Si Si5 0.636829 0.746585 0.666061
Si Si6 0.833110 0.969175 0.764096
Si Si7 0.192811 0.803039 0.701866
Si Si8 0.387288 0.118156 0.867057
O O1 0.927942 0.428181 0.269018
O O2 0.000000 0.500000 0.500000
O O3 0.747730 0.440147 0.835479
O O4 0.710647 0.356698 0.652648
O O5 0.853748 0.390109 0.637258
O O6 0.815526 0.369434 0.109850
O O7 0.560762 0.773620 0.482628
O O8 0.551955 0.838254 0.102385
O O9 0.086396 0.059407 0.271456
O O10 0.000000 0.000000 0.500000
O O11 0.716473 0.780015 0.745866
O O12 0.660109 0.706656 0.471469
O O13 0.633025 0.723001 0.952701
O O14 0.834607 0.013907 0.569940
#
# Coordination Sequence:
#
# PCOD9280694 Si02
#       8
#     4   8   4   4   8   8   8   8
#     4  11  24  44  60  84 131 178 219 278 330 367
#     4  12  23  41  62  94 133 165 213 277 318 388
#     4  11  24  44  65  96 124 174 220 280 305 405
#     4   8  16  34  57  84 115 148 203 250 297 374
#     4  10  22  39  66  86 123 158 218 255 331 390
#     4  10  21  37  62  94 124 168 213 255 318 383
#     4  10  22  40  60  95 119 165 199 274 331 381
#     4  11  26  39  63  93 124 171 230 263 324 378
#
# _framework density 22.039100999999999
#
# number of rings (size 3 to 8) (size 9 to 14) (size 15 to 20)
#    0.000    1.538    1.538    2.769    4.308    7.385 
#    0.000    0.769    0.000    7.385    0.000    0.000 
#    0.000    0.000    0.000    0.000    0.000    0.000 
#
# Total GULP energy -145173.511293 kJ/mol
# GULP energy per Si atom -5583.596588 kJ/mol
# Density = 2.198894 g / cm^3
# Si number density = 22.039101 Si / 1000 Ang^3
#
#
#
# Elastic Constant Matrix: (Units=GPa)
#
#
# Indices 1 2 3 4 5 6 
#
# 1 82.2615 24.5544 20.8674 0.0000 6.3842 0.0000
# 2 24.5544 63.1695 14.0156 0.0000 7.1862 0.0000
# 3 20.8674 14.0156 113.5638 0.0000 -1.0841 0.0000
# 4 0.0000 0.0000 0.0000 23.2816 0.0000 8.1953
# 5 6.3842 7.1862 -1.0841 0.0000 38.3759 0.0000
# 6 0.0000 0.0000 0.0000 8.1953 0.0000 32.4716
#
#
#
# Elastic Compliance Matrix: (Units=1/GPa)
#
#
# Indices 1 2 3 4 5 6 
#
# 1 0.014256 -0.004920 -0.002027 0.000000 -0.001508 0.000000
# 2 -0.004920 0.018353 -0.001386 0.000000 -0.002657 0.000000
# 3 -0.002027 -0.001386 0.009357 0.000000 0.000861 0.000000
# 4 0.000000 0.000000 0.000000 0.047140 0.000000 -0.011897
# 5 -0.001508 -0.002657 0.000861 0.000000 0.026831 0.000000
# 6 0.000000 0.000000 0.000000 -0.011897 0.000000 0.033799
#
#
# Mechanical properties :
#
#
# Convention : Reuss Voigt Hill
#
# Bulk Modulus (GPa) = 39.52610 41.98550 40.75580
# Shear Modulus (GPa) = 28.59820 32.12964 30.36392
#
# Velocity S-wave (km/s) = 3.60615 3.82232 3.71580
# Velocity P-wave (km/s) = 5.94243 6.21063 6.07801
#
# Compressibility (1/GPa) = 0.02529974
#
# Stress axis : x y z
#
# Youngs Moduli (GPa) = 70.14520 54.48747 106.86788
#
# Poissons Ratio (x) = 0.26809 0.21659
# Poissons Ratio (y) = 0.34513 0.14815
# Poissons Ratio (z) = 0.14217 0.07554
#
# Static dielectric constant tensor:
#      x y z
#    x 1.894260 0.000000 0.038280 
#    y 0.000000 1.895530 0.000000 
#    z 0.038280 0.000000 1.825250 
# 
# From -- ./inp_files/11352.got.cif
#   From: 2010.05.17/outbox.cif.g08.bks.cpg/sg15_6_cif.got.tgz:11352.got - 2010.06.03 18:47:42.
