data_PCOD9280239
_publ_section_title
;
Structure prediction by ZEFSAII (Michael W. Deem and Ramdas Pophale) SiO2 
 PCOD9280239
Probable space group: C 2/C
;
_chemical_formula_sum "Si O2"
_cell_formula_units_Z 40
_cell_length_a 9.555437
_cell_length_b 14.077551
_cell_length_c 23.315969
_cell_angle_alpha 90.000000
_cell_angle_beta 42.406488
_cell_angle_gamma 90.000000
_cell_volume 2115.142737
_symmetry_space_group_name_H-M "C 2/C"
_symmetry_group_IT_number 15
_symmetry_cell_setting 'monoclinic'
loop_
_space_group_symop_operation_xyz
x,y,z
-x,y,1/2-z
-x,-y,-z
x,-y,1/2+z
1/2+x,1/2+y,z
1/2-x,1/2+y,1/2-z
1/2-x,1/2-y,-z
1/2+x,1/2-y,1/2+z
loop_
_atom_site_type_symbol
_atom_site_label
_atom_site_fract_x
_atom_site_fract_y
_atom_site_fract_z
Si Si1 0.793705 0.352793 0.460872
Si Si2 0.240957 0.647634 0.664083
Si Si3 0.275992 0.348210 0.786145
Si Si4 0.506969 0.528673 0.366763
Si Si5 0.365724 0.982555 0.097723
O O1 0.750000 0.250000 0.500000
O O2 0.745258 0.343145 0.408572
O O3 0.641974 0.424620 0.540683
O O4 0.026168 0.393803 0.403025
O O5 0.310088 0.742820 0.677389
O O6 0.366623 0.556877 0.645425
O O7 0.000000 0.632135 0.750000
O O8 0.500000 0.342957 0.750000
O O9 0.341470 0.390091 0.704891
O O10 0.134130 0.426633 0.860228
O O11 0.367674 0.483897 0.357081
O O12 0.500000 0.000000 0.000000
#
# Coordination Sequence:
#
# PCOD9280239 Si02
#       5
#     8   8   8   8   8
#     4  11  21  37  58  83 113 149 186 227 280 334
#     4  11  21  36  58  85 113 145 182 233 283 328
#     4   9  18  35  57  78 108 150 187 220 274 335
#     4  10  21  37  57  82 111 146 189 231 273 332
#     4   9  18  35  56  78 107 148 187 221 265 329
#
# _framework density 18.911254
#
# number of rings (size 3 to 8) (size 9 to 14) (size 15 to 20)
#    0.000    2.000    0.000    6.600    0.000    0.000 
#    0.000   13.000    0.000    0.000    0.000    0.000 
#    0.000    0.000    0.000    0.000    0.000    0.000 
#
# Total GULP energy -111463.667197 kJ/mol
# GULP energy per Si atom -5573.183360 kJ/mol
# Density = 1.886821 g / cm^3
# Si number density = 18.911254 Si / 1000 Ang^3
#
#
#
# Elastic Constant Matrix: (Units=GPa)
#
#
# Indices 1 2 3 4 5 6 
#
# 1 64.1589 66.3828 29.0940 0.0000 11.2882 -0.0002
# 2 66.3828 153.8075 48.9566 -0.0003 -3.6360 0.0001
# 3 29.0940 48.9566 102.2931 -0.0008 14.4755 0.0002
# 4 0.0000 -0.0003 -0.0008 37.2644 0.0001 -0.4953
# 5 11.2882 -3.6360 14.4755 0.0001 22.1513 0.0001
# 6 -0.0002 0.0001 0.0002 -0.4953 0.0001 26.6123
#
#
#
# Elastic Compliance Matrix: (Units=1/GPa)
#
#
# Indices 1 2 3 4 5 6 
#
# 1 0.035716 -0.016088 0.000541 0.000000 -0.021194 0.000000
# 2 -0.016088 0.015258 -0.004673 0.000000 0.013757 0.000000
# 3 0.000541 -0.004673 0.013230 0.000000 -0.009688 0.000000
# 4 0.000000 0.000000 0.000000 0.026842 0.000000 0.000500
# 5 -0.021194 0.013757 -0.009688 0.000000 0.064534 -0.000001
# 6 0.000000 0.000000 0.000000 0.000500 -0.000001 0.037586
#
#
# Mechanical properties :
#
#
# Convention : Reuss Voigt Hill
#
# Bulk Modulus (GPa) = 42.08418 67.68070 54.88244
# Shear Modulus (GPa) = 20.70170 28.92734 24.81452
#
# Velocity S-wave (km/s) = 3.31218 3.91530 3.62630
# Velocity P-wave (km/s) = 6.07694 7.50371 6.82770
#
# Compressibility (1/GPa) = 0.02376190
#
# Stress axis : x y z
#
# Youngs Moduli (GPa) = 27.99899 65.54033 75.58793
#
# Poissons Ratio (x) = 1.05440 -0.04086
# Poissons Ratio (y) = 0.45044 0.35324
# Poissons Ratio (z) = -0.01514 0.30629
#
# Static dielectric constant tensor:
#      x y z
#    x 1.669810 0.000000 0.002690 
#    y 0.000000 1.656180 0.000000 
#    z 0.002690 0.000000 1.695390 
# 
# From -- ./inp_files/133084.got.cif
#   From: 2010.05.17/outbox.cif.g08.bks.cpg/sg15_67_cif.got.tgz:133084.got - 2010.06.03 18:47:42.
