data_PCOD9280057
_publ_section_title
;
Structure prediction by ZEFSAII (Michael W. Deem and Ramdas Pophale) SiO2 
 PCOD9280057
Probable space group: C 2/C
;
_chemical_formula_sum "Si O2"
_cell_formula_units_Z 32
_cell_length_a 16.403514
_cell_length_b 14.591487
_cell_length_c 10.009605
_cell_angle_alpha 90.000000
_cell_angle_beta 32.922125
_cell_angle_gamma 90.000000
_cell_volume 1302.122494
_symmetry_space_group_name_H-M "C 2/C"
_symmetry_group_IT_number 15
_symmetry_cell_setting 'monoclinic'
loop_
_space_group_symop_operation_xyz
x,y,z
-x,y,1/2-z
-x,-y,-z
x,-y,1/2+z
1/2+x,1/2+y,z
1/2-x,1/2+y,1/2-z
1/2-x,1/2-y,-z
1/2+x,1/2-y,1/2+z
loop_
_atom_site_type_symbol
_atom_site_label
_atom_site_fract_x
_atom_site_fract_y
_atom_site_fract_z
Si Si1 0.811551 0.900379 0.866863
Si Si2 0.767349 0.775095 0.320061
Si Si3 0.532313 0.580033 0.837286
Si Si4 0.566890 0.797310 0.337376
O O1 0.886479 0.800868 0.791933
O O2 0.874702 0.925376 0.631916
O O3 0.880105 0.991171 0.838759
O O4 0.645083 0.879129 0.148343
O O5 0.750000 0.750000 0.500000
O O6 0.857963 0.870495 0.210203
O O7 0.636869 0.791135 0.391406
O O8 0.887994 0.703315 0.093587
O O9 0.500000 0.638656 0.750000
#
# Coordination Sequence:
#
# PCOD9280057 Si02
#       4
#     8   8   8   8
#     4   9  21  36  59  95 120 159 214 267 312 371
#     4  11  22  41  64  93 126 170 213 262 329 393
#     4  10  21  36  64  92 125 165 218 265 312 384
#     4  10  22  38  65  90 128 166 211 265 320 393
#
# _framework density 24.575261999999999
#
# number of rings (size 3 to 8) (size 9 to 14) (size 15 to 20)
#    0.000    2.000    0.000    3.750   10.500    5.000 
#    0.000    1.250    5.500    0.000    0.000    0.000 
#    0.000    0.000    0.000    0.000    0.000    0.000 
#
# Total GULP energy -89072.690871 kJ/mol
# GULP energy per Si atom -5567.043179 kJ/mol
# Density = 2.451933 g / cm^3
# Si number density = 24.575262 Si / 1000 Ang^3
#
#
#
# Elastic Constant Matrix: (Units=GPa)
#
#
# Indices 1 2 3 4 5 6 
#
# 1 123.9056 11.2612 3.4239 0.0000 0.9044 0.0000
# 2 11.2612 107.8068 40.3068 0.0000 -2.0165 0.0000
# 3 3.4239 40.3068 107.2516 0.0000 21.0686 0.0000
# 4 0.0000 0.0000 0.0000 45.7857 0.0000 4.9934
# 5 0.9044 -2.0165 21.0686 0.0000 37.7877 0.0000
# 6 0.0000 0.0000 0.0000 4.9934 0.0000 13.2890
#
#
#
# Elastic Compliance Matrix: (Units=1/GPa)
#
#
# Indices 1 2 3 4 5 6 
#
# 1 0.008152 -0.000912 0.000147 0.000000 -0.000326 0.000000
# 2 -0.000912 0.011247 -0.004851 0.000000 0.003327 0.000000
# 3 0.000147 -0.004851 0.012571 0.000000 -0.007271 0.000000
# 4 0.000000 0.000000 0.000000 0.022774 0.000000 -0.008557
# 5 -0.000326 0.003327 -0.007271 0.000000 0.030703 0.000000
# 6 0.000000 0.000000 0.000000 -0.008557 0.000000 0.078466
#
#
# Mechanical properties :
#
#
# Convention : Reuss Voigt Hill
#
# Bulk Modulus (GPa) = 48.22610 49.88309 49.05459
# Shear Modulus (GPa) = 27.46364 38.30395 32.88380
#
# Velocity S-wave (km/s) = 3.34658 3.95224 3.66195
# Velocity P-wave (km/s) = 5.88211 6.41632 6.15501
#
# Compressibility (1/GPa) = 0.02073566
#
# Stress axis : x y z
#
# Youngs Moduli (GPa) = 122.67064 88.91123 79.54992
#
# Poissons Ratio (x) = 0.08113 -0.01166
# Poissons Ratio (y) = 0.11193 0.38592
# Poissons Ratio (z) = -0.01798 0.43133
#
# Static dielectric constant tensor:
#      x y z
#    x 2.056370 0.000000 -0.030450 
#    y 0.000000 2.091200 0.000000 
#    z -0.030450 0.000000 2.121560 
# 
# From -- ./inp_files/105604.got.cif
#   From: 2010.05.17/outbox.cif.g08.bks.cpg/sg15_53_cif.got.tgz:105604.got - 2010.06.03 18:47:42.
