data_PCOD9280908
_publ_section_title
;
Structure prediction by ZEFSAII (Michael W. Deem and Ramdas Pophale) SiO2 
 PCOD9280908
Probable space group: C 2/C
;
_chemical_formula_sum "Si O2"
_cell_formula_units_Z 36
_cell_length_a 18.748772
_cell_length_b 11.617667
_cell_length_c 8.374042
_cell_angle_alpha 90.000000
_cell_angle_beta 99.388794
_cell_angle_gamma 90.000000
_cell_volume 1799.574358
_symmetry_space_group_name_H-M "C 2/C"
_symmetry_group_IT_number 15
_symmetry_cell_setting 'monoclinic'
loop_
_space_group_symop_operation_xyz
x,y,z
-x,y,1/2-z
-x,-y,-z
x,-y,1/2+z
1/2+x,1/2+y,z
1/2-x,1/2+y,1/2-z
1/2-x,1/2-y,-z
1/2+x,1/2-y,1/2+z
loop_
_atom_site_type_symbol
_atom_site_label
_atom_site_fract_x
_atom_site_fract_y
_atom_site_fract_z
Si Si1 0.553277 0.199876 0.922279
Si Si2 0.500000 0.815261 0.750000
Si Si3 0.136418 0.460078 0.900728
Si Si4 0.252620 0.947530 0.319370
Si Si5 0.189690 0.846894 0.004191
O O1 0.500000 0.190776 0.750000
O O2 0.614142 0.296043 0.921305
O O3 0.597243 0.077462 0.949971
O O4 0.514158 0.232888 0.075506
O O5 0.572057 0.888053 0.805620
O O6 0.195291 0.492768 0.790775
O O7 0.185195 0.391466 0.047301
O O8 0.211411 0.041692 0.409747
O O9 0.196483 0.874308 0.195582
O O10 0.250000 0.750000 0.000000
#
# Coordination Sequence:
#
# PCOD9280908 Si02
#       5
#     8   4   8   8   8
#     4  12  24  40  64  95 134 169 211 269 333 395
#     4  12  22  36  62 102 132 162 216 270 350 394
#     4  11  18  37  61  98 126 157 207 283 337 385
#     4  10  21  37  66  91 126 167 215 267 329 378
#     4  11  22  43  63  95 131 169 220 271 325 393
#
# _framework density 20.004729999999999
#
# number of rings (size 3 to 8) (size 9 to 14) (size 15 to 20)
#    0.000    0.889    7.778    2.000    0.000    0.000 
#    8.000    6.667    0.000    0.000    0.000    0.000 
#    0.000    0.000    0.000    0.000    0.000    0.000 
#
# Total GULP energy -100253.295712 kJ/mol
# GULP energy per Si atom -5569.627540 kJ/mol
# Density = 1.995920 g / cm^3
# Si number density = 20.004730 Si / 1000 Ang^3
#
#
#
# Elastic Constant Matrix: (Units=GPa)
#
#
# Indices 1 2 3 4 5 6 
#
# 1 75.2223 3.7081 28.3371 0.0000 7.8704 0.0000
# 2 3.7081 28.0831 20.7799 0.0000 17.0497 0.0000
# 3 28.3371 20.7799 124.6055 0.0000 11.0065 0.0000
# 4 0.0000 0.0000 0.0000 23.7558 0.0000 -1.3894
# 5 7.8704 17.0497 11.0065 0.0000 37.6032 0.0000
# 6 0.0000 0.0000 0.0000 -1.3894 0.0000 28.6045
#
#
#
# Elastic Compliance Matrix: (Units=1/GPa)
#
#
# Indices 1 2 3 4 5 6 
#
# 1 0.014833 0.002632 -0.003524 0.000000 -0.003267 0.000000
# 2 0.002632 0.055116 -0.007734 0.000000 -0.023277 0.000000
# 3 -0.003524 -0.007734 0.010000 0.000000 0.001317 0.000000
# 4 0.000000 0.000000 0.000000 0.042215 0.000000 0.002051
# 5 -0.003267 -0.023277 0.001317 0.000000 0.037446 0.000000
# 6 0.000000 0.000000 0.000000 0.002051 0.000000 0.035059
#
#
# Mechanical properties :
#
#
# Convention : Reuss Voigt Hill
#
# Bulk Modulus (GPa) = 15.94950 37.06235 26.50593
# Shear Modulus (GPa) = 21.47586 29.66508 25.57047
#
# Velocity S-wave (km/s) = 3.28004 3.85503 3.57910
# Velocity P-wave (km/s) = 4.72600 6.19532 5.50986
#
# Compressibility (1/GPa) = 0.06269789
#
# Stress axis : x y z
#
# Youngs Moduli (GPa) = 67.41547 18.14365 99.99922
#
# Poissons Ratio (x) = -0.04775 0.35237
# Poissons Ratio (y) = -0.17743 0.77338
# Poissons Ratio (z) = 0.23755 0.14032
#
# Static dielectric constant tensor:
#      x y z
#    x 1.684130 0.000000 -0.044220 
#    y 0.000000 1.701070 0.000000 
#    z -0.044220 0.000000 1.785730 
# 
# From -- ./inp_files/37610.got.cif
#   From: 2010.05.17/outbox.cif.g08.bks.cpg/sg15_19_cif.got.tgz:37610.got - 2010.06.03 18:47:42.
