data_PCOD9280712
_publ_section_title
;
Structure prediction by ZEFSAII (Michael W. Deem and Ramdas Pophale) SiO2 
 PCOD9280712
Probable space group: C 2/C
;
_chemical_formula_sum "Si O2"
_cell_formula_units_Z 64
_cell_length_a 6.063166
_cell_length_b 24.736429
_cell_length_c 20.695334
_cell_angle_alpha 90.000000
_cell_angle_beta 83.361366
_cell_angle_gamma 90.000000
_cell_volume 3083.096861
_symmetry_space_group_name_H-M "C 2/C"
_symmetry_group_IT_number 15
_symmetry_cell_setting 'monoclinic'
loop_
_space_group_symop_operation_xyz
x,y,z
-x,y,1/2-z
-x,-y,-z
x,-y,1/2+z
1/2+x,1/2+y,z
1/2-x,1/2+y,1/2-z
1/2-x,1/2-y,-z
1/2+x,1/2-y,1/2+z
loop_
_atom_site_type_symbol
_atom_site_label
_atom_site_fract_x
_atom_site_fract_y
_atom_site_fract_z
Si Si1 0.793174 0.181806 0.424915
Si Si2 0.518765 0.562557 0.679988
Si Si3 0.481348 0.855796 0.679357
Si Si4 0.853222 0.908091 0.574012
Si Si5 0.561861 0.224056 0.960236
Si Si6 0.845167 0.470111 0.693312
Si Si7 0.314721 0.977586 0.405514
Si Si8 0.647422 0.107186 0.939323
O O1 0.635042 0.181568 0.368696
O O2 0.638197 0.199548 0.489573
O O3 0.914489 0.124040 0.429630
O O4 0.980138 0.227789 0.417533
O O5 0.500000 0.591838 0.750000
O O6 0.628223 0.505138 0.694628
O O7 0.287513 0.554161 0.651739
O O8 0.682593 0.585042 0.619846
O O9 0.500000 0.831236 0.750000
O O10 0.699286 0.883106 0.637523
O O11 0.315829 0.906558 0.696801
O O12 0.743159 0.893729 0.508734
O O13 0.859968 0.974149 0.571960
O O14 0.629224 0.169977 0.921464
O O15 0.750000 0.250000 0.000000
O O16 0.000000 0.483769 0.750000
O O17 0.982347 0.485682 0.625104
O O18 0.427540 0.931402 0.445784
#
# Coordination Sequence:
#
# PCOD9280712 Si02
#       8
#     8   8   8   8   8   8   8   8
#     4  11  22  39  71  93 123 165 218 269 324 399
#     4  11  22  36  59  88 127 174 222 249 305 393
#     4  10  21  37  62  96 135 165 200 265 324 386
#     4  11  22  41  62 101 131 161 214 264 323 392
#     4  11  23  44  68  92 119 168 220 274 326 390
#     4   9  17  34  55  85 126 173 206 245 307 378
#     4  10  22  36  61  88 135 166 201 258 324 382
#     4  11  24  39  63  93 129 166 213 274 323 378
#
# _framework density 20.758348999999999
#
# number of rings (size 3 to 8) (size 9 to 14) (size 15 to 20)
#    0.000    1.500    3.750    1.125    1.750    1.000 
#    0.000    0.000    0.000   11.250    0.000    0.000 
#    0.000    0.000    0.000    0.000    0.000    0.000 
#
# Total GULP energy -178282.061182 kJ/mol
# GULP energy per Si atom -5571.314412 kJ/mol
# Density = 2.071110 g / cm^3
# Si number density = 20.758349 Si / 1000 Ang^3
#
#
#
# Elastic Constant Matrix: (Units=GPa)
#
#
# Indices 1 2 3 4 5 6 
#
# 1 46.8921 13.6590 17.5432 0.0000 4.4094 0.0000
# 2 13.6590 72.0654 1.6978 0.0000 -5.9961 0.0000
# 3 17.5432 1.6978 86.8400 0.0000 -0.1081 0.0000
# 4 0.0000 0.0000 0.0000 16.4060 0.0000 4.8518
# 5 4.4094 -5.9961 -0.1081 0.0000 34.0373 0.0000
# 6 0.0000 0.0000 0.0000 4.8518 0.0000 32.9144
#
#
#
# Elastic Compliance Matrix: (Units=1/GPa)
#
#
# Indices 1 2 3 4 5 6 
#
# 1 0.025018 -0.004969 -0.004962 0.000000 -0.004132 0.000000
# 2 -0.004969 0.015076 0.000713 0.000000 0.003302 0.000000
# 3 -0.004962 0.000713 0.012505 0.000000 0.000808 0.000000
# 4 0.000000 0.000000 0.000000 0.063732 0.000000 -0.009394
# 5 -0.004132 0.003302 0.000808 0.000000 0.030499 0.000000
# 6 0.000000 0.000000 0.000000 -0.009394 0.000000 0.031767
#
#
# Mechanical properties :
#
#
# Convention : Reuss Voigt Hill
#
# Bulk Modulus (GPa) = 29.27103 30.17750 29.72427
# Shear Modulus (GPa) = 23.99015 28.19803 26.09409
#
# Velocity S-wave (km/s) = 3.40323 3.68964 3.54932
# Velocity P-wave (km/s) = 5.43820 5.72017 5.58097
#
# Compressibility (1/GPa) = 0.03416347
#
# Stress axis : x y z
#
# Youngs Moduli (GPa) = 39.97159 66.33081 79.96857
#
# Poissons Ratio (x) = 0.32958 0.39681
# Poissons Ratio (y) = 0.19861 -0.05703
# Poissons Ratio (z) = 0.19834 -0.04730
#
# Static dielectric constant tensor:
#      x y z
#    x 1.828420 0.000000 -0.028880 
#    y 0.000000 1.793420 0.000000 
#    z -0.028880 0.000000 1.792390 
# 
# From -- ./inp_files/228489.got.cif
#   From: 2010.05.17/outbox.cif.g08.bks.cpg/sg15_115_cif.got.tgz:228489.got - 2010.06.03 18:47:42.
