data_PCOD9280910
_publ_section_title
;
Structure prediction by ZEFSAII (Michael W. Deem and Ramdas Pophale) SiO2 
 PCOD9280910
Probable space group: C 2/C
;
_chemical_formula_sum "Si O2"
_cell_formula_units_Z 48
_cell_length_a 24.192853
_cell_length_b 9.202401
_cell_length_c 10.918268
_cell_angle_alpha 90.000000
_cell_angle_beta 62.948679
_cell_angle_gamma 90.000000
_cell_volume 2164.833235
_symmetry_space_group_name_H-M "C 2/C"
_symmetry_group_IT_number 15
_symmetry_cell_setting 'monoclinic'
loop_
_space_group_symop_operation_xyz
x,y,z
-x,y,1/2-z
-x,-y,-z
x,-y,1/2+z
1/2+x,1/2+y,z
1/2-x,1/2+y,1/2-z
1/2-x,1/2-y,-z
1/2+x,1/2-y,1/2+z
loop_
_atom_site_type_symbol
_atom_site_label
_atom_site_fract_x
_atom_site_fract_y
_atom_site_fract_z
Si Si1 0.358916 0.251345 0.574970
Si Si2 0.346783 0.515114 0.905749
Si Si3 0.933643 0.014948 0.626021
Si Si4 0.740492 0.322857 0.642582
Si Si5 0.459680 0.993839 0.913956
Si Si6 0.629081 0.245147 0.447164
O O1 0.332599 0.332448 0.481794
O O2 0.398510 0.378354 0.601043
O O3 0.303399 0.224671 0.726857
O O4 0.405949 0.125163 0.491379
O O5 0.417464 0.504949 0.784726
O O6 0.297507 0.470169 0.850819
O O7 0.347144 0.385129 0.002387
O O8 0.905600 0.174917 0.627730
O O9 0.000000 0.000000 0.500000
O O10 0.750000 0.250000 0.500000
O O11 0.807570 0.343935 0.636609
O O12 0.500000 0.966463 0.750000
O O13 0.500000 0.000000 0.000000
O O14 0.421782 0.144789 0.936480
#
# Coordination Sequence:
#
# PCOD9280910 Si02
#       6
#     8   8   8   8   8   8
#     4  10  23  41  65  99 131 178 231 287 341 423
#     4   9  21  40  68  99 126 171 232 289 339 403
#     4  10  21  37  66  91 127 169 234 282 335 404
#     4   9  20  42  69  94 135 168 230 287 359 410
#     4  12  30  46  68  99 151 191 233 281 365 428
#     4  10  23  41  67  96 131 183 221 292 354 410
#
# _framework density 22.172606999999999
#
# number of rings (size 3 to 8) (size 9 to 14) (size 15 to 20)
#    0.000    2.000    0.000    1.000   14.000    6.667 
#    0.000    1.667    0.000    0.000    0.000    0.000 
#    0.000    0.000    0.000    0.000    0.000    0.000 
#
# Total GULP energy -133676.593768 kJ/mol
# GULP energy per Si atom -5569.858074 kJ/mol
# Density = 2.212214 g / cm^3
# Si number density = 22.172607 Si / 1000 Ang^3
#
#
#
# Elastic Constant Matrix: (Units=GPa)
#
#
# Indices 1 2 3 4 5 6 
#
# 1 72.1010 15.0289 23.8980 0.0000 -19.9188 0.0000
# 2 15.0289 76.2195 19.6928 0.0000 -0.4771 0.0000
# 3 23.8980 19.6928 108.7937 0.0000 -23.0790 0.0000
# 4 0.0000 0.0000 0.0000 25.8829 0.0000 -6.2442
# 5 -19.9188 -0.4771 -23.0790 0.0000 30.2301 0.0000
# 6 0.0000 0.0000 0.0000 -6.2442 0.0000 23.4786
#
#
#
# Elastic Compliance Matrix: (Units=1/GPa)
#
#
# Indices 1 2 3 4 5 6 
#
# 1 0.017905 -0.003196 -0.001029 0.000000 0.010961 0.000000
# 2 -0.003196 0.014437 -0.002756 0.000000 -0.003982 0.000000
# 3 -0.001029 -0.002756 0.011650 0.000000 0.008173 0.000000
# 4 0.000000 0.000000 0.000000 0.041284 0.000000 0.010980
# 5 0.010961 -0.003982 0.008173 0.000000 0.046479 0.000000
# 6 0.000000 0.000000 0.000000 0.010980 0.000000 0.045512
#
#
# Mechanical properties :
#
#
# Convention : Reuss Voigt Hill
#
# Bulk Modulus (GPa) = 33.29972 41.59486 37.44729
# Shear Modulus (GPa) = 24.84593 29.15130 26.99861
#
# Velocity S-wave (km/s) = 3.35112 3.62987 3.49328
# Velocity P-wave (km/s) = 5.47945 6.03061 5.76162
#
# Compressibility (1/GPa) = 0.03003028
#
# Stress axis : x y z
#
# Youngs Moduli (GPa) = 55.85031 69.26499 85.83405
#
# Poissons Ratio (x) = 0.22137 0.08835
# Poissons Ratio (y) = 0.17849 0.23656
# Poissons Ratio (z) = 0.05748 0.19089
#
# Static dielectric constant tensor:
#      x y z
#    x 1.960820 0.000000 0.053130 
#    y 0.000000 1.789200 0.000000 
#    z 0.053130 0.000000 1.926260 
# 
# From -- ./inp_files/121380.got.cif
#   From: 2010.05.17/outbox.cif.g08.bks.cpg/sg15_61_cif.got.tgz:121380.got - 2010.06.03 18:47:42.
