data_PCOD9280722
_publ_section_title
;
Structure prediction by ZEFSAII (Michael W. Deem and Ramdas Pophale) SiO2 
 PCOD9280722
Probable space group: C 2/C
;
_chemical_formula_sum "Si O2"
_cell_formula_units_Z 24
_cell_length_a 20.370016
_cell_length_b 5.164461
_cell_length_c 18.525143
_cell_angle_alpha 90.000000
_cell_angle_beta 152.265736
_cell_angle_gamma 90.000000
_cell_volume 906.938155
_symmetry_space_group_name_H-M "C 2/C"
_symmetry_group_IT_number 15
_symmetry_cell_setting 'monoclinic'
loop_
_space_group_symop_operation_xyz
x,y,z
-x,y,1/2-z
-x,-y,-z
x,-y,1/2+z
1/2+x,1/2+y,z
1/2-x,1/2+y,1/2-z
1/2-x,1/2-y,-z
1/2+x,1/2-y,1/2+z
loop_
_atom_site_type_symbol
_atom_site_label
_atom_site_fract_x
_atom_site_fract_y
_atom_site_fract_z
Si Si1 0.660545 0.498169 0.435582
Si Si2 0.227263 0.475631 0.678377
Si Si3 0.015583 0.888163 0.934122
O O1 0.500000 0.506130 0.250000
O O2 0.750000 0.750000 0.500000
O O3 0.630640 0.489335 0.493128
O O4 0.750000 0.250000 0.500000
O O5 0.245466 0.740119 0.738533
O O6 0.073379 0.406780 0.497055
O O7 0.358070 0.435158 0.751590
O O8 0.000000 0.000000 0.000000
#
# Coordination Sequence:
#
# PCOD9280722 Si02
#       3
#     8   8   8
#     4  12  28  49  72 104 146 189 232 289 358 422
#     4  10  21  37  62  99 131 164 217 284 340 393
#     4  10  23  42  69  97 130 175 228 281 334 407
#
# _framework density 26.462665999999999
#
# number of rings (size 3 to 8) (size 9 to 14) (size 15 to 20)
#    0.000    1.333    0.000    4.000    0.000   21.333 
#    0.000    0.000    0.000    0.000    0.000    0.000 
#    0.000    0.000    0.000    0.000    0.000    0.000 
#
# Total GULP energy -67088.582840 kJ/mol
# GULP energy per Si atom -5590.715237 kJ/mol
# Density = 2.640244 g / cm^3
# Si number density = 26.462666 Si / 1000 Ang^3
#
#
#
# Elastic Constant Matrix: (Units=GPa)
#
#
# Indices 1 2 3 4 5 6 
#
# 1 232.6680 74.1074 48.2674 0.0020 33.0715 0.0005
# 2 74.1074 169.4035 65.1610 0.0004 18.9266 0.0012
# 3 48.2674 65.1610 131.9298 -0.0013 42.2528 0.0000
# 4 0.0020 0.0004 -0.0013 50.8970 0.0009 15.9399
# 5 33.0715 18.9266 42.2528 0.0009 55.9452 0.0003
# 6 0.0005 0.0012 0.0000 15.9399 0.0003 48.2524
#
#
#
# Elastic Compliance Matrix: (Units=1/GPa)
#
#
# Indices 1 2 3 4 5 6 
#
# 1 0.005300 -0.001974 -0.000230 0.000000 -0.002291 0.000000
# 2 -0.001974 0.008028 -0.003623 0.000000 0.001187 0.000000
# 3 -0.000230 -0.003623 0.011894 0.000000 -0.007621 0.000000
# 4 0.000000 0.000000 0.000000 0.021915 -0.000001 -0.007239
# 5 -0.002291 0.001187 -0.007621 -0.000001 0.024584 0.000000
# 6 0.000000 0.000000 0.000000 -0.007239 0.000000 0.023116
#
#
# Mechanical properties :
#
#
# Convention : Reuss Voigt Hill
#
# Bulk Modulus (GPa) = 73.70492 101.00810 87.35651
# Shear Modulus (GPa) = 45.03969 54.11663 49.57816
#
# Velocity S-wave (km/s) = 4.13002 4.52709 4.33311
# Velocity P-wave (km/s) = 7.11727 8.09809 7.62347
#
# Compressibility (1/GPa) = 0.01356761
#
# Stress axis : x y z
#
# Youngs Moduli (GPa) = 188.67210 124.57131 84.07384
#
# Poissons Ratio (x) = 0.24591 0.01936
# Poissons Ratio (y) = 0.37245 0.30459
# Poissons Ratio (z) = 0.04344 0.45131
#
# Static dielectric constant tensor:
#      x y z
#    x 2.131180 0.000000 -0.047390 
#    y 0.000000 2.113200 0.000000 
#    z -0.047390 0.000000 2.363450 
# 
# From -- ./inp_files/120496.got.cif
#   From: 2010.05.17/outbox.cif.g08.bks.cpg/sg15_61_cif.got.tgz:120496.got - 2010.06.03 18:47:42.
