data_PCOD9280667
_publ_section_title
;
Structure prediction by ZEFSAII (Michael W. Deem and Ramdas Pophale) SiO2 
 PCOD9280667
Probable space group: C 2/C
;
_chemical_formula_sum "Si O2"
_cell_formula_units_Z 56
_cell_length_a 14.043007
_cell_length_b 14.023007
_cell_length_c 26.238285
_cell_angle_alpha 90.000000
_cell_angle_beta 33.037419
_cell_angle_gamma 90.000000
_cell_volume 2816.968005
_symmetry_space_group_name_H-M "C 2/C"
_symmetry_group_IT_number 15
_symmetry_cell_setting 'monoclinic'
loop_
_space_group_symop_operation_xyz
x,y,z
-x,y,1/2-z
-x,-y,-z
x,-y,1/2+z
1/2+x,1/2+y,z
1/2-x,1/2+y,1/2-z
1/2-x,1/2-y,-z
1/2+x,1/2-y,1/2+z
loop_
_atom_site_type_symbol
_atom_site_label
_atom_site_fract_x
_atom_site_fract_y
_atom_site_fract_z
Si Si1 0.775915 0.063871 0.120844
Si Si2 0.500000 0.903096 0.250000
Si Si3 0.256587 0.746659 0.181748
Si Si4 0.725306 0.013603 0.946706
Si Si5 0.739658 0.285190 0.304381
Si Si6 0.000000 0.101114 0.750000
Si Si7 0.958003 0.663836 0.020486
Si Si8 0.051083 0.058135 0.556795
O O1 0.685539 0.146129 0.193410
O O2 0.654965 0.973377 0.163416
O O3 0.842880 0.103805 0.037434
O O4 0.938550 0.026668 0.081748
O O5 0.413312 0.838113 0.245945
O O6 0.280803 0.738439 0.231475
O O7 0.120975 0.830384 0.229716
O O8 0.426309 0.772323 0.070578
O O9 0.813998 0.022987 0.961724
O O10 0.878480 0.035625 0.838420
O O11 0.643777 0.911953 0.969304
O O12 0.584732 0.097453 0.998616
O O13 0.664921 0.221202 0.384694
O O14 0.589372 0.364521 0.361666
#
# Coordination Sequence:
#
# PCOD9280667 Si02
#       8
#     8   4   8   8   8   4   8   8
#     4  10  22  40  62  93 125 161 211 264 308 388
#     4  10  25  41  64  94 128 166 214 259 315 382
#     4  11  22  40  65  95 123 166 216 262 313 378
#     4  10  22  41  64  91 127 168 206 266 318 371
#     4  11  23  44  64  94 129 168 209 267 316 378
#     4  10  21  37  62  90 122 162 220 263 303 380
#     4  10  24  41  62  96 131 161 216 261 313 382
#     4  10  21  41  65  87 126 167 204 257 328 367
#
# _framework density 19.879529999999999
#
# number of rings (size 3 to 8) (size 9 to 14) (size 15 to 20)
#    0.000    1.714    2.857    0.429    2.000    5.714 
#    5.143    1.429    0.000    0.000    0.000    0.000 
#    0.000    0.000    0.000    0.000    0.000    0.000 
#
# Total GULP energy -156234.527561 kJ/mol
# GULP energy per Si atom -5579.804556 kJ/mol
# Density = 1.983428 g / cm^3
# Si number density = 19.879530 Si / 1000 Ang^3
#
#
#
# Elastic Constant Matrix: (Units=GPa)
#
#
# Indices 1 2 3 4 5 6 
#
# 1 150.7410 44.2460 55.7822 0.0000 4.3641 0.0000
# 2 44.2460 61.6244 27.2883 0.0000 4.0416 0.0000
# 3 55.7822 27.2883 60.0950 0.0000 5.3788 0.0003
# 4 0.0000 0.0000 0.0000 15.4664 0.0002 2.6680
# 5 4.3641 4.0416 5.3788 0.0002 25.8134 0.0000
# 6 0.0000 0.0000 0.0003 2.6680 0.0000 13.6281
#
#
#
# Elastic Compliance Matrix: (Units=1/GPa)
#
#
# Indices 1 2 3 4 5 6 
#
# 1 0.010913 -0.004210 -0.008266 0.000000 0.000537 0.000000
# 2 -0.004210 0.021978 -0.005938 0.000000 -0.001492 0.000000
# 3 -0.008266 -0.005938 0.027311 0.000000 -0.003364 -0.000001
# 4 0.000000 0.000000 0.000000 0.066916 -0.000001 -0.013101
# 5 0.000537 -0.001492 -0.003364 -0.000001 0.039583 0.000000
# 6 0.000000 0.000000 -0.000001 -0.013101 0.000000 0.075943
#
#
# Mechanical properties :
#
#
# Convention : Reuss Voigt Hill
#
# Bulk Modulus (GPa) = 42.78543 58.56594 50.67568
# Shear Modulus (GPa) = 17.40565 20.65784 19.03175
#
# Velocity S-wave (km/s) = 2.96219 3.22708 3.09747
# Velocity P-wave (km/s) = 5.76789 6.58861 6.19186
#
# Compressibility (1/GPa) = 0.02337245
#
# Stress axis : x y z
#
# Youngs Moduli (GPa) = 91.63322 45.50073 36.61584
#
# Poissons Ratio (x) = 0.19158 0.30267
# Poissons Ratio (y) = 0.38581 0.21743
# Poissons Ratio (z) = 0.75744 0.27018
#
# Static dielectric constant tensor:
#      x y z
#    x 1.683190 0.000000 -0.014690 
#    y 0.000000 1.691130 0.000000 
#    z -0.014690 0.000000 1.766170 
# 
# From -- ./inp_files/296583.got.cif
#   From: 2010.05.17/outbox.cif.g08.bks.cpg/sg15_149_cif.got.tgz:296583.got - 2010.06.03 18:47:42.
