data_PCOD9280174
_publ_section_title
;
Structure prediction by ZEFSAII (Michael W. Deem and Ramdas Pophale) SiO2 
 PCOD9280174
Probable space group: C 2/C
;
_chemical_formula_sum "Si O2"
_cell_formula_units_Z 48
_cell_length_a 21.713927
_cell_length_b 13.210615
_cell_length_c 21.793058
_cell_angle_alpha 90.000000
_cell_angle_beta 18.682977
_cell_angle_gamma 90.000000
_cell_volume 2002.531258
_symmetry_space_group_name_H-M "C 2/C"
_symmetry_group_IT_number 15
_symmetry_cell_setting 'monoclinic'
loop_
_space_group_symop_operation_xyz
x,y,z
-x,y,1/2-z
-x,-y,-z
x,-y,1/2+z
1/2+x,1/2+y,z
1/2-x,1/2+y,1/2-z
1/2-x,1/2-y,-z
1/2+x,1/2-y,1/2+z
loop_
_atom_site_type_symbol
_atom_site_label
_atom_site_fract_x
_atom_site_fract_y
_atom_site_fract_z
Si Si1 0.327488 0.667210 0.274529
Si Si2 0.561561 0.899579 0.797226
Si Si3 0.223918 0.864958 0.545146
Si Si4 0.008989 0.620026 0.000160
Si Si5 0.244332 0.385540 0.167275
Si Si6 0.775754 0.081318 0.980431
O O1 0.240098 0.615643 0.417215
O O2 0.169728 0.660465 0.370762
O O3 0.351527 0.784760 0.271676
O O4 0.530780 0.620453 0.062643
O O5 0.648141 0.008976 0.738540
O O6 0.718269 0.863517 0.598216
O O7 0.515320 0.848376 0.906576
O O8 0.365248 0.893565 0.942908
O O9 0.250000 0.750000 0.500000
O O10 0.288246 0.962903 0.447089
O O11 0.000000 0.875830 0.750000
O O12 0.000000 0.500000 0.000000
O O13 0.203917 0.638498 0.777550
O O14 0.000000 0.091670 0.750000
#
# Coordination Sequence:
#
# PCOD9280174 Si02
#       6
#     8   8   8   8   8   8
#     4  12  22  38  57  85 125 165 207 244 293 350
#     4  10  22  38  57  84 119 156 202 251 298 351
#     4  11  22  30  48  78 114 158 193 228 274 342
#     4  10  23  39  58  84 118 160 210 256 293 351
#     4  11  22  36  58  84 121 164 202 245 290 355
#     4  10  21  37  55  83 116 151 198 246 299 367
#
# _framework density 23.969663000000001
#
# number of rings (size 3 to 8) (size 9 to 14) (size 15 to 20)
#    0.000    1.333    1.667    6.000    4.667    4.000 
#    0.000    0.000    0.000    0.000    0.000    4.667 
#    0.000    0.000    0.000    0.000    0.000    0.000 
#
# Total GULP energy -133725.424694 kJ/mol
# GULP energy per Si atom -5571.892696 kJ/mol
# Density = 2.391511 g / cm^3
# Si number density = 23.969663 Si / 1000 Ang^3
#
#
#
# Elastic Constant Matrix: (Units=GPa)
#
#
# Indices 1 2 3 4 5 6 
#
# 1 183.1205 -8.0880 62.1568 0.0043 40.6848 -0.0045
# 2 -8.0880 26.3846 -6.1396 -0.0406 -0.2039 0.0181
# 3 62.1568 -6.1396 148.0701 0.0097 18.4468 -0.0137
# 4 0.0043 -0.0406 0.0097 21.7020 -0.0067 5.3581
# 5 40.6848 -0.2039 18.4468 -0.0067 53.3141 0.0043
# 6 -0.0045 0.0181 -0.0137 5.3581 0.0043 17.1561
#
#
#
# Elastic Compliance Matrix: (Units=1/GPa)
#
#
# Indices 1 2 3 4 5 6 
#
# 1 0.007438 0.001672 -0.002452 0.000002 -0.004821 -0.000001
# 2 0.001672 0.038655 0.001088 0.000087 -0.001505 -0.000066
# 3 -0.002452 0.001088 0.007937 -0.000003 -0.000870 0.000006
# 4 0.000002 0.000087 -0.000003 0.049929 0.000008 -0.015594
# 5 -0.004821 -0.001505 -0.000870 0.000008 0.022731 -0.000008
# 6 -0.000001 -0.000066 0.000006 -0.015594 -0.000008 0.063159
#
#
# Mechanical properties :
#
#
# Convention : Reuss Voigt Hill
#
# Bulk Modulus (GPa) = 18.29951 50.38152 34.34051
# Shear Modulus (GPa) = 24.10238 39.07750 31.58994
#
# Velocity S-wave (km/s) = 3.17446 4.04207 3.63425
# Velocity P-wave (km/s) = 4.59209 6.54591 5.65403
#
# Compressibility (1/GPa) = 0.05464629
#
# Stress axis : x y z
#
# Youngs Moduli (GPa) = 134.43779 25.86972 125.99815
#
# Poissons Ratio (x) = -0.04326 0.30901
# Poissons Ratio (y) = -0.22481 -0.13712
# Poissons Ratio (z) = 0.32971 -0.02815
#
# Static dielectric constant tensor:
#      x y z
#    x 1.972660 -0.000020 0.073080 
#    y -0.000020 2.288120 -0.000010 
#    z 0.073080 -0.000010 1.881570 
# 
# From -- ./inp_files/253264.got.cif
#   From: 2010.05.17/outbox.cif.g08.bks.cpg/sg15_127_cif.got.tgz:253264.got - 2010.06.03 18:47:42.
