data_PCOD9280456
_publ_section_title
;
Structure prediction by ZEFSAII (Michael W. Deem and Ramdas Pophale) SiO2 
 PCOD9280456
Probable space group: C 2/C
;
_chemical_formula_sum "Si O2"
_cell_formula_units_Z 40
_cell_length_a 5.189498
_cell_length_b 15.371421
_cell_length_c 23.225949
_cell_angle_alpha 90.000000
_cell_angle_beta 96.414384
_cell_angle_gamma 90.000000
_cell_volume 1841.134702
_symmetry_space_group_name_H-M "C 2/C"
_symmetry_group_IT_number 15
_symmetry_cell_setting 'monoclinic'
loop_
_space_group_symop_operation_xyz
x,y,z
-x,y,1/2-z
-x,-y,-z
x,-y,1/2+z
1/2+x,1/2+y,z
1/2-x,1/2+y,1/2-z
1/2-x,1/2-y,-z
1/2+x,1/2-y,1/2+z
loop_
_atom_site_type_symbol
_atom_site_label
_atom_site_fract_x
_atom_site_fract_y
_atom_site_fract_z
Si Si1 0.927386 0.230116 0.128468
Si Si2 0.077776 0.520587 0.436687
Si Si3 0.000000 0.317147 0.250000
Si Si4 0.951080 0.019882 0.128468
Si Si5 0.500000 0.567149 0.750000
Si Si6 0.108914 0.729412 0.436687
O O1 0.938679 0.124999 0.127361
O O2 0.682577 0.260612 0.083725
O O3 0.906478 0.261004 0.193219
O O4 0.195898 0.261706 0.107620
O O5 0.348855 0.489387 0.416275
O O6 0.091598 0.624999 0.433191
O O7 0.000000 0.500000 0.500000
O O8 0.838281 0.488292 0.392380
O O9 0.243625 0.374999 0.237251
O O10 0.036740 0.988993 0.193219
O O11 0.250000 0.750000 0.500000
#
# Coordination Sequence:
#
# PCOD9280456 Si02
#       6
#     8   8   4   8   4   8
#     4  10  22  41  61  84 119 161 197 236 295 363
#     4  10  21  37  60  88 117 154 198 241 292 350
#     4  12  25  40  61  92 120 152 200 254 303 348
#     4  10  22  41  61  84 119 161 197 236 295 363
#     4  12  25  40  61  92 120 152 200 254 303 348
#     4  10  21  37  60  88 117 154 198 241 292 350
#
# _framework density 21.725735
#
# number of rings (size 3 to 8) (size 9 to 14) (size 15 to 20)
#    0.000    1.600    0.000    4.200    0.000    4.800 
#    0.000    8.000    0.000    0.000    0.000    0.000 
#    0.000    0.000    0.000    0.000    0.000    0.000 
#
# Total GULP energy -111792.270591 kJ/mol
# GULP energy per Si atom -5589.613530 kJ/mol
# Density = 2.167629 g / cm^3
# Si number density = 21.725735 Si / 1000 Ang^3
#
#
#
# Elastic Constant Matrix: (Units=GPa)
#
#
# Indices 1 2 3 4 5 6 
#
# 1 143.4960 30.4772 31.9309 0.0000 -4.0305 0.0000
# 2 30.4772 36.4359 17.2723 0.0000 -1.8566 0.0000
# 3 31.9309 17.2723 132.5745 0.0000 2.4947 0.0000
# 4 0.0000 0.0000 0.0000 48.0522 0.0000 5.4097
# 5 -4.0305 -1.8566 2.4947 0.0000 42.3680 0.0000
# 6 0.0000 0.0000 0.0000 5.4097 0.0000 9.5735
#
#
#
# Elastic Compliance Matrix: (Units=1/GPa)
#
#
# Indices 1 2 3 4 5 6 
#
# 1 0.008670 -0.006636 -0.001235 0.000000 0.000607 0.000000
# 2 -0.006636 0.034427 -0.002907 0.000000 0.001048 0.000000
# 3 -0.001235 -0.002907 0.008233 0.000000 -0.000730 0.000000
# 4 0.000000 0.000000 0.000000 0.022225 0.000000 -0.012558
# 5 0.000607 0.001048 -0.000730 0.000000 0.023749 0.000000
# 6 0.000000 0.000000 0.000000 -0.012558 0.000000 0.111551
#
#
# Mechanical properties :
#
#
# Convention : Reuss Voigt Hill
#
# Bulk Modulus (GPa) = 33.58524 52.42969 43.00746
# Shear Modulus (GPa) = 20.80421 35.52047 28.16234
#
# Velocity S-wave (km/s) = 3.09784 4.04784 3.60428
# Velocity P-wave (km/s) = 5.31863 6.78466 6.09587
#
# Compressibility (1/GPa) = 0.02977498
#
# Stress axis : x y z
#
# Youngs Moduli (GPa) = 115.33904 29.04657 121.46471
#
# Poissons Ratio (x) = 0.19275 0.15002
# Poissons Ratio (y) = 0.76537 0.35308
# Poissons Ratio (z) = 0.14245 0.08443
#
# Static dielectric constant tensor:
#      x y z
#    x 1.773470 0.000000 -0.000230 
#    y 0.000000 1.786110 0.000000 
#    z -0.000230 0.000000 1.771850 
# 
# From -- ./inp_files/184301.got.cif
#   From: 2010.05.17/outbox.cif.g08.bks.cpg/sg15_93_cif.got.tgz:184301.got - 2010.06.03 18:47:42.
