data_PCOD9280947
_publ_section_title
;
Structure prediction by ZEFSAII (Michael W. Deem and Ramdas Pophale) SiO2 
 PCOD9280947
Probable space group: C 2/C
;
_chemical_formula_sum "Si O2"
_cell_formula_units_Z 44
_cell_length_a 5.507786
_cell_length_b 21.459548
_cell_length_c 15.464881
_cell_angle_alpha 90.000000
_cell_angle_beta 74.909136
_cell_angle_gamma 90.000000
_cell_volume 1764.829914
_symmetry_space_group_name_H-M "C 2/C"
_symmetry_group_IT_number 15
_symmetry_cell_setting 'monoclinic'
loop_
_space_group_symop_operation_xyz
x,y,z
-x,y,1/2-z
-x,-y,-z
x,-y,1/2+z
1/2+x,1/2+y,z
1/2-x,1/2+y,1/2-z
1/2-x,1/2-y,-z
1/2+x,1/2-y,1/2+z
loop_
_atom_site_type_symbol
_atom_site_label
_atom_site_fract_x
_atom_site_fract_y
_atom_site_fract_z
Si Si1 0.500000 0.501306 0.250000
Si Si2 0.549881 0.796610 0.152657
Si Si3 0.779643 0.623659 0.206046
Si Si4 0.428784 0.425707 0.429765
Si Si5 0.378397 0.098253 0.000655
Si Si6 0.401512 0.723581 0.904448
O O1 0.732432 0.549280 0.226599
O O2 0.507809 0.460578 0.335522
O O3 0.500000 0.827629 0.250000
O O4 0.289913 0.762085 0.154962
O O5 0.807546 0.757402 0.130534
O O6 0.583646 0.846407 0.072870
O O7 0.500000 0.650531 0.250000
O O8 0.845561 0.625487 0.098996
O O9 0.000000 0.643974 0.250000
O O10 0.624358 0.434687 0.490237
O O11 0.427943 0.351281 0.410200
O O12 0.138105 0.439506 0.476304
O O13 0.250000 0.750000 0.000000
#
# Coordination Sequence:
#
# PCOD9280947 Si02
#       6
#     4   8   8   8   8   8
#     4  10  26  38  62  94 130 164 222 258 322 368
#     4  10  21  37  67  99 130 163 208 263 320 377
#     4  10  23  42  60  87 130 170 225 267 304 374
#     4  10  23  36  64  90 127 161 212 259 322 369
#     4  10  22  38  63  92 125 172 210 263 318 368
#     4  10  21  38  62  90 127 161 202 259 318 380
#
# _framework density 24.931578999999999
#
# number of rings (size 3 to 8) (size 9 to 14) (size 15 to 20)
#    0.545    1.455    0.000    2.182   12.727    1.455 
#    0.000    0.000    0.000   43.636    0.000    0.000 
#    0.000    0.000    0.000    0.000    0.000    0.000 
#
# Total GULP energy -123011.788076 kJ/mol
# GULP energy per Si atom -5591.444913 kJ/mol
# Density = 2.487483 g / cm^3
# Si number density = 24.931579 Si / 1000 Ang^3
#
#
#
# Elastic Constant Matrix: (Units=GPa)
#
#
# Indices 1 2 3 4 5 6 
#
# 1 275.6228 42.4949 88.1611 0.0000 24.8332 0.0000
# 2 42.4949 102.9932 40.7746 0.0000 -11.3594 0.0000
# 3 88.1611 40.7746 212.6858 0.0000 8.5946 0.0000
# 4 0.0000 0.0000 0.0000 70.1781 0.0000 -45.7771
# 5 24.8332 -11.3594 8.5946 0.0000 35.5391 0.0000
# 6 0.0000 0.0000 0.0000 -45.7771 0.0000 53.4105
#
#
#
# Elastic Compliance Matrix: (Units=1/GPa)
#
#
# Indices 1 2 3 4 5 6 
#
# 1 0.004676 -0.001731 -0.001466 0.000000 -0.003466 0.000000
# 2 -0.001731 0.011707 -0.001744 0.000000 0.005373 0.000000
# 3 -0.001466 -0.001744 0.005681 0.000000 -0.000906 0.000000
# 4 0.000000 0.000000 0.000000 0.032317 0.000000 0.027698
# 5 -0.003466 0.005373 -0.000906 0.000000 0.032497 0.000000
# 6 0.000000 0.000000 0.000000 0.027698 0.000000 0.042463
#
#
# Mechanical properties :
#
#
# Convention : Reuss Voigt Hill
#
# Bulk Modulus (GPa) = 82.09755 103.79591 92.94673
# Shear Modulus (GPa) = 34.89580 59.81694 47.35637
#
# Velocity S-wave (km/s) = 3.74527 4.90352 4.36300
# Velocity P-wave (km/s) = 7.19050 8.58965 7.92103
#
# Compressibility (1/GPa) = 0.01218063
#
# Stress axis : x y z
#
# Youngs Moduli (GPa) = 213.83722 85.42116 176.03808
#
# Poissons Ratio (x) = 0.14789 0.25816
# Poissons Ratio (y) = 0.37021 0.30698
# Poissons Ratio (z) = 0.31359 0.14896
#
# Static dielectric constant tensor:
#      x y z
#    x 1.999450 0.000000 0.002690 
#    y 0.000000 7.169150 0.000000 
#    z 0.002690 0.000000 1.921050 
# 
# From -- ./inp_files/129739.got.cif
#   From: 2010.05.17/outbox.cif.g08.bks.cpg/sg15_65_cif.got.tgz:129739.got - 2010.06.03 18:47:42.
