data_PCOD9280627
_publ_section_title
;
Structure prediction by ZEFSAII (Michael W. Deem and Ramdas Pophale) SiO2 
 PCOD9280627
Probable space group: C 2/C
;
_chemical_formula_sum "Si O2"
_cell_formula_units_Z 40
_cell_length_a 10.651996
_cell_length_b 15.498860
_cell_length_c 9.161653
_cell_angle_alpha 90.000000
_cell_angle_beta 90.539196
_cell_angle_gamma 90.000000
_cell_volume 1512.465084
_symmetry_space_group_name_H-M "C 2/C"
_symmetry_group_IT_number 15
_symmetry_cell_setting 'monoclinic'
loop_
_space_group_symop_operation_xyz
x,y,z
-x,y,1/2-z
-x,-y,-z
x,-y,1/2+z
1/2+x,1/2+y,z
1/2-x,1/2+y,1/2-z
1/2-x,1/2-y,-z
1/2+x,1/2-y,1/2+z
loop_
_atom_site_type_symbol
_atom_site_label
_atom_site_fract_x
_atom_site_fract_y
_atom_site_fract_z
Si Si1 0.487202 0.092573 0.076779
Si Si2 0.258115 0.437919 0.082646
Si Si3 0.248996 0.638030 0.082878
Si Si4 0.356339 0.783580 0.292010
Si Si5 0.020728 0.866204 0.573090
O O1 0.342050 0.103757 0.033355
O O2 0.607131 0.148403 0.023616
O O3 0.500000 0.000000 0.000000
O O4 0.740893 0.036713 0.131060
O O5 0.392692 0.432342 0.010195
O O6 0.226565 0.369667 0.207504
O O7 0.278307 0.714866 0.195225
O O8 0.383105 0.639847 0.002326
O O9 0.000000 0.592774 0.250000
O O10 0.500000 0.809297 0.250000
O O11 0.397336 0.722145 0.429739
O O12 0.000000 0.883014 0.750000
#
# Coordination Sequence:
#
# PCOD9280627 Si02
#       5
#     8   8   8   8   8
#     4  10  21  37  61  98 134 173 225 283 346 416
#     4  11  20  35  69 100 133 186 225 279 358 413
#     4   9  20  38  62  96 137 172 225 288 339 412
#     4   9  20  39  63  98 139 180 230 287 345 418
#     4   9  18  35  59  92 131 173 222 279 341 417
#
# _framework density 26.446891000000001
#
# number of rings (size 3 to 8) (size 9 to 14) (size 15 to 20)
#    0.000    2.800    0.000    3.600    0.000    3.200 
#    0.000    4.000    0.000   31.200    0.000    2.800 
#    0.000    0.000    0.000    0.000    0.000    0.000 
#
# Total GULP energy -111343.194791 kJ/mol
# GULP energy per Si atom -5567.159740 kJ/mol
# Density = 2.638670 g / cm^3
# Si number density = 26.446891 Si / 1000 Ang^3
#
#
#
# Elastic Constant Matrix: (Units=GPa)
#
#
# Indices 1 2 3 4 5 6 
#
# 1 230.7193 56.7581 53.6615 0.0000 9.2031 0.0000
# 2 56.7581 196.7790 33.0167 0.0000 -5.9041 0.0000
# 3 53.6615 33.0167 68.1210 0.0000 6.9034 0.0000
# 4 0.0000 0.0000 0.0000 13.8570 0.0000 21.6216
# 5 9.2031 -5.9041 6.9034 0.0000 50.2944 0.0000
# 6 0.0000 0.0000 0.0000 21.6216 0.0000 28.2838
#
#
#
# Elastic Compliance Matrix: (Units=1/GPa)
#
#
# Indices 1 2 3 4 5 6 
#
# 1 0.005475 -0.000962 -0.003787 0.000000 -0.000595 0.000000
# 2 -0.000962 0.005754 -0.002147 0.000000 0.001146 0.000000
# 3 -0.003787 -0.002147 0.018922 0.000000 -0.002156 0.000000
# 4 0.000000 0.000000 0.000000 -0.374307 0.000000 0.286139
# 5 -0.000595 0.001146 -0.002156 0.000000 0.020422 0.000000
# 6 0.000000 0.000000 0.000000 0.286139 0.000000 -0.183384
#
#
# Mechanical properties :
#
#
# Convention : Reuss Voigt Hill
#
# Bulk Modulus (GPa) = 61.12592 86.94356 74.03474
# Shear Modulus (GPa) = -10.24859 41.96591 15.85866
#
# Velocity S-wave (km/s) = -1.97068 3.98779 2.45141
# Velocity P-wave (km/s) = 4.24085 7.35863 6.00559
#
# Compressibility (1/GPa) = 0.01635967
#
# Stress axis : x y z
#
# Youngs Moduli (GPa) = 182.63742 173.79405 52.84861
#
# Poissons Ratio (x) = 0.16715 0.20012
# Poissons Ratio (y) = 0.17566 0.11348
# Poissons Ratio (z) = 0.69159 0.37319
#
# Static dielectric constant tensor:
#      x y z
#    x 2.169020 0.000000 0.036750 
#    y 0.000000 2.178500 0.000000 
#    z 0.036750 0.000000 2.443690 
# 
# From -- ./inp_files/133834.got.cif
#   From: 2010.05.17/outbox.cif.g08.bks.cpg/sg15_67_cif.got.tgz:133834.got - 2010.06.03 18:47:42.
