data_PCOD9280987
_publ_section_title
;
Structure prediction by ZEFSAII (Michael W. Deem and Ramdas Pophale) SiO2 
 PCOD9280987
Probable space group: C 2/C
;
_chemical_formula_sum "Si O2"
_cell_formula_units_Z 64
_cell_length_a 24.968203
_cell_length_b 20.318911
_cell_length_c 15.293746
_cell_angle_alpha 90.000000
_cell_angle_beta 155.865807
_cell_angle_gamma 90.000000
_cell_volume 3172.431865
_symmetry_space_group_name_H-M "C 2/C"
_symmetry_group_IT_number 15
_symmetry_cell_setting 'monoclinic'
loop_
_space_group_symop_operation_xyz
x,y,z
-x,y,1/2-z
-x,-y,-z
x,-y,1/2+z
1/2+x,1/2+y,z
1/2-x,1/2+y,1/2-z
1/2-x,1/2-y,-z
1/2+x,1/2-y,1/2+z
loop_
_atom_site_type_symbol
_atom_site_label
_atom_site_fract_x
_atom_site_fract_y
_atom_site_fract_z
Si Si1 0.212491 0.683476 0.743943
Si Si2 0.638114 0.372770 0.727535
Si Si3 0.652597 0.352033 0.394907
Si Si4 0.493145 0.240801 0.962009
Si Si5 0.431652 0.576010 0.058508
Si Si6 0.872662 0.710244 0.601351
Si Si7 0.717144 0.218765 0.561397
Si Si8 0.128288 0.077147 0.031902
O O1 0.083055 0.679600 0.610200
O O2 0.160246 0.701771 0.570291
O O3 0.305458 0.622112 0.863470
O O4 0.302891 0.737962 0.930697
O O5 0.561410 0.308301 0.578485
O O6 0.535764 0.412163 0.635199
O O7 0.689187 0.409397 0.717549
O O8 0.763282 0.342839 0.964015
O O9 0.633905 0.275009 0.390241
O O10 0.745372 0.341813 0.447670
O O11 0.517991 0.391202 0.178766
O O12 0.698154 0.388524 0.552782
O O13 0.437596 0.245897 0.780936
O O14 0.646083 0.245217 0.205916
O O15 0.500000 0.597050 0.250000
O O16 0.390481 0.500428 0.006579
O O17 0.000000 0.676832 0.750000
#
# Coordination Sequence:
#
# PCOD9280987 Si02
#       8
#     8   8   8   8   8   8   8   8
#     4  11  21  34  56  84 122 150 194 233 308 347
#     4  11  21  35  57  86 118 151 197 240 300 350
#     4  10  21  38  53  85 112 150 204 235 299 340
#     4  11  20  34  55  89 119 148 187 245 304 362
#     4  12  21  36  56  86 121 161 192 241 289 356
#     4  11  20  34  55  86 122 152 182 249 297 365
#     4  11  21  35  61  83 119 154 186 262 291 350
#     4  11  22  38  59  81 120 156 202 238 285 355
#
# _framework density 20.173798000000001
#
# number of rings (size 3 to 8) (size 9 to 14) (size 15 to 20)
#    0.000    1.000    5.000    5.250    1.750    0.000 
#    0.000    0.000    0.000    2.250    0.000    0.000 
#    0.000    0.000    0.000    0.000    0.000    0.000 
#
# Total GULP energy -178283.466895 kJ/mol
# GULP energy per Si atom -5571.358340 kJ/mol
# Density = 2.012788 g / cm^3
# Si number density = 20.173798 Si / 1000 Ang^3
#
#
#
# Elastic Constant Matrix: (Units=GPa)
#
#
# Indices 1 2 3 4 5 6 
#
# 1 96.3814 18.8378 3.8477 0.0000 -13.5171 0.0000
# 2 18.8378 63.3931 7.1982 0.0000 2.7611 0.0000
# 3 3.8477 7.1982 19.2862 0.0000 1.0035 0.0000
# 4 0.0000 0.0000 0.0000 15.5204 0.0000 2.2906
# 5 -13.5171 2.7611 1.0035 0.0000 36.7203 0.0000
# 6 0.0000 0.0000 0.0000 2.2906 0.0000 24.1120
#
#
#
# Elastic Compliance Matrix: (Units=1/GPa)
#
#
# Indices 1 2 3 4 5 6 
#
# 1 0.011771 -0.003556 -0.001262 0.000000 0.004635 0.000000
# 2 -0.003556 0.017589 -0.005727 0.000000 -0.002475 0.000000
# 3 -0.001262 -0.005727 0.054319 0.000000 -0.001519 0.000000
# 4 0.000000 0.000000 0.000000 0.065348 0.000000 -0.006208
# 5 0.004635 -0.002475 -0.001519 0.000000 0.029167 0.000000
# 6 0.000000 0.000000 0.000000 -0.006208 0.000000 0.042063
#
#
# Mechanical properties :
#
#
# Convention : Reuss Voigt Hill
#
# Bulk Modulus (GPa) = 15.97732 26.53645 21.25689
# Shear Modulus (GPa) = 19.06871 25.21567 22.14219
#
# Velocity S-wave (km/s) = 3.07778 3.53926 3.31656
# Velocity P-wave (km/s) = 4.53512 5.46665 5.02253
#
# Compressibility (1/GPa) = 0.06258872
#
# Stress axis : x y z
#
# Youngs Moduli (GPa) = 84.95484 56.85228 18.40987
#
# Poissons Ratio (x) = 0.20219 0.02324
# Poissons Ratio (y) = 0.30213 0.10543
# Poissons Ratio (z) = 0.10723 0.32557
#
# Static dielectric constant tensor:
#      x y z
#    x 1.830800 0.000000 -0.007130 
#    y 0.000000 1.700430 0.000000 
#    z -0.007130 0.000000 1.785260 
# 
# From -- ./inp_files/174249.got.cif
#   From: 2010.05.17/outbox.cif.g08.bks.cpg/sg15_88_cif.got.tgz:174249.got - 2010.06.03 18:47:42.
