data_PCOD9280788
_publ_section_title
;
Structure prediction by ZEFSAII (Michael W. Deem and Ramdas Pophale) SiO2 
 PCOD9280788
Probable space group: C 2/C
;
_chemical_formula_sum "Si O2"
_cell_formula_units_Z 44
_cell_length_a 11.269465
_cell_length_b 33.646371
_cell_length_c 5.285440
_cell_angle_alpha 90.000000
_cell_angle_beta 93.485214
_cell_angle_gamma 90.000000
_cell_volume 2000.408599
_symmetry_space_group_name_H-M "C 2/C"
_symmetry_group_IT_number 15
_symmetry_cell_setting 'monoclinic'
loop_
_space_group_symop_operation_xyz
x,y,z
-x,y,1/2-z
-x,-y,-z
x,-y,1/2+z
1/2+x,1/2+y,z
1/2-x,1/2+y,1/2-z
1/2-x,1/2-y,-z
1/2+x,1/2-y,1/2+z
loop_
_atom_site_type_symbol
_atom_site_label
_atom_site_fract_x
_atom_site_fract_y
_atom_site_fract_z
Si Si1 0.626280 0.373382 0.160536
Si Si2 0.141375 0.819907 0.645953
Si Si3 0.500000 0.250205 0.750000
Si Si4 0.632731 0.016437 0.080390
Si Si5 0.618862 0.899742 0.434262
Si Si6 0.386724 0.808069 0.902295
O O1 0.500000 0.390839 0.250000
O O2 0.656323 0.343498 0.390956
O O3 0.746412 0.399538 0.159649
O O4 0.612407 0.349509 0.887777
O O5 0.054967 0.783158 0.571996
O O6 0.265522 0.801544 0.744694
O O7 0.398811 0.220747 0.640981
O O8 0.691186 0.993180 0.317981
O O9 0.623784 0.063342 0.127570
O O10 0.500000 0.000000 0.000000
O O11 0.500000 0.907153 0.250000
O O12 0.604981 0.854937 0.532613
O O13 0.500000 0.798035 0.750000
#
# Coordination Sequence:
#
# PCOD9280788 Si02
#       6
#     8   8   4   8   8   8
#     4  11  23  45  67  92 123 177 222 265 321 383
#     4  11  25  43  66  85 126 172 227 269 323 389
#     4  12  24  42  60  90 126 172 222 278 326 382
#     4  10  21  37  63  96 130 166 201 243 320 393
#     4  11  22  41  66  97 133 163 213 269 318 389
#     4  11  26  39  61  94 128 169 216 275 336 371
#
# _framework density 21.995508000000001
#
# number of rings (size 3 to 8) (size 9 to 14) (size 15 to 20)
#    0.000    1.091    4.545    1.636    7.636    3.636 
#    0.000    0.000    0.000    1.091    0.000    0.000 
#    0.000    0.000    0.000    0.000    0.000    0.000 
#
# Total GULP energy -122532.651768 kJ/mol
# GULP energy per Si atom -5569.665989 kJ/mol
# Density = 2.194545 g / cm^3
# Si number density = 21.995508 Si / 1000 Ang^3
#
#
#
# Elastic Constant Matrix: (Units=GPa)
#
#
# Indices 1 2 3 4 5 6 
#
# 1 116.8102 6.2738 0.7505 0.0000 0.6201 0.0000
# 2 6.2738 113.3617 14.3533 0.0000 -6.1788 0.0000
# 3 0.7505 14.3533 100.9363 0.0000 1.7473 0.0000
# 4 0.0000 0.0000 0.0000 23.9849 0.0000 -18.5604
# 5 0.6201 -6.1788 1.7473 0.0000 33.7176 0.0000
# 6 0.0000 0.0000 0.0000 -18.5604 0.0000 -1.0203
#
#
#
# Elastic Compliance Matrix: (Units=1/GPa)
#
#
# Indices 1 2 3 4 5 6 
#
# 1 0.008588 -0.000490 0.000010 0.000000 -0.000248 0.000000
# 2 -0.000490 0.009111 -0.001322 0.000000 0.001747 0.000000
# 3 0.000010 -0.001322 0.010108 0.000000 -0.000766 0.000000
# 4 0.000000 0.000000 0.000000 0.002765 0.000000 -0.050305
# 5 -0.000248 0.001747 -0.000766 0.000000 0.030023 0.000000
# 6 0.000000 0.000000 0.000000 -0.050305 0.000000 -0.065007
#
#
# Mechanical properties :
#
#
# Convention : Reuss Voigt Hill
#
# Bulk Modulus (GPa) = 41.31617 41.54038 41.42827
# Shear Modulus (GPa) = 688.55676 31.98514 360.27095
#
# Velocity S-wave (km/s) = 17.71225 3.81749 12.81205
# Velocity P-wave (km/s) = 20.90749 6.19337 15.41884
#
# Compressibility (1/GPa) = 0.02420360
#
# Stress axis : x y z
#
# Youngs Moduli (GPa) = 116.43510 109.75638 98.92714
#
# Poissons Ratio (x) = 0.05379 -0.00100
# Poissons Ratio (y) = 0.05707 0.13080
# Poissons Ratio (z) = -0.00118 0.14512
#
# Static dielectric constant tensor:
#      x y z
#    x 1.789100 0.000000 0.172720 
#    y 0.000000 1.765660 0.000000 
#    z 0.172720 0.000000 1.454200 
# 
# From -- ./inp_files/5877.got.cif
#   From: 2010.05.17/outbox.cif.g08.bks.cpg/sg15_3_cif.got.tgz:5877.got - 2010.06.03 18:47:42.
