data_PCOD9280405
_publ_section_title
;
Structure prediction by ZEFSAII (Michael W. Deem and Ramdas Pophale) SiO2 
 PCOD9280405
Probable space group: C 2/C
;
_chemical_formula_sum "Si O2"
_cell_formula_units_Z 48
_cell_length_a 13.362317
_cell_length_b 9.893287
_cell_length_c 21.640648
_cell_angle_alpha 90.000000
_cell_angle_beta 47.237018
_cell_angle_gamma 90.000000
_cell_volume 2100.334654
_symmetry_space_group_name_H-M "C 2/C"
_symmetry_group_IT_number 15
_symmetry_cell_setting 'monoclinic'
loop_
_space_group_symop_operation_xyz
x,y,z
-x,y,1/2-z
-x,-y,-z
x,-y,1/2+z
1/2+x,1/2+y,z
1/2-x,1/2+y,1/2-z
1/2-x,1/2-y,-z
1/2+x,1/2-y,1/2+z
loop_
_atom_site_type_symbol
_atom_site_label
_atom_site_fract_x
_atom_site_fract_y
_atom_site_fract_z
Si Si1 0.228520 0.934096 0.894678
Si Si2 0.227999 0.142971 0.064309
Si Si3 0.917533 0.447091 0.919321
Si Si4 0.853238 0.242506 0.638492
Si Si5 0.993976 0.046098 0.419391
Si Si6 0.093110 0.639218 0.763894
O O1 0.328932 0.870408 0.903325
O O2 0.326778 0.018088 0.807317
O O3 0.132821 0.025216 0.980371
O O4 0.110475 0.863149 0.903776
O O5 0.283015 0.212473 0.103164
O O6 0.071678 0.096574 0.116698
O O7 0.250000 0.250000 0.000000
O O8 0.319751 0.010525 0.011838
O O9 0.035858 0.353087 0.893422
O O10 0.993374 0.572946 0.854736
O O11 0.717136 0.228288 0.736989
O O12 0.933827 0.100661 0.613267
O O13 0.000000 0.704721 0.750000
#
# Coordination Sequence:
#
# PCOD9280405 Si02
#       6
#     8   8   8   8   8   8
#     4   8  15  32  58  79 114 149 193 237 286 355
#     4  11  21  37  64  92 117 159 210 248 300 369
#     4  10  21  37  59  89 122 156 198 250 310 367
#     4  11  22  39  60  89 126 156 198 261 314 353
#     4   9  18  35  59  91 113 150 206 250 291 359
#     4   9  18  38  58  80 114 161 203 235 292 368
#
# _framework density 22.853501000000001
#
# number of rings (size 3 to 8) (size 9 to 14) (size 15 to 20)
#    0.000    2.333    0.000    6.500    0.000    2.667 
#   15.000    1.667    7.333    0.000    0.000    0.000 
#    0.000    0.000    0.000    0.000    0.000    0.000 
#
# Total GULP energy -133650.590617 kJ/mol
# GULP energy per Si atom -5568.774609 kJ/mol
# Density = 2.280149 g / cm^3
# Si number density = 22.853501 Si / 1000 Ang^3
#
#
#
# Elastic Constant Matrix: (Units=GPa)
#
#
# Indices 1 2 3 4 5 6 
#
# 1 206.4906 54.8489 29.3483 0.0000 -31.6973 0.0000
# 2 54.8489 54.3948 0.0455 0.0000 -5.8045 0.0000
# 3 29.3483 0.0455 57.4771 0.0000 -15.6608 0.0000
# 4 0.0000 0.0000 0.0000 23.0713 0.0000 -11.9866
# 5 -31.6973 -5.8045 -15.6608 0.0000 38.3066 0.0000
# 6 0.0000 0.0000 0.0000 -11.9866 0.0000 33.1371
#
#
#
# Elastic Compliance Matrix: (Units=1/GPa)
#
#
# Indices 1 2 3 4 5 6 
#
# 1 0.007893 -0.007506 -0.002875 0.000000 0.004218 0.000000
# 2 -0.007506 0.025862 0.003587 0.000000 -0.000826 0.000000
# 3 -0.002875 0.003587 0.020665 0.000000 0.006613 0.000000
# 4 0.000000 0.000000 0.000000 0.053375 0.000000 0.019307
# 5 0.004218 -0.000826 0.006613 0.000000 0.032174 0.000000
# 6 0.000000 0.000000 0.000000 0.019307 0.000000 0.037162
#
#
# Mechanical properties :
#
#
# Convention : Reuss Voigt Hill
#
# Bulk Modulus (GPa) = 24.49039 54.09422 39.29231
# Shear Modulus (GPa) = 24.47041 34.51099 29.49070
#
# Velocity S-wave (km/s) = 3.27578 3.89021 3.59614
# Velocity P-wave (km/s) = 5.00472 6.62569 5.87141
#
# Compressibility (1/GPa) = 0.04083235
#
# Stress axis : x y z
#
# Youngs Moduli (GPa) = 126.69846 38.66713 48.39051
#
# Poissons Ratio (x) = 0.29024 0.13911
# Poissons Ratio (y) = 0.95101 -0.17359
# Poissons Ratio (z) = 0.36423 -0.13871
#
# Static dielectric constant tensor:
#      x y z
#    x 1.957450 0.000000 0.007510 
#    y 0.000000 1.904470 0.000000 
#    z 0.007510 0.000000 1.893870 
# 
# From -- ./inp_files/268684.got.cif
#   From: 2010.05.17/outbox.cif.g08.bks.cpg/sg15_135_cif.got.tgz:268684.got - 2010.06.03 18:47:42.
