data_PCOD9280701
_publ_section_title
;
Structure prediction by ZEFSAII (Michael W. Deem and Ramdas Pophale) SiO2 
 PCOD9280701
Probable space group: C 2/C
;
_chemical_formula_sum "Si O2"
_cell_formula_units_Z 48
_cell_length_a 28.232191
_cell_length_b 11.963250
_cell_length_c 22.029303
_cell_angle_alpha 90.000000
_cell_angle_beta 162.499585
_cell_angle_gamma 90.000000
_cell_volume 2237.413731
_symmetry_space_group_name_H-M "C 2/C"
_symmetry_group_IT_number 15
_symmetry_cell_setting 'monoclinic'
loop_
_space_group_symop_operation_xyz
x,y,z
-x,y,1/2-z
-x,-y,-z
x,-y,1/2+z
1/2+x,1/2+y,z
1/2-x,1/2+y,1/2-z
1/2-x,1/2-y,-z
1/2+x,1/2-y,1/2+z
loop_
_atom_site_type_symbol
_atom_site_label
_atom_site_fract_x
_atom_site_fract_y
_atom_site_fract_z
Si Si1 0.312132 0.344071 0.530644
Si Si2 0.905730 0.831339 0.923899
Si Si3 0.438064 0.556569 0.000095
Si Si4 0.064250 0.420769 0.024279
Si Si5 0.367938 0.243672 0.483656
Si Si6 0.459706 0.018857 0.768446
O O1 0.500000 0.350050 0.750000
O O2 0.250000 0.250000 0.500000
O O3 0.251385 0.302818 0.389735
O O4 0.224680 0.454786 0.446234
O O5 0.722521 0.805024 0.685639
O O6 0.951231 0.924315 0.029636
O O7 0.980830 0.709522 0.021359
O O8 0.958304 0.898449 0.928407
O O9 0.253511 0.569622 0.758748
O O10 0.471367 0.649764 0.090949
O O11 0.014340 0.453301 0.895072
O O12 0.000000 0.500000 0.000000
O O13 0.451190 0.139163 0.616835
O O14 0.500000 0.975671 0.750000
#
# Coordination Sequence:
#
# PCOD9280701 Si02
#       6
#     8   8   8   8   8   8
#     4  12  22  37  58  89 127 167 213 271 319 390
#     4  10  22  37  64  96 126 166 219 258 327 381
#     4  10  21  37  62  95 124 170 210 276 312 383
#     4  11  23  41  64  94 135 171 213 269 328 391
#     4  11  19  36  62  90 136 158 215 260 333 372
#     4  12  23  40  64  96 134 173 216 265 335 389
#
# _framework density 21.453341999999999
#
# number of rings (size 3 to 8) (size 9 to 14) (size 15 to 20)
#    0.000    1.000    5.000    4.000    2.333    0.000 
#    0.000    0.000    0.000    3.000    0.000    0.000 
#    0.000    0.000    0.000    0.000    0.000    0.000 
#
# Total GULP energy -133712.578188 kJ/mol
# GULP energy per Si atom -5571.357425 kJ/mol
# Density = 2.140451 g / cm^3
# Si number density = 21.453342 Si / 1000 Ang^3
#
#
#
# Elastic Constant Matrix: (Units=GPa)
#
#
# Indices 1 2 3 4 5 6 
#
# 1 93.6646 42.8747 18.7224 -0.0030 -10.1093 -0.0020
# 2 42.8747 150.0218 12.3730 -0.0041 -7.7102 -0.0030
# 3 18.7224 12.3730 75.4019 -0.0050 9.7202 -0.0040
# 4 -0.0030 -0.0041 -0.0050 30.2168 -0.0030 -6.2464
# 5 -10.1093 -7.7102 9.7202 -0.0030 33.0138 -0.0021
# 6 -0.0020 -0.0030 -0.0040 -6.2464 -0.0021 27.6720
#
#
#
# Elastic Compliance Matrix: (Units=1/GPa)
#
#
# Indices 1 2 3 4 5 6 
#
# 1 0.013317 -0.003313 -0.003315 0.000001 0.004280 0.000001
# 2 -0.003313 0.007708 -0.000565 0.000001 0.000952 0.000001
# 3 -0.003315 -0.000565 0.014891 0.000002 -0.005531 0.000002
# 4 0.000001 0.000001 0.000002 0.034714 0.000004 0.007836
# 5 0.004280 0.000952 -0.005531 0.000004 0.033452 0.000003
# 6 0.000001 0.000001 0.000002 0.007836 0.000003 0.037906
#
#
# Mechanical properties :
#
#
# Convention : Reuss Voigt Hill
#
# Bulk Modulus (GPa) = 46.44400 51.89206 49.16803
# Shear Modulus (GPa) = 30.57147 34.52173 32.54660
#
# Velocity S-wave (km/s) = 3.77904 4.01578 3.89921
# Velocity P-wave (km/s) = 6.38258 6.76334 6.57572
#
# Compressibility (1/GPa) = 0.02153130
#
# Stress axis : x y z
#
# Youngs Moduli (GPa) = 75.09031 129.73645 67.15390
#
# Poissons Ratio (x) = 0.42976 0.22261
# Poissons Ratio (y) = 0.24874 0.03795
# Poissons Ratio (z) = 0.24892 0.07331
#
# Static dielectric constant tensor:
#      x y z
#    x 1.892680 0.000000 -0.037900 
#    y 0.000000 1.855200 0.000000 
#    z -0.037900 0.000000 1.884020 
# 
# From -- ./inp_files/257650.got.cif
#   From: 2010.05.17/outbox.cif.g08.bks.cpg/sg15_129_cif.got.tgz:257650.got - 2010.06.03 18:47:42.
