data_PCOD9280272
_publ_section_title
;
Structure prediction by ZEFSAII (Michael W. Deem and Ramdas Pophale) SiO2 
 PCOD9280272
Probable space group: C 2/C
;
_chemical_formula_sum "Si O2"
_cell_formula_units_Z 48
_cell_length_a 20.796339
_cell_length_b 23.631709
_cell_length_c 14.685381
_cell_angle_alpha 90.000000
_cell_angle_beta 160.427346
_cell_angle_gamma 90.000000
_cell_volume 2417.767403
_symmetry_space_group_name_H-M "C 2/C"
_symmetry_group_IT_number 15
_symmetry_cell_setting 'monoclinic'
loop_
_space_group_symop_operation_xyz
x,y,z
-x,y,1/2-z
-x,-y,-z
x,-y,1/2+z
1/2+x,1/2+y,z
1/2-x,1/2+y,1/2-z
1/2-x,1/2-y,-z
1/2+x,1/2-y,1/2+z
loop_
_atom_site_type_symbol
_atom_site_label
_atom_site_fract_x
_atom_site_fract_y
_atom_site_fract_z
Si Si1 0.563600 0.827045 0.987579
Si Si2 0.540988 0.565526 0.029085
Si Si3 0.301244 0.271876 0.967341
Si Si4 0.223179 0.514962 0.308123
Si Si5 0.082677 0.106888 0.456866
Si Si6 0.168029 0.573031 0.419988
O O1 0.392032 0.802579 0.821211
O O2 0.448967 0.874217 0.776707
O O3 0.645777 0.778840 0.029948
O O4 0.738414 0.855040 0.273681
O O5 0.563844 0.600463 0.152969
O O6 0.344729 0.587852 0.720688
O O7 0.500000 0.500000 0.000000
O O8 0.706037 0.559795 0.173567
O O9 0.500000 0.306190 0.250000
O O10 0.250000 0.250000 0.000000
O O11 0.336727 0.456621 0.448873
O O12 0.251578 0.539008 0.446787
O O13 0.000000 0.500000 0.000000
O O14 0.000000 0.125869 0.250000
O O15 0.000000 0.539640 0.250000
#
# Coordination Sequence:
#
# PCOD9280272 Si02
#       6
#     8   8   8   8   8   8
#     4  11  22  42  63  97 124 163 213 272 334 393
#     4  10  21  37  57  89 128 175 210 251 310 379
#     4   9  20  37  63  91 125 148 196 275 340 376
#     4  11  21  38  58  96 133 169 211 264 308 390
#     4  11  23  42  63  86 133 175 218 258 319 380
#     4  12  20  36  65  94 132 165 215 260 322 385
#
# _framework density 19.853027000000001
#
# number of rings (size 3 to 8) (size 9 to 14) (size 15 to 20)
#    0.000    1.333    3.333    5.000    0.000    1.333 
#    3.000    0.833    0.000    0.000    0.000    0.000 
#    0.000    0.000    0.000    0.000    0.000    0.000 
#
# Total GULP energy -133927.367069 kJ/mol
# GULP energy per Si atom -5580.306961 kJ/mol
# Density = 1.980784 g / cm^3
# Si number density = 19.853027 Si / 1000 Ang^3
#
#
#
# Elastic Constant Matrix: (Units=GPa)
#
#
# Indices 1 2 3 4 5 6 
#
# 1 135.4643 28.7084 60.9370 0.0000 8.0295 0.0000
# 2 28.7084 56.8814 35.2352 0.0000 -1.0928 0.0000
# 3 60.9370 35.2352 113.7697 0.0000 -1.9969 0.0000
# 4 0.0000 0.0000 0.0000 29.1514 0.0000 3.1290
# 5 8.0295 -1.0928 -1.9969 0.0000 42.2230 0.0000
# 6 0.0000 0.0000 0.0000 3.1290 0.0000 25.2745
#
#
#
# Elastic Compliance Matrix: (Units=1/GPa)
#
#
# Indices 1 2 3 4 5 6 
#
# 1 0.010130 -0.002190 -0.004786 0.000000 -0.002210 0.000000
# 2 -0.002190 0.022230 -0.005699 0.000000 0.000722 0.000000
# 3 -0.004786 -0.005699 0.013143 0.000000 0.001384 0.000000
# 4 0.000000 0.000000 0.000000 0.034766 0.000000 -0.004304
# 5 -0.002210 0.000722 0.001384 0.000000 0.024188 0.000000
# 6 0.000000 0.000000 0.000000 -0.004304 0.000000 0.040098
#
#
# Mechanical properties :
#
#
# Convention : Reuss Voigt Hill
#
# Bulk Modulus (GPa) = 49.62371 61.76407 55.69389
# Shear Modulus (GPa) = 28.30883 31.41211 29.86047
#
# Velocity S-wave (km/s) = 3.78023 3.98204 3.88245
# Velocity P-wave (km/s) = 6.64103 7.23329 6.94348
#
# Compressibility (1/GPa) = 0.02015166
#
# Stress axis : x y z
#
# Youngs Moduli (GPa) = 98.71409 44.98434 76.08831
#
# Poissons Ratio (x) = 0.09853 0.36419
# Poissons Ratio (y) = 0.21622 0.43362
# Poissons Ratio (z) = 0.47248 0.25636
#
# Static dielectric constant tensor:
#      x y z
#    x 1.807260 0.000000 0.021740 
#    y 0.000000 1.747020 0.000000 
#    z 0.021740 0.000000 1.745580 
# 
# From -- ./inp_files/64065.got.cif
#   From: 2010.05.17/outbox.cif.g08.bks.cpg/sg15_33_cif.got.tgz:64065.got - 2010.06.03 18:47:42.
