data_PCOD9280293
_publ_section_title
;
Structure prediction by ZEFSAII (Michael W. Deem and Ramdas Pophale) SiO2 
 PCOD9280293
Probable space group: C 2/C
;
_chemical_formula_sum "Si O2"
_cell_formula_units_Z 40
_cell_length_a 13.202277
_cell_length_b 7.213637
_cell_length_c 15.169597
_cell_angle_alpha 90.000000
_cell_angle_beta 83.457184
_cell_angle_gamma 90.000000
_cell_volume 1435.288978
_symmetry_space_group_name_H-M "C 2/C"
_symmetry_group_IT_number 15
_symmetry_cell_setting 'monoclinic'
loop_
_space_group_symop_operation_xyz
x,y,z
-x,y,1/2-z
-x,-y,-z
x,-y,1/2+z
1/2+x,1/2+y,z
1/2-x,1/2+y,1/2-z
1/2-x,1/2-y,-z
1/2+x,1/2-y,1/2+z
loop_
_atom_site_type_symbol
_atom_site_label
_atom_site_fract_x
_atom_site_fract_y
_atom_site_fract_z
Si Si1 0.264055 0.242114 0.731279
Si Si2 0.331293 0.327793 0.921348
Si Si3 0.060022 0.084591 0.823830
Si Si4 0.560457 0.781430 0.409418
Si Si5 0.624780 0.767930 0.590105
O O1 0.294382 0.312033 0.824635
O O2 0.365931 0.154715 0.677512
O O3 0.207194 0.342017 0.652036
O O4 0.167391 0.124706 0.772233
O O5 0.437931 0.211670 0.917697
O O6 0.250000 0.250000 0.000000
O O7 0.348062 0.549952 0.928523
O O8 0.072009 0.943250 0.901414
O O9 0.000000 0.985411 0.750000
O O10 0.989274 0.256569 0.857037
O O11 0.609910 0.850521 0.494934
#
# Coordination Sequence:
#
# PCOD9280293 Si02
#       5
#     8   8   8   8   8
#     4  11  20  33  56  87 115 144 184 235 286 331
#     4  11  22  38  62  86 112 151 193 235 282 337
#     4   9  18  34  56  81 109 146 192 232 273 331
#     4  11  20  36  59  85 114 148 191 238 280 333
#     4  10  21  37  58  85 113 147 191 236 281 336
#
# _framework density 27.868953999999999
#
# number of rings (size 3 to 8) (size 9 to 14) (size 15 to 20)
#    0.000    1.600    0.000    9.600    0.000    0.000 
#    0.000    1.000    0.000   40.800    0.000    0.000 
#    0.000    0.000    0.000    0.000    0.000    0.000 
#
# Total GULP energy -111777.994418 kJ/mol
# GULP energy per Si atom -5588.899721 kJ/mol
# Density = 2.780552 g / cm^3
# Si number density = 27.868954 Si / 1000 Ang^3
#
#
#
# Elastic Constant Matrix: (Units=GPa)
#
#
# Indices 1 2 3 4 5 6 
#
# 1 234.7649 32.1506 106.9764 0.0000 -22.5209 0.0000
# 2 32.1506 26.8852 12.5710 0.0000 -1.7067 0.0000
# 3 106.9764 12.5710 230.6916 0.0000 6.8013 0.0000
# 4 0.0000 0.0000 0.0000 30.5713 0.0000 -2.2779
# 5 -22.5209 -1.7067 6.8013 0.0000 85.4063 0.0000
# 6 0.0000 0.0000 0.0000 -2.2779 0.0000 40.9660
#
#
#
# Elastic Compliance Matrix: (Units=1/GPa)
#
#
# Indices 1 2 3 4 5 6 
#
# 1 0.006571 -0.006457 -0.002749 0.000000 0.001823 0.000000
# 2 -0.006457 0.044587 0.000590 0.000000 -0.000859 0.000000
# 3 -0.002749 0.000590 0.005612 0.000000 -0.001160 0.000000
# 4 0.000000 0.000000 0.000000 0.032847 0.000000 0.001826
# 5 0.001823 -0.000859 -0.001160 0.000000 0.012265 0.000000
# 6 0.000000 0.000000 0.000000 0.001826 0.000000 0.024512
#
#
# Mechanical properties :
#
#
# Convention : Reuss Voigt Hill
#
# Bulk Modulus (GPa) = 25.29278 88.41531 56.85405
# Shear Modulus (GPa) = 31.88675 54.09829 42.99252
#
# Velocity S-wave (km/s) = 3.38622 4.41065 3.93194
# Velocity P-wave (km/s) = 4.93802 7.59820 6.40768
#
# Compressibility (1/GPa) = 0.03953698
#
# Stress axis : x y z
#
# Youngs Moduli (GPa) = 152.17250 22.42821 178.19926
#
# Poissons Ratio (x) = 0.14483 0.48990
# Poissons Ratio (y) = 0.98262 -0.10515
# Poissons Ratio (z) = 0.41835 -0.01323
#
# Static dielectric constant tensor:
#      x y z
#    x 2.163820 0.000000 -0.034940 
#    y 0.000000 2.535070 0.000000 
#    z -0.034940 0.000000 2.240070 
# 
# From -- ./inp_files/142519.got.cif
#   From: 2010.05.17/outbox.cif.g08.bks.cpg/sg15_72_cif.got.tgz:142519.got - 2010.06.03 18:47:42.
