data_PCOD9280650
_publ_section_title
;
Structure prediction by ZEFSAII (Michael W. Deem and Ramdas Pophale) SiO2 
 PCOD9280650
Probable space group: C 2/C
;
_chemical_formula_sum "Si O2"
_cell_formula_units_Z 40
_cell_length_a 26.487219
_cell_length_b 8.437881
_cell_length_c 19.286947
_cell_angle_alpha 90.000000
_cell_angle_beta 153.182179
_cell_angle_gamma 90.000000
_cell_volume 1944.729309
_symmetry_space_group_name_H-M "C 2/C"
_symmetry_group_IT_number 15
_symmetry_cell_setting 'monoclinic'
loop_
_space_group_symop_operation_xyz
x,y,z
-x,y,1/2-z
-x,-y,-z
x,-y,1/2+z
1/2+x,1/2+y,z
1/2-x,1/2+y,1/2-z
1/2-x,1/2-y,-z
1/2+x,1/2-y,1/2+z
loop_
_atom_site_type_symbol
_atom_site_label
_atom_site_fract_x
_atom_site_fract_y
_atom_site_fract_z
Si Si1 0.725507 0.964993 0.177915
Si Si2 0.128873 0.075532 0.400761
Si Si3 0.741152 0.878710 0.843187
Si Si4 0.475595 0.975378 0.388867
Si Si5 0.320886 0.681121 0.182110
O O1 0.755604 0.790274 0.189287
O O2 0.741516 0.995566 0.279474
O O3 0.800544 0.089263 0.227943
O O4 0.594535 0.995071 0.999603
O O5 0.211731 0.213032 0.530523
O O6 0.159200 0.061771 0.357047
O O7 0.000000 0.119284 0.250000
O O8 0.157684 0.922351 0.482103
O O9 0.628381 0.906114 0.749937
O O10 0.425122 0.801925 0.313336
O O11 0.500000 0.000000 0.500000
#
# Coordination Sequence:
#
# PCOD9280650 Si02
#       5
#     8   8   8   8   8
#     4  11  21  39  63  87 117 152 195 251 295 337
#     4  10  21  39  57  83 121 157 194 237 291 356
#     4  10  22  38  59  86 118 153 198 242 290 353
#     4   9  19  37  58  87 119 149 192 242 292 344
#     4  10  21  37  62  87 116 157 197 239 295 354
#
# _framework density 20.568415000000002
#
# number of rings (size 3 to 8) (size 9 to 14) (size 15 to 20)
#    0.000    2.000    0.000    4.800    0.000    4.000 
#    0.000   11.000    0.000    0.000    0.000    0.000 
#    0.000    0.000    0.000    0.000    0.000    0.000 
#
# Total GULP energy -111606.686485 kJ/mol
# GULP energy per Si atom -5580.334324 kJ/mol
# Density = 2.052160 g / cm^3
# Si number density = 20.568415 Si / 1000 Ang^3
#
#
#
# Elastic Constant Matrix: (Units=GPa)
#
#
# Indices 1 2 3 4 5 6 
#
# 1 52.2416 2.8964 13.9040 0.0000 10.6826 0.0000
# 2 2.8964 73.3446 12.4435 0.0000 11.8352 0.0000
# 3 13.9040 12.4435 71.8898 0.0000 1.7813 0.0000
# 4 0.0000 0.0000 0.0000 13.9027 0.0000 -4.0455
# 5 10.6826 11.8352 1.7813 0.0000 24.3722 0.0000
# 6 0.0000 0.0000 0.0000 -4.0455 0.0000 14.0354
#
#
#
# Elastic Compliance Matrix: (Units=1/GPa)
#
#
# Indices 1 2 3 4 5 6 
#
# 1 0.022290 0.001495 -0.004318 0.000000 -0.010180 0.000000
# 2 0.001495 0.015314 -0.002744 0.000000 -0.007891 0.000000
# 3 -0.004318 -0.002744 0.015168 0.000000 0.002117 0.000000
# 4 0.000000 0.000000 0.000000 0.078514 0.000000 0.022631
# 5 -0.010180 -0.007891 0.002117 0.000000 0.049170 0.000000
# 6 0.000000 0.000000 0.000000 0.022631 0.000000 0.077772
#
#
# Mechanical properties :
#
#
# Convention : Reuss Voigt Hill
#
# Bulk Modulus (GPa) = 24.01653 28.44041 26.22847
# Shear Modulus (GPa) = 17.65287 21.67752 19.66519
#
# Velocity S-wave (km/s) = 2.93277 3.24994 3.09542
# Velocity P-wave (km/s) = 4.81352 5.28584 5.05520
#
# Compressibility (1/GPa) = 0.04163799
#
# Stress axis : x y z
#
# Youngs Moduli (GPa) = 44.86369 65.29877 65.92909
#
# Poissons Ratio (x) = -0.09762 0.28465
# Poissons Ratio (y) = -0.06707 0.18093
# Poissons Ratio (z) = 0.19370 0.17920
#
# Static dielectric constant tensor:
#      x y z
#    x 1.739620 0.000000 0.020030 
#    y 0.000000 1.744940 0.000000 
#    z 0.020030 0.000000 1.775010 
# 
# From -- ./inp_files/109581.got.cif
#   From: 2010.05.17/outbox.cif.g08.bks.cpg/sg15_55_cif.got.tgz:109581.got - 2010.06.03 18:47:42.
