data_PCOD9280974
_publ_section_title
;
Structure prediction by ZEFSAII (Michael W. Deem and Ramdas Pophale) SiO2 
 PCOD9280974
Probable space group: C 2/C
;
_chemical_formula_sum "Si O2"
_cell_formula_units_Z 64
_cell_length_a 16.994290
_cell_length_b 30.257438
_cell_length_c 5.663115
_cell_angle_alpha 90.000000
_cell_angle_beta 84.007158
_cell_angle_gamma 90.000000
_cell_volume 2896.080345
_symmetry_space_group_name_H-M "C 2/C"
_symmetry_group_IT_number 15
_symmetry_cell_setting 'monoclinic'
loop_
_space_group_symop_operation_xyz
x,y,z
-x,y,1/2-z
-x,-y,-z
x,-y,1/2+z
1/2+x,1/2+y,z
1/2-x,1/2+y,1/2-z
1/2-x,1/2-y,-z
1/2+x,1/2-y,1/2+z
loop_
_atom_site_type_symbol
_atom_site_label
_atom_site_fract_x
_atom_site_fract_y
_atom_site_fract_z
Si Si1 0.304058 0.671246 0.387106
Si Si2 0.546115 0.116806 0.484741
Si Si3 0.408926 0.663043 0.741526
Si Si4 0.343726 0.256223 0.509870
Si Si5 0.874347 0.477417 0.527745
Si Si6 0.737219 0.611860 0.492393
Si Si7 0.158290 0.672414 0.729519
Si Si8 0.801540 0.990170 0.446326
O O1 0.378656 0.650462 0.493296
O O2 0.341676 0.710285 0.227945
O O3 0.238961 0.690483 0.586908
O O4 0.255350 0.633365 0.266696
O O5 0.500000 0.122790 0.250000
O O6 0.596765 0.072131 0.442639
O O7 0.599404 0.158554 0.542192
O O8 0.500000 0.110074 0.750000
O O9 0.500000 0.654396 0.750000
O O10 0.346491 0.634745 0.912362
O O11 0.389035 0.715022 0.798794
O O12 0.250000 0.250000 0.500000
O O13 0.375665 0.208825 0.580526
O O14 0.899966 0.495983 0.259581
O O15 0.778959 0.480852 0.544704
O O16 0.808271 0.630751 0.630929
O O17 0.727713 0.560239 0.523139
O O18 0.842976 0.002822 0.680096
#
# Coordination Sequence:
#
# PCOD9280974 Si02
#       8
#     8   8   8   8   8   8   8   8
#     4  10  21  37  71  93 123 174 224 283 346 405
#     4  12  29  46  61  92 139 188 236 282 355 415
#     4  10  23  42  66 101 139 176 222 283 352 423
#     4  11  20  40  61 100 127 171 232 283 338 415
#     4  10  21  39  64  88 122 171 230 285 340 398
#     4  10  22  38  69 101 129 172 229 283 348 415
#     4  11  23  40  65  88 133 173 234 289 342 404
#     4  10  22  37  64 101 133 165 227 286 346 401
#
# _framework density 22.098834
#
# number of rings (size 3 to 8) (size 9 to 14) (size 15 to 20)
#    0.000    1.500    3.750    2.625    8.750    3.500 
#    2.250    0.000    0.000    0.750    0.000    0.000 
#    0.000    0.000    0.000    0.000    0.000    0.000 
#
# Total GULP energy -178436.111423 kJ/mol
# GULP energy per Si atom -5576.128482 kJ/mol
# Density = 2.204854 g / cm^3
# Si number density = 22.098834 Si / 1000 Ang^3
#
#
#
# Elastic Constant Matrix: (Units=GPa)
#
#
# Indices 1 2 3 4 5 6 
#
# 1 74.9968 2.6747 17.9327 0.0000 14.9826 0.0000
# 2 2.6747 78.8750 26.6642 0.0000 6.3088 0.0000
# 3 17.9327 26.6642 131.6506 0.0000 28.5290 0.0000
# 4 0.0000 0.0000 0.0000 28.4967 0.0000 4.8988
# 5 14.9826 6.3088 28.5290 0.0000 16.2257 0.0000
# 6 0.0000 0.0000 0.0000 4.8988 0.0000 19.6444
#
#
#
# Elastic Compliance Matrix: (Units=1/GPa)
#
#
# Indices 1 2 3 4 5 6 
#
# 1 0.016594 0.000349 0.001646 0.000000 -0.018353 0.000000
# 2 0.000349 0.013623 -0.002567 0.000000 -0.001105 0.000000
# 3 0.001646 -0.002567 0.012932 0.000000 -0.023260 0.000000
# 4 0.000000 0.000000 0.000000 0.036664 0.000000 -0.009143
# 5 -0.018353 -0.001105 -0.023260 0.000000 0.119903 0.000000
# 6 0.000000 0.000000 0.000000 -0.009143 0.000000 0.053185
#
#
# Mechanical properties :
#
#
# Convention : Reuss Voigt Hill
#
# Bulk Modulus (GPa) = 23.80705 42.22950 33.01828
# Shear Modulus (GPa) = 18.65347 28.75677 23.70512
#
# Velocity S-wave (km/s) = 2.90848 3.61124 3.27874
# Velocity P-wave (km/s) = 4.69844 6.04474 5.41361
#
# Compressibility (1/GPa) = 0.04200437
#
# Stress axis : x y z
#
# Youngs Moduli (GPa) = 60.26148 73.40697 77.32768
#
# Poissons Ratio (x) = -0.02560 -0.12729
# Poissons Ratio (y) = -0.02102 0.19851
# Poissons Ratio (z) = -0.09920 0.18845
#
# Static dielectric constant tensor:
#      x y z
#    x 1.795420 0.000000 -0.019650 
#    y 0.000000 1.793270 0.000000 
#    z -0.019650 0.000000 1.907720 
# 
# From -- ./inp_files/12179.got.cif
#   From: 2010.05.17/outbox.cif.g08.bks.cpg/sg15_7_cif.got.tgz:12179.got - 2010.06.03 18:47:42.
