data_PCOD9280338
_publ_section_title
;
Structure prediction by ZEFSAII (Michael W. Deem and Ramdas Pophale) SiO2 
 PCOD9280338
Probable space group: C 2/C
;
_chemical_formula_sum "Si O2"
_cell_formula_units_Z 52
_cell_length_a 25.258697
_cell_length_b 11.060040
_cell_length_c 8.233601
_cell_angle_alpha 90.000000
_cell_angle_beta 76.379098
_cell_angle_gamma 90.000000
_cell_volume 2235.465324
_symmetry_space_group_name_H-M "C 2/C"
_symmetry_group_IT_number 15
_symmetry_cell_setting 'monoclinic'
loop_
_space_group_symop_operation_xyz
x,y,z
-x,y,1/2-z
-x,-y,-z
x,-y,1/2+z
1/2+x,1/2+y,z
1/2-x,1/2+y,1/2-z
1/2-x,1/2-y,-z
1/2+x,1/2-y,1/2+z
loop_
_atom_site_type_symbol
_atom_site_label
_atom_site_fract_x
_atom_site_fract_y
_atom_site_fract_z
Si Si1 0.154959 0.949285 0.107645
Si Si2 0.069477 0.361593 0.943947
Si Si3 0.000000 0.495616 0.750000
Si Si4 0.275216 0.366910 0.154578
Si Si5 0.671025 0.842123 0.062982
Si Si6 0.897203 0.840516 0.662728
Si Si7 0.492226 0.361996 0.061570
O O1 0.199732 0.885743 0.187259
O O2 0.110865 0.028336 0.242137
O O3 0.128802 0.859910 0.996446
O O4 0.187792 0.048140 0.983041
O O5 0.127771 0.400697 0.971539
O O6 0.026599 0.419771 0.097335
O O7 0.048572 0.413350 0.787967
O O8 0.061473 0.215758 0.943560
O O9 0.213203 0.402030 0.158429
O O10 0.288861 0.231686 0.086745
O O11 0.634131 0.755452 0.204063
O O12 0.958489 0.802958 0.577844
O O13 0.500000 0.355372 0.250000
O O14 0.500000 0.500000 0.000000
#
# Coordination Sequence:
#
# PCOD9280338 Si02
#       7
#     8   8   4   8   8   8   8
#     4   9  19  36  61  83 126 164 209 253 320 391
#     4  11  24  44  65  91 126 171 213 272 311 384
#     4  10  24  46  66  86 124 172 224 258 318 370
#     4   9  20  37  58  88 120 162 207 262 315 381
#     4  10  22  38  60  88 125 161 212 266 316 372
#     4  10  21  37  58  90 127 171 198 258 332 386
#     4  12  27  39  64 102 133 164 212 263 329 403
#
# _framework density 23.261375999999998
#
# number of rings (size 3 to 8) (size 9 to 14) (size 15 to 20)
#    0.000    1.846    0.769    1.846   11.846    1.846 
#    0.000    0.000    0.000    0.000    0.000    0.000 
#    0.000    0.000    0.000    0.000    0.000    0.000 
#
# Total GULP energy -145169.284229 kJ/mol
# GULP energy per Si atom -5583.434009 kJ/mol
# Density = 2.320843 g / cm^3
# Si number density = 23.261376 Si / 1000 Ang^3
#
#
#
# Elastic Constant Matrix: (Units=GPa)
#
#
# Indices 1 2 3 4 5 6 
#
# 1 122.7797 10.7479 23.5857 0.0000 21.6357 0.0000
# 2 10.7479 45.7519 10.0502 0.0000 6.4598 0.0000
# 3 23.5857 10.0502 70.7168 0.0000 21.0710 0.0000
# 4 0.0000 0.0000 0.0000 4.2255 0.0000 2.3238
# 5 21.6357 6.4598 21.0710 0.0000 38.7058 0.0000
# 6 0.0000 0.0000 0.0000 2.3238 0.0000 19.7670
#
#
#
# Elastic Compliance Matrix: (Units=1/GPa)
#
#
# Indices 1 2 3 4 5 6 
#
# 1 0.009297 -0.001234 -0.001717 0.000000 -0.004056 0.000000
# 2 -0.001234 0.022915 -0.002281 0.000000 -0.001893 0.000000
# 3 -0.001717 -0.002281 0.017473 0.000000 -0.008171 0.000000
# 4 0.000000 0.000000 0.000000 0.253017 0.000000 -0.029745
# 5 -0.004056 -0.001893 -0.008171 0.000000 0.032868 0.000000
# 6 0.000000 0.000000 0.000000 -0.029745 0.000000 0.054086
#
#
# Mechanical properties :
#
#
# Convention : Reuss Voigt Hill
#
# Bulk Modulus (GPa) = 25.49665 36.44620 30.97142
# Shear Modulus (GPa) = 12.10085 25.53063 18.81574
#
# Velocity S-wave (km/s) = 2.28329 3.31653 2.84717
# Velocity P-wave (km/s) = 4.23509 5.51071 4.91446
#
# Compressibility (1/GPa) = 0.03922084
#
# Stress axis : x y z
#
# Youngs Moduli (GPa) = 107.55798 43.63905 57.23276
#
# Poissons Ratio (x) = 0.05386 0.09826
# Poissons Ratio (y) = 0.13275 0.13055
# Poissons Ratio (z) = 0.18466 0.09954
#
# Static dielectric constant tensor:
#      x y z
#    x 1.935330 0.000000 0.046450 
#    y 0.000000 1.926980 0.000000 
#    z 0.046450 0.000000 1.877350 
# 
# From -- ./inp_files/65065.got.cif
#   From: 2010.05.17/outbox.cif.g08.bks.cpg/sg15_33_cif.got.tgz:65065.got - 2010.06.03 18:47:42.
