data_PCOD9280084
_publ_section_title
;
Structure prediction by ZEFSAII (Michael W. Deem and Ramdas Pophale) SiO2 
 PCOD9280084
Probable space group: C 2/C
;
_chemical_formula_sum "Si O2"
_cell_formula_units_Z 64
_cell_length_a 11.378853
_cell_length_b 9.842393
_cell_length_c 22.838629
_cell_angle_alpha 90.000000
_cell_angle_beta 99.419118
_cell_angle_gamma 90.000000
_cell_volume 2523.330055
_symmetry_space_group_name_H-M "C 2/C"
_symmetry_group_IT_number 15
_symmetry_cell_setting 'monoclinic'
loop_
_space_group_symop_operation_xyz
x,y,z
-x,y,1/2-z
-x,-y,-z
x,-y,1/2+z
1/2+x,1/2+y,z
1/2-x,1/2+y,1/2-z
1/2-x,1/2-y,-z
1/2+x,1/2-y,1/2+z
loop_
_atom_site_type_symbol
_atom_site_label
_atom_site_fract_x
_atom_site_fract_y
_atom_site_fract_z
Si Si1 0.065935 0.449564 0.808636
Si Si2 0.170994 0.453730 0.646765
Si Si3 0.622265 0.094367 0.529290
Si Si4 0.831556 0.282206 0.171071
Si Si5 0.240672 0.637424 0.415074
Si Si6 0.489647 0.481148 0.928518
Si Si7 0.424316 0.514415 0.687252
Si Si8 0.369339 0.790976 0.044460
O O1 0.956146 0.496034 0.840170
O O2 0.000000 0.377677 0.750000
O O3 0.134318 0.583829 0.790378
O O4 0.152310 0.357200 0.853528
O O5 0.162945 0.475284 0.576337
O O6 0.206863 0.298804 0.665691
O O7 0.282637 0.540343 0.679326
O O8 0.694877 0.223147 0.561431
O O9 0.671533 0.085644 0.467456
O O10 0.481335 0.130777 0.523020
O O11 0.921792 0.154285 0.187187
O O12 0.836387 0.344577 0.105912
O O13 0.351626 0.544041 0.407190
O O14 0.533175 0.563248 0.874303
O O15 0.570548 0.349506 0.932097
O O16 0.500000 0.500000 0.000000
O O17 0.500000 0.555732 0.750000
O O18 0.250000 0.750000 0.000000
#
# Coordination Sequence:
#
# PCOD9280084 Si02
#       8
#     8   8   8   8   8   8   8   8
#     4  12  26  46  68 106 139 185 241 298 360 434
#     4  10  23  42  72  99 133 181 238 295 354 430
#     4  10  21  46  66 101 147 182 233 299 364 435
#     4   9  22  41  66 101 131 177 230 296 354 415
#     4  10  25  39  68  99 145 193 219 297 372 427
#     4  10  21  37  59  96 134 174 228 290 347 428
#     4   9  20  39  68  93 126 181 233 284 352 430
#     4  10  21  36  65  98 129 175 232 284 354 416
#
# _framework density 25.363309000000001
#
# number of rings (size 3 to 8) (size 9 to 14) (size 15 to 20)
#    0.750    1.250    1.250    1.125    5.250    0.500 
#    2.250    1.875    0.000    0.000    0.000    0.000 
#    0.000    0.000    0.000    0.000    0.000    0.000 
#
# Total GULP energy -178541.542110 kJ/mol
# GULP energy per Si atom -5579.423191 kJ/mol
# Density = 2.530558 g / cm^3
# Si number density = 25.363309 Si / 1000 Ang^3
#
#
#
# Elastic Constant Matrix: (Units=GPa)
#
#
# Indices 1 2 3 4 5 6 
#
# 1 156.3005 25.4502 61.1989 0.0000 31.6941 0.0000
# 2 25.4502 61.2151 8.2503 0.0000 6.3633 0.0000
# 3 61.1989 8.2503 140.9088 0.0000 33.6039 0.0000
# 4 0.0000 0.0000 0.0000 19.7439 0.0000 7.7454
# 5 31.6941 6.3633 33.6039 0.0000 48.8907 0.0000
# 6 0.0000 0.0000 0.0000 7.7454 0.0000 40.5309
#
#
#
# Elastic Compliance Matrix: (Units=1/GPa)
#
#
# Indices 1 2 3 4 5 6 
#
# 1 0.008627 -0.002867 -0.002792 0.000000 -0.003301 0.000000
# 2 -0.002867 0.017548 0.000382 0.000000 -0.000688 0.000000
# 3 -0.002792 0.000382 0.009410 0.000000 -0.004707 0.000000
# 4 0.000000 0.000000 0.000000 0.054753 0.000000 -0.010463
# 5 -0.003301 -0.000688 -0.004707 0.000000 0.025918 0.000000
# 6 0.000000 0.000000 0.000000 -0.010463 0.000000 0.026672
#
#
# Mechanical properties :
#
#
# Convention : Reuss Voigt Hill
#
# Bulk Modulus (GPa) = 39.95221 60.91369 50.43295
# Shear Modulus (GPa) = 30.89720 39.40142 35.14931
#
# Velocity S-wave (km/s) = 3.49404 3.94570 3.72672
# Velocity P-wave (km/s) = 5.66250 6.69527 6.20043
#
# Compressibility (1/GPa) = 0.02502990
#
# Stress axis : x y z
#
# Youngs Moduli (GPa) = 115.91122 56.98662 106.27428
#
# Poissons Ratio (x) = 0.16340 0.29671
# Poissons Ratio (y) = 0.33237 -0.04059
# Poissons Ratio (z) = 0.32362 -0.02176
#
# Static dielectric constant tensor:
#      x y z
#    x 1.967790 0.000000 -0.092650 
#    y 0.000000 2.043380 0.000000 
#    z -0.092650 0.000000 2.247560 
# 
# From -- ./inp_files/269270.got.cif
#   From: 2010.05.17/outbox.cif.g08.bks.cpg/sg15_135_cif.got.tgz:269270.got - 2010.06.03 18:47:42.
