data_PCOD9280013
_publ_section_title
;
Structure prediction by ZEFSAII (Michael W. Deem and Ramdas Pophale) SiO2 
 PCOD9280013
Probable space group: C 2/C
;
_chemical_formula_sum "Si O2"
_cell_formula_units_Z 40
_cell_length_a 13.089233
_cell_length_b 13.494536
_cell_length_c 9.412158
_cell_angle_alpha 90.000000
_cell_angle_beta 76.133974
_cell_angle_gamma 90.000000
_cell_volume 1614.051604
_symmetry_space_group_name_H-M "C 2/C"
_symmetry_group_IT_number 15
_symmetry_cell_setting 'monoclinic'
loop_
_space_group_symop_operation_xyz
x,y,z
-x,y,1/2-z
-x,-y,-z
x,-y,1/2+z
1/2+x,1/2+y,z
1/2-x,1/2+y,1/2-z
1/2-x,1/2-y,-z
1/2+x,1/2-y,1/2+z
loop_
_atom_site_type_symbol
_atom_site_label
_atom_site_fract_x
_atom_site_fract_y
_atom_site_fract_z
Si Si1 0.300535 0.676779 0.833807
Si Si2 0.632760 0.043706 0.372786
Si Si3 0.654499 0.127536 0.668870
Si Si4 0.500000 0.694513 0.250000
Si Si5 0.175047 0.872022 0.881097
Si Si6 0.000000 0.312790 0.750000
O O1 0.274931 0.641593 0.682790
O O2 0.204996 0.754857 0.883272
O O3 0.403782 0.741441 0.809640
O O4 0.310598 0.598169 0.958247
O O5 0.649204 0.060598 0.532189
O O6 0.736209 0.081223 0.250474
O O7 0.536819 0.114670 0.361543
O O8 0.609595 0.935403 0.317392
O O9 0.590547 0.229193 0.663644
O O10 0.439347 0.628205 0.153057
#
# Coordination Sequence:
#
# PCOD9280013 Si02
#       6
#     8   8   8   4   8   4
#     4   9  19  36  57  83 116 151 188 233 284 339
#     4  11  23  38  58  86 119 153 190 235 286 338
#     4  11  23  38  58  86 119 153 190 235 286 338
#     4  10  21  36  63  90 112 146 194 238 283 340
#     4   9  19  36  57  83 116 151 188 233 284 339
#     4  10  21  36  63  90 112 146 194 238 283 340
#
# _framework density 24.782356
#
# number of rings (size 3 to 8) (size 9 to 14) (size 15 to 20)
#    0.000    2.000    0.000    3.000    0.000   15.200 
#    0.000    1.000    0.000    4.800    0.000    0.000 
#    0.000    0.000    0.000    0.000    0.000    0.000 
#
# Total GULP energy -111683.518244 kJ/mol
# GULP energy per Si atom -5584.175912 kJ/mol
# Density = 2.472595 g / cm^3
# Si number density = 24.782356 Si / 1000 Ang^3
#
#
#
# Elastic Constant Matrix: (Units=GPa)
#
#
# Indices 1 2 3 4 5 6 
#
# 1 148.9634 25.1011 49.8296 0.0000 35.8972 0.0000
# 2 25.1011 46.6346 14.3327 0.0000 -0.6505 0.0000
# 3 49.8296 14.3327 95.8599 0.0000 31.7947 0.0000
# 4 0.0000 0.0000 0.0000 16.0681 0.0000 1.9831
# 5 35.8972 -0.6505 31.7947 0.0000 37.9919 0.0000
# 6 0.0000 0.0000 0.0000 1.9831 0.0000 35.8368
#
#
#
# Elastic Compliance Matrix: (Units=1/GPa)
#
#
# Indices 1 2 3 4 5 6 
#
# 1 0.010123 -0.005004 -0.001818 0.000000 -0.008130 0.000000
# 2 -0.005004 0.025500 -0.004048 0.000000 0.008552 0.000000
# 3 -0.001818 -0.004048 0.015829 0.000000 -0.011599 0.000000
# 4 0.000000 0.000000 0.000000 0.062663 0.000000 -0.003468
# 5 -0.008130 0.008552 -0.011599 0.000000 0.043856 0.000000
# 6 0.000000 0.000000 0.000000 -0.003468 0.000000 0.028096
#
#
# Mechanical properties :
#
#
# Convention : Reuss Voigt Hill
#
# Bulk Modulus (GPa) = 33.65515 52.22053 42.93784
# Shear Modulus (GPa) = 22.96613 31.45899 27.21256
#
# Velocity S-wave (km/s) = 3.04750 3.56674 3.31730
# Velocity P-wave (km/s) = 5.09831 6.17087 5.66005
#
# Compressibility (1/GPa) = 0.02971313
#
# Stress axis : x y z
#
# Youngs Moduli (GPa) = 98.78183 39.21566 63.17436
#
# Poissons Ratio (x) = 0.19622 0.11483
# Poissons Ratio (y) = 0.49427 0.25575
# Poissons Ratio (z) = 0.17956 0.15876
#
# Static dielectric constant tensor:
#      x y z
#    x 2.020500 0.000000 0.058520 
#    y 0.000000 2.034870 0.000000 
#    z 0.058520 0.000000 2.089300 
# 
# From -- ./inp_files/29122.got.cif
#   From: 2010.05.17/outbox.cif.g08.bks.cpg/sg15_15_cif.got.tgz:29122.got - 2010.06.03 18:47:42.
