data_PCOD9280705
_publ_section_title
;
Structure prediction by ZEFSAII (Michael W. Deem and Ramdas Pophale) SiO2 
 PCOD9280705
Probable space group: C 2/C
;
_chemical_formula_sum "Si O2"
_cell_formula_units_Z 60
_cell_length_a 12.531731
_cell_length_b 14.809267
_cell_length_c 17.367744
_cell_angle_alpha 90.000000
_cell_angle_beta 51.226581
_cell_angle_gamma 90.000000
_cell_volume 2512.903359
_symmetry_space_group_name_H-M "C 2/C"
_symmetry_group_IT_number 15
_symmetry_cell_setting 'monoclinic'
loop_
_space_group_symop_operation_xyz
x,y,z
-x,y,1/2-z
-x,-y,-z
x,-y,1/2+z
1/2+x,1/2+y,z
1/2-x,1/2+y,1/2-z
1/2-x,1/2-y,-z
1/2+x,1/2-y,1/2+z
loop_
_atom_site_type_symbol
_atom_site_label
_atom_site_fract_x
_atom_site_fract_y
_atom_site_fract_z
Si Si1 0.081705 0.369855 0.632904
Si Si2 0.726055 0.473541 0.885703
Si Si3 0.511078 0.684245 0.618356
Si Si4 0.970981 0.110077 0.463977
Si Si5 0.636765 0.978457 0.983448
Si Si6 0.000000 0.585177 0.750000
Si Si7 0.015258 0.691071 0.585258
Si Si8 0.719349 0.368631 0.154134
O O1 0.233410 0.374476 0.599898
O O2 0.020284 0.292998 0.607433
O O3 0.099266 0.463367 0.577698
O O4 0.000000 0.362862 0.750000
O O5 0.606103 0.446997 0.880945
O O6 0.862135 0.525097 0.795939
O O7 0.654397 0.540225 0.979653
O O8 0.486405 0.639166 0.547256
O O9 0.386685 0.652726 0.729860
O O10 0.647611 0.667973 0.608428
O O11 0.954797 0.203330 0.428132
O O12 0.633404 0.871084 0.993484
O O13 0.500000 0.000000 0.000000
O O14 0.754705 0.027136 0.881510
O O15 0.988158 0.649079 0.828601
O O16 0.866773 0.672518 0.611936
#
# Coordination Sequence:
#
# PCOD9280705 Si02
#       8
#     8   8   8   8   8   4   8   8
#     4  12  21  39  66 100 131 182 233 279 349 423
#     4  11  24  45  70 101 139 186 230 292 353 423
#     4  11  22  39  66 107 142 176 227 300 359 423
#     4  11  26  44  72 101 145 185 235 292 361 421
#     4  10  21  37  62  95 135 177 224 288 344 405
#     4  12  24  46  74 100 140 190 244 288 350 430
#     4  11  23  43  69 101 138 191 239 287 344 436
#     4  10  21  38  65 104 142 173 227 299 364 409
#
# _framework density 23.876763
#
# number of rings (size 3 to 8) (size 9 to 14) (size 15 to 20)
#    0.000    1.067    3.333    4.000    0.000    3.200 
#    0.000    0.000    2.933    1.600    0.000    0.000 
#    0.000    0.000    0.000    0.000    0.000    0.000 
#
# Total GULP energy -167244.588870 kJ/mol
# GULP energy per Si atom -5574.819629 kJ/mol
# Density = 2.382242 g / cm^3
# Si number density = 23.876763 Si / 1000 Ang^3
#
#
#
# Elastic Constant Matrix: (Units=GPa)
#
#
# Indices 1 2 3 4 5 6 
#
# 1 60.4524 21.2183 32.9109 0.0000 -4.0243 0.0000
# 2 21.2183 169.8017 48.8945 0.0000 -20.4568 0.0000
# 3 32.9109 48.8945 95.7630 0.0000 -13.4856 0.0000
# 4 0.0000 0.0000 0.0000 8.0159 0.0000 -3.9868
# 5 -4.0243 -20.4568 -13.4856 0.0000 37.8406 0.0000
# 6 0.0000 0.0000 0.0000 -3.9868 0.0000 40.7785
#
#
#
# Elastic Compliance Matrix: (Units=1/GPa)
#
#
# Indices 1 2 3 4 5 6 
#
# 1 0.020418 -0.000679 -0.006755 0.000000 -0.000603 0.000000
# 2 -0.000679 0.007180 -0.003049 0.000000 0.002723 0.000000
# 3 -0.006755 -0.003049 0.014727 0.000000 0.002881 0.000000
# 4 0.000000 0.000000 0.000000 0.131128 0.000000 0.012820
# 5 -0.000603 0.002723 0.002881 0.000000 0.028861 0.000000
# 6 0.000000 0.000000 0.000000 0.012820 0.000000 0.025776
#
#
# Mechanical properties :
#
#
# Convention : Reuss Voigt Hill
#
# Bulk Modulus (GPa) = 46.82154 59.11829 52.96992
# Shear Modulus (GPa) = 19.51783 32.19323 25.85553
#
# Velocity S-wave (km/s) = 2.86219 3.67591 3.29428
# Velocity P-wave (km/s) = 5.52948 6.54446 6.05826
#
# Compressibility (1/GPa) = 0.02135769
#
# Stress axis : x y z
#
# Youngs Moduli (GPa) = 48.97702 139.27358 67.90381
#
# Poissons Ratio (x) = 0.09455 0.45871
# Poissons Ratio (y) = 0.03325 0.20706
# Poissons Ratio (z) = 0.33085 0.42469
#
# Static dielectric constant tensor:
#      x y z
#    x 2.749260 0.000000 0.325480 
#    y 0.000000 2.086210 0.000000 
#    z 0.325480 0.000000 2.104090 
# 
# From -- ./inp_files/244687.got.cif
#   From: 2010.05.17/outbox.cif.g08.bks.cpg/sg15_123_cif.got.tgz:244687.got - 2010.06.03 18:47:42.
