data_PCOD9280411
_publ_section_title
;
Structure prediction by ZEFSAII (Michael W. Deem and Ramdas Pophale) SiO2 
 PCOD9280411
Probable space group: C 2/C
;
_chemical_formula_sum "Si O2"
_cell_formula_units_Z 44
_cell_length_a 23.617928
_cell_length_b 5.013714
_cell_length_c 16.905932
_cell_angle_alpha 90.000000
_cell_angle_beta 103.294746
_cell_angle_gamma 90.000000
_cell_volume 1948.240436
_symmetry_space_group_name_H-M "C 2/C"
_symmetry_group_IT_number 15
_symmetry_cell_setting 'monoclinic'
loop_
_space_group_symop_operation_xyz
x,y,z
-x,y,1/2-z
-x,-y,-z
x,-y,1/2+z
1/2+x,1/2+y,z
1/2-x,1/2+y,1/2-z
1/2-x,1/2-y,-z
1/2+x,1/2-y,1/2+z
loop_
_atom_site_type_symbol
_atom_site_label
_atom_site_fract_x
_atom_site_fract_y
_atom_site_fract_z
Si Si1 0.557924 0.615215 0.621203
Si Si2 0.938452 0.259098 0.519169
Si Si3 0.698781 0.369226 0.811617
Si Si4 0.400357 0.761132 0.103000
Si Si5 0.323663 0.127609 0.297921
Si Si6 0.500000 0.661188 0.250000
O O1 0.506942 0.780515 0.561695
O O2 0.567964 0.353824 0.570743
O O3 0.615856 0.783711 0.647027
O O4 0.535326 0.519533 0.699136
O O5 0.903536 0.512448 0.538060
O O6 0.917976 0.014770 0.568182
O O7 0.660876 0.281516 0.873828
O O8 0.686543 0.671026 0.779717
O O9 0.768249 0.333140 0.837415
O O10 0.677915 0.172676 0.734463
O O11 0.451071 0.820505 0.184644
#
# Coordination Sequence:
#
# PCOD9280411 Si02
#       6
#     8   8   8   8   8   4
#     4  10  22  42  58  92 116 162 191 243 292 356
#     4  10  25  38  60  84 132 151 189 237 308 344
#     4  10  21  37  59  90 115 149 198 249 287 336
#     4  11  22  40  58  91 118 157 192 248 283 357
#     4  10  21  37  61  85 119 150 195 250 288 336
#     4  10  22  34  68  84 118 148 212 236 290 340
#
# _framework density 22.584482999999999
#
# number of rings (size 3 to 8) (size 9 to 14) (size 15 to 20)
#    0.000    1.818    1.818    1.091    5.091    8.727 
#    0.000    1.818    0.000    0.000    0.000    0.000 
#    0.000    0.000    0.000    0.000    0.000    0.000 
#
# Total GULP energy -123182.316006 kJ/mol
# GULP energy per Si atom -5599.196182 kJ/mol
# Density = 2.253308 g / cm^3
# Si number density = 22.584483 Si / 1000 Ang^3
#
#
#
# Elastic Constant Matrix: (Units=GPa)
#
#
# Indices 1 2 3 4 5 6 
#
# 1 130.6049 8.5842 43.4691 0.0000 -23.5536 0.0000
# 2 8.5842 58.5051 4.2889 0.0000 -7.5669 0.0000
# 3 43.4691 4.2889 81.4325 0.0000 -20.4240 0.0000
# 4 0.0000 0.0000 0.0000 23.5609 0.0000 -0.1188
# 5 -23.5536 -7.5669 -20.4240 0.0000 30.5230 0.0000
# 6 0.0000 0.0000 0.0000 -0.1188 0.0000 12.9542
#
#
#
# Elastic Compliance Matrix: (Units=1/GPa)
#
#
# Indices 1 2 3 4 5 6 
#
# 1 0.009907 -0.000536 -0.004057 0.000000 0.004798 0.000000
# 2 -0.000536 0.017690 0.000421 0.000000 0.004254 0.000000
# 3 -0.004057 0.000421 0.016420 0.000000 0.007961 0.000000
# 4 0.000000 0.000000 0.000000 0.042445 0.000000 0.000389
# 5 0.004798 0.004254 0.007961 0.000000 0.042846 0.000000
# 6 0.000000 0.000000 0.000000 0.000389 0.000000 0.077199
#
#
# Mechanical properties :
#
#
# Convention : Reuss Voigt Hill
#
# Bulk Modulus (GPa) = 28.03088 42.58075 35.30582
# Shear Modulus (GPa) = 22.05138 27.68764 24.86951
#
# Velocity S-wave (km/s) = 3.12812 3.50517 3.32200
# Velocity P-wave (km/s) = 5.04830 5.93940 5.51189
#
# Compressibility (1/GPa) = 0.03567494
#
# Stress axis : x y z
#
# Youngs Moduli (GPa) = 100.93414 56.52764 60.89993
#
# Poissons Ratio (x) = 0.03028 0.24708
# Poissons Ratio (y) = 0.05408 -0.02565
# Poissons Ratio (z) = 0.40950 -0.02381
#
# Static dielectric constant tensor:
#      x y z
#    x 1.837180 0.000000 0.011260 
#    y 0.000000 1.832340 0.000000 
#    z 0.011260 0.000000 1.837880 
# 
# From -- ./inp_files/170863.got.cif
#   From: 2010.05.17/outbox.cif.g08.bks.cpg/sg15_86_cif.got.tgz:170863.got - 2010.06.03 18:47:42.
