data_PCOD9280959
_publ_section_title
;
Structure prediction by ZEFSAII (Michael W. Deem and Ramdas Pophale) SiO2 
 PCOD9280959
Probable space group: C 2/C
;
_chemical_formula_sum "Si O2"
_cell_formula_units_Z 48
_cell_length_a 12.800448
_cell_length_b 19.961992
_cell_length_c 18.663832
_cell_angle_alpha 90.000000
_cell_angle_beta 153.831779
_cell_angle_gamma 90.000000
_cell_volume 2103.180040
_symmetry_space_group_name_H-M "C 2/C"
_symmetry_group_IT_number 15
_symmetry_cell_setting 'monoclinic'
loop_
_space_group_symop_operation_xyz
x,y,z
-x,y,1/2-z
-x,-y,-z
x,-y,1/2+z
1/2+x,1/2+y,z
1/2-x,1/2+y,1/2-z
1/2-x,1/2-y,-z
1/2+x,1/2-y,1/2+z
loop_
_atom_site_type_symbol
_atom_site_label
_atom_site_fract_x
_atom_site_fract_y
_atom_site_fract_z
Si Si1 0.045980 0.189146 0.055644
Si Si2 0.267298 0.391750 0.940134
Si Si3 0.156204 0.792728 0.777297
Si Si4 0.031930 0.599183 0.550300
Si Si5 0.754027 0.991751 0.062064
Si Si6 0.439799 0.296951 0.295429
O O1 0.078462 0.117770 0.037448
O O2 0.996409 0.193852 0.109432
O O3 0.304212 0.226232 0.213628
O O4 0.851333 0.233319 0.894371
O O5 0.000000 0.397071 0.750000
O O6 0.306534 0.451244 0.021448
O O7 0.329866 0.321127 0.018959
O O8 0.313078 0.858201 0.886593
O O9 0.000000 0.779226 0.750000
O O10 0.931144 0.553114 0.552096
O O11 0.134458 0.557490 0.546736
O O12 0.238954 0.650261 0.697314
O O13 0.000000 0.013837 0.250000
O O14 0.500000 0.310652 0.250000
#
# Coordination Sequence:
#
# PCOD9280959 Si02
#       6
#     8   8   8   8   8   8
#     4  11  24  38  66  96 137 170 206 272 330 395
#     4  12  23  38  63  98 132 164 213 275 330 377
#     4  11  23  42  64  97 130 171 216 260 332 403
#     4  10  21  37  69  86 121 172 224 259 315 378
#     4  11  21  41  65  91 124 171 228 266 310 380
#     4  11  21  40  62  99 131 170 214 263 330 391
#
# _framework density 22.822582000000001
#
# number of rings (size 3 to 8) (size 9 to 14) (size 15 to 20)
#    0.000    1.000    5.000    2.500    2.333    1.333 
#    0.000    0.833    7.333    0.000    0.000    0.000 
#    0.000    0.000    0.000    0.000    0.000    0.000 
#
# Total GULP energy -134019.745563 kJ/mol
# GULP energy per Si atom -5584.156065 kJ/mol
# Density = 2.277064 g / cm^3
# Si number density = 22.822582 Si / 1000 Ang^3
#
#
#
# Elastic Constant Matrix: (Units=GPa)
#
#
# Indices 1 2 3 4 5 6 
#
# 1 111.9018 32.1774 25.7485 0.0029 -12.3147 0.0075
# 2 32.1774 51.2715 -6.1465 0.0016 7.8484 0.0075
# 3 25.7485 -6.1465 73.2442 0.0005 -10.9987 0.0281
# 4 0.0029 0.0016 0.0005 14.7175 0.0060 7.6908
# 5 -12.3147 7.8484 -10.9987 0.0060 42.4727 0.0109
# 6 0.0075 0.0075 0.0281 7.6908 0.0109 38.4591
#
#
#
# Elastic Compliance Matrix: (Units=1/GPa)
#
#
# Indices 1 2 3 4 5 6 
#
# 1 0.013281 -0.009582 -0.004816 -0.000004 0.004374 0.000002
# 2 -0.009582 0.027083 0.004654 0.000005 -0.006578 -0.000006
# 3 -0.004816 0.004654 0.016021 0.000006 0.001892 -0.000013
# 4 -0.000004 0.000005 0.000006 0.075875 -0.000007 -0.015173
# 5 0.004374 -0.006578 0.001892 -0.000007 0.026518 -0.000007
# 6 0.000002 -0.000006 -0.000013 -0.015173 -0.000007 0.029036
#
#
# Mechanical properties :
#
#
# Convention : Reuss Voigt Hill
#
# Bulk Modulus (GPa) = 27.10408 37.77514 32.43961
# Shear Modulus (GPa) = 22.76849 31.43908 27.10378
#
# Velocity S-wave (km/s) = 3.16195 3.71555 3.44988
# Velocity P-wave (km/s) = 5.02318 5.91563 5.48758
#
# Compressibility (1/GPa) = 0.03689481
#
# Stress axis : x y z
#
# Youngs Moduli (GPa) = 75.29331 36.92420 62.41896
#
# Poissons Ratio (x) = 0.35382 0.30062
# Poissons Ratio (y) = 0.72148 -0.29047
# Poissons Ratio (z) = 0.36263 -0.17183
#
# Static dielectric constant tensor:
#      x y z
#    x 1.925270 0.000000 -0.014560 
#    y 0.000000 1.874220 0.000000 
#    z -0.014560 0.000000 1.881930 
# 
# From -- ./inp_files/200968.got.cif
#   From: 2010.05.17/outbox.cif.g08.bks.cpg/sg15_101_cif.got.tgz:200968.got - 2010.06.03 18:47:42.
