data_PCOD9280797
_publ_section_title
;
Structure prediction by ZEFSAII (Michael W. Deem and Ramdas Pophale) SiO2 
 PCOD9280797
Probable space group: C 2/C
;
_chemical_formula_sum "Si O2"
_cell_formula_units_Z 28
_cell_length_a 7.555795
_cell_length_b 13.155024
_cell_length_c 11.568784
_cell_angle_alpha 90.000000
_cell_angle_beta 87.762757
_cell_angle_gamma 90.000000
_cell_volume 1149.022036
_symmetry_space_group_name_H-M "C 2/C"
_symmetry_group_IT_number 15
_symmetry_cell_setting 'monoclinic'
loop_
_space_group_symop_operation_xyz
x,y,z
-x,y,1/2-z
-x,-y,-z
x,-y,1/2+z
1/2+x,1/2+y,z
1/2-x,1/2+y,1/2-z
1/2-x,1/2-y,-z
1/2+x,1/2-y,1/2+z
loop_
_atom_site_type_symbol
_atom_site_label
_atom_site_fract_x
_atom_site_fract_y
_atom_site_fract_z
Si Si1 0.471365 0.167209 0.941766
Si Si2 0.139539 0.478027 0.847704
Si Si3 0.000000 0.010111 0.250000
Si Si4 0.415757 0.314802 0.132903
O O1 0.623117 0.099975 0.875872
O O2 0.297222 0.195829 0.871756
O O3 0.509793 0.265298 0.019425
O O4 0.401249 0.086673 0.038790
O O5 0.324397 0.437594 0.794562
O O6 0.000000 0.463312 0.750000
O O7 0.051737 0.934806 0.353949
O O8 0.500000 0.272582 0.250000
#
# Coordination Sequence:
#
# PCOD9280797 Si02
#       4
#     8   8   4   8
#     4  10  21  37  64  80 118 154 195 225 304 329
#     4  11  21  40  58  89 116 154 185 248 275 350
#     4  10  22  38  58  82 124 144 194 236 286 328
#     4   9  19  40  56  88 113 149 191 242 273 355
#
# _framework density 24.368552000000001
#
# number of rings (size 3 to 8) (size 9 to 14) (size 15 to 20)
#    0.857    1.143    2.857    0.857    0.000    2.286 
#    0.000    5.714    0.000    0.000    0.000    0.000 
#    0.000    0.000    0.000    0.000    0.000    0.000 
#
# Total GULP energy -78096.158036 kJ/mol
# GULP energy per Si atom -5578.297003 kJ/mol
# Density = 2.431309 g / cm^3
# Si number density = 24.368552 Si / 1000 Ang^3
#
#
#
# Elastic Constant Matrix: (Units=GPa)
#
#
# Indices 1 2 3 4 5 6 
#
# 1 93.1463 -7.1450 44.1946 0.0000 -3.0373 0.0000
# 2 -7.1450 59.9753 19.8236 0.0000 -0.7391 0.0000
# 3 44.1946 19.8236 105.6744 0.0000 21.1769 0.0000
# 4 0.0000 0.0000 0.0000 16.1594 0.0000 -32.1005
# 5 -3.0373 -0.7391 21.1769 0.0000 45.4189 0.0000
# 6 0.0000 0.0000 0.0000 -32.1005 0.0000 2.0656
#
#
#
# Elastic Compliance Matrix: (Units=1/GPa)
#
#
# Indices 1 2 3 4 5 6 
#
# 1 0.015114 0.004556 -0.008155 0.000000 0.004887 0.000000
# 2 0.004556 0.019321 -0.006237 0.000000 0.003527 0.000000
# 3 -0.008155 -0.006237 0.015634 0.000000 -0.007936 0.000000
# 4 0.000000 0.000000 0.000000 -0.002072 0.000000 -0.032195
# 5 0.004887 0.003527 -0.007936 0.000000 0.026102 0.000000
# 6 0.000000 0.000000 0.000000 -0.032195 0.000000 -0.016207
#
#
# Mechanical properties :
#
#
# Convention : Reuss Voigt Hill
#
# Bulk Modulus (GPa) = 32.89684 41.39357 37.14520
# Shear Modulus (GPa) = 57.01529 26.19030 41.60280
#
# Velocity S-wave (km/s) = 4.84230 3.28191 4.13635
# Velocity P-wave (km/s) = 6.69275 5.60219 6.17160
#
# Compressibility (1/GPa) = 0.03039806
#
# Stress axis : x y z
#
# Youngs Moduli (GPa) = 66.16434 51.75653 63.96356
#
# Poissons Ratio (x) = -0.23581 0.52162
# Poissons Ratio (y) = -0.30146 0.39893
# Poissons Ratio (z) = 0.53957 0.32279
#
# Static dielectric constant tensor:
#      x y z
#    x 1.981240 0.000000 -0.047840 
#    y 0.000000 2.054330 0.000000 
#    z -0.047840 0.000000 2.010830 
# 
# From -- ./inp_files/75094.got.cif
#   From: 2010.05.17/outbox.cif.g08.bks.cpg/sg15_38_cif.got.tgz:75094.got - 2010.06.03 18:47:42.
