data_PCOD9280402
_publ_section_title
;
Structure prediction by ZEFSAII (Michael W. Deem and Ramdas Pophale) SiO2 
 PCOD9280402
Probable space group: C 2/C
;
_chemical_formula_sum "Si O2"
_cell_formula_units_Z 56
_cell_length_a 13.142530
_cell_length_b 23.081148
_cell_length_c 8.890129
_cell_angle_alpha 90.000000
_cell_angle_beta 90.000073
_cell_angle_gamma 90.000000
_cell_volume 2696.773337
_symmetry_space_group_name_H-M "C 2/C"
_symmetry_group_IT_number 15
_symmetry_cell_setting 'monoclinic'
loop_
_space_group_symop_operation_xyz
x,y,z
-x,y,1/2-z
-x,-y,-z
x,-y,1/2+z
1/2+x,1/2+y,z
1/2-x,1/2+y,1/2-z
1/2-x,1/2-y,-z
1/2+x,1/2-y,1/2+z
loop_
_atom_site_type_symbol
_atom_site_label
_atom_site_fract_x
_atom_site_fract_y
_atom_site_fract_z
Si Si1 0.127342 0.316913 0.012346
Si Si2 0.372485 0.538459 0.986352
Si Si3 0.500000 0.386532 0.250000
Si Si4 0.627342 0.683087 0.987654
Si Si5 0.872485 0.461541 0.013648
Si Si6 0.000000 0.386532 0.250000
Si Si7 0.627703 0.422484 0.680147
Si Si8 0.127703 0.577516 0.319853
O O1 0.250000 0.319111 0.025654
O O2 0.074971 0.346469 0.154129
O O3 0.097078 0.250000 1.000000
O O4 0.096621 0.358693 0.873506
O O5 0.430877 0.575118 0.860946
O O6 0.250000 0.547337 0.973443
O O7 0.391499 0.471065 0.947529
O O8 0.405535 0.556700 0.154498
O O9 0.425029 0.346469 0.154129
O O10 0.596621 0.641307 0.126494
O O11 0.891499 0.528935 0.052471
O O12 0.930877 0.424882 0.139054
O O13 0.905535 0.443300 0.845502
O O14 0.750000 0.420641 0.692111
#
# Coordination Sequence:
#
# PCOD9280402 Si02
#       8
#     8   8   4   8   8   4   8   8
#     4  10  23  43  62  83 117 158 196 237 285 341
#     4  10  21  37  59  89 120 150 191 244 296 347
#     4  12  24  36  60  90 118 152 194 242 292 348
#     4  10  23  43  62  83 117 158 196 237 285 341
#     4  10  21  37  59  89 120 150 191 244 296 347
#     4  12  24  36  60  90 118 152 194 242 292 348
#     4   9  19  38  61  84 116 155 193 238 294 349
#     4   9  19  38  61  84 116 155 193 238 294 349
#
# _framework density 20.765557000000001
#
# number of rings (size 3 to 8) (size 9 to 14) (size 15 to 20)
#    0.000    2.000    0.000    2.571    0.000   12.571 
#    0.000    0.000    0.000    8.571    0.000    0.000 
#    0.000    0.000    0.000    0.000    0.000    0.000 
#
# Total GULP energy -156611.269670 kJ/mol
# GULP energy per Si atom -5593.259631 kJ/mol
# Density = 2.071829 g / cm^3
# Si number density = 20.765557 Si / 1000 Ang^3
#
#
#
# Elastic Constant Matrix: (Units=GPa)
#
#
# Indices 1 2 3 4 5 6 
#
# 1 77.3502 50.3614 46.5128 0.0000 0.0001 0.0000
# 2 50.3614 198.6191 99.2968 0.0000 0.0001 0.0000
# 3 46.5128 99.2968 160.6202 0.0000 -0.0002 0.0000
# 4 0.0000 0.0000 0.0000 31.0675 0.0000 -0.0001
# 5 0.0001 0.0001 -0.0002 0.0000 42.0790 0.0000
# 6 0.0000 0.0000 0.0000 -0.0001 0.0000 29.4660
#
#
#
# Elastic Compliance Matrix: (Units=1/GPa)
#
#
# Indices 1 2 3 4 5 6 
#
# 1 0.016535 -0.002603 -0.003179 0.000000 0.000000 0.000000
# 2 -0.002603 0.007697 -0.004004 0.000000 0.000000 0.000000
# 3 -0.003179 -0.004004 0.009622 0.000000 0.000000 0.000000
# 4 0.000000 0.000000 0.000000 0.032188 0.000000 0.000000
# 5 0.000000 0.000000 0.000000 0.000000 0.023765 0.000000
# 6 0.000000 0.000000 0.000000 0.000000 0.000000 0.033937
#
#
# Mechanical properties :
#
#
# Convention : Reuss Voigt Hill
#
# Bulk Modulus (GPa) = 70.02550 92.10349 81.06450
# Shear Modulus (GPa) = 33.76633 36.55040 35.15836
#
# Velocity S-wave (km/s) = 4.03684 4.19996 4.11921
# Velocity P-wave (km/s) = 7.45139 8.24438 7.85789
#
# Compressibility (1/GPa) = 0.01428051
#
# Stress axis : x y z
#
# Youngs Moduli (GPa) = 60.47899 129.92483 103.92968
#
# Poissons Ratio (x) = 0.33824 0.33037
# Poissons Ratio (y) = 0.15745 0.41617
# Poissons Ratio (z) = 0.19225 0.52026
#
# Static dielectric constant tensor:
#      x y z
#    x 1.791410 0.000000 0.000000 
#    y 0.000000 1.708960 0.000000 
#    z 0.000000 0.000000 1.728170 
# 
# From -- ./inp_files/90395.got.cif
#   From: 2010.05.17/outbox.cif.g08.bks.cpg/sg15_46_cif.got.tgz:90395.got - 2010.06.03 18:47:42.
