data_PCOD9280944
_publ_section_title
;
Structure prediction by ZEFSAII (Michael W. Deem and Ramdas Pophale) SiO2 
 PCOD9280944
Probable space group: C 2/C
;
_chemical_formula_sum "Si O2"
_cell_formula_units_Z 44
_cell_length_a 17.864437
_cell_length_b 15.127594
_cell_length_c 7.735862
_cell_angle_alpha 90.000000
_cell_angle_beta 78.553826
_cell_angle_gamma 90.000000
_cell_volume 2049.006907
_symmetry_space_group_name_H-M "C 2/C"
_symmetry_group_IT_number 15
_symmetry_cell_setting 'monoclinic'
loop_
_space_group_symop_operation_xyz
x,y,z
-x,y,1/2-z
-x,-y,-z
x,-y,1/2+z
1/2+x,1/2+y,z
1/2-x,1/2+y,1/2-z
1/2-x,1/2-y,-z
1/2+x,1/2-y,1/2+z
loop_
_atom_site_type_symbol
_atom_site_label
_atom_site_fract_x
_atom_site_fract_y
_atom_site_fract_z
Si Si1 0.500000 0.558790 0.250000
Si Si2 0.625772 0.051227 0.408208
Si Si3 0.262213 0.949262 0.372638
Si Si4 0.648950 0.561291 0.649386
Si Si5 0.474248 0.879917 0.061549
Si Si6 0.961973 0.184336 0.959070
O O1 0.426057 0.495296 0.260091
O O2 0.494119 0.621694 0.422026
O O3 0.689550 0.028348 0.239290
O O4 0.550394 0.107273 0.410260
O O5 0.671718 0.095750 0.545487
O O6 0.587840 0.953923 0.460875
O O7 0.201647 0.992632 0.526660
O O8 0.207369 0.899899 0.264407
O O9 0.617791 0.636235 0.539248
O O10 0.500000 0.896280 0.250000
O O11 0.449757 0.780043 0.046167
O O12 0.000000 0.190268 0.750000
#
# Coordination Sequence:
#
# PCOD9280944 Si02
#       6
#     4   8   8   8   8   8
#     4  12  22  44  68  94 130 178 238 280 318 404
#     4  10  22  41  68  95 125 179 220 273 336 402
#     4  10  21  37  67  96 128 165 223 271 339 408
#     4  11  21  41  67  94 125 175 222 274 331 398
#     4  11  23  42  67  96 135 173 233 280 327 399
#     4  12  25  39  67  99 132 172 228 284 330 382
#
# _framework density 21.473815999999999
#
# number of rings (size 3 to 8) (size 9 to 14) (size 15 to 20)
#    0.000    1.091    5.455    1.636    2.545    0.000 
#    0.000    3.636    8.000    5.455    0.000    0.000 
#    0.000    0.000    0.000    0.000    0.000    0.000 
#
# Total GULP energy -122612.259738 kJ/mol
# GULP energy per Si atom -5573.284534 kJ/mol
# Density = 2.142494 g / cm^3
# Si number density = 21.473816 Si / 1000 Ang^3
#
#
#
# Elastic Constant Matrix: (Units=GPa)
#
#
# Indices 1 2 3 4 5 6 
#
# 1 132.0542 30.1724 28.5054 0.0000 16.3703 0.0000
# 2 30.1724 91.8866 -2.5086 0.0000 17.4848 0.0000
# 3 28.5054 -2.5086 59.2379 0.0000 11.6624 0.0000
# 4 0.0000 0.0000 0.0000 17.0032 0.0000 0.1419
# 5 16.3703 17.4848 11.6624 0.0000 48.9823 0.0000
# 6 0.0000 0.0000 0.0000 0.1419 0.0000 -4.0257
#
#
#
# Elastic Compliance Matrix: (Units=1/GPa)
#
#
# Indices 1 2 3 4 5 6 
#
# 1 0.009336 -0.002996 -0.004423 0.000000 -0.000997 0.000000
# 2 -0.002996 0.012746 0.002812 0.000000 -0.004218 0.000000
# 3 -0.004423 0.002812 0.019971 0.000000 -0.004281 0.000000
# 4 0.000000 0.000000 0.000000 0.058795 0.000000 0.002072
# 5 -0.000997 -0.004218 -0.004281 0.000000 0.023274 0.000000
# 6 0.000000 0.000000 0.000000 0.002072 0.000000 -0.248330
#
#
# Mechanical properties :
#
#
# Convention : Reuss Voigt Hill
#
# Bulk Modulus (GPa) = 30.45186 43.94636 37.19911
# Shear Modulus (GPa) = -48.05502 27.52591 -10.26455
#
# Velocity S-wave (km/s) = -4.73572 3.58416 -2.18870
# Velocity P-wave (km/s) = 3.96118 6.13496 3.31261
#
# Compressibility (1/GPa) = 0.03283872
#
# Stress axis : x y z
#
# Youngs Moduli (GPa) = 107.11606 78.45397 50.07206
#
# Poissons Ratio (x) = 0.23509 0.22146
# Poissons Ratio (y) = 0.32097 -0.14081
# Poissons Ratio (z) = 0.47376 -0.22062
#
# Static dielectric constant tensor:
#      x y z
#    x 1.807650 0.000000 0.063610 
#    y 0.000000 1.739450 0.000000 
#    z 0.063610 0.000000 1.927490 
# 
# From -- ./inp_files/47095.got.cif
#   From: 2010.05.17/outbox.cif.g08.bks.cpg/sg15_24_cif.got.tgz:47095.got - 2010.06.03 18:47:42.
