data_PCOD9280375
_publ_section_title
;
Structure prediction by ZEFSAII (Michael W. Deem and Ramdas Pophale) SiO2 
 PCOD9280375
Probable space group: C 2/C
;
_chemical_formula_sum "Si O2"
_cell_formula_units_Z 44
_cell_length_a 14.973660
_cell_length_b 10.971775
_cell_length_c 14.966184
_cell_angle_alpha 90.000000
_cell_angle_beta 122.836816
_cell_angle_gamma 90.000000
_cell_volume 2065.894325
_symmetry_space_group_name_H-M "C 2/C"
_symmetry_group_IT_number 15
_symmetry_cell_setting 'monoclinic'
loop_
_space_group_symop_operation_xyz
x,y,z
-x,y,1/2-z
-x,-y,-z
x,-y,1/2+z
1/2+x,1/2+y,z
1/2-x,1/2+y,1/2-z
1/2-x,1/2-y,-z
1/2+x,1/2-y,1/2+z
loop_
_atom_site_type_symbol
_atom_site_label
_atom_site_fract_x
_atom_site_fract_y
_atom_site_fract_z
Si Si1 0.050001 0.642669 0.862826
Si Si2 0.869116 0.013240 0.342255
Si Si3 0.627633 0.756708 0.903660
Si Si4 0.011116 0.209893 0.516299
Si Si5 0.500000 0.460809 0.250000
Si Si6 0.859508 0.479084 0.717216
O O1 0.056793 0.717283 0.956575
O O2 0.959463 0.537374 0.822514
O O3 0.000000 0.714590 0.750000
O O4 0.150488 0.572265 0.874049
O O5 0.926941 0.030858 0.279826
O O6 0.900660 0.877218 0.391743
O O7 0.921092 0.114234 0.434409
O O8 0.743521 0.024537 0.278076
O O9 0.581066 0.626989 0.847542
O O10 0.621126 0.849029 0.817239
O O11 0.750000 0.750000 0.000000
O O12 0.550355 0.791162 0.944217
#
# Coordination Sequence:
#
# PCOD9280375 Si02
#       6
#     8   8   8   8   4   8
#     4   8  21  38  59  84 120 150 193 247 291 352
#     4  10  21  37  59  86 120 153 201 244 294 358
#     4  11  21  38  62  86 119 158 200 244 300 354
#     4  10  21  38  58  86 119 154 197 249 296 354
#     4  10  24  36  58  90 118 158 200 244 292 358
#     4   9  20  38  58  83 116 154 194 243 295 359
#
# _framework density 21.298280999999999
#
# number of rings (size 3 to 8) (size 9 to 14) (size 15 to 20)
#    1.091    1.091    1.818    1.091    3.818    1.455 
#    0.000    0.000    0.000    0.000    0.000    0.000 
#    0.000    0.000    0.000    0.000    0.000    0.000 
#
# Total GULP energy -122603.419672 kJ/mol
# GULP energy per Si atom -5572.882712 kJ/mol
# Density = 2.124980 g / cm^3
# Si number density = 21.298281 Si / 1000 Ang^3
#
#
#
# Elastic Constant Matrix: (Units=GPa)
#
#
# Indices 1 2 3 4 5 6 
#
# 1 122.9538 31.5789 27.8305 0.0000 -26.9640 0.0000
# 2 31.5789 57.3858 14.5668 0.0000 -16.3715 0.0000
# 3 27.8305 14.5668 52.4185 0.0000 -21.1963 0.0000
# 4 0.0000 0.0000 0.0000 54.4317 0.0000 -21.8401
# 5 -26.9640 -16.3715 -21.1963 0.0000 35.8523 0.0000
# 6 0.0000 0.0000 0.0000 -21.8401 0.0000 23.7973
#
#
#
# Elastic Compliance Matrix: (Units=1/GPa)
#
#
# Indices 1 2 3 4 5 6 
#
# 1 0.010788 -0.003896 -0.002738 0.000000 0.004715 0.000000
# 2 -0.003896 0.021687 -0.001496 0.000000 0.006088 0.000000
# 3 -0.002738 -0.001496 0.026070 0.000000 0.012671 0.000000
# 4 0.000000 0.000000 0.000000 0.029080 0.000000 0.026688
# 5 0.004715 0.006088 0.012671 0.000000 0.041710 0.000000
# 6 0.000000 0.000000 0.000000 0.026688 0.000000 0.066515
#
#
# Mechanical properties :
#
#
# Convention : Reuss Voigt Hill
#
# Bulk Modulus (GPa) = 23.64967 42.30116 32.97542
# Shear Modulus (GPa) = 22.10390 33.40171 27.75281
#
# Velocity S-wave (km/s) = 3.22503 3.96445 3.61370
# Velocity P-wave (km/s) = 4.99959 6.39220 5.73830
#
# Compressibility (1/GPa) = 0.04228388
#
# Stress axis : x y z
#
# Youngs Moduli (GPa) = 92.69885 46.11147 38.35783
#
# Poissons Ratio (x) = 0.17965 0.10502
# Poissons Ratio (y) = 0.36116 0.05739
# Poissons Ratio (z) = 0.25381 0.06899
#
# Static dielectric constant tensor:
#      x y z
#    x 1.760800 0.000000 -0.039170 
#    y 0.000000 1.797000 0.000000 
#    z -0.039170 0.000000 1.828460 
# 
# From -- ./inp_files/151418.got.cif
#   From: 2010.05.17/outbox.cif.g08.bks.cpg/sg15_76_cif.got.tgz:151418.got - 2010.06.03 18:47:42.
