data_PCOD9280753
_publ_section_title
;
Structure prediction by ZEFSAII (Michael W. Deem and Ramdas Pophale) SiO2 
 PCOD9280753
Probable space group: C 2/C
;
_chemical_formula_sum "Si O2"
_cell_formula_units_Z 56
_cell_length_a 13.440030
_cell_length_b 23.527005
_cell_length_c 14.063394
_cell_angle_alpha 90.000000
_cell_angle_beta 33.944719
_cell_angle_gamma 90.000000
_cell_volume 2483.114835
_symmetry_space_group_name_H-M "C 2/C"
_symmetry_group_IT_number 15
_symmetry_cell_setting 'monoclinic'
loop_
_space_group_symop_operation_xyz
x,y,z
-x,y,1/2-z
-x,-y,-z
x,-y,1/2+z
1/2+x,1/2+y,z
1/2-x,1/2+y,1/2-z
1/2-x,1/2-y,-z
1/2+x,1/2-y,1/2+z
loop_
_atom_site_type_symbol
_atom_site_label
_atom_site_fract_x
_atom_site_fract_y
_atom_site_fract_z
Si Si1 0.539513 0.926064 0.317032
Si Si2 0.123134 0.224833 0.875055
Si Si3 0.674163 0.503229 0.925018
Si Si4 0.306685 0.592466 0.939020
Si Si5 0.958843 0.426512 0.591452
Si Si6 0.735856 0.824802 0.666079
Si Si7 0.501980 0.199810 0.641976
O O1 0.500000 0.958613 0.250000
O O2 0.753868 0.932146 0.139329
O O3 0.470888 0.944789 0.473303
O O4 0.443314 0.865166 0.385754
O O5 0.142983 0.264363 0.764873
O O6 0.308828 0.193449 0.744683
O O7 0.945831 0.187433 0.013074
O O8 0.109786 0.264003 0.980356
O O9 0.833667 0.468721 0.748470
O O10 0.500000 0.500000 0.000000
O O11 0.652866 0.467262 0.038412
O O12 0.500000 0.612800 0.750000
O O13 0.225627 0.640450 0.074997
O O14 0.155576 0.581058 0.980057
O O15 0.855202 0.366900 0.686107
O O16 0.500000 0.225810 0.750000
#
# Coordination Sequence:
#
# PCOD9280753 Si02
#       7
#     8   8   8   8   8   8   8
#     4  11  23  40  66  95 128 166 221 269 318 380
#     4  10  21  39  64  92 135 166 224 271 323 385
#     4  11  24  41  68  99 130 170 215 266 327 394
#     4  11  25  44  70  95 133 178 215 263 337 403
#     4  11  23  45  66  92 136 175 212 265 338 391
#     4  10  22  40  66  95 127 174 215 269 321 394
#     4  10  21  37  63  91 129 176 216 267 328 383
#
# _framework density 22.552320000000002
#
# number of rings (size 3 to 8) (size 9 to 14) (size 15 to 20)
#    0.000    1.429    1.429    4.286    6.000    1.143 
#    0.000    5.000    0.000    0.000    0.000    0.000 
#    0.000    0.000    0.000    0.000    0.000    0.000 
#
# Total GULP energy -156016.828202 kJ/mol
# GULP energy per Si atom -5572.029579 kJ/mol
# Density = 2.250099 g / cm^3
# Si number density = 22.552320 Si / 1000 Ang^3
#
#
#
# Elastic Constant Matrix: (Units=GPa)
#
#
# Indices 1 2 3 4 5 6 
#
# 1 91.7805 23.9120 51.7619 0.0033 8.8751 -0.0010
# 2 23.9120 39.0845 0.2926 0.0036 4.3073 -0.0012
# 3 51.7619 0.2926 94.4545 0.0144 1.4593 -0.0082
# 4 0.0033 0.0036 0.0144 18.0728 -0.0076 -6.0244
# 5 8.8751 4.3073 1.4593 -0.0076 49.0479 0.0026
# 6 -0.0010 -0.0012 -0.0082 -6.0244 0.0026 13.2443
#
#
#
# Elastic Compliance Matrix: (Units=1/GPa)
#
#
# Indices 1 2 3 4 5 6 
#
# 1 0.020676 -0.012309 -0.011256 0.000006 -0.002325 -0.000004
# 2 -0.012309 0.033164 0.006656 -0.000009 -0.000883 0.000002
# 3 -0.011256 0.006656 0.016720 -0.000011 0.000955 0.000005
# 4 0.000006 -0.000009 -0.000011 0.065221 0.000009 0.029667
# 5 -0.002325 -0.000883 0.000955 0.000009 0.020858 0.000000
# 6 -0.000004 0.000002 0.000005 0.029667 0.000000 0.088998
#
#
# Mechanical properties :
#
#
# Convention : Reuss Voigt Hill
#
# Bulk Modulus (GPa) = 27.21705 41.91695 34.56700
# Shear Modulus (GPa) = 17.14079 26.02989 21.58534
#
# Velocity S-wave (km/s) = 2.75988 3.40104 3.09710
# Velocity P-wave (km/s) = 4.71705 5.83521 5.30567
#
# Compressibility (1/GPa) = 0.03674167
#
# Stress axis : x y z
#
# Youngs Moduli (GPa) = 48.36623 30.15353 59.80753
#
# Poissons Ratio (x) = 0.37115 0.67321
# Poissons Ratio (y) = 0.59533 -0.39809
# Poissons Ratio (z) = 0.54443 -0.20071
#
# Static dielectric constant tensor:
#      x y z
#    x 1.915710 0.000000 0.011850 
#    y 0.000000 2.035850 0.000000 
#    z 0.011850 0.000000 1.753390 
# 
# From -- ./inp_files/156888.got.cif
#   From: 2010.05.17/outbox.cif.g08.bks.cpg/sg15_79_cif.got.tgz:156888.got - 2010.06.03 18:47:42.
