data_PCOD9280149
_publ_section_title
;
Structure prediction by ZEFSAII (Michael W. Deem and Ramdas Pophale) SiO2 
 PCOD9280149
Probable space group: C 2/C
;
_chemical_formula_sum "Si O2"
_cell_formula_units_Z 56
_cell_length_a 23.693777
_cell_length_b 18.797024
_cell_length_c 12.402858
_cell_angle_alpha 90.000000
_cell_angle_beta 148.781922
_cell_angle_gamma 90.000000
_cell_volume 2863.015829
_symmetry_space_group_name_H-M "C 2/C"
_symmetry_group_IT_number 15
_symmetry_cell_setting 'monoclinic'
loop_
_space_group_symop_operation_xyz
x,y,z
-x,y,1/2-z
-x,-y,-z
x,-y,1/2+z
1/2+x,1/2+y,z
1/2-x,1/2+y,1/2-z
1/2-x,1/2-y,-z
1/2+x,1/2-y,1/2+z
loop_
_atom_site_type_symbol
_atom_site_label
_atom_site_fract_x
_atom_site_fract_y
_atom_site_fract_z
Si Si1 0.876578 0.272810 0.023969
Si Si2 0.884603 0.619343 0.358751
Si Si3 0.366647 0.864574 0.191810
Si Si4 0.277871 0.573952 0.585648
Si Si5 0.655733 0.432583 0.931191
Si Si6 0.117406 0.490515 0.461294
Si Si7 0.429482 0.622526 0.003091
O O1 0.835336 0.321938 0.859655
O O2 0.890979 0.193994 0.001757
O O3 0.829311 0.294976 0.062473
O O4 0.000000 0.297649 0.250000
O O5 0.877533 0.544448 0.412556
O O6 0.013699 0.637853 0.556941
O O7 0.810635 0.613223 0.133120
O O8 0.377222 0.925592 0.116437
O O9 0.269903 0.890693 0.110253
O O10 0.326639 0.508058 0.597541
O O11 0.210956 0.542573 0.577401
O O12 0.374561 0.618448 0.797319
O O13 0.559373 0.388564 0.713141
O O14 0.613070 0.437990 0.983637
O O15 0.000000 0.524980 0.250000
#
# Coordination Sequence:
#
# PCOD9280149 Si02
#       7
#     8   8   8   8   8   8   8
#     4   9  17  37  57  76 104 137 187 225 262 312
#     4   9  18  33  54  82 105 137 173 224 280 320
#     4   8  17  33  59  80  96 136 179 222 266 314
#     4  11  21  32  53  81 113 143 173 220 278 333
#     4  10  21  37  54  80 106 143 189 220 264 315
#     4   8  16  31  51  75 106 133 171 216 264 321
#     4  11  22  36  53  78 108 149 183 227 260 311
#
# _framework density 19.559794
#
# number of rings (size 3 to 8) (size 9 to 14) (size 15 to 20)
#    0.000    2.571    1.429    3.000    0.000    7.429 
#    0.000    0.000    0.000    0.000    3.714    0.000 
#    0.000    0.000    0.000    0.000    0.000    0.000 
#
# Total GULP energy -155891.540576 kJ/mol
# GULP energy per Si atom -5567.555021 kJ/mol
# Density = 1.951528 g / cm^3
# Si number density = 19.559794 Si / 1000 Ang^3
#
#
#
# Elastic Constant Matrix: (Units=GPa)
#
#
# Indices 1 2 3 4 5 6 
#
# 1 51.4950 7.3355 27.7408 0.0000 10.6377 0.0000
# 2 7.3355 49.8592 28.6547 0.0000 -3.8781 0.0000
# 3 27.7408 28.6547 149.6044 0.0000 -18.8252 0.0000
# 4 0.0000 0.0000 0.0000 14.4740 0.0000 0.4155
# 5 10.6377 -3.8781 -18.8252 0.0000 22.9857 0.0000
# 6 0.0000 0.0000 0.0000 0.4155 0.0000 15.0959
#
#
#
# Elastic Compliance Matrix: (Units=1/GPa)
#
#
# Indices 1 2 3 4 5 6 
#
# 1 0.027353 -0.001362 -0.007172 0.000000 -0.018763 0.000000
# 2 -0.001362 0.022607 -0.003923 0.000000 0.001232 0.000000
# 3 -0.007172 -0.003923 0.010145 0.000000 0.010967 0.000000
# 4 0.000000 0.000000 0.000000 0.069144 0.000000 -0.001903
# 5 -0.018763 0.001232 0.010967 0.000000 0.061378 0.000000
# 6 0.000000 0.000000 0.000000 -0.001903 0.000000 0.066296
#
#
# Mechanical properties :
#
#
# Convention : Reuss Voigt Hill
#
# Bulk Modulus (GPa) = 28.41507 42.04673 35.23090
# Shear Modulus (GPa) = 17.03189 22.99295 20.01242
#
# Velocity S-wave (km/s) = 2.95407 3.43231 3.20213
# Velocity P-wave (km/s) = 5.11802 6.10334 5.63227
#
# Compressibility (1/GPa) = 0.03519259
#
# Stress axis : x y z
#
# Youngs Moduli (GPa) = 36.55907 44.23417 98.56605
#
# Poissons Ratio (x) = 0.06024 0.70693
# Poissons Ratio (y) = 0.04978 0.38663
# Poissons Ratio (z) = 0.26221 0.17351
#
# Static dielectric constant tensor:
#      x y z
#    x 1.739390 0.000000 0.006070 
#    y 0.000000 1.736150 0.000000 
#    z 0.006070 0.000000 1.697400 
# 
# From -- ./inp_files/119873.got.cif
#   From: 2010.05.17/outbox.cif.g08.bks.cpg/sg15_60_cif.got.tgz:119873.got - 2010.06.03 18:47:42.
