data_PCOD9280294
_publ_section_title
;
Structure prediction by ZEFSAII (Michael W. Deem and Ramdas Pophale) SiO2 
 PCOD9280294
Probable space group: C 2/C
;
_chemical_formula_sum "Si O2"
_cell_formula_units_Z 32
_cell_length_a 14.401253
_cell_length_b 23.292018
_cell_length_c 9.437961
_cell_angle_alpha 90.000000
_cell_angle_beta 30.209350
_cell_angle_gamma 90.000000
_cell_volume 1592.914734
_symmetry_space_group_name_H-M "C 2/C"
_symmetry_group_IT_number 15
_symmetry_cell_setting 'monoclinic'
loop_
_space_group_symop_operation_xyz
x,y,z
-x,y,1/2-z
-x,-y,-z
x,-y,1/2+z
1/2+x,1/2+y,z
1/2-x,1/2+y,1/2-z
1/2-x,1/2-y,-z
1/2+x,1/2-y,1/2+z
loop_
_atom_site_type_symbol
_atom_site_label
_atom_site_fract_x
_atom_site_fract_y
_atom_site_fract_z
Si Si1 0.119967 0.230268 0.800676
Si Si2 0.785647 0.848109 0.062605
Si Si3 0.014085 0.440836 0.064129
Si Si4 0.736582 0.168744 0.302900
O O1 0.250000 0.250000 0.500000
O O2 0.214001 0.192173 0.800030
O O3 0.088000 0.290432 0.923160
O O4 0.937987 0.194413 0.998781
O O5 0.660437 0.903088 0.253378
O O6 0.724347 0.824839 0.988693
O O7 0.000000 0.863241 0.750000
O O8 0.000000 0.452535 0.250000
O O9 0.188722 0.396591 0.821806
O O10 0.000000 0.500000 0.000000
#
# Coordination Sequence:
#
# PCOD9280294 Si02
#       4
#     8   8   8   8
#     4  11  21  35  58  92 125 153 191 245 298 353
#     4   9  20  39  60  83 117 163 202 237 296 369
#     4  10  22  41  62  84 113 156 208 256 301 352
#     4  10  21  37  58  85 118 160 196 234 300 368
#
# _framework density 20.088958999999999
#
# number of rings (size 3 to 8) (size 9 to 14) (size 15 to 20)
#    0.000    2.000    0.000    3.000    0.000    9.000 
#    0.000   13.750    0.000    0.000    0.000    0.000 
#    0.000    0.000    0.000    0.000    0.000    0.000 
#
# Total GULP energy -89205.359978 kJ/mol
# GULP energy per Si atom -5575.334999 kJ/mol
# Density = 2.004324 g / cm^3
# Si number density = 20.088959 Si / 1000 Ang^3
#
#
#
# Elastic Constant Matrix: (Units=GPa)
#
#
# Indices 1 2 3 4 5 6 
#
# 1 114.1272 76.6090 56.2117 0.0001 -10.2922 -0.0001
# 2 76.6090 177.3428 78.8629 0.0000 10.7183 0.0000
# 3 56.2117 78.8629 132.7043 0.0002 -4.0943 -0.0002
# 4 0.0001 0.0000 0.0002 32.0245 -0.0002 9.9383
# 5 -10.2922 10.7183 -4.0943 -0.0002 29.1088 0.0002
# 6 -0.0001 0.0000 -0.0002 9.9383 0.0002 45.8418
#
#
#
# Elastic Compliance Matrix: (Units=1/GPa)
#
#
# Indices 1 2 3 4 5 6 
#
# 1 0.014289 -0.005404 -0.002635 0.000000 0.006672 0.000000
# 2 -0.005404 0.010075 -0.003889 0.000000 -0.006168 0.000000
# 3 -0.002635 -0.003889 0.011026 0.000000 0.002051 0.000000
# 4 0.000000 0.000000 0.000000 0.033479 0.000000 -0.007258
# 5 0.006672 -0.006168 0.002051 0.000000 0.039272 0.000000
# 6 0.000000 0.000000 0.000000 -0.007258 0.000000 0.023388
#
#
# Mechanical properties :
#
#
# Convention : Reuss Voigt Hill
#
# Bulk Modulus (GPa) = 86.69722 94.17130 90.43426
# Shear Modulus (GPa) = 31.40104 35.56105 33.48105
#
# Velocity S-wave (km/s) = 3.95789 4.21191 4.08688
# Velocity P-wave (km/s) = 8.00855 8.40432 8.20882
#
# Compressibility (1/GPa) = 0.01153440
#
# Stress axis : x y z
#
# Youngs Moduli (GPa) = 69.98215 99.25302 90.69355
#
# Poissons Ratio (x) = 0.53636 0.23902
# Poissons Ratio (y) = 0.37818 0.35268
# Poissons Ratio (z) = 0.18444 0.38597
#
# Static dielectric constant tensor:
#      x y z
#    x 1.767250 0.000000 -0.055360 
#    y 0.000000 1.709910 0.000000 
#    z -0.055360 0.000000 1.834320 
# 
# From -- ./inp_files/23225.got.cif
#   From: 2010.05.17/outbox.cif.g08.bks.cpg/sg15_12_cif.got.tgz:23225.got - 2010.06.03 18:47:42.
