data_PCOD9280058
_publ_section_title
;
Structure prediction by ZEFSAII (Michael W. Deem and Ramdas Pophale) SiO2 
 PCOD9280058
Probable space group: C 2/C
;
_chemical_formula_sum "Si O2"
_cell_formula_units_Z 52
_cell_length_a 12.323413
_cell_length_b 19.277370
_cell_length_c 19.750167
_cell_angle_alpha 90.000000
_cell_angle_beta 34.502589
_cell_angle_gamma 90.000000
_cell_volume 2657.701110
_symmetry_space_group_name_H-M "C 2/C"
_symmetry_group_IT_number 15
_symmetry_cell_setting 'monoclinic'
loop_
_space_group_symop_operation_xyz
x,y,z
-x,y,1/2-z
-x,-y,-z
x,-y,1/2+z
1/2+x,1/2+y,z
1/2-x,1/2+y,1/2-z
1/2-x,1/2-y,-z
1/2+x,1/2-y,1/2+z
loop_
_atom_site_type_symbol
_atom_site_label
_atom_site_fract_x
_atom_site_fract_y
_atom_site_fract_z
Si Si1 0.593951 0.005206 0.772805
Si Si2 0.436409 0.422520 0.553000
Si Si3 0.671634 0.004138 0.464849
Si Si4 0.868944 0.134592 0.672096
Si Si5 0.172235 0.138901 0.056905
Si Si6 0.525051 0.779601 0.313859
Si Si7 0.500000 0.400234 0.250000
O O1 0.500000 0.027062 0.750000
O O2 0.727712 0.067118 0.734115
O O3 0.725226 0.937553 0.690977
O O4 0.424547 0.991446 0.912653
O O5 0.500000 0.500000 0.500000
O O6 0.469047 0.376827 0.468774
O O7 0.576530 0.394475 0.539309
O O8 0.776931 0.078342 0.416878
O O9 0.500000 0.000000 0.500000
O O10 0.826145 0.948450 0.363436
O O11 0.738276 0.200959 0.724905
O O12 0.939878 0.138288 0.712344
O O13 0.029401 0.199187 0.153610
O O14 0.371381 0.177354 0.936658
O O15 0.500000 0.803009 0.250000
#
# Coordination Sequence:
#
# PCOD9280058 Si02
#       7
#     8   8   8   8   8   8   4
#     4  11  20  36  60  90 124 163 209 271 331 390
#     4  10  21  36  64  92 126 164 214 273 331 389
#     4  12  23  38  58  97 138 162 208 278 344 396
#     4  11  20  39  60  91 124 171 216 266 325 393
#     4  11  23  38  61  95 126 169 221 261 327 392
#     4  11  22  39  63  88 127 172 217 272 311 382
#     4  12  24  38  62  92 132 172 210 268 352 392
#
# _framework density 19.565783
#
# number of rings (size 3 to 8) (size 9 to 14) (size 15 to 20)
#    0.000    0.923    4.615    5.077    1.077    0.000 
#    0.000    0.000    1.692    0.923    0.000    0.000 
#    0.000    0.000    0.000    0.000    0.000    0.000 
#
# Total GULP energy -145230.428999 kJ/mol
# GULP energy per Si atom -5585.785731 kJ/mol
# Density = 1.952125 g / cm^3
# Si number density = 19.565783 Si / 1000 Ang^3
#
#
#
# Elastic Constant Matrix: (Units=GPa)
#
#
# Indices 1 2 3 4 5 6 
#
# 1 137.5088 34.4983 18.4653 -0.0012 15.8913 0.0003
# 2 34.4983 66.9889 23.3784 -0.0164 -3.7102 0.0046
# 3 18.4653 23.3784 91.1694 -0.0332 -5.5220 0.0086
# 4 -0.0012 -0.0164 -0.0332 20.9894 0.0083 -5.3906
# 5 15.8913 -3.7102 -5.5220 0.0083 27.0098 0.0002
# 6 0.0003 0.0046 0.0086 -5.3906 0.0002 18.7752
#
#
#
# Elastic Compliance Matrix: (Units=1/GPa)
#
#
# Indices 1 2 3 4 5 6 
#
# 1 0.009356 -0.004805 -0.001049 -0.000002 -0.006379 0.000001
# 2 -0.004805 0.018916 -0.003593 0.000007 0.004691 -0.000001
# 3 -0.001049 -0.003593 0.012262 0.000015 0.002630 0.000000
# 4 -0.000002 0.000007 0.000015 0.051436 -0.000011 0.014768
# 5 -0.006379 0.004691 0.002630 -0.000011 0.041959 -0.000006
# 6 0.000001 -0.000001 0.000000 0.014768 -0.000006 0.057502
#
#
# Mechanical properties :
#
#
# Convention : Reuss Voigt Hill
#
# Bulk Modulus (GPa) = 46.21354 49.81676 48.01515
# Shear Modulus (GPa) = 22.98433 27.97653 25.48043
#
# Velocity S-wave (km/s) = 3.43114 3.78546 3.61265
# Velocity P-wave (km/s) = 6.27438 6.68003 6.48038
#
# Compressibility (1/GPa) = 0.02163868
#
# Stress axis : x y z
#
# Youngs Moduli (GPa) = 106.88416 52.86425 81.55392
#
# Poissons Ratio (x) = 0.25403 0.08556
# Poissons Ratio (y) = 0.51362 0.29305
# Poissons Ratio (z) = 0.11213 0.18996
#
# Static dielectric constant tensor:
#      x y z
#    x 1.755850 0.000000 -0.026000 
#    y 0.000000 1.681450 0.000000 
#    z -0.026000 0.000000 1.732050 
# 
# From -- ./inp_files/200318.got.cif
#   From: 2010.05.17/outbox.cif.g08.bks.cpg/sg15_101_cif.got.tgz:200318.got - 2010.06.03 18:47:42.
