data_PCOD9280750
_publ_section_title
;
Structure prediction by ZEFSAII (Michael W. Deem and Ramdas Pophale) SiO2 
 PCOD9280750
Probable space group: C 2/C
;
_chemical_formula_sum "Si O2"
_cell_formula_units_Z 32
_cell_length_a 18.957130
_cell_length_b 18.103424
_cell_length_c 7.876451
_cell_angle_alpha 90.000000
_cell_angle_beta 146.109793
_cell_angle_gamma 90.000000
_cell_volume 1507.263463
_symmetry_space_group_name_H-M "C 2/C"
_symmetry_group_IT_number 15
_symmetry_cell_setting 'monoclinic'
loop_
_space_group_symop_operation_xyz
x,y,z
-x,y,1/2-z
-x,-y,-z
x,-y,1/2+z
1/2+x,1/2+y,z
1/2-x,1/2+y,1/2-z
1/2-x,1/2-y,-z
1/2+x,1/2-y,1/2+z
loop_
_atom_site_type_symbol
_atom_site_label
_atom_site_fract_x
_atom_site_fract_y
_atom_site_fract_z
Si Si1 0.852588 0.188285 0.757162
Si Si2 0.389126 0.745256 0.203830
Si Si3 0.179643 0.558228 0.482687
Si Si4 0.903123 0.411573 0.297907
O O1 0.750000 0.250000 0.500000
O O2 0.791309 0.106850 0.623256
O O3 0.873601 0.202973 0.997666
O O4 0.991947 0.207583 0.960731
O O5 0.413649 0.831960 0.235268
O O6 0.250000 0.750000 0.000000
O O7 0.182020 0.469082 0.479504
O O8 0.153951 0.586114 0.623819
O O9 0.050842 0.569603 0.119188
#
# Coordination Sequence:
#
# PCOD9280750 Si02
#       4
#     8   8   8   8
#     4  11  23  38  65  92 128 163 216 263 319 373
#     4  11  23  40  64  92 125 167 213 262 315 384
#     4  10  21  38  61  93 126 164 211 268 316 381
#     4  10  21  37  63  91 127 165 213 261 323 377
#
# _framework density 21.230529000000001
#
# number of rings (size 3 to 8) (size 9 to 14) (size 15 to 20)
#    0.000    1.500    5.000    0.000    3.500    3.000 
#    0.000    1.250    0.000    0.000    0.000    0.000 
#    0.000    0.000    0.000    0.000    0.000    0.000 
#
# Total GULP energy -89070.990308 kJ/mol
# GULP energy per Si atom -5566.936894 kJ/mol
# Density = 2.118221 g / cm^3
# Si number density = 21.230529 Si / 1000 Ang^3
#
#
#
# Elastic Constant Matrix: (Units=GPa)
#
#
# Indices 1 2 3 4 5 6 
#
# 1 62.9631 12.8632 37.3325 0.0000 29.9182 0.0000
# 2 12.8632 130.1994 41.2044 0.0000 9.7770 0.0000
# 3 37.3325 41.2044 112.8098 0.0000 30.9117 0.0000
# 4 0.0000 0.0000 0.0000 45.4721 0.0000 3.4810
# 5 29.9182 9.7770 30.9117 0.0000 35.5271 0.0000
# 6 0.0000 0.0000 0.0000 3.4810 0.0000 21.1738
#
#
#
# Elastic Compliance Matrix: (Units=1/GPa)
#
#
# Indices 1 2 3 4 5 6 
#
# 1 0.027563 -0.000079 -0.003596 0.000000 -0.020061 0.000000
# 2 -0.000079 0.008691 -0.003297 0.000000 0.000544 0.000000
# 3 -0.003596 -0.003297 0.013367 0.000000 -0.007695 0.000000
# 4 0.000000 0.000000 0.000000 0.022272 0.000000 -0.003661
# 5 -0.020061 0.000544 -0.007695 0.000000 0.051588 0.000000
# 6 0.000000 0.000000 0.000000 -0.003661 0.000000 0.047830
#
#
# Mechanical properties :
#
#
# Convention : Reuss Voigt Hill
#
# Bulk Modulus (GPa) = 28.02859 54.30808 41.16834
# Shear Modulus (GPa) = 25.36182 34.73941 30.05062
#
# Velocity S-wave (km/s) = 3.46004 4.04950 3.76632
# Velocity P-wave (km/s) = 5.40307 6.89205 6.19248
#
# Compressibility (1/GPa) = 0.03567785
#
# Stress axis : x y z
#
# Youngs Moduli (GPa) = 36.28078 115.06164 74.80878
#
# Poissons Ratio (x) = 0.00906 0.26898
# Poissons Ratio (y) = 0.00286 0.24667
# Poissons Ratio (z) = 0.13045 0.37939
#
# Static dielectric constant tensor:
#      x y z
#    x 1.828310 0.000000 0.018260 
#    y 0.000000 1.848930 0.000000 
#    z 0.018260 0.000000 1.773840 
# 
# From -- ./inp_files/22364.got.cif
#   From: 2010.05.17/outbox.cif.g08.bks.cpg/sg15_12_cif.got.tgz:22364.got - 2010.06.03 18:47:42.
