data_PCOD9280098
_publ_section_title
;
Structure prediction by ZEFSAII (Michael W. Deem and Ramdas Pophale) SiO2 
 PCOD9280098
Probable space group: C 2/C
;
_chemical_formula_sum "Si O2"
_cell_formula_units_Z 56
_cell_length_a 17.187937
_cell_length_b 6.840003
_cell_length_c 24.819949
_cell_angle_alpha 90.000000
_cell_angle_beta 130.805943
_cell_angle_gamma 90.000000
_cell_volume 2208.691630
_symmetry_space_group_name_H-M "C 2/C"
_symmetry_group_IT_number 15
_symmetry_cell_setting 'monoclinic'
loop_
_space_group_symop_operation_xyz
x,y,z
-x,y,1/2-z
-x,-y,-z
x,-y,1/2+z
1/2+x,1/2+y,z
1/2-x,1/2+y,1/2-z
1/2-x,1/2-y,-z
1/2+x,1/2-y,1/2+z
loop_
_atom_site_type_symbol
_atom_site_label
_atom_site_fract_x
_atom_site_fract_y
_atom_site_fract_z
Si Si1 0.199584 0.882635 0.652879
Si Si2 0.031276 0.954554 0.208733
Si Si3 0.259515 0.392259 0.951257
Si Si4 0.765354 0.800904 0.712851
Si Si5 0.054242 0.357286 0.333270
Si Si6 0.954129 0.609454 0.371618
Si Si7 0.022398 0.954842 0.449545
O O1 0.217427 0.807590 0.599842
O O2 0.238949 0.773588 0.724129
O O3 0.082683 0.940761 0.618050
O O4 0.260269 0.090346 0.682847
O O5 0.137534 0.073279 0.260286
O O6 0.000000 0.854575 0.250000
O O7 0.944664 0.121873 0.161773
O O8 0.035534 0.786075 0.167220
O O9 0.157806 0.523247 0.894398
O O10 0.250000 0.250000 0.000000
O O11 0.362061 0.519755 0.010577
O O12 0.656452 0.901285 0.651361
O O13 0.000000 0.396287 0.250000
O O14 0.981238 0.424057 0.349487
O O15 0.026068 0.716512 0.447002
O O16 0.000000 0.000000 0.500000
#
# Coordination Sequence:
#
# PCOD9280098 Si02
#       7
#     8   8   8   8   8   8   8
#     4  10  21  36  66  96 128 177 230 278 335 408
#     4  11  23  38  60  97 136 167 213 288 340 392
#     4  11  21  40  66  95 134 183 223 275 349 415
#     4  11  19  39  61  95 130 170 225 277 337 397
#     4  11  23  39  64  98 133 171 232 284 339 399
#     4  11  21  38  64  94 127 175 218 277 339 404
#     4   9  19  37  61  87 122 177 222 262 329 409
#
# _framework density 25.354378000000001
#
# number of rings (size 3 to 8) (size 9 to 14) (size 15 to 20)
#    0.000    1.429    4.286    3.857    0.000    0.000 
#    0.000    0.714    0.000    6.857    0.000    0.000 
#    0.000    0.000    0.000    0.000    0.000    0.000 
#
# Total GULP energy -156072.088340 kJ/mol
# GULP energy per Si atom -5574.003155 kJ/mol
# Density = 2.529667 g / cm^3
# Si number density = 25.354378 Si / 1000 Ang^3
#
#
#
# Elastic Constant Matrix: (Units=GPa)
#
#
# Indices 1 2 3 4 5 6 
#
# 1 115.8293 3.8791 21.4065 0.0000 -4.3576 0.0000
# 2 3.8791 46.5929 -15.2196 0.0000 -3.5479 0.0000
# 3 21.4065 -15.2196 81.4201 0.0000 9.9765 0.0000
# 4 0.0000 0.0000 0.0000 24.9268 0.0000 -5.5431
# 5 -4.3576 -3.5479 9.9765 0.0000 57.2782 0.0000
# 6 0.0000 0.0000 0.0000 -5.5431 0.0000 37.1831
#
#
#
# Elastic Compliance Matrix: (Units=1/GPa)
#
#
# Indices 1 2 3 4 5 6 
#
# 1 0.009261 -0.001626 -0.002874 0.000000 0.001104 0.000000
# 2 -0.001626 0.023170 0.004698 0.000000 0.000493 0.000000
# 3 -0.002874 0.004698 0.014210 0.000000 -0.002403 0.000000
# 4 0.000000 0.000000 0.000000 0.041493 0.000000 0.006186
# 5 0.001104 0.000493 -0.002403 0.000000 0.017992 0.000000
# 6 0.000000 0.000000 0.000000 0.006186 0.000000 0.027816
#
#
# Mechanical properties :
#
#
# Convention : Reuss Voigt Hill
#
# Bulk Modulus (GPa) = 21.25953 29.33047 25.29500
# Shear Modulus (GPa) = 33.50673 39.46271 36.48472
#
# Velocity S-wave (km/s) = 3.63924 3.94946 3.79752
# Velocity P-wave (km/s) = 5.10509 5.69131 5.40615
#
# Compressibility (1/GPa) = 0.04703773
#
# Stress axis : x y z
#
# Youngs Moduli (GPa) = 107.98539 43.15918 70.37214
#
# Poissons Ratio (x) = 0.07016 0.20224
# Poissons Ratio (y) = 0.17555 -0.33061
# Poissons Ratio (z) = 0.31034 -0.20276
#
# Static dielectric constant tensor:
#      x y z
#    x 2.044690 0.000000 0.053900 
#    y 0.000000 2.076140 0.000000 
#    z 0.053900 0.000000 2.777090 
# 
# From -- ./inp_files/298197.got.cif
#   From: 2010.05.17/outbox.cif.g08.bks.cpg/sg15_150_cif.got.tgz:298197.got - 2010.06.03 18:47:42.
