data_PCOD9280994
_publ_section_title
;
Structure prediction by ZEFSAII (Michael W. Deem and Ramdas Pophale) SiO2 
 PCOD9280994
Probable space group: C 2/C
;
_chemical_formula_sum "Si O2"
_cell_formula_units_Z 56
_cell_length_a 15.759352
_cell_length_b 21.701225
_cell_length_c 9.133453
_cell_angle_alpha 90.000000
_cell_angle_beta 117.636193
_cell_angle_gamma 90.000000
_cell_volume 2767.244755
_symmetry_space_group_name_H-M "C 2/C"
_symmetry_group_IT_number 15
_symmetry_cell_setting 'monoclinic'
loop_
_space_group_symop_operation_xyz
x,y,z
-x,y,1/2-z
-x,-y,-z
x,-y,1/2+z
1/2+x,1/2+y,z
1/2-x,1/2+y,1/2-z
1/2-x,1/2-y,-z
1/2+x,1/2-y,1/2+z
loop_
_atom_site_type_symbol
_atom_site_label
_atom_site_fract_x
_atom_site_fract_y
_atom_site_fract_z
Si Si1 0.602408 0.019427 0.326748
Si Si2 0.387212 0.849571 0.517706
Si Si3 0.838440 0.333454 0.147876
Si Si4 0.248747 0.182000 0.174369
Si Si5 0.467305 0.278926 0.065186
Si Si6 0.174052 0.572300 0.086971
Si Si7 0.643489 0.277928 0.019826
O O1 0.500000 0.986021 0.250000
O O2 0.588119 0.083340 0.402936
O O3 0.622887 0.036385 0.176308
O O4 0.686407 0.980171 0.472240
O O5 0.356557 0.854783 0.325206
O O6 0.306121 0.825721 0.567152
O O7 0.466998 0.796051 0.573973
O O8 0.722562 0.328467 0.042356
O O9 0.879859 0.376626 0.054531
O O10 0.873443 0.265147 0.134740
O O11 0.253535 0.116785 0.265203
O O12 0.303711 0.233804 0.315943
O O13 0.140453 0.201593 0.057269
O O14 0.500000 0.302071 0.250000
O O15 0.545259 0.299750 0.009972
#
# Coordination Sequence:
#
# PCOD9280994 Si02
#       7
#     8   8   8   8   8   8   8
#     4  11  23  40  60  90 119 162 215 254 306 388
#     4  11  21  35  60  88 130 166 198 249 302 373
#     4  10  21  38  54  83 128 164 203 251 299 358
#     4  10  21  40  58  90 129 162 205 257 303 381
#     4  12  21  34  63  92 126 169 204 244 313 371
#     4  10  23  41  60  82 124 162 203 260 308 357
#     4  10  21  38  55  85 126 167 207 247 302 365
#
# _framework density 20.236736000000001
#
# number of rings (size 3 to 8) (size 9 to 14) (size 15 to 20)
#    0.000    1.429    2.857    3.000    4.000    0.571 
#    0.000    0.000    0.000    0.000    0.000   34.000 
#    0.000    0.000    0.000    0.000    0.000    0.000 
#
# Total GULP energy -156184.252433 kJ/mol
# GULP energy per Si atom -5578.009015 kJ/mol
# Density = 2.019068 g / cm^3
# Si number density = 20.236736 Si / 1000 Ang^3
#
#
#
# Elastic Constant Matrix: (Units=GPa)
#
#
# Indices 1 2 3 4 5 6 
#
# 1 84.8395 4.5867 38.9926 0.0000 -6.5783 0.0000
# 2 4.5867 48.2718 27.3645 0.0000 0.6119 0.0000
# 3 38.9926 27.3645 115.0884 0.0000 -24.6601 0.0000
# 4 0.0000 0.0000 0.0000 26.8198 0.0000 -5.4565
# 5 -6.5783 0.6119 -24.6601 0.0000 38.7873 0.0000
# 6 0.0000 0.0000 0.0000 -5.4565 0.0000 11.2248
#
#
#
# Elastic Compliance Matrix: (Units=1/GPa)
#
#
# Indices 1 2 3 4 5 6 
#
# 1 0.014102 0.001750 -0.005427 0.000000 -0.001086 0.000000
# 2 0.001750 0.024900 -0.007565 0.000000 -0.004905 0.000000
# 3 -0.005427 -0.007565 0.014072 0.000000 0.008145 0.000000
# 4 0.000000 0.000000 0.000000 0.041378 0.000000 0.020114
# 5 -0.001086 -0.004905 0.008145 0.000000 0.030853 0.000000
# 6 0.000000 0.000000 0.000000 0.020114 0.000000 0.098866
#
#
# Mechanical properties :
#
#
# Convention : Reuss Voigt Hill
#
# Bulk Modulus (GPa) = 32.68869 43.34305 38.01587
# Shear Modulus (GPa) = 19.46655 27.18345 23.32500
#
# Velocity S-wave (km/s) = 3.10488 3.66904 3.39869
# Velocity P-wave (km/s) = 5.38906 6.27803 5.85045
#
# Compressibility (1/GPa) = 0.03059162
#
# Stress axis : x y z
#
# Youngs Moduli (GPa) = 70.91040 40.16044 71.06555
#
# Poissons Ratio (x) = -0.07029 0.38566
# Poissons Ratio (y) = -0.12410 0.53758
# Poissons Ratio (z) = 0.38482 0.30379
#
# Static dielectric constant tensor:
#      x y z
#    x 1.724090 0.000000 -0.013920 
#    y 0.000000 1.765350 0.000000 
#    z -0.013920 0.000000 1.778270 
# 
# From -- ./inp_files/42738.got.cif
#   From: 2010.05.17/outbox.cif.g08.bks.cpg/sg15_22_cif.got.tgz:42738.got - 2010.06.03 18:47:42.
