data_PCOD9280251
_publ_section_title
;
Structure prediction by ZEFSAII (Michael W. Deem and Ramdas Pophale) SiO2 
 PCOD9280251
Probable space group: C 2/C
;
_chemical_formula_sum "Si O2"
_cell_formula_units_Z 48
_cell_length_a 15.576616
_cell_length_b 11.483930
_cell_length_c 15.163067
_cell_angle_alpha 90.000000
_cell_angle_beta 96.249274
_cell_angle_gamma 90.000000
_cell_volume 2696.263333
_symmetry_space_group_name_H-M "C 2/C"
_symmetry_group_IT_number 15
_symmetry_cell_setting 'monoclinic'
loop_
_space_group_symop_operation_xyz
x,y,z
-x,y,1/2-z
-x,-y,-z
x,-y,1/2+z
1/2+x,1/2+y,z
1/2-x,1/2+y,1/2-z
1/2-x,1/2-y,-z
1/2+x,1/2-y,1/2+z
loop_
_atom_site_type_symbol
_atom_site_label
_atom_site_fract_x
_atom_site_fract_y
_atom_site_fract_z
Si Si1 0.839215 0.314837 0.533272
Si Si2 0.178402 0.252708 0.600237
Si Si3 0.493306 0.303501 0.512789
Si Si4 0.432022 0.493186 0.104884
Si Si5 0.597921 0.705289 0.777938
Si Si6 0.251033 0.550713 0.006853
O O1 0.750000 0.250000 0.500000
O O2 0.920051 0.272959 0.481812
O O3 0.864675 0.274833 0.634512
O O4 0.817318 0.450888 0.521991
O O5 0.151898 0.227040 0.696532
O O6 0.226860 0.373665 0.590036
O O7 0.234671 0.146168 0.567927
O O8 0.092868 0.261294 0.528518
O O9 0.505988 0.401200 0.437383
O O10 0.473853 0.379397 0.598325
O O11 0.408447 0.431160 0.193889
O O12 0.344436 0.495899 0.037602
O O13 0.500000 0.744815 0.750000
#
# Coordination Sequence:
#
# PCOD9280251 Si02
#       6
#     8   8   8   8   8   8
#     4  11  20  35  58  86 115 148 193 237 285 339
#     4  10  21  37  57  84 117 153 192 235 287 348
#     4   9  17  33  56  81 108 151 186 223 281 346
#     4   9  17  33  58  79 110 144 193 230 271 341
#     4  11  20  35  58  88 110 146 197 242 284 334
#     4  10  21  37  57  84 118 154 190 233 291 347
#
# _framework density 17.802416000000001
#
# number of rings (size 3 to 8) (size 9 to 14) (size 15 to 20)
#    0.000    2.000    6.667    0.000    0.000    2.000 
#    0.000    0.000    0.000    0.000    0.000    0.000 
#    0.000    0.000    0.000    0.000    0.000    0.000 
#
# Total GULP energy -133663.076826 kJ/mol
# GULP energy per Si atom -5569.294868 kJ/mol
# Density = 1.776190 g / cm^3
# Si number density = 17.802416 Si / 1000 Ang^3
#
#
#
# Elastic Constant Matrix: (Units=GPa)
#
#
# Indices 1 2 3 4 5 6 
#
# 1 78.4236 39.9280 27.9442 0.0000 -1.6443 0.0000
# 2 39.9280 89.0859 38.7779 0.0000 -5.8462 0.0000
# 3 27.9442 38.7779 87.8506 0.0000 -15.7336 0.0000
# 4 0.0000 0.0000 0.0000 19.6623 0.0000 -5.5156
# 5 -1.6443 -5.8462 -15.7336 0.0000 37.1059 0.0000
# 6 0.0000 0.0000 0.0000 -5.5156 0.0000 39.7150
#
#
#
# Elastic Compliance Matrix: (Units=1/GPa)
#
#
# Indices 1 2 3 4 5 6 
#
# 1 0.017035 -0.006509 -0.002807 0.000000 -0.001461 0.000000
# 2 -0.006509 0.016389 -0.005143 0.000000 0.000113 0.000000
# 3 -0.002807 -0.005143 0.015560 0.000000 0.005663 0.000000
# 4 0.000000 0.000000 0.000000 0.052920 0.000000 0.007350
# 5 -0.001461 0.000113 0.005663 0.000000 0.029304 0.000000
# 6 0.000000 0.000000 0.000000 0.007350 0.000000 0.026200
#
#
# Mechanical properties :
#
#
# Convention : Reuss Voigt Hill
#
# Bulk Modulus (GPa) = 49.83823 52.07338 50.95580
# Shear Modulus (GPa) = 25.90458 29.21063 27.55761
#
# Velocity S-wave (km/s) = 3.81874 4.05510 3.93869
# Velocity P-wave (km/s) = 6.89200 7.15817 7.02634
#
# Compressibility (1/GPa) = 0.02006492
#
# Stress axis : x y z
#
# Youngs Moduli (GPa) = 58.70345 61.01775 64.26533
#
# Poissons Ratio (x) = 0.39716 0.18040
# Poissons Ratio (y) = 0.38209 0.33055
# Poissons Ratio (z) = 0.16479 0.31384
#
# Static dielectric constant tensor:
#      x y z
#    x 1.619700 0.000000 -0.019460 
#    y 0.000000 1.633270 0.000000 
#    z -0.019460 0.000000 1.619070 
# 
# From -- ./inp_files/152100.got.cif
#   From: 2010.05.17/outbox.cif.g08.bks.cpg/sg15_77_cif.got.tgz:152100.got - 2010.06.03 18:47:42.
