data_PCOD9280922
_publ_section_title
;
Structure prediction by ZEFSAII (Michael W. Deem and Ramdas Pophale) SiO2 
 PCOD9280922
Probable space group: C 2/C
;
_chemical_formula_sum "Si O2"
_cell_formula_units_Z 64
_cell_length_a 23.249005
_cell_length_b 9.465458
_cell_length_c 14.223128
_cell_angle_alpha 90.000000
_cell_angle_beta 82.860036
_cell_angle_gamma 90.000000
_cell_volume 3105.705371
_symmetry_space_group_name_H-M "C 2/C"
_symmetry_group_IT_number 15
_symmetry_cell_setting 'monoclinic'
loop_
_space_group_symop_operation_xyz
x,y,z
-x,y,1/2-z
-x,-y,-z
x,-y,1/2+z
1/2+x,1/2+y,z
1/2-x,1/2+y,1/2-z
1/2-x,1/2-y,-z
1/2+x,1/2-y,1/2+z
loop_
_atom_site_type_symbol
_atom_site_label
_atom_site_fract_x
_atom_site_fract_y
_atom_site_fract_z
Si Si1 0.960741 0.125873 0.047985
Si Si2 0.164903 0.855346 0.988391
Si Si3 0.834439 0.214407 0.804530
Si Si4 0.065362 0.991273 0.744616
Si Si5 0.146739 0.473068 0.172779
Si Si6 0.459772 0.790958 0.349132
Si Si7 0.713532 0.130720 0.833742
Si Si8 0.255677 0.080341 0.002641
O O1 0.904703 0.149966 0.996249
O O2 0.000619 0.259841 0.067883
O O3 0.933648 0.076020 0.152480
O O4 0.000000 0.000000 0.000000
O O5 0.189979 0.759583 0.900926
O O6 0.194582 0.008764 0.984536
O O7 0.184015 0.788948 0.082651
O O8 0.883297 0.099473 0.777134
O O9 0.859190 0.369047 0.786464
O O10 0.773806 0.172791 0.769821
O O11 0.000000 0.053510 0.750000
O O12 0.068315 0.862531 0.669854
O O13 0.089308 0.407905 0.138485
O O14 0.166930 0.390468 0.261337
O O15 0.196587 0.463776 0.084074
O O16 0.500000 0.820663 0.250000
O O17 0.725663 0.995052 0.901018
O O18 0.250000 0.250000 0.000000
#
# Coordination Sequence:
#
# PCOD9280922 Si02
#       8
#     8   8   8   8   8   8   8   8
#     4  10  21  37  66  95 120 168 220 269 330 387
#     4  11  21  45  64  87 136 171 208 273 338 393
#     4  11  23  41  62  93 128 168 216 269 326 401
#     4   9  20  38  61  88 120 164 218 263 318 390
#     4  12  25  41  67  92 135 170 219 276 337 391
#     4   9  21  42  60  90 121 166 217 267 319 388
#     4  11  24  43  64  92 130 182 211 260 355 398
#     4  11  26  40  64 103 132 167 221 280 321 406
#
# _framework density 20.607234999999999
#
# number of rings (size 3 to 8) (size 9 to 14) (size 15 to 20)
#    0.000    1.750    2.500    3.750    8.750    0.500 
#    0.000    0.625    0.000    0.000    0.000    0.000 
#    0.000    0.000    0.000    0.000    0.000    0.000 
#
# Total GULP energy -178574.905812 kJ/mol
# GULP energy per Si atom -5580.465807 kJ/mol
# Density = 2.056033 g / cm^3
# Si number density = 20.607235 Si / 1000 Ang^3
#
#
#
# Elastic Constant Matrix: (Units=GPa)
#
#
# Indices 1 2 3 4 5 6 
#
# 1 82.1511 31.0390 -3.4015 0.0000 6.6120 0.0000
# 2 31.0390 92.9243 -1.9548 0.0000 -0.9303 0.0000
# 3 -3.4015 -1.9548 32.1766 0.0000 8.1404 0.0000
# 4 0.0000 0.0000 0.0000 13.0471 0.0000 -9.2944
# 5 6.6120 -0.9303 8.1404 0.0000 23.8032 0.0000
# 6 0.0000 0.0000 0.0000 -9.2944 0.0000 36.4958
#
#
#
# Elastic Compliance Matrix: (Units=1/GPa)
#
#
# Indices 1 2 3 4 5 6 
#
# 1 0.014518 -0.004847 0.002527 0.000000 -0.005086 0.000000
# 2 -0.004847 0.012395 -0.000244 0.000000 0.001914 0.000000
# 3 0.002527 -0.000244 0.034495 0.000000 -0.012508 0.000000
# 4 0.000000 0.000000 0.000000 0.093632 0.000000 0.023845
# 5 -0.005086 0.001914 -0.012508 0.000000 0.047777 0.000000
# 6 0.000000 0.000000 0.000000 0.023845 0.000000 0.033473
#
#
# Mechanical properties :
#
#
# Convention : Reuss Voigt Hill
#
# Bulk Modulus (GPa) = 17.76813 28.73528 23.25170
# Shear Modulus (GPa) = 19.21765 26.77385 22.99575
#
# Velocity S-wave (km/s) = 3.05711 3.60841 3.34414
# Velocity P-wave (km/s) = 4.59372 5.59780 5.12043
#
# Compressibility (1/GPa) = 0.05628055
#
# Stress axis : x y z
#
# Youngs Moduli (GPa) = 68.87944 80.68059 28.98943
#
# Poissons Ratio (x) = 0.39107 -0.07326
# Poissons Ratio (y) = 0.33387 0.00706
# Poissons Ratio (z) = -0.17407 0.01966
#
# Static dielectric constant tensor:
#      x y z
#    x 1.816240 0.000000 0.062250 
#    y 0.000000 1.769990 0.000000 
#    z 0.062250 0.000000 1.764890 
# 
# From -- ./inp_files/172397.got.cif
#   From: 2010.05.17/outbox.cif.g08.bks.cpg/sg15_87_cif.got.tgz:172397.got - 2010.06.03 18:47:42.
