data_PCOD9280960
_publ_section_title
;
Structure prediction by ZEFSAII (Michael W. Deem and Ramdas Pophale) SiO2 
 PCOD9280960
Probable space group: C 2/C
;
_chemical_formula_sum "Si O2"
_cell_formula_units_Z 48
_cell_length_a 13.166148
_cell_length_b 29.134211
_cell_length_c 8.708589
_cell_angle_alpha 90.000000
_cell_angle_beta 136.853755
_cell_angle_gamma 90.000000
_cell_volume 2284.435091
_symmetry_space_group_name_H-M "C 2/C"
_symmetry_group_IT_number 15
_symmetry_cell_setting 'monoclinic'
loop_
_space_group_symop_operation_xyz
x,y,z
-x,y,1/2-z
-x,-y,-z
x,-y,1/2+z
1/2+x,1/2+y,z
1/2-x,1/2+y,1/2-z
1/2-x,1/2-y,-z
1/2+x,1/2-y,1/2+z
loop_
_atom_site_type_symbol
_atom_site_label
_atom_site_fract_x
_atom_site_fract_y
_atom_site_fract_z
Si Si1 0.148918 0.364743 0.996578
Si Si2 0.184346 0.944675 0.134265
Si Si3 0.676544 0.541040 0.275086
Si Si4 0.277777 0.767750 0.357848
Si Si5 0.030366 0.804989 0.603851
Si Si6 0.871266 0.886710 0.995634
O O1 0.268802 0.357279 0.994061
O O2 0.000000 0.382232 0.750000
O O3 0.231056 0.401049 0.199419
O O4 0.121775 0.314095 0.035449
O O5 0.218107 0.989765 0.272384
O O6 0.227730 0.948896 0.003451
O O7 0.002614 0.948286 0.930124
O O8 0.727371 0.575144 0.196719
O O9 0.250000 0.750000 0.500000
O O10 0.342332 0.729547 0.314303
O O11 0.119069 0.784192 0.127055
O O12 0.061508 0.853506 0.557982
O O13 0.000000 0.810568 0.750000
O O14 0.000000 0.906647 0.250000
#
# Coordination Sequence:
#
# PCOD9280960 Si02
#       6
#     8   8   8   8   8   8
#     4  12  25  43  67  98 136 177 227 276 339 407
#     4  10  21  39  63 100 131 171 218 281 334 394
#     4  10  21  37  69  96 130 167 227 280 329 396
#     4  12  23  45  68  97 131 183 225 272 336 401
#     4  12  26  42  67 103 139 172 224 285 338 396
#     4  12  22  41  68  98 128 178 229 271 331 402
#
# _framework density 21.011759000000001
#
# number of rings (size 3 to 8) (size 9 to 14) (size 15 to 20)
#    0.000    0.667    5.000    3.000    7.000    0.000 
#    0.000    4.167    0.000    0.000    0.000    0.000 
#    0.000    0.000    0.000    0.000    0.000    0.000 
#
# Total GULP energy -133992.577718 kJ/mol
# GULP energy per Si atom -5583.024072 kJ/mol
# Density = 2.096394 g / cm^3
# Si number density = 21.011759 Si / 1000 Ang^3
#
#
#
# Elastic Constant Matrix: (Units=GPa)
#
#
# Indices 1 2 3 4 5 6 
#
# 1 71.3866 31.8123 31.8409 0.0000 -35.3609 0.0000
# 2 31.8123 137.4463 43.8023 0.0000 -30.8431 0.0000
# 3 31.8409 43.8023 94.4066 0.0000 -25.4290 0.0000
# 4 0.0000 0.0000 0.0000 23.9512 0.0000 -5.5348
# 5 -35.3609 -30.8431 -25.4290 0.0000 42.0919 0.0000
# 6 0.0000 0.0000 0.0000 -5.5348 0.0000 24.3936
#
#
#
# Elastic Compliance Matrix: (Units=1/GPa)
#
#
# Indices 1 2 3 4 5 6 
#
# 1 0.024857 -0.000597 -0.003105 0.000000 0.018569 0.000000
# 2 -0.000597 0.009375 -0.002906 0.000000 0.004613 0.000000
# 3 -0.003105 -0.002906 0.013988 0.000000 0.003713 0.000000
# 4 0.000000 0.000000 0.000000 0.044062 0.000000 0.009997
# 5 0.018569 0.004613 0.003713 0.000000 0.044980 0.000000
# 6 0.000000 0.000000 0.000000 0.009997 0.000000 0.043263
#
#
# Mechanical properties :
#
#
# Convention : Reuss Voigt Hill
#
# Bulk Modulus (GPa) = 28.56779 57.57227 43.07003
# Shear Modulus (GPa) = 24.34170 31.13961 27.74066
#
# Velocity S-wave (km/s) = 3.40734 3.85386 3.63746
# Velocity P-wave (km/s) = 5.39496 6.87477 6.17932
#
# Compressibility (1/GPa) = 0.03500446
#
# Stress axis : x y z
#
# Youngs Moduli (GPa) = 40.22966 106.66828 71.48931
#
# Poissons Ratio (x) = 0.06366 0.22198
# Poissons Ratio (y) = 0.02401 0.20775
# Poissons Ratio (z) = 0.12492 0.30998
#
# Static dielectric constant tensor:
#      x y z
#    x 1.731930 0.000000 0.033110 
#    y 0.000000 1.833580 0.000000 
#    z 0.033110 0.000000 1.735730 
# 
# From -- ./inp_files/43957.got.cif
#   From: 2010.05.17/outbox.cif.g08.bks.cpg/sg15_22_cif.got.tgz:43957.got - 2010.06.03 18:47:42.
