data_PCOD9280111
_publ_section_title
;
Structure prediction by ZEFSAII (Michael W. Deem and Ramdas Pophale) SiO2 
 PCOD9280111
Probable space group: C 2/C
;
_chemical_formula_sum "Si O2"
_cell_formula_units_Z 48
_cell_length_a 11.736224
_cell_length_b 26.949401
_cell_length_c 11.075002
_cell_angle_alpha 90.000000
_cell_angle_beta 134.201243
_cell_angle_gamma 90.000000
_cell_volume 2511.176068
_symmetry_space_group_name_H-M "C 2/C"
_symmetry_group_IT_number 15
_symmetry_cell_setting 'monoclinic'
loop_
_space_group_symop_operation_xyz
x,y,z
-x,y,1/2-z
-x,-y,-z
x,-y,1/2+z
1/2+x,1/2+y,z
1/2-x,1/2+y,1/2-z
1/2-x,1/2-y,-z
1/2+x,1/2-y,1/2+z
loop_
_atom_site_type_symbol
_atom_site_label
_atom_site_fract_x
_atom_site_fract_y
_atom_site_fract_z
Si Si1 0.077178 0.292030 0.997872
Si Si2 0.183256 0.918310 0.530680
Si Si3 0.858709 0.538546 0.369921
Si Si4 0.256745 0.307089 0.882025
Si Si5 0.554664 0.883803 0.154027
Si Si6 0.826504 0.947188 0.248154
O O1 0.201346 0.302934 0.981152
O O2 0.901770 0.297905 0.812691
O O3 0.116280 0.235036 0.057650
O O4 0.093585 0.332239 0.115627
O O5 0.319960 0.947530 0.703388
O O6 0.182797 0.862917 0.582663
O O7 0.209377 0.920434 0.406402
O O8 0.008085 0.940352 0.418452
O O9 0.709165 0.505313 0.298673
O O10 0.000000 0.500000 0.500000
O O11 0.911542 0.587827 0.478140
O O12 0.500000 0.876488 0.250000
O O13 0.706189 0.920827 0.252647
#
# Coordination Sequence:
#
# PCOD9280111 Si02
#       6
#     8   8   8   8   8   8
#     4  10  21  38  61  96 119 157 205 263 315 368
#     4  11  21  41  65  94 125 159 210 269 316 361
#     4  10  23  38  62  90 125 172 210 254 306 371
#     4  10  21  36  68  91 123 150 206 268 319 360
#     4  11  23  41  61  89 128 169 210 246 310 382
#     4  10  24  37  64  93 128 162 209 261 313 368
#
# _framework density 19.114550000000001
#
# number of rings (size 3 to 8) (size 9 to 14) (size 15 to 20)
#    0.000    1.667    3.333    0.500    7.000    3.333 
#    0.000    0.833    0.000    0.000    0.000    0.000 
#    0.000    0.000    0.000    0.000    0.000    0.000 
#
# Total GULP energy -133842.195028 kJ/mol
# GULP energy per Si atom -5576.758126 kJ/mol
# Density = 1.907104 g / cm^3
# Si number density = 19.114550 Si / 1000 Ang^3
#
#
#
# Elastic Constant Matrix: (Units=GPa)
#
#
# Indices 1 2 3 4 5 6 
#
# 1 71.4387 19.1349 29.8820 0.0000 -1.8219 0.0000
# 2 19.1349 100.9834 31.6133 0.0000 10.3532 0.0000
# 3 29.8820 31.6133 94.0117 0.0000 -3.2913 0.0000
# 4 0.0000 0.0000 0.0000 31.8488 0.0000 4.7863
# 5 -1.8219 10.3532 -3.2913 0.0000 21.5127 0.0000
# 6 0.0000 0.0000 0.0000 4.7863 0.0000 28.2722
#
#
#
# Elastic Compliance Matrix: (Units=1/GPa)
#
#
# Indices 1 2 3 4 5 6 
#
# 1 0.016436 -0.001855 -0.004545 0.000000 0.001589 0.000000
# 2 -0.001855 0.012084 -0.003703 0.000000 -0.006539 0.000000
# 3 -0.004545 -0.003703 0.013448 0.000000 0.003455 0.000000
# 4 0.000000 0.000000 0.000000 0.032218 0.000000 -0.005454
# 5 0.001589 -0.006539 0.003455 0.000000 0.050294 0.000000
# 6 0.000000 0.000000 0.000000 -0.005454 0.000000 0.036294
#
#
# Mechanical properties :
#
#
# Convention : Reuss Voigt Hill
#
# Bulk Modulus (GPa) = 45.94983 47.52159 46.73571
# Shear Modulus (GPa) = 26.56281 28.71364 27.63823
#
# Velocity S-wave (km/s) = 3.73186 3.88001 3.80666
# Velocity P-wave (km/s) = 6.53150 6.70732 6.61999
#
# Compressibility (1/GPa) = 0.02176287
#
# Stress axis : x y z
#
# Youngs Moduli (GPa) = 60.84040 82.75685 74.36189
#
# Poissons Ratio (x) = 0.15347 0.33798
# Poissons Ratio (y) = 0.11283 0.27535
# Poissons Ratio (z) = 0.27653 0.30643
#
# Static dielectric constant tensor:
#      x y z
#    x 1.668130 0.000000 0.012940 
#    y 0.000000 1.702190 0.000000 
#    z 0.012940 0.000000 1.686610 
# 
# From -- ./inp_files/90964.got.cif
#   From: 2010.05.17/outbox.cif.g08.bks.cpg/sg15_46_cif.got.tgz:90964.got - 2010.06.03 18:47:42.
