data_PCOD9280387
_publ_section_title
;
Structure prediction by ZEFSAII (Michael W. Deem and Ramdas Pophale) SiO2 
 PCOD9280387
Probable space group: C 2/C
;
_chemical_formula_sum "Si O2"
_cell_formula_units_Z 40
_cell_length_a 8.240992
_cell_length_b 24.621229
_cell_length_c 16.368151
_cell_angle_alpha 90.000000
_cell_angle_beta 151.905153
_cell_angle_gamma 90.000000
_cell_volume 1564.038885
_symmetry_space_group_name_H-M "C 2/C"
_symmetry_group_IT_number 15
_symmetry_cell_setting 'monoclinic'
loop_
_space_group_symop_operation_xyz
x,y,z
-x,y,1/2-z
-x,-y,-z
x,-y,1/2+z
1/2+x,1/2+y,z
1/2-x,1/2+y,1/2-z
1/2-x,1/2-y,-z
1/2+x,1/2-y,1/2+z
loop_
_atom_site_type_symbol
_atom_site_label
_atom_site_fract_x
_atom_site_fract_y
_atom_site_fract_z
Si Si1 0.800096 0.310032 0.060710
Si Si2 0.257920 0.381222 0.724709
Si Si3 0.961316 0.012957 0.135696
Si Si4 0.245743 0.799905 0.558624
Si Si5 0.129126 0.583549 0.714065
O O1 0.103909 0.353589 0.173394
O O2 0.750000 0.250000 0.000000
O O3 0.492109 0.346574 0.888445
O O4 0.648207 0.303189 0.084642
O O5 0.500000 0.380620 0.750000
O O6 0.244568 0.442279 0.752006
O O7 0.897261 0.350337 0.573614
O O8 0.000000 0.006075 0.250000
O O9 0.626538 0.045774 0.955260
O O10 0.030695 0.953381 0.132745
O O11 0.500000 0.789699 0.750000
O O12 0.250000 0.750000 0.500000
O O13 0.000000 0.585147 0.750000
#
# Coordination Sequence:
#
# PCOD9280387 Si02
#       5
#     8   8   8   8   8
#     4  10  22  40  60  89 127 167 213 268 327 389
#     4   9  19  37  61  85 119 166 209 259 321 384
#     4  10  22  43  67  94 132 178 223 269 331 401
#     4  10  21  37  59  87 120 164 214 265 326 389
#     4  11  24  41  66  99 134 173 219 277 333 395
#
# _framework density 25.574811
#
# number of rings (size 3 to 8) (size 9 to 14) (size 15 to 20)
#    0.000    2.000    0.000    2.400    0.000    9.600 
#    0.000    5.000    0.000    0.000    0.000    0.000 
#    0.000    0.000    0.000    0.000    0.000    0.000 
#
# Total GULP energy -111347.952712 kJ/mol
# GULP energy per Si atom -5567.397636 kJ/mol
# Density = 2.551660 g / cm^3
# Si number density = 25.574811 Si / 1000 Ang^3
#
#
#
# Elastic Constant Matrix: (Units=GPa)
#
#
# Indices 1 2 3 4 5 6 
#
# 1 70.6508 40.6545 8.7634 -0.0004 2.1096 -0.0002
# 2 40.6545 260.8828 37.5693 -0.0003 20.4342 0.0000
# 3 8.7634 37.5693 77.6371 -0.0013 18.7189 -0.0040
# 4 -0.0004 -0.0003 -0.0013 41.2042 -0.0006 -22.3108
# 5 2.1096 20.4342 18.7189 -0.0006 41.2701 -0.0010
# 6 -0.0002 0.0000 -0.0040 -22.3108 -0.0010 26.8053
#
#
#
# Elastic Compliance Matrix: (Units=1/GPa)
#
#
# Indices 1 2 3 4 5 6 
#
# 1 0.015596 -0.002375 -0.000789 0.000000 0.000736 0.000000
# 2 -0.002375 0.004542 -0.001591 0.000000 -0.001406 -0.000001
# 3 -0.000789 -0.001591 0.015202 0.000003 -0.006067 0.000004
# 4 0.000000 0.000000 0.000003 0.044181 0.000001 0.036773
# 5 0.000736 -0.001406 -0.006067 0.000001 0.027641 0.000001
# 6 0.000000 -0.000001 0.000004 0.036773 0.000001 0.067913
#
#
# Mechanical properties :
#
#
# Convention : Reuss Voigt Hill
#
# Bulk Modulus (GPa) = 38.71171 64.79392 51.75281
# Shear Modulus (GPa) = 25.88049 43.33483 34.60766
#
# Velocity S-wave (km/s) = 3.18457 4.12082 3.68257
# Velocity P-wave (km/s) = 5.35645 6.93048 6.19367
#
# Compressibility (1/GPa) = 0.02583197
#
# Stress axis : x y z
#
# Youngs Moduli (GPa) = 64.11757 220.14647 65.77968
#
# Poissons Ratio (x) = 0.52274 0.05190
# Poissons Ratio (y) = 0.15225 0.10466
# Poissons Ratio (z) = 0.05059 0.35027
#
# Static dielectric constant tensor:
#      x y z
#    x 2.116550 0.000000 0.069570 
#    y 0.000000 2.050170 0.000000 
#    z 0.069570 0.000000 2.232590 
# 
# From -- ./inp_files/193458.got.cif
#   From: 2010.05.17/outbox.cif.g08.bks.cpg/sg15_97_cif.got.tgz:193458.got - 2010.06.03 18:47:42.
