data_PCOD9280112
_publ_section_title
;
Structure prediction by ZEFSAII (Michael W. Deem and Ramdas Pophale) SiO2 
 PCOD9280112
Probable space group: C 2/C
;
_chemical_formula_sum "Si O2"
_cell_formula_units_Z 48
_cell_length_a 13.828115
_cell_length_b 28.390725
_cell_length_c 10.099650
_cell_angle_alpha 90.000000
_cell_angle_beta 34.313673
_cell_angle_gamma 90.000000
_cell_volume 2235.175747
_symmetry_space_group_name_H-M "C 2/C"
_symmetry_group_IT_number 15
_symmetry_cell_setting 'monoclinic'
loop_
_space_group_symop_operation_xyz
x,y,z
-x,y,1/2-z
-x,-y,-z
x,-y,1/2+z
1/2+x,1/2+y,z
1/2-x,1/2+y,1/2-z
1/2-x,1/2-y,-z
1/2+x,1/2-y,1/2+z
loop_
_atom_site_type_symbol
_atom_site_label
_atom_site_fract_x
_atom_site_fract_y
_atom_site_fract_z
Si Si1 0.707187 0.289538 0.236289
Si Si2 0.164310 0.967871 0.780755
Si Si3 0.689954 0.039118 0.087983
Si Si4 0.500000 0.757846 0.750000
Si Si5 0.050818 0.136860 0.410725
Si Si6 0.500000 0.392010 0.250000
Si Si7 0.324020 0.788876 0.513607
O O1 0.616740 0.277850 0.200476
O O2 0.630739 0.335455 0.394940
O O3 0.664056 0.243035 0.369351
O O4 0.902542 0.289746 0.968422
O O5 0.280355 0.965485 0.785375
O O6 0.087225 0.916769 0.829950
O O7 0.263709 0.991700 0.546058
O O8 0.000000 0.000000 0.000000
O O9 0.500000 0.053146 0.250000
O O10 0.841650 0.075899 0.877763
O O11 0.190440 0.169862 0.186301
O O12 0.075531 0.135418 0.541107
O O13 0.250000 0.750000 0.500000
O O14 0.500000 0.805919 0.250000
#
# Coordination Sequence:
#
# PCOD9280112 Si02
#       7
#     8   8   8   4   8   4   8
#     4  11  21  41  62  96 128 175 223 288 349 405
#     4  11  22  47  70 106 146 191 233 300 366 438
#     4  11  22  44  76 103 147 188 236 304 359 426
#     4  10  21  36  68  92 122 158 230 288 339 402
#     4  11  23  41  73  92 140 192 225 287 371 412
#     4  10  23  46  68 108 148 174 238 298 369 422
#     4  12  24  44  63  93 141 183 231 286 337 422
#
# _framework density 21.474820999999999
#
# number of rings (size 3 to 8) (size 9 to 14) (size 15 to 20)
#    0.000    1.000    6.667    1.000    2.333    0.667 
#    7.500    1.667    0.000    0.000    0.000    0.000 
#    0.000    0.000    0.000    0.000    0.000    0.000 
#
# Total GULP energy -133793.847550 kJ/mol
# GULP energy per Si atom -5574.743648 kJ/mol
# Density = 2.142594 g / cm^3
# Si number density = 21.474821 Si / 1000 Ang^3
#
#
#
# Elastic Constant Matrix: (Units=GPa)
#
#
# Indices 1 2 3 4 5 6 
#
# 1 70.2657 11.3705 12.4718 0.0000 -12.4654 0.0000
# 2 11.3705 133.9577 59.0857 0.0000 -3.8257 0.0000
# 3 12.4718 59.0857 141.6615 0.0000 -5.5946 0.0000
# 4 0.0000 0.0000 0.0000 32.2454 0.0000 12.0157
# 5 -12.4654 -3.8257 -5.5946 0.0000 36.5740 0.0000
# 6 0.0000 0.0000 0.0000 12.0157 0.0000 26.3061
#
#
#
# Elastic Compliance Matrix: (Units=1/GPa)
#
#
# Indices 1 2 3 4 5 6 
#
# 1 0.015401 -0.000800 -0.000823 0.000000 0.005040 0.000000
# 2 -0.000800 0.009195 -0.003760 0.000000 0.000114 0.000000
# 3 -0.000823 -0.003760 0.008726 0.000000 0.000661 0.000000
# 4 0.000000 0.000000 0.000000 0.037373 0.000000 -0.017071
# 5 0.005040 0.000114 0.000661 0.000000 0.029172 0.000000
# 6 0.000000 0.000000 0.000000 -0.017071 0.000000 0.045811
#
#
# Mechanical properties :
#
#
# Convention : Reuss Voigt Hill
#
# Bulk Modulus (GPa) = 44.33603 56.86009 50.59806
# Shear Modulus (GPa) = 30.49446 36.55557 33.52501
#
# Velocity S-wave (km/s) = 3.77239 4.13031 3.95540
# Velocity P-wave (km/s) = 6.29801 7.02004 6.66881
#
# Compressibility (1/GPa) = 0.02255502
#
# Stress axis : x y z
#
# Youngs Moduli (GPa) = 64.92942 108.75821 114.60088
#
# Poissons Ratio (x) = 0.08704 0.09433
# Poissons Ratio (y) = 0.05196 0.43091
# Poissons Ratio (z) = 0.05344 0.40894
#
# Static dielectric constant tensor:
#      x y z
#    x 2.123120 0.000000 0.393830 
#    y 0.000000 1.809160 0.000000 
#    z 0.393830 0.000000 2.369960 
# 
# From -- ./inp_files/101277.got.cif
#   From: 2010.05.17/outbox.cif.g08.bks.cpg/sg15_51_cif.got.tgz:101277.got - 2010.06.03 18:47:42.
