data_PCOD9280691
_publ_section_title
;
Structure prediction by ZEFSAII (Michael W. Deem and Ramdas Pophale) SiO2 
 PCOD9280691
Probable space group: C 2/C
;
_chemical_formula_sum "Si O2"
_cell_formula_units_Z 48
_cell_length_a 4.971560
_cell_length_b 13.033309
_cell_length_c 26.810222
_cell_angle_alpha 90.000000
_cell_angle_beta 86.984113
_cell_angle_gamma 90.000000
_cell_volume 1734.785828
_symmetry_space_group_name_H-M "C 2/C"
_symmetry_group_IT_number 15
_symmetry_cell_setting 'monoclinic'
loop_
_space_group_symop_operation_xyz
x,y,z
-x,y,1/2-z
-x,-y,-z
x,-y,1/2+z
1/2+x,1/2+y,z
1/2-x,1/2+y,1/2-z
1/2-x,1/2-y,-z
1/2+x,1/2-y,1/2+z
loop_
_atom_site_type_symbol
_atom_site_label
_atom_site_fract_x
_atom_site_fract_y
_atom_site_fract_z
Si Si1 0.779324 0.323076 0.380354
Si Si2 0.068928 0.002787 0.127392
Si Si3 0.180569 0.594329 0.957071
Si Si4 0.054393 0.704480 0.459723
Si Si5 0.233340 0.223577 0.778113
Si Si6 0.456145 0.930731 0.807837
O O1 0.507045 0.382797 0.369594
O O2 0.722313 0.212988 0.406573
O O3 0.890709 0.323283 0.323948
O O4 0.938027 0.388489 0.420072
O O5 0.821716 0.057964 0.158377
O O6 0.141083 0.999411 0.066801
O O7 0.323123 0.023017 0.158260
O O8 0.336810 0.704700 0.954401
O O9 0.075466 0.602136 0.015482
O O10 0.250000 0.750000 0.500000
O O11 0.500000 0.270952 0.750000
O O12 0.040339 0.312480 0.800977
O O13 0.000000 0.160734 0.750000
O O14 0.500000 0.972007 0.750000
#
# Coordination Sequence:
#
# PCOD9280691 Si02
#       6
#     8   8   8   8   8   8
#     4  10  21  37  62  94 121 155 200 255 301 348
#     4  11  21  37  62  88 117 151 203 255 292 352
#     4   9  17  34  57  96 120 151 192 250 303 356
#     4   8  16  31  58  89 124 154 187 239 304 373
#     4  11  26  43  60  84 123 166 207 249 304 366
#     4  11  23  42  58  79 116 168 207 242 303 367
#
# _framework density 27.669119999999999
#
# number of rings (size 3 to 8) (size 9 to 14) (size 15 to 20)
#    0.000    2.000    1.667    2.500    4.667    2.000 
#    0.000    0.000    0.000    2.000    0.000    0.000 
#    0.000    0.000    0.000    0.000    0.000    0.000 
#
# Total GULP energy -133679.517671 kJ/mol
# GULP energy per Si atom -5569.979903 kJ/mol
# Density = 2.760614 g / cm^3
# Si number density = 27.669120 Si / 1000 Ang^3
#
#
#
# Elastic Constant Matrix: (Units=GPa)
#
#
# Indices 1 2 3 4 5 6 
#
# 1 164.7942 13.0087 59.6330 0.0000 -5.9461 0.0000
# 2 13.0087 38.9242 6.3343 0.0000 -0.0531 0.0000
# 3 59.6330 6.3343 118.6273 0.0000 -1.3751 0.0000
# 4 0.0000 0.0000 0.0000 50.8669 0.0000 -2.7685
# 5 -5.9461 -0.0531 -1.3751 0.0000 61.3112 0.0000
# 6 0.0000 0.0000 0.0000 -2.7685 0.0000 35.4047
#
#
#
# Elastic Compliance Matrix: (Units=1/GPa)
#
#
# Indices 1 2 3 4 5 6 
#
# 1 0.007584 -0.001931 -0.003702 0.000000 0.000651 0.000000
# 2 -0.001931 0.026408 -0.000441 0.000000 -0.000174 0.000000
# 3 -0.003702 -0.000441 0.010313 0.000000 -0.000128 0.000000
# 4 0.000000 0.000000 0.000000 0.019743 0.000000 0.001544
# 5 0.000651 -0.000174 -0.000128 0.000000 0.016370 0.000000
# 6 0.000000 0.000000 0.000000 0.001544 0.000000 0.028366
#
#
# Mechanical properties :
#
#
# Convention : Reuss Voigt Hill
#
# Bulk Modulus (GPa) = 31.09843 53.36641 42.23242
# Shear Modulus (GPa) = 37.97951 45.74120 41.86035
#
# Velocity S-wave (km/s) = 3.70892 4.07031 3.89381
# Velocity P-wave (km/s) = 5.44107 6.43577 5.95921
#
# Compressibility (1/GPa) = 0.03215596
#
# Stress axis : x y z
#
# Youngs Moduli (GPa) = 131.86432 37.86738 96.96895
#
# Poissons Ratio (x) = 0.07313 0.35893
# Poissons Ratio (y) = 0.25466 0.04280
# Poissons Ratio (z) = 0.48810 0.01671
#
# Static dielectric constant tensor:
#      x y z
#    x 2.321760 0.000000 -0.270070 
#    y 0.000000 2.290620 0.000000 
#    z -0.270070 0.000000 2.747580 
# 
# From -- ./inp_files/261025.got.cif
#   From: 2010.05.17/outbox.cif.g08.bks.cpg/sg15_131_cif.got.tgz:261025.got - 2010.06.03 18:47:42.
