data_PCOD9280747
_publ_section_title
;
Structure prediction by ZEFSAII (Michael W. Deem and Ramdas Pophale) SiO2 
 PCOD9280747
Probable space group: C 2/C
;
_chemical_formula_sum "Si O2"
_cell_formula_units_Z 60
_cell_length_a 13.011183
_cell_length_b 19.649844
_cell_length_c 21.242894
_cell_angle_alpha 90.000000
_cell_angle_beta 35.985384
_cell_angle_gamma 90.000000
_cell_volume 3191.212561
_symmetry_space_group_name_H-M "C 2/C"
_symmetry_group_IT_number 15
_symmetry_cell_setting 'monoclinic'
loop_
_space_group_symop_operation_xyz
x,y,z
-x,y,1/2-z
-x,-y,-z
x,-y,1/2+z
1/2+x,1/2+y,z
1/2-x,1/2+y,1/2-z
1/2-x,1/2-y,-z
1/2+x,1/2-y,1/2+z
loop_
_atom_site_type_symbol
_atom_site_label
_atom_site_fract_x
_atom_site_fract_y
_atom_site_fract_z
Si Si1 0.836393 0.809355 0.999901
Si Si2 0.734922 0.002974 0.679138
Si Si3 0.230217 0.762665 0.798644
Si Si4 0.512489 0.123478 0.317489
Si Si5 0.289760 0.347520 0.164325
Si Si6 0.000000 0.813733 0.250000
Si Si7 0.636896 0.390464 0.059913
Si Si8 0.376837 0.536073 0.472095
O O1 0.832582 0.886898 0.974285
O O2 0.037673 0.787670 0.909548
O O3 0.750000 0.750000 0.000000
O O4 0.762668 0.820288 0.107183
O O5 0.701617 0.079253 0.719391
O O6 0.764877 0.014524 0.589545
O O7 0.587570 0.952583 0.776522
O O8 0.918954 0.969444 0.609230
O O9 0.347675 0.826836 0.720416
O O10 0.226606 0.707715 0.744960
O O11 0.337044 0.728465 0.802843
O O12 0.500000 0.141963 0.250000
O O13 0.326946 0.131472 0.442331
O O14 0.493756 0.367160 0.078174
O O15 0.926392 0.856942 0.344539
O O16 0.643691 0.472185 0.063796
#
# Coordination Sequence:
#
# PCOD9280747 Si02
#       8
#     8   8   8   8   8   4   8   8
#     4  11  23  39  61  85 123 165 208 248 302 364
#     4   9  17  34  59  85 115 149 202 254 305 348
#     4  11  23  38  59  90 124 158 203 250 312 368
#     4  12  20  32  61 100 118 144 201 266 313 356
#     4   9  22  40  60  83 124 165 197 250 306 364
#     4  10  24  40  60  88 128 168 192 248 316 382
#     4  10  21  37  63  91 121 158 201 251 316 368
#     4   9  17  36  59  82 114 157 199 252 302 353
#
# _framework density 18.801631
#
# number of rings (size 3 to 8) (size 9 to 14) (size 15 to 20)
#    0.000    1.867    3.333    1.600    1.867    2.667 
#    0.000    1.333    0.000    8.000    0.000    0.000 
#    0.000    0.000    0.000    0.000    0.000    0.000 
#
# Total GULP energy -167290.727195 kJ/mol
# GULP energy per Si atom -5576.357573 kJ/mol
# Density = 1.875884 g / cm^3
# Si number density = 18.801631 Si / 1000 Ang^3
#
#
#
# Elastic Constant Matrix: (Units=GPa)
#
#
# Indices 1 2 3 4 5 6 
#
# 1 51.6675 37.0756 8.7483 0.0009 10.6804 -0.0004
# 2 37.0756 140.8767 23.6531 0.0037 13.9453 -0.0015
# 3 8.7483 23.6531 53.4131 0.0032 3.1725 -0.0023
# 4 0.0009 0.0037 0.0032 45.3948 -0.0023 4.6875
# 5 10.6804 13.9453 3.1725 -0.0023 14.6502 0.0006
# 6 -0.0004 -0.0015 -0.0023 4.6875 0.0006 35.3118
#
#
#
# Elastic Compliance Matrix: (Units=1/GPa)
#
#
# Indices 1 2 3 4 5 6 
#
# 1 0.026234 -0.005353 -0.001107 -0.000001 -0.013790 0.000000
# 2 -0.005353 0.009459 -0.003048 -0.000001 -0.004441 0.000000
# 3 -0.001107 -0.003048 0.020294 -0.000001 -0.000686 0.000001
# 4 -0.000001 -0.000001 -0.000001 0.022335 0.000005 -0.002965
# 5 -0.013790 -0.004441 -0.000686 0.000005 0.082687 -0.000002
# 6 0.000000 0.000000 0.000001 -0.002965 -0.000002 0.028713
#
#
# Mechanical properties :
#
#
# Convention : Reuss Voigt Hill
#
# Bulk Modulus (GPa) = 27.04927 42.76793 34.90860
# Shear Modulus (GPa) = 22.61815 30.83671 26.72743
#
# Velocity S-wave (km/s) = 3.47218 4.05422 3.77443
# Velocity P-wave (km/s) = 5.52201 6.68669 6.13207
#
# Compressibility (1/GPa) = 0.03696957
#
# Stress axis : x y z
#
# Youngs Moduli (GPa) = 38.11864 105.72369 49.27597
#
# Poissons Ratio (x) = 0.56597 0.05455
# Poissons Ratio (y) = 0.20406 0.15020
# Poissons Ratio (z) = 0.04220 0.32225
#
# Static dielectric constant tensor:
#      x y z
#    x 1.682410 0.000000 -0.040650 
#    y 0.000000 1.699540 0.000000 
#    z -0.040650 0.000000 1.609610 
# 
# From -- ./inp_files/239934.got.cif
#   From: 2010.05.17/outbox.cif.g08.bks.cpg/sg15_120_cif.got.tgz:239934.got - 2010.06.03 18:47:42.
