data_PCOD9280345
_publ_section_title
;
Structure prediction by ZEFSAII (Michael W. Deem and Ramdas Pophale) SiO2 
 PCOD9280345
Probable space group: C 2/C
;
_chemical_formula_sum "Si O2"
_cell_formula_units_Z 56
_cell_length_a 17.363743
_cell_length_b 8.441354
_cell_length_c 21.495076
_cell_angle_alpha 90.000000
_cell_angle_beta 60.470559
_cell_angle_gamma 90.000000
_cell_volume 2741.352545
_symmetry_space_group_name_H-M "C 2/C"
_symmetry_group_IT_number 15
_symmetry_cell_setting 'monoclinic'
loop_
_space_group_symop_operation_xyz
x,y,z
-x,y,1/2-z
-x,-y,-z
x,-y,1/2+z
1/2+x,1/2+y,z
1/2-x,1/2+y,1/2-z
1/2-x,1/2-y,-z
1/2+x,1/2-y,1/2+z
loop_
_atom_site_type_symbol
_atom_site_label
_atom_site_fract_x
_atom_site_fract_y
_atom_site_fract_z
Si Si1 0.560817 0.927396 0.420184
Si Si2 0.151869 0.935804 0.426323
Si Si3 0.032489 0.516345 0.167241
Si Si4 0.790291 0.401858 0.950909
Si Si5 0.008451 0.062402 0.419206
Si Si6 0.578027 0.346886 0.669949
Si Si7 0.221081 0.582802 0.417494
O O1 0.537464 0.742485 0.423732
O O2 0.500000 0.000000 0.500000
O O3 0.538145 0.000177 0.361035
O O4 0.660633 0.962158 0.402247
O O5 0.177796 0.755195 0.426075
O O6 0.071739 0.986426 0.503665
O O7 0.233918 0.042384 0.413818
O O8 0.099297 0.962846 0.383355
O O9 0.109945 0.627037 0.110555
O O10 0.078259 0.341776 0.154976
O O11 0.000000 0.555991 0.250000
O O12 0.750000 0.250000 0.000000
O O13 0.785391 0.535387 0.007110
O O14 0.959010 0.062533 0.374211
O O15 0.500000 0.366119 0.750000
O O16 0.677091 0.404226 0.644032
#
# Coordination Sequence:
#
# PCOD9280345 Si02
#       7
#     8   8   8   8   8   8   8
#     4  11  20  36  65  95 127 163 214 268 318 384
#     4  11  21  35  64  91 123 158 213 268 314 378
#     4  10  22  41  65  92 133 174 209 263 336 392
#     4  12  23  37  66  96 127 165 222 273 324 386
#     4  10  21  37  58  92 125 159 207 265 321 379
#     4  10  21  42  64  87 126 174 213 264 331 392
#     4  12  21  39  65  93 122 166 220 270 315 386
#
# _framework density 20.427873000000002
#
# number of rings (size 3 to 8) (size 9 to 14) (size 15 to 20)
#    0.000    1.143    5.714    2.143    0.000    0.000 
#    2.571    0.714    0.000    0.000    0.000    0.000 
#    0.000    0.000    0.000    0.000    0.000    0.000 
#
# Total GULP energy -156244.453500 kJ/mol
# GULP energy per Si atom -5580.159054 kJ/mol
# Density = 2.038138 g / cm^3
# Si number density = 20.427873 Si / 1000 Ang^3
#
#
#
# Elastic Constant Matrix: (Units=GPa)
#
#
# Indices 1 2 3 4 5 6 
#
# 1 145.4438 17.0819 32.9142 0.0000 -17.3354 0.0000
# 2 17.0819 42.0778 3.8604 0.0000 -6.8108 -0.0001
# 3 32.9142 3.8604 88.8834 0.0000 -10.4624 0.0000
# 4 0.0000 0.0000 0.0000 15.9317 0.0000 -7.2207
# 5 -17.3354 -6.8108 -10.4624 0.0000 22.4743 0.0000
# 6 0.0000 -0.0001 0.0000 -7.2207 0.0000 35.8953
#
#
#
# Elastic Compliance Matrix: (Units=1/GPa)
#
#
# Indices 1 2 3 4 5 6 
#
# 1 0.008241 -0.002394 -0.002417 0.000000 0.004506 0.000000
# 2 -0.002394 0.025691 0.000497 0.000000 0.006170 0.000000
# 3 -0.002417 0.000497 0.012614 0.000000 0.004158 0.000000
# 4 0.000000 0.000000 0.000000 0.069065 0.000000 0.013893
# 5 0.004506 0.006170 0.004158 0.000000 0.051776 0.000000
# 6 0.000000 0.000000 0.000000 0.013893 0.000000 0.030654
#
#
# Mechanical properties :
#
#
# Convention : Reuss Voigt Hill
#
# Bulk Modulus (GPa) = 26.37408 42.67977 34.52692
# Shear Modulus (GPa) = 22.79906 29.69683 26.24794
#
# Velocity S-wave (km/s) = 3.34440 3.81693 3.58845
# Velocity P-wave (km/s) = 5.27752 6.35323 5.84019
#
# Compressibility (1/GPa) = 0.03791602
#
# Stress axis : x y z
#
# Youngs Moduli (GPa) = 121.34788 38.92474 79.27898
#
# Poissons Ratio (x) = 0.09320 0.19164
# Poissons Ratio (y) = 0.29055 -0.03941
# Poissons Ratio (z) = 0.29333 -0.01935
#
# Static dielectric constant tensor:
#      x y z
#    x 0.151800 0.000000 -2.311910 
#    y 0.000000 1.788490 0.000000 
#    z -2.311910 0.000000 -1.641090 
# 
# From -- ./inp_files/276232.got.cif
#   From: 2010.05.17/outbox.cif.g08.bks.cpg/sg15_139_cif.got.tgz:276232.got - 2010.06.03 18:47:42.
