data_PCOD9280824
_publ_section_title
;
Structure prediction by ZEFSAII (Michael W. Deem and Ramdas Pophale) SiO2 
 PCOD9280824
Probable space group: C 2/C
;
_chemical_formula_sum "Si O2"
_cell_formula_units_Z 60
_cell_length_a 26.196658
_cell_length_b 12.731514
_cell_length_c 18.359526
_cell_angle_alpha 90.000000
_cell_angle_beta 153.486943
_cell_angle_gamma 90.000000
_cell_volume 2733.463578
_symmetry_space_group_name_H-M "C 2/C"
_symmetry_group_IT_number 15
_symmetry_cell_setting 'monoclinic'
loop_
_space_group_symop_operation_xyz
x,y,z
-x,y,1/2-z
-x,-y,-z
x,-y,1/2+z
1/2+x,1/2+y,z
1/2-x,1/2+y,1/2-z
1/2-x,1/2-y,-z
1/2+x,1/2-y,1/2+z
loop_
_atom_site_type_symbol
_atom_site_label
_atom_site_fract_x
_atom_site_fract_y
_atom_site_fract_z
Si Si1 0.712082 0.858831 0.102576
Si Si2 0.924798 0.335769 0.224451
Si Si3 0.836845 0.109564 0.073959
Si Si4 0.013444 0.378030 0.039021
Si Si5 0.153227 0.121785 0.872750
Si Si6 0.500000 0.199346 0.250000
Si Si7 0.710421 0.146333 0.313990
Si Si8 0.741611 0.585981 0.680402
O O1 0.799543 0.873750 0.147906
O O2 0.708796 0.734675 0.115123
O O3 0.765920 0.911500 0.242395
O O4 0.585018 0.873773 0.906910
O O5 0.895332 0.211618 0.182731
O O6 0.997644 0.362715 0.389251
O O7 0.000000 0.364167 0.250000
O O8 0.798441 0.389174 0.073702
O O9 0.888042 0.996912 0.162315
O O10 0.840327 0.122680 0.989972
O O11 0.142020 0.348331 0.184253
O O12 0.000000 0.500000 0.000000
O O13 0.917123 0.321769 0.869824
O O14 0.069663 0.216760 0.788532
O O15 0.261123 0.136393 0.065117
O O16 0.737428 0.034649 0.314083
#
# Coordination Sequence:
#
# PCOD9280824 Si02
#       8
#     8   8   8   8   8   4   8   8
#     4  11  23  37  63  90 119 161 209 252 293 379
#     4  10  21  37  64  94 119 168 206 254 304 366
#     4   9  21  42  59  91 130 153 211 254 310 369
#     4   9  19  36  56  85 119 156 196 245 309 358
#     4  10  22  41  64  87 121 166 204 257 302 367
#     4  10  22  40  62  90 120 168 204 248 312 366
#     4   9  19  38  59  81 122 155 200 250 304 357
#     4   9  20  37  58  87 119 164 189 258 316 344
#
# _framework density 21.950172999999999
#
# number of rings (size 3 to 8) (size 9 to 14) (size 15 to 20)
#    0.000    2.400    0.000    2.400    6.533    2.133 
#    6.000    0.000    0.000    8.000    0.000    0.000 
#    0.000    0.000    0.000    0.000    0.000    0.000 
#
# Total GULP energy -167229.808973 kJ/mol
# GULP energy per Si atom -5574.326966 kJ/mol
# Density = 2.190021 g / cm^3
# Si number density = 21.950173 Si / 1000 Ang^3
#
#
#
# Elastic Constant Matrix: (Units=GPa)
#
#
# Indices 1 2 3 4 5 6 
#
# 1 161.4571 17.3874 46.8830 0.0000 -37.3590 0.0000
# 2 17.3874 67.3008 22.3337 0.0000 -14.9407 0.0000
# 3 46.8830 22.3337 69.0078 0.0000 -19.5621 0.0000
# 4 0.0000 0.0000 0.0000 20.4942 0.0000 -9.0944
# 5 -37.3590 -14.9407 -19.5621 0.0000 37.8839 0.0000
# 6 0.0000 0.0000 0.0000 -9.0944 0.0000 14.6461
#
#
#
# Elastic Compliance Matrix: (Units=1/GPa)
#
#
# Indices 1 2 3 4 5 6 
#
# 1 0.008978 0.000652 -0.004367 0.000000 0.006855 0.000000
# 2 0.000652 0.017354 -0.004612 0.000000 0.005105 0.000000
# 3 -0.004367 -0.004612 0.020166 0.000000 0.004288 0.000000
# 4 0.000000 0.000000 0.000000 0.067353 0.000000 0.041823
# 5 0.006855 0.005105 0.004288 0.000000 0.037384 0.000000
# 6 0.000000 0.000000 0.000000 0.041823 0.000000 0.094247
#
#
# Mechanical properties :
#
#
# Convention : Reuss Voigt Hill
#
# Bulk Modulus (GPa) = 33.50825 52.33045 42.91935
# Shear Modulus (GPa) = 18.37661 28.68226 23.52943
#
# Velocity S-wave (km/s) = 2.89657 3.61875 3.27761
# Velocity P-wave (km/s) = 5.14642 6.43061 5.82402
#
# Compressibility (1/GPa) = 0.02984340
#
# Stress axis : x y z
#
# Youngs Moduli (GPa) = 111.38708 57.62306 49.58827
#
# Poissons Ratio (x) = -0.03755 0.21655
# Poissons Ratio (y) = -0.07258 0.22870
# Poissons Ratio (z) = 0.48641 0.26576
#
# Static dielectric constant tensor:
#      x y z
#    x 1.990690 0.000000 0.046150 
#    y 0.000000 1.827490 0.000000 
#    z 0.046150 0.000000 1.941580 
# 
# From -- ./inp_files/222720.got.cif
#   From: 2010.05.17/outbox.cif.g08.bks.cpg/sg15_112_cif.got.tgz:222720.got - 2010.06.03 18:47:42.
