data_PCOD9280907
_publ_section_title
;
Structure prediction by ZEFSAII (Michael W. Deem and Ramdas Pophale) SiO2 
 PCOD9280907
Probable space group: C 2/C
;
_chemical_formula_sum "Si O2"
_cell_formula_units_Z 48
_cell_length_a 8.972018
_cell_length_b 19.082461
_cell_length_c 14.834454
_cell_angle_alpha 90.000000
_cell_angle_beta 73.299433
_cell_angle_gamma 90.000000
_cell_volume 2432.651120
_symmetry_space_group_name_H-M "C 2/C"
_symmetry_group_IT_number 15
_symmetry_cell_setting 'monoclinic'
loop_
_space_group_symop_operation_xyz
x,y,z
-x,y,1/2-z
-x,-y,-z
x,-y,1/2+z
1/2+x,1/2+y,z
1/2-x,1/2+y,1/2-z
1/2-x,1/2-y,-z
1/2+x,1/2-y,1/2+z
loop_
_atom_site_type_symbol
_atom_site_label
_atom_site_fract_x
_atom_site_fract_y
_atom_site_fract_z
Si Si1 0.315281 0.076639 0.766342
Si Si2 0.981423 0.703927 0.461303
Si Si3 0.160456 0.226102 0.781212
Si Si4 0.848660 0.033856 0.071067
Si Si5 0.614906 0.061285 0.950541
Si Si6 0.329251 0.687772 0.107801
O O1 0.500000 0.085017 0.750000
O O2 0.222749 0.149345 0.794823
O O3 0.310786 0.055285 0.661337
O O4 0.242501 0.019240 0.846854
O O5 0.978586 0.634575 0.522661
O O6 0.831150 0.692973 0.422499
O O7 0.954708 0.772116 0.526285
O O8 0.121052 0.723020 0.371176
O O9 0.290030 0.265345 0.700306
O O10 0.000000 0.218283 0.750000
O O11 0.874197 0.107782 0.117439
O O12 0.747277 0.056669 0.002569
O O13 0.000000 0.000000 0.000000
O O14 0.500000 0.000000 0.000000
#
# Coordination Sequence:
#
# PCOD9280907 Si02
#       6
#     8   8   8   8   8   8
#     4  12  25  42  63  93 131 172 210 262 331 388
#     4   9  18  35  62  88 116 155 208 254 309 373
#     4  10  21  37  66  91 117 162 215 267 314 374
#     4  11  25  40  65  96 128 164 219 267 314 387
#     4  11  23  42  64  91 131 171 208 262 327 382
#     4   9  18  35  57  90 118 152 201 259 309 368
#
# _framework density 19.731558
#
# number of rings (size 3 to 8) (size 9 to 14) (size 15 to 20)
#    0.000    1.667    3.333    1.000    7.000    0.667 
#    0.000    2.500    0.000    0.000    0.000    0.000 
#    0.000    0.000    0.000    0.000    0.000    0.000 
#
# Total GULP energy -133870.391219 kJ/mol
# GULP energy per Si atom -5577.932967 kJ/mol
# Density = 1.968665 g / cm^3
# Si number density = 19.731558 Si / 1000 Ang^3
#
#
#
# Elastic Constant Matrix: (Units=GPa)
#
#
# Indices 1 2 3 4 5 6 
#
# 1 18.9832 29.0455 12.2036 0.0000 -4.4585 0.0000
# 2 29.0455 129.8308 30.8448 0.0000 -4.5386 0.0000
# 3 12.2036 30.8448 117.2381 0.0000 -1.6392 0.0000
# 4 0.0000 0.0000 0.0000 33.8823 0.0000 -0.9642
# 5 -4.4585 -4.5386 -1.6392 0.0000 17.6532 0.0000
# 6 0.0000 0.0000 0.0000 -0.9642 0.0000 24.5201
#
#
#
# Elastic Compliance Matrix: (Units=1/GPa)
#
#
# Indices 1 2 3 4 5 6 
#
# 1 0.086489 -0.017788 -0.004087 0.000000 0.016891 0.000000
# 2 -0.017788 0.011939 -0.001311 0.000000 -0.001545 0.000000
# 3 -0.004087 -0.001311 0.009293 0.000000 -0.000506 0.000000
# 4 0.000000 0.000000 0.000000 0.029547 0.000000 0.001162
# 5 0.016891 -0.001545 -0.000506 0.000000 0.060469 0.000000
# 6 0.000000 0.000000 0.000000 0.001162 0.000000 0.040829
#
#
# Mechanical properties :
#
#
# Convention : Reuss Voigt Hill
#
# Bulk Modulus (GPa) = 16.30005 45.58221 30.94113
# Shear Modulus (GPa) = 16.37271 28.14168 22.25719
#
# Velocity S-wave (km/s) = 2.88370 3.78064 3.36221
# Velocity P-wave (km/s) = 4.40074 6.49684 5.54867
#
# Compressibility (1/GPa) = 0.06134951
#
# Stress axis : x y z
#
# Youngs Moduli (GPa) = 11.56222 83.75734 107.60852
#
# Poissons Ratio (x) = 1.48984 0.43977
# Poissons Ratio (y) = 0.20566 0.14110
# Poissons Ratio (z) = 0.04725 0.10982
#
# Static dielectric constant tensor:
#      x y z
#    x 1.646260 0.000000 0.012290 
#    y 0.000000 1.688160 0.000000 
#    z 0.012290 0.000000 1.670770 
# 
# From -- ./inp_files/135921.got.cif
#   From: 2010.05.17/outbox.cif.g08.bks.cpg/sg15_68_cif.got.tgz:135921.got - 2010.06.03 18:47:42.
