data_PCOD9280904
_publ_section_title
;
Structure prediction by ZEFSAII (Michael W. Deem and Ramdas Pophale) SiO2 
 PCOD9280904
Probable space group: C 2/C
;
_chemical_formula_sum "Si O2"
_cell_formula_units_Z 48
_cell_length_a 9.172856
_cell_length_b 11.559453
_cell_length_c 16.494647
_cell_angle_alpha 90.000000
_cell_angle_beta 92.579019
_cell_angle_gamma 90.000000
_cell_volume 1747.208651
_symmetry_space_group_name_H-M "C 2/C"
_symmetry_group_IT_number 15
_symmetry_cell_setting 'monoclinic'
loop_
_space_group_symop_operation_xyz
x,y,z
-x,y,1/2-z
-x,-y,-z
x,-y,1/2+z
1/2+x,1/2+y,z
1/2-x,1/2+y,1/2-z
1/2-x,1/2-y,-z
1/2+x,1/2-y,1/2+z
loop_
_atom_site_type_symbol
_atom_site_label
_atom_site_fract_x
_atom_site_fract_y
_atom_site_fract_z
Si Si1 0.327539 0.793236 0.763553
Si Si2 0.433103 0.682029 0.906700
Si Si3 0.870195 0.939249 0.846619
Si Si4 0.054632 0.758472 0.919223
Si Si5 0.752964 0.854782 0.118974
Si Si6 0.327468 0.979665 0.012558
O O1 0.500000 0.803504 0.750000
O O2 0.330592 0.776009 0.860468
O O3 0.239645 0.900233 0.725928
O O4 0.259379 0.680897 0.714818
O O5 0.428798 0.569042 0.850399
O O6 0.603555 0.712841 0.906984
O O7 0.411449 0.664652 0.000905
O O8 0.009940 0.853284 0.850359
O O9 0.767647 0.944598 0.925598
O O10 0.892898 0.703143 0.917266
O O11 0.152642 0.643195 0.936959
O O12 0.744090 0.980152 0.075897
O O13 0.500000 0.000000 0.000000
#
# Coordination Sequence:
#
# PCOD9280904 Si02
#       6
#     8   8   8   8   8   8
#     4   9  22  38  63  83 117 168 210 244 305 379
#     4  11  21  38  64  90 121 166 202 256 321 369
#     4  11  23  42  60  91 132 160 202 270 316 364
#     4  10  21  37  66  89 125 157 210 254 313 367
#     4   9  19  38  60  87 119 157 212 248 302 376
#     4  10  22  35  65  95 115 162 212 252 309 369
#
# _framework density 27.472394000000001
#
# number of rings (size 3 to 8) (size 9 to 14) (size 15 to 20)
#    0.000    2.000    1.667    1.000   11.667    2.000 
#    6.000    0.000    0.000    0.000    0.000    0.000 
#    0.000    0.000    0.000    0.000    0.000    0.000 
#
# Total GULP energy -133623.864023 kJ/mol
# GULP energy per Si atom -5567.661001 kJ/mol
# Density = 2.740987 g / cm^3
# Si number density = 27.472394 Si / 1000 Ang^3
#
#
#
# Elastic Constant Matrix: (Units=GPa)
#
#
# Indices 1 2 3 4 5 6 
#
# 1 86.1175 24.9175 27.7740 0.0000 43.4819 0.0000
# 2 24.9175 137.2416 22.6556 0.0000 18.8834 0.0000
# 3 27.7740 22.6556 114.8836 0.0000 34.7623 0.0000
# 4 0.0000 0.0000 0.0000 36.7962 0.0000 22.0320
# 5 43.4819 18.8834 34.7623 0.0000 62.1829 0.0000
# 6 0.0000 0.0000 0.0000 22.0320 0.0000 42.8465
#
#
#
# Elastic Compliance Matrix: (Units=1/GPa)
#
#
# Indices 1 2 3 4 5 6 
#
# 1 0.018312 -0.001588 -0.000464 0.000000 -0.012063 0.000000
# 2 -0.001588 0.007832 -0.000935 0.000000 -0.000745 0.000000
# 3 -0.000464 -0.000935 0.010612 0.000000 -0.005324 0.000000
# 4 0.000000 0.000000 0.000000 0.039266 0.000000 -0.020191
# 5 -0.012063 -0.000745 -0.005324 0.000000 0.027720 0.000000
# 6 0.000000 0.000000 0.000000 -0.020191 0.000000 0.033722
#
#
# Mechanical properties :
#
#
# Convention : Reuss Voigt Hill
#
# Bulk Modulus (GPa) = 32.48688 54.32633 43.40660
# Shear Modulus (GPa) = 32.53133 45.89148 39.21140
#
# Velocity S-wave (km/s) = 3.44488 4.09156 3.78206
# Velocity P-wave (km/s) = 5.26059 6.49145 5.90816
#
# Compressibility (1/GPa) = 0.03078166
#
# Stress axis : x y z
#
# Youngs Moduli (GPa) = 54.60867 127.68696 94.23271
#
# Poissons Ratio (x) = 0.20282 0.04369
# Poissons Ratio (y) = 0.08674 0.08811
# Poissons Ratio (z) = 0.02532 0.11939
#
# Static dielectric constant tensor:
#      x y z
#    x 2.250400 0.000000 -0.101610 
#    y 0.000000 2.248790 0.000000 
#    z -0.101610 0.000000 2.198140 
# 
# From -- ./inp_files/196208.got.cif
#   From: 2010.05.17/outbox.cif.g08.bks.cpg/sg15_99_cif.got.tgz:196208.got - 2010.06.03 18:47:42.
