data_PCOD9280704
_publ_section_title
;
Structure prediction by ZEFSAII (Michael W. Deem and Ramdas Pophale) SiO2 
 PCOD9280704
Probable space group: C 2/C
;
_chemical_formula_sum "Si O2"
_cell_formula_units_Z 60
_cell_length_a 18.567210
_cell_length_b 12.928820
_cell_length_c 23.488045
_cell_angle_alpha 90.000000
_cell_angle_beta 29.911137
_cell_angle_gamma 90.000000
_cell_volume 2811.600830
_symmetry_space_group_name_H-M "C 2/C"
_symmetry_group_IT_number 15
_symmetry_cell_setting 'monoclinic'
loop_
_space_group_symop_operation_xyz
x,y,z
-x,y,1/2-z
-x,-y,-z
x,-y,1/2+z
1/2+x,1/2+y,z
1/2-x,1/2+y,1/2-z
1/2-x,1/2-y,-z
1/2+x,1/2-y,1/2+z
loop_
_atom_site_type_symbol
_atom_site_label
_atom_site_fract_x
_atom_site_fract_y
_atom_site_fract_z
Si Si1 0.721117 0.461357 0.736088
Si Si2 0.960322 0.763623 0.720483
Si Si3 0.000000 0.718640 0.250000
Si Si4 0.169458 0.544938 0.067349
Si Si5 0.605882 0.610329 0.031418
Si Si6 0.663015 0.187338 0.422467
Si Si7 0.149383 0.918741 0.170887
Si Si8 0.561199 0.083400 0.841489
O O1 0.556098 0.434218 0.864627
O O2 0.817007 0.359784 0.654217
O O3 0.712151 0.532788 0.685378
O O4 0.804566 0.520342 0.728020
O O5 0.894628 0.689608 0.718353
O O6 0.000000 0.704330 0.750000
O O7 0.089298 0.821430 0.600723
O O8 0.827313 0.834373 0.831545
O O9 0.894522 0.645148 0.357876
O O10 0.901545 0.800334 0.282304
O O11 0.034878 0.476421 0.138627
O O12 0.276217 0.477288 0.034885
O O13 0.248873 0.576118 0.954046
O O14 0.634222 0.694576 0.962272
O O15 0.544527 0.117750 0.534969
O O16 0.000000 0.969721 0.250000
#
# Coordination Sequence:
#
# PCOD9280704 Si02
#       8
#     8   8   4   8   8   8   8   8
#     4  11  22  44  64  92 134 169 216 264 323 398
#     4  10  21  37  62  95 131 160 211 264 322 394
#     4  10  26  42  64  98 126 166 232 282 306 374
#     4  12  22  41  69  95 128 170 221 273 327 380
#     4  10  22  38  67  95 129 168 212 264 331 391
#     4  10  21  39  61  94 127 167 206 256 326 394
#     4  10  22  43  67  91 120 180 229 261 312 385
#     4  11  24  38  61  98 128 170 209 266 327 386
#
# _framework density 21.340154999999999
#
# number of rings (size 3 to 8) (size 9 to 14) (size 15 to 20)
#    0.400    1.067    2.667    2.400    4.667    2.133 
#    7.200    2.000    0.000    0.000    0.000    0.000 
#    0.000    0.000    0.000    0.000    0.000    0.000 
#
# Total GULP energy -167204.248484 kJ/mol
# GULP energy per Si atom -5573.474949 kJ/mol
# Density = 2.129158 g / cm^3
# Si number density = 21.340155 Si / 1000 Ang^3
#
#
#
# Elastic Constant Matrix: (Units=GPa)
#
#
# Indices 1 2 3 4 5 6 
#
# 1 54.3295 36.8572 16.1989 -0.0002 -16.1231 0.0000
# 2 36.8572 123.0817 43.2997 -0.0012 -9.2360 -0.0003
# 3 16.1989 43.2997 86.8767 -0.0013 -4.7731 -0.0003
# 4 -0.0002 -0.0012 -0.0013 37.6595 -0.0003 -12.0888
# 5 -16.1231 -9.2360 -4.7731 -0.0003 11.9042 0.0000
# 6 0.0000 -0.0003 -0.0003 -12.0888 0.0000 20.9090
#
#
#
# Elastic Compliance Matrix: (Units=1/GPa)
#
#
# Indices 1 2 3 4 5 6 
#
# 1 0.036563 -0.007432 -0.000725 0.000000 0.043464 0.000000
# 2 -0.007432 0.011771 -0.004634 0.000000 -0.002792 0.000000
# 3 -0.000725 -0.004634 0.014013 0.000000 0.001041 0.000000
# 4 0.000000 0.000000 0.000000 0.032605 0.000001 0.018851
# 5 0.043464 -0.002792 0.001041 0.000001 0.141124 0.000001
# 6 0.000000 0.000000 0.000000 0.018851 0.000001 0.058725
#
#
# Mechanical properties :
#
#
# Convention : Reuss Voigt Hill
#
# Bulk Modulus (GPa) = 27.20098 50.77772 38.98935
# Shear Modulus (GPa) = 15.03128 25.29001 20.16065
#
# Velocity S-wave (km/s) = 2.65687 3.44625 3.07698
# Velocity P-wave (km/s) = 4.71020 6.29933 5.56182
#
# Compressibility (1/GPa) = 0.03676338
#
# Stress axis : x y z
#
# Youngs Moduli (GPa) = 27.34983 84.95327 71.36356
#
# Poissons Ratio (x) = 0.63140 0.05176
# Poissons Ratio (y) = 0.20327 0.33073
# Poissons Ratio (z) = 0.01984 0.39371
#
# Static dielectric constant tensor:
#      x y z
#    x 1.783860 0.000000 -0.007250 
#    y 0.000000 1.852150 0.000000 
#    z -0.007250 0.000000 1.827800 
# 
# From -- ./inp_files/277535.got.cif
#   From: 2010.05.17/outbox.cif.g08.bks.cpg/sg15_139_cif.got.tgz:277535.got - 2010.06.03 18:47:42.
