data_PCOD9280850
_publ_section_title
;
Structure prediction by ZEFSAII (Michael W. Deem and Ramdas Pophale) SiO2 
 PCOD9280850
Probable space group: C 2/C
;
_chemical_formula_sum "Si O2"
_cell_formula_units_Z 56
_cell_length_a 5.468256
_cell_length_b 27.705898
_cell_length_c 20.089576
_cell_angle_alpha 90.000000
_cell_angle_beta 55.184248
_cell_angle_gamma 90.000000
_cell_volume 2498.796626
_symmetry_space_group_name_H-M "C 2/C"
_symmetry_group_IT_number 15
_symmetry_cell_setting 'monoclinic'
loop_
_space_group_symop_operation_xyz
x,y,z
-x,y,1/2-z
-x,-y,-z
x,-y,1/2+z
1/2+x,1/2+y,z
1/2-x,1/2+y,1/2-z
1/2-x,1/2-y,-z
1/2+x,1/2-y,1/2+z
loop_
_atom_site_type_symbol
_atom_site_label
_atom_site_fract_x
_atom_site_fract_y
_atom_site_fract_z
Si Si1 0.350689 0.254200 0.201784
Si Si2 0.552650 0.324711 0.058341
Si Si3 0.535602 0.511507 0.572944
Si Si4 0.574650 0.910116 0.439557
Si Si5 0.907070 0.400262 0.337054
Si Si6 0.962230 0.651820 0.371907
Si Si7 0.943421 0.906203 0.889158
O O1 0.500000 0.268243 0.250000
O O2 0.511623 0.279185 0.113062
O O3 0.384300 0.196564 0.188251
O O4 0.000000 0.266104 0.250000
O O5 0.754193 0.363449 0.064674
O O6 0.237669 0.352619 0.107311
O O7 0.726002 0.323521 0.961216
O O8 0.500000 0.500000 0.500000
O O9 0.834275 0.542431 0.535065
O O10 0.303048 0.552909 0.630651
O O11 0.509882 0.463908 0.622579
O O12 0.653711 0.916650 0.350723
O O13 0.233039 0.903220 0.513090
O O14 0.000000 0.387274 0.250000
O O15 0.755772 0.620538 0.354066
O O16 0.214489 0.619311 0.371877
#
# Coordination Sequence:
#
# PCOD9280850 Si02
#       7
#     8   8   8   8   8   8   8
#     4  12  28  47  71 100 135 178 222 285 354 406
#     4  10  23  41  68 100 132 177 221 276 351 414
#     4  11  21  37  63  97 132 179 227 270 327 408
#     4  10  21  37  65 100 134 171 220 278 333 407
#     4  11  23  38  61  99 144 169 220 281 346 405
#     4  11  24  45  70 100 133 173 238 280 325 405
#     4  11  21  40  69  99 127 181 228 277 323 382
#
# _framework density 22.410789000000001
#
# number of rings (size 3 to 8) (size 9 to 14) (size 15 to 20)
#    0.000    1.143    2.857    3.857    6.000    1.714 
#    0.000    5.714    3.143    0.000    0.000    0.000 
#    0.000    0.000    0.000    0.000    0.000    0.000 
#
# Total GULP energy -156058.700086 kJ/mol
# GULP energy per Si atom -5573.525003 kJ/mol
# Density = 2.235978 g / cm^3
# Si number density = 22.410789 Si / 1000 Ang^3
#
#
#
# Elastic Constant Matrix: (Units=GPa)
#
#
# Indices 1 2 3 4 5 6 
#
# 1 95.0777 29.0861 17.1494 0.0000 5.0918 0.0000
# 2 29.0861 124.9444 -3.7316 0.0000 -8.6716 0.0000
# 3 17.1494 -3.7316 39.0003 0.0000 4.4012 0.0000
# 4 0.0000 0.0000 0.0000 29.9288 0.0000 -4.6071
# 5 5.0918 -8.6716 4.4012 0.0000 15.2441 0.0000
# 6 0.0000 0.0000 0.0000 -4.6071 0.0000 10.4475
#
#
#
# Elastic Compliance Matrix: (Units=1/GPa)
#
#
# Indices 1 2 3 4 5 6 
#
# 1 0.012811 -0.003470 -0.005437 0.000000 -0.004683 0.000000
# 2 -0.003470 0.009275 0.001744 0.000000 0.005932 0.000000
# 3 -0.005437 0.001744 0.028820 0.000000 -0.005513 0.000000
# 4 0.000000 0.000000 0.000000 0.035846 0.000000 0.015807
# 5 -0.004683 0.005932 -0.005513 0.000000 0.072129 0.000000
# 6 0.000000 0.000000 0.000000 0.015807 0.000000 0.102687
#
#
# Mechanical properties :
#
#
# Convention : Reuss Voigt Hill
#
# Bulk Modulus (GPa) = 27.33657 38.22560 32.78108
# Shear Modulus (GPa) = 17.35591 25.55866 21.45728
#
# Velocity S-wave (km/s) = 2.78590 3.38074 3.09763
# Velocity P-wave (km/s) = 4.75108 5.68621 5.23955
#
# Compressibility (1/GPa) = 0.03658103
#
# Stress axis : x y z
#
# Youngs Moduli (GPa) = 78.06080 107.81674 34.69758
#
# Poissons Ratio (x) = 0.37408 0.18864
# Poissons Ratio (y) = 0.27084 -0.06050
# Poissons Ratio (z) = 0.42439 -0.18800
#
# Static dielectric constant tensor:
#      x y z
#    x 1.962660 0.000000 0.018490 
#    y 0.000000 1.797440 0.000000 
#    z 0.018490 0.000000 1.883250 
# 
# From -- ./inp_files/228419.got.cif
#   From: 2010.05.17/outbox.cif.g08.bks.cpg/sg15_115_cif.got.tgz:228419.got - 2010.06.03 18:47:42.
