data_PCOD9280457
_publ_section_title
;
Structure prediction by ZEFSAII (Michael W. Deem and Ramdas Pophale) SiO2 
 PCOD9280457
Probable space group: C 2/C
;
_chemical_formula_sum "Si O2"
_cell_formula_units_Z 40
_cell_length_a 4.772623
_cell_length_b 15.465342
_cell_length_c 25.326207
_cell_angle_alpha 90.000000
_cell_angle_beta 110.130624
_cell_angle_gamma 90.000000
_cell_volume 1755.136817
_symmetry_space_group_name_H-M "C 2/C"
_symmetry_group_IT_number 15
_symmetry_cell_setting 'monoclinic'
loop_
_space_group_symop_operation_xyz
x,y,z
-x,y,1/2-z
-x,-y,-z
x,-y,1/2+z
1/2+x,1/2+y,z
1/2-x,1/2+y,1/2-z
1/2-x,1/2-y,-z
1/2+x,1/2-y,1/2+z
loop_
_atom_site_type_symbol
_atom_site_label
_atom_site_fract_x
_atom_site_fract_y
_atom_site_fract_z
Si Si1 0.000000 0.112777 0.250000
Si Si2 0.125764 0.171938 0.957724
Si Si3 0.132756 0.446951 0.459785
Si Si4 0.000000 0.727700 0.250000
Si Si5 0.662901 0.972146 0.163343
Si Si6 0.318114 0.649677 0.834010
O O1 0.797968 0.169719 0.276508
O O2 0.762241 0.052365 0.204638
O O3 0.414541 0.135658 0.946834
O O4 0.961056 0.095604 0.980840
O O5 0.892499 0.191826 0.895651
O O6 0.250000 0.250000 0.000000
O O7 0.000000 0.500000 0.500000
O O8 0.060651 0.493115 0.399489
O O9 0.905859 0.784642 0.294086
O O10 0.506836 0.894043 0.185604
O O11 0.965946 0.932996 0.159289
#
# Coordination Sequence:
#
# PCOD9280457 Si02
#       6
#     4   8   8   4   8   8
#     4  12  25  38  59  92 120 150 202 266 311 346
#     4  10  21  37  60  88 118 156 200 245 299 360
#     4  10  21  37  60  88 118 156 200 245 299 360
#     4  12  25  38  59  92 120 150 202 266 311 346
#     4  10  22  41  61  83 118 165 203 238 302 381
#     4  10  22  41  61  83 118 165 203 238 302 381
#
# _framework density 22.790247999999998
#
# number of rings (size 3 to 8) (size 9 to 14) (size 15 to 20)
#    0.000    1.600    0.000    4.200    0.000    4.800 
#    0.000    0.000    0.000    0.000    0.000    0.000 
#    0.000    0.000    0.000    0.000    0.000    0.000 
#
# Total GULP energy -111671.268386 kJ/mol
# GULP energy per Si atom -5583.563419 kJ/mol
# Density = 2.273838 g / cm^3
# Si number density = 22.790248 Si / 1000 Ang^3
#
#
#
# Elastic Constant Matrix: (Units=GPa)
#
#
# Indices 1 2 3 4 5 6 
#
# 1 152.9624 35.5571 29.6836 0.0000 -11.9356 0.0000
# 2 35.5571 74.2874 65.2712 0.0000 -9.3830 0.0000
# 3 29.6836 65.2712 118.0754 0.0000 -23.1819 0.0000
# 4 0.0000 0.0000 0.0000 24.5614 0.0000 -5.4937
# 5 -11.9356 -9.3830 -23.1819 0.0000 27.9023 0.0000
# 6 0.0000 0.0000 0.0000 -5.4937 0.0000 47.1145
#
#
#
# Elastic Compliance Matrix: (Units=1/GPa)
#
#
# Indices 1 2 3 4 5 6 
#
# 1 0.007505 -0.003990 0.000820 0.000000 0.002549 0.000000
# 2 -0.003990 0.028646 -0.015863 0.000000 -0.005254 0.000000
# 3 0.000820 -0.015863 0.019183 0.000000 0.010954 0.000000
# 4 0.000000 0.000000 0.000000 0.041805 0.000000 0.004875
# 5 0.002549 -0.005254 0.010954 0.000000 0.044264 0.000000
# 6 0.000000 0.000000 0.000000 0.004875 0.000000 0.021793
#
#
# Mechanical properties :
#
#
# Convention : Reuss Voigt Hill
#
# Bulk Modulus (GPa) = 57.91979 67.37212 62.64596
# Shear Modulus (GPa) = 24.15243 34.23653 29.19448
#
# Velocity S-wave (km/s) = 3.25894 3.88009 3.58300
# Velocity P-wave (km/s) = 6.29527 7.04978 6.68318
#
# Compressibility (1/GPa) = 0.01726526
#
# Stress axis : x y z
#
# Youngs Moduli (GPa) = 133.24423 34.90923 52.13001
#
# Poissons Ratio (x) = 0.13930 -0.04273
# Poissons Ratio (y) = 0.53170 0.82696
# Poissons Ratio (z) = -0.10922 0.55378
#
# Static dielectric constant tensor:
#      x y z
#    x 1.848250 0.000000 0.065330 
#    y 0.000000 1.881190 0.000000 
#    z 0.065330 0.000000 1.964010 
# 
# From -- ./inp_files/260490.got.cif
#   From: 2010.05.17/outbox.cif.g08.bks.cpg/sg15_131_cif.got.tgz:260490.got - 2010.06.03 18:47:42.
