data_PCOD9280613
_publ_section_title
;
Structure prediction by ZEFSAII (Michael W. Deem and Ramdas Pophale) SiO2 
 PCOD9280613
Probable space group: C 2/C
;
_chemical_formula_sum "Si O2"
_cell_formula_units_Z 48
_cell_length_a 25.492477
_cell_length_b 12.516661
_cell_length_c 8.563867
_cell_angle_alpha 90.000000
_cell_angle_beta 59.647455
_cell_angle_gamma 90.000000
_cell_volume 2358.018797
_symmetry_space_group_name_H-M "C 2/C"
_symmetry_group_IT_number 15
_symmetry_cell_setting 'monoclinic'
loop_
_space_group_symop_operation_xyz
x,y,z
-x,y,1/2-z
-x,-y,-z
x,-y,1/2+z
1/2+x,1/2+y,z
1/2-x,1/2+y,1/2-z
1/2-x,1/2-y,-z
1/2+x,1/2-y,1/2+z
loop_
_atom_site_type_symbol
_atom_site_label
_atom_site_fract_x
_atom_site_fract_y
_atom_site_fract_z
Si Si1 0.197542 0.491240 0.672492
Si Si2 0.659422 0.846548 0.987259
Si Si3 0.564245 0.431307 0.067808
Si Si4 0.682315 0.644947 0.570501
Si Si5 0.750489 0.803400 0.255256
Si Si6 0.434729 0.660238 0.293095
O O1 0.158651 0.399915 0.816765
O O2 0.160622 0.548389 0.592119
O O3 0.263349 0.441040 0.532549
O O4 0.217801 0.592973 0.743781
O O5 0.726072 0.790245 0.892628
O O6 0.612785 0.756782 0.115220
O O7 0.500000 0.406429 0.250000
O O8 0.619456 0.385437 0.087365
O O9 0.573131 0.558967 0.077663
O O10 0.565828 0.388514 0.885208
O O11 0.705266 0.749000 0.444975
O O12 0.687439 0.666115 0.746411
O O13 0.500000 0.703869 0.250000
#
# Coordination Sequence:
#
# PCOD9280613 Si02
#       6
#     8   8   8   8   8   8
#     4  11  21  41  61  97 130 171 208 264 318 388
#     4  11  24  40  67  93 133 168 218 265 320 385
#     4  11  24  41  68  96 131 165 213 266 327 383
#     4  10  22  36  62  96 128 167 209 260 322 383
#     4  10  21  37  61  95 130 170 208 260 324 377
#     4  11  25  45  65  97 127 171 218 269 322 382
#
# _framework density 20.356072000000001
#
# number of rings (size 3 to 8) (size 9 to 14) (size 15 to 20)
#    0.000    1.333    1.667    4.500    7.000    1.333 
#    0.000    0.833    0.000    1.000    0.000    0.000 
#    0.000    0.000    0.000    0.000    0.000    0.000 
#
# Total GULP energy -133739.303729 kJ/mol
# GULP energy per Si atom -5572.470989 kJ/mol
# Density = 2.030974 g / cm^3
# Si number density = 20.356072 Si / 1000 Ang^3
#
#
#
# Elastic Constant Matrix: (Units=GPa)
#
#
# Indices 1 2 3 4 5 6 
#
# 1 76.8288 2.7971 26.6051 0.0000 -9.0440 0.0000
# 2 2.7971 86.4975 45.0537 0.0000 -11.1714 0.0000
# 3 26.6051 45.0537 91.3754 0.0000 -6.9915 0.0000
# 4 0.0000 0.0000 0.0000 40.5598 0.0000 13.9080
# 5 -9.0440 -11.1714 -6.9915 0.0000 19.3906 0.0000
# 6 0.0000 0.0000 0.0000 13.9080 0.0000 6.8180
#
#
#
# Elastic Compliance Matrix: (Units=1/GPa)
#
#
# Indices 1 2 3 4 5 6 
#
# 1 0.015716 0.003392 -0.005695 0.000000 0.007231 0.000000
# 2 0.003392 0.017094 -0.008784 0.000000 0.008263 0.000000
# 3 -0.005695 -0.008784 0.016806 0.000000 -0.001657 0.000000
# 4 0.000000 0.000000 0.000000 0.082041 0.000000 -0.167353
# 5 0.007231 0.008263 -0.001657 0.000000 0.059107 0.000000
# 6 0.000000 0.000000 0.000000 -0.167353 0.000000 0.488049
#
#
# Mechanical properties :
#
#
# Convention : Reuss Voigt Hill
#
# Bulk Modulus (GPa) = 36.44015 44.84595 40.64305
# Shear Modulus (GPa) = 7.04093 25.37006 16.20549
#
# Velocity S-wave (km/s) = 1.86183 3.53415 2.82459
# Velocity P-wave (km/s) = 4.74996 6.22352 5.53598
#
# Compressibility (1/GPa) = 0.02744226
#
# Stress axis : x y z
#
# Youngs Moduli (GPa) = 63.63025 58.50129 59.50202
#
# Poissons Ratio (x) = -0.19844 0.33887
# Poissons Ratio (y) = -0.21584 0.52264
# Poissons Ratio (z) = 0.36238 0.51385
#
# Static dielectric constant tensor:
#      x y z
#    x 1.760110 0.000000 0.064790 
#    y 0.000000 1.746700 0.000000 
#    z 0.064790 0.000000 1.835640 
# 
# From -- ./inp_files/65042.got.cif
#   From: 2010.05.17/outbox.cif.g08.bks.cpg/sg15_33_cif.got.tgz:65042.got - 2010.06.03 18:47:42.
