data_PCOD9280757
_publ_section_title
;
Structure prediction by ZEFSAII (Michael W. Deem and Ramdas Pophale) SiO2 
 PCOD9280757
Probable space group: C 2/C
;
_chemical_formula_sum "Si O2"
_cell_formula_units_Z 44
_cell_length_a 12.130125
_cell_length_b 8.813649
_cell_length_c 18.888823
_cell_angle_alpha 90.000000
_cell_angle_beta 69.744481
_cell_angle_gamma 90.000000
_cell_volume 1894.531832
_symmetry_space_group_name_H-M "C 2/C"
_symmetry_group_IT_number 15
_symmetry_cell_setting 'monoclinic'
loop_
_space_group_symop_operation_xyz
x,y,z
-x,y,1/2-z
-x,-y,-z
x,-y,1/2+z
1/2+x,1/2+y,z
1/2-x,1/2+y,1/2-z
1/2-x,1/2-y,-z
1/2+x,1/2-y,1/2+z
loop_
_atom_site_type_symbol
_atom_site_label
_atom_site_fract_x
_atom_site_fract_y
_atom_site_fract_z
Si Si1 0.846426 0.005260 0.175030
Si Si2 0.347725 0.797775 0.904275
Si Si3 0.500000 0.314448 0.250000
Si Si4 0.084109 0.168194 0.468553
Si Si5 0.468717 0.927790 0.432101
Si Si6 0.884771 0.340780 0.227124
O O1 0.893037 0.018439 0.083333
O O2 0.844593 0.176821 0.206639
O O3 0.721310 0.922761 0.209433
O O4 0.930870 0.915748 0.209156
O O5 0.410117 0.783039 0.815696
O O6 0.212558 0.750288 0.927892
O O7 0.361139 0.971601 0.928231
O O8 0.414053 0.692430 0.947522
O O9 0.976107 0.251134 0.452443
O O10 0.500000 0.000000 0.500000
O O11 0.568670 0.940359 0.349674
O O12 0.000000 0.319058 0.250000
#
# Coordination Sequence:
#
# PCOD9280757 Si02
#       6
#     8   8   4   8   8   8
#     4  11  24  41  62  93 131 168 212 272 318 382
#     4  10  21  37  63  92 123 169 214 264 321 383
#     4  12  24  38  60  96 134 162 224 270 316 386
#     4   9  20  41  60  88 129 167 214 263 319 382
#     4   9  19  35  61  89 118 161 208 255 314 377
#     4  11  23  41  65  91 126 164 213 265 320 379
#
# _framework density 23.224734000000002
#
# number of rings (size 3 to 8) (size 9 to 14) (size 15 to 20)
#    0.000    1.818    0.909    3.273    6.364    0.727 
#    0.000    0.000    0.000    2.182    0.000    0.000 
#    0.000    0.000    0.000    0.000    0.000    0.000 
#
# Total GULP energy -122642.436897 kJ/mol
# GULP energy per Si atom -5574.656223 kJ/mol
# Density = 2.317187 g / cm^3
# Si number density = 23.224734 Si / 1000 Ang^3
#
#
#
# Elastic Constant Matrix: (Units=GPa)
#
#
# Indices 1 2 3 4 5 6 
#
# 1 97.1471 44.4454 5.3813 0.0000 26.6096 0.0000
# 2 44.4454 71.5906 7.0436 0.0000 5.5436 0.0000
# 3 5.3813 7.0436 92.5756 0.0000 23.9291 0.0000
# 4 0.0000 0.0000 0.0000 17.6748 0.0000 3.5996
# 5 26.6096 5.5436 23.9291 0.0000 34.5129 0.0000
# 6 0.0000 0.0000 0.0000 3.5996 0.0000 22.5472
#
#
#
# Elastic Compliance Matrix: (Units=1/GPa)
#
#
# Indices 1 2 3 4 5 6 
#
# 1 0.019653 -0.011341 0.003858 0.000000 -0.016005 0.000000
# 2 -0.011341 0.020716 -0.002823 0.000000 0.007374 0.000000
# 3 0.003858 -0.002823 0.013943 0.000000 -0.012188 0.000000
# 4 0.000000 0.000000 0.000000 0.058479 0.000000 -0.009336
# 5 -0.016005 0.007374 -0.012188 0.000000 0.048581 0.000000
# 6 0.000000 0.000000 0.000000 -0.009336 0.000000 0.045842
#
#
# Mechanical properties :
#
#
# Convention : Reuss Voigt Hill
#
# Bulk Modulus (GPa) = 29.67488 41.67265 35.67376
# Shear Modulus (GPa) = 20.91537 28.57650 24.74593
#
# Velocity S-wave (km/s) = 3.00420 3.51156 3.26774
# Velocity P-wave (km/s) = 4.98383 5.86716 5.44344
#
# Compressibility (1/GPa) = 0.03369854
#
# Stress axis : x y z
#
# Youngs Moduli (GPa) = 50.88404 48.27213 71.72124
#
# Poissons Ratio (x) = 0.54745 -0.27667
# Poissons Ratio (y) = 0.57708 0.20246
# Poissons Ratio (z) = -0.19629 0.13627
#
# Static dielectric constant tensor:
#      x y z
#    x 1.866420 0.000000 0.001990 
#    y 0.000000 1.957010 0.000000 
#    z 0.001990 0.000000 1.924630 
# 
# From -- ./inp_files/236131.got.cif
#   From: 2010.05.17/outbox.cif.g08.bks.cpg/sg15_119_cif.got.tgz:236131.got - 2010.06.03 18:47:42.
