data_PCOD9280775
_publ_section_title
;
Structure prediction by ZEFSAII (Michael W. Deem and Ramdas Pophale) SiO2 
 PCOD9280775
Probable space group: C 2/C
;
_chemical_formula_sum "Si O2"
_cell_formula_units_Z 40
_cell_length_a 14.189270
_cell_length_b 13.211848
_cell_length_c 9.768431
_cell_angle_alpha 90.000000
_cell_angle_beta 113.693677
_cell_angle_gamma 90.000000
_cell_volume 1676.891421
_symmetry_space_group_name_H-M "C 2/C"
_symmetry_group_IT_number 15
_symmetry_cell_setting 'monoclinic'
loop_
_space_group_symop_operation_xyz
x,y,z
-x,y,1/2-z
-x,-y,-z
x,-y,1/2+z
1/2+x,1/2+y,z
1/2-x,1/2+y,1/2-z
1/2-x,1/2-y,-z
1/2+x,1/2-y,1/2+z
loop_
_atom_site_type_symbol
_atom_site_label
_atom_site_fract_x
_atom_site_fract_y
_atom_site_fract_z
Si Si1 0.550541 0.891525 0.505227
Si Si2 0.392727 0.472602 0.366008
Si Si3 0.850944 0.303229 0.422667
Si Si4 0.363496 0.252302 0.236211
Si Si5 0.753604 0.017309 0.045520
O O1 0.454906 0.822988 0.400157
O O2 0.581428 0.843784 0.668449
O O3 0.500000 0.000000 0.500000
O O4 0.657749 0.905083 0.489905
O O5 0.500000 0.500000 0.500000
O O6 0.402236 0.356182 0.323660
O O7 0.347764 0.532043 0.207688
O O8 0.303698 0.485298 0.426731
O O9 0.757576 0.245696 0.298089
O O10 0.873768 0.246924 0.578876
O O11 0.798779 0.410485 0.438852
#
# Coordination Sequence:
#
# PCOD9280775 Si02
#       5
#     8   8   8   8   8
#     4  10  21  38  62  93 128 168 215 272 329 388
#     4  11  24  41  64  96 135 179 222 273 332 394
#     4   9  20  39  64  95 126 168 218 272 328 395
#     4  10  21  37  63  94 129 169 221 270 327 400
#     4  10  22  41  64  93 133 175 222 273 329 397
#
# _framework density 23.853660000000001
#
# number of rings (size 3 to 8) (size 9 to 14) (size 15 to 20)
#    0.000    2.000    0.000    2.400    0.000   12.000 
#    0.000    8.000    0.000   12.000    0.000    0.000 
#    0.000    0.000    0.000    0.000    0.000    0.000 
#
# Total GULP energy -111770.845316 kJ/mol
# GULP energy per Si atom -5588.542266 kJ/mol
# Density = 2.379937 g / cm^3
# Si number density = 23.853660 Si / 1000 Ang^3
#
#
#
# Elastic Constant Matrix: (Units=GPa)
#
#
# Indices 1 2 3 4 5 6 
#
# 1 125.2206 30.3131 25.5978 0.0000 24.1077 0.0000
# 2 30.3131 75.7260 38.8942 0.0000 26.2011 0.0000
# 3 25.5978 38.8942 83.6623 0.0000 27.1731 0.0000
# 4 0.0000 0.0000 0.0000 36.7590 0.0000 13.9454
# 5 24.1077 26.2011 27.1731 0.0000 34.6431 0.0000
# 6 0.0000 0.0000 0.0000 13.9454 0.0000 37.1746
#
#
#
# Elastic Compliance Matrix: (Units=1/GPa)
#
#
# Indices 1 2 3 4 5 6 
#
# 1 0.009461 -0.001894 -0.000458 0.000000 -0.004792 0.000000
# 2 -0.001894 0.020176 -0.005733 0.000000 -0.009445 0.000000
# 3 -0.000458 -0.005733 0.017774 0.000000 -0.009288 0.000000
# 4 0.000000 0.000000 0.000000 0.031718 0.000000 -0.011899
# 5 -0.004792 -0.009445 -0.009288 0.000000 0.046629 0.000000
# 6 0.000000 0.000000 0.000000 -0.011899 0.000000 0.031364
#
#
# Mechanical properties :
#
#
# Convention : Reuss Voigt Hill
#
# Bulk Modulus (GPa) = 32.00754 52.69100 42.34927
# Shear Modulus (GPa) = 27.21768 34.36894 30.79331
#
# Velocity S-wave (km/s) = 3.38157 3.79994 3.59684
# Velocity P-wave (km/s) = 5.35669 6.43350 5.91963
#
# Compressibility (1/GPa) = 0.03124264
#
# Stress axis : x y z
#
# Youngs Moduli (GPa) = 105.70250 49.56407 56.26040
#
# Poissons Ratio (x) = 0.09387 0.02575
# Poissons Ratio (y) = 0.20019 0.32251
# Poissons Ratio (z) = 0.04838 0.28413
#
# Static dielectric constant tensor:
#      x y z
#    x 1.983560 0.000000 0.056020 
#    y 0.000000 1.946060 0.000000 
#    z 0.056020 0.000000 1.846050 
# 
# From -- ./inp_files/37786.got.cif
#   From: 2010.05.17/outbox.cif.g08.bks.cpg/sg15_19_cif.got.tgz:37786.got - 2010.06.03 18:47:42.
