data_PCOD9280023
_publ_section_title
;
Structure prediction by ZEFSAII (Michael W. Deem and Ramdas Pophale) SiO2 
 PCOD9280023
Probable space group: C 2/C
;
_chemical_formula_sum "Si O2"
_cell_formula_units_Z 44
_cell_length_a 19.800664
_cell_length_b 12.322828
_cell_length_c 13.210212
_cell_angle_alpha 90.000000
_cell_angle_beta 141.026943
_cell_angle_gamma 90.000000
_cell_volume 2027.306509
_symmetry_space_group_name_H-M "C 2/C"
_symmetry_group_IT_number 15
_symmetry_cell_setting 'monoclinic'
loop_
_space_group_symop_operation_xyz
x,y,z
-x,y,1/2-z
-x,-y,-z
x,-y,1/2+z
1/2+x,1/2+y,z
1/2-x,1/2+y,1/2-z
1/2-x,1/2-y,-z
1/2+x,1/2-y,1/2+z
loop_
_atom_site_type_symbol
_atom_site_label
_atom_site_fract_x
_atom_site_fract_y
_atom_site_fract_z
Si Si1 0.628172 0.837307 0.541361
Si Si2 0.500000 0.803797 0.750000
Si Si3 0.447364 0.735097 0.469109
Si Si4 0.823777 0.028850 0.293238
Si Si5 0.249019 0.361457 0.352676
Si Si6 0.665915 0.992201 0.937513
O O1 0.541615 0.786821 0.512884
O O2 0.724759 0.893903 0.715686
O O3 0.683599 0.744611 0.536523
O O4 0.592297 0.934931 0.427598
O O5 0.474250 0.737205 0.618895
O O6 0.602465 0.881765 0.846246
O O7 0.419818 0.613639 0.399924
O O8 0.345758 0.813654 0.328143
O O9 0.829121 0.933275 0.378895
O O10 0.776610 0.983467 0.132411
O O11 0.196740 0.435777 0.377226
#
# Coordination Sequence:
#
# PCOD9280023 Si02
#       6
#     8   4   8   8   8   8
#     4   9  21  37  60  91 115 159 201 259 293 360
#     4  12  22  38  66  94 118 166 204 254 298 368
#     4  11  22  40  62  88 128 156 210 250 306 360
#     4   9  22  39  58  94 122 164 195 255 311 360
#     4  11  20  41  60  86 125 158 204 256 301 361
#     4  10  21  36  63  92 118 156 207 251 307 348
#
# _framework density 21.703673999999999
#
# number of rings (size 3 to 8) (size 9 to 14) (size 15 to 20)
#    1.091    0.727    1.818    2.727    0.000    2.909 
#    3.273    2.727    0.000    0.000    0.000    0.000 
#    0.000    0.000    0.000    0.000    0.000    0.000 
#
# Total GULP energy -122667.433020 kJ/mol
# GULP energy per Si atom -5575.792410 kJ/mol
# Density = 2.165428 g / cm^3
# Si number density = 21.703674 Si / 1000 Ang^3
#
#
#
# Elastic Constant Matrix: (Units=GPa)
#
#
# Indices 1 2 3 4 5 6 
#
# 1 42.0915 -11.3701 10.8642 0.0000 1.4339 0.0000
# 2 -11.3701 42.4256 2.0132 0.0000 5.6064 0.0000
# 3 10.8642 2.0132 59.8754 0.0000 -12.8856 0.0000
# 4 0.0000 0.0000 0.0000 14.0309 0.0000 -1.0934
# 5 1.4339 5.6064 -12.8856 0.0000 26.7944 0.0000
# 6 0.0000 0.0000 0.0000 -1.0934 0.0000 27.6580
#
#
#
# Elastic Compliance Matrix: (Units=1/GPa)
#
#
# Indices 1 2 3 4 5 6 
#
# 1 0.028099 0.008727 -0.006814 0.000000 -0.006606 0.000000
# 2 0.008727 0.027196 -0.004264 0.000000 -0.008208 0.000000
# 3 -0.006814 -0.004264 0.020470 0.000000 0.011101 0.000000
# 4 0.000000 0.000000 0.000000 0.071491 0.000000 0.002826
# 5 -0.006606 -0.008208 0.011101 0.000000 0.044731 0.000000
# 6 0.000000 0.000000 0.000000 0.002826 0.000000 0.036268
#
#
# Mechanical properties :
#
#
# Convention : Reuss Voigt Hill
#
# Bulk Modulus (GPa) = 14.07202 16.37859 15.22530
# Shear Modulus (GPa) = 19.48213 23.22233 21.35223
#
# Velocity S-wave (km/s) = 2.99932 3.27459 3.13997
# Velocity P-wave (km/s) = 4.30027 4.67548 4.49179
#
# Compressibility (1/GPa) = 0.07106300
#
# Stress axis : x y z
#
# Youngs Moduli (GPa) = 35.58874 36.76945 48.85178
#
# Poissons Ratio (x) = -0.32088 0.33286
# Poissons Ratio (y) = -0.31058 0.20832
# Poissons Ratio (z) = 0.24249 0.15680
#
# Static dielectric constant tensor:
#      x y z
#    x 1.773460 0.000000 0.038460 
#    y 0.000000 1.805050 0.000000 
#    z 0.038460 0.000000 1.820740 
# 
# From -- ./inp_files/105011.got.cif
#   From: 2010.05.17/outbox.cif.g08.bks.cpg/sg15_53_cif.got.tgz:105011.got - 2010.06.03 18:47:42.
