data_PCOD9280953
_publ_section_title
;
Structure prediction by ZEFSAII (Michael W. Deem and Ramdas Pophale) SiO2 
 PCOD9280953
Probable space group: C 2/C
;
_chemical_formula_sum "Si O2"
_cell_formula_units_Z 64
_cell_length_a 12.628764
_cell_length_b 27.594817
_cell_length_c 8.923019
_cell_angle_alpha 90.000000
_cell_angle_beta 99.188147
_cell_angle_gamma 90.000000
_cell_volume 3069.671010
_symmetry_space_group_name_H-M "C 2/C"
_symmetry_group_IT_number 15
_symmetry_cell_setting 'monoclinic'
loop_
_space_group_symop_operation_xyz
x,y,z
-x,y,1/2-z
-x,-y,-z
x,-y,1/2+z
1/2+x,1/2+y,z
1/2-x,1/2+y,1/2-z
1/2-x,1/2-y,-z
1/2+x,1/2-y,1/2+z
loop_
_atom_site_type_symbol
_atom_site_label
_atom_site_fract_x
_atom_site_fract_y
_atom_site_fract_z
Si Si1 0.615751 0.176633 0.356403
Si Si2 0.754033 0.353539 0.079467
Si Si3 0.876762 0.486619 0.985046
Si Si4 0.079987 0.021220 0.141769
Si Si5 0.023090 0.301908 0.422184
Si Si6 0.234749 0.448727 0.245989
Si Si7 0.749633 0.904833 0.727172
Si Si8 0.396595 0.272423 0.315180
O O1 0.500000 0.168387 0.250000
O O2 0.582569 0.176022 0.522642
O O3 0.693919 0.135644 0.315737
O O4 0.650461 0.230175 0.305354
O O5 0.875040 0.337867 0.062301
O O6 0.755615 0.393365 0.209951
O O7 0.687626 0.309102 0.132849
O O8 0.707747 0.378014 0.915728
O O9 0.812382 0.534577 0.921818
O O10 0.833883 0.444415 0.862688
O O11 0.844323 0.469784 0.142815
O O12 0.000000 0.500000 0.000000
O O13 0.164034 0.065524 0.155245
O O14 0.000000 0.038381 0.250000
O O15 0.152748 0.975884 0.208462
O O16 0.000000 0.000000 0.000000
O O17 0.056463 0.257693 0.534673
O O18 0.000000 0.286194 0.250000
O O19 0.500000 0.294024 0.250000
#
# Coordination Sequence:
#
# PCOD9280953 Si02
#       8
#     8   8   8   8   8   8   8   8
#     4   9  18  39  63  96 130 170 210 261 332 405
#     4  11  20  39  66  94 130 174 220 264 329 397
#     4  10  21  39  59  93 130 166 203 262 324 395
#     4  11  23  45  65  84 124 171 223 281 325 368
#     4  10  21  38  61  97 133 169 204 266 334 393
#     4  10  23  40  59  93 124 166 222 257 321 388
#     4  10  21  37  68  95 120 173 227 259 331 398
#     4   9  20  40  68  90 130 178 217 264 328 385
#
# _framework density 20.849139999999998
#
# number of rings (size 3 to 8) (size 9 to 14) (size 15 to 20)
#    0.000    2.250    2.500    3.000    0.000    4.500 
#    6.750    5.625    0.000    0.000    0.000    0.000 
#    0.000    0.000    0.000    0.000    0.000    0.000 
#
# Total GULP energy -178515.031271 kJ/mol
# GULP energy per Si atom -5578.594727 kJ/mol
# Density = 2.080169 g / cm^3
# Si number density = 20.849140 Si / 1000 Ang^3
#
#
#
# Elastic Constant Matrix: (Units=GPa)
#
#
# Indices 1 2 3 4 5 6 
#
# 1 103.2313 62.4569 30.7290 0.0000 -7.7809 0.0000
# 2 62.4569 118.9310 38.5186 0.0000 -19.3723 0.0000
# 3 30.7290 38.5186 67.3458 0.0000 -11.2057 0.0000
# 4 0.0000 0.0000 0.0000 27.2980 0.0000 -6.0487
# 5 -7.7809 -19.3723 -11.2057 0.0000 33.4027 0.0000
# 6 0.0000 0.0000 0.0000 -6.0487 0.0000 14.2522
#
#
#
# Elastic Compliance Matrix: (Units=1/GPa)
#
#
# Indices 1 2 3 4 5 6 
#
# 1 0.014695 -0.007027 -0.002960 0.000000 -0.001645 0.000000
# 2 -0.007027 0.014280 -0.004084 0.000000 0.005275 0.000000
# 3 -0.002960 -0.004084 0.019092 0.000000 0.003347 0.000000
# 4 0.000000 0.000000 0.000000 0.040435 0.000000 0.017161
# 5 -0.001645 0.005275 0.003347 0.000000 0.033737 0.000000
# 6 0.000000 0.000000 0.000000 0.017161 0.000000 0.077448
#
#
# Mechanical properties :
#
#
# Convention : Reuss Voigt Hill
#
# Bulk Modulus (GPa) = 50.18402 61.43525 55.80963
# Shear Modulus (GPa) = 21.32468 25.51081 23.41775
#
# Velocity S-wave (km/s) = 3.20161 3.50178 3.35505
# Velocity P-wave (km/s) = 6.14731 6.77351 6.46799
#
# Compressibility (1/GPa) = 0.01992666
#
# Stress axis : x y z
#
# Youngs Moduli (GPa) = 68.04879 70.02756 52.37796
#
# Poissons Ratio (x) = 0.49205 0.15505
# Poissons Ratio (y) = 0.47815 0.21390
# Poissons Ratio (z) = 0.20144 0.28597
#
# Static dielectric constant tensor:
#      x y z
#    x 1.696780 0.000000 -0.027170 
#    y 0.000000 1.862820 0.000000 
#    z -0.027170 0.000000 1.795850 
# 
# From -- ./inp_files/35682.got.cif
#   From: 2010.05.17/outbox.cif.g08.bks.cpg/sg15_18_cif.got.tgz:35682.got - 2010.06.03 18:47:42.
