data_PCOD9280844
_publ_section_title
;
Structure prediction by ZEFSAII (Michael W. Deem and Ramdas Pophale) SiO2 
 PCOD9280844
Probable space group: C 2/C
;
_chemical_formula_sum "Si O2"
_cell_formula_units_Z 52
_cell_length_a 11.687179
_cell_length_b 24.128676
_cell_length_c 8.113277
_cell_angle_alpha 90.000000
_cell_angle_beta 87.848948
_cell_angle_gamma 90.000000
_cell_volume 2286.300736
_symmetry_space_group_name_H-M "C 2/C"
_symmetry_group_IT_number 15
_symmetry_cell_setting 'monoclinic'
loop_
_space_group_symop_operation_xyz
x,y,z
-x,y,1/2-z
-x,-y,-z
x,-y,1/2+z
1/2+x,1/2+y,z
1/2-x,1/2+y,1/2-z
1/2-x,1/2-y,-z
1/2+x,1/2-y,1/2+z
loop_
_atom_site_type_symbol
_atom_site_label
_atom_site_fract_x
_atom_site_fract_y
_atom_site_fract_z
Si Si1 0.263406 0.480667 0.151780
Si Si2 0.578513 0.157299 0.501950
Si Si3 0.849138 0.621423 0.654110
Si Si4 0.500000 0.353486 0.750000
Si Si5 0.500000 0.564164 0.750000
Si Si6 0.500000 0.246869 0.250000
Si Si7 0.738080 0.584643 0.180958
Si Si8 0.618581 0.336248 0.058168
O O1 0.191560 0.437097 0.266564
O O2 0.396487 0.472687 0.192076
O O3 0.233052 0.544893 0.168503
O O4 0.254999 0.458930 0.968403
O O5 0.467660 0.119736 0.549897
O O6 0.635100 0.160240 0.681639
O O7 0.533300 0.210347 0.405954
O O8 0.669623 0.130168 0.373010
O O9 0.750991 0.648283 0.546071
O O10 0.389016 0.390053 0.804416
O O11 0.552890 0.318783 0.897036
O O12 0.553995 0.606964 0.615250
O O13 0.399326 0.289016 0.305872
#
# Coordination Sequence:
#
# PCOD9280844 Si02
#       8
#     8   8   8   4   4   4   8   8
#     4  10  21  37  64  98 132 181 217 264 332 397
#     4  10  24  46  65 100 136 177 224 282 320 398
#     4   9  22  46  71  92 140 178 221 274 332 394
#     4  12  25  42  67 102 138 171 220 285 334 400
#     4   9  17  38  60  92 134 162 218 276 324 386
#     4  11  26  44  71 100 128 173 228 281 344 390
#     4  11  25  40  64 100 137 178 223 272 329 395
#     4  10  23  43  69  98 130 175 220 284 336 395
#
# _framework density 22.744164999999999
#
# number of rings (size 3 to 8) (size 9 to 14) (size 15 to 20)
#    0.000    1.846    1.538    0.462    8.615    4.308 
#    0.000    1.538    0.000    0.000    0.000    0.000 
#    0.000    0.000    0.000    0.000    0.000    0.000 
#
# Total GULP energy -145256.995425 kJ/mol
# GULP energy per Si atom -5586.807516 kJ/mol
# Density = 2.269240 g / cm^3
# Si number density = 22.744165 Si / 1000 Ang^3
#
#
#
# Elastic Constant Matrix: (Units=GPa)
#
#
# Indices 1 2 3 4 5 6 
#
# 1 122.5377 31.7678 28.6666 0.0000 -21.7170 0.0000
# 2 31.7678 68.0965 20.2305 0.0000 -10.7577 0.0000
# 3 28.6666 20.2305 55.3926 0.0000 -9.0768 0.0000
# 4 0.0000 0.0000 0.0000 13.6029 0.0000 9.6892
# 5 -21.7170 -10.7577 -9.0768 0.0000 40.4437 0.0000
# 6 0.0000 0.0000 0.0000 9.6892 0.0000 4.8466
#
#
#
# Elastic Compliance Matrix: (Units=1/GPa)
#
#
# Indices 1 2 3 4 5 6 
#
# 1 0.010551 -0.003212 -0.003633 0.000000 0.003996 0.000000
# 2 -0.003212 0.017845 -0.004526 0.000000 0.002006 0.000000
# 3 -0.003633 -0.004526 0.021874 0.000000 0.001754 0.000000
# 4 0.000000 0.000000 0.000000 -0.173385 0.000000 0.346629
# 5 0.003996 0.002006 0.001754 0.000000 0.027799 0.000000
# 6 0.000000 0.000000 0.000000 0.346629 0.000000 -0.486642
#
#
# Mechanical properties :
#
#
# Convention : Reuss Voigt Hill
#
# Bulk Modulus (GPa) = 36.32653 45.26183 40.79418
# Shear Modulus (GPa) = -9.09024 22.80278 6.85627
#
# Velocity S-wave (km/s) = -2.00135 3.16978 1.73812
# Velocity P-wave (km/s) = 3.26587 5.77411 4.69075
#
# Compressibility (1/GPa) = 0.02752809
#
# Stress axis : x y z
#
# Youngs Moduli (GPa) = 94.77335 56.03789 45.71730
#
# Poissons Ratio (x) = 0.17999 0.16608
# Poissons Ratio (y) = 0.30440 0.20694
# Poissons Ratio (z) = 0.34428 0.25365
#
# Static dielectric constant tensor:
#      x y z
#    x 1.806130 0.000000 0.009880 
#    y 0.000000 1.792970 0.000000 
#    z 0.009880 0.000000 1.929980 
# 
# From -- ./inp_files/33586.got.cif
#   From: 2010.05.17/outbox.cif.g08.bks.cpg/sg15_17_cif.got.tgz:33586.got - 2010.06.03 18:47:42.
