data_PCOD9280619
_publ_section_title
;
Structure prediction by ZEFSAII (Michael W. Deem and Ramdas Pophale) SiO2 
 PCOD9280619
Probable space group: C 2/C
;
_chemical_formula_sum "Si O2"
_cell_formula_units_Z 40
_cell_length_a 20.168386
_cell_length_b 22.523507
_cell_length_c 8.886556
_cell_angle_alpha 90.000000
_cell_angle_beta 31.298678
_cell_angle_gamma 90.000000
_cell_volume 2097.131613
_symmetry_space_group_name_H-M "C 2/C"
_symmetry_group_IT_number 15
_symmetry_cell_setting 'monoclinic'
loop_
_space_group_symop_operation_xyz
x,y,z
-x,y,1/2-z
-x,-y,-z
x,-y,1/2+z
1/2+x,1/2+y,z
1/2-x,1/2+y,1/2-z
1/2-x,1/2-y,-z
1/2+x,1/2-y,1/2+z
loop_
_atom_site_type_symbol
_atom_site_label
_atom_site_fract_x
_atom_site_fract_y
_atom_site_fract_z
Si Si1 0.593611 0.943330 0.317774
Si Si2 0.386612 0.421978 0.260814
Si Si3 0.000000 0.365270 0.750000
Si Si4 0.648381 0.466217 0.848637
Si Si5 0.000000 0.648598 0.750000
Si Si6 0.812274 0.314081 0.862056
O O1 0.591312 0.910067 0.481008
O O2 0.546008 0.894828 0.291479
O O3 0.500000 0.000000 0.500000
O O4 0.730123 0.958905 0.990171
O O5 0.326946 0.454196 0.524565
O O6 0.389727 0.465921 0.111933
O O7 0.299995 0.363899 0.410025
O O8 0.536386 0.420665 0.015736
O O9 0.914858 0.328233 0.796423
O O10 0.113375 0.683007 0.443415
O O11 0.750000 0.250000 0.000000
#
# Coordination Sequence:
#
# PCOD9280619 Si02
#       6
#     8   8   4   8   4   8
#     4  11  21  35  63  94 130 165 201 269 330 398
#     4  10  22  39  62  93 131 168 210 275 328 398
#     4  10  25  40  60  96 122 159 228 262 314 402
#     4  10  21  37  61  97 129 165 212 263 341 399
#     4  10  21  42  60  92 122 159 222 260 322 392
#     4  11  24  47  65  89 131 175 223 278 323 395
#
# _framework density 19.073671000000001
#
# number of rings (size 3 to 8) (size 9 to 14) (size 15 to 20)
#    0.000    1.600    2.000    3.000    5.600    1.600 
#    3.600    2.000    0.000    0.000    0.000    0.000 
#    0.000    0.000    0.000    0.000    0.000    0.000 
#
# Total GULP energy -111468.987385 kJ/mol
# GULP energy per Si atom -5573.449369 kJ/mol
# Density = 1.903026 g / cm^3
# Si number density = 19.073671 Si / 1000 Ang^3
#
#
#
# Elastic Constant Matrix: (Units=GPa)
#
#
# Indices 1 2 3 4 5 6 
#
# 1 73.7414 55.8905 33.2729 -0.0002 9.3801 0.0004
# 2 55.8905 117.5919 54.7228 -0.0001 -4.6720 0.0001
# 3 33.2729 54.7228 150.6029 -0.0004 -3.9821 0.0002
# 4 -0.0002 -0.0001 -0.0004 30.3275 0.0001 -4.2750
# 5 9.3801 -4.6720 -3.9821 0.0001 30.0591 -0.0002
# 6 0.0004 0.0001 0.0002 -4.2750 -0.0002 21.1914
#
#
#
# Elastic Compliance Matrix: (Units=1/GPa)
#
#
# Indices 1 2 3 4 5 6 
#
# 1 0.023716 -0.010939 -0.001511 0.000000 -0.009301 0.000000
# 2 -0.010939 0.015316 -0.003006 0.000000 0.005396 0.000000
# 3 -0.001511 -0.003006 0.008095 0.000000 0.001077 0.000000
# 4 0.000000 0.000000 0.000000 0.033938 0.000000 0.006846
# 5 -0.009301 0.005396 0.001077 0.000000 0.037152 0.000000
# 6 0.000000 0.000000 0.000000 0.006846 0.000000 0.048570
#
#
# Mechanical properties :
#
#
# Convention : Reuss Voigt Hill
#
# Bulk Modulus (GPa) = 61.66707 69.96760 65.81734
# Shear Modulus (GPa) = 24.61795 29.51894 27.06845
#
# Velocity S-wave (km/s) = 3.59650 3.93826 3.77125
# Velocity P-wave (km/s) = 7.04610 7.57907 7.31744
#
# Compressibility (1/GPa) = 0.01621611
#
# Stress axis : x y z
#
# Youngs Moduli (GPa) = 42.16475 65.29008 123.54063
#
# Poissons Ratio (x) = 0.71418 0.18667
# Poissons Ratio (y) = 0.46123 0.37135
# Poissons Ratio (z) = 0.06371 0.19626
#
# Static dielectric constant tensor:
#      x y z
#    x 1.652310 0.000000 0.002510 
#    y 0.000000 1.580150 0.000000 
#    z 0.002510 0.000000 1.730930 
# 
# From -- ./inp_files/30469.got.cif
#   From: 2010.05.17/outbox.cif.g08.bks.cpg/sg15_16_cif.got.tgz:30469.got - 2010.06.03 18:47:42.
