data_PCOD9280929
_publ_section_title
;
Structure prediction by ZEFSAII (Michael W. Deem and Ramdas Pophale) SiO2 
 PCOD9280929
Probable space group: C 2/C
;
_chemical_formula_sum "Si O2"
_cell_formula_units_Z 64
_cell_length_a 14.949032
_cell_length_b 27.559749
_cell_length_c 11.268261
_cell_angle_alpha 90.000000
_cell_angle_beta 140.868537
_cell_angle_gamma 90.000000
_cell_volume 2929.845308
_symmetry_space_group_name_H-M "C 2/C"
_symmetry_group_IT_number 15
_symmetry_cell_setting 'monoclinic'
loop_
_space_group_symop_operation_xyz
x,y,z
-x,y,1/2-z
-x,-y,-z
x,-y,1/2+z
1/2+x,1/2+y,z
1/2-x,1/2+y,1/2-z
1/2-x,1/2-y,-z
1/2+x,1/2-y,1/2+z
loop_
_atom_site_type_symbol
_atom_site_label
_atom_site_fract_x
_atom_site_fract_y
_atom_site_fract_z
Si Si1 0.355373 0.317318 0.157885
Si Si2 0.636758 0.607973 0.311821
Si Si3 0.652889 0.061597 0.789966
Si Si4 0.742254 0.414118 0.359288
Si Si5 0.415091 0.870003 0.965830
Si Si6 0.045626 0.950524 0.488497
Si Si7 0.643290 0.952705 0.792018
Si Si8 0.099108 0.709991 0.237258
O O1 0.500000 0.336507 0.250000
O O2 0.273660 0.356359 0.152051
O O3 0.392360 0.268135 0.266174
O O4 0.254396 0.305650 0.942286
O O5 0.500000 0.625741 0.250000
O O6 0.725955 0.570010 0.485986
O O7 0.770750 0.637930 0.393668
O O8 0.571000 0.585651 0.124874
O O9 0.721050 0.066091 0.730879
O O10 0.539584 0.105680 0.671411
O O11 0.585719 0.007716 0.727231
O O12 0.853202 0.431952 0.571146
O O13 0.585460 0.433061 0.223357
O O14 0.400613 0.912270 0.849378
O O15 0.445111 0.821279 0.921692
O O16 0.190928 0.958296 0.570425
O O17 0.000000 0.000000 0.500000
O O18 0.000000 0.700948 0.250000
#
# Coordination Sequence:
#
# PCOD9280929 Si02
#       8
#     8   8   8   8   8   8   8   8
#     4  10  21  37  67 100 132 169 214 274 341 407
#     4  11  23  43  63  88 124 170 229 272 322 387
#     4  12  25  41  61  92 133 181 224 267 333 398
#     4  12  22  37  66  96 134 170 221 276 337 400
#     4  11  25  41  64  91 133 180 216 272 333 398
#     4  11  20  37  59  88 125 167 214 275 324 372
#     4  11  23  37  57  92 133 173 221 264 321 406
#     4  10  21  42  63  99 140 167 208 277 348 401
#
# _framework density 21.844156999999999
#
# number of rings (size 3 to 8) (size 9 to 14) (size 15 to 20)
#    0.000    1.000    3.750    3.375    3.500    0.000 
#    2.250    0.000    0.000    0.750    3.250    0.000 
#    0.000    0.000    0.000    0.000    0.000    0.000 
#
# Total GULP energy -178680.311809 kJ/mol
# GULP energy per Si atom -5583.759744 kJ/mol
# Density = 2.179444 g / cm^3
# Si number density = 21.844157 Si / 1000 Ang^3
#
#
#
# Elastic Constant Matrix: (Units=GPa)
#
#
# Indices 1 2 3 4 5 6 
#
# 1 108.7044 27.2333 0.6315 0.0000 -6.6613 0.0000
# 2 27.2333 111.0641 15.2630 0.0000 -6.8919 0.0000
# 3 0.6315 15.2630 87.0811 0.0000 -3.7112 0.0000
# 4 0.0000 0.0000 0.0000 385.3479 0.0000 220.1899
# 5 -6.6613 -6.8919 -3.7112 0.0000 37.4925 0.0000
# 6 0.0000 0.0000 0.0000 220.1899 0.0000 145.4333
#
#
#
# Elastic Compliance Matrix: (Units=1/GPa)
#
#
# Indices 1 2 3 4 5 6 
#
# 1 0.009880 -0.002394 0.000406 0.000000 0.001355 0.000000
# 2 -0.002394 0.009896 -0.001665 0.000000 0.001229 0.000000
# 3 0.000406 -0.001665 0.011812 0.000000 0.000935 0.000000
# 4 0.000000 0.000000 0.000000 0.019240 0.000000 -0.029130
# 5 0.001355 0.001229 0.000935 0.000000 0.027231 0.000000
# 6 0.000000 0.000000 0.000000 -0.029130 0.000000 0.050980
#
#
# Mechanical properties :
#
#
# Convention : Reuss Voigt Hill
#
# Bulk Modulus (GPa) = 41.18358 43.67836 42.43097
# Shear Modulus (GPa) = 34.61656 131.23618 82.92637
#
# Velocity S-wave (km/s) = 3.98515 7.75943 6.16807
# Velocity P-wave (km/s) = 6.33005 10.01585 8.37815
#
# Compressibility (1/GPa) = 0.02428152
#
# Stress axis : x y z
#
# Youngs Moduli (GPa) = 101.21690 101.05180 84.65781
#
# Poissons Ratio (x) = 0.24194 -0.03435
# Poissons Ratio (y) = 0.24233 0.14093
# Poissons Ratio (z) = -0.04107 0.16823
#
# Static dielectric constant tensor:
#      x y z
#    x 1.861590 0.000000 0.070140 
#    y 0.000000 1.803230 0.000000 
#    z 0.070140 0.000000 1.803710 
# 
# From -- ./inp_files/101341.got.cif
#   From: 2010.05.17/outbox.cif.g08.bks.cpg/sg15_51_cif.got.tgz:101341.got - 2010.06.03 18:47:42.
