data_PCOD9280815
_publ_section_title
;
Structure prediction by ZEFSAII (Michael W. Deem and Ramdas Pophale) SiO2 
 PCOD9280815
Probable space group: C 2/C
;
_chemical_formula_sum "Si O2"
_cell_formula_units_Z 44
_cell_length_a 7.651455
_cell_length_b 12.720105
_cell_length_c 21.170124
_cell_angle_alpha 90.000000
_cell_angle_beta 74.922423
_cell_angle_gamma 90.000000
_cell_volume 1989.499881
_symmetry_space_group_name_H-M "C 2/C"
_symmetry_group_IT_number 15
_symmetry_cell_setting 'monoclinic'
loop_
_space_group_symop_operation_xyz
x,y,z
-x,y,1/2-z
-x,-y,-z
x,-y,1/2+z
1/2+x,1/2+y,z
1/2-x,1/2+y,1/2-z
1/2-x,1/2-y,-z
1/2+x,1/2-y,1/2+z
loop_
_atom_site_type_symbol
_atom_site_label
_atom_site_fract_x
_atom_site_fract_y
_atom_site_fract_z
Si Si1 0.178863 0.750077 0.078542
Si Si2 0.789841 0.978428 0.433912
Si Si3 0.000000 0.681398 0.750000
Si Si4 0.023955 0.160459 0.352112
Si Si5 0.813339 0.511048 0.286421
Si Si6 0.906183 0.474816 0.918495
O O1 0.112557 0.869235 0.094060
O O2 0.339851 0.716342 0.111071
O O3 0.048109 0.649507 0.093803
O O4 0.250000 0.750000 0.000000
O O5 0.744996 0.985525 0.512798
O O6 0.589644 0.969930 0.422192
O O7 0.890060 0.081877 0.400508
O O8 0.944538 0.751365 0.814291
O O9 0.162748 0.599705 0.751240
O O10 0.144684 0.085255 0.295392
O O11 0.829929 0.487256 0.359338
O O12 0.000000 0.569600 0.250000
#
# Coordination Sequence:
#
# PCOD9280815 Si02
#       6
#     8   8   4   8   8   8
#     4   9  20  38  58  88 122 150 193 242 298 355
#     4  10  21  37  64  92 120 149 200 247 302 352
#     4  10  24  40  60  88 124 152 210 246 288 358
#     4  11  23  39  63  90 116 161 202 244 295 361
#     4   9  22  42  59  79 125 157 194 246 293 348
#     4   9  19  39  62  88 123 157 186 253 301 348
#
# _framework density 22.116111
#
# number of rings (size 3 to 8) (size 9 to 14) (size 15 to 20)
#    0.545    1.818    0.000    1.091    2.545    8.000 
#    3.273   12.727    0.000    0.000    0.000    0.000 
#    0.000    0.000    0.000    0.000    0.000    0.000 
#
# Total GULP energy -122627.121835 kJ/mol
# GULP energy per Si atom -5573.960083 kJ/mol
# Density = 2.206577 g / cm^3
# Si number density = 22.116111 Si / 1000 Ang^3
#
#
#
# Elastic Constant Matrix: (Units=GPa)
#
#
# Indices 1 2 3 4 5 6 
#
# 1 23.7766 4.0643 14.4602 0.0000 -6.9506 0.0000
# 2 4.0643 120.9926 42.1301 0.0000 -10.4028 0.0000
# 3 14.4602 42.1301 60.7138 0.0000 -5.0787 0.0000
# 4 0.0000 0.0000 0.0000 30.9848 0.0000 -14.6866
# 5 -6.9506 -10.4028 -5.0787 0.0000 27.3995 0.0000
# 6 0.0000 0.0000 0.0000 -14.6866 0.0000 22.1304
#
#
#
# Elastic Compliance Matrix: (Units=1/GPa)
#
#
# Indices 1 2 3 4 5 6 
#
# 1 0.054064 0.004465 -0.014917 0.000000 0.012645 0.000000
# 2 0.004465 0.011479 -0.008705 0.000000 0.003878 0.000000
# 3 -0.014917 -0.008705 0.025872 0.000000 -0.002294 0.000000
# 4 0.000000 0.000000 0.000000 0.047085 0.000000 0.031247
# 5 0.012645 0.003878 -0.002294 0.000000 0.040752 0.000000
# 6 0.000000 0.000000 0.000000 0.031247 0.000000 0.065923
#
#
# Mechanical properties :
#
#
# Convention : Reuss Voigt Hill
#
# Bulk Modulus (GPa) = 18.83178 36.31025 27.57101
# Shear Modulus (GPa) = 16.60088 25.75818 21.17953
#
# Velocity S-wave (km/s) = 2.74272 3.41644 3.09795
# Velocity P-wave (km/s) = 4.30854 5.65831 5.02891
#
# Compressibility (1/GPa) = 0.05310174
#
# Stress axis : x y z
#
# Youngs Moduli (GPa) = 18.49676 87.11225 38.65164
#
# Poissons Ratio (x) = -0.38899 0.57657
# Poissons Ratio (y) = -0.08259 0.33646
# Poissons Ratio (z) = 0.27592 0.75830
#
# Static dielectric constant tensor:
#      x y z
#    x 1.806830 0.000000 -0.000160 
#    y 0.000000 1.863960 0.000000 
#    z -0.000160 0.000000 1.821800 
# 
# From -- ./inp_files/263032.got.cif
#   From: 2010.05.17/outbox.cif.g08.bks.cpg/sg15_132_cif.got.tgz:263032.got - 2010.06.03 18:47:42.
