data_PCOD9280727
_publ_section_title
;
Structure prediction by ZEFSAII (Michael W. Deem and Ramdas Pophale) SiO2 
 PCOD9280727
Probable space group: C 2/C
;
_chemical_formula_sum "Si O2"
_cell_formula_units_Z 48
_cell_length_a 8.098822
_cell_length_b 22.693603
_cell_length_c 11.023071
_cell_angle_alpha 90.000000
_cell_angle_beta 113.168295
_cell_angle_gamma 90.000000
_cell_volume 1862.560114
_symmetry_space_group_name_H-M "C 2/C"
_symmetry_group_IT_number 15
_symmetry_cell_setting 'monoclinic'
loop_
_space_group_symop_operation_xyz
x,y,z
-x,y,1/2-z
-x,-y,-z
x,-y,1/2+z
1/2+x,1/2+y,z
1/2-x,1/2+y,1/2-z
1/2-x,1/2-y,-z
1/2+x,1/2-y,1/2+z
loop_
_atom_site_type_symbol
_atom_site_label
_atom_site_fract_x
_atom_site_fract_y
_atom_site_fract_z
Si Si1 0.000000 0.430945 0.750000
Si Si2 0.470876 0.418493 0.114381
Si Si3 0.054087 0.568821 0.519357
Si Si4 0.000000 0.361692 0.250000
Si Si5 0.108476 0.928835 0.655714
Si Si6 0.359145 0.292522 0.361588
Si Si7 0.113989 0.790916 0.658320
O O1 0.025019 0.401116 0.625161
O O2 0.800945 0.462625 0.695814
O O3 0.500000 0.451237 0.250000
O O4 0.260150 0.421301 0.052688
O O5 0.544308 0.352870 0.148019
O O6 0.526504 0.440397 0.996883
O O7 0.024939 0.597578 0.640364
O O8 0.000000 0.500000 0.500000
O O9 0.835070 0.320407 0.162058
O O10 0.156722 0.859527 0.648947
O O11 0.000000 0.931428 0.750000
O O12 0.293583 0.247053 0.238295
O O13 0.485211 0.269839 0.508956
O O14 0.000000 0.791332 0.750000
#
# Coordination Sequence:
#
# PCOD9280727 Si02
#       7
#     4   8   8   4   8   8   8
#     4  10  23  42  68 102 138 178 238 302 365 448
#     4  10  21  44  66  96 139 179 230 296 366 428
#     4  11  25  46  72 101 133 175 237 309 382 461
#     4  12  25  40  80 100 140 200 236 302 387 430
#     4   9  21  39  64  95 140 191 236 286 348 416
#     4  11  23  40  67 105 148 201 245 297 356 435
#     4  10  21  37  63 100 148 196 254 292 340 432
#
# _framework density 25.770980000000002
#
# number of rings (size 3 to 8) (size 9 to 14) (size 15 to 20)
#    0.000    1.667    2.500    1.000    7.000    0.000 
#    1.500    3.333    0.000    0.000    0.000    0.000 
#    0.000    0.000    0.000    0.000    0.000    0.000 
#
# Total GULP energy -133643.485057 kJ/mol
# GULP energy per Si atom -5568.478544 kJ/mol
# Density = 2.571232 g / cm^3
# Si number density = 25.770980 Si / 1000 Ang^3
#
#
#
# Elastic Constant Matrix: (Units=GPa)
#
#
# Indices 1 2 3 4 5 6 
#
# 1 104.7370 23.4181 49.8376 0.0000 -3.7834 0.0000
# 2 23.4181 156.4448 31.6409 0.0000 11.8615 0.0000
# 3 49.8376 31.6409 251.6759 0.0000 -16.3260 0.0000
# 4 0.0000 0.0000 0.0000 140.6614 0.0000 10.5248
# 5 -3.7834 11.8615 -16.3260 0.0000 69.3017 0.0000
# 6 0.0000 0.0000 0.0000 10.5248 0.0000 36.7664
#
#
#
# Elastic Compliance Matrix: (Units=1/GPa)
#
#
# Indices 1 2 3 4 5 6 
#
# 1 0.010768 -0.001242 -0.001954 0.000000 0.000340 0.000000
# 2 -0.001242 0.006827 -0.000703 0.000000 -0.001402 0.000000
# 3 -0.001954 -0.000703 0.004519 0.000000 0.001078 0.000000
# 4 0.000000 0.000000 0.000000 0.007265 0.000000 -0.002080
# 5 0.000340 -0.001402 0.001078 0.000000 0.014942 0.000000
# 6 0.000000 0.000000 0.000000 -0.002080 0.000000 0.027794
#
#
# Mechanical properties :
#
#
# Convention : Reuss Voigt Hill
#
# Bulk Modulus (GPa) = 69.86320 80.29456 75.07888
# Shear Modulus (GPa) = 59.04298 76.54331 67.79314
#
# Velocity S-wave (km/s) = 4.79170 5.45581 5.13450
# Velocity P-wave (km/s) = 7.60144 8.42095 8.02167
#
# Compressibility (1/GPa) = 0.01431369
#
# Stress axis : x y z
#
# Youngs Moduli (GPa) = 92.87157 146.48788 221.30584
#
# Poissons Ratio (x) = 0.18200 0.43242
# Poissons Ratio (y) = 0.11538 0.15561
# Poissons Ratio (z) = 0.18147 0.10300
#
# Static dielectric constant tensor:
#      x y z
#    x 2.030010 0.000000 0.013930 
#    y 0.000000 2.058640 0.000000 
#    z 0.013930 0.000000 2.460490 
# 
# From -- ./inp_files/80963.got.cif
#   From: 2010.05.17/outbox.cif.g08.bks.cpg/sg15_41_cif.got.tgz:80963.got - 2010.06.03 18:47:42.
