data_PCOD9280746
_publ_section_title
;
Structure prediction by ZEFSAII (Michael W. Deem and Ramdas Pophale) SiO2 
 PCOD9280746
Probable space group: C 2/C
;
_chemical_formula_sum "Si O2"
_cell_formula_units_Z 52
_cell_length_a 20.624943
_cell_length_b 9.550855
_cell_length_c 14.180446
_cell_angle_alpha 90.000000
_cell_angle_beta 117.088332
_cell_angle_gamma 90.000000
_cell_volume 2486.932412
_symmetry_space_group_name_H-M "C 2/C"
_symmetry_group_IT_number 15
_symmetry_cell_setting 'monoclinic'
loop_
_space_group_symop_operation_xyz
x,y,z
-x,y,1/2-z
-x,-y,-z
x,-y,1/2+z
1/2+x,1/2+y,z
1/2-x,1/2+y,1/2-z
1/2-x,1/2-y,-z
1/2+x,1/2-y,1/2+z
loop_
_atom_site_type_symbol
_atom_site_label
_atom_site_fract_x
_atom_site_fract_y
_atom_site_fract_z
Si Si1 0.103149 0.030183 0.846604
Si Si2 0.240716 0.558176 0.610569
Si Si3 0.957926 0.394826 0.377855
Si Si4 0.640172 0.433930 0.162651
Si Si5 0.000000 0.204267 0.250000
Si Si6 0.891562 0.631655 0.432259
Si Si7 0.376045 0.290512 0.975691
O O1 0.191253 0.017619 0.910776
O O2 0.092202 0.047300 0.726601
O O3 0.054875 0.897700 0.842552
O O4 0.087387 0.161456 0.902625
O O5 0.279587 0.582588 0.737865
O O6 0.183575 0.433435 0.581964
O O7 0.196219 0.697731 0.555034
O O8 0.949521 0.302591 0.280056
O O9 0.917197 0.542563 0.357001
O O10 0.926666 0.306295 0.444716
O O11 0.044157 0.403989 0.452053
O O12 0.616131 0.293800 0.094948
O O13 0.637319 0.568635 0.093907
#
# Coordination Sequence:
#
# PCOD9280746 Si02
#       7
#     8   8   8   8   4   8   8
#     4  10  24  35  65  91 119 158 207 250 295 365
#     4   9  21  40  60  90 124 157 205 248 299 367
#     4  10  23  40  64  84 127 159 196 258 305 363
#     4  10  21  37  63  91 116 163 205 247 297 360
#     4  12  22  44  58  98 120 160 210 250 304 368
#     4  10  21  42  60  91 120 162 202 245 315 353
#     4  11  20  41  63  88 125 159 200 258 304 351
#
# _framework density 20.909292000000001
#
# number of rings (size 3 to 8) (size 9 to 14) (size 15 to 20)
#    0.923    0.923    1.538    2.308    2.154    1.231 
#    8.308    4.615    0.000    0.000    0.000    0.000 
#    0.000    0.000    0.000    0.000    0.000    0.000 
#
# Total GULP energy -144940.452606 kJ/mol
# GULP energy per Si atom -5574.632793 kJ/mol
# Density = 2.086170 g / cm^3
# Si number density = 20.909292 Si / 1000 Ang^3
#
#
#
# Elastic Constant Matrix: (Units=GPa)
#
#
# Indices 1 2 3 4 5 6 
#
# 1 73.1544 13.9261 10.6795 0.0000 6.8799 0.0000
# 2 13.9261 114.0636 14.6548 0.0000 2.4933 0.0000
# 3 10.6795 14.6548 30.8537 0.0000 -2.6995 0.0000
# 4 0.0000 0.0000 0.0000 30.0166 0.0000 5.4340
# 5 6.8799 2.4933 -2.6995 0.0000 27.3624 0.0000
# 6 0.0000 0.0000 0.0000 5.4340 0.0000 23.8411
#
#
#
# Elastic Compliance Matrix: (Units=1/GPa)
#
#
# Indices 1 2 3 4 5 6 
#
# 1 0.015006 -0.001093 -0.005040 0.000000 -0.004171 0.000000
# 2 -0.001093 0.009463 -0.004204 0.000000 -0.001002 0.000000
# 3 -0.005040 -0.004204 0.036613 0.000000 0.005262 0.000000
# 4 0.000000 0.000000 0.000000 0.034749 0.000000 -0.007920
# 5 -0.004171 -0.001002 0.005262 0.000000 0.038206 0.000000
# 6 0.000000 0.000000 0.000000 -0.007920 0.000000 0.043750
#
#
# Mechanical properties :
#
#
# Convention : Reuss Voigt Hill
#
# Bulk Modulus (GPa) = 24.74791 32.95472 28.85132
# Shear Modulus (GPa) = 23.59300 28.16477 25.87888
#
# Velocity S-wave (km/s) = 3.36274 3.67413 3.52188
# Velocity P-wave (km/s) = 5.19027 5.81326 5.51057
#
# Compressibility (1/GPa) = 0.04040745
#
# Stress axis : x y z
#
# Youngs Moduli (GPa) = 66.64085 105.68007 27.31308
#
# Poissons Ratio (x) = 0.11555 0.13765
# Poissons Ratio (y) = 0.07287 0.11482
# Poissons Ratio (z) = 0.33584 0.44424
#
# Static dielectric constant tensor:
#      x y z
#    x 1.774620 0.000000 -0.014660 
#    y 0.000000 1.738110 0.000000 
#    z -0.014660 0.000000 1.777420 
# 
# From -- ./inp_files/172026.got.cif
#   From: 2010.05.17/outbox.cif.g08.bks.cpg/sg15_87_cif.got.tgz:172026.got - 2010.06.03 18:47:42.
