data_PCOD9280359
_publ_section_title
;
Structure prediction by ZEFSAII (Michael W. Deem and Ramdas Pophale) SiO2 
 PCOD9280359
Probable space group: C 2/C
;
_chemical_formula_sum "Si O2"
_cell_formula_units_Z 40
_cell_length_a 17.337803
_cell_length_b 18.076216
_cell_length_c 9.024495
_cell_angle_alpha 90.000000
_cell_angle_beta 43.405755
_cell_angle_gamma 90.000000
_cell_volume 1943.491626
_symmetry_space_group_name_H-M "C 2/C"
_symmetry_group_IT_number 15
_symmetry_cell_setting 'monoclinic'
loop_
_space_group_symop_operation_xyz
x,y,z
-x,y,1/2-z
-x,-y,-z
x,-y,1/2+z
1/2+x,1/2+y,z
1/2-x,1/2+y,1/2-z
1/2-x,1/2-y,-z
1/2+x,1/2-y,1/2+z
loop_
_atom_site_type_symbol
_atom_site_label
_atom_site_fract_x
_atom_site_fract_y
_atom_site_fract_z
Si Si1 0.617990 0.477548 0.149435
Si Si2 0.843799 0.840614 0.218242
Si Si3 0.149907 0.429677 0.785791
Si Si4 0.000000 0.514661 0.750000
Si Si5 0.377533 0.205359 0.368141
Si Si6 0.500000 0.378397 0.750000
O O1 0.500000 0.447307 0.250000
O O2 0.646439 0.426864 0.250822
O O3 0.585884 0.563961 0.212618
O O4 0.726409 0.465294 0.895097
O O5 0.714458 0.816450 0.379898
O O6 0.877117 0.789081 0.310831
O O7 0.927146 0.831448 0.965713
O O8 0.074335 0.468066 0.762797
O O9 0.155674 0.344964 0.726423
O O10 0.087455 0.440266 0.027418
O O11 0.500000 0.185984 0.250000
#
# Coordination Sequence:
#
# PCOD9280359 Si02
#       6
#     8   8   8   4   8   4
#     4   9  21  35  59  83 117 152 188 244 291 347
#     4  10  21  38  57  86 114 157 194 239 297 353
#     4  10  21  37  59  84 118 155 200 236 304 344
#     4  10  22  35  55  88 112 152 194 254 282 358
#     4  10  21  39  60  79 117 158 196 239 293 357
#     4  10  22  35  59  86 120 144 198 250 288 346
#
# _framework density 20.581513000000001
#
# number of rings (size 3 to 8) (size 9 to 14) (size 15 to 20)
#    0.600    1.600    1.000    1.200    5.600    0.800 
#    0.000    1.000    0.000    0.000    0.000    0.000 
#    0.000    0.000    0.000    0.000    0.000    0.000 
#
# Total GULP energy -111453.428378 kJ/mol
# GULP energy per Si atom -5572.671419 kJ/mol
# Density = 2.053467 g / cm^3
# Si number density = 20.581513 Si / 1000 Ang^3
#
#
#
# Elastic Constant Matrix: (Units=GPa)
#
#
# Indices 1 2 3 4 5 6 
#
# 1 64.0785 19.9959 51.1415 0.0000 -24.6003 0.0000
# 2 19.9959 56.4127 31.1396 0.0000 -3.3840 0.0000
# 3 51.1415 31.1396 219.5344 0.0000 -20.8623 0.0000
# 4 0.0000 0.0000 0.0000 -62.9315 0.0000 -0.1994
# 5 -24.6003 -3.3840 -20.8623 0.0000 40.2272 0.0000
# 6 0.0000 0.0000 0.0000 -0.1994 0.0000 12.2004
#
#
#
# Elastic Compliance Matrix: (Units=1/GPa)
#
#
# Indices 1 2 3 4 5 6 
#
# 1 0.025668 -0.006182 -0.003850 0.000000 0.013180 0.000000
# 2 -0.006182 0.020723 -0.001781 0.000000 -0.002961 0.000000
# 3 -0.003850 -0.001781 0.005750 0.000000 0.000478 0.000000
# 4 0.000000 0.000000 0.000000 -0.015889 0.000000 -0.000260
# 5 0.013180 -0.002961 0.000478 0.000000 0.032918 0.000000
# 6 0.000000 0.000000 0.000000 -0.000260 0.000000 0.081960
#
#
# Mechanical properties :
#
#
# Convention : Reuss Voigt Hill
#
# Bulk Modulus (GPa) = 35.06933 60.50886 47.78910
# Shear Modulus (GPa) = 27.13562 13.74913 20.44237
#
# Velocity S-wave (km/s) = 3.63498 2.58744 3.15499
# Velocity P-wave (km/s) = 5.89013 6.19596 6.04498
#
# Compressibility (1/GPa) = 0.02851494
#
# Stress axis : x y z
#
# Youngs Moduli (GPa) = 38.95951 48.25524 173.91477
#
# Poissons Ratio (x) = 0.29833 0.66957
# Poissons Ratio (y) = 0.24086 0.30968
# Poissons Ratio (z) = 0.14999 0.08592
#
# Static dielectric constant tensor:
#      x y z
#    x 1.769060 0.000000 -0.025530 
#    y 0.000000 1.782720 0.000000 
#    z -0.025530 0.000000 1.768640 
# 
# From -- ./inp_files/49996.got.cif
#   From: 2010.05.17/outbox.cif.g08.bks.cpg/sg15_25_cif.got.tgz:49996.got - 2010.06.03 18:47:42.
