data_PCOD9280927
_publ_section_title
;
Structure prediction by ZEFSAII (Michael W. Deem and Ramdas Pophale) SiO2 
 PCOD9280927
Probable space group: C 2/C
;
_chemical_formula_sum "Si O2"
_cell_formula_units_Z 60
_cell_length_a 7.496611
_cell_length_b 17.368135
_cell_length_c 23.683465
_cell_angle_alpha 90.000000
_cell_angle_beta 109.313969
_cell_angle_gamma 90.000000
_cell_volume 2910.092011
_symmetry_space_group_name_H-M "C 2/C"
_symmetry_group_IT_number 15
_symmetry_cell_setting 'monoclinic'
loop_
_space_group_symop_operation_xyz
x,y,z
-x,y,1/2-z
-x,-y,-z
x,-y,1/2+z
1/2+x,1/2+y,z
1/2-x,1/2+y,1/2-z
1/2-x,1/2-y,-z
1/2+x,1/2-y,1/2+z
loop_
_atom_site_type_symbol
_atom_site_label
_atom_site_fract_x
_atom_site_fract_y
_atom_site_fract_z
Si Si1 0.947713 0.375808 0.566077
Si Si2 0.500000 0.458503 0.250000
Si Si3 0.609723 0.987279 0.153486
Si Si4 0.640722 0.846025 0.075228
Si Si5 0.569126 0.300706 0.966942
Si Si6 0.232571 0.070075 0.664975
Si Si7 0.554724 0.548773 0.061105
Si Si8 0.542584 0.701250 0.593028
O O1 0.923385 0.369568 0.495379
O O2 0.741422 0.399561 0.568937
O O3 0.027270 0.293236 0.594911
O O4 0.068894 0.442978 0.606671
O O5 0.321506 0.498440 0.199713
O O6 0.371382 0.419096 0.285712
O O7 0.587859 0.911695 0.112625
O O8 0.439646 0.970467 0.181163
O O9 0.560452 0.760674 0.078006
O O10 0.863620 0.835835 0.104266
O O11 0.597063 0.383879 0.942232
O O12 0.750000 0.250000 0.000000
O O13 0.501850 0.317167 0.023411
O O14 0.222423 0.153859 0.633508
O O15 0.102017 0.011643 0.614594
O O16 0.500000 0.500000 0.000000
#
# Coordination Sequence:
#
# PCOD9280927 Si02
#       8
#     8   4   8   8   8   8   8   8
#     4  10  21  37  66  98 140 170 208 266 336 392
#     4  12  26  48  68  88 128 176 224 282 318 378
#     4  11  25  42  70  97 124 176 224 269 321 395
#     4  11  19  37  64  98 138 171 206 258 339 397
#     4  11  21  32  55  98 142 170 202 261 325 394
#     4  11  24  42  71  94 124 169 231 268 326 393
#     4  11  20  36  61  97 135 171 212 267 326 395
#     4  11  19  40  62  96 135 175 205 261 334 401
#
# _framework density 20.617906000000001
#
# number of rings (size 3 to 8) (size 9 to 14) (size 15 to 20)
#    0.000    1.067    5.333    2.400    1.867    2.133 
#    0.000    0.000   11.733    0.000    0.000    0.000 
#    0.000    0.000    0.000    0.000    0.000    0.000 
#
# Total GULP energy -167073.877477 kJ/mol
# GULP energy per Si atom -5569.129249 kJ/mol
# Density = 2.057098 g / cm^3
# Si number density = 20.617906 Si / 1000 Ang^3
#
#
#
# Elastic Constant Matrix: (Units=GPa)
#
#
# Indices 1 2 3 4 5 6 
#
# 1 85.7322 27.4940 16.7910 0.0000 6.8342 0.0000
# 2 27.4940 128.1187 32.6919 0.0000 -2.1081 0.0000
# 3 16.7910 32.6919 59.8866 0.0000 -0.9175 0.0000
# 4 0.0000 0.0000 0.0000 3.5697 0.0000 5.1312
# 5 6.8342 -2.1081 -0.9175 0.0000 34.7203 0.0000
# 6 0.0000 0.0000 0.0000 5.1312 0.0000 26.4201
#
#
#
# Elastic Compliance Matrix: (Units=1/GPa)
#
#
# Indices 1 2 3 4 5 6 
#
# 1 0.013086 -0.002215 -0.002502 0.000000 -0.002776 0.000000
# 2 -0.002215 0.009450 -0.004524 0.000000 0.000890 0.000000
# 3 -0.002502 -0.004524 0.019881 0.000000 0.000743 0.000000
# 4 0.000000 0.000000 0.000000 0.388634 0.000000 -0.075479
# 5 -0.002776 0.000890 0.000743 0.000000 0.029422 0.000000
# 6 0.000000 0.000000 0.000000 -0.075479 0.000000 0.052509
#
#
# Mechanical properties :
#
#
# Convention : Reuss Voigt Hill
#
# Bulk Modulus (GPa) = 41.78215 47.52125 44.65170
# Shear Modulus (GPa) = 9.26883 26.05939 17.66411
#
# Velocity S-wave (km/s) = 2.12257 3.55902 2.93018
# Velocity P-wave (km/s) = 5.12991 6.32356 5.75775
#
# Compressibility (1/GPa) = 0.02393366
#
# Stress axis : x y z
#
# Youngs Moduli (GPa) = 76.41689 105.82394 50.30010
#
# Poissons Ratio (x) = 0.23445 0.12586
# Poissons Ratio (y) = 0.16930 0.22754
# Poissons Ratio (z) = 0.19121 0.47872
#
# Static dielectric constant tensor:
#      x y z
#    x 1.894460 0.000000 0.081820 
#    y 0.000000 1.691260 0.000000 
#    z 0.081820 0.000000 1.628520 
# 
# From -- ./inp_files/265311.got.cif
#   From: 2010.05.17/outbox.cif.g08.bks.cpg/sg15_133_cif.got.tgz:265311.got - 2010.06.03 18:47:42.
