data_PCOD9280166
_publ_section_title
;
Structure prediction by ZEFSAII (Michael W. Deem and Ramdas Pophale) SiO2 
 PCOD9280166
Probable space group: C 2/C
;
_chemical_formula_sum "Si O2"
_cell_formula_units_Z 48
_cell_length_a 30.080352
_cell_length_b 16.707570
_cell_length_c 7.962647
_cell_angle_alpha 90.000000
_cell_angle_beta 31.651657
_cell_angle_gamma 90.000000
_cell_volume 2099.950659
_symmetry_space_group_name_H-M "C 2/C"
_symmetry_group_IT_number 15
_symmetry_cell_setting 'monoclinic'
loop_
_space_group_symop_operation_xyz
x,y,z
-x,y,1/2-z
-x,-y,-z
x,-y,1/2+z
1/2+x,1/2+y,z
1/2-x,1/2+y,1/2-z
1/2-x,1/2-y,-z
1/2+x,1/2-y,1/2+z
loop_
_atom_site_type_symbol
_atom_site_label
_atom_site_fract_x
_atom_site_fract_y
_atom_site_fract_z
Si Si1 0.634626 0.010513 0.673620
Si Si2 0.756178 0.863444 0.303646
Si Si3 0.442642 0.741833 0.800054
Si Si4 0.789022 0.347893 0.411862
Si Si5 0.670501 0.694331 0.603684
Si Si6 0.017666 0.383675 0.362977
O O1 0.653277 0.072393 0.764091
O O2 0.606527 0.073418 0.616884
O O3 0.712853 0.950167 0.437725
O O4 0.553290 0.952688 0.932915
O O5 0.772503 0.852708 0.052055
O O6 0.691786 0.789548 0.555157
O O7 0.823240 0.849920 0.237570
O O8 0.500000 0.697236 0.750000
O O9 0.496407 0.820278 0.573766
O O10 0.355919 0.778420 0.154802
O O11 0.415522 0.691328 0.725472
O O12 0.741155 0.338351 0.742980
O O13 0.000000 0.335827 0.250000
#
# Coordination Sequence:
#
# PCOD9280166 Si02
#       6
#     8   8   8   8   8   8
#     4  11  22  33  56  87 126 159 197 239 290 362
#     4  10  21  37  55  80 117 155 205 238 282 357
#     4  11  21  40  54  81 119 159 204 241 283 362
#     4  11  22  37  58  83 118 160 198 248 293 342
#     4  10  23  39  58  78 118 165 200 248 293 344
#     4  11  23  32  52  86 127 163 190 227 294 358
#
# _framework density 22.857679999999998
#
# number of rings (size 3 to 8) (size 9 to 14) (size 15 to 20)
#    0.000    1.333    5.000    3.000    7.000    0.000 
#    3.000    0.000    0.000    0.000    0.000    1.167 
#    0.000    0.000    0.000    0.000    0.000    0.000 
#
# Total GULP energy -133729.196438 kJ/mol
# GULP energy per Si atom -5572.049852 kJ/mol
# Density = 2.280566 g / cm^3
# Si number density = 22.857680 Si / 1000 Ang^3
#
#
#
# Elastic Constant Matrix: (Units=GPa)
#
#
# Indices 1 2 3 4 5 6 
#
# 1 234.7302 40.2713 24.5246 0.0000 -23.0300 0.0000
# 2 40.2713 58.2090 20.5033 0.0000 -11.3181 0.0000
# 3 24.5246 20.5033 25.5608 0.0000 2.3679 0.0000
# 4 0.0000 0.0000 0.0000 31.8120 0.0000 -5.3061
# 5 -23.0300 -11.3181 2.3679 0.0000 31.0842 0.0000
# 6 0.0000 0.0000 0.0000 -5.3061 0.0000 38.1552
#
#
#
# Elastic Compliance Matrix: (Units=1/GPa)
#
#
# Indices 1 2 3 4 5 6 
#
# 1 0.005324 -0.001440 -0.004301 0.000000 0.003748 0.000000
# 2 -0.001440 0.028088 -0.022154 0.000000 0.010848 0.000000
# 3 -0.004301 -0.022154 0.062503 0.000000 -0.016014 0.000000
# 4 0.000000 0.000000 0.000000 0.032181 0.000000 0.004475
# 5 0.003748 0.010848 -0.016014 0.000000 0.040117 0.000000
# 6 0.000000 0.000000 0.000000 0.004475 0.000000 0.026831
#
#
# Mechanical properties :
#
#
# Convention : Reuss Voigt Hill
#
# Bulk Modulus (GPa) = 24.92142 54.34425 39.63283
# Shear Modulus (GPa) = 18.92436 35.75701 27.34068
#
# Velocity S-wave (km/s) = 2.88048 3.95945 3.46226
# Velocity P-wave (km/s) = 4.68929 6.68803 5.77578
#
# Compressibility (1/GPa) = 0.04012613
#
# Stress axis : x y z
#
# Youngs Moduli (GPa) = 187.81750 35.60187 15.99931
#
# Poissons Ratio (x) = 0.05127 0.06881
# Poissons Ratio (y) = 0.27045 0.35445
# Poissons Ratio (z) = 0.80773 0.78873
#
# Static dielectric constant tensor:
#      x y z
#    x 2.026170 0.000000 0.074930 
#    y 0.000000 1.874850 0.000000 
#    z 0.074930 0.000000 1.917620 
# 
# From -- ./inp_files/70554.got.cif
#   From: 2010.05.17/outbox.cif.g08.bks.cpg/sg15_36_cif.got.tgz:70554.got - 2010.06.03 18:47:42.
