data_PCOD9280165
_publ_section_title
;
Structure prediction by ZEFSAII (Michael W. Deem and Ramdas Pophale) SiO2 
 PCOD9280165
Probable space group: C 2/C
;
_chemical_formula_sum "Si O2"
_cell_formula_units_Z 32
_cell_length_a 7.999450
_cell_length_b 18.797029
_cell_length_c 10.590882
_cell_angle_alpha 90.000000
_cell_angle_beta 63.662444
_cell_angle_gamma 90.000000
_cell_volume 1427.198500
_symmetry_space_group_name_H-M "C 2/C"
_symmetry_group_IT_number 15
_symmetry_cell_setting 'monoclinic'
loop_
_space_group_symop_operation_xyz
x,y,z
-x,y,1/2-z
-x,-y,-z
x,-y,1/2+z
1/2+x,1/2+y,z
1/2-x,1/2+y,1/2-z
1/2-x,1/2-y,-z
1/2+x,1/2-y,1/2+z
loop_
_atom_site_type_symbol
_atom_site_label
_atom_site_fract_x
_atom_site_fract_y
_atom_site_fract_z
Si Si1 0.951452 0.170177 0.591749
Si Si2 0.607465 0.079801 0.588454
Si Si3 0.391005 0.475931 0.411102
Si Si4 0.108606 0.716844 0.846734
O O1 0.788373 0.126312 0.571483
O O2 0.824614 0.211185 0.736698
O O3 0.091691 0.109121 0.591610
O O4 0.055724 0.223942 0.464838
O O5 0.500000 0.053070 0.750000
O O6 0.470969 0.140301 0.580427
O O7 0.692330 0.014621 0.482405
O O8 0.500000 0.500261 0.250000
O O9 0.500000 0.500000 0.500000
O O10 0.000000 0.731778 0.750000
#
# Coordination Sequence:
#
# PCOD9280165 Si02
#       4
#     8   8   8   8
#     4   9  18  31  50  79 109 138 179 230 271 317
#     4   8  16  32  54  81 107 139 187 233 265 317
#     4  10  21  37  55  79 112 147 183 227 275 327
#     4   9  16  30  53  81 107 140 184 226 265 325
#
# _framework density 22.421547
#
# number of rings (size 3 to 8) (size 9 to 14) (size 15 to 20)
#    0.000    3.500    0.000    3.000    0.000    8.000 
#    0.000   15.000    0.000    0.000    0.000    0.000 
#    0.000    0.000    0.000    0.000    0.000    0.000 
#
# Total GULP energy -89296.667084 kJ/mol
# GULP energy per Si atom -5581.041693 kJ/mol
# Density = 2.237051 g / cm^3
# Si number density = 22.421547 Si / 1000 Ang^3
#
#
#
# Elastic Constant Matrix: (Units=GPa)
#
#
# Indices 1 2 3 4 5 6 
#
# 1 109.0714 33.0804 47.6174 0.0000 -18.1158 0.0000
# 2 33.0804 122.8183 125.8674 0.0000 -35.5368 0.0000
# 3 47.6174 125.8674 192.5932 0.0000 -31.9724 0.0000
# 4 0.0000 0.0000 0.0000 23.9355 0.0000 17.4466
# 5 -18.1158 -35.5368 -31.9724 0.0000 33.3915 0.0000
# 6 0.0000 0.0000 0.0000 17.4466 0.0000 -1.7368
#
#
#
# Elastic Compliance Matrix: (Units=1/GPa)
#
#
# Indices 1 2 3 4 5 6 
#
# 1 0.010725 0.001095 -0.002625 0.000000 0.004470 0.000000
# 2 0.001095 0.030484 -0.017489 0.000000 0.016291 0.000000
# 3 -0.002625 -0.017489 0.016580 0.000000 -0.004161 0.000000
# 4 0.000000 0.000000 0.000000 0.005020 0.000000 0.050430
# 5 0.004470 0.016291 -0.004161 0.000000 0.045727 0.000000
# 6 0.000000 0.000000 0.000000 0.050430 0.000000 -0.069187
#
#
# Mechanical properties :
#
#
# Convention : Reuss Voigt Hill
#
# Bulk Modulus (GPa) = 50.62966 93.06815 71.84890
# Shear Modulus (GPa) = 59.54544 25.64589 42.59566
#
# Velocity S-wave (km/s) = 5.15896 3.38569 4.36336
# Velocity P-wave (km/s) = 7.62341 7.54204 7.58283
#
# Compressibility (1/GPa) = 0.01975127
#
# Stress axis : x y z
#
# Youngs Moduli (GPa) = 93.24237 32.80458 60.31316
#
# Poissons Ratio (x) = -0.03593 0.15834
# Poissons Ratio (y) = -0.10214 1.05479
# Poissons Ratio (z) = 0.24479 0.57371
#
# Static dielectric constant tensor:
#      x y z
#    x 1.956650 0.000000 0.050470 
#    y 0.000000 1.826100 0.000000 
#    z 0.050470 0.000000 1.815080 
# 
# From -- ./inp_files/22069.got.cif
#   From: 2010.05.17/outbox.cif.g08.bks.cpg/sg15_12_cif.got.tgz:22069.got - 2010.06.03 18:47:42.
