data_PCOD9280172
_publ_section_title
;
Structure prediction by ZEFSAII (Michael W. Deem and Ramdas Pophale) SiO2 
 PCOD9280172
Probable space group: C 2/C
;
_chemical_formula_sum "Si O2"
_cell_formula_units_Z 48
_cell_length_a 14.509354
_cell_length_b 29.020916
_cell_length_c 5.539672
_cell_angle_alpha 90.000000
_cell_angle_beta 77.747118
_cell_angle_gamma 90.000000
_cell_volume 2279.479985
_symmetry_space_group_name_H-M "C 2/C"
_symmetry_group_IT_number 15
_symmetry_cell_setting 'monoclinic'
loop_
_space_group_symop_operation_xyz
x,y,z
-x,y,1/2-z
-x,-y,-z
x,-y,1/2+z
1/2+x,1/2+y,z
1/2-x,1/2+y,1/2-z
1/2-x,1/2-y,-z
1/2+x,1/2-y,1/2+z
loop_
_atom_site_type_symbol
_atom_site_label
_atom_site_fract_x
_atom_site_fract_y
_atom_site_fract_z
Si Si1 0.678285 0.852859 0.423446
Si Si2 0.000000 0.867662 0.250000
Si Si3 0.000000 0.349691 0.250000
Si Si4 0.593738 0.779285 0.827050
Si Si5 0.167111 0.887184 0.847445
Si Si6 0.151516 0.184495 0.985689
Si Si7 0.613503 0.475166 0.659109
O O1 0.583054 0.872984 0.358632
O O2 0.650802 0.807409 0.593783
O O3 0.735006 0.886977 0.566967
O O4 0.754333 0.836248 0.185274
O O5 0.061057 0.837716 0.402851
O O6 0.921520 0.897265 0.430630
O O7 0.943177 0.316965 0.464315
O O8 0.500000 0.759832 0.750000
O O9 0.645920 0.738575 0.937983
O O10 0.151404 0.835228 0.756282
O O11 0.158359 0.924233 0.642450
O O12 0.500000 0.471800 0.750000
O O13 0.641590 0.499170 0.392720
#
# Coordination Sequence:
#
# PCOD9280172 Si02
#       7
#     8   4   4   8   8   8   8
#     4  10  23  38  56  82 115 154 211 254 306 356
#     4  10  22  34  52  84 123 156 199 246 290 358
#     4  10  22  38  58  74 113 156 205 256 306 356
#     4  10  21  37  55  81 116 161 205 250 305 358
#     4  11  24  37  59  88 121 158 205 250 305 367
#     4  11  21  35  57  82 118 157 200 250 298 357
#     4  10  23  40  65  93 129 167 201 247 310 386
#
# _framework density 21.057434000000001
#
# number of rings (size 3 to 8) (size 9 to 14) (size 15 to 20)
#    0.000    1.667    0.833    3.000   10.500    4.000 
#    0.000    0.000    0.000    0.000    0.000    1.167 
#    0.000    0.000    0.000    0.000    0.000    0.000 
#
# Total GULP energy -134121.032686 kJ/mol
# GULP energy per Si atom -5588.376362 kJ/mol
# Density = 2.100951 g / cm^3
# Si number density = 21.057434 Si / 1000 Ang^3
#
#
#
# Elastic Constant Matrix: (Units=GPa)
#
#
# Indices 1 2 3 4 5 6 
#
# 1 136.1305 25.8173 34.1462 0.0000 21.5007 0.0000
# 2 25.8173 45.9195 17.0777 0.0000 3.0490 0.0000
# 3 34.1462 17.0777 73.6286 0.0000 8.0802 0.0000
# 4 0.0000 0.0000 0.0000 -50.4414 0.0000 -21.9610
# 5 21.5007 3.0490 8.0802 0.0000 32.2095 0.0000
# 6 0.0000 0.0000 0.0000 -21.9610 0.0000 0.7212
#
#
#
# Elastic Compliance Matrix: (Units=1/GPa)
#
#
# Indices 1 2 3 4 5 6 
#
# 1 0.009695 -0.003986 -0.002985 0.000000 -0.005345 0.000000
# 2 -0.003986 0.025497 -0.004208 0.000000 0.001303 0.000000
# 3 -0.002985 -0.004208 0.016124 0.000000 -0.001654 0.000000
# 4 0.000000 0.000000 0.000000 -0.001391 0.000000 -0.042341
# 5 -0.005345 0.001303 -0.001654 0.000000 0.034907 0.000000
# 6 0.000000 0.000000 0.000000 -0.042341 0.000000 0.097252
#
#
# Mechanical properties :
#
#
# Convention : Reuss Voigt Hill
#
# Bulk Modulus (GPa) = 34.53384 45.52898 40.03141
# Shear Modulus (GPa) = 23.35426 8.40702 15.88064
#
# Velocity S-wave (km/s) = 3.33389 2.00027 2.74917
# Velocity P-wave (km/s) = 5.59063 5.19645 5.39714
#
# Compressibility (1/GPa) = 0.02895710
#
# Stress axis : x y z
#
# Youngs Moduli (GPa) = 103.14839 39.22075 62.02082
#
# Poissons Ratio (x) = 0.15632 0.18513
# Poissons Ratio (y) = 0.41111 0.26101
# Poissons Ratio (z) = 0.30790 0.16506
#
# Static dielectric constant tensor:
#      x y z
#    x 1.772120 0.000000 0.032830 
#    y 0.000000 1.746410 0.000000 
#    z 0.032830 0.000000 1.866190 
# 
# From -- ./inp_files/8728.got.cif
#   From: 2010.05.17/outbox.cif.g08.bks.cpg/sg15_5_cif.got.tgz:8728.got - 2010.06.03 18:47:42.
