data_PCOD9280888
_publ_section_title
;
Structure prediction by ZEFSAII (Michael W. Deem and Ramdas Pophale) SiO2 
 PCOD9280888
Probable space group: C 2/C
;
_chemical_formula_sum "Si O2"
_cell_formula_units_Z 56
_cell_length_a 14.437276
_cell_length_b 13.908406
_cell_length_c 21.277938
_cell_angle_alpha 90.000000
_cell_angle_beta 142.108939
_cell_angle_gamma 90.000000
_cell_volume 2624.068445
_symmetry_space_group_name_H-M "C 2/C"
_symmetry_group_IT_number 15
_symmetry_cell_setting 'monoclinic'
loop_
_space_group_symop_operation_xyz
x,y,z
-x,y,1/2-z
-x,-y,-z
x,-y,1/2+z
1/2+x,1/2+y,z
1/2-x,1/2+y,1/2-z
1/2-x,1/2-y,-z
1/2+x,1/2-y,1/2+z
loop_
_atom_site_type_symbol
_atom_site_label
_atom_site_fract_x
_atom_site_fract_y
_atom_site_fract_z
Si Si1 0.044570 0.822725 0.345311
Si Si2 0.486468 0.806709 0.104033
Si Si3 0.403495 0.986002 0.827331
Si Si4 0.720391 0.204435 0.892341
Si Si5 0.696203 0.116249 0.430517
Si Si6 0.676832 0.491953 0.097803
Si Si7 0.717370 0.777135 0.714494
O O1 0.163555 0.891356 0.445521
O O2 0.137125 0.723665 0.391689
O O3 0.000000 0.852097 0.250000
O O4 0.902881 0.790792 0.313200
O O5 0.432559 0.799913 0.148498
O O6 0.622572 0.732445 0.164272
O O7 0.542125 0.913166 0.113501
O O8 0.337036 0.775311 0.988530
O O9 0.553526 0.949352 0.871780
O O10 0.263210 0.019384 0.709300
O O11 0.345387 0.885847 0.826875
O O12 0.740327 0.235629 0.830856
O O13 0.777041 0.095038 0.922734
O O14 0.754754 0.087845 0.394136
O O15 0.500000 0.500000 0.000000
#
# Coordination Sequence:
#
# PCOD9280888 Si02
#       7
#     8   8   8   8   8   8   8
#     4  10  22  41  64  97 143 185 227 303 362 415
#     4  11  24  44  68 100 142 183 234 289 359 421
#     4  11  23  41  69  99 137 181 234 291 350 418
#     4  11  24  42  69  97 141 187 228 295 351 421
#     4  10  21  37  65  97 130 179 239 277 358 418
#     4  12  22  38  69 102 131 179 242 293 335 429
#     4  11  23  41  68 103 135 184 237 293 351 420
#
# _framework density 21.340907000000001
#
# number of rings (size 3 to 8) (size 9 to 14) (size 15 to 20)
#    0.000    1.143    2.857    4.286    0.000    4.000 
#    0.000    0.000    0.000    0.000    0.000    0.000 
#    0.000    0.000    0.000    0.000    0.000    0.000 
#
# Total GULP energy -156076.289314 kJ/mol
# GULP energy per Si atom -5574.153190 kJ/mol
# Density = 2.129233 g / cm^3
# Si number density = 21.340907 Si / 1000 Ang^3
#
#
#
# Elastic Constant Matrix: (Units=GPa)
#
#
# Indices 1 2 3 4 5 6 
#
# 1 97.5981 36.7662 26.5028 0.0000 23.8885 0.0000
# 2 36.7662 71.2376 18.2229 0.0000 17.0010 0.0000
# 3 26.5028 18.2229 77.0225 0.0000 18.2876 0.0000
# 4 0.0000 0.0000 0.0000 33.5722 0.0000 2.4454
# 5 23.8885 17.0010 18.2876 0.0000 39.9129 0.0000
# 6 0.0000 0.0000 0.0000 2.4454 0.0000 33.3181
#
#
#
# Elastic Compliance Matrix: (Units=1/GPa)
#
#
# Indices 1 2 3 4 5 6 
#
# 1 0.014210 -0.005516 -0.002382 0.000000 -0.005064 0.000000
# 2 -0.005516 0.018164 -0.001511 0.000000 -0.003743 0.000000
# 3 -0.002382 -0.001511 0.015338 0.000000 -0.004958 0.000000
# 4 0.000000 0.000000 0.000000 0.029947 0.000000 -0.002198
# 5 -0.005064 -0.003743 -0.004958 0.000000 0.031952 0.000000
# 6 0.000000 0.000000 0.000000 -0.002198 0.000000 0.030175
#
#
# Mechanical properties :
#
#
# Convention : Reuss Voigt Hill
#
# Bulk Modulus (GPa) = 34.60906 45.42690 40.01798
# Shear Modulus (GPa) = 29.72026 32.31840 31.01933
#
# Velocity S-wave (km/s) = 3.73586 3.89573 3.81664
# Velocity P-wave (km/s) = 5.90435 6.44734 6.18181
#
# Compressibility (1/GPa) = 0.02889417
#
# Stress axis : x y z
#
# Youngs Moduli (GPa) = 70.37050 55.05306 65.19942
#
# Poissons Ratio (x) = 0.30368 0.15532
# Poissons Ratio (y) = 0.38818 0.09849
# Poissons Ratio (z) = 0.16764 0.08317
#
# Static dielectric constant tensor:
#      x y z
#    x 1.791510 0.000000 -0.056180 
#    y 0.000000 1.810500 0.000000 
#    z -0.056180 0.000000 1.864110 
# 
# From -- ./inp_files/274192.got.cif
#   From: 2010.05.17/outbox.cif.g08.bks.cpg/sg15_138_cif.got.tgz:274192.got - 2010.06.03 18:47:42.
