data_PCOD9280847
_publ_section_title
;
Structure prediction by ZEFSAII (Michael W. Deem and Ramdas Pophale) SiO2 
 PCOD9280847
Probable space group: C 2/C
;
_chemical_formula_sum "Si O2"
_cell_formula_units_Z 48
_cell_length_a 5.524685
_cell_length_b 14.198180
_cell_length_c 26.234708
_cell_angle_alpha 90.000000
_cell_angle_beta 84.757138
_cell_angle_gamma 90.000000
_cell_volume 2049.253439
_symmetry_space_group_name_H-M "C 2/C"
_symmetry_group_IT_number 15
_symmetry_cell_setting 'monoclinic'
loop_
_space_group_symop_operation_xyz
x,y,z
-x,y,1/2-z
-x,-y,-z
x,-y,1/2+z
1/2+x,1/2+y,z
1/2-x,1/2+y,1/2-z
1/2-x,1/2-y,-z
1/2+x,1/2-y,1/2+z
loop_
_atom_site_type_symbol
_atom_site_label
_atom_site_fract_x
_atom_site_fract_y
_atom_site_fract_z
Si Si1 0.531836 0.042915 0.918752
Si Si2 0.410891 0.420204 0.861437
Si Si3 0.411579 0.678386 0.948278
Si Si4 0.233049 0.286622 0.780542
Si Si5 0.696016 0.399136 0.344313
Si Si6 0.297339 0.374624 0.553586
O O1 0.751326 0.970765 0.907467
O O2 0.318013 0.978878 0.945759
O O3 0.641947 0.132652 0.944783
O O4 0.455420 0.072549 0.862884
O O5 0.250345 0.358429 0.827378
O O6 0.557018 0.505344 0.831689
O O7 0.596764 0.360289 0.891776
O O8 0.566758 0.643734 0.897499
O O9 0.394828 0.790300 0.948856
O O10 0.479928 0.641393 0.002962
O O11 0.500000 0.294322 0.750000
O O12 0.204339 0.180660 0.802151
O O13 0.000000 0.308209 0.750000
#
# Coordination Sequence:
#
# PCOD9280847 Si02
#       6
#     8   8   8   8   8   8
#     4  10  21  38  65  92 142 174 230 277 349 414
#     4  10  24  44  69  99 140 178 229 294 354 426
#     4  10  21  37  64  99 138 184 227 274 341 423
#     4  12  30  50  77 102 137 184 242 304 370 432
#     4  10  24  44  69  99 140 178 229 294 354 426
#     4  10  21  37  64  99 138 184 227 274 341 423
#
# _framework density 23.423164
#
# number of rings (size 3 to 8) (size 9 to 14) (size 15 to 20)
#    0.000    1.667    0.000    2.500   11.667    8.000 
#    0.000    4.167    0.000    0.000    0.000    0.000 
#    0.000    0.000    0.000    0.000    0.000    0.000 
#
# Total GULP energy -134110.250481 kJ/mol
# GULP energy per Si atom -5587.927103 kJ/mol
# Density = 2.336985 g / cm^3
# Si number density = 23.423164 Si / 1000 Ang^3
#
#
#
# Elastic Constant Matrix: (Units=GPa)
#
#
# Indices 1 2 3 4 5 6 
#
# 1 62.4951 19.2677 24.1992 0.0000 15.4811 0.0000
# 2 19.2677 90.5800 19.6788 0.0000 22.6655 0.0000
# 3 24.1992 19.6788 48.9553 0.0000 14.3845 0.0000
# 4 0.0000 0.0000 0.0000 33.3370 0.0000 7.8219
# 5 15.4811 22.6655 14.3845 0.0000 34.1005 0.0000
# 6 0.0000 0.0000 0.0000 7.8219 0.0000 19.9503
#
#
#
# Elastic Compliance Matrix: (Units=1/GPa)
#
#
# Indices 1 2 3 4 5 6 
#
# 1 0.020889 -0.001374 -0.008282 0.000000 -0.005077 0.000000
# 2 -0.001374 0.013765 -0.002681 0.000000 -0.007394 0.000000
# 3 -0.008282 -0.002681 0.027361 0.000000 -0.006000 0.000000
# 4 0.000000 0.000000 0.000000 0.033036 0.000000 -0.012952
# 5 -0.005077 -0.007394 -0.006000 0.000000 0.039075 0.000000
# 6 0.000000 0.000000 0.000000 -0.012952 0.000000 0.055203
#
#
# Mechanical properties :
#
#
# Convention : Reuss Voigt Hill
#
# Bulk Modulus (GPa) = 26.77995 36.48021 31.63008
# Shear Modulus (GPa) = 22.07985 26.73656 24.40820
#
# Velocity S-wave (km/s) = 3.07359 3.38221 3.23159
# Velocity P-wave (km/s) = 4.90448 5.55524 5.23997
#
# Compressibility (1/GPa) = 0.03734137
#
# Stress axis : x y z
#
# Youngs Moduli (GPa) = 47.87137 72.64798 36.54794
#
# Poissons Ratio (x) = 0.09981 0.30269
# Poissons Ratio (y) = 0.06577 0.09800
# Poissons Ratio (z) = 0.39647 0.19480
#
# Static dielectric constant tensor:
#      x y z
#    x 1.958230 0.000000 -0.024190 
#    y 0.000000 1.837080 0.000000 
#    z -0.024190 0.000000 1.901270 
# 
# From -- ./inp_files/285572.got.cif
#   From: 2010.05.17/outbox.cif.g08.bks.cpg/sg15_143_cif.got.tgz:285572.got - 2010.06.03 18:47:42.
