data_PCOD9280830
_publ_section_title
;
Structure prediction by ZEFSAII (Michael W. Deem and Ramdas Pophale) SiO2 
 PCOD9280830
Probable space group: C 2/C
;
_chemical_formula_sum "Si O2"
_cell_formula_units_Z 40
_cell_length_a 8.170816
_cell_length_b 25.438699
_cell_length_c 10.459397
_cell_angle_alpha 90.000000
_cell_angle_beta 114.620305
_cell_angle_gamma 90.000000
_cell_volume 1976.392292
_symmetry_space_group_name_H-M "C 2/C"
_symmetry_group_IT_number 15
_symmetry_cell_setting 'monoclinic'
loop_
_space_group_symop_operation_xyz
x,y,z
-x,y,1/2-z
-x,-y,-z
x,-y,1/2+z
1/2+x,1/2+y,z
1/2-x,1/2+y,1/2-z
1/2-x,1/2-y,-z
1/2+x,1/2-y,1/2+z
loop_
_atom_site_type_symbol
_atom_site_label
_atom_site_fract_x
_atom_site_fract_y
_atom_site_fract_z
Si Si1 0.911285 0.379087 0.356221
Si Si2 0.328754 0.297926 0.106182
Si Si3 0.732583 0.408651 0.888732
Si Si4 0.293160 0.024369 0.936119
Si Si5 0.890319 0.894662 0.932866
O O1 0.819440 0.323841 0.350033
O O2 0.780540 0.429255 0.328608
O O3 0.000000 0.381514 0.250000
O O4 0.066537 0.390926 0.510621
O O5 0.500000 0.284512 0.250000
O O6 0.250000 0.250000 0.000000
O O7 0.365642 0.346126 0.020635
O O8 0.601020 0.395004 0.963632
O O9 0.693310 0.386351 0.735497
O O10 0.695614 0.471072 0.868360
O O11 0.207895 0.054063 0.033320
O O12 0.500000 0.000000 0.000000
#
# Coordination Sequence:
#
# PCOD9280830 Si02
#       5
#     8   8   8   8   8
#     4  10  22  40  63  93 132 168 221 269 326 398
#     4  11  26  47  71  95 125 169 218 285 342 397
#     4  10  21  37  64  94 131 180 212 269 320 393
#     4   9  20  33  59  92 133 180 215 261 316 393
#     4  10  22  41  61  95 135 167 228 269 325 392
#
# _framework density 20.238897000000001
#
# number of rings (size 3 to 8) (size 9 to 14) (size 15 to 20)
#    0.000    2.000    0.000    1.800    8.400    5.600 
#   18.000    2.000    0.000    0.000    0.000    0.000 
#    0.000    0.000    0.000    0.000    0.000    0.000 
#
# Total GULP energy -111341.873961 kJ/mol
# GULP energy per Si atom -5567.093698 kJ/mol
# Density = 2.019283 g / cm^3
# Si number density = 20.238897 Si / 1000 Ang^3
#
#
#
# Elastic Constant Matrix: (Units=GPa)
#
#
# Indices 1 2 3 4 5 6 
#
# 1 51.4568 6.3883 16.7477 0.0000 -1.3443 0.0000
# 2 6.3883 81.4908 28.0509 0.0000 10.6773 0.0000
# 3 16.7477 28.0509 88.2978 0.0000 -2.4864 0.0000
# 4 0.0000 0.0000 0.0000 10.8959 0.0000 3.4219
# 5 -1.3443 10.6773 -2.4864 0.0000 46.2168 0.0000
# 6 0.0000 0.0000 0.0000 3.4219 0.0000 20.0818
#
#
#
# Elastic Compliance Matrix: (Units=1/GPa)
#
#
# Indices 1 2 3 4 5 6 
#
# 1 0.020730 -0.000382 -0.003797 0.000000 0.000487 0.000000
# 2 -0.000382 0.014348 -0.004586 0.000000 -0.003573 0.000000
# 3 -0.003797 -0.004586 0.013550 0.000000 0.001678 0.000000
# 4 0.000000 0.000000 0.000000 0.096967 0.000000 -0.016523
# 5 0.000487 -0.003573 0.001678 0.000000 0.022567 0.000000
# 6 0.000000 0.000000 0.000000 -0.016523 0.000000 0.052612
#
#
# Mechanical properties :
#
#
# Convention : Reuss Voigt Hill
#
# Bulk Modulus (GPa) = 32.15707 35.95768 34.05737
# Shear Modulus (GPa) = 20.10708 26.77613 23.44160
#
# Velocity S-wave (km/s) = 3.15538 3.64126 3.40699
# Velocity P-wave (km/s) = 5.40356 5.95681 5.68692
#
# Compressibility (1/GPa) = 0.03109736
#
# Stress axis : x y z
#
# Youngs Moduli (GPa) = 48.24000 69.69573 73.80216
#
# Poissons Ratio (x) = 0.02662 0.28021
# Poissons Ratio (y) = 0.01842 0.33848
# Poissons Ratio (z) = 0.18316 0.31965
#
# Static dielectric constant tensor:
#      x y z
#    x 1.853880 0.000000 0.030170 
#    y 0.000000 1.715460 0.000000 
#    z 0.030170 0.000000 1.719790 
# 
# From -- ./inp_files/24595.got.cif
#   From: 2010.05.17/outbox.cif.g08.bks.cpg/sg15_13_cif.got.tgz:24595.got - 2010.06.03 18:47:42.
