data_PCOD9280465
_publ_section_title
;
Structure prediction by ZEFSAII (Michael W. Deem and Ramdas Pophale) SiO2 
 PCOD9280465
Probable space group: C 2/C
;
_chemical_formula_sum "Si O2"
_cell_formula_units_Z 48
_cell_length_a 15.157067
_cell_length_b 27.395895
_cell_length_c 8.978870
_cell_angle_alpha 90.000000
_cell_angle_beta 39.138916
_cell_angle_gamma 90.000000
_cell_volume 2353.375554
_symmetry_space_group_name_H-M "C 2/C"
_symmetry_group_IT_number 15
_symmetry_cell_setting 'monoclinic'
loop_
_space_group_symop_operation_xyz
x,y,z
-x,y,1/2-z
-x,-y,-z
x,-y,1/2+z
1/2+x,1/2+y,z
1/2-x,1/2+y,1/2-z
1/2-x,1/2-y,-z
1/2+x,1/2-y,1/2+z
loop_
_atom_site_type_symbol
_atom_site_label
_atom_site_fract_x
_atom_site_fract_y
_atom_site_fract_z
Si Si1 0.357015 0.091675 0.864086
Si Si2 0.468150 0.143559 0.453556
Si Si3 0.293713 0.820233 0.643652
Si Si4 0.440313 0.454418 0.666590
Si Si5 0.992347 0.847371 0.943910
Si Si6 0.252578 0.722885 0.835102
O O1 0.500000 0.072553 0.750000
O O2 0.380993 0.102994 0.659454
O O3 0.340734 0.148267 0.940407
O O4 0.224043 0.060645 0.094093
O O5 0.500000 0.123703 0.250000
O O6 0.613325 0.155116 0.348788
O O7 0.388964 0.195590 0.531119
O O8 0.308851 0.762615 0.642463
O O9 0.128042 0.827058 0.850993
O O10 0.500000 0.462695 0.750000
O O11 0.500000 0.500000 0.500000
O O12 0.509126 0.404471 0.519911
O O13 0.000000 0.842112 0.750000
O O14 0.862280 0.820513 0.184479
O O15 0.250000 0.750000 0.000000
#
# Coordination Sequence:
#
# PCOD9280465 Si02
#       6
#     8   8   8   8   8   8
#     4   9  21  42  67  94 130 171 222 267 337 406
#     4  11  21  37  56  90 132 178 215 270 319 386
#     4  10  21  37  60  88 126 176 221 263 315 385
#     4  10  21  45  70  99 124 164 219 286 345 403
#     4  10  23  42  64  91 128 172 221 272 328 398
#     4  12  23  37  55  92 138 176 221 266 325 383
#
# _framework density 20.396235000000001
#
# number of rings (size 3 to 8) (size 9 to 14) (size 15 to 20)
#    0.000    1.667    1.667    4.000    0.000    4.667 
#    6.000    2.500    0.000    1.000    0.000    0.000 
#    0.000    0.000    0.000    0.000    0.000    0.000 
#
# Total GULP energy -133683.447433 kJ/mol
# GULP energy per Si atom -5570.143643 kJ/mol
# Density = 2.034981 g / cm^3
# Si number density = 20.396235 Si / 1000 Ang^3
#
#
#
# Elastic Constant Matrix: (Units=GPa)
#
#
# Indices 1 2 3 4 5 6 
#
# 1 102.7898 35.1761 47.2438 0.0000 -21.7702 0.0000
# 2 35.1761 106.9616 62.2729 0.0000 -10.1608 0.0000
# 3 47.2438 62.2729 107.2140 0.0000 -9.6061 0.0000
# 4 0.0000 0.0000 0.0000 53.8751 0.0000 46.5181
# 5 -21.7702 -10.1608 -9.6061 0.0000 26.0443 0.0000
# 6 0.0000 0.0000 0.0000 46.5181 0.0000 49.8291
#
#
#
# Elastic Compliance Matrix: (Units=1/GPa)
#
#
# Indices 1 2 3 4 5 6 
#
# 1 0.014396 -0.000935 -0.004917 0.000000 0.009855 0.000000
# 2 -0.000935 0.014355 -0.007750 0.000000 0.001960 0.000000
# 3 -0.004917 -0.007750 0.015881 0.000000 -0.001276 0.000000
# 4 0.000000 0.000000 0.000000 0.095713 0.000000 -0.089353
# 5 0.009855 0.001960 -0.001276 0.000000 0.046928 0.000000
# 6 0.000000 0.000000 0.000000 -0.089353 0.000000 0.103485
#
#
# Mechanical properties :
#
#
# Convention : Reuss Voigt Hill
#
# Bulk Modulus (GPa) = 57.38351 67.37235 62.37793
# Shear Modulus (GPa) = 15.44299 37.43452 26.43876
#
# Velocity S-wave (km/s) = 2.75462 4.28876 3.60426
# Velocity P-wave (km/s) = 6.18972 7.59132 6.92607
#
# Compressibility (1/GPa) = 0.01742661
#
# Stress axis : x y z
#
# Youngs Moduli (GPa) = 69.46398 69.66214 62.96814
#
# Poissons Ratio (x) = 0.06516 0.30964
# Poissons Ratio (y) = 0.06497 0.48801
# Poissons Ratio (z) = 0.34158 0.53988
#
# Static dielectric constant tensor:
#      x y z
#    x 1.769390 0.000000 -0.063510 
#    y 0.000000 1.421640 0.000000 
#    z -0.063510 0.000000 1.764910 
# 
# From -- ./inp_files/44413.got.cif
#   From: 2010.05.17/outbox.cif.g08.bks.cpg/sg15_23_cif.got.tgz:44413.got - 2010.06.03 18:47:42.
