data_PCOD9280569
_publ_section_title
;
Structure prediction by ZEFSAII (Michael W. Deem and Ramdas Pophale) SiO2 
 PCOD9280569
Probable space group: C 2/C
;
_chemical_formula_sum "Si O2"
_cell_formula_units_Z 60
_cell_length_a 15.934943
_cell_length_b 9.038803
_cell_length_c 26.787003
_cell_angle_alpha 90.000000
_cell_angle_beta 128.938952
_cell_angle_gamma 90.000000
_cell_volume 3000.975600
_symmetry_space_group_name_H-M "C 2/C"
_symmetry_group_IT_number 15
_symmetry_cell_setting 'monoclinic'
loop_
_space_group_symop_operation_xyz
x,y,z
-x,y,1/2-z
-x,-y,-z
x,-y,1/2+z
1/2+x,1/2+y,z
1/2-x,1/2+y,1/2-z
1/2-x,1/2-y,-z
1/2+x,1/2-y,1/2+z
loop_
_atom_site_type_symbol
_atom_site_label
_atom_site_fract_x
_atom_site_fract_y
_atom_site_fract_z
Si Si1 0.638734 0.904231 0.754022
Si Si2 0.500000 0.843062 0.250000
Si Si3 0.094514 0.830949 0.066505
Si Si4 0.803039 0.817625 0.133905
Si Si5 0.082867 0.182308 0.075038
Si Si6 0.495458 0.302454 0.134080
Si Si7 0.873392 0.901779 0.803316
Si Si8 0.316587 0.659443 0.169374
O O1 0.651697 0.787289 0.804524
O O2 0.572001 0.821388 0.686593
O O3 0.756122 0.952665 0.779477
O O4 0.575059 0.045933 0.747819
O O5 0.420674 0.743993 0.186398
O O6 0.012119 0.797025 0.081119
O O7 0.206137 0.744989 0.116490
O O8 0.110140 0.008619 0.074746
O O9 0.032975 0.790322 0.992714
O O10 0.677352 0.776001 0.084770
O O11 0.876621 0.788993 0.112901
O O12 0.812283 0.989501 0.151684
O O13 0.086291 0.202180 0.136263
O O14 0.546262 0.459896 0.170029
O O15 0.845938 0.838232 0.739162
#
# Coordination Sequence:
#
# PCOD9280569 Si02
#       8
#     8   4   8   8   8   8   8   8
#     4  11  21  35  57  87 121 157 190 244 303 362
#     4  12  24  34  56  90 128 152 192 250 316 348
#     4  10  22  42  63  88 119 161 206 244 295 365
#     4  11  22  37  60  89 123 155 194 250 312 351
#     4   9  22  41  64  84 121 164 201 246 297 364
#     4  11  19  36  60  88 118 154 196 245 294 364
#     4  10  21  37  61  89 117 155 202 246 299 356
#     4  12  23  37  61  92 122 153 200 257 301 357
#
# _framework density 19.993499
#
# number of rings (size 3 to 8) (size 9 to 14) (size 15 to 20)
#    0.000    1.333    4.000    3.200    0.000    1.067 
#    0.000    0.000    0.000    8.000    0.000    0.000 
#    0.000    0.000    0.000    0.000    0.000    0.000 
#
# Total GULP energy -167548.687591 kJ/mol
# GULP energy per Si atom -5584.956253 kJ/mol
# Density = 1.994799 g / cm^3
# Si number density = 19.993499 Si / 1000 Ang^3
#
#
#
# Elastic Constant Matrix: (Units=GPa)
#
#
# Indices 1 2 3 4 5 6 
#
# 1 52.7087 17.6428 14.0462 0.0000 13.7593 0.0000
# 2 17.6428 80.1891 16.0906 0.0000 11.6253 0.0000
# 3 14.0462 16.0906 105.4402 0.0000 15.8186 0.0000
# 4 0.0000 0.0000 0.0000 19.1510 0.0000 10.2514
# 5 13.7593 11.6253 15.8186 0.0000 19.2779 0.0000
# 6 0.0000 0.0000 0.0000 10.2514 0.0000 30.2859
#
#
#
# Elastic Compliance Matrix: (Units=1/GPa)
#
#
# Indices 1 2 3 4 5 6 
#
# 1 0.024007 -0.003021 -0.000502 0.000000 -0.014901 0.000000
# 2 -0.003021 0.014133 -0.000911 0.000000 -0.005619 0.000000
# 3 -0.000502 -0.000911 0.010895 0.000000 -0.008032 0.000000
# 4 0.000000 0.000000 0.000000 0.063771 0.000000 -0.021586
# 5 -0.014901 -0.005619 -0.008032 0.000000 0.072488 0.000000
# 6 0.000000 0.000000 0.000000 -0.021586 0.000000 0.040325
#
#
# Mechanical properties :
#
#
# Convention : Reuss Voigt Hill
#
# Bulk Modulus (GPa) = 24.89611 37.09968 30.99789
# Shear Modulus (GPa) = 20.17147 26.44686 23.30916
#
# Velocity S-wave (km/s) = 3.17977 3.64094 3.41814
# Velocity P-wave (km/s) = 5.09513 6.02258 5.57816
#
# Compressibility (1/GPa) = 0.04016692
#
# Stress axis : x y z
#
# Youngs Moduli (GPa) = 41.65464 70.75849 91.78518
#
# Poissons Ratio (x) = 0.21376 0.04603
# Poissons Ratio (y) = 0.12584 0.08365
# Poissons Ratio (z) = 0.02089 0.06448
#
# Static dielectric constant tensor:
#      x y z
#    x 1.735290 0.000000 -0.014130 
#    y 0.000000 1.716210 0.000000 
#    z -0.014130 0.000000 1.718730 
# 
# From -- ./inp_files/315376.got.cif
#   From: 2010.05.17/outbox.cif.g08.bks.cpg/sg15_158_cif.got.tgz:315376.got - 2010.06.03 18:47:42.
