data_PCOD9280048
_publ_section_title
;
Structure prediction by ZEFSAII (Michael W. Deem and Ramdas Pophale) SiO2 
 PCOD9280048
Probable space group: C 2/C
;
_chemical_formula_sum "Si O2"
_cell_formula_units_Z 48
_cell_length_a 11.303292
_cell_length_b 19.999337
_cell_length_c 8.307276
_cell_angle_alpha 90.000000
_cell_angle_beta 91.304576
_cell_angle_gamma 90.000000
_cell_volume 1877.442301
_symmetry_space_group_name_H-M "C 2/C"
_symmetry_group_IT_number 15
_symmetry_cell_setting 'monoclinic'
loop_
_space_group_symop_operation_xyz
x,y,z
-x,y,1/2-z
-x,-y,-z
x,-y,1/2+z
1/2+x,1/2+y,z
1/2-x,1/2+y,1/2-z
1/2-x,1/2-y,-z
1/2+x,1/2-y,1/2+z
loop_
_atom_site_type_symbol
_atom_site_label
_atom_site_fract_x
_atom_site_fract_y
_atom_site_fract_z
Si Si1 0.500000 0.955151 0.750000
Si Si2 0.337282 0.446199 0.507945
Si Si3 0.656830 0.942649 0.045772
Si Si4 0.500000 0.505388 0.750000
Si Si5 0.381428 0.718483 0.308873
Si Si6 0.737580 0.163424 0.813233
Si Si7 0.119470 0.275077 0.830636
O O1 0.428039 0.920307 0.602301
O O2 0.412473 0.004980 0.842740
O O3 0.260337 0.512332 0.476462
O O4 0.397004 0.458940 0.678830
O O5 0.444857 0.447993 0.384981
O O6 0.260278 0.381319 0.469209
O O7 0.704827 0.885785 0.165288
O O8 0.500000 0.682928 0.250000
O O9 0.362909 0.780209 0.182425
O O10 0.248260 0.687622 0.316873
O O11 0.395944 0.751768 0.485445
O O12 0.851025 0.206822 0.767953
O O13 0.000000 0.302320 0.750000
#
# Coordination Sequence:
#
# PCOD9280048 Si02
#       7
#     4   8   8   4   8   8   8
#     4  10  22  32  56  78 123 171 202 254 290 348
#     4  11  20  36  56  84 128 167 208 250 299 357
#     4  11  20  36  53  84 122 164 207 247 294 357
#     4  10  22  32  58  84 123 181 202 256 294 354
#     4   9  21  41  68  93 120 159 207 264 326 387
#     4  10  21  36  64  86 125 166 210 250 316 371
#     4   9  21  41  68  92 123 158 202 270 330 377
#
# _framework density 25.566699
#
# number of rings (size 3 to 8) (size 9 to 14) (size 15 to 20)
#    1.000    1.000    3.333    0.000    2.333    0.667 
#    1.500    0.000   11.000    0.000    0.000    0.000 
#    0.000    0.000    0.000    0.000    0.000    0.000 
#
# Total GULP energy -134084.711348 kJ/mol
# GULP energy per Si atom -5586.862973 kJ/mol
# Density = 2.550851 g / cm^3
# Si number density = 25.566699 Si / 1000 Ang^3
#
#
#
# Elastic Constant Matrix: (Units=GPa)
#
#
# Indices 1 2 3 4 5 6 
#
# 1 157.3280 12.9762 48.1610 0.0000 3.4310 0.0000
# 2 12.9762 49.4915 1.1127 0.0000 10.7011 0.0000
# 3 48.1610 1.1127 106.9032 0.0000 15.2968 0.0000
# 4 0.0000 0.0000 0.0000 6.1038 0.0000 -14.9114
# 5 3.4310 10.7011 15.2968 0.0000 65.0611 0.0000
# 6 0.0000 0.0000 0.0000 -14.9114 0.0000 -26.8255
#
#
#
# Elastic Compliance Matrix: (Units=1/GPa)
#
#
# Indices 1 2 3 4 5 6 
#
# 1 0.007583 -0.002075 -0.003504 0.000000 0.000765 0.000000
# 2 -0.002075 0.021527 0.001244 0.000000 -0.003724 0.000000
# 3 -0.003504 0.001244 0.011303 0.000000 -0.002677 0.000000
# 4 0.000000 0.000000 0.000000 0.069481 0.000000 -0.038622
# 5 0.000765 -0.003724 -0.002677 0.000000 0.016572 0.000000
# 6 0.000000 0.000000 0.000000 -0.038622 0.000000 -0.015809
#
#
# Mechanical properties :
#
#
# Convention : Reuss Voigt Hill
#
# Bulk Modulus (GPa) = 31.50425 48.69141 40.09783
# Shear Modulus (GPa) = 38.48877 25.63272 32.06074
#
# Velocity S-wave (km/s) = 3.88419 3.16979 3.54503
# Velocity P-wave (km/s) = 5.69781 5.69938 5.69860
#
# Compressibility (1/GPa) = 0.03174175
#
# Stress axis : x y z
#
# Youngs Moduli (GPa) = 131.86832 46.45393 88.47121
#
# Poissons Ratio (x) = 0.09639 0.31003
# Poissons Ratio (y) = 0.27362 -0.11002
# Poissons Ratio (z) = 0.46210 -0.05777
#
# Static dielectric constant tensor:
#      x y z
#    x 2.083100 0.000000 0.031040 
#    y 0.000000 1.985410 0.000000 
#    z 0.031040 0.000000 1.980100 
# 
# From -- ./inp_files/33084.got.cif
#   From: 2010.05.17/outbox.cif.g08.bks.cpg/sg15_17_cif.got.tgz:33084.got - 2010.06.03 18:47:42.
