data_PCOD9280878
_publ_section_title
;
Structure prediction by ZEFSAII (Michael W. Deem and Ramdas Pophale) SiO2 
 PCOD9280878
Probable space group: C 2/C
;
_chemical_formula_sum "Si O2"
_cell_formula_units_Z 40
_cell_length_a 23.708948
_cell_length_b 8.708348
_cell_length_c 9.053079
_cell_angle_alpha 90.000000
_cell_angle_beta 117.605780
_cell_angle_gamma 90.000000
_cell_volume 1656.360873
_symmetry_space_group_name_H-M "C 2/C"
_symmetry_group_IT_number 15
_symmetry_cell_setting 'monoclinic'
loop_
_space_group_symop_operation_xyz
x,y,z
-x,y,1/2-z
-x,-y,-z
x,-y,1/2+z
1/2+x,1/2+y,z
1/2-x,1/2+y,1/2-z
1/2-x,1/2-y,-z
1/2+x,1/2-y,1/2+z
loop_
_atom_site_type_symbol
_atom_site_label
_atom_site_fract_x
_atom_site_fract_y
_atom_site_fract_z
Si Si1 0.763396 0.733875 0.343173
Si Si2 0.845682 0.425081 0.404662
Si Si3 0.542103 0.589935 0.676896
Si Si4 0.609207 0.345664 0.976839
Si Si5 0.571098 0.968144 0.270765
O O1 0.750000 0.750000 0.500000
O O2 0.797977 0.573193 0.344716
O O3 0.817485 0.864325 0.392425
O O4 0.698095 0.779544 0.185213
O O5 0.906918 0.448863 0.371631
O O6 0.878945 0.410452 0.602497
O O7 0.500000 0.672971 0.750000
O O8 0.500000 0.500000 0.500000
O O9 0.581996 0.475913 0.832682
O O10 0.579892 0.684449 0.603165
O O11 0.594735 0.193051 0.868342
O O12 0.500000 0.985957 0.250000
#
# Coordination Sequence:
#
# PCOD9280878 Si02
#       5
#     8   8   8   8   8
#     4  11  24  46  68  99 137 169 229 281 337 399
#     4  11  24  45  73 101 135 183 224 283 343 396
#     4   9  18  35  59  95 131 173 222 264 329 397
#     4  10  21  37  65  94 135 178 219 284 334 392
#     4  11  23  44  67  99 140 178 225 282 340 408
#
# _framework density 24.149325999999999
#
# number of rings (size 3 to 8) (size 9 to 14) (size 15 to 20)
#    0.000    1.600    4.000    2.400    2.800    0.800 
#    0.000   16.000    0.000    0.000    0.000    0.000 
#    0.000    0.000    0.000    0.000    0.000    0.000 
#
# Total GULP energy -111380.690177 kJ/mol
# GULP energy per Si atom -5569.034509 kJ/mol
# Density = 2.409436 g / cm^3
# Si number density = 24.149326 Si / 1000 Ang^3
#
#
#
# Elastic Constant Matrix: (Units=GPa)
#
#
# Indices 1 2 3 4 5 6 
#
# 1 110.8951 7.0293 9.0780 0.0000 -13.2691 0.0000
# 2 7.0293 59.7749 -0.0247 0.0000 2.3853 0.0000
# 3 9.0780 -0.0247 79.8924 0.0000 -10.9684 0.0000
# 4 0.0000 0.0000 0.0000 39.0863 0.0000 2.5153
# 5 -13.2691 2.3853 -10.9684 0.0000 62.6697 0.0000
# 6 0.0000 0.0000 0.0000 2.5153 0.0000 28.0369
#
#
#
# Elastic Compliance Matrix: (Units=1/GPa)
#
#
# Indices 1 2 3 4 5 6 
#
# 1 0.009385 -0.001179 -0.000807 0.000000 0.001891 0.000000
# 2 -0.001179 0.016904 0.000017 0.000000 -0.000890 0.000000
# 3 -0.000807 0.000017 0.012895 0.000000 0.002085 0.000000
# 4 0.000000 0.000000 0.000000 0.025733 0.000000 -0.002309
# 5 0.001891 -0.000890 0.002085 0.000000 0.016756 0.000000
# 6 0.000000 0.000000 0.000000 -0.002309 0.000000 0.035874
#
#
# Mechanical properties :
#
#
# Convention : Reuss Voigt Hill
#
# Bulk Modulus (GPa) = 28.37353 31.41417 29.89385
# Shear Modulus (GPa) = 37.52815 41.59056 39.55936
#
# Velocity S-wave (km/s) = 3.94636 4.15447 4.05175
# Velocity P-wave (km/s) = 5.70436 6.00411 5.85616
#
# Compressibility (1/GPa) = 0.03524412
#
# Stress axis : x y z
#
# Youngs Moduli (GPa) = 106.55777 59.15881 77.55037
#
# Poissons Ratio (x) = 0.06977 0.06259
# Poissons Ratio (y) = 0.12567 -0.00132
# Poissons Ratio (z) = 0.08601 -0.00101
#
# Static dielectric constant tensor:
#      x y z
#    x 1.826590 0.000000 0.021880 
#    y 0.000000 2.023100 0.000000 
#    z 0.021880 0.000000 1.908320 
# 
# From -- ./inp_files/60738.got.cif
#   From: 2010.05.17/outbox.cif.g08.bks.cpg/sg15_31_cif.got.tgz:60738.got - 2010.06.03 18:47:42.
