data_PCOD9280793
_publ_section_title
;
Structure prediction by ZEFSAII (Michael W. Deem and Ramdas Pophale) SiO2 
 PCOD9280793
Probable space group: C 2/C
;
_chemical_formula_sum "Si O2"
_cell_formula_units_Z 32
_cell_length_a 9.500447
_cell_length_b 12.695552
_cell_length_c 9.665192
_cell_angle_alpha 90.000000
_cell_angle_beta 86.556514
_cell_angle_gamma 90.000000
_cell_volume 1163.647120
_symmetry_space_group_name_H-M "C 2/C"
_symmetry_group_IT_number 15
_symmetry_cell_setting 'monoclinic'
loop_
_space_group_symop_operation_xyz
x,y,z
-x,y,1/2-z
-x,-y,-z
x,-y,1/2+z
1/2+x,1/2+y,z
1/2-x,1/2+y,1/2-z
1/2-x,1/2-y,-z
1/2+x,1/2-y,1/2+z
loop_
_atom_site_type_symbol
_atom_site_label
_atom_site_fract_x
_atom_site_fract_y
_atom_site_fract_z
Si Si1 0.385837 0.110663 0.467786
Si Si2 0.568896 0.700787 0.894792
Si Si3 0.396813 0.374947 0.647812
Si Si4 0.710426 0.065802 0.715396
O O1 0.522172 0.182468 0.442158
O O2 0.254081 0.168526 0.395477
O O3 0.341214 0.092074 0.628496
O O4 0.390290 0.002048 0.380184
O O5 0.500000 0.688213 0.750000
O O6 0.730134 0.668290 0.866030
O O7 0.492821 0.623189 0.006690
O O8 0.500000 0.318312 0.750000
O O9 0.343421 0.515655 0.216934
#
# Coordination Sequence:
#
# PCOD9280793 Si02
#       4
#     8   8   8   8
#     4  10  24  40  66 103 137 179 229 282 345 406
#     4  12  21  40  69  98 137 179 228 286 340 407
#     4  10  21  37  63  99 134 177 229 276 341 410
#     4  10  21  38  67  96 134 180 224 281 343 402
#
# _framework density 27.499745999999998
#
# number of rings (size 3 to 8) (size 9 to 14) (size 15 to 20)
#    1.500    0.000    2.500    3.750    0.000    0.000 
#    0.000    5.000    0.000    0.000    0.000    0.000 
#    0.000    0.000    0.000    0.000    0.000    0.000 
#
# Total GULP energy -89523.128782 kJ/mol
# GULP energy per Si atom -5595.195549 kJ/mol
# Density = 2.743716 g / cm^3
# Si number density = 27.499746 Si / 1000 Ang^3
#
#
#
# Elastic Constant Matrix: (Units=GPa)
#
#
# Indices 1 2 3 4 5 6 
#
# 1 153.0982 68.5668 70.7294 0.0000 12.6750 0.0000
# 2 68.5668 159.6667 91.7455 0.0000 3.8447 0.0000
# 3 70.7294 91.7455 207.0521 0.0000 -14.0677 0.0000
# 4 0.0000 0.0000 0.0000 44.6401 0.0000 -16.4427
# 5 12.6750 3.8447 -14.0677 0.0000 24.2500 0.0000
# 6 0.0000 0.0000 0.0000 -16.4427 0.0000 46.1115
#
#
#
# Elastic Compliance Matrix: (Units=1/GPa)
#
#
# Indices 1 2 3 4 5 6 
#
# 1 0.009247 -0.002392 -0.002500 0.000000 -0.005904 0.000000
# 2 -0.002392 0.009341 -0.003474 0.000000 -0.002246 0.000000
# 3 -0.002500 -0.003474 0.007651 0.000000 0.006296 0.000000
# 4 0.000000 0.000000 0.000000 0.025789 0.000000 0.009196
# 5 -0.005904 -0.002246 0.006296 0.000000 0.048331 0.000000
# 6 0.000000 0.000000 0.000000 0.009196 0.000000 0.024966
#
#
# Mechanical properties :
#
#
# Convention : Reuss Voigt Hill
#
# Bulk Modulus (GPa) = 105.20123 109.10005 107.15064
# Shear Modulus (GPa) = 34.42908 42.25198 38.34053
#
# Velocity S-wave (km/s) = 3.54217 3.92401 3.73797
# Velocity P-wave (km/s) = 7.42076 7.76464 7.59465
#
# Compressibility (1/GPa) = 0.00950559
#
# Stress axis : x y z
#
# Youngs Moduli (GPa) = 108.14450 107.05624 130.70369
#
# Poissons Ratio (x) = 0.25612 0.32674
# Poissons Ratio (y) = 0.25872 0.45411
# Poissons Ratio (z) = 0.27034 0.37195
#
# Static dielectric constant tensor:
#      x y z
#    x 2.184000 0.000000 0.045270 
#    y 0.000000 2.231390 0.000000 
#    z 0.045270 0.000000 2.043300 
# 
# From -- ./inp_files/27630.got.cif
#   From: 2010.05.17/outbox.cif.g08.bks.cpg/sg15_14_cif.got.tgz:27630.got - 2010.06.03 18:47:42.
