data_PCOD9280928
_publ_section_title
;
Structure prediction by ZEFSAII (Michael W. Deem and Ramdas Pophale) SiO2 
 PCOD9280928
Probable space group: C 2/C
;
_chemical_formula_sum "Si O2"
_cell_formula_units_Z 48
_cell_length_a 11.203829
_cell_length_b 23.940254
_cell_length_c 7.825040
_cell_angle_alpha 90.000000
_cell_angle_beta 90.235502
_cell_angle_gamma 90.000000
_cell_volume 2098.834156
_symmetry_space_group_name_H-M "C 2/C"
_symmetry_group_IT_number 15
_symmetry_cell_setting 'monoclinic'
loop_
_space_group_symop_operation_xyz
x,y,z
-x,y,1/2-z
-x,-y,-z
x,-y,1/2+z
1/2+x,1/2+y,z
1/2-x,1/2+y,1/2-z
1/2-x,1/2-y,-z
1/2+x,1/2-y,1/2+z
loop_
_atom_site_type_symbol
_atom_site_label
_atom_site_fract_x
_atom_site_fract_y
_atom_site_fract_z
Si Si1 0.500000 0.698547 0.750000
Si Si2 0.879305 0.746973 0.574526
Si Si3 0.500000 0.498374 0.250000
Si Si4 0.000000 0.837980 0.750000
Si Si5 0.612079 0.603187 0.936412
Si Si6 0.500000 0.855010 0.250000
Si Si7 0.906838 0.449288 0.005714
Si Si8 0.258190 0.959657 0.672492
O O1 0.532684 0.737117 0.585820
O O2 0.605688 0.653078 0.796330
O O3 0.750000 0.750000 0.500000
O O4 0.891535 0.797434 0.707211
O O5 0.903892 0.691140 0.682573
O O6 0.459854 0.452743 0.109661
O O7 0.377384 0.532432 0.264821
O O8 0.033740 0.870874 0.585101
O O9 0.739288 0.582269 0.011588
O O10 0.477241 0.899006 0.094631
O O11 0.802098 0.478478 0.117579
O O12 0.846417 0.438149 0.821030
O O13 0.000000 0.500000 0.000000
#
# Coordination Sequence:
#
# PCOD9280928 Si02
#       8
#     4   8   4   4   8   4   8   8
#     4   9  22  46  66 104 138 160 228 293 334 420
#     4  10  23  46  72  98 129 174 229 288 342 403
#     4  11  23  38  59 108 139 180 229 281 346 396
#     4   9  21  40  63 102 135 158 231 285 332 418
#     4  10  21  37  66  99 138 174 212 283 361 390
#     4  11  26  48  70 100 136 182 230 277 346 408
#     4  12  26  47  65  95 142 190 231 269 328 425
#     4  12  24  41  66  97 145 181 232 282 326 417
#
# _framework density 22.86984
#
# number of rings (size 3 to 8) (size 9 to 14) (size 15 to 20)
#    0.000    1.333    3.333    1.000    4.667    4.000 
#    3.000    9.167    0.000    0.000    0.000    0.000 
#    0.000    0.000    0.000    0.000    0.000    0.000 
#
# Total GULP energy -133633.193102 kJ/mol
# GULP energy per Si atom -5568.049713 kJ/mol
# Density = 2.281779 g / cm^3
# Si number density = 22.869840 Si / 1000 Ang^3
#
#
#
# Elastic Constant Matrix: (Units=GPa)
#
#
# Indices 1 2 3 4 5 6 
#
# 1 98.5532 25.5689 27.5360 0.0000 37.8749 0.0000
# 2 25.5689 106.9329 33.0220 0.0000 26.1302 0.0000
# 3 27.5360 33.0220 112.5946 0.0000 53.4337 0.0000
# 4 0.0000 0.0000 0.0000 54.0134 0.0000 22.9236
# 5 37.8749 26.1302 53.4337 0.0000 53.6156 0.0000
# 6 0.0000 0.0000 0.0000 22.9236 0.0000 -27.4655
#
#
#
# Elastic Compliance Matrix: (Units=1/GPa)
#
#
# Indices 1 2 3 4 5 6 
#
# 1 0.014430 -0.001284 0.002634 0.000000 -0.012192 0.000000
# 2 -0.001284 0.010824 -0.001494 0.000000 -0.002879 0.000000
# 3 0.002634 -0.001494 0.017480 0.000000 -0.018553 0.000000
# 4 0.000000 0.000000 0.000000 0.013671 0.000000 0.011410
# 5 -0.012192 -0.002879 -0.018553 0.000000 0.047157 0.000000
# 6 0.000000 0.000000 0.000000 0.011410 0.000000 -0.026886
#
#
# Mechanical properties :
#
#
# Convention : Reuss Voigt Hill
#
# Bulk Modulus (GPa) = 23.56028 54.48161 39.02094
# Shear Modulus (GPa) = 54.87626 31.49629 43.18628
#
# Velocity S-wave (km/s) = 4.90379 3.71509 4.35023
# Velocity P-wave (km/s) = 6.51054 6.50205 6.50630
#
# Compressibility (1/GPa) = 0.04244432
#
# Stress axis : x y z
#
# Youngs Moduli (GPa) = 69.30130 92.39066 57.20716
#
# Poissons Ratio (x) = 0.11866 -0.15067
# Poissons Ratio (y) = 0.08901 0.08548
# Poissons Ratio (z) = -0.18253 0.13805
#
# Static dielectric constant tensor:
#      x y z
#    x 2.018330 0.000000 -0.075900 
#    y 0.000000 1.913170 0.000000 
#    z -0.075900 0.000000 1.970730 
# 
# From -- ./inp_files/32202.got.cif
#   From: 2010.05.17/outbox.cif.g08.bks.cpg/sg15_17_cif.got.tgz:32202.got - 2010.06.03 18:47:42.
