data_PCOD9280652
_publ_section_title
;
Structure prediction by ZEFSAII (Michael W. Deem and Ramdas Pophale) SiO2 
 PCOD9280652
Probable space group: C 2/C
;
_chemical_formula_sum "Si O2"
_cell_formula_units_Z 32
_cell_length_a 6.253067
_cell_length_b 27.391154
_cell_length_c 6.873028
_cell_angle_alpha 90.000000
_cell_angle_beta 91.592748
_cell_angle_gamma 90.000000
_cell_volume 1176.748623
_symmetry_space_group_name_H-M "C 2/C"
_symmetry_group_IT_number 15
_symmetry_cell_setting 'monoclinic'
loop_
_space_group_symop_operation_xyz
x,y,z
-x,y,1/2-z
-x,-y,-z
x,-y,1/2+z
1/2+x,1/2+y,z
1/2-x,1/2+y,1/2-z
1/2-x,1/2-y,-z
1/2+x,1/2-y,1/2+z
loop_
_atom_site_type_symbol
_atom_site_label
_atom_site_fract_x
_atom_site_fract_y
_atom_site_fract_z
Si Si1 0.000000 0.599560 0.250000
Si Si2 0.000000 0.147092 0.750000
Si Si3 0.000000 0.021874 0.250000
Si Si4 0.256265 0.438601 0.083417
Si Si5 0.000000 0.732557 0.750000
Si Si6 0.236246 0.314363 0.583778
O O1 0.053194 0.568472 0.442317
O O2 0.190101 0.636747 0.200902
O O3 0.803744 0.110537 0.699997
O O4 0.071204 0.177386 0.564686
O O5 0.951003 0.054031 0.434580
O O6 0.795275 0.986435 0.213270
O O7 0.199803 0.769522 0.776644
O O8 0.966139 0.699572 0.558103
#
# Coordination Sequence:
#
# PCOD9280652 Si02
#       6
#     4   4   4   8   4   8
#     4  12  24  39  62  94 122 154 200 252 298 353
#     4  11  22  41  64  87 120 164 202 243 296 357
#     4   9  20  41  60  87 122 164 198 239 302 359
#     4  10  21  37  62  87 122 159 198 244 298 356
#     4  10  24  41  62  88 122 160 200 250 300 355
#     4  11  24  40  62  89 121 159 202 247 300 354
#
# _framework density 27.193572
#
# number of rings (size 3 to 8) (size 9 to 14) (size 15 to 20)
#    0.000    1.500    0.000    4.500    0.000    7.000 
#    0.000    0.000    0.000    0.000    0.000    0.000 
#    0.000    0.000    0.000    0.000    0.000    0.000 
#
# Total GULP energy -89572.177774 kJ/mol
# GULP energy per Si atom -5598.261111 kJ/mol
# Density = 2.713168 g / cm^3
# Si number density = 27.193572 Si / 1000 Ang^3
#
#
#
# Elastic Constant Matrix: (Units=GPa)
#
#
# Indices 1 2 3 4 5 6 
#
# 1 54.2082 28.4908 20.9562 0.0000 -6.8071 0.0000
# 2 28.4908 91.2047 28.1232 0.0000 16.5734 0.0000
# 3 20.9562 28.1232 109.5003 0.0000 35.5509 0.0000
# 4 0.0000 0.0000 0.0000 35.8759 0.0000 19.1959
# 5 -6.8071 16.5734 35.5509 0.0000 63.2995 0.0000
# 6 0.0000 0.0000 0.0000 19.1959 0.0000 37.5669
#
#
#
# Elastic Compliance Matrix: (Units=1/GPa)
#
#
# Indices 1 2 3 4 5 6 
#
# 1 0.025614 -0.007744 -0.005462 0.000000 0.007849 0.000000
# 2 -0.007744 0.014402 -0.000883 0.000000 -0.004107 0.000000
# 3 -0.005462 -0.000883 0.012866 0.000000 -0.007582 0.000000
# 4 0.000000 0.000000 0.000000 0.038362 0.000000 -0.019602
# 5 0.007849 -0.004107 -0.007582 0.000000 0.021976 0.000000
# 6 0.000000 0.000000 0.000000 -0.019602 0.000000 0.036636
#
#
# Mechanical properties :
#
#
# Convention : Reuss Voigt Hill
#
# Bulk Modulus (GPa) = 40.47752 45.56151 43.01952
# Shear Modulus (GPa) = 26.84285 39.17133 33.00709
#
# Velocity S-wave (km/s) = 3.14523 3.79946 3.48772
# Velocity P-wave (km/s) = 5.30162 6.00323 5.66330
#
# Compressibility (1/GPa) = 0.02470507
#
# Stress axis : x y z
#
# Youngs Moduli (GPa) = 39.04039 69.43399 77.72324
#
# Poissons Ratio (x) = 0.53768 0.42450
# Poissons Ratio (y) = 0.30232 0.06866
# Poissons Ratio (z) = 0.21323 0.06134
#
# Static dielectric constant tensor:
#      x y z
#    x 2.130420 0.000000 0.077330 
#    y 0.000000 2.034110 0.000000 
#    z 0.077330 0.000000 2.064130 
# 
# From -- ./inp_files/20345.got.cif
#   From: 2010.05.17/outbox.cif.g08.bks.cpg/sg15_11_cif.got.tgz:20345.got - 2010.06.03 18:47:42.
