data_PCOD9280145
_publ_section_title
;
Structure prediction by ZEFSAII (Michael W. Deem and Ramdas Pophale) SiO2 
 PCOD9280145
Probable space group: C 2/C
;
_chemical_formula_sum "Si O2"
_cell_formula_units_Z 64
_cell_length_a 8.379640
_cell_length_b 22.563286
_cell_length_c 18.449557
_cell_angle_alpha 90.000000
_cell_angle_beta 58.189872
_cell_angle_gamma 90.000000
_cell_volume 2964.354505
_symmetry_space_group_name_H-M "C 2/C"
_symmetry_group_IT_number 15
_symmetry_cell_setting 'monoclinic'
loop_
_space_group_symop_operation_xyz
x,y,z
-x,y,1/2-z
-x,-y,-z
x,-y,1/2+z
1/2+x,1/2+y,z
1/2-x,1/2+y,1/2-z
1/2-x,1/2-y,-z
1/2+x,1/2-y,1/2+z
loop_
_atom_site_type_symbol
_atom_site_label
_atom_site_fract_x
_atom_site_fract_y
_atom_site_fract_z
Si Si1 0.268548 0.377143 0.407273
Si Si2 0.164832 0.576569 0.653159
Si Si3 0.897217 0.214796 0.705422
Si Si4 0.671581 0.290280 0.650186
Si Si5 0.162335 0.076359 0.152536
Si Si6 0.063861 0.486875 0.402945
Si Si7 0.493557 0.813166 0.121668
Si Si8 0.051285 0.025190 0.565035
O O1 0.451852 0.336487 0.350516
O O2 0.211961 0.431501 0.365742
O O3 0.089114 0.334850 0.435588
O O4 0.305496 0.418632 0.468089
O O5 0.360564 0.556593 0.639130
O O6 0.000000 0.571267 0.750000
O O7 0.111788 0.532585 0.600970
O O8 0.140187 0.641115 0.622769
O O9 0.840780 0.258066 0.653131
O O10 0.697766 0.188952 0.782858
O O11 0.000000 0.245582 0.750000
O O12 0.500000 0.291706 0.750000
O O13 0.706118 0.357301 0.617606
O O14 0.591740 0.250014 0.604501
O O15 0.339899 0.045860 0.147897
O O16 0.000000 0.078504 0.250000
O O17 0.107787 0.029704 0.102787
O O18 0.000000 0.500000 0.500000
O O19 0.000000 0.000000 0.500000
#
# Coordination Sequence:
#
# PCOD9280145 Si02
#       8
#     8   8   8   8   8   8   8   8
#     4   9  18  31  53  76 102 140 187 225 265 327
#     4  11  19  30  53  82 106 132 182 238 272 315
#     4   9  16  29  52  85 114 140 179 235 288 322
#     4   9  17  32  53  80 114 147 179 221 282 342
#     4  10  21  38  59  82 111 149 190 226 270 344
#     4  10  21  37  54  76 112 150 178 219 285 341
#     4   9  17  29  51  81 112 141 176 231 287 325
#     4  11  22  36  55  80 113 148 184 232 291 341
#
# _framework density 21.589860000000002
#
# number of rings (size 3 to 8) (size 9 to 14) (size 15 to 20)
#    0.000    2.250    0.000    4.875    0.000    8.000 
#    0.000    5.625    0.000   13.500    0.000    0.000 
#    0.000    0.000    0.000    0.000    0.000    0.000 
#
# Total GULP energy -178294.165651 kJ/mol
# GULP energy per Si atom -5571.692677 kJ/mol
# Density = 2.154072 g / cm^3
# Si number density = 21.589860 Si / 1000 Ang^3
#
#
#
# Elastic Constant Matrix: (Units=GPa)
#
#
# Indices 1 2 3 4 5 6 
#
# 1 102.6302 66.1509 1.0135 0.0000 -2.4871 0.0000
# 2 66.1509 141.7382 2.8660 0.0000 -7.3568 0.0000
# 3 1.0135 2.8660 37.0921 0.0000 -6.6683 0.0000
# 4 0.0000 0.0000 0.0000 -2.6747 0.0000 16.1201
# 5 -2.4871 -7.3568 -6.6683 0.0000 33.3241 0.0000
# 6 0.0000 0.0000 0.0000 16.1201 0.0000 12.2931
#
#
#
# Elastic Compliance Matrix: (Units=1/GPa)
#
#
# Indices 1 2 3 4 5 6 
#
# 1 0.013941 -0.006528 0.000053 0.000000 -0.000390 0.000000
# 2 -0.006528 0.010196 -0.000303 0.000000 0.001703 0.000000
# 3 0.000053 -0.000303 0.027977 0.000000 0.005535 0.000000
# 4 0.000000 0.000000 0.000000 -0.041993 0.000000 0.055067
# 5 -0.000390 0.001703 0.005535 0.000000 0.031463 0.000000
# 6 0.000000 0.000000 0.000000 0.055067 0.000000 0.009137
#
#
# Mechanical properties :
#
#
# Convention : Reuss Voigt Hill
#
# Bulk Modulus (GPa) = 25.93421 46.83570 36.38495
# Shear Modulus (GPa) = 64.82580 22.68385 43.75482
#
# Velocity S-wave (km/s) = 5.48555 3.24492 4.50670
# Velocity P-wave (km/s) = 7.22218 5.98162 6.63098
#
# Compressibility (1/GPa) = 0.03855912
#
# Stress axis : x y z
#
# Youngs Moduli (GPa) = 71.72909 98.07341 35.74358
#
# Poissons Ratio (x) = 0.64021 -0.00191
# Poissons Ratio (y) = 0.46824 0.01084
# Poissons Ratio (z) = -0.00383 0.02975
#
# Static dielectric constant tensor:
#      x y z
#    x 1.863880 0.000000 0.015120 
#    y 0.000000 1.801920 0.000000 
#    z 0.015120 0.000000 1.787300 
# 
# From -- ./inp_files/233859.got.cif
#   From: 2010.05.17/outbox.cif.g08.bks.cpg/sg15_117_cif.got.tgz:233859.got - 2010.06.03 18:47:42.
