data_PCOD9280997
_publ_section_title
;
Structure prediction by ZEFSAII (Michael W. Deem and Ramdas Pophale) SiO2 
 PCOD9280997
Probable space group: C 2/C
;
_chemical_formula_sum "Si O2"
_cell_formula_units_Z 52
_cell_length_a 17.710868
_cell_length_b 18.438781
_cell_length_c 8.480928
_cell_angle_alpha 90.000000
_cell_angle_beta 76.104965
_cell_angle_gamma 90.000000
_cell_volume 2688.543972
_symmetry_space_group_name_H-M "C 2/C"
_symmetry_group_IT_number 15
_symmetry_cell_setting 'monoclinic'
loop_
_space_group_symop_operation_xyz
x,y,z
-x,y,1/2-z
-x,-y,-z
x,-y,1/2+z
1/2+x,1/2+y,z
1/2-x,1/2+y,1/2-z
1/2-x,1/2-y,-z
1/2+x,1/2-y,1/2+z
loop_
_atom_site_type_symbol
_atom_site_label
_atom_site_fract_x
_atom_site_fract_y
_atom_site_fract_z
Si Si1 0.329661 0.647729 0.404248
Si Si2 0.749938 0.217599 0.739888
Si Si3 0.983100 0.310091 0.017318
Si Si4 0.687135 0.057577 0.403994
Si Si5 0.367332 0.091996 0.713577
Si Si6 0.000000 0.183785 0.250000
Si Si7 0.124783 0.682422 0.232377
O O1 0.295388 0.715472 0.319929
O O2 0.304655 0.673513 0.590464
O O3 0.278090 0.577331 0.385782
O O4 0.422061 0.641073 0.337582
O O5 0.686356 0.158950 0.817527
O O6 0.809749 0.257005 0.824968
O O7 0.953809 0.380431 0.128345
O O8 0.972170 0.238495 0.126236
O O9 0.932114 0.315944 0.885526
O O10 0.071728 0.304335 0.914558
O O11 0.647734 0.079678 0.591946
O O12 0.662649 0.106740 0.265683
O O13 0.660604 0.977810 0.368832
#
# Coordination Sequence:
#
# PCOD9280997 Si02
#       7
#     8   8   8   8   8   4   8
#     4   9  18  33  59  83 111 153 190 243 285 340
#     4   9  17  35  57  82 111 149 193 243 288 336
#     4  11  22  33  58  88 114 152 184 242 295 341
#     4  10  22  39  57  82 120 158 195 232 287 349
#     4  11  21  37  58  84 113 156 196 233 288 342
#     4  12  18  36  58  88 112 146 200 234 286 348
#     4  10  21  38  54  85 124 142 194 242 293 345
#
# _framework density 19.341324
#
# number of rings (size 3 to 8) (size 9 to 14) (size 15 to 20)
#    0.000    1.846    3.077    2.769    0.000    1.231 
#    2.769    1.538    0.000    5.538    0.000    0.000 
#    0.000    0.000    0.000    0.000    0.000    0.000 
#
# Total GULP energy -144871.196247 kJ/mol
# GULP energy per Si atom -5571.969086 kJ/mol
# Density = 1.929730 g / cm^3
# Si number density = 19.341324 Si / 1000 Ang^3
#
#
#
# Elastic Constant Matrix: (Units=GPa)
#
#
# Indices 1 2 3 4 5 6 
#
# 1 73.7464 10.2029 32.6438 0.0000 -10.9577 0.0000
# 2 10.2029 64.4658 15.7731 0.0000 7.2066 0.0000
# 3 32.6438 15.7731 65.5929 0.0000 -3.7267 0.0000
# 4 0.0000 0.0000 0.0000 6.9213 0.0000 25.1396
# 5 -10.9577 7.2066 -3.7267 0.0000 36.8109 0.0000
# 6 0.0000 0.0000 0.0000 25.1396 0.0000 -4.4190
#
#
#
# Elastic Compliance Matrix: (Units=1/GPa)
#
#
# Indices 1 2 3 4 5 6 
#
# 1 0.018211 -0.001351 -0.008464 0.000000 0.004829 0.000000
# 2 -0.001351 0.017084 -0.003670 0.000000 -0.004118 0.000000
# 3 -0.008464 -0.003670 0.020355 0.000000 0.000260 0.000000
# 4 0.000000 0.000000 0.000000 0.006669 0.000000 0.037942
# 5 0.004829 -0.004118 0.000260 0.000000 0.029436 0.000000
# 6 0.000000 0.000000 0.000000 0.037942 0.000000 -0.010446
#
#
# Mechanical properties :
#
#
# Convention : Reuss Voigt Hill
#
# Bulk Modulus (GPa) = 34.86674 35.67163 35.26918
# Shear Modulus (GPa) = 42.43073 17.54165 29.98619
#
# Velocity S-wave (km/s) = 4.68887 3.01483 3.94174
# Velocity P-wave (km/s) = 6.88333 5.53193 6.24429
#
# Compressibility (1/GPa) = 0.02868063
#
# Stress axis : x y z
#
# Youngs Moduli (GPa) = 54.91217 58.53355 49.12793
#
# Poissons Ratio (x) = 0.07909 0.41581
# Poissons Ratio (y) = 0.07419 0.18029
# Poissons Ratio (z) = 0.46477 0.21481
#
# Static dielectric constant tensor:
#      x y z
#    x 1.698480 0.000000 -0.022460 
#    y 0.000000 1.654250 0.000000 
#    z -0.022460 0.000000 1.736510 
# 
# From -- ./inp_files/48507.got.cif
#   From: 2010.05.17/outbox.cif.g08.bks.cpg/sg15_25_cif.got.tgz:48507.got - 2010.06.03 18:47:42.
