data_PCOD9280319
_publ_section_title
;
Structure prediction by ZEFSAII (Michael W. Deem and Ramdas Pophale) SiO2 
 PCOD9280319
Probable space group: C 2/C
;
_chemical_formula_sum "Si O2"
_cell_formula_units_Z 64
_cell_length_a 25.069432
_cell_length_b 13.890333
_cell_length_c 10.017740
_cell_angle_alpha 90.000000
_cell_angle_beta 89.939588
_cell_angle_gamma 90.000000
_cell_volume 3488.403119
_symmetry_space_group_name_H-M "C 2/C"
_symmetry_group_IT_number 15
_symmetry_cell_setting 'monoclinic'
loop_
_space_group_symop_operation_xyz
x,y,z
-x,y,1/2-z
-x,-y,-z
x,-y,1/2+z
1/2+x,1/2+y,z
1/2-x,1/2+y,1/2-z
1/2-x,1/2-y,-z
1/2+x,1/2-y,1/2+z
loop_
_atom_site_type_symbol
_atom_site_label
_atom_site_fract_x
_atom_site_fract_y
_atom_site_fract_z
Si Si1 0.813818 0.601977 0.202910
Si Si2 0.313565 0.928743 0.012240
Si Si3 0.343869 0.310054 0.137428
Si Si4 0.187811 0.132632 0.155226
Si Si5 0.526650 0.636788 0.391364
Si Si6 0.864170 0.224796 0.081382
Si Si7 0.544742 0.415612 0.364575
Si Si8 0.305476 0.412604 0.376028
O O1 0.830577 0.522353 0.095200
O O2 0.818544 0.562399 0.353058
O O3 0.845800 0.700430 0.184534
O O4 0.751486 0.629471 0.179137
O O5 0.343794 0.832481 0.057909
O O6 0.251311 0.916319 0.050958
O O7 0.399716 0.363716 0.162805
O O8 0.301118 0.366570 0.229269
O O9 0.327190 0.316889 0.983439
O O10 0.159090 0.182438 0.279985
O O11 0.171931 0.020217 0.138706
O O12 0.500000 0.655471 0.250000
O O13 0.572443 0.713105 0.419915
O O14 0.553054 0.529891 0.385725
O O15 0.481375 0.628687 0.502926
O O16 0.841865 0.157131 0.963502
O O17 0.500000 0.405857 0.250000
#
# Coordination Sequence:
#
# PCOD9280319 Si02
#       8
#     8   8   8   8   8   8   8   8
#     4  11  25  42  59  86 121 160 202 250 290 344
#     4  11  25  41  61  85 120 159 203 248 292 345
#     4  12  23  38  61  89 123 160 205 238 295 359
#     4  11  23  34  59  93 125 158 191 241 294 360
#     4  10  21  37  58  87 122 149 192 239 298 355
#     4  12  21  39  63  85 119 165 198 238 296 358
#     4  10  21  37  59  88 118 155 189 244 296 354
#     4  11  21  37  58  89 125 156 196 238 290 362
#
# _framework density 18.346502999999998
#
# number of rings (size 3 to 8) (size 9 to 14) (size 15 to 20)
#    0.000    1.000    2.500    5.250    7.000    2.000 
#    0.000    0.000    0.000    1.500    0.000    0.000 
#    0.000    0.000    0.000    0.000    0.000    0.000 
#
# Total GULP energy -178941.616670 kJ/mol
# GULP energy per Si atom -5591.925521 kJ/mol
# Density = 1.830475 g / cm^3
# Si number density = 18.346503 Si / 1000 Ang^3
#
#
#
# Elastic Constant Matrix: (Units=GPa)
#
#
# Indices 1 2 3 4 5 6 
#
# 1 28.1268 20.3253 5.3542 0.0000 -1.2643 0.0000
# 2 20.3253 74.5987 22.8325 0.0000 -6.6126 0.0000
# 3 5.3542 22.8325 116.2174 0.0000 -3.5102 0.0000
# 4 0.0000 0.0000 0.0000 31.3876 0.0000 -0.8405
# 5 -1.2643 -6.6126 -3.5102 0.0000 10.5336 0.0000
# 6 0.0000 0.0000 0.0000 -0.8405 0.0000 22.8233
#
#
#
# Elastic Compliance Matrix: (Units=1/GPa)
#
#
# Indices 1 2 3 4 5 6 
#
# 1 0.044338 -0.012386 0.000320 0.000000 -0.002347 0.000000
# 2 -0.012386 0.018442 -0.002776 0.000000 0.009166 0.000000
# 3 0.000320 -0.002776 0.009176 0.000000 0.001354 0.000000
# 4 0.000000 0.000000 0.000000 0.031891 0.000000 0.001174
# 5 -0.002347 0.009166 0.001354 0.000000 0.100858 0.000000
# 6 0.000000 0.000000 0.000000 0.001174 0.000000 0.043858
#
#
# Mechanical properties :
#
#
# Convention : Reuss Voigt Hill
#
# Bulk Modulus (GPa) = 23.65666 35.10742 29.38204
# Shear Modulus (GPa) = 17.10354 24.31096 20.70725
#
# Velocity S-wave (km/s) = 3.05659 3.64414 3.36322
# Velocity P-wave (km/s) = 5.03779 6.07319 5.57956
#
# Compressibility (1/GPa) = 0.04227140
#
# Stress axis : x y z
#
# Youngs Moduli (GPa) = 22.55419 54.22444 108.97953
#
# Poissons Ratio (x) = 0.67164 -0.03486
# Poissons Ratio (y) = 0.27936 0.30249
# Poissons Ratio (z) = -0.00722 0.15051
#
# Static dielectric constant tensor:
#      x y z
#    x 1.607830 0.000000 0.003190 
#    y 0.000000 1.621280 0.000000 
#    z 0.003190 0.000000 1.635550 
# 
# From -- ./inp_files/61912.got.cif
#   From: 2010.05.17/outbox.cif.g08.bks.cpg/sg15_31_cif.got.tgz:61912.got - 2010.06.03 18:47:42.
