data_PCOD9280304
_publ_section_title
;
Structure prediction by ZEFSAII (Michael W. Deem and Ramdas Pophale) SiO2 
 PCOD9280304
Probable space group: C 2/C
;
_chemical_formula_sum "Si O2"
_cell_formula_units_Z 40
_cell_length_a 8.361406
_cell_length_b 17.335014
_cell_length_c 18.020229
_cell_angle_alpha 90.000000
_cell_angle_beta 51.004744
_cell_angle_gamma 90.000000
_cell_volume 2029.997603
_symmetry_space_group_name_H-M "C 2/C"
_symmetry_group_IT_number 15
_symmetry_cell_setting 'monoclinic'
loop_
_space_group_symop_operation_xyz
x,y,z
-x,y,1/2-z
-x,-y,-z
x,-y,1/2+z
1/2+x,1/2+y,z
1/2-x,1/2+y,1/2-z
1/2-x,1/2-y,-z
1/2+x,1/2-y,1/2+z
loop_
_atom_site_type_symbol
_atom_site_label
_atom_site_fract_x
_atom_site_fract_y
_atom_site_fract_z
Si Si1 0.500000 0.153042 0.250000
Si Si2 0.547627 0.570734 0.892600
Si Si3 0.000000 0.624357 0.750000
Si Si4 0.532715 0.735760 0.601162
Si Si5 0.954177 0.903177 0.593512
Si Si6 0.610826 0.270905 0.646139
O O1 0.503204 0.207343 0.320728
O O2 0.286444 0.107279 0.317639
O O3 0.794720 0.575437 0.814361
O O4 0.472844 0.646603 0.871887
O O5 0.473283 0.485330 0.894166
O O6 0.483918 0.587728 0.996610
O O7 0.997553 0.686125 0.819704
O O8 0.750000 0.750000 0.500000
O O9 0.345564 0.752896 0.598790
O O10 0.071447 0.827909 0.590108
O O11 0.500000 0.310252 0.750000
#
# Coordination Sequence:
#
# PCOD9280304 Si02
#       6
#     4   8   4   8   8   8
#     4  12  21  38  65  84 116 162 192 246 311 338
#     4  10  21  37  58  86 121 147 200 245 294 362
#     4   8  17  36  55  80 112 152 194 242 277 354
#     4  11  22  41  60  87 120 154 205 249 292 362
#     4  11  21  36  62  86 115 159 191 244 307 352
#     4   9  19  38  60  81 113 151 199 235 289 356
#
# _framework density 19.704456
#
# number of rings (size 3 to 8) (size 9 to 14) (size 15 to 20)
#    0.600    1.200    4.000    0.600    0.000    3.200 
#    9.000    1.000    0.000    0.000    0.000    0.000 
#    0.000    0.000    0.000    0.000    0.000    0.000 
#
# Total GULP energy -111441.510046 kJ/mol
# GULP energy per Si atom -5572.075502 kJ/mol
# Density = 1.965961 g / cm^3
# Si number density = 19.704456 Si / 1000 Ang^3
#
#
#
# Elastic Constant Matrix: (Units=GPa)
#
#
# Indices 1 2 3 4 5 6 
#
# 1 43.5084 22.1778 27.5433 0.0000 -17.0785 -0.0001
# 2 22.1778 121.2369 14.2966 0.0000 1.5864 0.0000
# 3 27.5433 14.2966 103.3898 -0.0001 -24.4187 -0.0001
# 4 0.0000 0.0000 -0.0001 -17.0642 0.0001 -30.5973
# 5 -17.0785 1.5864 -24.4187 0.0001 31.8661 0.0001
# 6 -0.0001 0.0000 -0.0001 -30.5973 0.0001 -7.6497
#
#
#
# Elastic Compliance Matrix: (Units=1/GPa)
#
#
# Indices 1 2 3 4 5 6 
#
# 1 0.035240 -0.006070 -0.004904 0.000000 0.015431 0.000000
# 2 -0.006070 0.009497 -0.000704 0.000000 -0.004265 0.000000
# 3 -0.004904 -0.000704 0.012776 0.000000 0.007196 0.000000
# 4 0.000000 0.000000 0.000000 0.009495 0.000000 -0.037978
# 5 0.015431 -0.004265 0.007196 0.000000 0.045378 0.000000
# 6 0.000000 0.000000 0.000000 -0.037978 0.000000 0.021180
#
#
# Mechanical properties :
#
#
# Convention : Reuss Voigt Hill
#
# Bulk Modulus (GPa) = 29.27625 44.01895 36.64760
# Shear Modulus (GPa) = 29.70747 15.03828 22.37287
#
# Velocity S-wave (km/s) = 3.88706 2.76559 3.37326
# Velocity P-wave (km/s) = 5.91909 5.70842 5.81471
#
# Compressibility (1/GPa) = 0.03415739
#
# Stress axis : x y z
#
# Youngs Moduli (GPa) = 28.37693 105.29112 78.27442
#
# Poissons Ratio (x) = 0.63912 0.38387
# Poissons Ratio (y) = 0.17225 0.05507
# Poissons Ratio (z) = 0.13917 0.07408
#
# Static dielectric constant tensor:
#      x y z
#    x 1.461940 0.000000 0.088610 
#    y 0.000000 1.722500 0.000000 
#    z 0.088610 0.000000 1.696640 
# 
# From -- ./inp_files/189524.got.cif
#   From: 2010.05.17/outbox.cif.g08.bks.cpg/sg15_95_cif.got.tgz:189524.got - 2010.06.03 18:47:42.
