data_PCOD9280586
_publ_section_title
;
Structure prediction by ZEFSAII (Michael W. Deem and Ramdas Pophale) SiO2 
 PCOD9280586
Probable space group: C 2/C
;
_chemical_formula_sum "Si O2"
_cell_formula_units_Z 48
_cell_length_a 15.010595
_cell_length_b 23.473117
_cell_length_c 8.399154
_cell_angle_alpha 90.000000
_cell_angle_beta 41.810891
_cell_angle_gamma 90.000000
_cell_volume 1972.957991
_symmetry_space_group_name_H-M "C 2/C"
_symmetry_group_IT_number 15
_symmetry_cell_setting 'monoclinic'
loop_
_space_group_symop_operation_xyz
x,y,z
-x,y,1/2-z
-x,-y,-z
x,-y,1/2+z
1/2+x,1/2+y,z
1/2-x,1/2+y,1/2-z
1/2-x,1/2-y,-z
1/2+x,1/2-y,1/2+z
loop_
_atom_site_type_symbol
_atom_site_label
_atom_site_fract_x
_atom_site_fract_y
_atom_site_fract_z
Si Si1 0.371555 0.049705 0.856462
Si Si2 0.427484 0.137373 0.515331
Si Si3 0.316412 0.842303 0.656472
Si Si4 0.415278 0.455860 0.708590
Si Si5 0.065198 0.823442 0.839853
Si Si6 0.301072 0.689337 0.871589
O O1 0.500000 0.016845 0.750000
O O2 0.394072 0.080088 0.657561
O O3 0.354179 0.101898 0.004844
O O4 0.230294 0.019570 0.055862
O O5 0.533992 0.174016 0.479292
O O6 0.289168 0.168021 0.655705
O O7 0.500000 0.127306 0.250000
O O8 0.217451 0.803615 0.679071
O O9 0.233480 0.850771 0.931339
O O10 0.500000 0.447642 0.750000
O O11 0.500000 0.500000 0.500000
O O12 0.413367 0.391029 0.651591
O O13 0.000000 0.814816 0.750000
O O14 0.952910 0.805473 0.115088
O O15 0.250000 0.750000 0.000000
#
# Coordination Sequence:
#
# PCOD9280586 Si02
#       6
#     8   8   8   8   8   8
#     4   9  18  38  62  86 118 158 202 248 306 370
#     4   9  18  34  56  84 116 154 198 245 294 354
#     4   9  19  33  56  83 109 150 195 245 298 348
#     4  10  21  37  61  91 119 153 197 249 311 382
#     4  10  21  40  61  84 118 158 198 252 313 367
#     4  11  22  36  55  86 121 157 200 247 301 363
#
# _framework density 24.328952000000001
#
# number of rings (size 3 to 8) (size 9 to 14) (size 15 to 20)
#    0.000    2.333    0.000    3.500    0.000    6.667 
#    0.000   10.000    0.000    3.000    0.000    0.000 
#    0.000    0.000    0.000    0.000    0.000    0.000 
#
# Total GULP energy -133842.247446 kJ/mol
# GULP energy per Si atom -5576.760310 kJ/mol
# Density = 2.427358 g / cm^3
# Si number density = 24.328952 Si / 1000 Ang^3
#
#
#
# Elastic Constant Matrix: (Units=GPa)
#
#
# Indices 1 2 3 4 5 6 
#
# 1 161.2694 9.0419 33.0536 0.0000 -29.9005 0.0000
# 2 9.0419 32.1744 17.1742 0.0000 6.5521 0.0000
# 3 33.0536 17.1742 109.6838 0.0000 -21.4984 0.0000
# 4 0.0000 0.0000 0.0000 34.8406 0.0000 3.1134
# 5 -29.9005 6.5521 -21.4984 0.0000 51.2761 0.0000
# 6 0.0000 0.0000 0.0000 3.1134 0.0000 2.6940
#
#
#
# Elastic Compliance Matrix: (Units=1/GPa)
#
#
# Indices 1 2 3 4 5 6 
#
# 1 0.007309 -0.002348 -0.001025 0.000000 0.004132 0.000000
# 2 -0.002348 0.037258 -0.006894 0.000000 -0.009021 0.000000
# 3 -0.001025 -0.006894 0.011507 0.000000 0.005108 0.000000
# 4 0.000000 0.000000 0.000000 0.032008 0.000000 -0.036990
# 5 0.004132 -0.009021 0.005108 0.000000 0.025206 0.000000
# 6 0.000000 0.000000 0.000000 -0.036990 0.000000 0.413949
#
#
# Mechanical properties :
#
#
# Convention : Reuss Voigt Hill
#
# Bulk Modulus (GPa) = 28.13890 46.85189 37.49540
# Shear Modulus (GPa) = 8.93469 34.01933 21.47701
#
# Velocity S-wave (km/s) = 1.91844 3.74345 2.97438
# Velocity P-wave (km/s) = 4.06182 6.16312 5.21931
#
# Compressibility (1/GPa) = 0.03553799
#
# Stress axis : x y z
#
# Youngs Moduli (GPa) = 136.82372 26.84021 86.90699
#
# Poissons Ratio (x) = 0.06303 0.08907
# Poissons Ratio (y) = 0.32132 0.59915
# Poissons Ratio (z) = 0.14022 0.18504
#
# Static dielectric constant tensor:
#      x y z
#    x 2.067230 0.000000 -0.049730 
#    y 0.000000 1.790140 0.000000 
#    z -0.049730 0.000000 1.950120 
# 
# From -- ./inp_files/44414.got.cif
#   From: 2010.05.17/outbox.cif.g08.bks.cpg/sg15_23_cif.got.tgz:44414.got - 2010.06.03 18:47:42.
