data_PCOD9280487
_publ_section_title
;
Structure prediction by ZEFSAII (Michael W. Deem and Ramdas Pophale) SiO2 
 PCOD9280487
Probable space group: C 2/C
;
_chemical_formula_sum "Si O2"
_cell_formula_units_Z 40
_cell_length_a 5.038189
_cell_length_b 34.784081
_cell_length_c 11.053145
_cell_angle_alpha 90.000000
_cell_angle_beta 102.321481
_cell_angle_gamma 90.000000
_cell_volume 1892.431399
_symmetry_space_group_name_H-M "C 2/C"
_symmetry_group_IT_number 15
_symmetry_cell_setting 'monoclinic'
loop_
_space_group_symop_operation_xyz
x,y,z
-x,y,1/2-z
-x,-y,-z
x,-y,1/2+z
1/2+x,1/2+y,z
1/2-x,1/2+y,1/2-z
1/2-x,1/2-y,-z
1/2+x,1/2-y,1/2+z
loop_
_atom_site_type_symbol
_atom_site_label
_atom_site_fract_x
_atom_site_fract_y
_atom_site_fract_z
Si Si1 0.065584 0.722086 0.397170
Si Si2 0.058978 0.171809 0.395526
Si Si3 0.672597 0.946358 0.887768
Si Si4 0.302039 0.590936 0.012622
Si Si5 0.792448 0.026079 0.834582
O O1 0.250000 0.750000 0.500000
O O2 0.263659 0.685180 0.409973
O O3 0.000000 0.734970 0.250000
O O4 0.774989 0.707138 0.418068
O O5 0.182981 0.136617 0.482609
O O6 0.000000 0.160929 0.250000
O O7 0.500000 0.948704 0.750000
O O8 0.482020 0.925574 0.966631
O O9 0.941358 0.922743 0.884092
O O10 0.750846 0.990504 0.923311
O O11 0.373390 0.566671 0.899806
O O12 0.500000 0.032858 0.750000
O O13 0.000000 0.014034 0.750000
#
# Coordination Sequence:
#
# PCOD9280487 Si02
#       5
#     8   8   8   8   8
#     4  10  21  40  64  90 121 154 190 235 290 357
#     4  10  21  37  60  91 119 146 186 240 294 343
#     4  11  21  35  56  83 110 147 199 247 292 345
#     4  12  22  37  59  83 114 153 193 242 299 348
#     4  11  23  39  54  77 114 158 202 246 288 341
#
# _framework density 21.136828000000001
#
# number of rings (size 3 to 8) (size 9 to 14) (size 15 to 20)
#    0.000    1.200    0.000    8.400    0.000    1.600 
#    0.000    3.000    0.000    0.000    0.000    0.000 
#    0.000    0.000    0.000    0.000    0.000    0.000 
#
# Total GULP energy -111552.664710 kJ/mol
# GULP energy per Si atom -5577.633235 kJ/mol
# Density = 2.108872 g / cm^3
# Si number density = 21.136828 Si / 1000 Ang^3
#
#
#
# Elastic Constant Matrix: (Units=GPa)
#
#
# Indices 1 2 3 4 5 6 
#
# 1 113.6637 4.2389 15.7430 0.0000 13.0554 0.0000
# 2 4.2389 81.8231 28.5637 0.0000 3.5673 0.0000
# 3 15.7430 28.5637 42.9168 0.0000 16.3487 0.0000
# 4 0.0000 0.0000 0.0000 26.6653 0.0000 5.3111
# 5 13.0554 3.5673 16.3487 0.0000 36.0910 0.0000
# 6 0.0000 0.0000 0.0000 5.3111 0.0000 23.0393
#
#
#
# Elastic Compliance Matrix: (Units=1/GPa)
#
#
# Indices 1 2 3 4 5 6 
#
# 1 0.009444 0.000698 -0.003144 0.000000 -0.002061 0.000000
# 2 0.000698 0.016439 -0.012668 0.000000 0.003861 0.000000
# 3 -0.003144 -0.012668 0.038644 0.000000 -0.015116 0.000000
# 4 0.000000 0.000000 0.000000 0.039307 0.000000 -0.009061
# 5 -0.002061 0.003861 -0.015116 0.000000 0.034919 0.000000
# 6 0.000000 0.000000 0.000000 -0.009061 0.000000 0.045493
#
#
# Mechanical properties :
#
#
# Convention : Reuss Voigt Hill
#
# Bulk Modulus (GPa) = 29.15519 37.27722 33.21621
# Shear Modulus (GPa) = 22.13302 29.81632 25.97467
#
# Velocity S-wave (km/s) = 3.23945 3.75991 3.50934
# Velocity P-wave (km/s) = 5.27404 6.04349 5.67183
#
# Compressibility (1/GPa) = 0.03429921
#
# Stress axis : x y z
#
# Youngs Moduli (GPa) = 105.88708 60.82947 25.87735
#
# Poissons Ratio (x) = -0.04246 0.08135
# Poissons Ratio (y) = -0.07392 0.32782
# Poissons Ratio (z) = 0.33288 0.77061
#
# Static dielectric constant tensor:
#      x y z
#    x 1.790310 0.000000 0.052890 
#    y 0.000000 1.798770 0.000000 
#    z 0.052890 0.000000 1.862020 
# 
# From -- ./inp_files/73600.got.cif
#   From: 2010.05.17/outbox.cif.g08.bks.cpg/sg15_37_cif.got.tgz:73600.got - 2010.06.03 18:47:42.
