data_PCOD9280714
_publ_section_title
;
Structure prediction by ZEFSAII (Michael W. Deem and Ramdas Pophale) SiO2 
 PCOD9280714
Probable space group: C 2/C
;
_chemical_formula_sum "Si O2"
_cell_formula_units_Z 52
_cell_length_a 23.355225
_cell_length_b 14.790833
_cell_length_c 9.307056
_cell_angle_alpha 90.000000
_cell_angle_beta 134.518461
_cell_angle_gamma 90.000000
_cell_volume 2292.416443
_symmetry_space_group_name_H-M "C 2/C"
_symmetry_group_IT_number 15
_symmetry_cell_setting 'monoclinic'
loop_
_space_group_symop_operation_xyz
x,y,z
-x,y,1/2-z
-x,-y,-z
x,-y,1/2+z
1/2+x,1/2+y,z
1/2-x,1/2+y,1/2-z
1/2-x,1/2-y,-z
1/2+x,1/2-y,1/2+z
loop_
_atom_site_type_symbol
_atom_site_label
_atom_site_fract_x
_atom_site_fract_y
_atom_site_fract_z
Si Si1 0.592053 0.107230 0.753862
Si Si2 0.405818 0.042859 0.441062
Si Si3 0.349715 0.313066 0.679311
Si Si4 0.476684 0.623423 0.948714
Si Si5 0.252262 0.769086 0.249455
Si Si6 0.365957 0.790748 0.702086
Si Si7 0.500000 0.486225 0.750000
O O1 0.499349 0.074662 0.606564
O O2 0.611312 0.213059 0.781465
O O3 0.613607 0.057723 0.643701
O O4 0.629441 0.069081 0.967033
O O5 0.377409 0.105895 0.262250
O O6 0.286442 0.304652 0.697293
O O7 0.297361 0.334657 0.445205
O O8 0.426764 0.370563 0.860648
O O9 0.440288 0.721414 0.849248
O O10 0.456581 0.555035 0.783949
O O11 0.450826 0.579618 0.055835
O O12 0.330472 0.790503 0.481051
O O13 0.192242 0.742034 0.271469
#
# Coordination Sequence:
#
# PCOD9280714 Si02
#       7
#     8   8   8   8   8   8   4
#     4  10  21  37  62  97 125 154 201 253 302 365
#     4  10  21  37  62  97 125 154 201 253 302 365
#     4  11  21  42  67  91 121 177 201 258 305 390
#     4  11  22  42  73  90 121 162 222 257 328 358
#     4  10  24  36  64  90 132 156 220 246 308 370
#     4  11  21  42  67  91 121 177 201 258 305 390
#     4  10  24  38  64 106 118 144 216 308 298 350
#
# _framework density 22.683485999999998
#
# number of rings (size 3 to 8) (size 9 to 14) (size 15 to 20)
#    0.000    1.538    3.077    1.846    2.154    0.000 
#    0.000    0.000   67.692    0.000    0.000    0.000 
#    0.000    0.000    0.000    0.000    0.000    0.000 
#
# Total GULP energy -144788.348629 kJ/mol
# GULP energy per Si atom -5568.782640 kJ/mol
# Density = 2.263186 g / cm^3
# Si number density = 22.683486 Si / 1000 Ang^3
#
#
#
# Elastic Constant Matrix: (Units=GPa)
#
#
# Indices 1 2 3 4 5 6 
#
# 1 65.5673 -9.3870 30.5485 0.0000 -9.2445 0.0000
# 2 -9.3870 9.4824 -8.0205 0.0000 -14.5787 0.0000
# 3 30.5485 -8.0205 129.0566 0.0000 -21.1626 0.0000
# 4 0.0000 0.0000 0.0000 -45.3930 0.0000 -28.4114
# 5 -9.2445 -14.5787 -21.1626 0.0000 33.5930 0.0000
# 6 0.0000 0.0000 0.0000 -28.4114 0.0000 5.3249
#
#
#
# Elastic Compliance Matrix: (Units=1/GPa)
#
#
# Indices 1 2 3 4 5 6 
#
# 1 -0.009957 -0.161980 -0.021954 0.000000 -0.086867 0.000000
# 2 -0.161980 -0.961924 -0.108401 0.000000 -0.530321 0.000000
# 3 -0.021954 -0.108401 -0.002784 0.000000 -0.054839 0.000000
# 4 0.000000 0.000000 0.000000 -0.005077 0.000000 -0.027086
# 5 -0.086867 -0.530321 -0.054839 0.000000 -0.258833 0.000000
# 6 0.000000 0.000000 0.000000 -0.027086 0.000000 0.043276
#
#
# Mechanical properties :
#
#
# Convention : Reuss Voigt Hill
#
# Bulk Modulus (GPa) = -0.64130 25.59871 12.47870
# Shear Modulus (GPa) = -4.42318 11.43601 3.50641
#
# Velocity S-wave (km/s) = -1.39792 2.24778 1.24465
# Velocity P-wave (km/s) = 1.69968 4.24810 2.75295
#
# Compressibility (1/GPa) = -1.55933523
#
# Stress axis : x y z
#
# Youngs Moduli (GPa) = -100.42826 -1.03958 -359.17748
#
# Poissons Ratio (x) = -0.16839 -7.88538
# Poissons Ratio (y) = -16.26738 -38.93514
# Poissons Ratio (z) = -2.20480 -0.11269
#
# Static dielectric constant tensor:
#      x y z
#    x 1.913580 0.000000 0.036240 
#    y 0.000000 1.845560 0.000000 
#    z 0.036240 0.000000 1.922820 
# 
# From -- ./inp_files/66314.got.cif
#   From: 2010.05.17/outbox.cif.g08.bks.cpg/sg15_34_cif.got.tgz:66314.got - 2010.06.03 18:47:42.
