data_PCOD9280614
_publ_section_title
;
Structure prediction by ZEFSAII (Michael W. Deem and Ramdas Pophale) SiO2 
 PCOD9280614
Probable space group: C 2/C
;
_chemical_formula_sum "Si O2"
_cell_formula_units_Z 56
_cell_length_a 14.805756
_cell_length_b 11.097218
_cell_length_c 21.963171
_cell_angle_alpha 90.000000
_cell_angle_beta 131.499445
_cell_angle_gamma 90.000000
_cell_volume 2702.711022
_symmetry_space_group_name_H-M "C 2/C"
_symmetry_group_IT_number 15
_symmetry_cell_setting 'monoclinic'
loop_
_space_group_symop_operation_xyz
x,y,z
-x,y,1/2-z
-x,-y,-z
x,-y,1/2+z
1/2+x,1/2+y,z
1/2-x,1/2+y,1/2-z
1/2-x,1/2-y,-z
1/2+x,1/2-y,1/2+z
loop_
_atom_site_type_symbol
_atom_site_label
_atom_site_fract_x
_atom_site_fract_y
_atom_site_fract_z
Si Si1 0.500000 0.464402 0.250000
Si Si2 0.865460 0.388244 0.088734
Si Si3 0.460559 0.381347 0.947507
Si Si4 0.719043 0.118516 0.274929
Si Si5 0.865459 0.111756 0.088734
Si Si6 0.780957 0.881484 0.225071
Si Si7 0.000000 0.464402 0.750000
Si Si8 0.960558 0.618653 0.947506
O O1 0.410295 0.543260 0.168163
O O2 0.413926 0.391776 0.256904
O O3 0.835002 0.250000 0.091570
O O4 0.910296 0.456741 0.168163
O O5 0.975120 0.386363 0.089616
O O6 0.750001 0.438300 1.000000
O O7 0.318064 0.382806 0.872756
O O8 0.524881 0.386364 0.910384
O O9 0.494402 0.250000 0.989972
O O10 0.500000 0.500000 0.000000
O O11 0.733359 0.250001 0.249954
O O12 0.586074 0.108225 0.243096
O O13 0.750000 0.000001 0.250000
O O14 0.681937 0.882806 0.127244
O O15 0.000000 0.500000 0.000000
#
# Coordination Sequence:
#
# PCOD9280614 Si02
#       8
#     4   8   8   8   8   8   4   8
#     4  12  22  40  68  94 131 172 215 270 339 372
#     4  10  21  37  61  95 131 169 219 267 320 394
#     4  10  21  40  61  90 127 167 214 268 319 386
#     4  11  24  42  64  93 131 169 216 268 322 389
#     4  10  21  37  61  95 131 169 219 267 320 394
#     4  11  24  42  64  93 131 169 216 268 322 389
#     4  12  22  40  68  94 131 172 215 270 339 372
#     4  10  21  40  61  90 127 167 214 268 319 386
#
# _framework density 20.719936000000001
#
# number of rings (size 3 to 8) (size 9 to 14) (size 15 to 20)
#    0.000    1.429    2.857    2.571    0.000    2.286 
#    0.000    0.000    0.000    6.000    0.000    0.000 
#    0.000    0.000    0.000    0.000    0.000    0.000 
#
# Total GULP energy -156231.579143 kJ/mol
# GULP energy per Si atom -5579.699255 kJ/mol
# Density = 2.067278 g / cm^3
# Si number density = 20.719936 Si / 1000 Ang^3
#
#
#
# Elastic Constant Matrix: (Units=GPa)
#
#
# Indices 1 2 3 4 5 6 
#
# 1 61.8062 26.7852 -1.6940 0.0000 14.4532 0.0000
# 2 26.7852 191.3334 51.4849 0.0000 -17.8440 0.0000
# 3 -1.6940 51.4849 102.6852 0.0000 8.3208 0.0000
# 4 0.0000 0.0000 0.0000 23.4419 0.0000 1.1677
# 5 14.4532 -17.8440 8.3208 0.0000 33.3764 0.0000
# 6 0.0000 0.0000 0.0000 1.1677 0.0000 23.5785
#
#
#
# Elastic Compliance Matrix: (Units=1/GPa)
#
#
# Indices 1 2 3 4 5 6 
#
# 1 0.021759 -0.005408 0.004152 0.000000 -0.013349 0.000000
# 2 -0.005408 0.007980 -0.004721 0.000000 0.007785 0.000000
# 3 0.004152 -0.004721 0.012783 0.000000 -0.007509 0.000000
# 4 0.000000 0.000000 0.000000 0.042764 0.000000 -0.002118
# 5 -0.013349 0.007785 -0.007509 0.000000 0.041776 0.000000
# 6 0.000000 0.000000 0.000000 -0.002118 0.000000 0.042516
#
#
# Mechanical properties :
#
#
# Convention : Reuss Voigt Hill
#
# Bulk Modulus (GPa) = 32.71490 56.55300 44.63395
# Shear Modulus (GPa) = 26.07946 34.69593 30.38770
#
# Velocity S-wave (km/s) = 3.55162 4.09653 3.83377
# Velocity P-wave (km/s) = 5.71332 7.05185 6.41758
#
# Compressibility (1/GPa) = 0.03056711
#
# Stress axis : x y z
#
# Youngs Moduli (GPa) = 45.95829 125.31207 78.23138
#
# Poissons Ratio (x) = 0.67773 -0.32484
# Poissons Ratio (y) = 0.24856 0.36934
# Poissons Ratio (z) = -0.19083 0.59162
#
# Static dielectric constant tensor:
#      x y z
#    x 1.756890 0.000000 0.024690 
#    y 0.000000 1.793070 0.000000 
#    z 0.024690 0.000000 1.743640 
# 
# From -- ./inp_files/298598.got.cif
#   From: 2010.05.17/outbox.cif.g08.bks.cpg/sg15_150_cif.got.tgz:298598.got - 2010.06.03 18:47:42.
