data_PCOD9280851
_publ_section_title
;
Structure prediction by ZEFSAII (Michael W. Deem and Ramdas Pophale) SiO2 
 PCOD9280851
Probable space group: C 2/C
;
_chemical_formula_sum "Si O2"
_cell_formula_units_Z 40
_cell_length_a 15.775759
_cell_length_b 9.064672
_cell_length_c 20.508293
_cell_angle_alpha 90.000000
_cell_angle_beta 33.749263
_cell_angle_gamma 90.000000
_cell_volume 1629.305331
_symmetry_space_group_name_H-M "C 2/C"
_symmetry_group_IT_number 15
_symmetry_cell_setting 'monoclinic'
loop_
_space_group_symop_operation_xyz
x,y,z
-x,y,1/2-z
-x,-y,-z
x,-y,1/2+z
1/2+x,1/2+y,z
1/2-x,1/2+y,1/2-z
1/2-x,1/2-y,-z
1/2+x,1/2-y,1/2+z
loop_
_atom_site_type_symbol
_atom_site_label
_atom_site_fract_x
_atom_site_fract_y
_atom_site_fract_z
Si Si1 0.732379 0.815935 0.600121
Si Si2 0.958042 0.951501 0.099749
Si Si3 0.318828 0.971889 0.002776
Si Si4 0.623524 0.036671 0.782100
Si Si5 0.060729 0.820942 0.643465
O O1 0.665638 0.896200 0.578982
O O2 0.713781 0.640515 0.610840
O O3 0.675675 0.906176 0.699120
O O4 0.914500 0.828910 0.470654
O O5 0.001443 0.083339 0.120499
O O6 0.780688 0.910693 0.214476
O O7 0.000000 0.000000 0.000000
O O8 0.491223 0.990863 0.917015
O O9 0.239186 0.129866 0.040428
O O10 0.534141 0.167412 0.801647
O O11 0.000000 0.882804 0.750000
#
# Coordination Sequence:
#
# PCOD9280851 Si02
#       5
#     8   8   8   8   8
#     4   9  20  39  63  97 138 182 233 282 353 425
#     4   9  22  43  66  99 141 190 229 292 357 425
#     4  10  21  37  65 100 134 177 237 288 348 425
#     4  11  22  40  71  98 141 192 234 297 358 415
#     4  11  24  43  67 104 143 183 244 293 357 428
#
# _framework density 24.550341
#
# number of rings (size 3 to 8) (size 9 to 14) (size 15 to 20)
#    0.000    2.000    0.000    2.400    2.800    8.000 
#    3.600    1.000    0.000    0.000    0.000    0.000 
#    0.000    0.000    0.000    0.000    0.000    0.000 
#
# Total GULP energy -111449.022549 kJ/mol
# GULP energy per Si atom -5572.451127 kJ/mol
# Density = 2.449446 g / cm^3
# Si number density = 24.550341 Si / 1000 Ang^3
#
#
#
# Elastic Constant Matrix: (Units=GPa)
#
#
# Indices 1 2 3 4 5 6 
#
# 1 66.1051 -6.3784 32.5422 0.0000 -12.7157 0.0000
# 2 -6.3784 138.6507 33.0333 0.0000 -9.0637 0.0000
# 3 32.5422 33.0333 99.2949 0.0001 -55.0138 0.0000
# 4 0.0000 0.0000 0.0001 116.6813 0.0000 -21.6355
# 5 -12.7157 -9.0637 -55.0138 0.0000 67.2214 0.0000
# 6 0.0000 0.0000 0.0000 -21.6355 0.0000 28.6520
#
#
#
# Elastic Compliance Matrix: (Units=1/GPa)
#
#
# Indices 1 2 3 4 5 6 
#
# 1 0.019257 0.002849 -0.009199 0.000000 -0.003502 0.000000
# 2 0.002849 0.008400 -0.005126 0.000000 -0.002524 0.000000
# 3 -0.009199 -0.005126 0.024597 0.000000 0.017699 0.000000
# 4 0.000000 0.000000 0.000000 0.009966 0.000000 0.007525
# 5 -0.003502 -0.002524 0.017699 0.000000 0.028358 0.000000
# 6 0.000000 0.000000 0.000000 0.007525 0.000000 0.040584
#
#
# Mechanical properties :
#
#
# Convention : Reuss Voigt Hill
#
# Bulk Modulus (GPa) = 34.12873 46.93834 40.53353
# Shear Modulus (GPa) = 30.50962 58.83453 44.67207
#
# Velocity S-wave (km/s) = 3.52907 4.90070 4.27032
# Velocity P-wave (km/s) = 5.52608 7.15425 6.39221
#
# Compressibility (1/GPa) = 0.02930083
#
# Stress axis : x y z
#
# Youngs Moduli (GPa) = 51.92873 119.05067 40.65480
#
# Poissons Ratio (x) = -0.33913 0.37398
# Poissons Ratio (y) = -0.14793 0.20841
# Poissons Ratio (z) = 0.47769 0.61031
#
# Static dielectric constant tensor:
#      x y z
#    x 1.870120 0.000000 -0.085150 
#    y 0.000000 2.085410 0.000000 
#    z -0.085150 0.000000 2.100090 
# 
# From -- ./inp_files/276707.got.cif
#   From: 2010.05.17/outbox.cif.g08.bks.cpg/sg15_139_cif.got.tgz:276707.got - 2010.06.03 18:47:42.
