data_PCOD9280632
_publ_section_title
;
Structure prediction by ZEFSAII (Michael W. Deem and Ramdas Pophale) SiO2 
 PCOD9280632
Probable space group: C 2/C
;
_chemical_formula_sum "Si O2"
_cell_formula_units_Z 44
_cell_length_a 4.974148
_cell_length_b 22.342641
_cell_length_c 18.262066
_cell_angle_alpha 90.000000
_cell_angle_beta 78.269533
_cell_angle_gamma 90.000000
_cell_volume 1987.177913
_symmetry_space_group_name_H-M "C 2/C"
_symmetry_group_IT_number 15
_symmetry_cell_setting 'monoclinic'
loop_
_space_group_symop_operation_xyz
x,y,z
-x,y,1/2-z
-x,-y,-z
x,-y,1/2+z
1/2+x,1/2+y,z
1/2-x,1/2+y,1/2-z
1/2-x,1/2-y,-z
1/2+x,1/2-y,1/2+z
loop_
_atom_site_type_symbol
_atom_site_label
_atom_site_fract_x
_atom_site_fract_y
_atom_site_fract_z
Si Si1 0.000964 0.627257 0.453082
Si Si2 0.957268 0.753635 0.393039
Si Si3 0.000000 0.315448 0.750000
Si Si4 0.000000 0.590756 0.750000
Si Si5 0.094655 0.096228 0.359084
Si Si6 0.563752 0.164717 0.603526
Si Si7 0.000000 0.993086 0.250000
O O1 0.896406 0.695234 0.444776
O O2 0.303880 0.621580 0.401979
O O3 0.792431 0.587156 0.418061
O O4 0.016415 0.619519 0.538853
O O5 0.164707 0.796320 0.423956
O O6 0.094280 0.726317 0.311670
O O7 0.692929 0.790142 0.381648
O O8 0.237026 0.357964 0.703004
O O9 0.898128 0.631610 0.822045
O O10 0.237382 0.549046 0.768784
O O11 0.039237 0.036416 0.317031
#
# Coordination Sequence:
#
# PCOD9280632 Si02
#       7
#     8   8   4   4   8   8   4
#     4  11  23  40  64  98 130 162 203 256 314 369
#     4  11  21  36  62  92 131 172 201 244 300 371
#     4  10  21  37  62 100 126 159 213 256 308 372
#     4  12  27  44  65  88 123 170 213 260 306 374
#     4  11  23  41  68  94 122 157 208 276 318 358
#     4  12  24  42  60  92 132 172 209 245 300 379
#     4  12  24  47  67  90 117 159 214 268 326 364
#
# _framework density 22.141953999999998
#
# number of rings (size 3 to 8) (size 9 to 14) (size 15 to 20)
#    0.000    0.727    0.000   10.364    0.000    2.909 
#    0.000    5.455    0.000    0.000    0.000    0.000 
#    0.000    0.000    0.000    0.000    0.000    0.000 
#
# Total GULP energy -123184.838700 kJ/mol
# GULP energy per Si atom -5599.310850 kJ/mol
# Density = 2.209156 g / cm^3
# Si number density = 22.141954 Si / 1000 Ang^3
#
#
#
# Elastic Constant Matrix: (Units=GPa)
#
#
# Indices 1 2 3 4 5 6 
#
# 1 114.8791 18.1530 0.3353 0.0000 4.6408 0.0000
# 2 18.1530 48.2503 13.9568 0.0000 -1.4244 0.0000
# 3 0.3353 13.9568 106.5659 0.0000 17.8175 0.0000
# 4 0.0000 0.0000 0.0000 23.8542 0.0000 21.8139
# 5 4.6408 -1.4244 17.8175 0.0000 39.1714 0.0000
# 6 0.0000 0.0000 0.0000 21.8139 0.0000 43.7256
#
#
#
# Elastic Compliance Matrix: (Units=1/GPa)
#
#
# Indices 1 2 3 4 5 6 
#
# 1 0.009364 -0.003781 0.000730 0.000000 -0.001579 0.000000
# 2 -0.003781 0.023250 -0.003517 0.000000 0.002893 0.000000
# 3 0.000730 -0.003517 0.010691 0.000000 -0.005077 0.000000
# 4 0.000000 0.000000 0.000000 0.077091 0.000000 -0.038460
# 5 -0.001579 0.002893 -0.005077 0.000000 0.028130 0.000000
# 6 0.000000 0.000000 0.000000 -0.038460 0.000000 0.042057
#
#
# Mechanical properties :
#
#
# Convention : Reuss Voigt Hill
#
# Bulk Modulus (GPa) = 33.14593 37.17614 35.16103
# Shear Modulus (GPa) = 23.38896 37.16693 30.27794
#
# Velocity S-wave (km/s) = 3.25363 4.10149 3.70191
# Velocity P-wave (km/s) = 5.39602 6.26546 5.84692
#
# Compressibility (1/GPa) = 0.03016962
#
# Stress axis : x y z
#
# Youngs Moduli (GPa) = 106.79362 43.01018 93.53597
#
# Poissons Ratio (x) = 0.16260 -0.06825
# Poissons Ratio (y) = 0.40374 0.32895
# Poissons Ratio (z) = -0.07792 0.15126
#
# Static dielectric constant tensor:
#      x y z
#    x 1.810320 0.000000 0.004350 
#    y 0.000000 1.779210 0.000000 
#    z 0.004350 0.000000 1.857000 
# 
# From -- ./inp_files/184909.got.cif
#   From: 2010.05.17/outbox.cif.g08.bks.cpg/sg15_93_cif.got.tgz:184909.got - 2010.06.03 18:47:42.
