data_PCOD9280631
_publ_section_title
;
Structure prediction by ZEFSAII (Michael W. Deem and Ramdas Pophale) SiO2 
 PCOD9280631
Probable space group: C 2/C
;
_chemical_formula_sum "Si O2"
_cell_formula_units_Z 36
_cell_length_a 15.193936
_cell_length_b 13.849257
_cell_length_c 13.786774
_cell_angle_alpha 90.000000
_cell_angle_beta 143.581110
_cell_angle_gamma 90.000000
_cell_volume 1722.324307
_symmetry_space_group_name_H-M "C 2/C"
_symmetry_group_IT_number 15
_symmetry_cell_setting 'monoclinic'
loop_
_space_group_symop_operation_xyz
x,y,z
-x,y,1/2-z
-x,-y,-z
x,-y,1/2+z
1/2+x,1/2+y,z
1/2-x,1/2+y,1/2-z
1/2-x,1/2-y,-z
1/2+x,1/2-y,1/2+z
loop_
_atom_site_type_symbol
_atom_site_label
_atom_site_fract_x
_atom_site_fract_y
_atom_site_fract_z
Si Si1 0.352865 0.630591 0.105869
Si Si2 0.691516 0.169761 0.574330
Si Si3 0.000000 0.793279 0.250000
Si Si4 0.442304 0.021554 0.597704
Si Si5 0.320639 0.190764 0.719109
O O1 0.500000 0.569233 0.250000
O O2 0.372539 0.722616 0.194787
O O3 0.206640 0.579174 0.011883
O O4 0.324584 0.656401 0.968646
O O5 0.586608 0.231916 0.409947
O O6 0.706780 0.217510 0.694111
O O7 0.856618 0.156683 0.674873
O O8 0.606714 0.067430 0.511340
O O9 0.500000 0.976973 0.750000
O O10 0.562402 0.102821 0.678327
#
# Coordination Sequence:
#
# PCOD9280631 Si02
#       5
#     8   8   4   8   8
#     4  10  21  37  61  99 125 156 201 264 311 379
#     4  11  23  44  64  91 122 172 214 259 312 370
#     4  10  26  42  64  86 128 168 216 268 302 364
#     4  10  21  40  65  91 130 164 205 259 312 378
#     4  10  21  38  65  92 127 163 203 250 325 378
#
# _framework density 20.901986999999998
#
# number of rings (size 3 to 8) (size 9 to 14) (size 15 to 20)
#    0.000    1.778    1.111    4.000    7.778    0.000 
#    0.000    1.111    0.000    0.000    0.000    0.000 
#    0.000    0.000    0.000    0.000    0.000    0.000 
#
# Total GULP energy -100269.872585 kJ/mol
# GULP energy per Si atom -5570.548477 kJ/mol
# Density = 2.085441 g / cm^3
# Si number density = 20.901987 Si / 1000 Ang^3
#
#
#
# Elastic Constant Matrix: (Units=GPa)
#
#
# Indices 1 2 3 4 5 6 
#
# 1 81.4293 18.1449 74.0660 0.0000 -21.1136 0.0000
# 2 18.1449 55.1146 32.9618 0.0000 -8.8119 0.0000
# 3 74.0660 32.9618 164.7594 0.0000 3.1753 0.0000
# 4 0.0000 0.0000 0.0000 -35.2360 0.0000 -8.6534
# 5 -21.1136 -8.8119 3.1753 0.0000 48.5780 0.0000
# 6 0.0000 0.0000 0.0000 -8.6534 0.0000 11.0219
#
#
#
# Elastic Compliance Matrix: (Units=1/GPa)
#
#
# Indices 1 2 3 4 5 6 
#
# 1 0.026570 0.000604 -0.012305 0.000000 0.012462 0.000000
# 2 0.000604 0.021436 -0.004646 0.000000 0.004455 0.000000
# 3 -0.012305 -0.004646 0.012666 0.000000 -0.007019 0.000000
# 4 0.000000 0.000000 0.000000 -0.023793 0.000000 -0.018680
# 5 0.012462 0.004455 -0.007019 0.000000 0.027269 0.000000
# 6 0.000000 0.000000 0.000000 -0.018680 0.000000 0.076063
#
#
# Mechanical properties :
#
#
# Convention : Reuss Voigt Hill
#
# Bulk Modulus (GPa) = 35.74268 61.29431 48.51850
# Shear Modulus (GPa) = 27.43781 16.61480 22.02630
#
# Velocity S-wave (km/s) = 3.62704 2.82244 3.24973
# Velocity P-wave (km/s) = 5.88878 6.32533 6.11096
#
# Compressibility (1/GPa) = 0.02797776
#
# Stress axis : x y z
#
# Youngs Moduli (GPa) = 37.63694 46.65074 78.95214
#
# Poissons Ratio (x) = -0.02820 0.97152
# Poissons Ratio (y) = -0.02275 0.36681
# Poissons Ratio (z) = 0.46313 0.21674
#
# Static dielectric constant tensor:
#      x y z
#    x 1.750800 0.000000 0.005400 
#    y 0.000000 1.777150 0.000000 
#    z 0.005400 0.000000 1.777090 
# 
# From -- ./inp_files/37644.got.cif
#   From: 2010.05.17/outbox.cif.g08.bks.cpg/sg15_19_cif.got.tgz:37644.got - 2010.06.03 18:47:42.
