data_PCOD9280107
_publ_section_title
;
Structure prediction by ZEFSAII (Michael W. Deem and Ramdas Pophale) SiO2 
 PCOD9280107
Probable space group: C 2/C
;
_chemical_formula_sum "Si O2"
_cell_formula_units_Z 56
_cell_length_a 19.082713
_cell_length_b 11.070947
_cell_length_c 19.186724
_cell_angle_alpha 90.000000
_cell_angle_beta 145.027583
_cell_angle_gamma 90.000000
_cell_volume 2323.369459
_symmetry_space_group_name_H-M "C 2/C"
_symmetry_group_IT_number 15
_symmetry_cell_setting 'monoclinic'
loop_
_space_group_symop_operation_xyz
x,y,z
-x,y,1/2-z
-x,-y,-z
x,-y,1/2+z
1/2+x,1/2+y,z
1/2-x,1/2+y,1/2-z
1/2-x,1/2-y,-z
1/2+x,1/2-y,1/2+z
loop_
_atom_site_type_symbol
_atom_site_label
_atom_site_fract_x
_atom_site_fract_y
_atom_site_fract_z
Si Si1 0.145057 0.098491 0.977721
Si Si2 0.639315 0.133410 0.450626
Si Si3 0.875910 0.720680 0.721985
Si Si4 0.155155 0.083414 0.612690
Si Si5 0.500000 0.436123 0.750000
Si Si6 0.018595 0.692004 0.975245
Si Si7 0.696329 0.029330 0.636212
Si Si8 0.000000 0.471026 0.250000
O O1 0.094644 0.234802 0.936170
O O2 0.065857 0.016914 0.861274
O O3 0.278778 0.125694 0.052436
O O4 0.151661 0.025844 0.055044
O O5 0.719464 0.076607 0.577559
O O6 0.523730 0.051261 0.337117
O O7 0.756977 0.677762 0.666103
O O8 0.889270 0.620059 0.673052
O O9 0.899516 0.848621 0.705228
O O10 0.986377 0.705497 0.867424
O O11 0.039894 0.172669 0.520123
O O12 0.193456 0.035646 0.719644
O O13 0.130959 0.600319 0.079734
O O14 0.904990 0.623488 0.917571
#
# Coordination Sequence:
#
# PCOD9280107 Si02
#       8
#     8   8   8   8   4   8   8   4
#     4  11  25  43  64  94 132 170 223 269 322 398
#     4  11  24  43  65  93 130 179 217 266 328 390
#     4  10  21  36  67  96 126 160 211 271 335 385
#     4  11  23  42  67  96 127 171 219 277 326 389
#     4  11  23  40  60 100 131 161 210 278 332 387
#     4  10  21  43  65  91 128 166 212 270 321 387
#     4  10  24  42  65  96 127 170 220 259 330 394
#     4  11  19  38  66  94 123 171 212 262 328 391
#
# _framework density 24.102926
#
# number of rings (size 3 to 8) (size 9 to 14) (size 15 to 20)
#    0.000    1.429    4.286    0.429    4.000    0.571 
#    5.143    0.714    0.000    0.000    0.000    0.000 
#    0.000    0.000    0.000    0.000    0.000    0.000 
#
# Total GULP energy -156600.731998 kJ/mol
# GULP energy per Si atom -5592.883286 kJ/mol
# Density = 2.404807 g / cm^3
# Si number density = 24.102926 Si / 1000 Ang^3
#
#
#
# Elastic Constant Matrix: (Units=GPa)
#
#
# Indices 1 2 3 4 5 6 
#
# 1 55.0606 35.7939 18.2138 0.0000 -15.7848 0.0000
# 2 35.7939 185.4514 77.5581 0.0000 -21.9841 0.0000
# 3 18.2138 77.5581 111.2849 0.0000 -38.7655 0.0000
# 4 0.0000 0.0000 0.0000 37.8879 0.0000 -0.9119
# 5 -15.7848 -21.9841 -38.7655 0.0000 36.0830 0.0000
# 6 0.0000 0.0000 0.0000 -0.9119 0.0000 33.6955
#
#
#
# Elastic Compliance Matrix: (Units=1/GPa)
#
#
# Indices 1 2 3 4 5 6 
#
# 1 0.023118 -0.004473 0.003048 0.000000 0.010662 0.000000
# 2 -0.004473 0.008541 -0.006535 0.000000 -0.003774 0.000000
# 3 0.003048 -0.006535 0.019367 0.000000 0.018159 0.000000
# 4 0.000000 0.000000 0.000000 0.026411 0.000000 0.000715
# 5 0.010662 -0.003774 0.018159 0.000000 0.049587 0.000000
# 6 0.000000 0.000000 0.000000 0.000715 0.000000 0.029697
#
#
# Mechanical properties :
#
#
# Convention : Reuss Voigt Hill
#
# Bulk Modulus (GPa) = 28.48523 68.32540 48.40531
# Shear Modulus (GPa) = 27.12320 36.21536 31.66928
#
# Velocity S-wave (km/s) = 3.35820 3.88045 3.62873
# Velocity P-wave (km/s) = 5.18464 6.96320 6.13867
#
# Compressibility (1/GPa) = 0.03510592
#
# Stress axis : x y z
#
# Youngs Moduli (GPa) = 43.25650 117.07877 51.63363
#
# Poissons Ratio (x) = 0.52364 -0.15736
# Poissons Ratio (y) = 0.19347 0.33744
# Poissons Ratio (z) = -0.13183 0.76514
#
# Static dielectric constant tensor:
#      x y z
#    x 1.990980 0.000000 0.063050 
#    y 0.000000 1.923500 0.000000 
#    z 0.063050 0.000000 1.918120 
# 
# From -- ./inp_files/122414.got.cif
#   From: 2010.05.17/outbox.cif.g08.bks.cpg/sg15_62_cif.got.tgz:122414.got - 2010.06.03 18:47:42.
