data_PCOD9280502
_publ_section_title
;
Structure prediction by ZEFSAII (Michael W. Deem and Ramdas Pophale) SiO2 
 PCOD9280502
Probable space group: C 2/C
;
_chemical_formula_sum "Si O2"
_cell_formula_units_Z 56
_cell_length_a 28.932551
_cell_length_b 12.035904
_cell_length_c 22.790915
_cell_angle_alpha 90.000000
_cell_angle_beta 19.345701
_cell_angle_gamma 90.000000
_cell_volume 2629.090295
_symmetry_space_group_name_H-M "C 2/C"
_symmetry_group_IT_number 15
_symmetry_cell_setting 'monoclinic'
loop_
_space_group_symop_operation_xyz
x,y,z
-x,y,1/2-z
-x,-y,-z
x,-y,1/2+z
1/2+x,1/2+y,z
1/2-x,1/2+y,1/2-z
1/2-x,1/2-y,-z
1/2+x,1/2-y,1/2+z
loop_
_atom_site_type_symbol
_atom_site_label
_atom_site_fract_x
_atom_site_fract_y
_atom_site_fract_z
Si Si1 0.581541 0.153266 0.876547
Si Si2 0.167584 0.489178 0.162841
Si Si3 0.416960 0.872527 0.908289
Si Si4 0.880496 0.871341 0.483146
Si Si5 0.207427 0.467223 0.792170
Si Si6 0.599090 0.412427 0.847357
Si Si7 0.160910 0.004970 0.654037
O O1 0.572837 0.284222 0.892741
O O2 0.641759 0.105838 0.742445
O O3 0.674919 0.094177 0.814645
O O4 0.427701 0.101869 0.064696
O O5 0.022058 0.544341 0.316286
O O6 0.263397 0.584117 0.078339
O O7 0.254931 0.452174 0.000987
O O8 0.500000 0.837337 0.750000
O O9 0.386650 0.760620 0.979582
O O10 0.274186 0.923304 0.054359
O O11 0.832378 0.922843 0.602365
O O12 0.032546 0.919991 0.285944
O O13 0.249504 0.443597 0.807875
O O14 0.598086 0.424010 0.778500
O O15 0.500000 0.500000 0.000000
#
# Coordination Sequence:
#
# PCOD9280502 Si02
#       7
#     8   8   8   8   8   8   8
#     4  10  25  45  68  92 132 176 216 270 326 399
#     4  10  22  42  63  92 130 176 218 264 336 392
#     4  10  21  37  60  92 132 171 212 265 328 395
#     4  11  21  36  65  95 131 168 215 278 326 385
#     4  10  24  44  65  95 131 175 216 263 338 392
#     4  12  26  42  66  97 129 166 224 273 324 390
#     4  11  23  39  62  96 128 165 224 272 323 392
#
# _framework density 21.300142999999998
#
# number of rings (size 3 to 8) (size 9 to 14) (size 15 to 20)
#    0.000    1.429    1.429    3.000    4.000    6.286 
#    0.000    0.000    0.000    3.429    0.000    0.000 
#    0.000    0.000    0.000    0.000    0.000    0.000 
#
# Total GULP energy -156444.459164 kJ/mol
# GULP energy per Si atom -5587.302113 kJ/mol
# Density = 2.125166 g / cm^3
# Si number density = 21.300143 Si / 1000 Ang^3
#
#
#
# Elastic Constant Matrix: (Units=GPa)
#
#
# Indices 1 2 3 4 5 6 
#
# 1 81.1713 28.8486 17.7817 0.0000 -6.5828 0.0000
# 2 28.8486 129.1558 36.1452 0.0002 11.5232 -0.0001
# 3 17.7817 36.1452 102.4801 0.0001 -4.5449 0.0000
# 4 0.0000 0.0002 0.0001 14.1202 0.0001 0.1887
# 5 -6.5828 11.5232 -4.5449 0.0001 35.5329 0.0000
# 6 0.0000 -0.0001 0.0000 0.1887 0.0000 14.2111
#
#
#
# Elastic Compliance Matrix: (Units=1/GPa)
#
#
# Indices 1 2 3 4 5 6 
#
# 1 0.013956 -0.003095 -0.001178 0.000000 0.003438 0.000000
# 2 -0.003095 0.009652 -0.003049 0.000000 -0.004093 0.000000
# 3 -0.001178 -0.003049 0.011135 0.000000 0.002195 0.000000
# 4 0.000000 0.000000 0.000000 0.070833 0.000000 -0.000941
# 5 0.003438 -0.004093 0.002195 0.000000 0.030388 0.000000
# 6 0.000000 0.000000 0.000000 -0.000941 0.000000 0.070380
#
#
# Mechanical properties :
#
#
# Convention : Reuss Voigt Hill
#
# Bulk Modulus (GPa) = 49.74809 53.15088 51.44948
# Shear Modulus (GPa) = 21.95991 28.10829 25.03410
#
# Velocity S-wave (km/s) = 3.21436 3.63661 3.43199
# Velocity P-wave (km/s) = 6.09776 6.52999 6.31757
#
# Compressibility (1/GPa) = 0.02010127
#
# Stress axis : x y z
#
# Youngs Moduli (GPa) = 71.65244 103.60239 89.80632
#
# Poissons Ratio (x) = 0.32060 0.10576
# Poissons Ratio (y) = 0.22173 0.27382
# Poissons Ratio (z) = 0.08438 0.31588
#
# Static dielectric constant tensor:
#      x y z
#    x 1.845260 0.000000 0.030080 
#    y 0.000000 1.744830 0.000000 
#    z 0.030080 0.000000 1.794880 
# 
# From -- ./inp_files/284611.got.cif
#   From: 2010.05.17/outbox.cif.g08.bks.cpg/sg15_143_cif.got.tgz:284611.got - 2010.06.03 18:47:42.
