data_PCOD9280661
_publ_section_title
;
Structure prediction by ZEFSAII (Michael W. Deem and Ramdas Pophale) SiO2 
 PCOD9280661
Probable space group: C 2/C
;
_chemical_formula_sum "Si O2"
_cell_formula_units_Z 52
_cell_length_a 6.690688
_cell_length_b 26.785804
_cell_length_c 17.397736
_cell_angle_alpha 90.000000
_cell_angle_beta 123.341366
_cell_angle_gamma 90.000000
_cell_volume 2604.763323
_symmetry_space_group_name_H-M "C 2/C"
_symmetry_group_IT_number 15
_symmetry_cell_setting 'monoclinic'
loop_
_space_group_symop_operation_xyz
x,y,z
-x,y,1/2-z
-x,-y,-z
x,-y,1/2+z
1/2+x,1/2+y,z
1/2-x,1/2+y,1/2-z
1/2-x,1/2-y,-z
1/2+x,1/2-y,1/2+z
loop_
_atom_site_type_symbol
_atom_site_label
_atom_site_fract_x
_atom_site_fract_y
_atom_site_fract_z
Si Si1 0.229900 0.614993 0.571364
Si Si2 0.808353 0.899919 0.595944
Si Si3 0.000000 0.017026 0.250000
Si Si4 0.615214 0.937350 0.200100
Si Si5 0.430198 0.712974 0.147282
Si Si6 0.400806 0.771376 0.462846
Si Si7 0.410176 0.445630 0.459878
O O1 0.223895 0.596715 0.657618
O O2 0.217496 0.674476 0.574677
O O3 0.441863 0.584907 0.573421
O O4 0.978758 0.602409 0.475365
O O5 0.921481 0.847526 0.646517
O O6 0.916441 0.910281 0.535194
O O7 0.872183 0.946541 0.662903
O O8 0.804105 0.981993 0.250836
O O9 0.500000 0.910625 0.250000
O O10 0.367356 0.957122 0.114036
O O11 0.500000 0.728964 0.250000
O O12 0.591818 0.738908 0.114513
O O13 0.166110 0.725146 0.057056
O O14 0.250000 0.750000 0.500000
O O15 0.500000 0.500000 0.500000
#
# Coordination Sequence:
#
# PCOD9280661 Si02
#       7
#     8   8   4   8   8   8   8
#     4  10  22  40  60  85 119 164 208 250 310 371
#     4  10  21  37  62  89 121 160 200 256 314 372
#     4  12  22  38  60  90 124 158 204 258 312 370
#     4  11  23  37  56  84 119 159 204 252 301 364
#     4  10  21  41  64  95 127 161 208 264 327 384
#     4  10  22  41  66  92 125 163 210 267 320 386
#     4  11  21  37  58  83 120 163 204 245 301 372
#
# _framework density 19.963425999999998
#
# number of rings (size 3 to 8) (size 9 to 14) (size 15 to 20)
#    0.000    1.538    0.769    4.615    0.000    4.923 
#    0.000    3.077    0.000    0.000    0.000    0.000 
#    0.000    0.000    0.000    0.000    0.000    0.000 
#
# Total GULP energy -144814.382612 kJ/mol
# GULP energy per Si atom -5569.783947 kJ/mol
# Density = 1.991799 g / cm^3
# Si number density = 19.963426 Si / 1000 Ang^3
#
#
#
# Elastic Constant Matrix: (Units=GPa)
#
#
# Indices 1 2 3 4 5 6 
#
# 1 128.8147 62.8726 28.4152 0.0000 -24.7929 0.0000
# 2 62.8726 100.5280 39.8116 0.0000 6.2120 0.0000
# 3 28.4152 39.8116 76.0441 0.0000 -13.8138 0.0000
# 4 0.0000 0.0000 0.0000 23.4096 0.0000 -5.0614
# 5 -24.7929 6.2120 -13.8138 0.0000 24.8308 0.0000
# 6 0.0000 0.0000 0.0000 -5.0614 0.0000 22.6857
#
#
#
# Elastic Compliance Matrix: (Units=1/GPa)
#
#
# Indices 1 2 3 4 5 6 
#
# 1 0.019629 -0.016402 0.006183 0.000000 0.027142 0.000000
# 2 -0.016402 0.027675 -0.014008 0.000000 -0.031094 0.000000
# 3 0.006183 -0.014008 0.022172 0.000000 0.022013 0.000000
# 4 0.000000 0.000000 0.000000 0.044883 0.000000 0.010014
# 5 0.027142 -0.031094 0.022013 0.000000 0.087398 0.000000
# 6 0.000000 0.000000 0.000000 0.010014 0.000000 0.046315
#
#
# Mechanical properties :
#
#
# Convention : Reuss Voigt Hill
#
# Bulk Modulus (GPa) = 47.57059 63.06506 55.31783
# Shear Modulus (GPa) = 16.47266 25.80437 21.13852
#
# Velocity S-wave (km/s) = 2.87564 3.59915 3.25755
# Velocity P-wave (km/s) = 5.90816 6.99505 6.47445
#
# Compressibility (1/GPa) = 0.02102139
#
# Stress axis : x y z
#
# Youngs Moduli (GPa) = 50.94538 36.13409 45.10127
#
# Poissons Ratio (x) = 0.59268 -0.27886
# Poissons Ratio (y) = 0.83561 0.63178
# Poissons Ratio (z) = -0.31499 0.50617
#
# Static dielectric constant tensor:
#      x y z
#    x 1.707400 0.000000 -0.029460 
#    y 0.000000 1.674650 0.000000 
#    z -0.029460 0.000000 1.723060 
# 
# From -- ./inp_files/130714.got.cif
#   From: 2010.05.17/outbox.cif.g08.bks.cpg/sg15_66_cif.got.tgz:130714.got - 2010.06.03 18:47:42.
