data_PCOD9280195
_publ_section_title
;
Structure prediction by ZEFSAII (Michael W. Deem and Ramdas Pophale) SiO2 
 PCOD9280195
Probable space group: C 2/C
;
_chemical_formula_sum "Si O2"
_cell_formula_units_Z 60
_cell_length_a 15.250393
_cell_length_b 21.006106
_cell_length_c 17.043101
_cell_angle_alpha 90.000000
_cell_angle_beta 143.803628
_cell_angle_gamma 90.000000
_cell_volume 3224.298491
_symmetry_space_group_name_H-M "C 2/C"
_symmetry_group_IT_number 15
_symmetry_cell_setting 'monoclinic'
loop_
_space_group_symop_operation_xyz
x,y,z
-x,y,1/2-z
-x,-y,-z
x,-y,1/2+z
1/2+x,1/2+y,z
1/2-x,1/2+y,1/2-z
1/2-x,1/2-y,-z
1/2+x,1/2-y,1/2+z
loop_
_atom_site_type_symbol
_atom_site_label
_atom_site_fract_x
_atom_site_fract_y
_atom_site_fract_z
Si Si1 0.271088 0.242037 0.421947
Si Si2 0.901467 0.072149 0.756461
Si Si3 0.419522 0.450943 0.561848
Si Si4 0.522167 0.131859 0.953265
Si Si5 0.187099 0.132312 0.655223
Si Si6 0.554164 0.052454 0.475915
Si Si7 0.500000 0.653735 0.250000
Si Si8 0.396410 0.963873 0.110048
O O1 0.250000 0.250000 0.500000
O O2 0.420428 0.201745 0.518678
O O3 0.290957 0.304143 0.382012
O O4 0.126126 0.198309 0.301069
O O5 0.896828 0.126457 0.821176
O O6 0.731277 0.060623 0.607653
O O7 0.000000 0.085208 0.750000
O O8 0.960069 0.005961 0.837400
O O9 0.394263 0.418934 0.459198
O O10 0.444905 0.393349 0.641514
O O11 0.260677 0.481250 0.468439
O O12 0.357552 0.117007 0.802421
O O13 0.522491 0.114949 0.045364
O O14 0.626144 0.085674 0.976994
O O15 0.500000 0.000000 0.500000
O O16 0.519825 0.024237 0.366428
O O17 0.500000 0.932466 0.250000
#
# Coordination Sequence:
#
# PCOD9280195 Si02
#       8
#     8   8   8   8   8   8   4   8
#     4  12  23  38  59  85 121 155 197 245 302 366
#     4  11  22  40  64  84 123 159 202 253 307 358
#     4  12  21  36  58  93 122 154 198 247 303 358
#     4  10  21  37  56  80 118 155 192 235 290 359
#     4  11  24  39  57  89 117 162 204 242 296 366
#     4   9  20  36  56  84 115 156 194 237 294 358
#     4  12  22  34  60  90 126 158 190 242 308 372
#     4  11  18  33  58  86 121 153 186 235 298 359
#
# _framework density 18.608698
#
# number of rings (size 3 to 8) (size 9 to 14) (size 15 to 20)
#    0.000    1.067    6.000    1.200    1.867    0.000 
#    0.000    0.000    0.000    4.000    0.000    0.000 
#    0.000    0.000    0.000    0.000    0.000    0.000 
#
# Total GULP energy -167072.048165 kJ/mol
# GULP energy per Si atom -5569.068272 kJ/mol
# Density = 1.856634 g / cm^3
# Si number density = 18.608698 Si / 1000 Ang^3
#
#
#
# Elastic Constant Matrix: (Units=GPa)
#
#
# Indices 1 2 3 4 5 6 
#
# 1 116.9122 38.2641 24.5935 -0.0002 -17.2666 -0.0001
# 2 38.2641 67.2035 11.3471 -0.0001 -13.6951 -0.0001
# 3 24.5935 11.3471 30.3830 -0.0003 -9.2005 -0.0002
# 4 -0.0002 -0.0001 -0.0003 24.1170 -0.0002 -3.1305
# 5 -17.2666 -13.6951 -9.2005 -0.0002 29.0792 -0.0002
# 6 -0.0001 -0.0001 -0.0002 -3.1305 -0.0002 30.5582
#
#
#
# Elastic Compliance Matrix: (Units=1/GPa)
#
#
# Indices 1 2 3 4 5 6 
#
# 1 0.012117 -0.005189 -0.007113 0.000000 0.002501 0.000000
# 2 -0.005189 0.019182 -0.001284 0.000000 0.005547 0.000000
# 3 -0.007113 -0.001284 0.041682 0.000001 0.008359 0.000000
# 4 0.000000 0.000000 0.000001 0.042023 0.000001 0.004305
# 5 0.002501 0.005547 0.008359 0.000001 0.041131 0.000000
# 6 0.000000 0.000000 0.000000 0.004305 0.000000 0.033165
#
#
# Mechanical properties :
#
#
# Convention : Reuss Voigt Hill
#
# Bulk Modulus (GPa) = 21.82995 40.32313 31.07654
# Shear Modulus (GPa) = 21.57570 26.10382 23.83976
#
# Velocity S-wave (km/s) = 3.40875 3.74943 3.58314
# Velocity P-wave (km/s) = 5.22009 6.36084 5.81849
#
# Compressibility (1/GPa) = 0.04580863
#
# Stress axis : x y z
#
# Youngs Moduli (GPa) = 82.52679 52.13324 23.99120
#
# Poissons Ratio (x) = 0.27050 0.17066
# Poissons Ratio (y) = 0.42820 0.03081
# Poissons Ratio (z) = 0.58703 0.06695
#
# Static dielectric constant tensor:
#      x y z
#    x 1.670770 0.000000 -0.011330 
#    y 0.000000 1.689350 0.000000 
#    z -0.011330 0.000000 1.692660 
# 
# From -- ./inp_files/127410.got.cif
#   From: 2010.05.17/outbox.cif.g08.bks.cpg/sg15_64_cif.got.tgz:127410.got - 2010.06.03 18:47:42.
