data_PCOD9280640
_publ_section_title
;
Structure prediction by ZEFSAII (Michael W. Deem and Ramdas Pophale) SiO2 
 PCOD9280640
Probable space group: C 2/C
;
_chemical_formula_sum "Si O2"
_cell_formula_units_Z 64
_cell_length_a 23.727930
_cell_length_b 10.936935
_cell_length_c 10.802808
_cell_angle_alpha 90.000000
_cell_angle_beta 82.153041
_cell_angle_gamma 90.000000
_cell_volume 2777.194961
_symmetry_space_group_name_H-M "C 2/C"
_symmetry_group_IT_number 15
_symmetry_cell_setting 'monoclinic'
loop_
_space_group_symop_operation_xyz
x,y,z
-x,y,1/2-z
-x,-y,-z
x,-y,1/2+z
1/2+x,1/2+y,z
1/2-x,1/2+y,1/2-z
1/2-x,1/2-y,-z
1/2+x,1/2-y,1/2+z
loop_
_atom_site_type_symbol
_atom_site_label
_atom_site_fract_x
_atom_site_fract_y
_atom_site_fract_z
Si Si1 0.704176 0.288162 0.913213
Si Si2 0.116671 0.041243 0.167689
Si Si3 0.412638 0.198006 0.889997
Si Si4 0.149524 0.296720 0.834181
Si Si5 0.911567 0.795919 0.393220
Si Si6 0.149640 0.572794 0.789104
Si Si7 0.972202 0.625067 0.549537
Si Si8 0.182968 0.953511 0.388764
O O1 0.692632 0.179173 0.819586
O O2 0.722131 0.425684 0.867711
O O3 0.750000 0.250000 0.000000
O O4 0.642699 0.300923 0.998133
O O5 0.072896 0.936816 0.137241
O O6 0.138839 0.992479 0.292767
O O7 0.096390 0.178981 0.185688
O O8 0.161896 0.048925 0.038809
O O9 0.371056 0.094707 0.845443
O O10 0.392124 0.215245 0.036368
O O11 0.479168 0.175356 0.876628
O O12 0.113818 0.266293 0.721784
O O13 0.169333 0.436505 0.816341
O O14 0.194934 0.187407 0.846664
O O15 0.960415 0.717436 0.440867
O O16 0.089035 0.594695 0.875334
O O17 0.000000 0.500000 0.500000
#
# Coordination Sequence:
#
# PCOD9280640 Si02
#       8
#     8   8   8   8   8   8   8   8
#     4  10  21  41  67  89 115 157 203 254 315 372
#     4   9  18  36  60  84 121 163 202 250 302 362
#     4  11  21  35  61  88 121 165 204 250 307 369
#     4  10  21  37  62  85 125 162 197 253 311 362
#     4   9  21  38  60  86 124 160 203 254 307 371
#     4  11  22  38  61  89 120 157 209 255 303 370
#     4  11  21  36  57  88 123 163 208 251 307 371
#     4   9  18  38  62  89 119 159 198 250 312 364
#
# _framework density 23.044834000000002
#
# number of rings (size 3 to 8) (size 9 to 14) (size 15 to 20)
#    0.000    2.000    2.500    1.125    1.750    1.000 
#    0.000    4.375    2.750    0.000    0.000    0.000 
#    0.000    0.000    0.000    0.000    0.000    0.000 
#
# Total GULP energy -178438.841169 kJ/mol
# GULP energy per Si atom -5576.213787 kJ/mol
# Density = 2.299238 g / cm^3
# Si number density = 23.044834 Si / 1000 Ang^3
#
#
#
# Elastic Constant Matrix: (Units=GPa)
#
#
# Indices 1 2 3 4 5 6 
#
# 1 70.5925 24.4967 14.1127 0.0000 0.0677 0.0000
# 2 24.4967 167.9996 6.5264 0.0000 14.5574 0.0000
# 3 14.1127 6.5264 79.2377 0.0000 -3.3506 0.0000
# 4 0.0000 0.0000 0.0000 35.5432 0.0000 10.2497
# 5 0.0677 14.5574 -3.3506 0.0000 28.2658 0.0000
# 6 0.0000 0.0000 0.0000 10.2497 0.0000 -38.1087
#
#
#
# Elastic Compliance Matrix: (Units=1/GPa)
#
#
# Indices 1 2 3 4 5 6 
#
# 1 0.015443 -0.002223 -0.002533 0.000000 0.000808 0.000000
# 2 -0.002223 0.006584 -0.000291 0.000000 -0.003420 0.000000
# 3 -0.002533 -0.000291 0.013168 0.000000 0.001717 0.000000
# 4 0.000000 0.000000 0.000000 0.026110 0.000000 0.007022
# 5 0.000808 -0.003420 0.001717 0.000000 0.037341 0.000000
# 6 0.000000 0.000000 0.000000 0.007022 0.000000 -0.024352
#
#
# Mechanical properties :
#
#
# Convention : Reuss Voigt Hill
#
# Bulk Modulus (GPa) = 39.84030 45.34459 42.59244
# Shear Modulus (GPa) = 53.90468 23.31965 38.61216
#
# Velocity S-wave (km/s) = 4.84169 3.18453 4.09776
# Velocity P-wave (km/s) = 6.97006 5.76550 6.39620
#
# Compressibility (1/GPa) = 0.02510021
#
# Stress axis : x y z
#
# Youngs Moduli (GPa) = 64.75414 151.87733 75.94171
#
# Poissons Ratio (x) = 0.33768 0.19238
# Poissons Ratio (y) = 0.14397 0.02209
# Poissons Ratio (z) = 0.16404 0.04419
#
# Static dielectric constant tensor:
#      x y z
#    x 1.834790 0.000000 -0.054240 
#    y 0.000000 1.898840 0.000000 
#    z -0.054240 0.000000 1.858350 
# 
# From -- ./inp_files/118036.got.cif
#   From: 2010.05.17/outbox.cif.g08.bks.cpg/sg15_60_cif.got.tgz:118036.got - 2010.06.03 18:47:42.
