data_PCOD9280124
_publ_section_title
;
Structure prediction by ZEFSAII (Michael W. Deem and Ramdas Pophale) SiO2 
 PCOD9280124
Probable space group: C 2/C
;
_chemical_formula_sum "Si O2"
_cell_formula_units_Z 56
_cell_length_a 22.851022
_cell_length_b 11.536367
_cell_length_c 10.462146
_cell_angle_alpha 90.000000
_cell_angle_beta 114.870907
_cell_angle_gamma 90.000000
_cell_volume 2502.223650
_symmetry_space_group_name_H-M "C 2/C"
_symmetry_group_IT_number 15
_symmetry_cell_setting 'monoclinic'
loop_
_space_group_symop_operation_xyz
x,y,z
-x,y,1/2-z
-x,-y,-z
x,-y,1/2+z
1/2+x,1/2+y,z
1/2-x,1/2+y,1/2-z
1/2-x,1/2-y,-z
1/2+x,1/2-y,1/2+z
loop_
_atom_site_type_symbol
_atom_site_label
_atom_site_fract_x
_atom_site_fract_y
_atom_site_fract_z
Si Si1 0.610759 0.770254 0.964341
Si Si2 0.000000 0.000000 0.000000
Si Si3 0.336472 0.773606 0.200212
Si Si4 0.336477 0.007797 0.526992
Si Si5 0.627381 0.612765 0.501477
Si Si6 0.282152 0.599000 0.492303
Si Si7 0.000000 0.114144 0.750000
Si Si8 0.200940 0.304097 0.686217
O O1 0.612611 0.904085 0.924637
O O2 0.547546 0.697664 0.874165
O O3 0.627365 0.764194 0.130731
O O4 0.668062 0.702700 0.944660
O O5 0.033317 0.959781 0.169162
O O6 0.941684 0.062781 0.026598
O O7 0.263322 0.729003 0.155699
O O8 0.335406 0.905668 0.147203
O O9 0.369441 0.694407 0.121770
O O10 0.266235 0.946605 0.444183
O O11 0.342431 0.095476 0.415477
O O12 0.675237 0.506604 0.518819
O O13 0.657284 0.690379 0.642574
O O14 0.233313 0.643819 0.339803
#
# Coordination Sequence:
#
# PCOD9280124 Si02
#       8
#     8   4   8   8   8   8   4   8
#     4  11  26  42  68 103 143 186 242 303 366 437
#     4  12  30  48  76  98 148 202 250 298 358 440
#     4  10  21  44  71 105 145 190 239 301 372 442
#     4  11  20  39  66 104 143 182 229 294 374 436
#     4  11  22  44  71 105 145 196 246 296 370 442
#     4  11  21  36  65 105 142 181 226 307 368 435
#     4  12  30  52  70 104 140 194 250 306 344 448
#     4  10  21  36  71 103 146 183 236 298 367 447
#
# _framework density 22.380094
#
# number of rings (size 3 to 8) (size 9 to 14) (size 15 to 20)
#    0.000    1.143    4.286    2.143    6.000    1.143 
#    0.000    0.714    0.000    0.000    0.000    0.000 
#    0.000    0.000    0.000    0.000    0.000    0.000 
#
# Total GULP energy -156043.685179 kJ/mol
# GULP energy per Si atom -5572.988756 kJ/mol
# Density = 2.232916 g / cm^3
# Si number density = 22.380094 Si / 1000 Ang^3
#
#
#
# Elastic Constant Matrix: (Units=GPa)
#
#
# Indices 1 2 3 4 5 6 
#
# 1 68.8922 21.6028 12.4669 0.0000 -5.9229 0.0000
# 2 21.6028 114.1468 21.1597 0.0000 -5.2178 0.0000
# 3 12.4669 21.1597 94.9590 0.0000 -8.4072 0.0000
# 4 0.0000 0.0000 0.0000 26.1280 0.0000 -0.6883
# 5 -5.9229 -5.2178 -8.4072 0.0000 31.5800 0.0000
# 6 0.0000 0.0000 0.0000 -0.6883 0.0000 9.5197
#
#
#
# Elastic Compliance Matrix: (Units=1/GPa)
#
#
# Indices 1 2 3 4 5 6 
#
# 1 0.015765 -0.002645 -0.001288 0.000000 0.002177 0.000000
# 2 -0.002645 0.009612 -0.001739 0.000000 0.000629 0.000000
# 3 -0.001288 -0.001739 0.011307 0.000000 0.002481 0.000000
# 4 0.000000 0.000000 0.000000 0.038346 0.000000 0.002772
# 5 0.002177 0.000629 0.002481 0.000000 0.032838 0.000000
# 6 0.000000 0.000000 0.000000 0.002772 0.000000 0.105246
#
#
# Mechanical properties :
#
#
# Convention : Reuss Voigt Hill
#
# Bulk Modulus (GPa) = 39.46204 43.16185 41.31194
# Shear Modulus (GPa) = 21.46791 28.29678 24.88235
#
# Velocity S-wave (km/s) = 3.10052 3.55966 3.33799
# Velocity P-wave (km/s) = 5.52165 6.01852 5.77543
#
# Compressibility (1/GPa) = 0.02534081
#
# Stress axis : x y z
#
# Youngs Moduli (GPa) = 63.43118 104.03218 88.44024
#
# Poissons Ratio (x) = 0.27521 0.11387
# Poissons Ratio (y) = 0.16780 0.15379
# Poissons Ratio (z) = 0.08167 0.18090
#
# Static dielectric constant tensor:
#      x y z
#    x 1.840960 0.000000 -0.061720 
#    y 0.000000 1.889070 0.000000 
#    z -0.061720 0.000000 1.885600 
# 
# From -- ./inp_files/117689.got.cif
#   From: 2010.05.17/outbox.cif.g08.bks.cpg/sg15_59_cif.got.tgz:117689.got - 2010.06.03 18:47:42.
