data_PCOD9280307
_publ_section_title
;
Structure prediction by ZEFSAII (Michael W. Deem and Ramdas Pophale) SiO2 
 PCOD9280307
Probable space group: C 2/C
;
_chemical_formula_sum "Si O2"
_cell_formula_units_Z 44
_cell_length_a 16.359580
_cell_length_b 20.523543
_cell_length_c 8.758112
_cell_angle_alpha 90.000000
_cell_angle_beta 133.185258
_cell_angle_gamma 90.000000
_cell_volume 2144.118205
_symmetry_space_group_name_H-M "C 2/C"
_symmetry_group_IT_number 15
_symmetry_cell_setting 'monoclinic'
loop_
_space_group_symop_operation_xyz
x,y,z
-x,y,1/2-z
-x,-y,-z
x,-y,1/2+z
1/2+x,1/2+y,z
1/2-x,1/2+y,1/2-z
1/2-x,1/2-y,-z
1/2+x,1/2-y,1/2+z
loop_
_atom_site_type_symbol
_atom_site_label
_atom_site_fract_x
_atom_site_fract_y
_atom_site_fract_z
Si Si1 0.127956 0.414067 0.924338
Si Si2 0.616834 0.139752 0.100999
Si Si3 0.540171 0.724596 0.628905
Si Si4 0.333508 0.314351 0.710939
Si Si5 0.000000 0.540702 0.750000
Si Si6 0.738153 0.321830 0.206860
O O1 0.176065 0.386921 0.828625
O O2 0.105808 0.491281 0.883676
O O3 0.000000 0.387874 0.750000
O O4 0.190471 0.383905 0.148638
O O5 0.718149 0.150860 0.112753
O O6 0.553993 0.207444 0.054319
O O7 0.527043 0.087564 0.925394
O O8 0.500000 0.263959 0.250000
O O9 0.451024 0.674114 0.443397
O O10 0.664920 0.697091 0.761275
O O11 0.342539 0.327780 0.542730
O O12 0.311589 0.239490 0.740946
#
# Coordination Sequence:
#
# PCOD9280307 Si02
#       6
#     8   8   8   8   4   8
#     4  10  22  38  58  83 122 162 207 249 295 353
#     4  11  22  37  59  87 127 158 209 247 306 362
#     4  11  22  37  62  90 126 162 198 251 311 367
#     4  10  22  34  59  91 121 160 198 252 311 366
#     4  10  26  36  62  88 120 170 208 254 296 350
#     4  10  21  37  58  86 121 163 199 251 307 364
#
# _framework density 20.521256000000001
#
# number of rings (size 3 to 8) (size 9 to 14) (size 15 to 20)
#    0.545    1.091    0.000    4.909   10.182    2.909 
#    0.000    0.000    0.000    1.091    0.000    0.000 
#    0.000    0.000    0.000    0.000    0.000    0.000 
#
# Total GULP energy -122524.655266 kJ/mol
# GULP energy per Si atom -5569.302512 kJ/mol
# Density = 2.047455 g / cm^3
# Si number density = 20.521256 Si / 1000 Ang^3
#
#
#
# Elastic Constant Matrix: (Units=GPa)
#
#
# Indices 1 2 3 4 5 6 
#
# 1 96.0359 28.3181 13.3766 0.0000 -9.0078 0.0000
# 2 28.3181 86.5182 47.9022 0.0000 5.3087 0.0000
# 3 13.3766 47.9022 100.8612 0.0000 -7.2205 0.0000
# 4 0.0000 0.0000 0.0000 42.9066 0.0000 -0.0019
# 5 -9.0078 5.3087 -7.2205 0.0000 26.0744 0.0000
# 6 0.0000 0.0000 0.0000 -0.0019 0.0000 3.0293
#
#
#
# Elastic Compliance Matrix: (Units=1/GPa)
#
#
# Indices 1 2 3 4 5 6 
#
# 1 0.012244 -0.004979 0.001139 0.000000 0.005559 0.000000
# 2 -0.004979 0.018477 -0.008680 0.000000 -0.007886 0.000000
# 3 0.001139 -0.008680 0.014324 0.000000 0.006127 0.000000
# 4 0.000000 0.000000 0.000000 0.023306 0.000000 0.000015
# 5 0.005559 -0.007886 0.006127 0.000000 0.043574 0.000000
# 6 0.000000 0.000000 0.000000 0.000015 0.000000 0.330111
#
#
# Mechanical properties :
#
#
# Convention : Reuss Voigt Hill
#
# Bulk Modulus (GPa) = 49.98549 51.40100 50.69325
# Shear Modulus (GPa) = 10.55419 27.32330 18.93874
#
# Velocity S-wave (km/s) = 2.27029 3.65288 3.04120
# Velocity P-wave (km/s) = 5.59313 6.54931 6.09001
#
# Compressibility (1/GPa) = 0.02000581
#
# Stress axis : x y z
#
# Youngs Moduli (GPa) = 81.67445 54.11998 69.81055
#
# Poissons Ratio (x) = 0.26947 -0.07951
# Poissons Ratio (y) = 0.40667 0.60593
# Poissons Ratio (z) = -0.09302 0.46975
#
# Static dielectric constant tensor:
#      x y z
#    x 1.810870 0.000000 -0.033640 
#    y 0.000000 1.757930 0.000000 
#    z -0.033640 0.000000 1.836220 
# 
# From -- ./inp_files/49900.got.cif
#   From: 2010.05.17/outbox.cif.g08.bks.cpg/sg15_25_cif.got.tgz:49900.got - 2010.06.03 18:47:42.
