data_PCOD9280184
_publ_section_title
;
Structure prediction by ZEFSAII (Michael W. Deem and Ramdas Pophale) SiO2 
 PCOD9280184
Probable space group: C 2/C
;
_chemical_formula_sum "Si O2"
_cell_formula_units_Z 56
_cell_length_a 14.727911
_cell_length_b 14.396567
_cell_length_c 17.186121
_cell_angle_alpha 90.000000
_cell_angle_beta 126.891586
_cell_angle_gamma 90.000000
_cell_volume 2914.369419
_symmetry_space_group_name_H-M "C 2/C"
_symmetry_group_IT_number 15
_symmetry_cell_setting 'monoclinic'
loop_
_space_group_symop_operation_xyz
x,y,z
-x,y,1/2-z
-x,-y,-z
x,-y,1/2+z
1/2+x,1/2+y,z
1/2-x,1/2+y,1/2-z
1/2-x,1/2-y,-z
1/2+x,1/2-y,1/2+z
loop_
_atom_site_type_symbol
_atom_site_label
_atom_site_fract_x
_atom_site_fract_y
_atom_site_fract_z
Si Si1 0.048495 0.865530 0.624163
Si Si2 0.413077 0.800841 0.136276
Si Si3 0.406548 0.500967 0.133338
Si Si4 0.888011 0.786431 0.140257
Si Si5 0.138427 0.254168 0.046734
Si Si6 0.768453 0.156853 0.145642
Si Si7 0.032504 0.398905 0.485695
O O1 0.086574 0.837874 0.558392
O O2 0.156813 0.857335 0.738066
O O3 0.964894 0.786378 0.615467
O O4 0.977139 0.959294 0.597015
O O5 0.500000 0.823161 0.250000
O O6 0.302819 0.754430 0.121109
O O7 0.417855 0.884066 0.076439
O O8 0.500000 0.506284 0.250000
O O9 0.369116 0.395285 0.110062
O O10 0.309603 0.572351 0.110671
O O11 0.773737 0.753773 0.123637
O O12 0.000000 0.776614 0.250000
O O13 0.893718 0.736250 0.060076
O O14 0.081003 0.338048 0.064055
O O15 0.634867 0.145708 0.088873
O O16 0.000000 0.500000 0.500000
#
# Coordination Sequence:
#
# PCOD9280184 Si02
#       7
#     8   8   8   8   8   8   8
#     4   8  16  31  55  80 105 126 178 233 254 304
#     4   8  16  33  53  76 103 139 177 219 262 313
#     4   8  15  31  54  80 100 136 172 209 262 311
#     4  10  21  37  56  70 105 146 177 214 266 326
#     4  10  22  36  51  80 104 137 185 221 261 318
#     4   9  16  30  57  78 104 138 171 213 272 320
#     4  11  21  32  52  79 111 138 174 222 269 322
#
# _framework density 19.215133999999999
#
# number of rings (size 3 to 8) (size 9 to 14) (size 15 to 20)
#    0.000    2.857    0.000    3.000    2.000    0.571 
#    0.000    0.714    3.143    0.000    0.000    0.000 
#    0.000    0.000    0.000    0.000    0.000    0.000 
#
# Total GULP energy -155889.323671 kJ/mol
# GULP energy per Si atom -5567.475845 kJ/mol
# Density = 1.917140 g / cm^3
# Si number density = 19.215134 Si / 1000 Ang^3
#
#
#
# Elastic Constant Matrix: (Units=GPa)
#
#
# Indices 1 2 3 4 5 6 
#
# 1 72.2271 8.4178 11.1445 0.0000 9.0149 0.0000
# 2 8.4178 44.9358 -4.5464 0.0000 -4.7413 0.0000
# 3 11.1445 -4.5464 42.0993 0.0000 10.0661 0.0000
# 4 0.0000 0.0000 0.0000 17.8079 0.0000 -0.2513
# 5 9.0149 -4.7413 10.0661 0.0000 16.6952 0.0000
# 6 0.0000 0.0000 0.0000 -0.2513 0.0000 24.6582
#
#
#
# Elastic Compliance Matrix: (Units=1/GPa)
#
#
# Indices 1 2 3 4 5 6 
#
# 1 0.015736 -0.004067 -0.002684 0.000000 -0.008034 0.000000
# 2 -0.004067 0.024034 0.001770 0.000000 0.007954 0.000000
# 3 -0.002684 0.001770 0.028263 0.000000 -0.015089 0.000000
# 4 0.000000 0.000000 0.000000 0.056163 0.000000 0.000572
# 5 -0.008034 0.007954 -0.015089 0.000000 0.075592 0.000000
# 6 0.000000 0.000000 0.000000 0.000572 0.000000 0.040560
#
#
# Mechanical properties :
#
#
# Convention : Reuss Voigt Hill
#
# Bulk Modulus (GPa) = 17.22014 21.03266 19.12640
# Shear Modulus (GPa) = 18.54138 21.44868 19.99503
#
# Velocity S-wave (km/s) = 3.10971 3.34464 3.22931
# Velocity P-wave (km/s) = 4.67707 5.08774 4.88672
#
# Compressibility (1/GPa) = 0.05807154
#
# Stress axis : x y z
#
# Youngs Moduli (GPa) = 63.54828 41.60735 35.38226
#
# Poissons Ratio (x) = 0.16922 0.09496
# Poissons Ratio (y) = 0.25845 -0.06263
# Poissons Ratio (z) = 0.17056 -0.07365
#
# Static dielectric constant tensor:
#      x y z
#    x 1.701480 0.000000 -0.009490 
#    y 0.000000 1.692610 0.000000 
#    z -0.009490 0.000000 1.684270 
# 
# From -- ./inp_files/182168.got.cif
#   From: 2010.05.17/outbox.cif.g08.bks.cpg/sg15_92_cif.got.tgz:182168.got - 2010.06.03 18:47:42.
