data_PCOD9280920
_publ_section_title
;
Structure prediction by ZEFSAII (Michael W. Deem and Ramdas Pophale) SiO2 
 PCOD9280920
Probable space group: C 2/C
;
_chemical_formula_sum "Si O2"
_cell_formula_units_Z 56
_cell_length_a 29.630547
_cell_length_b 8.335278
_cell_length_c 17.681252
_cell_angle_alpha 90.000000
_cell_angle_beta 141.496991
_cell_angle_gamma 90.000000
_cell_volume 2718.635670
_symmetry_space_group_name_H-M "C 2/C"
_symmetry_group_IT_number 15
_symmetry_cell_setting 'monoclinic'
loop_
_space_group_symop_operation_xyz
x,y,z
-x,y,1/2-z
-x,-y,-z
x,-y,1/2+z
1/2+x,1/2+y,z
1/2-x,1/2+y,1/2-z
1/2-x,1/2-y,-z
1/2+x,1/2-y,1/2+z
loop_
_atom_site_type_symbol
_atom_site_label
_atom_site_fract_x
_atom_site_fract_y
_atom_site_fract_z
Si Si1 0.290209 0.849531 0.394968
Si Si2 0.419875 0.145485 0.154117
Si Si3 0.795162 0.870402 0.766484
Si Si4 0.574817 0.543566 0.639323
Si Si5 0.166886 0.328907 0.805334
Si Si6 0.424804 0.514153 0.179446
Si Si7 0.735108 0.350502 0.058158
O O1 0.361771 0.927867 0.521585
O O2 0.307459 0.700653 0.364556
O O3 0.235213 0.796426 0.390141
O O4 0.250120 0.968349 0.286748
O O5 0.500000 0.078780 0.250000
O O6 0.382895 0.141654 0.187158
O O7 0.423321 0.335968 0.141068
O O8 0.750324 0.762409 0.649324
O O9 0.868685 0.919096 0.821965
O O10 0.500000 0.500000 0.500000
O O11 0.609988 0.725112 0.677402
O O12 0.570808 0.511514 0.724140
O O13 0.209913 0.498307 0.856158
O O14 0.500000 0.593062 0.250000
O O15 0.348525 0.594264 0.058386
O O16 0.750000 0.250000 0.000000
#
# Coordination Sequence:
#
# PCOD9280920 Si02
#       7
#     8   8   8   8   8   8   8
#     4  11  22  40  63  94 124 161 219 263 328 396
#     4  10  21  37  66  94 124 165 210 265 323 391
#     4  11  25  39  66  92 124 171 211 273 328 392
#     4  10  23  41  65  95 133 171 218 271 335 409
#     4  10  22  39  67  93 126 172 215 269 326 390
#     4  10  22  38  67  94 124 174 220 270 323 392
#     4  12  22  42  66  95 130 169 227 275 327 396
#
# _framework density 20.598566999999999
#
# number of rings (size 3 to 8) (size 9 to 14) (size 15 to 20)
#    0.000    1.429    2.857    2.143    8.000    1.143 
#    0.000    3.571    6.286    0.000    0.000    0.000 
#    0.000    0.000    0.000    0.000    0.000    0.000 
#
# Total GULP energy -155943.980572 kJ/mol
# GULP energy per Si atom -5569.427878 kJ/mol
# Density = 2.055168 g / cm^3
# Si number density = 20.598567 Si / 1000 Ang^3
#
#
#
# Elastic Constant Matrix: (Units=GPa)
#
#
# Indices 1 2 3 4 5 6 
#
# 1 102.4238 19.8117 53.9576 0.0000 19.2147 0.0000
# 2 19.8117 56.8748 28.1123 0.0000 11.2326 0.0000
# 3 53.9576 28.1123 130.6845 0.0000 13.9360 0.0000
# 4 0.0000 0.0000 0.0000 25.7320 0.0000 0.2807
# 5 19.2147 11.2326 13.9360 0.0000 31.6445 0.0000
# 6 0.0000 0.0000 0.0000 0.2807 0.0000 23.1121
#
#
#
# Elastic Compliance Matrix: (Units=1/GPa)
#
#
# Indices 1 2 3 4 5 6 
#
# 1 0.013566 -0.001265 -0.004720 0.000000 -0.005710 0.000000
# 2 -0.001265 0.020703 -0.003389 0.000000 -0.005088 0.000000
# 3 -0.004720 -0.003389 0.010384 0.000000 -0.000504 0.000000
# 4 0.000000 0.000000 0.000000 0.038867 0.000000 -0.000472
# 5 -0.005710 -0.005088 -0.000504 0.000000 0.037096 0.000000
# 6 0.000000 0.000000 0.000000 -0.000472 0.000000 0.043273
#
#
# Mechanical properties :
#
#
# Convention : Reuss Voigt Hill
#
# Bulk Modulus (GPa) = 38.60251 54.86070 46.73160
# Shear Modulus (GPa) = 26.14091 28.63780 27.38936
#
# Velocity S-wave (km/s) = 3.56626 3.73269 3.65042
# Velocity P-wave (km/s) = 5.97818 6.72818 6.36424
#
# Compressibility (1/GPa) = 0.02590505
#
# Stress axis : x y z
#
# Youngs Moduli (GPa) = 73.71521 48.30222 96.30566
#
# Poissons Ratio (x) = 0.06109 0.45458
# Poissons Ratio (y) = 0.09323 0.32635
# Poissons Ratio (z) = 0.34795 0.16368
#
# Static dielectric constant tensor:
#      x y z
#    x 1.752140 0.000000 0.015720 
#    y 0.000000 1.792800 0.000000 
#    z 0.015720 0.000000 1.756570 
# 
# From -- ./inp_files/222079.got.cif
#   From: 2010.05.17/outbox.cif.g08.bks.cpg/sg15_112_cif.got.tgz:222079.got - 2010.06.03 18:47:42.
