data_PCOD9280596
_publ_section_title
;
Structure prediction by ZEFSAII (Michael W. Deem and Ramdas Pophale) SiO2 
 PCOD9280596
Probable space group: C 2/C
;
_chemical_formula_sum "Si O2"
_cell_formula_units_Z 48
_cell_length_a 11.776270
_cell_length_b 23.573895
_cell_length_c 8.846469
_cell_angle_alpha 90.000000
_cell_angle_beta 68.596720
_cell_angle_gamma 90.000000
_cell_volume 2286.520147
_symmetry_space_group_name_H-M "C 2/C"
_symmetry_group_IT_number 15
_symmetry_cell_setting 'monoclinic'
loop_
_space_group_symop_operation_xyz
x,y,z
-x,y,1/2-z
-x,-y,-z
x,-y,1/2+z
1/2+x,1/2+y,z
1/2-x,1/2+y,1/2-z
1/2-x,1/2-y,-z
1/2+x,1/2-y,1/2+z
loop_
_atom_site_type_symbol
_atom_site_label
_atom_site_fract_x
_atom_site_fract_y
_atom_site_fract_z
Si Si1 0.476677 0.636561 0.591336
Si Si2 0.422494 0.863838 0.656178
Si Si3 0.741998 0.816509 0.035891
Si Si4 0.600238 0.097201 0.812845
Si Si5 0.167283 0.970462 0.217316
Si Si6 0.193746 0.075432 0.374808
O O1 0.500000 0.662169 0.750000
O O2 0.376395 0.664544 0.530427
O O3 0.424275 0.573678 0.657708
O O4 0.605983 0.629129 0.445737
O O5 0.500000 0.831535 0.750000
O O6 0.324056 0.837559 0.586306
O O7 0.528551 0.888023 0.498691
O O8 0.333522 0.908524 0.781076
O O9 0.657388 0.845627 0.208310
O O10 0.750000 0.750000 0.000000
O O11 0.500000 0.073344 0.750000
O O12 0.703919 0.051191 0.782856
O O13 0.145752 0.035483 0.265163
O O14 0.177164 0.960468 0.035145
#
# Coordination Sequence:
#
# PCOD9280596 Si02
#       6
#     8   8   8   8   8   8
#     4   9  21  43  65  93 136 168 214 277 322 389
#     4  11  23  43  62  92 136 166 213 270 320 385
#     4  10  23  45  72  95 119 169 222 273 340 385
#     4   9  20  40  62  86 131 168 212 272 312 381
#     4  10  21  37  61  92 129 178 217 255 325 383
#     4  11  23  37  62  96 132 174 217 261 321 389
#
# _framework density 20.992598999999998
#
# number of rings (size 3 to 8) (size 9 to 14) (size 15 to 20)
#    0.000    2.000    1.667    0.500    7.000    2.667 
#    9.000    0.833    0.000    0.000    0.000    0.000 
#    0.000    0.000    0.000    0.000    0.000    0.000 
#
# Total GULP energy -133628.592701 kJ/mol
# GULP energy per Si atom -5567.858029 kJ/mol
# Density = 2.094482 g / cm^3
# Si number density = 20.992599 Si / 1000 Ang^3
#
#
#
# Elastic Constant Matrix: (Units=GPa)
#
#
# Indices 1 2 3 4 5 6 
#
# 1 125.0974 26.5898 53.6732 0.0000 26.5285 0.0000
# 2 26.5898 51.9343 29.9876 0.0000 9.1697 0.0000
# 3 53.6732 29.9876 107.5057 0.0000 -1.8457 0.0000
# 4 0.0000 0.0000 0.0000 0.0540 0.0000 12.1128
# 5 26.5285 9.1697 -1.8457 0.0000 37.9727 0.0000
# 6 0.0000 0.0000 0.0000 12.1128 0.0000 7.3898
#
#
#
# Elastic Compliance Matrix: (Units=1/GPa)
#
#
# Indices 1 2 3 4 5 6 
#
# 1 0.012833 -0.001440 -0.006158 0.000000 -0.008917 0.000000
# 2 -0.001440 0.024494 -0.006203 0.000000 -0.005210 0.000000
# 3 -0.006158 -0.006203 0.014218 0.000000 0.006491 0.000000
# 4 0.000000 0.000000 0.000000 -0.050504 0.000000 0.082783
# 5 -0.008917 -0.005210 0.006491 0.000000 0.034138 0.000000
# 6 0.000000 0.000000 0.000000 0.082783 0.000000 -0.000369
#
#
# Mechanical properties :
#
#
# Convention : Reuss Voigt Hill
#
# Bulk Modulus (GPa) = 41.76657 56.11538 48.94098
# Shear Modulus (GPa) = 71.02927 20.70242 45.86585
#
# Velocity S-wave (km/s) = 5.82313 3.14375 4.67932
# Velocity P-wave (km/s) = 8.07161 6.32192 7.24974
#
# Compressibility (1/GPa) = 0.02394259
#
# Stress axis : x y z
#
# Youngs Moduli (GPa) = 77.92337 40.82644 70.33263
#
# Poissons Ratio (x) = 0.05879 0.43314
# Poissons Ratio (y) = 0.11221 0.43626
# Poissons Ratio (z) = 0.47989 0.25324
#
# Static dielectric constant tensor:
#      x y z
#    x 1.671280 0.000000 0.005350 
#    y 0.000000 1.738710 0.000000 
#    z 0.005350 0.000000 1.806420 
# 
# From -- ./inp_files/32489.got.cif
#   From: 2010.05.17/outbox.cif.g08.bks.cpg/sg15_17_cif.got.tgz:32489.got - 2010.06.03 18:47:42.
