data_PCOD9280810
_publ_section_title
;
Structure prediction by ZEFSAII (Michael W. Deem and Ramdas Pophale) SiO2 
 PCOD9280810
Probable space group: C 2/C
;
_chemical_formula_sum "Si O2"
_cell_formula_units_Z 56
_cell_length_a 8.823352
_cell_length_b 18.872863
_cell_length_c 20.687290
_cell_angle_alpha 90.000000
_cell_angle_beta 126.985057
_cell_angle_gamma 90.000000
_cell_volume 2751.749781
_symmetry_space_group_name_H-M "C 2/C"
_symmetry_group_IT_number 15
_symmetry_cell_setting 'monoclinic'
loop_
_space_group_symop_operation_xyz
x,y,z
-x,y,1/2-z
-x,-y,-z
x,-y,1/2+z
1/2+x,1/2+y,z
1/2-x,1/2+y,1/2-z
1/2-x,1/2-y,-z
1/2+x,1/2-y,1/2+z
loop_
_atom_site_type_symbol
_atom_site_label
_atom_site_fract_x
_atom_site_fract_y
_atom_site_fract_z
Si Si1 0.291328 0.005822 0.271898
Si Si2 0.291524 0.651320 0.724478
Si Si3 0.744020 0.002285 0.885691
Si Si4 0.681253 0.721023 0.135542
Si Si5 0.511161 0.267707 0.120227
Si Si6 0.486963 0.376380 0.003293
Si Si7 0.710874 0.340218 0.784640
O O1 0.205475 0.006179 0.177260
O O2 0.518795 0.004484 0.328595
O O3 0.226952 0.075544 0.292219
O O4 0.238109 0.930982 0.288265
O O5 0.500000 0.666182 0.750000
O O6 0.137927 0.699645 0.649031
O O7 0.325072 0.683418 0.803780
O O8 0.833193 0.937804 0.949264
O O9 0.827088 0.076995 0.932609
O O10 0.749471 0.681420 0.218872
O O11 0.847690 0.735671 0.125266
O O12 0.519478 0.674036 0.061337
O O13 0.434796 0.321622 0.047143
O O14 0.633097 0.199228 0.131754
O O15 0.500000 0.317873 0.750000
#
# Coordination Sequence:
#
# PCOD9280810 Si02
#       7
#     8   8   8   8   8   8   8
#     4  11  20  40  59  88 123 165 205 260 296 379
#     4   9  19  36  59  88 116 162 203 248 303 373
#     4  10  23  34  65  91 121 162 212 250 311 366
#     4  10  21  38  62  89 124 162 207 251 311 374
#     4  10  21  37  64  91 124 160 208 252 311 371
#     4  11  20  40  61  97 122 160 208 265 305 365
#     4  11  23  38  62  92 122 165 210 257 310 377
#
# _framework density 20.350688000000002
#
# number of rings (size 3 to 8) (size 9 to 14) (size 15 to 20)
#    0.000    1.714    2.857    3.000    2.000    2.286 
#    0.000    2.857    0.000    5.143    0.000    0.000 
#    0.000    0.000    0.000    0.000    0.000    0.000 
#
# Total GULP energy -155903.092239 kJ/mol
# GULP energy per Si atom -5567.967580 kJ/mol
# Density = 2.030437 g / cm^3
# Si number density = 20.350688 Si / 1000 Ang^3
#
#
#
# Elastic Constant Matrix: (Units=GPa)
#
#
# Indices 1 2 3 4 5 6 
#
# 1 29.7429 16.8747 21.9236 0.0000 4.7590 0.0000
# 2 16.8747 155.8004 44.7586 0.0000 -4.8797 0.0000
# 3 21.9236 44.7586 81.2303 0.0000 1.3910 0.0000
# 4 0.0000 0.0000 0.0000 48.7356 0.0000 -3.6372
# 5 4.7590 -4.8797 1.3910 0.0000 11.0272 0.0000
# 6 0.0000 0.0000 0.0000 -3.6372 0.0000 16.2781
#
#
#
# Elastic Compliance Matrix: (Units=1/GPa)
#
#
# Indices 1 2 3 4 5 6 
#
# 1 0.046099 -0.002532 -0.010710 0.000000 -0.019664 0.000000
# 2 -0.002532 0.007937 -0.003777 0.000000 0.005081 0.000000
# 3 -0.010710 -0.003777 0.017269 0.000000 0.000772 0.000000
# 4 0.000000 0.000000 0.000000 0.020867 0.000000 0.004663
# 5 -0.019664 0.005081 0.000772 0.000000 0.101322 0.000000
# 6 0.000000 0.000000 0.000000 0.004663 0.000000 0.062474
#
#
# Mechanical properties :
#
#
# Convention : Reuss Voigt Hill
#
# Bulk Modulus (GPa) = 26.83343 48.20972 37.52158
# Shear Modulus (GPa) = 16.53286 27.42262 21.97774
#
# Velocity S-wave (km/s) = 2.85335 3.67482 3.28983
# Velocity P-wave (km/s) = 4.90608 6.46116 5.73656
#
# Compressibility (1/GPa) = 0.03726695
#
# Stress axis : x y z
#
# Youngs Moduli (GPa) = 21.69260 125.99368 57.90689
#
# Poissons Ratio (x) = 0.31902 0.62018
# Poissons Ratio (y) = 0.05493 0.21871
# Poissons Ratio (z) = 0.23233 0.47587
#
# Static dielectric constant tensor:
#      x y z
#    x 1.751890 0.000000 -0.037600 
#    y 0.000000 1.743030 0.000000 
#    z -0.037600 0.000000 1.797800 
# 
# From -- ./inp_files/265605.got.cif
#   From: 2010.05.17/outbox.cif.g08.bks.cpg/sg15_133_cif.got.tgz:265605.got - 2010.06.03 18:47:42.
