data_PCOD9280083
_publ_section_title
;
Structure prediction by ZEFSAII (Michael W. Deem and Ramdas Pophale) SiO2 
 PCOD9280083
Probable space group: C 2/C
;
_chemical_formula_sum "Si O2"
_cell_formula_units_Z 52
_cell_length_a 30.612933
_cell_length_b 5.343678
_cell_length_c 13.753378
_cell_angle_alpha 90.000000
_cell_angle_beta 67.071877
_cell_angle_gamma 90.000000
_cell_volume 2072.103966
_symmetry_space_group_name_H-M "C 2/C"
_symmetry_group_IT_number 15
_symmetry_cell_setting 'monoclinic'
loop_
_space_group_symop_operation_xyz
x,y,z
-x,y,1/2-z
-x,-y,-z
x,-y,1/2+z
1/2+x,1/2+y,z
1/2-x,1/2+y,1/2-z
1/2-x,1/2-y,-z
1/2+x,1/2-y,1/2+z
loop_
_atom_site_type_symbol
_atom_site_label
_atom_site_fract_x
_atom_site_fract_y
_atom_site_fract_z
Si Si1 0.500000 0.427043 0.750000
Si Si2 0.122803 0.367307 0.000551
Si Si3 0.735998 0.354100 0.312436
Si Si4 0.433733 0.657696 0.957687
Si Si5 0.681113 0.922750 0.123581
Si Si6 0.648256 0.716014 0.786378
Si Si7 0.083374 0.802346 0.803714
O O1 0.479979 0.594886 0.855599
O O2 0.542154 0.266993 0.761379
O O3 0.092615 0.601824 0.063643
O O4 0.170954 0.369992 0.020851
O O5 0.096951 0.099152 0.025848
O O6 0.133330 0.420981 0.878787
O O7 0.763616 0.574111 0.230657
O O8 0.768135 0.339240 0.380768
O O9 0.682422 0.443188 0.330089
O O10 0.438190 0.724635 0.068500
O O11 0.633487 0.809848 0.217756
O O12 0.676436 0.208394 0.165342
O O13 0.600238 0.591054 0.793359
#
# Coordination Sequence:
#
# PCOD9280083 Si02
#       7
#     4   8   8   8   8   8   8
#     4  12  24  44  70  98 130 170 226 268 330 392
#     4  11  24  41  70  96 130 174 215 264 328 389
#     4  10  21  36  65  97 129 175 217 259 323 381
#     4  11  25  45  65  97 130 171 216 270 330 384
#     4  11  21  40  67  93 137 170 220 265 324 381
#     4  10  22  42  65  93 137 173 215 269 326 381
#     4  11  22  44  65  95 132 176 212 276 322 389
#
# _framework density 25.095265000000001
#
# number of rings (size 3 to 8) (size 9 to 14) (size 15 to 20)
#    0.000    1.231    4.615    1.385    0.000    1.231 
#    2.769    2.308    0.000    7.385    0.000    0.000 
#    0.000    0.000    0.000    0.000    0.000    0.000 
#
# Total GULP energy -144749.780419 kJ/mol
# GULP energy per Si atom -5567.299247 kJ/mol
# Density = 2.503815 g / cm^3
# Si number density = 25.095265 Si / 1000 Ang^3
#
#
#
# Elastic Constant Matrix: (Units=GPa)
#
#
# Indices 1 2 3 4 5 6 
#
# 1 139.4509 26.2854 14.0910 0.0000 13.7624 0.0000
# 2 26.2854 66.7023 18.8478 0.0000 1.0944 0.0000
# 3 14.0910 18.8478 72.5317 0.0000 6.1486 0.0000
# 4 0.0000 0.0000 0.0000 24.2032 0.0000 -6.1738
# 5 13.7624 1.0944 6.1486 0.0000 53.2943 0.0000
# 6 0.0000 0.0000 0.0000 -6.1738 0.0000 17.2713
#
#
#
# Elastic Compliance Matrix: (Units=1/GPa)
#
#
# Indices 1 2 3 4 5 6 
#
# 1 0.007978 -0.002936 -0.000623 0.000000 -0.001928 0.000000
# 2 -0.002936 0.017262 -0.003988 0.000000 0.000864 0.000000
# 3 -0.000623 -0.003988 0.015071 0.000000 -0.001496 0.000000
# 4 0.000000 0.000000 0.000000 0.045462 0.000000 0.016251
# 5 -0.001928 0.000864 -0.001496 0.000000 0.019416 0.000000
# 6 0.000000 0.000000 0.000000 0.016251 0.000000 0.063709
#
#
# Mechanical properties :
#
#
# Convention : Reuss Voigt Hill
#
# Bulk Modulus (GPa) = 39.65876 44.12593 41.89235
# Shear Modulus (GPa) = 25.98765 33.58446 29.78606
#
# Velocity S-wave (km/s) = 3.22150 3.66222 3.44891
# Velocity P-wave (km/s) = 5.44748 5.95852 5.70872
#
# Compressibility (1/GPa) = 0.02521511
#
# Stress axis : x y z
#
# Youngs Moduli (GPa) = 125.35020 57.93149 66.35070
#
# Poissons Ratio (x) = 0.17008 0.04137
# Poissons Ratio (y) = 0.36802 0.26464
# Poissons Ratio (z) = 0.07815 0.23106
#
# Static dielectric constant tensor:
#      x y z
#    x 2.123720 0.000000 -0.065660 
#    y 0.000000 2.128190 0.000000 
#    z -0.065660 0.000000 2.021210 
# 
# From -- ./inp_files/180038.got.cif
#   From: 2010.05.17/outbox.cif.g08.bks.cpg/sg15_91_cif.got.tgz:180038.got - 2010.06.03 18:47:42.
