data_PCOD9280406
_publ_section_title
;
Structure prediction by ZEFSAII (Michael W. Deem and Ramdas Pophale) SiO2 
 PCOD9280406
Probable space group: C 2/C
;
_chemical_formula_sum "Si O2"
_cell_formula_units_Z 64
_cell_length_a 11.912858
_cell_length_b 26.383876
_cell_length_c 14.205685
_cell_angle_alpha 90.000000
_cell_angle_beta 138.091971
_cell_angle_gamma 90.000000
_cell_volume 2982.305623
_symmetry_space_group_name_H-M "C 2/C"
_symmetry_group_IT_number 15
_symmetry_cell_setting 'monoclinic'
loop_
_space_group_symop_operation_xyz
x,y,z
-x,y,1/2-z
-x,-y,-z
x,-y,1/2+z
1/2+x,1/2+y,z
1/2-x,1/2+y,1/2-z
1/2-x,1/2-y,-z
1/2+x,1/2-y,1/2+z
loop_
_atom_site_type_symbol
_atom_site_label
_atom_site_fract_x
_atom_site_fract_y
_atom_site_fract_z
Si Si1 0.879573 0.457051 0.464157
Si Si2 0.916276 0.137678 0.594684
Si Si3 0.490530 0.722441 0.988093
Si Si4 0.950347 0.312300 0.619704
Si Si5 0.192785 0.027642 0.028056
Si Si6 0.669917 0.281693 0.799017
Si Si7 0.138458 0.021289 0.209877
Si Si8 0.349826 0.119805 0.377217
O O1 0.851210 0.465171 0.557903
O O2 0.704016 0.473029 0.309459
O O3 0.000000 0.500000 0.500000
O O4 0.969637 0.405806 0.486648
O O5 0.729233 0.161036 0.488284
O O6 0.898746 0.081741 0.540953
O O7 0.000000 0.136801 0.750000
O O8 0.008429 0.173692 0.577851
O O9 0.548800 0.769998 0.960288
O O10 0.301437 0.736917 0.899449
O O11 0.611601 0.717084 0.153244
O O12 0.000000 0.288062 0.750000
O O13 0.094975 0.353922 0.687001
O O14 0.213425 0.017463 0.151106
O O15 0.062423 0.983669 0.915037
O O16 0.500000 0.277173 0.750000
O O17 0.770089 0.333808 0.884060
O O18 0.215357 0.074520 0.291920
#
# Coordination Sequence:
#
# PCOD9280406 Si02
#       8
#     8   8   8   8   8   8   8   8
#     4  10  21  37  59  89 122 164 210 265 317 374
#     4  12  22  36  63  96 134 167 202 270 336 389
#     4  11  23  41  62  99 128 167 218 266 320 399
#     4  11  21  37  63  96 132 166 206 260 335 393
#     4  11  22  38  61  90 129 170 214 262 327 389
#     4  11  24  44  68  90 126 175 223 265 320 378
#     4  10  22  39  60  91 125 170 213 265 319 386
#     4  10  22  38  62  91 121 161 218 262 314 389
#
# _framework density 21.459906
#
# number of rings (size 3 to 8) (size 9 to 14) (size 15 to 20)
#    0.000    1.250    1.250    6.000    0.000    3.500 
#    0.000    0.000    0.000    1.500    0.000    0.000 
#    0.000    0.000    0.000    0.000    0.000    0.000 
#
# Total GULP energy -178619.320451 kJ/mol
# GULP energy per Si atom -5581.853764 kJ/mol
# Density = 2.141106 g / cm^3
# Si number density = 21.459906 Si / 1000 Ang^3
#
#
#
# Elastic Constant Matrix: (Units=GPa)
#
#
# Indices 1 2 3 4 5 6 
#
# 1 81.1178 36.3406 10.7879 0.0000 24.5607 0.0000
# 2 36.3406 88.4132 9.4031 0.0000 5.8415 0.0000
# 3 10.7879 9.4031 55.7422 0.0000 -9.2782 0.0000
# 4 0.0000 0.0000 0.0000 30.2961 0.0000 8.6402
# 5 24.5607 5.8415 -9.2782 0.0000 35.9797 0.0000
# 6 0.0000 0.0000 0.0000 8.6402 0.0000 22.7816
#
#
#
# Elastic Compliance Matrix: (Units=1/GPa)
#
#
# Indices 1 2 3 4 5 6 
#
# 1 0.020370 -0.006895 -0.005127 0.000000 -0.014108 0.000000
# 2 -0.006895 0.014067 -0.000664 0.000000 0.002252 0.000000
# 3 -0.005127 -0.000664 0.020526 0.000000 0.008901 0.000000
# 4 0.000000 0.000000 0.000000 0.037011 0.000000 -0.014037
# 5 -0.014108 0.002252 0.008901 0.000000 0.039354 0.000000
# 6 0.000000 0.000000 0.000000 -0.014037 0.000000 0.049219
#
#
# Mechanical properties :
#
#
# Convention : Reuss Voigt Hill
#
# Bulk Modulus (GPa) = 33.79553 37.59294 35.69423
# Shear Modulus (GPa) = 23.17160 29.06093 26.11627
#
# Velocity S-wave (km/s) = 3.28954 3.68393 3.49231
# Velocity P-wave (km/s) = 5.49641 5.97084 5.73853
#
# Compressibility (1/GPa) = 0.02958972
#
# Stress axis : x y z
#
# Youngs Moduli (GPa) = 49.09076 71.09073 48.71986
#
# Poissons Ratio (x) = 0.49020 0.24981
# Poissons Ratio (y) = 0.33850 0.03233
# Poissons Ratio (z) = 0.25171 0.04717
#
# Static dielectric constant tensor:
#      x y z
#    x 1.794330 0.000000 0.012830 
#    y 0.000000 1.776260 0.000000 
#    z 0.012830 0.000000 1.848080 
# 
# From -- ./inp_files/148788.got.cif
#   From: 2010.05.17/outbox.cif.g08.bks.cpg/sg15_75_cif.got.tgz:148788.got - 2010.06.03 18:47:42.
