data_PCOD9280488
_publ_section_title
;
Structure prediction by ZEFSAII (Michael W. Deem and Ramdas Pophale) SiO2 
 PCOD9280488
Probable space group: C 2/C
;
_chemical_formula_sum "Si O2"
_cell_formula_units_Z 48
_cell_length_a 14.136691
_cell_length_b 19.775553
_cell_length_c 9.065842
_cell_angle_alpha 90.000000
_cell_angle_beta 111.513766
_cell_angle_gamma 90.000000
_cell_volume 2357.878016
_symmetry_space_group_name_H-M "C 2/C"
_symmetry_group_IT_number 15
_symmetry_cell_setting 'monoclinic'
loop_
_space_group_symop_operation_xyz
x,y,z
-x,y,1/2-z
-x,-y,-z
x,-y,1/2+z
1/2+x,1/2+y,z
1/2-x,1/2+y,1/2-z
1/2-x,1/2-y,-z
1/2+x,1/2-y,1/2+z
loop_
_atom_site_type_symbol
_atom_site_label
_atom_site_fract_x
_atom_site_fract_y
_atom_site_fract_z
Si Si1 0.229763 0.608495 0.856160
Si Si2 0.836125 0.648210 0.383894
Si Si3 0.197694 0.454929 0.899999
Si Si4 0.857562 0.750437 0.142068
Si Si5 0.887019 0.905767 0.199339
Si Si6 0.433026 0.862925 0.475992
O O1 0.187203 0.533349 0.861532
O O2 0.335644 0.597007 0.831496
O O3 0.149574 0.644424 0.700682
O O4 0.234749 0.646744 0.013988
O O5 0.803956 0.590394 0.248515
O O6 0.841111 0.717361 0.293308
O O7 0.950630 0.631213 0.503259
O O8 0.302935 0.441243 0.047676
O O9 0.107478 0.426268 0.951358
O O10 0.893080 0.827013 0.158871
O O11 0.750000 0.750000 0.000000
O O12 0.925503 0.700430 0.082877
O O13 0.000000 0.935369 0.250000
#
# Coordination Sequence:
#
# PCOD9280488 Si02
#       6
#     8   8   8   8   8   8
#     4  11  23  37  57  91 122 150 195 250 291 340
#     4  11  21  35  62  92 122 149 192 248 295 351
#     4  10  21  38  59  85 121 161 199 229 293 361
#     4  11  19  41  64  83 114 160 199 233 296 364
#     4  11  23  42  63  80 113 164 206 242 292 350
#     4  10  21  37  60  91 119 157 190 232 301 367
#
# _framework density 20.357288
#
# number of rings (size 3 to 8) (size 9 to 14) (size 15 to 20)
#    0.000    1.333    5.000    5.500    0.000    5.333 
#    0.000    0.833    0.000    0.000    0.000    0.000 
#    0.000    0.000    0.000    0.000    0.000    0.000 
#
# Total GULP energy -134080.974552 kJ/mol
# GULP energy per Si atom -5586.707273 kJ/mol
# Density = 2.031095 g / cm^3
# Si number density = 20.357288 Si / 1000 Ang^3
#
#
#
# Elastic Constant Matrix: (Units=GPa)
#
#
# Indices 1 2 3 4 5 6 
#
# 1 106.5676 -22.5445 29.6507 0.0000 -0.5013 0.0000
# 2 -22.5445 47.6239 -10.0009 0.0000 -0.6809 0.0000
# 3 29.6507 -10.0009 87.2888 0.0000 -13.2087 0.0000
# 4 0.0000 0.0000 0.0000 11.3316 0.0000 -2.6249
# 5 -0.5013 -0.6809 -13.2087 0.0000 28.9088 0.0000
# 6 0.0000 0.0000 0.0000 -2.6249 0.0000 -3.6193
#
#
#
# Elastic Compliance Matrix: (Units=1/GPa)
#
#
# Indices 1 2 3 4 5 6 
#
# 1 0.011331 0.004607 -0.003518 0.000000 -0.001303 0.000000
# 2 0.004607 0.023471 0.001311 0.000000 0.001232 0.000000
# 3 -0.003518 0.001311 0.013747 0.000000 0.006251 0.000000
# 4 0.000000 0.000000 0.000000 0.075556 0.000000 -0.054797
# 5 -0.001303 0.001232 0.006251 0.000000 0.037454 0.000000
# 6 0.000000 0.000000 0.000000 -0.054797 0.000000 -0.236552
#
#
# Mechanical properties :
#
#
# Convention : Reuss Voigt Hill
#
# Bulk Modulus (GPa) = 18.74491 26.18786 22.46638
# Shear Modulus (GPa) = -80.63505 23.61588 -28.50959
#
# Velocity S-wave (km/s) = -6.30047 3.40968 -3.74633
# Velocity P-wave (km/s) = 6.61059 5.32853 2.76647
#
# Compressibility (1/GPa) = 0.05334782
#
# Stress axis : x y z
#
# Youngs Moduli (GPa) = 88.25338 42.60506 72.74073
#
# Poissons Ratio (x) = -0.19626 0.25592
# Poissons Ratio (y) = -0.40654 -0.09535
# Poissons Ratio (z) = 0.31050 -0.05585
#
# Static dielectric constant tensor:
#      x y z
#    x 1.927260 0.000000 0.120380 
#    y 0.000000 1.712800 0.000000 
#    z 0.120380 0.000000 1.819240 
# 
# From -- ./inp_files/40921.got.cif
#   From: 2010.05.17/outbox.cif.g08.bks.cpg/sg15_21_cif.got.tgz:40921.got - 2010.06.03 18:47:42.
