data_PCOD9280368
_publ_section_title
;
Structure prediction by ZEFSAII (Michael W. Deem and Ramdas Pophale) SiO2 
 PCOD9280368
Probable space group: C 2/C
;
_chemical_formula_sum "Si O2"
_cell_formula_units_Z 40
_cell_length_a 9.306464
_cell_length_b 18.622309
_cell_length_c 23.314505
_cell_angle_alpha 90.000000
_cell_angle_beta 152.938540
_cell_angle_gamma 90.000000
_cell_volume 1838.248766
_symmetry_space_group_name_H-M "C 2/C"
_symmetry_group_IT_number 15
_symmetry_cell_setting 'monoclinic'
loop_
_space_group_symop_operation_xyz
x,y,z
-x,y,1/2-z
-x,-y,-z
x,-y,1/2+z
1/2+x,1/2+y,z
1/2-x,1/2+y,1/2-z
1/2-x,1/2-y,-z
1/2+x,1/2-y,1/2+z
loop_
_atom_site_type_symbol
_atom_site_label
_atom_site_fract_x
_atom_site_fract_y
_atom_site_fract_z
Si Si1 0.870102 0.436161 0.879716
Si Si2 0.291758 0.674759 0.485490
Si Si3 0.810603 0.825043 0.487648
Si Si4 0.837753 0.047618 0.074671
Si Si5 0.702056 0.081583 0.765690
O O1 0.500000 0.448767 0.750000
O O2 0.898796 0.424647 0.959101
O O3 0.968096 0.370137 0.875120
O O4 0.108335 0.500696 0.952226
O O5 0.250000 0.750000 0.500000
O O6 0.447537 0.683877 0.478979
O O7 0.526678 0.630790 0.610217
O O8 0.750000 0.750000 0.500000
O O9 0.952555 0.883075 0.582112
O O10 0.504492 0.866735 0.350018
O O11 0.115748 0.991018 0.189549
O O12 0.500000 0.059657 0.750000
#
# Coordination Sequence:
#
# PCOD9280368 Si02
#       5
#     8   8   8   8   8
#     4  10  21  37  59  85 123 168 208 253 313 378
#     4  10  22  40  60  89 129 172 210 255 322 382
#     4  11  23  41  66  96 128 164 216 269 316 379
#     4  10  21  38  62  93 121 161 213 260 311 376
#     4   9  21  40  63  89 127 167 206 264 324 377
#
# _framework density 21.759841000000002
#
# number of rings (size 3 to 8) (size 9 to 14) (size 15 to 20)
#    0.000    2.000    0.000    2.400    0.000   12.800 
#    0.000    9.000    0.000    0.000    0.000    0.000 
#    0.000    0.000    0.000    0.000    0.000    0.000 
#
# Total GULP energy -111390.433730 kJ/mol
# GULP energy per Si atom -5569.521687 kJ/mol
# Density = 2.171031 g / cm^3
# Si number density = 21.759841 Si / 1000 Ang^3
#
#
#
# Elastic Constant Matrix: (Units=GPa)
#
#
# Indices 1 2 3 4 5 6 
#
# 1 152.0925 114.9355 28.2759 -0.0017 14.5556 -0.0024
# 2 114.9355 178.9517 32.2215 0.0000 9.1064 0.0022
# 3 28.2759 32.2215 85.9558 -0.0050 7.0712 0.0037
# 4 -0.0017 0.0000 -0.0050 16.5282 0.0031 5.4317
# 5 14.5556 9.1064 7.0712 0.0031 23.0400 -0.0004
# 6 -0.0024 0.0022 0.0037 5.4317 -0.0004 43.0268
#
#
#
# Elastic Compliance Matrix: (Units=1/GPa)
#
#
# Indices 1 2 3 4 5 6 
#
# 1 0.013417 -0.008197 -0.000934 0.000002 -0.004950 0.000001
# 2 -0.008197 0.011068 -0.001558 -0.000001 0.001282 -0.000001
# 3 -0.000934 -0.001558 0.012748 0.000005 -0.002707 -0.000002
# 4 0.000002 -0.000001 0.000005 0.063121 -0.000011 -0.007968
# 5 -0.004950 0.001282 -0.002707 -0.000011 0.046854 0.000002
# 6 0.000001 -0.000001 -0.000002 -0.007968 0.000002 0.024247
#
#
# Mechanical properties :
#
#
# Convention : Reuss Voigt Hill
#
# Bulk Modulus (GPa) = 63.07087 85.31842 74.19465
# Shear Modulus (GPa) = 25.23749 32.62345 28.93047
#
# Velocity S-wave (km/s) = 3.40931 3.87622 3.65023
# Velocity P-wave (km/s) = 6.67426 7.70244 7.20671
#
# Compressibility (1/GPa) = 0.01585518
#
# Stress axis : x y z
#
# Youngs Moduli (GPa) = 74.53308 90.34843 78.44556
#
# Poissons Ratio (x) = 0.74061 0.07323
# Poissons Ratio (y) = 0.61097 0.12222
# Poissons Ratio (z) = 0.06958 0.14076
#
# Static dielectric constant tensor:
#      x y z
#    x 1.882960 0.000000 -0.068070 
#    y 0.000000 1.796610 0.000000 
#    z -0.068070 0.000000 1.978050 
# 
# From -- ./inp_files/76895.got.cif
#   From: 2010.05.17/outbox.cif.g08.bks.cpg/sg15_39_cif.got.tgz:76895.got - 2010.06.03 18:47:42.
