data_PCOD9280403
_publ_section_title
;
Structure prediction by ZEFSAII (Michael W. Deem and Ramdas Pophale) SiO2 
 PCOD9280403
Probable space group: C 2/C
;
_chemical_formula_sum "Si O2"
_cell_formula_units_Z 48
_cell_length_a 6.458897
_cell_length_b 21.322580
_cell_length_c 19.353457
_cell_angle_alpha 90.000000
_cell_angle_beta 89.929172
_cell_angle_gamma 90.000000
_cell_volume 2665.362796
_symmetry_space_group_name_H-M "C 2/C"
_symmetry_group_IT_number 15
_symmetry_cell_setting 'monoclinic'
loop_
_space_group_symop_operation_xyz
x,y,z
-x,y,1/2-z
-x,-y,-z
x,-y,1/2+z
1/2+x,1/2+y,z
1/2-x,1/2+y,1/2-z
1/2-x,1/2-y,-z
1/2+x,1/2-y,1/2+z
loop_
_atom_site_type_symbol
_atom_site_label
_atom_site_fract_x
_atom_site_fract_y
_atom_site_fract_z
Si Si1 0.137011 0.519857 0.065596
Si Si2 0.298071 0.645770 0.001894
Si Si3 0.966465 0.079559 0.625453
Si Si4 0.053793 0.740621 0.549084
Si Si5 0.106366 0.658799 0.676803
Si Si6 0.383114 0.965594 0.176850
O O1 0.313705 0.469666 0.087069
O O2 0.975609 0.519328 0.128768
O O3 0.235928 0.585655 0.046216
O O4 0.000000 0.500000 0.000000
O O5 0.424878 0.620829 0.934791
O O6 0.098063 0.686448 0.980069
O O7 0.434566 0.693898 0.046024
O O8 0.137884 0.041450 0.669203
O O9 0.830780 0.125184 0.674678
O O10 0.250000 0.750000 0.500000
O O11 0.112160 0.716637 0.624991
O O12 0.000000 0.674397 0.750000
O O13 0.963135 0.601924 0.648498
O O14 0.500000 0.970592 0.250000
#
# Coordination Sequence:
#
# PCOD9280403 Si02
#       6
#     8   8   8   8   8   8
#     4  11  22  35  62  92 123 157 204 253 305 373
#     4  11  22  36  60  92 118 157 209 244 308 361
#     4  11  20  38  65  91 119 160 199 260 313 366
#     4  11  22  38  60  85 126 161 204 257 296 361
#     4  10  21  37  59  89 121 152 204 255 308 364
#     4  10  22  38  59  91 127 153 202 254 315 372
#
# _framework density 18.008807000000001
#
# number of rings (size 3 to 8) (size 9 to 14) (size 15 to 20)
#    0.000    1.333    5.000    1.500    0.000    6.000 
#    0.000    0.000    7.333    0.000    0.000    0.000 
#    0.000    0.000    0.000    0.000    0.000    0.000 
#
# Total GULP energy -133788.586063 kJ/mol
# GULP energy per Si atom -5574.524419 kJ/mol
# Density = 1.796782 g / cm^3
# Si number density = 18.008807 Si / 1000 Ang^3
#
#
#
# Elastic Constant Matrix: (Units=GPa)
#
#
# Indices 1 2 3 4 5 6 
#
# 1 139.3203 57.2081 73.8204 0.0000 -1.5217 0.0000
# 2 57.2081 102.7991 67.5197 0.0000 -9.6932 0.0000
# 3 73.8204 67.5197 120.1454 0.0000 -13.2029 0.0000
# 4 0.0000 0.0000 0.0000 31.4248 0.0000 -4.9736
# 5 -1.5217 -9.6932 -13.2029 0.0000 35.8086 0.0000
# 6 0.0000 0.0000 0.0000 -4.9736 0.0000 17.8916
#
#
#
# Elastic Compliance Matrix: (Units=1/GPa)
#
#
# Indices 1 2 3 4 5 6 
#
# 1 0.011279 -0.002817 -0.005605 0.000000 -0.002350 0.000000
# 2 -0.002817 0.016158 -0.007173 0.000000 0.001609 0.000000
# 3 -0.005605 -0.007173 0.016216 0.000000 0.003799 0.000000
# 4 0.000000 0.000000 0.000000 0.033287 0.000000 0.009253
# 5 -0.002350 0.001609 0.003799 0.000000 0.029663 0.000000
# 6 0.000000 0.000000 0.000000 0.009253 0.000000 0.058464
#
#
# Mechanical properties :
#
#
# Convention : Reuss Voigt Hill
#
# Bulk Modulus (GPa) = 80.23883 84.37344 82.30613
# Shear Modulus (GPa) = 24.94873 27.93943 26.44408
#
# Velocity S-wave (km/s) = 3.72608 3.94309 3.83612
# Velocity P-wave (km/s) = 7.94756 8.22700 8.08849
#
# Compressibility (1/GPa) = 0.01246279
#
# Stress axis : x y z
#
# Youngs Moduli (GPa) = 88.66377 61.88717 61.66758
#
# Poissons Ratio (x) = 0.17431 0.34566
# Poissons Ratio (y) = 0.24973 0.44236
# Poissons Ratio (z) = 0.49698 0.44394
#
# Static dielectric constant tensor:
#      x y z
#    x 1.684870 0.000000 -0.003560 
#    y 0.000000 1.591910 0.000000 
#    z -0.003560 0.000000 1.663030 
# 
# From -- ./inp_files/227298.got.cif
#   From: 2010.05.17/outbox.cif.g08.bks.cpg/sg15_114_cif.got.tgz:227298.got - 2010.06.03 18:47:42.
