data_PCOD9280531
_publ_section_title
;
Structure prediction by ZEFSAII (Michael W. Deem and Ramdas Pophale) SiO2 
 PCOD9280531
Probable space group: C 2/C
;
_chemical_formula_sum "Si O2"
_cell_formula_units_Z 32
_cell_length_a 17.619104
_cell_length_b 15.276990
_cell_length_c 13.725988
_cell_angle_alpha 90.000000
_cell_angle_beta 152.895848
_cell_angle_gamma 90.000000
_cell_volume 1683.286032
_symmetry_space_group_name_H-M "C 2/C"
_symmetry_group_IT_number 15
_symmetry_cell_setting 'monoclinic'
loop_
_space_group_symop_operation_xyz
x,y,z
-x,y,1/2-z
-x,-y,-z
x,-y,1/2+z
1/2+x,1/2+y,z
1/2-x,1/2+y,1/2-z
1/2-x,1/2-y,-z
1/2+x,1/2-y,1/2+z
loop_
_atom_site_type_symbol
_atom_site_label
_atom_site_fract_x
_atom_site_fract_y
_atom_site_fract_z
Si Si1 0.661778 0.304396 0.486152
Si Si2 0.670206 0.133841 0.819866
Si Si3 0.480113 0.140781 0.061631
Si Si4 0.500000 0.009199 0.250000
Si Si5 0.500000 0.715662 0.250000
O O1 0.750000 0.250000 0.500000
O O2 0.589477 0.235211 0.482175
O O3 0.817187 0.357919 0.707193
O O4 0.500000 0.348580 0.250000
O O5 0.593951 0.117444 0.627109
O O6 0.582381 0.219976 0.764934
O O7 0.630536 0.054102 0.846480
O O8 0.863403 0.156731 0.041257
O O9 0.426661 0.072246 0.083502
#
# Coordination Sequence:
#
# PCOD9280531 Si02
#       5
#     8   8   8   4   4
#     4   9  17  32  54  80 107 139 176 227 260 306
#     4  10  21  37  61  79 105 149 179 227 276 313
#     4  11  19  36  58  82 110 146 182 217 278 323
#     4  11  22  36  52  79 124 140 174 227 268 332
#     4   9  20  42  58  81 106 132 200 233 250 326
#
# _framework density 19.010435000000001
#
# number of rings (size 3 to 8) (size 9 to 14) (size 15 to 20)
#    0.000    2.000    3.750    2.250    0.000    0.000 
#    2.250    1.250    0.000    0.000    0.000    0.000 
#    0.000    0.000    0.000    0.000    0.000    0.000 
#
# Total GULP energy -89216.939236 kJ/mol
# GULP energy per Si atom -5576.058702 kJ/mol
# Density = 1.896717 g / cm^3
# Si number density = 19.010435 Si / 1000 Ang^3
#
#
#
# Elastic Constant Matrix: (Units=GPa)
#
#
# Indices 1 2 3 4 5 6 
#
# 1 64.7812 21.6613 58.6668 0.0000 -12.8921 0.0000
# 2 21.6613 66.7754 44.8355 0.0000 -9.1481 0.0000
# 3 58.6668 44.8355 176.7124 0.0000 -12.0729 0.0000
# 4 0.0000 0.0000 0.0000 8.9651 0.0000 -5.1860
# 5 -12.8921 -9.1481 -12.0729 0.0000 29.7513 0.0000
# 6 0.0000 0.0000 0.0000 -5.1860 0.0000 12.8535
#
#
#
# Elastic Compliance Matrix: (Units=1/GPa)
#
#
# Indices 1 2 3 4 5 6 
#
# 1 0.023736 -0.002152 -0.006867 0.000000 0.006837 0.000000
# 2 -0.002152 0.018673 -0.003800 0.000000 0.003267 0.000000
# 3 -0.006867 -0.003800 0.008865 0.000000 -0.000546 0.000000
# 4 0.000000 0.000000 0.000000 0.145503 0.000000 0.058706
# 5 0.006837 0.003267 -0.000546 0.000000 0.037358 0.000000
# 6 0.000000 0.000000 0.000000 0.058706 0.000000 0.101486
#
#
# Mechanical properties :
#
#
# Convention : Reuss Voigt Hill
#
# Bulk Modulus (GPa) = 39.00813 62.06625 50.53719
# Shear Modulus (GPa) = 13.52069 22.52099 18.02084
#
# Velocity S-wave (km/s) = 2.66977 3.44563 3.08221
# Velocity P-wave (km/s) = 5.48338 6.96773 6.26964
#
# Compressibility (1/GPa) = 0.02563568
#
# Stress axis : x y z
#
# Youngs Moduli (GPa) = 42.13083 53.55397 112.79802
#
# Poissons Ratio (x) = 0.11527 0.77456
# Poissons Ratio (y) = 0.09068 0.42862
# Poissons Ratio (z) = 0.28930 0.20350
#
# Static dielectric constant tensor:
#      x y z
#    x 1.654040 0.000000 0.018720 
#    y 0.000000 1.678350 0.000000 
#    z 0.018720 0.000000 1.665560 
# 
# From -- ./inp_files/27696.got.cif
#   From: 2010.05.17/outbox.cif.g08.bks.cpg/sg15_14_cif.got.tgz:27696.got - 2010.06.03 18:47:42.
