data_PCOD9280061
_publ_section_title
;
Structure prediction by ZEFSAII (Michael W. Deem and Ramdas Pophale) SiO2 
 PCOD9280061
Probable space group: C 2/C
;
_chemical_formula_sum "Si O2"
_cell_formula_units_Z 40
_cell_length_a 8.227966
_cell_length_b 13.971102
_cell_length_c 17.121519
_cell_angle_alpha 90.000000
_cell_angle_beta 55.307795
_cell_angle_gamma 90.000000
_cell_volume 1618.282224
_symmetry_space_group_name_H-M "C 2/C"
_symmetry_group_IT_number 15
_symmetry_cell_setting 'monoclinic'
loop_
_space_group_symop_operation_xyz
x,y,z
-x,y,1/2-z
-x,-y,-z
x,-y,1/2+z
1/2+x,1/2+y,z
1/2-x,1/2+y,1/2-z
1/2-x,1/2-y,-z
1/2+x,1/2-y,1/2+z
loop_
_atom_site_type_symbol
_atom_site_label
_atom_site_fract_x
_atom_site_fract_y
_atom_site_fract_z
Si Si1 0.366992 0.650197 0.951781
Si Si2 0.322941 0.138153 0.043287
Si Si3 0.571089 0.314045 0.906760
Si Si4 0.139414 0.470128 0.377319
Si Si5 0.708961 0.177673 0.739155
O O1 0.267192 0.584106 0.911708
O O2 0.587963 0.677209 0.863435
O O3 0.250000 0.750000 0.000000
O O4 0.363326 0.614415 0.042850
O O5 0.089515 0.137777 0.104016
O O6 0.367288 0.083601 0.111475
O O7 0.430561 0.235548 0.990160
O O8 0.419162 0.068455 0.952733
O O9 0.712052 0.252976 0.811337
O O10 0.205429 0.427526 0.278400
O O11 0.000000 0.692499 0.750000
#
# Coordination Sequence:
#
# PCOD9280061 Si02
#       5
#     8   8   8   8   8
#     4  12  22  38  64  96 128 172 215 277 323 379
#     4   9  18  38  63  92 121 168 201 259 325 391
#     4  10  21  40  68  92 129 171 216 262 328 399
#     4  10  21  36  64  93 130 162 216 273 328 382
#     4  11  23  39  63  92 129 178 222 265 328 396
#
# _framework density 24.717569000000001
#
# number of rings (size 3 to 8) (size 9 to 14) (size 15 to 20)
#    0.000    1.600    4.000    4.200    0.000    0.800 
#    0.000    6.000    0.000    4.800    0.000    0.000 
#    0.000    0.000    0.000    0.000    0.000    0.000 
#
# Total GULP energy -111397.609737 kJ/mol
# GULP energy per Si atom -5569.880487 kJ/mol
# Density = 2.466131 g / cm^3
# Si number density = 24.717569 Si / 1000 Ang^3
#
#
#
# Elastic Constant Matrix: (Units=GPa)
#
#
# Indices 1 2 3 4 5 6 
#
# 1 51.4609 6.8771 9.5397 0.0001 1.3909 -0.0001
# 2 6.8771 45.5339 15.9965 0.0001 3.8622 -0.0001
# 3 9.5397 15.9965 120.8048 0.0002 0.3664 -0.0001
# 4 0.0001 0.0001 0.0002 31.3246 -0.0001 -0.0293
# 5 1.3909 3.8622 0.3664 -0.0001 36.7916 0.0001
# 6 -0.0001 -0.0001 -0.0001 -0.0293 0.0001 15.1206
#
#
#
# Elastic Compliance Matrix: (Units=1/GPa)
#
#
# Indices 1 2 3 4 5 6 
#
# 1 0.020016 -0.002546 -0.001242 0.000000 -0.000477 0.000000
# 2 -0.002546 0.023569 -0.002913 0.000000 -0.002349 0.000000
# 3 -0.001242 -0.002913 0.008761 0.000000 0.000265 0.000000
# 4 0.000000 0.000000 0.000000 0.031924 0.000000 0.000062
# 5 -0.000477 -0.002349 0.000265 0.000000 0.027442 0.000000
# 6 0.000000 0.000000 0.000000 0.000062 0.000000 0.066135
#
#
# Mechanical properties :
#
#
# Convention : Reuss Voigt Hill
#
# Bulk Modulus (GPa) = 25.67837 31.40292 28.54064
# Shear Modulus (GPa) = 24.48231 29.00645 26.74438
#
# Velocity S-wave (km/s) = 3.15061 3.42938 3.29294
# Velocity P-wave (km/s) = 4.86275 5.33040 5.10194
#
# Compressibility (1/GPa) = 0.03894328
#
# Stress axis : x y z
#
# Youngs Moduli (GPa) = 49.96100 42.42918 114.14518
#
# Poissons Ratio (x) = 0.10803 0.14177
# Poissons Ratio (y) = 0.12721 0.33247
# Poissons Ratio (z) = 0.06205 0.12358
#
# Static dielectric constant tensor:
#      x y z
#    x 2.818180 0.000000 0.297730 
#    y 0.000000 2.073570 0.000000 
#    z 0.297730 0.000000 2.064480 
# 
# From -- ./inp_files/142868.got.cif
#   From: 2010.05.17/outbox.cif.g08.bks.cpg/sg15_72_cif.got.tgz:142868.got - 2010.06.03 18:47:42.
