data_PCOD9280269
_publ_section_title
;
Structure prediction by ZEFSAII (Michael W. Deem and Ramdas Pophale) SiO2 
 PCOD9280269
Probable space group: C 2/C
;
_chemical_formula_sum "Si O2"
_cell_formula_units_Z 32
_cell_length_a 10.453527
_cell_length_b 26.723595
_cell_length_c 5.083422
_cell_angle_alpha 90.000000
_cell_angle_beta 120.295090
_cell_angle_gamma 90.000000
_cell_volume 1226.155196
_symmetry_space_group_name_H-M "C 2/C"
_symmetry_group_IT_number 15
_symmetry_cell_setting 'monoclinic'
loop_
_space_group_symop_operation_xyz
x,y,z
-x,y,1/2-z
-x,-y,-z
x,-y,1/2+z
1/2+x,1/2+y,z
1/2-x,1/2+y,1/2-z
1/2-x,1/2-y,-z
1/2+x,1/2-y,1/2+z
loop_
_atom_site_type_symbol
_atom_site_label
_atom_site_fract_x
_atom_site_fract_y
_atom_site_fract_z
Si Si1 0.604840 0.225172 0.113074
Si Si2 0.679054 0.028794 0.395008
Si Si3 0.606144 0.337193 0.114196
Si Si4 0.672660 0.879935 0.507622
O O1 0.500000 0.216938 0.250000
O O2 0.500000 0.228384 0.750000
O O3 0.672327 0.280597 0.211084
O O4 0.695748 0.174801 0.163213
O O5 0.500000 0.028746 0.250000
O O6 0.729630 0.014671 0.741417
O O7 0.713927 0.078125 0.261192
O O8 0.500000 0.337407 0.750000
O O9 0.500000 0.347913 0.250000
O O10 0.734296 0.375249 0.163675
O O11 0.500000 0.886261 0.250000
#
# Coordination Sequence:
#
# PCOD9280269 Si02
#       4
#     8   8   8   8
#     4   9  19  35  56  86 119 153 193 238 287 344
#     4  10  21  37  57  87 122 150 186 246 306 343
#     4  10  23  41  59  84 125 163 190 233 297 355
#     4  11  22  38  64  92 116 152 204 247 286 346
#
# _framework density 26.097836999999998
#
# number of rings (size 3 to 8) (size 9 to 14) (size 15 to 20)
#    0.000    2.000    0.000    3.750    0.000   10.000 
#    0.000   15.000    0.000    4.500    0.000    0.000 
#    0.000    0.000    0.000    0.000    0.000    0.000 
#
# Total GULP energy -89613.917618 kJ/mol
# GULP energy per Si atom -5600.869851 kJ/mol
# Density = 2.603844 g / cm^3
# Si number density = 26.097837 Si / 1000 Ang^3
#
#
#
# Elastic Constant Matrix: (Units=GPa)
#
#
# Indices 1 2 3 4 5 6 
#
# 1 142.4858 76.6933 60.5306 0.0000 -43.8496 0.0000
# 2 76.6933 169.2661 40.4775 0.0000 -42.3012 0.0000
# 3 60.5306 40.4775 157.1075 0.0000 -59.3392 0.0000
# 4 0.0000 0.0000 0.0000 38.6583 0.0000 -18.1360
# 5 -43.8496 -42.3012 -59.3392 0.0000 61.5544 0.0000
# 6 0.0000 0.0000 0.0000 -18.1360 0.0000 21.5439
#
#
#
# Elastic Compliance Matrix: (Units=1/GPa)
#
#
# Indices 1 2 3 4 5 6 
#
# 1 0.010821 -0.003598 -0.001989 0.000000 0.003319 0.000000
# 2 -0.003598 0.008329 0.000683 0.000000 0.003819 0.000000
# 3 -0.001989 0.000683 0.010375 0.000000 0.009054 0.000000
# 4 0.000000 0.000000 0.000000 0.042751 0.000000 0.035989
# 5 0.003319 0.003819 0.009054 0.000000 0.029963 0.000000
# 6 0.000000 0.000000 0.000000 0.035989 0.000000 0.076713
#
#
# Mechanical properties :
#
#
# Convention : Reuss Voigt Hill
#
# Bulk Modulus (GPa) = 50.71560 91.58468 71.15014
# Shear Modulus (GPa) = 25.59729 43.76184 34.67956
#
# Velocity S-wave (km/s) = 3.13520 4.09936 3.64927
# Velocity P-wave (km/s) = 5.70798 7.58784 6.71403
#
# Compressibility (1/GPa) = 0.01971780
#
# Stress axis : x y z
#
# Youngs Moduli (GPa) = 92.41241 120.05924 96.38419
#
# Poissons Ratio (x) = 0.43197 0.19167
# Poissons Ratio (y) = 0.33250 -0.06580
# Poissons Ratio (z) = 0.18377 -0.08197
#
# Static dielectric constant tensor:
#      x y z
#    x 2.007060 0.000000 0.024230 
#    y 0.000000 2.142440 0.000000 
#    z 0.024230 0.000000 1.603910 
# 
# From -- ./inp_files/2655.got.cif
#   From: 2010.05.17/outbox.cif.g08.bks.cpg/sg15_2_cif.got.tgz:2655.got - 2010.06.03 18:47:42.
