data_PCOD9280009
_publ_section_title
;
Structure prediction by ZEFSAII (Michael W. Deem and Ramdas Pophale) SiO2 
 PCOD9280009
Probable space group: C 2/C
;
_chemical_formula_sum "Si O2"
_cell_formula_units_Z 52
_cell_length_a 21.245005
_cell_length_b 27.609755
_cell_length_c 8.584251
_cell_angle_alpha 90.000000
_cell_angle_beta 149.416940
_cell_angle_gamma 90.000000
_cell_volume 2561.873760
_symmetry_space_group_name_H-M "C 2/C"
_symmetry_group_IT_number 15
_symmetry_cell_setting 'monoclinic'
loop_
_space_group_symop_operation_xyz
x,y,z
-x,y,1/2-z
-x,-y,-z
x,-y,1/2+z
1/2+x,1/2+y,z
1/2-x,1/2+y,1/2-z
1/2-x,1/2-y,-z
1/2+x,1/2-y,1/2+z
loop_
_atom_site_type_symbol
_atom_site_label
_atom_site_fract_x
_atom_site_fract_y
_atom_site_fract_z
Si Si1 0.000000 0.379038 0.750000
Si Si2 0.232213 0.267075 0.727493
Si Si3 0.757801 0.932586 0.255441
Si Si4 0.500000 0.969914 0.250000
Si Si5 0.942605 0.216399 0.904342
Si Si6 0.000000 0.132517 0.250000
Si Si7 0.626906 0.202985 0.693095
Si Si8 0.179717 0.522629 0.883478
O O1 0.878418 0.407760 0.546214
O O2 0.952219 0.343657 0.512971
O O3 0.119152 0.249879 0.593058
O O4 0.286444 0.217316 0.767459
O O5 0.196787 0.299535 0.505034
O O6 0.331839 0.292727 0.048488
O O7 0.875089 0.899012 0.470422
O O8 0.768296 0.947300 0.460135
O O9 0.747322 0.979305 0.120035
O O10 0.399651 0.947725 0.156050
O O11 0.583694 0.000598 0.550181
O O12 0.999664 0.168818 0.101574
O O13 0.041696 0.249715 0.030319
#
# Coordination Sequence:
#
# PCOD9280009 Si02
#       8
#     4   8   8   4   8   4   8   8
#     4  12  23  38  68 106 128 160 234 268 312 374
#     4  10  21  36  63  85 127 193 215 248 318 383
#     4  11  25  43  70  94 127 169 214 287 322 409
#     4   8  13  30  70  95 118 154 196 249 312 438
#     4  11  21  40  62  88 131 185 213 259 320 379
#     4  12  26  42  66  97 132 172 234 267 316 380
#     4  11  21  37  62  94 132 180 212 265 309 386
#     4   9  18  39  67  94 126 165 205 256 373 385
#
# _framework density 20.297643999999998
#
# number of rings (size 3 to 8) (size 9 to 14) (size 15 to 20)
#    0.000    1.538    3.077    3.692    4.308    0.615 
#    0.000    4.615    3.385    0.000    0.000    0.000 
#    0.000    0.000    0.000    0.000    0.000    0.000 
#
# Total GULP energy -145018.736512 kJ/mol
# GULP energy per Si atom -5577.643712 kJ/mol
# Density = 2.025145 g / cm^3
# Si number density = 20.297644 Si / 1000 Ang^3
#
#
#
# Elastic Constant Matrix: (Units=GPa)
#
#
# Indices 1 2 3 4 5 6 
#
# 1 72.6921 11.9086 13.2260 0.0000 -8.7428 0.0000
# 2 11.9086 63.2199 27.9886 0.0000 2.5647 0.0000
# 3 13.2260 27.9886 106.6372 0.0000 -9.4501 0.0000
# 4 0.0000 0.0000 0.0000 10.2308 0.0000 -11.4302
# 5 -8.7428 2.5647 -9.4501 0.0000 38.0019 0.0000
# 6 0.0000 0.0000 0.0000 -11.4302 0.0000 21.4400
#
#
#
# Elastic Compliance Matrix: (Units=1/GPa)
#
#
# Indices 1 2 3 4 5 6 
#
# 1 0.014731 -0.002526 -0.000868 0.000000 0.003344 0.000000
# 2 -0.002526 0.018553 -0.004825 0.000000 -0.003033 0.000000
# 3 -0.000868 -0.004825 0.011005 0.000000 0.002863 0.000000
# 4 0.000000 0.000000 0.000000 0.241714 0.000000 0.128864
# 5 0.003344 -0.003033 0.002863 0.000000 0.028000 0.000000
# 6 0.000000 0.000000 0.000000 0.128864 0.000000 0.115342
#
#
# Mechanical properties :
#
#
# Convention : Reuss Voigt Hill
#
# Bulk Modulus (GPa) = 35.90546 38.75506 37.33026
# Shear Modulus (GPa) = 10.98740 26.56295 18.77517
#
# Velocity S-wave (km/s) = 2.32914 3.62148 3.04467
# Velocity P-wave (km/s) = 4.99610 6.05158 5.54900
#
# Compressibility (1/GPa) = 0.02785092
#
# Stress axis : x y z
#
# Youngs Moduli (GPa) = 67.88624 53.90015 90.86543
#
# Poissons Ratio (x) = 0.13617 0.07884
# Poissons Ratio (y) = 0.17150 0.43842
# Poissons Ratio (z) = 0.05890 0.26007
#
# Static dielectric constant tensor:
#      x y z
#    x 1.253680 0.000000 -0.786110 
#    y 0.000000 1.728280 0.000000 
#    z -0.786110 0.000000 0.513470 
# 
# From -- ./inp_files/59340.got.cif
#   From: 2010.05.17/outbox.cif.g08.bks.cpg/sg15_30_cif.got.tgz:59340.got - 2010.06.03 18:47:42.
