data_PCOD9280620
_publ_section_title
;
Structure prediction by ZEFSAII (Michael W. Deem and Ramdas Pophale) SiO2 
 PCOD9280620
Probable space group: C 2/C
;
_chemical_formula_sum "Si O2"
_cell_formula_units_Z 24
_cell_length_a 17.714593
_cell_length_b 5.312967
_cell_length_c 20.495764
_cell_angle_alpha 90.000000
_cell_angle_beta 27.784893
_cell_angle_gamma 90.000000
_cell_volume 899.210263
_symmetry_space_group_name_H-M "C 2/C"
_symmetry_group_IT_number 15
_symmetry_cell_setting 'monoclinic'
loop_
_space_group_symop_operation_xyz
x,y,z
-x,y,1/2-z
-x,-y,-z
x,-y,1/2+z
1/2+x,1/2+y,z
1/2-x,1/2+y,1/2-z
1/2-x,1/2-y,-z
1/2+x,1/2-y,1/2+z
loop_
_atom_site_type_symbol
_atom_site_label
_atom_site_fract_x
_atom_site_fract_y
_atom_site_fract_z
Si Si1 0.863625 0.439004 0.659336
Si Si2 0.373756 0.745654 0.786965
Si Si3 0.310839 0.229455 0.880988
O O1 0.758000 0.694777 0.752652
O O2 0.947692 0.356190 0.664103
O O3 0.000000 0.500000 0.500000
O O4 0.500000 0.715518 0.750000
O O5 0.295364 0.470011 0.846375
O O6 0.248191 0.967056 0.900676
O O7 0.500000 0.194946 0.750000
O O8 0.250000 0.250000 0.000000
#
# Coordination Sequence:
#
# PCOD9280620 Si02
#       3
#     8   8   8
#     4  12  28  50  75 109 155 205 255 317 390 462
#     4  10  23  43  71 102 138 187 245 305 368 445
#     4  10  21  37  61  97 132 168 223 294 358 419
#
# _framework density 26.690086999999998
#
# number of rings (size 3 to 8) (size 9 to 14) (size 15 to 20)
#    0.000    1.333    0.000    4.000    0.000   16.000 
#    0.000    0.000    0.000    0.000    0.000    0.000 
#    0.000    0.000    0.000    0.000    0.000    0.000 
#
# Total GULP energy -66965.867971 kJ/mol
# GULP energy per Si atom -5580.488998 kJ/mol
# Density = 2.662934 g / cm^3
# Si number density = 26.690087 Si / 1000 Ang^3
#
#
#
# Elastic Constant Matrix: (Units=GPa)
#
#
# Indices 1 2 3 4 5 6 
#
# 1 124.1757 38.1595 62.1018 -0.0167 14.4675 0.0114
# 2 38.1595 295.5158 66.1966 -0.0347 8.9786 0.0366
# 3 62.1018 66.1966 198.2291 -0.0225 17.8200 0.0262
# 4 -0.0167 -0.0347 -0.0225 40.8536 -0.0026 11.8594
# 5 14.4675 8.9786 17.8200 -0.0026 41.6387 0.0001
# 6 0.0114 0.0366 0.0262 11.8594 0.0001 52.1756
#
#
#
# Elastic Compliance Matrix: (Units=1/GPa)
#
#
# Indices 1 2 3 4 5 6 
#
# 1 0.009831 -0.000603 -0.002687 0.000002 -0.002136 -0.000001
# 2 -0.000603 0.003698 -0.001033 0.000003 -0.000146 -0.000003
# 3 -0.002687 -0.001033 0.006372 0.000002 -0.001571 -0.000002
# 4 0.000002 0.000003 0.000002 0.026207 -0.000001 -0.005957
# 5 -0.002136 -0.000146 -0.001571 -0.000001 0.025462 0.000001
# 6 -0.000001 -0.000003 -0.000002 -0.005957 0.000001 0.020520
#
#
# Mechanical properties :
#
#
# Convention : Reuss Voigt Hill
#
# Bulk Modulus (GPa) = 88.83682 105.64848 97.24265
# Shear Modulus (GPa) = 47.85331 57.03110 52.44221
#
# Velocity S-wave (km/s) = 4.23889 4.62756 4.43748
# Velocity P-wave (km/s) = 7.57063 8.25964 7.92263
#
# Compressibility (1/GPa) = 0.01125659
#
# Stress axis : x y z
#
# Youngs Moduli (GPa) = 101.72163 270.45077 156.92592
#
# Poissons Ratio (x) = 0.16301 0.42158
# Poissons Ratio (y) = 0.06131 0.16207
# Poissons Ratio (z) = 0.27328 0.27932
#
# Static dielectric constant tensor:
#      x y z
#    x 2.391240 0.000020 0.052800 
#    y 0.000020 2.299470 0.000010 
#    z 0.052800 0.000010 2.027320 
# 
# From -- ./inp_files/53114.got.cif
#   From: 2010.05.17/outbox.cif.g08.bks.cpg/sg15_27_cif.got.tgz:53114.got - 2010.06.03 18:47:42.
