data_PCOD9280935
_publ_section_title
;
Structure prediction by ZEFSAII (Michael W. Deem and Ramdas Pophale) SiO2 
 PCOD9280935
Probable space group: C 2/C
;
_chemical_formula_sum "Si O2"
_cell_formula_units_Z 60
_cell_length_a 14.520349
_cell_length_b 12.255619
_cell_length_c 18.518223
_cell_angle_alpha 90.000000
_cell_angle_beta 62.987932
_cell_angle_gamma 90.000000
_cell_volume 2935.931235
_symmetry_space_group_name_H-M "C 2/C"
_symmetry_group_IT_number 15
_symmetry_cell_setting 'monoclinic'
loop_
_space_group_symop_operation_xyz
x,y,z
-x,y,1/2-z
-x,-y,-z
x,-y,1/2+z
1/2+x,1/2+y,z
1/2-x,1/2+y,1/2-z
1/2-x,1/2-y,-z
1/2+x,1/2-y,1/2+z
loop_
_atom_site_type_symbol
_atom_site_label
_atom_site_fract_x
_atom_site_fract_y
_atom_site_fract_z
Si Si1 0.325355 0.599069 0.513130
Si Si2 0.971579 0.777236 0.521662
Si Si3 0.501506 0.070380 0.600574
Si Si4 0.567296 0.157396 0.106884
Si Si5 0.154969 0.587086 0.305552
Si Si6 0.000000 0.300732 0.250000
Si Si7 0.265463 0.613404 0.121464
Si Si8 0.705950 0.701837 0.128014
O O1 0.440780 0.633499 0.496243
O O2 0.300167 0.481361 0.554139
O O3 0.314274 0.618974 0.431224
O O4 0.247684 0.686528 0.577376
O O5 0.017979 0.665543 0.538210
O O6 0.943385 0.749553 0.449590
O O7 0.864647 0.810176 0.597755
O O8 0.507525 0.122862 0.677420
O O9 0.575353 0.965060 0.568210
O O10 0.386519 0.020302 0.639059
O O11 0.453018 0.143071 0.182069
O O12 0.666250 0.172420 0.121415
O O13 0.225630 0.565345 0.211478
O O14 0.211147 0.660050 0.344327
O O15 0.101333 0.226974 0.208537
#
# Coordination Sequence:
#
# PCOD9280935 Si02
#       8
#     8   8   8   8   8   4   8   8
#     4  11  24  42  63  98 130 171 205 268 327 386
#     4  12  23  43  62  95 130 168 212 263 322 386
#     4  10  21  37  67  90 123 157 218 267 311 369
#     4  10  23  41  64  92 124 167 218 263 310 379
#     4  10  23  40  65  95 126 165 216 270 317 374
#     4  12  20  38  64 102 122 162 210 274 320 374
#     4  12  25  40  66  91 133 173 210 262 325 384
#     4  11  23  39  68  95 130 163 217 268 326 373
#
# _framework density 20.436446
#
# number of rings (size 3 to 8) (size 9 to 14) (size 15 to 20)
#    0.800    0.267    2.667    4.800    3.733    0.000 
#    0.000    0.000    0.000    0.000    0.000    0.000 
#    0.000    0.000    0.000    0.000    0.000    0.000 
#
# Total GULP energy -167489.547852 kJ/mol
# GULP energy per Si atom -5582.984928 kJ/mol
# Density = 2.038993 g / cm^3
# Si number density = 20.436446 Si / 1000 Ang^3
#
#
#
# Elastic Constant Matrix: (Units=GPa)
#
#
# Indices 1 2 3 4 5 6 
#
# 1 110.6617 11.9193 32.0229 0.0000 -14.0329 0.0000
# 2 11.9193 12.2856 3.1450 0.0000 -4.7652 0.0000
# 3 32.0229 3.1450 53.8311 0.0000 -2.7797 0.0000
# 4 0.0000 0.0000 0.0000 9.5930 0.0000 10.1452
# 5 -14.0329 -4.7652 -2.7797 0.0000 34.5568 0.0000
# 6 0.0000 0.0000 0.0000 10.1452 0.0000 15.6943
#
#
#
# Elastic Compliance Matrix: (Units=1/GPa)
#
#
# Indices 1 2 3 4 5 6 
#
# 1 0.012342 -0.009018 -0.006648 0.000000 0.003233 0.000000
# 2 -0.009018 0.093650 0.000372 0.000000 0.009282 0.000000
# 3 -0.006648 0.000372 0.022466 0.000000 -0.000841 0.000000
# 4 0.000000 0.000000 0.000000 0.329503 0.000000 -0.213000
# 5 0.003233 0.009282 -0.000841 0.000000 0.031463 0.000000
# 6 0.000000 0.000000 0.000000 -0.213000 0.000000 0.201406
#
#
# Mechanical properties :
#
#
# Convention : Reuss Voigt Hill
#
# Bulk Modulus (GPa) = 10.21754 30.10587 20.16170
# Shear Modulus (GPa) = 6.63095 20.61492 13.62293
#
# Velocity S-wave (km/s) = 1.80325 3.17950 2.58466
# Velocity P-wave (km/s) = 3.05714 5.31436 4.33524
#
# Compressibility (1/GPa) = 0.09787092
#
# Stress axis : x y z
#
# Youngs Moduli (GPa) = 81.02645 10.67809 44.51144
#
# Poissons Ratio (x) = 0.09629 0.29591
# Poissons Ratio (y) = 0.73068 -0.01658
# Poissons Ratio (z) = 0.53866 -0.00398
#
# Static dielectric constant tensor:
#      x y z
#    x 1.760420 0.000000 -0.013320 
#    y 0.000000 1.741640 0.000000 
#    z -0.013320 0.000000 1.719320 
# 
# From -- ./inp_files/204413.got.cif
#   From: 2010.05.17/outbox.cif.g08.bks.cpg/sg15_103_cif.got.tgz:204413.got - 2010.06.03 18:47:42.
