data_PCOD9280236
_publ_section_title
;
Structure prediction by ZEFSAII (Michael W. Deem and Ramdas Pophale) SiO2 
 PCOD9280236
Probable space group: C 2/C
;
_chemical_formula_sum "Si O2"
_cell_formula_units_Z 56
_cell_length_a 16.344478
_cell_length_b 13.953305
_cell_length_c 10.116117
_cell_angle_alpha 90.000000
_cell_angle_beta 79.354203
_cell_angle_gamma 90.000000
_cell_volume 2267.367053
_symmetry_space_group_name_H-M "C 2/C"
_symmetry_group_IT_number 15
_symmetry_cell_setting 'monoclinic'
loop_
_space_group_symop_operation_xyz
x,y,z
-x,y,1/2-z
-x,-y,-z
x,-y,1/2+z
1/2+x,1/2+y,z
1/2-x,1/2+y,1/2-z
1/2-x,1/2-y,-z
1/2+x,1/2-y,1/2+z
loop_
_atom_site_type_symbol
_atom_site_label
_atom_site_fract_x
_atom_site_fract_y
_atom_site_fract_z
Si Si1 0.611639 0.138653 0.136527
Si Si2 0.999581 0.752492 0.982677
Si Si3 0.634549 0.597198 0.345650
Si Si4 0.914180 0.880795 0.195193
Si Si5 0.237742 0.894868 0.083325
Si Si6 0.213000 0.400707 0.852638
Si Si7 0.563453 0.061451 0.575611
O O1 0.535380 0.198778 0.103573
O O2 0.657191 0.151995 0.260637
O O3 0.679638 0.154549 0.998174
O O4 0.587215 0.026035 0.162827
O O5 0.925338 0.819640 0.058700
O O6 0.980774 0.662912 0.893929
O O7 0.066179 0.824651 0.901579
O O8 0.595816 0.494097 0.326729
O O9 0.691483 0.579197 0.459278
O O10 0.693550 0.633406 0.207895
O O11 0.834857 0.849657 0.306797
O O12 0.000000 0.872475 0.250000
O O13 0.270697 0.984295 0.159329
O O14 0.153891 0.401839 0.997026
O O15 0.500000 0.000000 0.500000
#
# Coordination Sequence:
#
# PCOD9280236 Si02
#       7
#     8   8   8   8   8   8   8
#     4   9  20  37  58  82 115 148 185 228 277 328
#     4  11  22  33  57  87 113 143 190 230 275 330
#     4  10  21  37  57  81 113 150 181 231 280 330
#     4  11  22  35  57  85 110 142 187 233 283 326
#     4   9  19  37  57  81 111 148 187 224 281 329
#     4   9  19  35  60  80 110 151 186 223 282 324
#     4   9  20  36  56  83 117 143 182 231 277 324
#
# _framework density 24.698252
#
# number of rings (size 3 to 8) (size 9 to 14) (size 15 to 20)
#    0.000    2.286    1.429    0.429    2.000    5.143 
#    0.000    0.000    9.429   15.429    0.000    0.000 
#    0.000    0.000    0.000    0.000    0.000    0.000 
#
# Total GULP energy -156065.678705 kJ/mol
# GULP energy per Si atom -5573.774239 kJ/mol
# Density = 2.464204 g / cm^3
# Si number density = 24.698252 Si / 1000 Ang^3
#
#
#
# Elastic Constant Matrix: (Units=GPa)
#
#
# Indices 1 2 3 4 5 6 
#
# 1 67.9224 43.3109 34.5493 0.0000 -21.9099 0.0000
# 2 43.3109 154.2062 36.9574 0.0000 -4.0094 0.0000
# 3 34.5493 36.9574 84.4478 0.0000 -32.0188 0.0000
# 4 0.0000 0.0000 0.0000 9.9578 0.0000 -21.9487
# 5 -21.9099 -4.0094 -32.0188 0.0000 28.6164 0.0000
# 6 0.0000 0.0000 0.0000 -21.9487 0.0000 6.3487
#
#
#
# Elastic Compliance Matrix: (Units=1/GPa)
#
#
# Indices 1 2 3 4 5 6 
#
# 1 0.024660 -0.006268 -0.000903 0.000000 0.016992 0.000000
# 2 -0.006268 0.009171 -0.004831 0.000000 -0.008920 0.000000
# 3 -0.000903 -0.004831 0.023980 0.000000 0.025462 0.000000
# 4 0.000000 0.000000 0.000000 -0.015169 0.000000 -0.052443
# 5 0.016992 -0.008920 0.025462 0.000000 0.075194 0.000000
# 6 0.000000 0.000000 0.000000 -0.052443 0.000000 -0.023792
#
#
# Mechanical properties :
#
#
# Convention : Reuss Voigt Hill
#
# Bulk Modulus (GPa) = 29.58069 59.57907 44.57988
# Shear Modulus (GPa) = 38.66475 21.76851 30.21663
#
# Velocity S-wave (km/s) = 3.96091 2.97202 3.50155
# Velocity P-wave (km/s) = 5.73771 5.99603 5.86829
#
# Compressibility (1/GPa) = 0.03380584
#
# Stress axis : x y z
#
# Youngs Moduli (GPa) = 40.55171 109.03736 41.70204
#
# Poissons Ratio (x) = 0.68342 0.03767
# Poissons Ratio (y) = 0.25417 0.20147
# Poissons Ratio (z) = 0.03663 0.52679
#
# Static dielectric constant tensor:
#      x y z
#    x 2.017300 0.000000 -0.031220 
#    y 0.000000 1.959700 0.000000 
#    z -0.031220 0.000000 2.065380 
# 
# From -- ./inp_files/160831.got.cif
#   From: 2010.05.17/outbox.cif.g08.bks.cpg/sg15_81_cif.got.tgz:160831.got - 2010.06.03 18:47:42.
