data_PCOD9280218
_publ_section_title
;
Structure prediction by ZEFSAII (Michael W. Deem and Ramdas Pophale) SiO2 
 PCOD9280218
Probable space group: C 2/C
;
_chemical_formula_sum "Si O2"
_cell_formula_units_Z 60
_cell_length_a 7.649258
_cell_length_b 21.126595
_cell_length_c 17.801922
_cell_angle_alpha 90.000000
_cell_angle_beta 110.885933
_cell_angle_gamma 90.000000
_cell_volume 2687.808695
_symmetry_space_group_name_H-M "C 2/C"
_symmetry_group_IT_number 15
_symmetry_cell_setting 'monoclinic'
loop_
_space_group_symop_operation_xyz
x,y,z
-x,y,1/2-z
-x,-y,-z
x,-y,1/2+z
1/2+x,1/2+y,z
1/2-x,1/2+y,1/2-z
1/2-x,1/2-y,-z
1/2+x,1/2-y,1/2+z
loop_
_atom_site_type_symbol
_atom_site_label
_atom_site_fract_x
_atom_site_fract_y
_atom_site_fract_z
Si Si1 0.623250 0.941169 0.431690
Si Si2 0.116562 0.467735 0.703578
Si Si3 0.894530 0.029413 0.851778
Si Si4 0.500000 0.612986 0.750000
Si Si5 0.004068 0.696399 0.573622
Si Si6 0.343083 0.582198 0.108717
Si Si7 0.797912 0.281238 0.903555
Si Si8 0.795310 0.282275 0.256313
O O1 0.814459 0.936143 0.411997
O O2 0.497321 0.878318 0.409664
O O3 0.693809 0.946646 0.527147
O O4 0.519598 0.999595 0.377263
O O5 0.223099 0.521469 0.767512
O O6 0.269889 0.429441 0.681563
O O7 0.000000 0.431568 0.750000
O O8 0.048093 0.068319 0.828497
O O9 0.972061 0.958816 0.877323
O O10 0.339107 0.657705 0.758306
O O11 0.985511 0.707942 0.481423
O O12 0.806531 0.721084 0.576856
O O13 0.157308 0.731231 0.648731
O O14 0.332129 0.657575 0.098637
O O15 0.801233 0.267940 0.814934
O O16 0.000000 0.294634 0.250000
#
# Coordination Sequence:
#
# PCOD9280218 Si02
#       8
#     8   8   8   4   8   8   8   8
#     4  10  21  37  63  87 121 157 207 251 311 364
#     4  10  21  37  56  85 121 162 203 244 302 371
#     4  11  21  35  56  92 122 154 200 256 304 366
#     4  12  22  38  62  96 122 150 216 264 310 366
#     4   9  18  36  62  89 113 161 206 257 300 367
#     4  11  21  38  59  89 123 163 195 252 312 378
#     4   9  20  37  60  87 120 157 211 244 307 381
#     4  10  21  39  64  90 118 164 206 259 317 367
#
# _framework density 22.323018999999999
#
# number of rings (size 3 to 8) (size 9 to 14) (size 15 to 20)
#    0.000    1.867    1.333    3.200    0.000    6.400 
#    1.200    0.667    0.000    0.000    0.000    0.000 
#    0.000    0.000    0.000    0.000    0.000    0.000 
#
# Total GULP energy -167122.958883 kJ/mol
# GULP energy per Si atom -5570.765296 kJ/mol
# Density = 2.227221 g / cm^3
# Si number density = 22.323019 Si / 1000 Ang^3
#
#
#
# Elastic Constant Matrix: (Units=GPa)
#
#
# Indices 1 2 3 4 5 6 
#
# 1 43.0064 12.8161 21.6358 0.0000 -11.0073 0.0000
# 2 12.8161 48.4725 29.2045 0.0000 -1.0872 0.0000
# 3 21.6358 29.2045 149.9102 0.0000 -6.8498 0.0000
# 4 0.0000 0.0000 0.0000 25.0985 0.0000 -4.4214
# 5 -11.0073 -1.0872 -6.8498 0.0000 25.3568 0.0000
# 6 0.0000 0.0000 0.0000 -4.4214 0.0000 18.3030
#
#
#
# Elastic Compliance Matrix: (Units=1/GPa)
#
#
# Indices 1 2 3 4 5 6 
#
# 1 0.029320 -0.005963 -0.002531 0.000000 0.011788 0.000000
# 2 -0.005963 0.024588 -0.004050 0.000000 -0.002628 0.000000
# 3 -0.002531 -0.004050 0.007864 0.000000 0.000852 0.000000
# 4 0.000000 0.000000 0.000000 0.041614 0.000000 0.010052
# 5 0.011788 -0.002628 0.000852 0.000000 0.044672 0.000000
# 6 0.000000 0.000000 0.000000 0.010052 0.000000 0.057064
#
#
# Mechanical properties :
#
#
# Convention : Reuss Voigt Hill
#
# Bulk Modulus (GPa) = 27.25961 40.96689 34.11325
# Shear Modulus (GPa) = 20.62399 25.60051 23.11225
#
# Velocity S-wave (km/s) = 3.04285 3.39015 3.22118
# Velocity P-wave (km/s) = 4.95815 5.80653 5.39903
#
# Compressibility (1/GPa) = 0.03668431
#
# Stress axis : x y z
#
# Youngs Moduli (GPa) = 34.10663 40.67085 127.16461
#
# Poissons Ratio (x) = 0.24250 0.32190
# Poissons Ratio (y) = 0.20336 0.51496
# Poissons Ratio (z) = 0.08634 0.16470
#
# Static dielectric constant tensor:
#      x y z
#    x 1.878310 0.000000 0.005560 
#    y 0.000000 1.822000 0.000000 
#    z 0.005560 0.000000 1.904280 
# 
# From -- ./inp_files/192576.got.cif
#   From: 2010.05.17/outbox.cif.g08.bks.cpg/sg15_97_cif.got.tgz:192576.got - 2010.06.03 18:47:42.
