data_PCOD9280310
_publ_section_title
;
Structure prediction by ZEFSAII (Michael W. Deem and Ramdas Pophale) SiO2 
 PCOD9280310
Probable space group: C 2/C
;
_chemical_formula_sum "Si O2"
_cell_formula_units_Z 36
_cell_length_a 9.002409
_cell_length_b 10.604902
_cell_length_c 24.775385
_cell_angle_alpha 90.000000
_cell_angle_beta 49.270980
_cell_angle_gamma 90.000000
_cell_volume 1792.431960
_symmetry_space_group_name_H-M "C 2/C"
_symmetry_group_IT_number 15
_symmetry_cell_setting 'monoclinic'
loop_
_space_group_symop_operation_xyz
x,y,z
-x,y,1/2-z
-x,-y,-z
x,-y,1/2+z
1/2+x,1/2+y,z
1/2-x,1/2+y,1/2-z
1/2-x,1/2-y,-z
1/2+x,1/2-y,1/2+z
loop_
_atom_site_type_symbol
_atom_site_label
_atom_site_fract_x
_atom_site_fract_y
_atom_site_fract_z
Si Si1 0.058426 0.608373 0.060796
Si Si2 0.795533 0.909542 0.606245
Si Si3 0.908853 0.864336 0.147159
Si Si4 0.500000 0.031950 0.750000
Si Si5 0.317336 0.131879 0.593968
O O1 0.944760 0.731580 0.109304
O O2 0.926199 0.483707 0.095502
O O3 0.245977 0.590471 0.054997
O O4 0.121066 0.627828 0.984022
O O5 0.584773 0.941895 0.683446
O O6 0.869053 0.770486 0.603618
O O7 0.924888 0.020420 0.600462
O O8 0.081932 0.879128 0.149246
O O9 0.687978 0.883640 0.221283
#
# Coordination Sequence:
#
# PCOD9280310 Si02
#       5
#     8   8   8   4   8
#     4  10  21  37  58  87 111 138 187 232 279 325
#     4   9  19  39  55  79 113 149 177 229 270 326
#     4   9  19  39  55  79 113 149 177 229 270 326
#     4   8  20  40  54  76 116 144 200 210 264 348
#     4  10  21  37  58  87 111 138 187 232 279 325
#
# _framework density 20.084446
#
# number of rings (size 3 to 8) (size 9 to 14) (size 15 to 20)
#    1.333    1.333    0.000    2.667    0.000    5.333 
#   16.000    4.444    0.000    0.000    0.000    0.000 
#    0.000    0.000    0.000    0.000    0.000    0.000 
#
# Total GULP energy -100233.870718 kJ/mol
# GULP energy per Si atom -5568.548373 kJ/mol
# Density = 2.003873 g / cm^3
# Si number density = 20.084446 Si / 1000 Ang^3
#
#
#
# Elastic Constant Matrix: (Units=GPa)
#
#
# Indices 1 2 3 4 5 6 
#
# 1 26.2412 37.5626 -15.4643 0.0000 -5.0456 0.0000
# 2 37.5626 122.7375 -8.9207 0.0000 2.3454 0.0000
# 3 -15.4643 -8.9207 51.2970 0.0000 -14.5842 0.0000
# 4 0.0000 0.0000 0.0000 27.2524 0.0000 -8.8425
# 5 -5.0456 2.3454 -14.5842 0.0000 24.6325 0.0000
# 6 0.0000 0.0000 0.0000 -8.8425 0.0000 22.3237
#
#
#
# Elastic Compliance Matrix: (Units=1/GPa)
#
#
# Indices 1 2 3 4 5 6 
#
# 1 0.138078 -0.039634 0.052722 0.000000 0.063272 0.000000
# 2 -0.039634 0.019629 -0.013677 0.000000 -0.018085 0.000000
# 3 0.052722 -0.013677 0.043828 0.000000 0.038051 0.000000
# 4 0.000000 0.000000 0.000000 0.042105 0.000000 0.016678
# 5 0.063272 -0.018085 0.038051 0.000000 0.077808 0.000000
# 6 0.000000 0.000000 0.000000 0.016678 0.000000 0.051402
#
#
# Mechanical properties :
#
#
# Convention : Reuss Voigt Hill
#
# Bulk Modulus (GPa) = 4.99111 25.18122 15.08617
# Shear Modulus (GPa) = 11.34267 27.31492 19.32879
#
# Velocity S-wave (km/s) = 2.37902 3.69182 3.10558
# Velocity P-wave (km/s) = 3.16809 5.54415 4.51522
#
# Compressibility (1/GPa) = 0.20035608
#
# Stress axis : x y z
#
# Youngs Moduli (GPa) = 7.24231 50.94573 22.81646
#
# Poissons Ratio (x) = 2.01920 -1.20293
# Poissons Ratio (y) = 0.28704 0.31205
# Poissons Ratio (z) = -0.38183 0.69677
#
# Static dielectric constant tensor:
#      x y z
#    x 1.704240 0.000000 0.008000 
#    y 0.000000 1.705930 0.000000 
#    z 0.008000 0.000000 1.764900 
# 
# From -- ./inp_files/235501.got.cif
#   From: 2010.05.17/outbox.cif.g08.bks.cpg/sg15_118_cif.got.tgz:235501.got - 2010.06.03 18:47:42.
