data_PCOD9280817
_publ_section_title
;
Structure prediction by ZEFSAII (Michael W. Deem and Ramdas Pophale) SiO2 
 PCOD9280817
Probable space group: C 2/C
;
_chemical_formula_sum "Si O2"
_cell_formula_units_Z 56
_cell_length_a 8.690665
_cell_length_b 31.253253
_cell_length_c 11.562913
_cell_angle_alpha 90.000000
_cell_angle_beta 123.703285
_cell_angle_gamma 90.000000
_cell_volume 2612.752463
_symmetry_space_group_name_H-M "C 2/C"
_symmetry_group_IT_number 15
_symmetry_cell_setting 'monoclinic'
loop_
_space_group_symop_operation_xyz
x,y,z
-x,y,1/2-z
-x,-y,-z
x,-y,1/2+z
1/2+x,1/2+y,z
1/2-x,1/2+y,1/2-z
1/2-x,1/2-y,-z
1/2+x,1/2-y,1/2+z
loop_
_atom_site_type_symbol
_atom_site_label
_atom_site_fract_x
_atom_site_fract_y
_atom_site_fract_z
Si Si1 0.299519 0.089582 0.676466
Si Si2 0.595060 0.276971 0.500500
Si Si3 0.144138 0.708943 0.200058
Si Si4 0.841959 0.614148 0.280802
Si Si5 0.282117 0.549598 0.631932
Si Si6 0.408041 0.374105 0.032717
Si Si7 0.205905 0.045921 0.395755
O O1 0.500000 0.111058 0.750000
O O2 0.322758 0.056315 0.791556
O O3 0.227507 0.067574 0.529581
O O4 0.124428 0.117398 0.641489
O O5 0.750000 0.250000 0.500000
O O6 0.657881 0.282590 0.658780
O O7 0.414630 0.248396 0.404177
O O8 0.610977 0.324000 0.451801
O O9 0.135059 0.660520 0.148047
O O10 0.000000 0.707616 0.250000
O O11 0.830242 0.574300 0.361053
O O12 0.000000 0.609795 0.250000
O O13 0.655515 0.617899 0.125922
O O14 0.500000 0.545302 0.750000
O O15 0.284560 0.592395 0.554767
O O16 0.233164 0.503312 0.562180
O O17 0.000000 0.047059 0.250000
#
# Coordination Sequence:
#
# PCOD9280817 Si02
#       7
#     8   8   8   8   8   8   8
#     4  11  25  42  59  93 131 167 217 256 319 390
#     4   9  17  32  60  91 122 155 199 263 318 364
#     4   8  16  31  51  89 118 150 197 254 303 367
#     4  10  21  37  64  92 123 164 222 260 312 383
#     4   9  23  39  63  92 123 163 220 267 313 375
#     4  10  21  42  64  94 130 168 210 269 322 379
#     4  11  23  42  66  87 126 180 205 266 325 374
#
# _framework density 21.433335
#
# number of rings (size 3 to 8) (size 9 to 14) (size 15 to 20)
#    0.000    2.286    1.429    0.857    4.000    8.000 
#    2.571    0.000    0.000    1.714    0.000    0.000 
#    0.000    0.000    0.000    0.000    0.000    0.000 
#
# Total GULP energy -156018.735797 kJ/mol
# GULP energy per Si atom -5572.097707 kJ/mol
# Density = 2.138455 g / cm^3
# Si number density = 21.433335 Si / 1000 Ang^3
#
#
#
# Elastic Constant Matrix: (Units=GPa)
#
#
# Indices 1 2 3 4 5 6 
#
# 1 53.1672 41.2158 20.7513 0.0000 6.6092 0.0000
# 2 41.2158 195.8591 54.7254 0.0000 -10.0850 0.0000
# 3 20.7513 54.7254 75.6977 0.0000 4.7145 0.0000
# 4 0.0000 0.0000 0.0000 -7.8198 0.0000 9.8885
# 5 6.6092 -10.0850 4.7145 0.0000 28.3173 0.0000
# 6 0.0000 0.0000 0.0000 9.8885 0.0000 9.2093
#
#
#
# Elastic Compliance Matrix: (Units=1/GPa)
#
#
# Indices 1 2 3 4 5 6 
#
# 1 0.024424 -0.004691 -0.002875 0.000000 -0.006893 0.000000
# 2 -0.004691 0.007577 -0.004474 0.000000 0.004538 0.000000
# 3 -0.002875 -0.004474 0.017472 0.000000 -0.003831 0.000000
# 4 0.000000 0.000000 0.000000 -0.054237 0.000000 0.058237
# 5 -0.006893 0.004538 -0.003831 0.000000 0.039177 0.000000
# 6 0.000000 0.000000 0.000000 0.058237 0.000000 0.046054
#
#
# Mechanical properties :
#
#
# Convention : Reuss Voigt Hill
#
# Bulk Modulus (GPa) = 39.38196 62.01211 50.69703
# Shear Modulus (GPa) = 44.24354 19.81014 32.02684
#
# Velocity S-wave (km/s) = 4.54832 3.04348 3.86975
# Velocity P-wave (km/s) = 6.78211 6.43006 6.60843
#
# Compressibility (1/GPa) = 0.02539234
#
# Stress axis : x y z
#
# Youngs Moduli (GPa) = 40.94286 131.98211 57.23561
#
# Poissons Ratio (x) = 0.61919 0.16453
# Poissons Ratio (y) = 0.19208 0.25608
# Poissons Ratio (z) = 0.11769 0.59051
#
# Static dielectric constant tensor:
#      x y z
#    x 1.839030 0.000000 0.052280 
#    y 0.000000 1.792480 0.000000 
#    z 0.052280 0.000000 1.859930 
# 
# From -- ./inp_files/82688.got.cif
#   From: 2010.05.17/outbox.cif.g08.bks.cpg/sg15_42_cif.got.tgz:82688.got - 2010.06.03 18:47:42.
