data_PCOD9280417
_publ_section_title
;
Structure prediction by ZEFSAII (Michael W. Deem and Ramdas Pophale) SiO2 
 PCOD9280417
Probable space group: C 2/C
;
_chemical_formula_sum "Si O2"
_cell_formula_units_Z 52
_cell_length_a 18.674145
_cell_length_b 22.211381
_cell_length_c 8.592782
_cell_angle_alpha 90.000000
_cell_angle_beta 137.959316
_cell_angle_gamma 90.000000
_cell_volume 2386.729621
_symmetry_space_group_name_H-M "C 2/C"
_symmetry_group_IT_number 15
_symmetry_cell_setting 'monoclinic'
loop_
_space_group_symop_operation_xyz
x,y,z
-x,y,1/2-z
-x,-y,-z
x,-y,1/2+z
1/2+x,1/2+y,z
1/2-x,1/2+y,1/2-z
1/2-x,1/2-y,-z
1/2+x,1/2-y,1/2+z
loop_
_atom_site_type_symbol
_atom_site_label
_atom_site_fract_x
_atom_site_fract_y
_atom_site_fract_z
Si Si1 0.905668 0.714896 0.808072
Si Si2 0.191776 0.186803 0.869422
Si Si3 0.752832 0.944837 0.530988
Si Si4 0.710349 0.932274 0.832217
Si Si5 0.000000 0.229336 0.750000
Si Si6 0.330136 0.671197 0.033472
Si Si7 0.481264 0.913018 0.395406
O O1 0.786534 0.690268 0.586641
O O2 0.910607 0.778296 0.727188
O O3 0.984590 0.660105 0.897585
O O4 0.926138 0.729968 0.020690
O O5 0.178263 0.176151 0.664654
O O6 0.076816 0.190858 0.765717
O O7 0.250000 0.250000 0.000000
O O8 0.255278 0.132134 0.048430
O O9 0.734092 0.935914 0.685244
O O10 0.839893 0.897045 0.609700
O O11 0.639811 0.930388 0.258564
O O12 0.771270 0.014095 0.518320
O O13 0.581968 0.936964 0.653035
O O14 0.500000 0.934594 0.250000
#
# Coordination Sequence:
#
# PCOD9280417 Si02
#       7
#     8   8   8   8   4   8   8
#     4  10  21  37  59  91 129 163 214 262 324 386
#     4  12  25  40  64  93 129 171 217 274 330 388
#     4  10  21  39  63  90 127 174 217 267 325 398
#     4  11  22  40  61  93 132 170 219 267 332 392
#     4  12  24  38  60  96 124 168 212 270 320 394
#     4  10  22  40  63  88 125 171 213 265 329 382
#     4   9  20  33  59  92 127 172 209 261 320 395
#
# _framework density 21.787134999999999
#
# number of rings (size 3 to 8) (size 9 to 14) (size 15 to 20)
#    0.000    1.538    1.538    3.231    8.615    0.000 
#    0.000    0.000    0.000    8.308    0.000    0.000 
#    0.000    0.000    0.000    0.000    0.000    0.000 
#
# Total GULP energy -145216.956092 kJ/mol
# GULP energy per Si atom -5585.267542 kJ/mol
# Density = 2.173755 g / cm^3
# Si number density = 21.787135 Si / 1000 Ang^3
#
#
#
# Elastic Constant Matrix: (Units=GPa)
#
#
# Indices 1 2 3 4 5 6 
#
# 1 62.1559 15.9293 0.9369 0.0000 -12.0093 0.0000
# 2 15.9293 159.3889 34.6262 0.0000 -14.7513 0.0000
# 3 0.9369 34.6262 58.8473 0.0000 -20.8941 0.0000
# 4 0.0000 0.0000 0.0000 35.8529 0.0000 0.3843
# 5 -12.0093 -14.7513 -20.8941 0.0000 32.5902 0.0000
# 6 0.0000 0.0000 0.0000 0.3843 0.0000 24.4773
#
#
#
# Elastic Compliance Matrix: (Units=1/GPa)
#
#
# Indices 1 2 3 4 5 6 
#
# 1 0.018095 -0.001857 0.003720 0.000000 0.008213 0.000000
# 2 -0.001857 0.007396 -0.004372 0.000000 -0.000139 0.000000
# 3 0.003720 -0.004372 0.024976 0.000000 0.015404 0.000000
# 4 0.000000 0.000000 0.000000 0.027896 0.000000 -0.000438
# 5 0.008213 -0.000139 0.015404 0.000000 0.043523 0.000000
# 6 0.000000 0.000000 0.000000 -0.000438 0.000000 0.040861
#
#
# Mechanical properties :
#
#
# Convention : Reuss Voigt Hill
#
# Bulk Modulus (GPa) = 22.00173 42.59742 32.29958
# Shear Modulus (GPa) = 27.33510 33.84408 30.58959
#
# Velocity S-wave (km/s) = 3.54594 3.94559 3.75109
# Velocity P-wave (km/s) = 5.18511 6.35224 5.79812
#
# Compressibility (1/GPa) = 0.04545096
#
# Stress axis : x y z
#
# Youngs Moduli (GPa) = 55.26361 135.20090 40.03867
#
# Poissons Ratio (x) = 0.25101 -0.14896
# Poissons Ratio (y) = 0.10260 0.17505
# Poissons Ratio (z) = -0.20560 0.59109
#
# Static dielectric constant tensor:
#      x y z
#    x 1.801880 0.000000 0.029280 
#    y 0.000000 1.864710 0.000000 
#    z 0.029280 0.000000 1.782610 
# 
# From -- ./inp_files/50713.got.cif
#   From: 2010.05.17/outbox.cif.g08.bks.cpg/sg15_26_cif.got.tgz:50713.got - 2010.06.03 18:47:42.
