data_PCOD9280499
_publ_section_title
;
Structure prediction by ZEFSAII (Michael W. Deem and Ramdas Pophale) SiO2 
 PCOD9280499
Probable space group: C 2/C
;
_chemical_formula_sum "Si O2"
_cell_formula_units_Z 56
_cell_length_a 16.523900
_cell_length_b 13.251586
_cell_length_c 16.814266
_cell_angle_alpha 90.000000
_cell_angle_beta 52.479784
_cell_angle_gamma 90.000000
_cell_volume 2920.164800
_symmetry_space_group_name_H-M "C 2/C"
_symmetry_group_IT_number 15
_symmetry_cell_setting 'monoclinic'
loop_
_space_group_symop_operation_xyz
x,y,z
-x,y,1/2-z
-x,-y,-z
x,-y,1/2+z
1/2+x,1/2+y,z
1/2-x,1/2+y,1/2-z
1/2-x,1/2-y,-z
1/2+x,1/2-y,1/2+z
loop_
_atom_site_type_symbol
_atom_site_label
_atom_site_fract_x
_atom_site_fract_y
_atom_site_fract_z
Si Si1 0.907572 0.261076 0.439635
Si Si2 0.712694 0.937900 0.704070
Si Si3 0.890514 0.448438 0.564291
Si Si4 0.191846 0.645191 0.942119
Si Si5 0.139936 0.220971 0.321544
Si Si6 0.781147 0.339615 0.373477
Si Si7 0.888126 0.727052 0.350536
O O1 0.900916 0.344090 0.512860
O O2 0.873342 0.316419 0.379123
O O3 0.821727 0.179931 0.514934
O O4 0.021591 0.218803 0.368996
O O5 0.647456 0.940302 0.823382
O O6 0.817757 0.883637 0.668042
O O7 0.658580 0.863309 0.674318
O O8 0.719710 0.048756 0.662677
O O9 0.817311 0.525598 0.560777
O O10 0.000000 0.500000 0.500000
O O11 0.158099 0.696031 0.879603
O O12 0.306442 0.682266 0.892315
O O13 0.118026 0.688025 0.055261
O O14 0.204509 0.260027 0.207259
O O15 0.000000 0.751051 0.250000
#
# Coordination Sequence:
#
# PCOD9280499 Si02
#       7
#     8   8   8   8   8   8   8
#     4  11  24  39  67  89 128 168 212 258 325 382
#     4  11  23  39  63  92 127 161 213 265 311 380
#     4  12  20  36  65  93 116 163 208 257 308 372
#     4  10  21  37  60  92 123 154 204 256 311 373
#     4  11  22  40  64  93 124 164 212 265 318 377
#     4  11  23  42  62  93 128 167 208 269 316 380
#     4  10  22  38  61  89 124 161 199 258 318 371
#
# _framework density 19.177
#
# number of rings (size 3 to 8) (size 9 to 14) (size 15 to 20)
#    0.000    1.143    4.286    2.143    0.000    1.714 
#    0.000    0.000    9.429    0.000    0.000    0.000 
#    0.000    0.000    0.000    0.000    0.000    0.000 
#
# Total GULP energy -156428.505616 kJ/mol
# GULP energy per Si atom -5586.732343 kJ/mol
# Density = 1.913335 g / cm^3
# Si number density = 19.177000 Si / 1000 Ang^3
#
#
#
# Elastic Constant Matrix: (Units=GPa)
#
#
# Indices 1 2 3 4 5 6 
#
# 1 76.9851 31.8889 28.5791 0.0000 -10.7450 0.0000
# 2 31.8889 58.0742 24.7269 0.0000 3.4076 0.0000
# 3 28.5791 24.7269 92.4545 0.0000 -6.8479 0.0000
# 4 0.0000 0.0000 0.0000 26.6515 0.0000 4.1449
# 5 -10.7450 3.4076 -6.8479 0.0000 30.0672 0.0000
# 6 0.0000 0.0000 0.0000 4.1449 0.0000 25.6059
#
#
#
# Elastic Compliance Matrix: (Units=1/GPa)
#
#
# Indices 1 2 3 4 5 6 
#
# 1 0.019053 -0.009718 -0.002751 0.000000 0.007284 0.000000
# 2 -0.009718 0.024746 -0.004149 0.000000 -0.007222 0.000000
# 3 -0.002751 -0.004149 0.012957 0.000000 0.002438 0.000000
# 4 0.000000 0.000000 0.000000 0.038490 0.000000 -0.006231
# 5 0.007284 -0.007222 0.002438 0.000000 0.037236 0.000000
# 6 0.000000 0.000000 0.000000 -0.006231 0.000000 0.040062
#
#
# Mechanical properties :
#
#
# Convention : Reuss Voigt Hill
#
# Bulk Modulus (GPa) = 42.51865 44.21152 43.36509
# Shear Modulus (GPa) = 23.40606 25.95285 24.67946
#
# Velocity S-wave (km/s) = 3.49740 3.68276 3.59127
# Velocity P-wave (km/s) = 6.20716 6.41780 6.31336
#
# Compressibility (1/GPa) = 0.02351909
#
# Stress axis : x y z
#
# Youngs Moduli (GPa) = 52.48579 40.41041 77.17966
#
# Poissons Ratio (x) = 0.39271 0.21231
# Poissons Ratio (y) = 0.51006 0.32024
# Poissons Ratio (z) = 0.14438 0.16767
#
# Static dielectric constant tensor:
#      x y z
#    x 1.681710 0.000000 0.002530 
#    y 0.000000 1.657660 0.000000 
#    z 0.002530 0.000000 1.678120 
# 
# From -- ./inp_files/205341.got.cif
#   From: 2010.05.17/outbox.cif.g08.bks.cpg/sg15_103_cif.got.tgz:205341.got - 2010.06.03 18:47:42.
