data_PCOD9280527
_publ_section_title
;
Structure prediction by ZEFSAII (Michael W. Deem and Ramdas Pophale) SiO2 
 PCOD9280527
Probable space group: C 2/C
;
_chemical_formula_sum "Si O2"
_cell_formula_units_Z 60
_cell_length_a 11.471492
_cell_length_b 17.320316
_cell_length_c 24.723980
_cell_angle_alpha 90.000000
_cell_angle_beta 148.207743
_cell_angle_gamma 90.000000
_cell_volume 2588.055668
_symmetry_space_group_name_H-M "C 2/C"
_symmetry_group_IT_number 15
_symmetry_cell_setting 'monoclinic'
loop_
_space_group_symop_operation_xyz
x,y,z
-x,y,1/2-z
-x,-y,-z
x,-y,1/2+z
1/2+x,1/2+y,z
1/2-x,1/2+y,1/2-z
1/2-x,1/2-y,-z
1/2+x,1/2-y,1/2+z
loop_
_atom_site_type_symbol
_atom_site_label
_atom_site_fract_x
_atom_site_fract_y
_atom_site_fract_z
Si Si1 0.718433 0.503521 0.050575
Si Si2 0.892600 0.955864 0.330893
Si Si3 0.391617 0.716702 0.344248
Si Si4 0.000000 0.500459 0.250000
Si Si5 0.965458 0.794128 0.152388
Si Si6 0.317732 0.595736 0.222269
Si Si7 0.246899 0.672020 0.937082
Si Si8 0.472651 0.219855 0.441325
O O1 0.815326 0.417231 0.090241
O O2 0.891307 0.549141 0.157309
O O3 0.500000 0.500000 0.000000
O O4 0.624191 0.527596 0.955030
O O5 0.701142 0.952385 0.301519
O O6 0.806299 0.022422 0.256810
O O7 0.942010 0.880539 0.315410
O O8 0.393972 0.664387 0.291801
O O9 0.515229 0.670160 0.439342
O O10 0.555458 0.787836 0.396410
O O11 0.143351 0.744334 0.255230
O O12 0.985803 0.763810 0.098490
O O13 0.707090 0.787991 0.064389
O O14 0.500000 0.577374 0.250000
O O15 0.114991 0.634859 0.109725
O O16 0.299161 0.727108 0.906340
#
# Coordination Sequence:
#
# PCOD9280527 Si02
#       8
#     8   8   8   4   8   8   8   8
#     4  10  21  37  60  98 126 156 206 269 341 385
#     4  11  23  42  64  96 134 169 219 273 339 396
#     4  10  22  40  65  92 121 167 227 269 319 380
#     4  10  22  38  64  98 126 166 206 272 338 400
#     4  10  23  42  62  95 132 171 211 273 333 406
#     4  11  22  44  65  92 127 178 223 268 322 402
#     4  11  20  39  66  90 123 164 221 275 312 398
#     4  10  22  40  66  92 127 170 217 266 334 397
#
# _framework density 23.183426999999998
#
# number of rings (size 3 to 8) (size 9 to 14) (size 15 to 20)
#    0.000    1.600    2.667    2.400    1.867    1.600 
#    9.600    0.667    0.000    0.000    0.000    0.000 
#    0.000    0.000    0.000    0.000    0.000    0.000 
#
# Total GULP energy -167347.960389 kJ/mol
# GULP energy per Si atom -5578.265346 kJ/mol
# Density = 2.313066 g / cm^3
# Si number density = 23.183427 Si / 1000 Ang^3
#
#
#
# Elastic Constant Matrix: (Units=GPa)
#
#
# Indices 1 2 3 4 5 6 
#
# 1 53.2138 7.9822 12.2513 0.0000 1.0714 0.0000
# 2 7.9822 51.2037 23.5272 0.0001 3.7904 0.0000
# 3 12.2513 23.5272 141.6235 -0.0002 -9.0007 -0.0001
# 4 0.0000 0.0001 -0.0002 2.4371 -0.0002 7.5934
# 5 1.0714 3.7904 -9.0007 -0.0002 29.9108 0.0000
# 6 0.0000 0.0000 -0.0001 7.5934 0.0000 14.4788
#
#
#
# Elastic Compliance Matrix: (Units=1/GPa)
#
#
# Indices 1 2 3 4 5 6 
#
# 1 0.019471 -0.002359 -0.001344 -0.000001 -0.000803 0.000000
# 2 -0.002359 0.021864 -0.003669 0.000001 -0.003790 -0.000001
# 3 -0.001344 -0.003669 0.007972 -0.000001 0.002912 0.000001
# 4 -0.000001 0.000001 -0.000001 -0.647178 -0.000004 0.339410
# 5 -0.000803 -0.003790 0.002912 -0.000004 0.034818 0.000002
# 6 0.000000 -0.000001 0.000001 0.339410 0.000002 -0.108936
#
#
# Mechanical properties :
#
#
# Convention : Reuss Voigt Hill
#
# Bulk Modulus (GPa) = 28.93124 37.06249 32.99686
# Shear Modulus (GPa) = -7.74323 22.85070 7.55373
#
# Velocity S-wave (km/s) = -1.82955 3.14291 1.80702
# Velocity P-wave (km/s) = 2.83609 5.40295 4.31481
#
# Compressibility (1/GPa) = 0.03456471
#
# Stress axis : x y z
#
# Youngs Moduli (GPa) = 51.35732 45.73739 125.44244
#
# Poissons Ratio (x) = 0.10788 0.16854
# Poissons Ratio (y) = 0.12113 0.46025
# Poissons Ratio (z) = 0.06900 0.16781
#
# Static dielectric constant tensor:
#      x y z
#    x 1.934040 0.000000 -0.056780 
#    y 0.000000 1.884710 0.000000 
#    z -0.056780 0.000000 1.992910 
# 
# From -- ./inp_files/293569.got.cif
#   From: 2010.05.17/outbox.cif.g08.bks.cpg/sg15_147_cif.got.tgz:293569.got - 2010.06.03 18:47:42.
