data_PCOD9280085
_publ_section_title
;
Structure prediction by ZEFSAII (Michael W. Deem and Ramdas Pophale) SiO2 
 PCOD9280085
Probable space group: C 2/C
;
_chemical_formula_sum "Si O2"
_cell_formula_units_Z 48
_cell_length_a 15.115458
_cell_length_b 16.340927
_cell_length_c 17.025371
_cell_angle_alpha 90.000000
_cell_angle_beta 147.702876
_cell_angle_gamma 90.000000
_cell_volume 2246.921101
_symmetry_space_group_name_H-M "C 2/C"
_symmetry_group_IT_number 15
_symmetry_cell_setting 'monoclinic'
loop_
_space_group_symop_operation_xyz
x,y,z
-x,y,1/2-z
-x,-y,-z
x,-y,1/2+z
1/2+x,1/2+y,z
1/2-x,1/2+y,1/2-z
1/2-x,1/2-y,-z
1/2+x,1/2-y,1/2+z
loop_
_atom_site_type_symbol
_atom_site_label
_atom_site_fract_x
_atom_site_fract_y
_atom_site_fract_z
Si Si1 0.224380 0.166517 0.244030
Si Si2 0.017820 0.690611 0.353236
Si Si3 0.855285 0.617086 0.580528
Si Si4 0.120722 0.776279 0.010208
Si Si5 0.355848 0.358422 0.191487
Si Si6 0.819231 0.511457 0.402313
O O1 0.376831 0.150700 0.300612
O O2 0.268594 0.239810 0.337239
O O3 0.214227 0.083733 0.285154
O O4 0.048758 0.192255 0.078445
O O5 0.201377 0.677648 0.524948
O O6 0.000000 0.662330 0.250000
O O7 0.955890 0.784659 0.305688
O O8 0.905163 0.696511 0.565016
O O9 0.702861 0.652994 0.518177
O O10 0.829901 0.541256 0.501595
O O11 0.000000 0.597390 0.750000
O O12 0.500000 0.401739 0.250000
O O13 0.271018 0.426103 0.179931
O O14 0.000000 0.500000 0.500000
#
# Coordination Sequence:
#
# PCOD9280085 Si02
#       6
#     8   8   8   8   8   8
#     4  11  22  40  68  96 135 168 212 273 327 398
#     4  11  23  43  69  94 124 175 231 269 315 387
#     4  10  21  39  63  96 134 168 211 264 318 398
#     4  10  21  36  66 100 127 166 218 258 324 390
#     4  11  24  43  69  93 124 170 225 276 321 386
#     4  11  25  42  61  97 138 172 205 269 346 387
#
# _framework density 21.362566000000001
#
# number of rings (size 3 to 8) (size 9 to 14) (size 15 to 20)
#    0.000    1.333    3.333    3.000    4.667    0.667 
#    0.000    0.000    0.000    4.000    0.000    0.000 
#    0.000    0.000    0.000    0.000    0.000    0.000 
#
# Total GULP energy -133918.388790 kJ/mol
# GULP energy per Si atom -5579.932866 kJ/mol
# Density = 2.131394 g / cm^3
# Si number density = 21.362566 Si / 1000 Ang^3
#
#
#
# Elastic Constant Matrix: (Units=GPa)
#
#
# Indices 1 2 3 4 5 6 
#
# 1 80.4447 10.4997 22.5555 -0.0007 8.5886 0.0003
# 2 10.4997 43.2217 34.9932 0.0111 5.3917 0.0024
# 3 22.5555 34.9932 81.6747 0.0164 25.9205 0.0044
# 4 -0.0007 0.0111 0.0164 8.4156 0.0007 5.6967
# 5 8.5886 5.3917 25.9205 0.0007 33.9501 0.0004
# 6 0.0003 0.0024 0.0044 5.6967 0.0004 31.9835
#
#
#
# Elastic Compliance Matrix: (Units=1/GPa)
#
#
# Indices 1 2 3 4 5 6 
#
# 1 0.013498 -0.000578 -0.003201 0.000009 -0.000879 -0.000001
# 2 -0.000578 0.037117 -0.018370 -0.000016 0.008277 0.000002
# 3 -0.003201 -0.018370 0.026152 -0.000028 -0.016240 0.000003
# 4 0.000009 -0.000016 -0.000028 0.135118 0.000019 -0.024066
# 5 -0.000879 0.008277 -0.016240 0.000019 0.040762 -0.000002
# 6 -0.000001 0.000002 0.000003 -0.024066 -0.000002 0.035553
#
#
# Mechanical properties :
#
#
# Convention : Reuss Voigt Hill
#
# Bulk Modulus (GPa) = 30.79807 37.93754 34.36780
# Shear Modulus (GPa) = 14.56372 24.02269 19.29321
#
# Velocity S-wave (km/s) = 2.61385 3.35703 3.00848
# Velocity P-wave (km/s) = 4.85363 5.72919 5.30949
#
# Compressibility (1/GPa) = 0.03246957
#
# Stress axis : x y z
#
# Youngs Moduli (GPa) = 74.08682 26.94191 38.23795
#
# Poissons Ratio (x) = 0.01556 0.12241
# Poissons Ratio (y) = 0.04279 0.70242
# Poissons Ratio (z) = 0.23716 0.49492
#
# Static dielectric constant tensor:
#      x y z
#    x 1.868170 0.000000 -0.009230 
#    y 0.000000 1.775570 0.000000 
#    z -0.009230 0.000000 1.731380 
# 
# From -- ./inp_files/206512.got.cif
#   From: 2010.05.17/outbox.cif.g08.bks.cpg/sg15_104_cif.got.tgz:206512.got - 2010.06.03 18:47:42.
