data_PCOD9280386
_publ_section_title
;
Structure prediction by ZEFSAII (Michael W. Deem and Ramdas Pophale) SiO2 
 PCOD9280386
Probable space group: C 2/C
;
_chemical_formula_sum "Si O2"
_cell_formula_units_Z 48
_cell_length_a 10.508178
_cell_length_b 8.999307
_cell_length_c 21.268249
_cell_angle_alpha 90.000000
_cell_angle_beta 89.121446
_cell_angle_gamma 90.000000
_cell_volume 2011.023597
_symmetry_space_group_name_H-M "C 2/C"
_symmetry_group_IT_number 15
_symmetry_cell_setting 'monoclinic'
loop_
_space_group_symop_operation_xyz
x,y,z
-x,y,1/2-z
-x,-y,-z
x,-y,1/2+z
1/2+x,1/2+y,z
1/2-x,1/2+y,1/2-z
1/2-x,1/2-y,-z
1/2+x,1/2-y,1/2+z
loop_
_atom_site_type_symbol
_atom_site_label
_atom_site_fract_x
_atom_site_fract_y
_atom_site_fract_z
Si Si1 0.339872 0.895089 0.497237
Si Si2 0.116627 0.400102 0.789213
Si Si3 0.314004 0.522184 0.109439
Si Si4 0.727456 0.180136 0.931556
Si Si5 0.348480 0.571371 0.749198
Si Si6 0.495294 0.744270 0.586515
O O1 0.250000 0.750000 0.500000
O O2 0.474696 0.831110 0.520489
O O3 0.310661 0.974844 0.430962
O O4 0.303919 0.012493 0.551775
O O5 0.242910 0.499555 0.795498
O O6 0.062927 0.338665 0.855723
O O7 0.000000 0.470816 0.750000
O O8 0.154331 0.249581 0.751563
O O9 0.355735 0.693521 0.101482
O O10 0.298090 0.481911 0.181606
O O11 0.420856 0.411399 0.082391
O O12 0.863248 0.199266 0.897846
O O13 0.750000 0.250000 0.000000
O O14 0.500000 0.530087 0.750000
#
# Coordination Sequence:
#
# PCOD9280386 Si02
#       6
#     8   8   8   8   8   8
#     4   9  20  37  59  88 121 160 203 248 308 372
#     4  10  22  40  63  89 123 164 212 266 320 380
#     4   9  20  38  58  86 121 157 203 254 309 372
#     4  10  21  37  59  87 120 158 200 249 305 368
#     4  10  22  41  63  91 125 164 214 266 319 379
#     4  10  21  38  59  86 122 163 204 257 319 376
#
# _framework density 23.868442000000002
#
# number of rings (size 3 to 8) (size 9 to 14) (size 15 to 20)
#    0.000    2.333    0.000    1.000    0.000   14.667 
#    0.000   11.667    0.000    0.000    0.000    0.000 
#    0.000    0.000    0.000    0.000    0.000    0.000 
#
# Total GULP energy -133925.681487 kJ/mol
# GULP energy per Si atom -5580.236729 kJ/mol
# Density = 2.381412 g / cm^3
# Si number density = 23.868442 Si / 1000 Ang^3
#
#
#
# Elastic Constant Matrix: (Units=GPa)
#
#
# Indices 1 2 3 4 5 6 
#
# 1 123.6767 49.2440 40.7238 0.0000 2.0477 0.0000
# 2 49.2440 101.4018 25.5803 0.0000 5.2231 0.0000
# 3 40.7238 25.5803 59.4955 0.0000 14.8581 0.0000
# 4 0.0000 0.0000 0.0000 33.4070 0.0000 3.8461
# 5 2.0477 5.2231 14.8581 0.0000 36.0510 0.0000
# 6 0.0000 0.0000 0.0000 3.8461 0.0000 35.5958
#
#
#
# Elastic Compliance Matrix: (Units=1/GPa)
#
#
# Indices 1 2 3 4 5 6 
#
# 1 0.012074 -0.004201 -0.007178 0.000000 0.002881 0.000000
# 2 -0.004201 0.012529 -0.002360 0.000000 -0.000604 0.000000
# 3 -0.007178 -0.002360 0.025136 0.000000 -0.009610 0.000000
# 4 0.000000 0.000000 0.000000 0.030311 0.000000 -0.003275
# 5 0.002881 -0.000604 -0.009610 0.000000 0.031623 0.000000
# 6 0.000000 0.000000 0.000000 -0.003275 0.000000 0.028447
#
#
# Mechanical properties :
#
#
# Convention : Reuss Voigt Hill
#
# Bulk Modulus (GPa) = 44.92364 57.29667 51.11016
# Shear Modulus (GPa) = 28.56854 32.27917 30.42386
#
# Velocity S-wave (km/s) = 3.46340 3.68146 3.57409
# Velocity P-wave (km/s) = 5.90388 6.49062 6.20419
#
# Compressibility (1/GPa) = 0.02225999
#
# Stress axis : x y z
#
# Youngs Moduli (GPa) = 82.82137 79.81775 39.78401
#
# Poissons Ratio (x) = 0.33534 0.28556
# Poissons Ratio (y) = 0.34796 0.09390
# Poissons Ratio (z) = 0.59447 0.18838
#
# Static dielectric constant tensor:
#      x y z
#    x 2.013110 0.000000 -0.022800 
#    y 0.000000 1.974830 0.000000 
#    z -0.022800 0.000000 1.963080 
# 
# From -- ./inp_files/267645.got.cif
#   From: 2010.05.17/outbox.cif.g08.bks.cpg/sg15_134_cif.got.tgz:267645.got - 2010.06.03 18:47:42.
