data_PCOD9280666
_publ_section_title
;
Structure prediction by ZEFSAII (Michael W. Deem and Ramdas Pophale) SiO2 
 PCOD9280666
Probable space group: C 2/C
;
_chemical_formula_sum "Si O2"
_cell_formula_units_Z 60
_cell_length_a 19.238364
_cell_length_b 12.332005
_cell_length_c 11.913752
_cell_angle_alpha 90.000000
_cell_angle_beta 90.612944
_cell_angle_gamma 90.000000
_cell_volume 2826.347343
_symmetry_space_group_name_H-M "C 2/C"
_symmetry_group_IT_number 15
_symmetry_cell_setting 'monoclinic'
loop_
_space_group_symop_operation_xyz
x,y,z
-x,y,1/2-z
-x,-y,-z
x,-y,1/2+z
1/2+x,1/2+y,z
1/2-x,1/2+y,1/2-z
1/2-x,1/2-y,-z
1/2+x,1/2-y,1/2+z
loop_
_atom_site_type_symbol
_atom_site_label
_atom_site_fract_x
_atom_site_fract_y
_atom_site_fract_z
Si Si1 0.865364 0.081924 0.649434
Si Si2 0.232645 0.807614 0.176120
Si Si3 0.651782 0.908663 0.175718
Si Si4 0.020658 0.338626 0.034056
Si Si5 0.248402 0.575829 0.062175
Si Si6 0.060694 0.516220 0.342421
Si Si7 0.460361 0.389508 0.966407
Si Si8 0.500000 0.524049 0.250000
O O1 0.829589 0.156079 0.742332
O O2 0.887552 0.128390 0.527957
O O3 0.816586 0.979183 0.619638
O O4 0.940664 0.049544 0.696102
O O5 0.298418 0.825031 0.259761
O O6 0.228566 0.686164 0.127684
O O7 0.238899 0.887179 0.066784
O O8 0.582835 0.852259 0.125507
O O9 0.690760 0.981517 0.082343
O O10 0.628671 0.991994 0.273200
O O11 0.994847 0.217712 0.014077
O O12 0.959072 0.415962 0.075811
O O13 0.054818 0.380643 0.920452
O O14 0.000000 0.524738 0.250000
O O15 0.456740 0.401622 0.833731
O O16 0.500000 0.500000 0.000000
#
# Coordination Sequence:
#
# PCOD9280666 Si02
#       8
#     8   8   8   8   8   8   8   4
#     4  10  22  42  61  92 126 162 212 261 317 379
#     4  10  22  40  63  87 123 169 207 264 323 379
#     4  10  21  37  62  90 120 163 209 262 319 374
#     4  10  21  38  61  92 125 161 217 255 316 380
#     4  10  22  40  61  90 125 163 215 261 321 387
#     4   9  20  38  60  90 125 164 206 264 312 373
#     4  10  23  39  60  92 125 164 204 256 311 376
#     4  10  22  40  64  86 130 164 206 260 314 384
#
# _framework density 21.228812999999999
#
# number of rings (size 3 to 8) (size 9 to 14) (size 15 to 20)
#    0.000    2.133    0.000    1.600    6.533    1.067 
#    4.800   10.667    0.000    0.000    0.000    0.000 
#    0.000    0.000    0.000    0.000    0.000    0.000 
#
# Total GULP energy -167198.100625 kJ/mol
# GULP energy per Si atom -5573.270021 kJ/mol
# Density = 2.118050 g / cm^3
# Si number density = 21.228813 Si / 1000 Ang^3
#
#
#
# Elastic Constant Matrix: (Units=GPa)
#
#
# Indices 1 2 3 4 5 6 
#
# 1 52.2947 -48.5826 15.3718 0.0000 15.3300 0.0000
# 2 -48.5826 -180.1102 15.3458 0.0000 152.3683 0.0000
# 3 15.3718 15.3458 97.4905 0.0000 -33.7824 0.0000
# 4 0.0000 0.0000 0.0000 17.5356 0.0000 -0.2038
# 5 15.3300 152.3683 -33.7824 0.0000 -51.0510 0.0000
# 6 0.0000 0.0000 0.0000 -0.2038 0.0000 14.1570
#
#
#
# Elastic Compliance Matrix: (Units=1/GPa)
#
#
# Indices 1 2 3 4 5 6 
#
# 1 0.017647 -0.000074 -0.000823 0.000000 0.005622 0.000000
# 2 -0.000074 0.004680 0.003341 0.000000 0.011735 0.000000
# 3 -0.000823 0.003341 0.010763 0.000000 0.002603 0.000000
# 4 0.000000 0.000000 0.000000 0.057036 0.000000 0.000821
# 5 0.005622 0.011735 0.002603 0.000000 0.015402 0.000000
# 6 0.000000 0.000000 0.000000 0.000821 0.000000 0.070648
#
#
# Mechanical properties :
#
#
# Convention : Reuss Voigt Hill
#
# Bulk Modulus (GPa) = 26.33005 -7.33946 9.49529
# Shear Modulus (GPa) = 27.18153 -4.70234 11.23959
#
# Velocity S-wave (km/s) = 3.58216 -1.48993 2.30347
# Velocity P-wave (km/s) = 5.43499 2.53469 3.39959
#
# Compressibility (1/GPa) = 0.03797941
#
# Stress axis : x y z
#
# Youngs Moduli (GPa) = 56.66629 213.66671 92.90808
#
# Poissons Ratio (x) = 0.01589 0.07644
# Poissons Ratio (y) = 0.00421 -0.31045
# Poissons Ratio (z) = 0.04662 -0.71396
#
# Static dielectric constant tensor:
#      x y z
#    x 1.768920 0.000000 -0.020590 
#    y 0.000000 1.871610 0.000000 
#    z -0.020590 0.000000 1.892030 
# 
# From -- ./inp_files/111645.got.cif
#   From: 2010.05.17/outbox.cif.g08.bks.cpg/sg15_56_cif.got.tgz:111645.got - 2010.06.03 18:47:42.
