data_PCOD9280554
_publ_section_title
;
Structure prediction by ZEFSAII (Michael W. Deem and Ramdas Pophale) SiO2 
 PCOD9280554
Probable space group: C 2/C
;
_chemical_formula_sum "Si O2"
_cell_formula_units_Z 40
_cell_length_a 14.679205
_cell_length_b 8.036722
_cell_length_c 29.878397
_cell_angle_alpha 90.000000
_cell_angle_beta 149.252230
_cell_angle_gamma 90.000000
_cell_volume 1802.105791
_symmetry_space_group_name_H-M "C 2/C"
_symmetry_group_IT_number 15
_symmetry_cell_setting 'monoclinic'
loop_
_space_group_symop_operation_xyz
x,y,z
-x,y,1/2-z
-x,-y,-z
x,-y,1/2+z
1/2+x,1/2+y,z
1/2-x,1/2+y,1/2-z
1/2-x,1/2-y,-z
1/2+x,1/2-y,1/2+z
loop_
_atom_site_type_symbol
_atom_site_label
_atom_site_fract_x
_atom_site_fract_y
_atom_site_fract_z
Si Si1 0.583011 0.197571 0.831486
Si Si2 0.441849 0.288566 0.295433
Si Si3 0.253860 0.844809 0.627637
Si Si4 0.567719 0.862656 0.493978
Si Si5 0.885675 0.519391 0.826701
O O1 0.500000 0.262900 0.750000
O O2 0.441409 0.135084 0.808267
O O3 0.688603 0.027889 0.862462
O O4 0.725903 0.321254 0.913321
O O5 0.641954 0.284124 0.361343
O O6 0.333892 0.192223 0.210466
O O7 0.324611 0.452522 0.252934
O O8 0.430478 0.169540 0.333384
O O9 0.047894 0.801763 0.543070
O O10 0.503842 0.921593 0.418312
O O11 0.500000 0.000000 0.500000
#
# Coordination Sequence:
#
# PCOD9280554 Si02
#       5
#     8   8   8   8   8
#     4  11  21  41  63  85 116 166 209 236 289 361
#     4   9  18  35  61  88 111 156 194 247 283 355
#     4   9  18  41  61  80 116 158 203 231 291 361
#     4  11  25  38  58  93 128 151 190 258 305 343
#     4  10  21  37  61  87 123 151 203 240 301 346
#
# _framework density 22.196254
#
# number of rings (size 3 to 8) (size 9 to 14) (size 15 to 20)
#    0.000    2.000    4.000    1.200    2.800    1.600 
#    3.600    4.000    0.000    0.000    0.000    0.000 
#    0.000    0.000    0.000    0.000    0.000    0.000 
#
# Total GULP energy -111730.294658 kJ/mol
# GULP energy per Si atom -5586.514733 kJ/mol
# Density = 2.214573 g / cm^3
# Si number density = 22.196254 Si / 1000 Ang^3
#
#
#
# Elastic Constant Matrix: (Units=GPa)
#
#
# Indices 1 2 3 4 5 6 
#
# 1 69.6701 -2.1762 31.6790 0.0000 -19.8439 0.0000
# 2 -2.1762 37.2342 0.5378 0.0000 -9.0144 0.0000
# 3 31.6790 0.5378 82.4307 0.0002 5.1436 0.0000
# 4 0.0000 0.0000 0.0002 14.8825 0.0000 7.6380
# 5 -19.8439 -9.0144 5.1436 0.0000 29.4626 0.0000
# 6 0.0000 0.0000 0.0000 7.6380 0.0000 23.1870
#
#
#
# Elastic Compliance Matrix: (Units=1/GPa)
#
#
# Indices 1 2 3 4 5 6 
#
# 1 0.025826 0.006871 -0.011310 0.000000 0.021471 0.000000
# 2 0.006871 0.030880 -0.003761 0.000000 0.014732 0.000000
# 3 -0.011310 -0.003761 0.017237 0.000000 -0.011778 0.000000
# 4 0.000000 0.000000 0.000000 0.080864 0.000000 -0.026637
# 5 0.021471 0.014732 -0.011778 0.000000 0.054967 0.000000
# 6 0.000000 0.000000 0.000000 -0.026637 0.000000 0.051902
#
#
# Mechanical properties :
#
#
# Convention : Reuss Voigt Hill
#
# Bulk Modulus (GPa) = 17.37838 27.71291 22.54564
# Shear Modulus (GPa) = 16.82043 24.12604 20.47324
#
# Velocity S-wave (km/s) = 2.75581 3.30046 3.04036
# Velocity P-wave (km/s) = 4.23939 5.19967 4.74389
#
# Compressibility (1/GPa) = 0.05754277
#
# Stress axis : x y z
#
# Youngs Moduli (GPa) = 38.72030 32.38374 58.01337
#
# Poissons Ratio (x) = -0.22251 0.65613
# Poissons Ratio (y) = -0.26605 0.21821
# Poissons Ratio (z) = 0.43792 0.12181
#
# Static dielectric constant tensor:
#      x y z
#    x 1.819540 0.000000 0.020770 
#    y 0.000000 1.850270 0.000000 
#    z 0.020770 0.000000 1.796610 
# 
# From -- ./inp_files/150535.got.cif
#   From: 2010.05.17/outbox.cif.g08.bks.cpg/sg15_76_cif.got.tgz:150535.got - 2010.06.03 18:47:42.
