data_PCOD9280717
_publ_section_title
;
Structure prediction by ZEFSAII (Michael W. Deem and Ramdas Pophale) SiO2 
 PCOD9280717
Probable space group: C 2/C
;
_chemical_formula_sum "Si O2"
_cell_formula_units_Z 24
_cell_length_a 8.823221
_cell_length_b 5.516145
_cell_length_c 18.216310
_cell_angle_alpha 90.000000
_cell_angle_beta 86.897080
_cell_angle_gamma 90.000000
_cell_volume 885.291020
_symmetry_space_group_name_H-M "C 2/C"
_symmetry_group_IT_number 15
_symmetry_cell_setting 'monoclinic'
loop_
_space_group_symop_operation_xyz
x,y,z
-x,y,1/2-z
-x,-y,-z
x,-y,1/2+z
1/2+x,1/2+y,z
1/2-x,1/2+y,1/2-z
1/2-x,1/2-y,-z
1/2+x,1/2-y,1/2+z
loop_
_atom_site_type_symbol
_atom_site_label
_atom_site_fract_x
_atom_site_fract_y
_atom_site_fract_z
Si Si1 0.382128 0.163626 0.050499
Si Si2 0.181491 0.782545 0.083382
Si Si3 0.824382 0.494958 0.774730
O O1 0.503225 0.351567 0.081411
O O2 0.232823 0.765437 0.254586
O O3 0.293106 0.992150 0.109373
O O4 0.250000 0.250000 0.000000
O O5 0.187056 0.553889 0.136760
O O6 0.250000 0.750000 0.000000
O O7 0.000000 0.500000 0.000000
O O8 0.000000 0.530276 0.750000
#
# Coordination Sequence:
#
# PCOD9280717 Si02
#       3
#     8   8   8
#     4  10  21  37  62  97 134 172 226 294 353 411
#     4  10  23  43  71 104 140 189 245 302 361 437
#     4  12  28  50  75 109 153 199 246 306 378 448
#
# _framework density 27.109729000000002
#
# number of rings (size 3 to 8) (size 9 to 14) (size 15 to 20)
#    0.000    1.333    0.000    4.000    0.000   16.000 
#    0.000    0.000    0.000    0.000    0.000    0.000 
#    0.000    0.000    0.000    0.000    0.000    0.000 
#
# Total GULP energy -67113.685762 kJ/mol
# GULP energy per Si atom -5592.807147 kJ/mol
# Density = 2.704803 g / cm^3
# Si number density = 27.109729 Si / 1000 Ang^3
#
#
#
# Elastic Constant Matrix: (Units=GPa)
#
#
# Indices 1 2 3 4 5 6 
#
# 1 234.4117 44.7938 20.9736 0.0000 33.0375 0.0000
# 2 44.7938 107.3039 29.2740 0.0000 7.8112 0.0000
# 3 20.9736 29.2740 129.6890 0.0000 -12.3211 0.0000
# 4 0.0000 0.0000 0.0000 62.8968 0.0000 7.2931
# 5 33.0375 7.8112 -12.3211 0.0000 47.0047 0.0000
# 6 0.0000 0.0000 0.0000 7.2931 0.0000 65.1763
#
#
#
# Elastic Compliance Matrix: (Units=1/GPa)
#
#
# Indices 1 2 3 4 5 6 
#
# 1 0.005159 -0.001678 -0.000793 0.000000 -0.003555 0.000000
# 2 -0.001678 0.010724 -0.002263 0.000000 -0.001196 0.000000
# 3 -0.000793 -0.002263 0.008654 0.000000 0.003202 0.000000
# 4 0.000000 0.000000 0.000000 0.016108 0.000000 -0.001802
# 5 -0.003555 -0.001196 0.003202 0.000000 0.024811 0.000000
# 6 0.000000 0.000000 0.000000 -0.001802 0.000000 0.015545
#
#
# Mechanical properties :
#
#
# Convention : Reuss Voigt Hill
#
# Bulk Modulus (GPa) = 66.36476 73.49858 69.93167
# Shear Modulus (GPa) = 52.36022 60.10643 56.23333
#
# Velocity S-wave (km/s) = 4.39956 4.71377 4.55937
# Velocity P-wave (km/s) = 7.09516 7.53635 7.31908
#
# Compressibility (1/GPa) = 0.01506824
#
# Stress axis : x y z
#
# Youngs Moduli (GPa) = 193.84781 93.24589 115.55322
#
# Poissons Ratio (x) = 0.15650 0.09165
# Poissons Ratio (y) = 0.32534 0.26149
# Poissons Ratio (z) = 0.15375 0.21101
#
# Static dielectric constant tensor:
#      x y z
#    x 2.102100 0.000000 0.098970 
#    y 0.000000 2.652250 0.000000 
#    z 0.098970 0.000000 2.332180 
# 
# From -- ./inp_files/187041.got.cif
#   From: 2010.05.17/outbox.cif.g08.bks.cpg/sg15_94_cif.got.tgz:187041.got - 2010.06.03 18:47:42.
