data_PCOD9280857
_publ_section_title
;
Structure prediction by ZEFSAII (Michael W. Deem and Ramdas Pophale) SiO2 
 PCOD9280857
Probable space group: C 2/C
;
_chemical_formula_sum "Si O2"
_cell_formula_units_Z 56
_cell_length_a 16.390156
_cell_length_b 13.062754
_cell_length_c 14.264485
_cell_angle_alpha 90.000000
_cell_angle_beta 71.532864
_cell_angle_gamma 90.000000
_cell_volume 2896.768477
_symmetry_space_group_name_H-M "C 2/C"
_symmetry_group_IT_number 15
_symmetry_cell_setting 'monoclinic'
loop_
_space_group_symop_operation_xyz
x,y,z
-x,y,1/2-z
-x,-y,-z
x,-y,1/2+z
1/2+x,1/2+y,z
1/2-x,1/2+y,1/2-z
1/2-x,1/2-y,-z
1/2+x,1/2-y,1/2+z
loop_
_atom_site_type_symbol
_atom_site_label
_atom_site_fract_x
_atom_site_fract_y
_atom_site_fract_z
Si Si1 0.693311 0.850933 0.514795
Si Si2 0.267644 0.968279 0.357988
Si Si3 0.664606 0.819285 0.025605
Si Si4 0.227362 0.518885 0.358276
Si Si5 0.919184 0.000528 0.347614
Si Si6 0.415461 0.632393 0.526315
Si Si7 0.541041 0.277838 0.137417
O O1 0.750000 0.750000 0.500000
O O2 0.700914 0.911632 0.415241
O O3 0.597508 0.811581 0.572305
O O4 0.728935 0.932636 0.576888
O O5 0.334693 0.889350 0.382070
O O6 0.284605 0.005787 0.247412
O O7 0.175012 0.911510 0.400051
O O8 0.593291 0.734881 0.033620
O O9 0.673944 0.893851 0.932323
O O10 0.750000 0.750000 0.000000
O O11 0.327778 0.543727 0.345385
O O12 0.942054 0.046338 0.441135
O O13 0.000000 0.018519 0.250000
O O14 0.903292 0.878605 0.357405
O O15 0.472997 0.670721 0.591247
O O16 0.500000 0.242222 0.250000
#
# Coordination Sequence:
#
# PCOD9280857 Si02
#       7
#     8   8   8   8   8   8   8
#     4  11  22  40  61  94 125 157 214 253 301 383
#     4  10  21  37  65  88 124 161 205 260 303 366
#     4   9  19  38  61  85 117 162 206 247 299 372
#     4  11  21  39  62  93 120 160 206 255 305 368
#     4  11  21  38  59  93 127 154 201 257 320 367
#     4  11  21  42  61  88 126 164 203 260 313 370
#     4  11  24  38  63  93 126 162 202 254 323 370
#
# _framework density 19.331886000000001
#
# number of rings (size 3 to 8) (size 9 to 14) (size 15 to 20)
#    0.000    1.429    5.714    2.143    2.000    2.286 
#    2.571    2.857    0.000    0.000    0.000    0.000 
#    0.000    0.000    0.000    0.000    0.000    0.000 
#
# Total GULP energy -156111.208031 kJ/mol
# GULP energy per Si atom -5575.400287 kJ/mol
# Density = 1.928789 g / cm^3
# Si number density = 19.331886 Si / 1000 Ang^3
#
#
#
# Elastic Constant Matrix: (Units=GPa)
#
#
# Indices 1 2 3 4 5 6 
#
# 1 46.4086 9.3360 19.3738 0.0000 3.4548 0.0000
# 2 9.3360 73.9783 3.0263 0.0000 0.3535 0.0000
# 3 19.3738 3.0263 89.0463 0.0000 17.4537 0.0000
# 4 0.0000 0.0000 0.0000 17.7401 0.0000 -1.4078
# 5 3.4548 0.3535 17.4537 0.0000 30.0587 0.0000
# 6 0.0000 0.0000 0.0000 -1.4078 0.0000 25.0061
#
#
#
# Elastic Compliance Matrix: (Units=1/GPa)
#
#
# Indices 1 2 3 4 5 6 
#
# 1 0.024289 -0.002852 -0.005244 0.000000 0.000287 0.000000
# 2 -0.002852 0.013872 0.000132 0.000000 0.000088 0.000000
# 3 -0.005244 0.000132 0.013822 0.000000 -0.007425 0.000000
# 4 0.000000 0.000000 0.000000 0.056622 0.000000 0.003188
# 5 0.000287 0.000088 -0.007425 0.000000 0.037545 0.000000
# 6 0.000000 0.000000 0.000000 0.003188 0.000000 0.040170
#
#
# Mechanical properties :
#
#
# Convention : Reuss Voigt Hill
#
# Bulk Modulus (GPa) = 27.73595 30.32281 29.02938
# Shear Modulus (GPa) = 23.33543 26.40747 24.87145
#
# Velocity S-wave (km/s) = 3.47810 3.69996 3.59074
# Velocity P-wave (km/s) = 5.52340 5.82858 5.67804
#
# Compressibility (1/GPa) = 0.03605430
#
# Stress axis : x y z
#
# Youngs Moduli (GPa) = 41.17047 72.08972 72.34945
#
# Poissons Ratio (x) = 0.20561 0.37939
# Poissons Ratio (y) = 0.11742 -0.00954
# Poissons Ratio (z) = 0.21589 -0.00950
#
# Static dielectric constant tensor:
#      x y z
#    x 1.479820 0.000000 0.043800 
#    y 0.000000 1.680270 0.000000 
#    z 0.043800 0.000000 1.669630 
# 
# From -- ./inp_files/160850.got.cif
#   From: 2010.05.17/outbox.cif.g08.bks.cpg/sg15_81_cif.got.tgz:160850.got - 2010.06.03 18:47:42.
