data_PCOD9280364
_publ_section_title
;
Structure prediction by ZEFSAII (Michael W. Deem and Ramdas Pophale) SiO2 
 PCOD9280364
Probable space group: C 2/C
;
_chemical_formula_sum "Si O2"
_cell_formula_units_Z 48
_cell_length_a 14.519904
_cell_length_b 33.303849
_cell_length_c 14.887723
_cell_angle_alpha 90.000000
_cell_angle_beta 160.624915
_cell_angle_gamma 90.000000
_cell_volume 2388.353556
_symmetry_space_group_name_H-M "C 2/C"
_symmetry_group_IT_number 15
_symmetry_cell_setting 'monoclinic'
loop_
_space_group_symop_operation_xyz
x,y,z
-x,y,1/2-z
-x,-y,-z
x,-y,1/2+z
1/2+x,1/2+y,z
1/2-x,1/2+y,1/2-z
1/2-x,1/2-y,-z
1/2+x,1/2-y,1/2+z
loop_
_atom_site_type_symbol
_atom_site_label
_atom_site_fract_x
_atom_site_fract_y
_atom_site_fract_z
Si Si1 0.877358 0.044322 0.887390
Si Si2 0.000000 0.377210 0.250000
Si Si3 0.797350 0.776557 0.736263
Si Si4 0.955337 0.349664 0.892526
Si Si5 0.183713 0.580425 0.096385
Si Si6 0.000000 0.822421 0.750000
Si Si7 0.021616 0.888034 0.374907
O O1 0.012370 0.064983 0.099971
O O2 0.975010 0.072087 0.893153
O O3 0.546361 0.047692 0.586723
O O4 0.000000 0.000000 0.000000
O O5 0.108664 0.405202 0.429276
O O6 0.269768 0.348651 0.484269
O O7 0.599043 0.738089 0.544416
O O8 0.655313 0.807196 0.675155
O O9 0.835997 0.796882 0.673860
O O10 0.804350 0.366810 0.665352
O O11 0.281041 0.356271 0.179588
O O12 0.866667 0.380640 0.888828
O O13 0.000000 0.897438 0.250000
#
# Coordination Sequence:
#
# PCOD9280364 Si02
#       7
#     8   4   8   8   8   4   8
#     4  10  21  39  61  87 126 154 193 244 315 353
#     4  12  22  37  60  88 124 160 218 240 280 356
#     4  12  24  39  59  89 125 160 200 248 311 366
#     4  10  21  39  62  84 116 156 201 243 302 354
#     4  10  21  37  59  85 114 167 197 240 283 357
#     4  12  24  37  60  86 128 166 206 252 288 356
#     4  10  21  39  65  90 112 152 207 252 293 360
#
# _framework density 20.097526999999999
#
# number of rings (size 3 to 8) (size 9 to 14) (size 15 to 20)
#    0.000    1.333    1.667    4.500    4.667    0.000 
#    3.000    0.000    0.000   10.000    0.000    0.000 
#    0.000    0.000    0.000    0.000    0.000    0.000 
#
# Total GULP energy -134032.095459 kJ/mol
# GULP energy per Si atom -5584.670644 kJ/mol
# Density = 2.005178 g / cm^3
# Si number density = 20.097527 Si / 1000 Ang^3
#
#
#
# Elastic Constant Matrix: (Units=GPa)
#
#
# Indices 1 2 3 4 5 6 
#
# 1 73.7563 34.6369 15.1847 0.0000 -23.8774 0.0003
# 2 34.6369 71.9013 6.5454 0.0001 -1.8687 -0.0001
# 3 15.1847 6.5454 69.7695 0.0021 -13.3246 -0.0023
# 4 0.0000 0.0001 0.0021 15.9392 -0.0007 2.3470
# 5 -23.8774 -1.8687 -13.3246 -0.0007 41.6771 -0.0001
# 6 0.0003 -0.0001 -0.0023 2.3470 -0.0001 11.7311
#
#
#
# Elastic Compliance Matrix: (Units=1/GPa)
#
#
# Indices 1 2 3 4 5 6 
#
# 1 0.022708 -0.010475 -0.001666 0.000001 0.012007 -0.000001
# 2 -0.010475 0.018862 -0.000505 0.000000 -0.005317 0.000000
# 3 -0.001666 -0.000505 0.015503 -0.000002 0.003979 0.000004
# 4 0.000001 0.000000 -0.000002 0.064643 0.000001 -0.012933
# 5 0.012007 -0.005317 0.003979 0.000001 0.031907 0.000001
# 6 -0.000001 0.000000 0.000004 -0.012933 0.000001 0.087831
#
#
# Mechanical properties :
#
#
# Convention : Reuss Voigt Hill
#
# Bulk Modulus (GPa) = 31.46709 36.46237 33.96473
# Shear Modulus (GPa) = 18.02846 24.47346 21.25096
#
# Velocity S-wave (km/s) = 2.99833 3.49339 3.25528
# Velocity P-wave (km/s) = 5.26097 5.86974 5.57367
#
# Compressibility (1/GPa) = 0.03177923
#
# Stress axis : x y z
#
# Youngs Moduli (GPa) = 44.03819 53.01693 64.50409
#
# Poissons Ratio (x) = 0.55536 0.10748
# Poissons Ratio (y) = 0.46131 0.03259
# Poissons Ratio (z) = 0.07338 0.02678
#
# Static dielectric constant tensor:
#      x y z
#    x 1.723640 0.000000 -0.010040 
#    y 0.000000 1.714280 0.000000 
#    z -0.010040 0.000000 1.753810 
# 
# From -- ./inp_files/157671.got.cif
#   From: 2010.05.17/outbox.cif.g08.bks.cpg/sg15_79_cif.got.tgz:157671.got - 2010.06.03 18:47:42.
