data_PCOD9280653
_publ_section_title
;
Structure prediction by ZEFSAII (Michael W. Deem and Ramdas Pophale) SiO2 
 PCOD9280653
Probable space group: C 2/C
;
_chemical_formula_sum "Si O2"
_cell_formula_units_Z 56
_cell_length_a 25.056187
_cell_length_b 6.137661
_cell_length_c 26.899419
_cell_angle_alpha 90.000000
_cell_angle_beta 137.345841
_cell_angle_gamma 90.000000
_cell_volume 2802.953461
_symmetry_space_group_name_H-M "C 2/C"
_symmetry_group_IT_number 15
_symmetry_cell_setting 'monoclinic'
loop_
_space_group_symop_operation_xyz
x,y,z
-x,y,1/2-z
-x,-y,-z
x,-y,1/2+z
1/2+x,1/2+y,z
1/2-x,1/2+y,1/2-z
1/2-x,1/2-y,-z
1/2+x,1/2-y,1/2+z
loop_
_atom_site_type_symbol
_atom_site_label
_atom_site_fract_x
_atom_site_fract_y
_atom_site_fract_z
Si Si1 0.685765 0.940629 0.460989
Si Si2 0.567874 0.633653 0.417335
Si Si3 0.935103 0.175243 0.828430
Si Si4 0.522071 0.051721 0.571299
Si Si5 0.791132 0.433481 0.703151
Si Si6 0.214759 0.172758 0.048047
Si Si7 0.326968 0.299230 0.793886
O O1 0.750000 0.750000 0.500000
O O2 0.602575 0.819425 0.405143
O O3 0.709057 0.102650 0.432673
O O4 0.695220 0.081186 0.517953
O O5 0.499281 0.483027 0.347967
O O6 0.640385 0.478492 0.482607
O O7 0.531426 0.761975 0.439681
O O8 0.981052 0.334661 0.897398
O O9 0.876765 0.323242 0.756050
O O10 0.876546 0.016042 0.818166
O O11 0.500000 0.000000 0.500000
O O12 0.611998 0.134870 0.637776
O O13 0.737560 0.373846 0.619994
O O14 0.746620 0.344070 0.721553
O O15 0.803213 0.687060 0.725381
#
# Coordination Sequence:
#
# PCOD9280653 Si02
#       7
#     8   8   8   8   8   8   8
#     4   9  20  41  61  95 117 153 204 272 316 373
#     4  10  21  37  62  87 123 159 202 263 318 368
#     4  10  22  39  55  83 127 166 203 253 307 372
#     4  10  23  35  56  88 122 160 209 249 312 374
#     4  11  22  38  59  88 124 168 204 249 314 377
#     4  10  22  37  69  91 122 156 215 264 321 375
#     4  10  22  36  55  82 126 165 199 249 298 379
#
# _framework density 19.978926999999999
#
# number of rings (size 3 to 8) (size 9 to 14) (size 15 to 20)
#    0.000    2.000    1.429    0.857    6.000    3.429 
#    0.000    0.000    0.000   49.714    0.000    0.000 
#    0.000    0.000    0.000    0.000    0.000    0.000 
#
# Total GULP energy -156135.462559 kJ/mol
# GULP energy per Si atom -5576.266520 kJ/mol
# Density = 1.993345 g / cm^3
# Si number density = 19.978927 Si / 1000 Ang^3
#
#
#
# Elastic Constant Matrix: (Units=GPa)
#
#
# Indices 1 2 3 4 5 6 
#
# 1 54.3355 18.2585 21.1158 0.0029 22.5067 0.0007
# 2 18.2585 85.8786 22.6941 0.0034 4.2796 0.0013
# 3 21.1158 22.6941 47.3367 0.0004 10.0723 0.0006
# 4 0.0029 0.0034 0.0004 20.3059 0.0001 21.5758
# 5 22.5067 4.2796 10.0723 0.0001 25.7618 0.0006
# 6 0.0007 0.0013 0.0006 21.5758 0.0006 41.7359
#
#
#
# Elastic Compliance Matrix: (Units=1/GPa)
#
#
# Indices 1 2 3 4 5 6 
#
# 1 0.033111 -0.003777 -0.007567 -0.000009 -0.025341 0.000005
# 2 -0.003777 0.013767 -0.005596 -0.000003 0.003201 0.000001
# 3 -0.007567 -0.005596 0.027900 0.000003 -0.003368 -0.000002
# 4 -0.000009 -0.000003 0.000003 0.109266 0.000008 -0.056486
# 5 -0.025341 0.003201 -0.003368 0.000008 0.061741 -0.000005
# 6 0.000005 0.000001 -0.000002 -0.056486 -0.000005 0.053161
#
#
# Mechanical properties :
#
#
# Convention : Reuss Voigt Hill
#
# Bulk Modulus (GPa) = 24.45170 34.63196 29.54183
# Shear Modulus (GPa) = 14.43173 25.92622 20.17897
#
# Velocity S-wave (km/s) = 2.69057 3.60624 3.18152
# Velocity P-wave (km/s) = 4.68162 5.89167 5.32115
#
# Compressibility (1/GPa) = 0.04089695
#
# Stress axis : x y z
#
# Youngs Moduli (GPa) = 30.20162 72.63884 35.84190
#
# Poissons Ratio (x) = 0.27437 0.27122
# Poissons Ratio (y) = 0.11408 0.20058
# Poissons Ratio (z) = 0.22854 0.40650
#
# Static dielectric constant tensor:
#      x y z
#    x 1.718630 0.000000 0.027630 
#    y 0.000000 1.781580 0.000000 
#    z 0.027630 0.000000 1.677260 
# 
# From -- ./inp_files/319189.got.cif
#   From: 2010.05.17/outbox.cif.g08.bks.cpg/sg15_160_cif.got.tgz:319189.got - 2010.06.03 18:47:42.
