data_PCOD9280591
_publ_section_title
;
Structure prediction by ZEFSAII (Michael W. Deem and Ramdas Pophale) SiO2 
 PCOD9280591
Probable space group: C 2/C
;
_chemical_formula_sum "Si O2"
_cell_formula_units_Z 64
_cell_length_a 8.959341
_cell_length_b 15.559944
_cell_length_c 22.858691
_cell_angle_alpha 90.000000
_cell_angle_beta 80.287587
_cell_angle_gamma 90.000000
_cell_volume 3140.983426
_symmetry_space_group_name_H-M "C 2/C"
_symmetry_group_IT_number 15
_symmetry_cell_setting 'monoclinic'
loop_
_space_group_symop_operation_xyz
x,y,z
-x,y,1/2-z
-x,-y,-z
x,-y,1/2+z
1/2+x,1/2+y,z
1/2-x,1/2+y,1/2-z
1/2-x,1/2-y,-z
1/2+x,1/2-y,1/2+z
loop_
_atom_site_type_symbol
_atom_site_label
_atom_site_fract_x
_atom_site_fract_y
_atom_site_fract_z
Si Si1 0.615297 0.365274 0.378351
Si Si2 0.892658 0.584010 0.511973
Si Si3 0.522506 0.637314 0.375373
Si Si4 0.595800 0.952241 0.363014
Si Si5 0.089215 0.978091 0.184736
Si Si6 0.789165 0.542048 0.397628
Si Si7 0.573991 0.801442 0.183699
Si Si8 0.428482 0.265574 0.999793
O O1 0.488889 0.395922 0.340858
O O2 0.699785 0.451937 0.396485
O O3 0.746631 0.312640 0.335779
O O4 0.557189 0.312721 0.438444
O O5 0.825113 0.567635 0.580112
O O6 0.782648 0.576128 0.464405
O O7 0.000000 0.500000 0.500000
O O8 0.983750 0.673954 0.504637
O O9 0.428709 0.554162 0.361503
O O10 0.697799 0.608697 0.364065
O O11 0.480602 0.708455 0.331243
O O12 0.483120 0.675858 0.441762
O O13 0.734836 0.967331 0.311215
O O14 0.501294 0.867500 0.356233
O O15 0.466617 0.025637 0.372524
O O16 0.000000 0.998842 0.250000
O O17 0.500000 0.824721 0.250000
O O18 0.250000 0.250000 0.000000
#
# Coordination Sequence:
#
# PCOD9280591 Si02
#       8
#     8   8   8   8   8   8   8   8
#     4  10  23  41  63  94 128 166 214 265 324 383
#     4  10  21  37  61  91 129 163 205 254 323 391
#     4  11  24  39  62  94 130 166 214 265 320 389
#     4  10  21  40  63  89 120 169 211 259 319 377
#     4  11  25  43  65  95 128 169 222 266 318 387
#     4   9  22  39  60  91 127 163 205 253 321 391
#     4  11  21  41  64  86 123 172 218 266 317 377
#     4  12  22  38  63  97 131 165 214 267 331 387
#
# _framework density 20.375782999999998
#
# number of rings (size 3 to 8) (size 9 to 14) (size 15 to 20)
#    0.000    1.500    2.500    2.625    7.000    2.500 
#    0.000    0.000    0.000    1.500    0.000    0.000 
#    0.000    0.000    0.000    0.000    0.000    0.000 
#
# Total GULP energy -178517.801809 kJ/mol
# GULP energy per Si atom -5578.681307 kJ/mol
# Density = 2.032941 g / cm^3
# Si number density = 20.375783 Si / 1000 Ang^3
#
#
#
# Elastic Constant Matrix: (Units=GPa)
#
#
# Indices 1 2 3 4 5 6 
#
# 1 94.3540 32.4505 5.9699 0.0000 -11.9004 0.0000
# 2 32.4505 85.8039 18.6449 0.0000 -3.6975 0.0000
# 3 5.9699 18.6449 58.3060 0.0000 -10.8751 0.0000
# 4 0.0000 0.0000 0.0000 15.9998 0.0000 8.1407
# 5 -11.9004 -3.6975 -10.8751 0.0000 29.2671 0.0000
# 6 0.0000 0.0000 0.0000 8.1407 0.0000 18.9461
#
#
#
# Elastic Compliance Matrix: (Units=1/GPa)
#
#
# Indices 1 2 3 4 5 6 
#
# 1 0.012844 -0.004899 0.001193 0.000000 0.005047 0.000000
# 2 -0.004899 0.014394 -0.004441 0.000000 -0.001824 0.000000
# 3 0.001193 -0.004441 0.019808 0.000000 0.007284 0.000000
# 4 0.000000 0.000000 0.000000 0.079987 0.000000 -0.034369
# 5 0.005047 -0.001824 0.007284 0.000000 0.038696 0.000000
# 6 0.000000 0.000000 0.000000 -0.034369 0.000000 0.067549
#
#
# Mechanical properties :
#
#
# Convention : Reuss Voigt Hill
#
# Bulk Modulus (GPa) = 32.52009 39.17718 35.84864
# Shear Modulus (GPa) = 19.24377 24.93586 22.08981
#
# Velocity S-wave (km/s) = 3.07651 3.50208 3.29617
# Velocity P-wave (km/s) = 5.34927 5.96840 5.66730
#
# Compressibility (1/GPa) = 0.03075022
#
# Stress axis : x y z
#
# Youngs Moduli (GPa) = 77.85443 69.47381 50.48565
#
# Poissons Ratio (x) = 0.34038 -0.06023
# Poissons Ratio (y) = 0.38144 0.22423
# Poissons Ratio (z) = -0.09288 0.30856
#
# Static dielectric constant tensor:
#      x y z
#    x 1.732870 0.000000 0.014800 
#    y 0.000000 1.735010 0.000000 
#    z 0.014800 0.000000 1.770340 
# 
# From -- ./inp_files/288728.got.cif
#   From: 2010.05.17/outbox.cif.g08.bks.cpg/sg15_145_cif.got.tgz:288728.got - 2010.06.03 18:47:42.
