data_PCOD9280869
_publ_section_title
;
Structure prediction by ZEFSAII (Michael W. Deem and Ramdas Pophale) SiO2 
 PCOD9280869
Probable space group: C 2/C
;
_chemical_formula_sum "Si O2"
_cell_formula_units_Z 48
_cell_length_a 20.299717
_cell_length_b 16.208153
_cell_length_c 9.784037
_cell_angle_alpha 90.000000
_cell_angle_beta 134.648457
_cell_angle_gamma 90.000000
_cell_volume 2290.208207
_symmetry_space_group_name_H-M "C 2/C"
_symmetry_group_IT_number 15
_symmetry_cell_setting 'monoclinic'
loop_
_space_group_symop_operation_xyz
x,y,z
-x,y,1/2-z
-x,-y,-z
x,-y,1/2+z
1/2+x,1/2+y,z
1/2-x,1/2+y,1/2-z
1/2-x,1/2-y,-z
1/2+x,1/2-y,1/2+z
loop_
_atom_site_type_symbol
_atom_site_label
_atom_site_fract_x
_atom_site_fract_y
_atom_site_fract_z
Si Si1 0.913666 0.199182 0.522229
Si Si2 0.438845 0.039019 0.534201
Si Si3 0.838523 0.632153 0.940050
Si Si4 0.691231 0.539481 0.589572
Si Si5 0.086731 0.053744 0.170430
Si Si6 0.280813 0.122374 0.155376
O O1 0.905188 0.296365 0.484252
O O2 0.927284 0.145163 0.407224
O O3 0.813088 0.167975 0.432986
O O4 0.000000 0.182107 0.750000
O O5 0.500000 0.068412 0.750000
O O6 0.383708 0.958121 0.506761
O O7 0.500000 0.000000 0.500000
O O8 0.369001 0.111203 0.383255
O O9 0.747501 0.620171 0.714327
O O10 0.811941 0.655842 0.055163
O O11 0.609390 0.553751 0.363130
O O12 0.664341 0.491087 0.688843
O O13 0.754205 0.474142 0.600217
O O14 0.000000 0.000000 0.000000
#
# Coordination Sequence:
#
# PCOD9280869 Si02
#       6
#     8   8   8   8   8   8
#     4  11  25  40  64  95 133 174 218 269 333 391
#     4  11  22  39  67  98 127 166 220 269 325 395
#     4  11  22  40  65  94 131 169 213 272 330 389
#     4  10  21  37  65  92 123 165 219 260 323 381
#     4  11  21  40  63  95 125 169 220 267 313 394
#     4  10  21  40  65  95 128 169 220 265 327 393
#
# _framework density 20.958793
#
# number of rings (size 3 to 8) (size 9 to 14) (size 15 to 20)
#    0.000    1.333    3.333    3.500    0.000    0.667 
#    0.000    0.000    0.000    0.000    0.000    0.000 
#    0.000    0.000    0.000    0.000    0.000    0.000 
#
# Total GULP energy -133865.048183 kJ/mol
# GULP energy per Si atom -5577.710341 kJ/mol
# Density = 2.091109 g / cm^3
# Si number density = 20.958793 Si / 1000 Ang^3
#
#
#
# Elastic Constant Matrix: (Units=GPa)
#
#
# Indices 1 2 3 4 5 6 
#
# 1 52.2851 0.2594 19.4536 0.0000 7.9628 0.0000
# 2 0.2594 63.5412 30.1031 0.0000 2.3373 0.0000
# 3 19.4536 30.1031 186.2752 0.0000 8.9982 0.0000
# 4 0.0000 0.0000 0.0000 22.0754 0.0000 6.5432
# 5 7.9628 2.3373 8.9982 0.0000 28.3355 0.0000
# 6 0.0000 0.0000 0.0000 6.5432 0.0000 23.4977
#
#
#
# Elastic Compliance Matrix: (Units=1/GPa)
#
#
# Indices 1 2 3 4 5 6 
#
# 1 0.020695 0.001096 -0.002085 0.000000 -0.005244 0.000000
# 2 0.001096 0.017109 -0.002840 0.000000 -0.000817 0.000000
# 3 -0.002085 -0.002840 0.006099 0.000000 -0.001117 0.000000
# 4 0.000000 0.000000 0.000000 0.049375 0.000000 -0.013749
# 5 -0.005244 -0.000817 -0.001117 0.000000 0.037187 0.000000
# 6 0.000000 0.000000 0.000000 -0.013749 0.000000 0.046386
#
#
# Mechanical properties :
#
#
# Convention : Reuss Voigt Hill
#
# Bulk Modulus (GPa) = 27.58983 44.63710 36.11347
# Shear Modulus (GPa) = 25.43371 31.60074 28.51723
#
# Velocity S-wave (km/s) = 3.48733 3.88720 3.69268
# Velocity P-wave (km/s) = 5.42289 6.44134 5.95393
#
# Compressibility (1/GPa) = 0.03624524
#
# Stress axis : x y z
#
# Youngs Moduli (GPa) = 48.32109 58.44938 163.96027
#
# Poissons Ratio (x) = -0.06407 0.34188
# Poissons Ratio (y) = -0.05297 0.46563
# Poissons Ratio (z) = 0.10075 0.16599
#
# Static dielectric constant tensor:
#      x y z
#    x 1.910480 0.000000 0.059750 
#    y 0.000000 1.731910 0.000000 
#    z 0.059750 0.000000 1.822720 
# 
# From -- ./inp_files/56773.got.cif
#   From: 2010.05.17/outbox.cif.g08.bks.cpg/sg15_29_cif.got.tgz:56773.got - 2010.06.03 18:47:42.
