data_PCOD9280998
_publ_section_title
;
Structure prediction by ZEFSAII (Michael W. Deem and Ramdas Pophale) SiO2 
 PCOD9280998
Probable space group: C 2/C
;
_chemical_formula_sum "Si O2"
_cell_formula_units_Z 36
_cell_length_a 14.054211
_cell_length_b 26.520761
_cell_length_c 13.820822
_cell_angle_alpha 90.000000
_cell_angle_beta 158.948366
_cell_angle_gamma 90.000000
_cell_volume 1850.434397
_symmetry_space_group_name_H-M "C 2/C"
_symmetry_group_IT_number 15
_symmetry_cell_setting 'monoclinic'
loop_
_space_group_symop_operation_xyz
x,y,z
-x,y,1/2-z
-x,-y,-z
x,-y,1/2+z
1/2+x,1/2+y,z
1/2-x,1/2+y,1/2-z
1/2-x,1/2-y,-z
1/2+x,1/2-y,1/2+z
loop_
_atom_site_type_symbol
_atom_site_label
_atom_site_fract_x
_atom_site_fract_y
_atom_site_fract_z
Si Si1 0.455910 0.623810 0.916162
Si Si2 0.365299 0.961001 0.299172
Si Si3 0.500000 0.410650 0.250000
Si Si4 0.926945 0.354328 0.992853
Si Si5 0.000000 0.475783 0.750000
Si Si6 0.000000 0.286050 0.250000
O O1 0.654201 0.651629 0.177236
O O2 0.389292 0.567471 0.896276
O O3 0.558006 0.618860 0.904377
O O4 0.171528 0.650626 0.650752
O O5 0.556335 0.913191 0.461260
O O6 0.500000 0.000000 0.500000
O O7 0.341676 0.990753 0.177262
O O8 0.767799 0.442265 0.482391
O O9 0.989086 0.320903 0.144521
O O10 0.250000 0.250000 0.500000
#
# Coordination Sequence:
#
# PCOD9280998 Si02
#       6
#     8   8   4   8   4   4
#     4  10  22  37  60  79 135 153 232 249 330 367
#     4  10  21  38  54  87 126 179 209 272 304 385
#     4  12  22  36  51  88 112 182 211 258 294 380
#     4  10  23  41  60  94 122 167 206 271 324 405
#     4  12  23  30  54  74 122 168 236 250 313 352
#     4  12  25  46  75 102 130 162 215 278 357 404
#
# _framework density 19.454891
#
# number of rings (size 3 to 8) (size 9 to 14) (size 15 to 20)
#    1.333    0.000    2.222    4.667    3.111    1.778 
#    0.000    0.000    0.000    0.000    0.000   15.556 
#    0.000    0.000    0.000    0.000    0.000    0.000 
#
# Total GULP energy -100282.280011 kJ/mol
# GULP energy per Si atom -5571.237778 kJ/mol
# Density = 1.941061 g / cm^3
# Si number density = 19.454891 Si / 1000 Ang^3
#
#
#
# Elastic Constant Matrix: (Units=GPa)
#
#
# Indices 1 2 3 4 5 6 
#
# 1 113.2910 32.3289 15.7410 0.0012 -14.8777 0.0008
# 2 32.3289 65.0065 24.0516 -0.0009 -6.8757 0.0004
# 3 15.7410 24.0516 109.9790 0.0034 -3.2153 0.0014
# 4 0.0012 -0.0009 0.0034 23.9855 0.0012 -9.9270
# 5 -14.8777 -6.8757 -3.2153 0.0012 28.7345 0.0006
# 6 0.0008 0.0004 0.0014 -9.9270 0.0006 25.2991
#
#
#
# Elastic Compliance Matrix: (Units=1/GPa)
#
#
# Indices 1 2 3 4 5 6 
#
# 1 0.010822 -0.004776 -0.000375 -0.000001 0.004419 -0.000001
# 2 -0.004776 0.019226 -0.003470 0.000002 0.001739 0.000001
# 3 -0.000375 -0.003470 0.009908 -0.000002 0.000084 -0.000001
# 4 -0.000001 0.000002 -0.000002 0.049775 -0.000003 0.019531
# 5 0.004419 0.001739 0.000084 -0.000003 0.037515 -0.000002
# 6 -0.000001 0.000001 -0.000001 0.019531 -0.000002 0.047191
#
#
# Mechanical properties :
#
#
# Convention : Reuss Voigt Hill
#
# Bulk Modulus (GPa) = 44.02723 48.05772 46.04247
# Shear Modulus (GPa) = 25.09403 30.01416 27.55410
#
# Velocity S-wave (km/s) = 3.59535 3.93206 3.76747
# Velocity P-wave (km/s) = 6.31783 6.73576 6.53014
#
# Compressibility (1/GPa) = 0.02271322
#
# Stress axis : x y z
#
# Youngs Moduli (GPa) = 92.40395 52.01273 100.93136
#
# Poissons Ratio (x) = 0.24840 0.03788
# Poissons Ratio (y) = 0.44130 0.35025
# Poissons Ratio (z) = 0.03468 0.18049
#
# Static dielectric constant tensor:
#      x y z
#    x 1.693920 0.000000 0.011430 
#    y 0.000000 1.732210 0.000000 
#    z 0.011430 0.000000 1.713770 
# 
# From -- ./inp_files/156882.got.cif
#   From: 2010.05.17/outbox.cif.g08.bks.cpg/sg15_79_cif.got.tgz:156882.got - 2010.06.03 18:47:42.
