data_PCOD9280600
_publ_section_title
;
Structure prediction by ZEFSAII (Michael W. Deem and Ramdas Pophale) SiO2 
 PCOD9280600
Probable space group: C 2/C
;
_chemical_formula_sum "Si O2"
_cell_formula_units_Z 60
_cell_length_a 11.788260
_cell_length_b 22.724823
_cell_length_c 19.003434
_cell_angle_alpha 90.000000
_cell_angle_beta 143.336732
_cell_angle_gamma 90.000000
_cell_volume 3039.746601
_symmetry_space_group_name_H-M "C 2/C"
_symmetry_group_IT_number 15
_symmetry_cell_setting 'monoclinic'
loop_
_space_group_symop_operation_xyz
x,y,z
-x,y,1/2-z
-x,-y,-z
x,-y,1/2+z
1/2+x,1/2+y,z
1/2-x,1/2+y,1/2-z
1/2-x,1/2-y,-z
1/2+x,1/2-y,1/2+z
loop_
_atom_site_type_symbol
_atom_site_label
_atom_site_fract_x
_atom_site_fract_y
_atom_site_fract_z
Si Si1 0.000000 0.325458 0.750000
Si Si2 0.655764 0.671825 0.510318
Si Si3 0.354015 0.552464 0.612215
Si Si4 0.050023 0.639331 0.524979
Si Si5 0.451181 0.785753 0.344392
Si Si6 0.050895 0.257917 0.631831
Si Si7 0.603939 0.638953 0.990912
Si Si8 0.333093 0.582633 0.110611
O O1 0.060449 0.284972 0.714368
O O2 0.186896 0.361082 0.868841
O O3 0.549597 0.732496 0.436788
O O4 0.880913 0.686456 0.618990
O O5 0.559197 0.644926 0.531317
O O6 0.620316 0.625025 0.430850
O O7 0.500000 0.553239 0.750000
O O8 0.180281 0.591035 0.554012
O O9 0.423409 0.585441 0.576388
O O10 0.302855 0.484731 0.572468
O O11 0.120769 0.666634 0.634079
O O12 0.023250 0.692831 0.457930
O O13 0.851063 0.609433 0.444132
O O14 0.264640 0.760072 0.215096
O O15 0.919198 0.200436 0.562883
O O16 0.500000 0.583687 0.250000
#
# Coordination Sequence:
#
# PCOD9280600 Si02
#       8
#     4   8   8   8   8   8   8   8
#     4  12  24  38  58  94 134 168 212 258 322 400
#     4  10  21  41  59  93 130 162 211 258 323 378
#     4  11  25  43  64  93 127 172 221 263 316 375
#     4  11  21  40  63  93 125 161 210 263 317 379
#     4  10  21  37  61  93 125 161 201 259 321 383
#     4  12  22  37  61  95 129 166 204 263 330 389
#     4  12  25  39  61  96 132 169 208 266 326 383
#     4  10  23  41  67  90 122 174 221 266 308 376
#
# _framework density 19.738486999999999
#
# number of rings (size 3 to 8) (size 9 to 14) (size 15 to 20)
#    0.000    1.067    4.000    2.400    2.800    1.067 
#    0.000    0.000    0.000    3.200    0.000    0.000 
#    0.000    0.000    0.000    0.000    0.000    0.000 
#
# Total GULP energy -167711.166814 kJ/mol
# GULP energy per Si atom -5590.372227 kJ/mol
# Density = 1.969356 g / cm^3
# Si number density = 19.738487 Si / 1000 Ang^3
#
#
#
# Elastic Constant Matrix: (Units=GPa)
#
#
# Indices 1 2 3 4 5 6 
#
# 1 110.3586 22.6616 2.5992 0.0002 -10.9663 -0.0008
# 2 22.6616 96.2358 2.9730 0.0002 -10.5410 0.0001
# 3 2.5992 2.9730 48.2262 0.0008 -3.2316 0.0044
# 4 0.0002 0.0002 0.0008 33.5842 0.0006 -2.8181
# 5 -10.9663 -10.5410 -3.2316 0.0006 18.8673 0.0034
# 6 -0.0008 0.0001 0.0044 -2.8181 0.0034 -1.9723
#
#
#
# Elastic Compliance Matrix: (Units=1/GPa)
#
#
# Indices 1 2 3 4 5 6 
#
# 1 0.009906 -0.001812 -0.000105 0.000000 0.004727 0.000004
# 2 -0.001812 0.011403 -0.000252 0.000001 0.005275 0.000009
# 3 -0.000105 -0.000252 0.020984 0.000003 0.003392 0.000048
# 4 0.000000 0.000001 0.000003 0.026588 0.000007 -0.037990
# 5 0.004727 0.005275 0.003392 0.000007 0.059277 0.000097
# 6 0.000004 0.000009 0.000048 -0.037990 0.000097 -0.452747
#
#
# Mechanical properties :
#
#
# Convention : Reuss Voigt Hill
#
# Bulk Modulus (GPa) = 26.34677 34.58760 30.46719
# Shear Modulus (GPa) = -16.25493 25.20164 4.47335
#
# Velocity S-wave (km/s) = -2.87281 3.57708 1.50706
# Velocity P-wave (km/s) = 1.54041 5.88401 4.30084
#
# Compressibility (1/GPa) = 0.03795532
#
# Stress axis : x y z
#
# Youngs Moduli (GPa) = 100.95308 87.69415 47.65507
#
# Poissons Ratio (x) = 0.15886 0.00502
# Poissons Ratio (y) = 0.18288 0.01200
# Poissons Ratio (z) = 0.01064 0.02209
#
# Static dielectric constant tensor:
#      x y z
#    x 1.710220 0.000000 0.002250 
#    y 0.000000 1.663940 0.000000 
#    z 0.002250 0.000000 1.695280 
# 
# From -- ./inp_files/200964.got.cif
#   From: 2010.05.17/outbox.cif.g08.bks.cpg/sg15_101_cif.got.tgz:200964.got - 2010.06.03 18:47:42.
