data_PCOD9280647
_publ_section_title
;
Structure prediction by ZEFSAII (Michael W. Deem and Ramdas Pophale) SiO2 
 PCOD9280647
Probable space group: C 2/C
;
_chemical_formula_sum "Si O2"
_cell_formula_units_Z 60
_cell_length_a 17.164252
_cell_length_b 13.710171
_cell_length_c 20.427111
_cell_angle_alpha 90.000000
_cell_angle_beta 142.074888
_cell_angle_gamma 90.000000
_cell_volume 2954.535100
_symmetry_space_group_name_H-M "C 2/C"
_symmetry_group_IT_number 15
_symmetry_cell_setting 'monoclinic'
loop_
_space_group_symop_operation_xyz
x,y,z
-x,y,1/2-z
-x,-y,-z
x,-y,1/2+z
1/2+x,1/2+y,z
1/2-x,1/2+y,1/2-z
1/2-x,1/2-y,-z
1/2+x,1/2-y,1/2+z
loop_
_atom_site_type_symbol
_atom_site_label
_atom_site_fract_x
_atom_site_fract_y
_atom_site_fract_z
Si Si1 0.000000 0.837875 0.750000
Si Si2 0.517450 0.989357 0.840175
Si Si3 0.566255 0.195949 0.682640
Si Si4 0.979022 0.002895 0.628020
Si Si5 0.660145 0.347918 0.197630
Si Si6 0.205061 0.354646 0.794947
Si Si7 0.996216 0.856199 0.959801
Si Si8 0.750741 0.360826 0.521247
O O1 0.082046 0.762750 0.758821
O O2 0.039412 0.916574 0.831726
O O3 0.500000 0.985828 0.750000
O O4 0.397069 0.935417 0.792006
O O5 0.641190 0.927418 0.939524
O O6 0.518510 0.102026 0.859007
O O7 0.700855 0.157586 0.743745
O O8 0.496239 0.262086 0.581995
O O9 0.882868 0.088793 0.579852
O O10 0.115418 0.056177 0.708505
O O11 0.944584 0.950088 0.536605
O O12 0.657567 0.251418 0.240658
O O13 0.558661 0.340176 0.071236
O O14 0.345279 0.373531 0.861238
O O15 0.220378 0.358762 0.882696
O O16 0.750000 0.250000 0.500000
#
# Coordination Sequence:
#
# PCOD9280647 Si02
#       8
#     4   8   8   8   8   8   8   8
#     4  10  24  42  62  98 132 164 214 270 320 374
#     4  10  21  37  62  86 122 165 199 252 320 373
#     4  10  22  41  63  93 129 162 212 265 318 378
#     4  11  23  39  66  92 126 166 215 260 318 387
#     4  11  22  38  67  86 127 168 211 262 314 385
#     4  10  22  40  60  90 122 162 210 257 312 378
#     4  10  22  39  63  91 118 167 209 258 310 382
#     4  11  24  39  62  90 125 161 210 261 318 375
#
# _framework density 20.307763000000001
#
# number of rings (size 3 to 8) (size 9 to 14) (size 15 to 20)
#    0.000    1.600    2.000    2.000    5.600    1.067 
#    0.000    3.333    0.000    0.000    0.000    0.000 
#    0.000    0.000    0.000    0.000    0.000    0.000 
#
# Total GULP energy -167282.801428 kJ/mol
# GULP energy per Si atom -5576.093381 kJ/mol
# Density = 2.026154 g / cm^3
# Si number density = 20.307763 Si / 1000 Ang^3
#
#
#
# Elastic Constant Matrix: (Units=GPa)
#
#
# Indices 1 2 3 4 5 6 
#
# 1 49.9511 49.6795 7.1093 0.0000 9.0814 0.0000
# 2 49.6795 148.3404 16.3147 0.0000 18.7629 0.0000
# 3 7.1093 16.3147 20.1567 0.0000 7.4859 0.0000
# 4 0.0000 0.0000 0.0000 27.0213 0.0000 -4.1246
# 5 9.0814 18.7629 7.4859 0.0000 18.3817 0.0000
# 6 0.0000 0.0000 0.0000 -4.1246 0.0000 36.6426
#
#
#
# Elastic Compliance Matrix: (Units=1/GPa)
#
#
# Indices 1 2 3 4 5 6 
#
# 1 0.030493 -0.009452 -0.001288 0.000000 -0.004893 0.000000
# 2 -0.009452 0.010943 -0.003664 0.000000 -0.005008 0.000000
# 3 -0.001288 -0.003664 0.060566 0.000000 -0.020290 0.000000
# 4 0.000000 0.000000 0.000000 0.037655 0.000000 0.004239
# 5 -0.004893 -0.005008 -0.020290 0.000000 0.070194 0.000000
# 6 0.000000 0.000000 0.000000 0.004239 0.000000 0.027768
#
#
# Mechanical properties :
#
#
# Convention : Reuss Voigt Hill
#
# Bulk Modulus (GPa) = 13.66196 40.51727 27.08962
# Shear Modulus (GPa) = 17.19261 26.09877 21.64569
#
# Velocity S-wave (km/s) = 2.91280 3.58881 3.26833
# Velocity P-wave (km/s) = 4.24907 6.09653 5.25463
#
# Compressibility (1/GPa) = 0.07319594
#
# Stress axis : x y z
#
# Youngs Moduli (GPa) = 32.79493 91.38248 16.51093
#
# Poissons Ratio (x) = 0.86371 0.02126
# Poissons Ratio (y) = 0.30996 0.06049
# Poissons Ratio (z) = 0.04223 0.33479
#
# Static dielectric constant tensor:
#      x y z
#    x 1.797480 0.000000 0.015810 
#    y 0.000000 1.727460 0.000000 
#    z 0.015810 0.000000 1.695320 
# 
# From -- ./inp_files/248773.got.cif
#   From: 2010.05.17/outbox.cif.g08.bks.cpg/sg15_125_cif.got.tgz:248773.got - 2010.06.03 18:47:42.
