data_PCOD9280645
_publ_section_title
;
Structure prediction by ZEFSAII (Michael W. Deem and Ramdas Pophale) SiO2 
 PCOD9280645
Probable space group: C 2/C
;
_chemical_formula_sum "Si O2"
_cell_formula_units_Z 48
_cell_length_a 15.703585
_cell_length_b 10.264751
_cell_length_c 18.946626
_cell_angle_alpha 90.000000
_cell_angle_beta 65.010170
_cell_angle_gamma 90.000000
_cell_volume 2768.157269
_symmetry_space_group_name_H-M "C 2/C"
_symmetry_group_IT_number 15
_symmetry_cell_setting 'monoclinic'
loop_
_space_group_symop_operation_xyz
x,y,z
-x,y,1/2-z
-x,-y,-z
x,-y,1/2+z
1/2+x,1/2+y,z
1/2-x,1/2+y,1/2-z
1/2-x,1/2-y,-z
1/2+x,1/2-y,1/2+z
loop_
_atom_site_type_symbol
_atom_site_label
_atom_site_fract_x
_atom_site_fract_y
_atom_site_fract_z
Si Si1 0.738069 0.434284 0.813591
Si Si2 0.975403 0.397462 0.070815
Si Si3 0.254876 0.866870 0.187275
Si Si4 0.339222 0.290553 0.421353
Si Si5 0.419035 0.022174 0.336579
Si Si6 0.564808 0.621823 0.477596
O O1 0.759391 0.284158 0.782617
O O2 0.716653 0.528288 0.755949
O O3 0.822984 0.503443 0.826917
O O4 0.654194 0.409451 0.897414
O O5 0.865341 0.400963 0.134319
O O6 0.982891 0.253205 0.035221
O O7 0.043242 0.429861 0.113538
O O8 0.000000 0.500000 0.000000
O O9 0.200101 0.867376 0.132037
O O10 0.250000 0.250000 0.500000
O O11 0.404230 0.363747 0.452743
O O12 0.395330 0.162883 0.377551
O O13 0.500000 0.029788 0.250000
O O14 0.500000 0.500000 0.500000
#
# Coordination Sequence:
#
# PCOD9280645 Si02
#       6
#     8   8   8   8   8   8
#     4  10  22  40  59  87 125 154 194 254 297 354
#     4  11  20  36  63  89 115 157 207 240 285 358
#     4  10  21  37  62  86 120 159 194 247 300 351
#     4  11  19  40  63  84 119 164 199 240 302 357
#     4  11  20  34  64  93 114 151 212 247 287 351
#     4  11  24  41  59  88 126 157 195 251 304 350
#
# _framework density 17.340055
#
# number of rings (size 3 to 8) (size 9 to 14) (size 15 to 20)
#    0.000    1.333    8.333    0.000    0.000    4.000 
#    3.000    0.833    0.000    0.000    0.000    0.000 
#    0.000    0.000    0.000    0.000    0.000    0.000 
#
# Total GULP energy -133716.935855 kJ/mol
# GULP energy per Si atom -5571.538994 kJ/mol
# Density = 1.730059 g / cm^3
# Si number density = 17.340055 Si / 1000 Ang^3
#
#
#
# Elastic Constant Matrix: (Units=GPa)
#
#
# Indices 1 2 3 4 5 6 
#
# 1 106.7784 63.4333 43.7244 0.0000 32.3549 0.0000
# 2 63.4333 100.0869 57.0072 0.0000 21.5457 0.0000
# 3 43.7244 57.0072 82.7005 0.0000 34.8104 0.0000
# 4 0.0000 0.0000 0.0000 41.5889 0.0000 6.8152
# 5 32.3549 21.5457 34.8104 0.0000 35.2275 0.0000
# 6 0.0000 0.0000 0.0000 6.8152 0.0000 36.8639
#
#
#
# Elastic Compliance Matrix: (Units=1/GPa)
#
#
# Indices 1 2 3 4 5 6 
#
# 1 0.018516 -0.010698 0.003405 0.000000 -0.013828 0.000000
# 2 -0.010698 0.022710 -0.014190 0.000000 0.009958 0.000000
# 3 0.003405 -0.014190 0.030367 0.000000 -0.024456 0.000000
# 4 0.000000 0.000000 0.000000 0.024796 0.000000 -0.004584
# 5 -0.013828 0.009958 -0.024456 0.000000 0.059164 0.000000
# 6 0.000000 0.000000 0.000000 -0.004584 0.000000 0.027974
#
#
# Mechanical properties :
#
#
# Convention : Reuss Voigt Hill
#
# Bulk Modulus (GPa) = 34.93056 68.65504 51.79280
# Shear Modulus (GPa) = 21.18328 31.09612 26.13970
#
# Velocity S-wave (km/s) = 3.49899 4.23934 3.88683
# Velocity P-wave (km/s) = 6.04252 7.97759 7.07651
#
# Compressibility (1/GPa) = 0.02862822
#
# Stress axis : x y z
#
# Youngs Moduli (GPa) = 54.00696 44.03323 32.93058
#
# Poissons Ratio (x) = 0.47107 -0.11214
# Poissons Ratio (y) = 0.57777 0.46728
# Poissons Ratio (z) = -0.18391 0.62482
#
# Static dielectric constant tensor:
#      x y z
#    x 1.483640 0.000000 -0.034700 
#    y 0.000000 1.562990 0.000000 
#    z -0.034700 0.000000 1.565350 
# 
# From -- ./inp_files/242340.got.cif
#   From: 2010.05.17/outbox.cif.g08.bks.cpg/sg15_122_cif.got.tgz:242340.got - 2010.06.03 18:47:42.
