data_PCOD9280477
_publ_section_title
;
Structure prediction by ZEFSAII (Michael W. Deem and Ramdas Pophale) SiO2 
 PCOD9280477
Probable space group: C 2/C
;
_chemical_formula_sum "Si O2"
_cell_formula_units_Z 40
_cell_length_a 10.274653
_cell_length_b 16.806321
_cell_length_c 24.884291
_cell_angle_alpha 90.000000
_cell_angle_beta 24.668566
_cell_angle_gamma 90.000000
_cell_volume 1793.431692
_symmetry_space_group_name_H-M "C 2/C"
_symmetry_group_IT_number 15
_symmetry_cell_setting 'monoclinic'
loop_
_space_group_symop_operation_xyz
x,y,z
-x,y,1/2-z
-x,-y,-z
x,-y,1/2+z
1/2+x,1/2+y,z
1/2-x,1/2+y,1/2-z
1/2-x,1/2-y,-z
1/2+x,1/2-y,1/2+z
loop_
_atom_site_type_symbol
_atom_site_label
_atom_site_fract_x
_atom_site_fract_y
_atom_site_fract_z
Si Si1 0.307679 0.309118 0.170597
Si Si2 0.368650 0.189809 0.385391
Si Si3 0.713183 0.069966 0.332648
Si Si4 0.343248 0.445276 0.605081
Si Si5 0.919112 0.027664 0.888039
O O1 0.367699 0.256733 0.202354
O O2 0.400607 0.397774 0.153660
O O3 0.000000 0.309219 0.250000
O O4 0.567262 0.279721 0.030484
O O5 0.524909 0.115183 0.357275
O O6 0.220962 0.145767 0.389059
O O7 0.444604 0.050885 0.476196
O O8 0.000000 0.119550 0.250000
O O9 0.900043 0.998948 0.233022
O O10 0.500000 0.500000 0.500000
O O11 0.552511 0.456095 0.579325
O O12 0.000000 0.475991 0.750000
#
# Coordination Sequence:
#
# PCOD9280477 Si02
#       5
#     8   8   8   8   8
#     4  10  21  37  60  89 126 167 207 258 311 392
#     4  10  22  36  59  92 122 161 213 254 319 366
#     4  11  22  38  60  89 126 163 209 264 312 377
#     4  12  20  37  64  97 123 155 218 275 298 369
#     4  11  22  37  65  96 118 165 222 257 313 367
#
# _framework density 22.303609000000002
#
# number of rings (size 3 to 8) (size 9 to 14) (size 15 to 20)
#    0.000    1.200    6.000    1.800    2.800    0.000 
#    0.000    1.000    0.000    2.400    0.000    0.000 
#    0.000    0.000    0.000    0.000    0.000    0.000 
#
# Total GULP energy -111346.882863 kJ/mol
# GULP energy per Si atom -5567.344143 kJ/mol
# Density = 2.225285 g / cm^3
# Si number density = 22.303609 Si / 1000 Ang^3
#
#
#
# Elastic Constant Matrix: (Units=GPa)
#
#
# Indices 1 2 3 4 5 6 
#
# 1 69.9005 34.6074 11.7110 0.0051 -14.4699 0.0806
# 2 34.6074 78.6735 19.0685 0.0066 -5.7470 0.0897
# 3 11.7110 19.0685 134.9628 -0.1447 -20.6714 0.1678
# 4 0.0051 0.0066 -0.1447 16.3518 0.2144 -3.3670
# 5 -14.4699 -5.7470 -20.6714 0.2144 44.1674 -0.0188
# 6 0.0806 0.0897 0.1678 -3.3670 -0.0188 43.3810
#
#
#
# Elastic Compliance Matrix: (Units=1/GPa)
#
#
# Indices 1 2 3 4 5 6 
#
# 1 0.019460 -0.008237 0.000310 -0.000076 0.005449 -0.000024
# 2 -0.008237 0.016682 -0.001856 -0.000005 -0.001397 -0.000013
# 3 0.000310 -0.001856 0.008212 0.000020 0.003703 -0.000025
# 4 -0.000076 -0.000005 0.000020 0.062153 -0.000316 0.004824
# 5 0.005449 -0.001397 0.003703 -0.000316 0.025979 -0.000035
# 6 -0.000024 -0.000013 -0.000025 0.004824 -0.000035 0.023426
#
#
# Mechanical properties :
#
#
# Convention : Reuss Voigt Hill
#
# Bulk Modulus (GPa) = 40.34341 46.03452 43.18896
# Shear Modulus (GPa) = 27.21191 35.32337 31.26764
#
# Velocity S-wave (km/s) = 3.49674 3.98395 3.74827
# Velocity P-wave (km/s) = 5.86775 6.46895 6.17567
#
# Compressibility (1/GPa) = 0.02478720
#
# Stress axis : x y z
#
# Youngs Moduli (GPa) = 51.38629 59.94443 121.77183
#
# Poissons Ratio (x) = 0.49378 -0.03772
# Poissons Ratio (y) = 0.42329 0.22602
# Poissons Ratio (z) = -0.01592 0.11126
#
# Static dielectric constant tensor:
#      x y z
#    x 2.002790 0.000000 0.022740 
#    y 0.000000 1.872350 -0.000270 
#    z 0.022740 -0.000270 1.856070 
# 
# From -- ./inp_files/311544.got.cif
#   From: 2010.05.17/outbox.cif.g08.bks.cpg/sg15_156_cif.got.tgz:311544.got - 2010.06.03 18:47:42.
