data_PCOD9280213
_publ_section_title
;
Structure prediction by ZEFSAII (Michael W. Deem and Ramdas Pophale) SiO2 
 PCOD9280213
Probable space group: C 2/C
;
_chemical_formula_sum "Si O2"
_cell_formula_units_Z 48
_cell_length_a 14.559698
_cell_length_b 12.437209
_cell_length_c 13.777683
_cell_angle_alpha 90.000000
_cell_angle_beta 47.244512
_cell_angle_gamma 90.000000
_cell_volume 1831.892024
_symmetry_space_group_name_H-M "C 2/C"
_symmetry_group_IT_number 15
_symmetry_cell_setting 'monoclinic'
loop_
_space_group_symop_operation_xyz
x,y,z
-x,y,1/2-z
-x,-y,-z
x,-y,1/2+z
1/2+x,1/2+y,z
1/2-x,1/2+y,1/2-z
1/2-x,1/2-y,-z
1/2+x,1/2-y,1/2+z
loop_
_atom_site_type_symbol
_atom_site_label
_atom_site_fract_x
_atom_site_fract_y
_atom_site_fract_z
Si Si1 0.259814 0.071810 0.568759
Si Si2 0.712461 0.939363 0.684311
Si Si3 0.500000 0.519155 0.250000
Si Si4 0.000000 0.465464 0.250000
Si Si5 0.889411 0.872913 0.026270
Si Si6 0.388942 0.854428 0.483469
Si Si7 0.880642 0.241064 0.094823
O O1 0.265920 0.079043 0.447234
O O2 0.322696 0.179345 0.559538
O O3 0.116176 0.053485 0.697706
O O4 0.329764 0.965664 0.563321
O O5 0.765086 0.837185 0.703644
O O6 0.564018 0.962905 0.788002
O O7 0.797715 0.043299 0.641941
O O8 0.552792 0.587829 0.119615
O O9 0.894972 0.387670 0.367083
O O10 0.824582 0.757867 0.052528
O O11 0.009562 0.845397 0.007423
O O12 0.533330 0.821448 0.402689
#
# Coordination Sequence:
#
# PCOD9280213 Si02
#       7
#     8   8   4   4   8   8   8
#     4  10  21  39  59  81 113 149 185 226 276 332
#     4  10  21  39  59  81 113 149 185 226 276 332
#     4  10  21  37  56  84 114 147 185 222 278 336
#     4  10  21  37  56  84 114 147 185 222 278 336
#     4   9  21  37  60  83 110 146 187 230 275 323
#     4   9  21  37  60  83 110 146 187 230 275 323
#     4  10  21  38  59  84 112 146 186 231 278 322
#
# _framework density 26.202415999999999
#
# number of rings (size 3 to 8) (size 9 to 14) (size 15 to 20)
#    1.000    1.333    0.000    2.000    0.000    9.333 
#    0.000    8.333    0.000    0.000    0.000    0.000 
#    0.000    0.000    0.000    0.000    0.000    0.000 
#
# Total GULP energy -133799.950670 kJ/mol
# GULP energy per Si atom -5574.997945 kJ/mol
# Density = 2.614278 g / cm^3
# Si number density = 26.202416 Si / 1000 Ang^3
#
#
#
# Elastic Constant Matrix: (Units=GPa)
#
#
# Indices 1 2 3 4 5 6 
#
# 1 122.8663 59.8700 38.1121 0.0000 -35.4592 0.0000
# 2 59.8700 96.7376 38.7845 0.0000 -18.7809 0.0000
# 3 38.1121 38.7845 84.7346 0.0000 -4.5820 0.0000
# 4 0.0000 0.0000 0.0000 17.6276 0.0000 -16.6116
# 5 -35.4592 -18.7809 -4.5820 0.0000 37.3656 0.0000
# 6 0.0000 0.0000 0.0000 -16.6116 0.0000 46.4988
#
#
#
# Elastic Compliance Matrix: (Units=1/GPa)
#
#
# Indices 1 2 3 4 5 6 
#
# 1 0.015347 -0.005885 -0.003605 0.000000 0.011164 0.000000
# 2 -0.005885 0.016246 -0.004680 0.000000 0.002007 0.000000
# 3 -0.003605 -0.004680 0.015355 0.000000 -0.003891 0.000000
# 4 0.000000 0.000000 0.000000 0.085520 0.000000 0.030552
# 5 0.011164 0.002007 -0.003891 0.000000 0.037888 0.000000
# 6 0.000000 0.000000 0.000000 0.030552 0.000000 0.032420
#
#
# Mechanical properties :
#
#
# Convention : Reuss Voigt Hill
#
# Bulk Modulus (GPa) = 53.74674 64.20796 58.97735
# Shear Modulus (GPa) = 21.06866 31.46986 26.26926
#
# Velocity S-wave (km/s) = 2.83869 3.46935 3.16974
# Velocity P-wave (km/s) = 5.59472 6.37231 5.99613
#
# Compressibility (1/GPa) = 0.01860578
#
# Stress axis : x y z
#
# Youngs Moduli (GPa) = 65.16015 61.55530 65.12531
#
# Poissons Ratio (x) = 0.36227 0.23479
# Poissons Ratio (y) = 0.38348 0.30481
# Poissons Ratio (z) = 0.23492 0.28810
#
# Static dielectric constant tensor:
#      x y z
#    x 2.117210 0.000000 -0.030330 
#    y 0.000000 2.053510 0.000000 
#    z -0.030330 0.000000 2.097240 
# 
# From -- ./inp_files/172694.got.cif
#   From: 2010.05.17/outbox.cif.g08.bks.cpg/sg15_87_cif.got.tgz:172694.got - 2010.06.03 18:47:42.
