data_PCOD9280832
_publ_section_title
;
Structure prediction by ZEFSAII (Michael W. Deem and Ramdas Pophale) SiO2 
 PCOD9280832
Probable space group: C 2/C
;
_chemical_formula_sum "Si O2"
_cell_formula_units_Z 48
_cell_length_a 15.922548
_cell_length_b 22.357736
_cell_length_c 10.899121
_cell_angle_alpha 90.000000
_cell_angle_beta 143.720200
_cell_angle_gamma 90.000000
_cell_volume 2295.909281
_symmetry_space_group_name_H-M "C 2/C"
_symmetry_group_IT_number 15
_symmetry_cell_setting 'monoclinic'
loop_
_space_group_symop_operation_xyz
x,y,z
-x,y,1/2-z
-x,-y,-z
x,-y,1/2+z
1/2+x,1/2+y,z
1/2-x,1/2+y,1/2-z
1/2-x,1/2-y,-z
1/2+x,1/2-y,1/2+z
loop_
_atom_site_type_symbol
_atom_site_label
_atom_site_fract_x
_atom_site_fract_y
_atom_site_fract_z
Si Si1 0.000000 0.696291 0.750000
Si Si2 0.274302 0.818002 0.336983
Si Si3 0.875506 0.440993 0.852746
Si Si4 0.525256 0.278783 0.552260
Si Si5 0.000000 0.612335 0.250000
Si Si6 0.312006 0.068013 0.703989
Si Si7 0.725654 0.377109 0.876839
O O1 0.975542 0.734922 0.601096
O O2 0.855793 0.659593 0.590002
O O3 0.358320 0.760126 0.383542
O O4 0.370930 0.845918 0.556194
O O5 0.270564 0.873304 0.234196
O O6 0.115079 0.799464 0.184008
O O7 0.797739 0.504856 0.757745
O O8 0.768941 0.395564 0.790757
O O9 0.939457 0.425041 0.794396
O O10 0.015183 0.435201 0.104429
O O11 0.592848 0.334726 0.703452
O O12 0.224439 0.069186 0.473753
#
# Coordination Sequence:
#
# PCOD9280832 Si02
#       7
#     4   8   8   8   4   8   8
#     4  12  18  37  62 100 126 163 204 266 310 370
#     4  11  24  43  62  97 127 169 207 259 312 380
#     4  10  22  38  65  93 121 167 213 258 305 374
#     4  12  24  39  65  95 132 163 210 259 322 373
#     4  10  24  43  64  90 126 169 216 252 306 378
#     4  10  21  37  64  95 123 158 212 264 310 363
#     4  12  21  38  65  96 126 160 209 265 318 362
#
# _framework density 20.906749000000001
#
# number of rings (size 3 to 8) (size 9 to 14) (size 15 to 20)
#    0.000    1.000    5.000    2.500    7.000    0.667 
#    0.000    0.833    3.667    0.000    0.000    0.000 
#    0.000    0.000    0.000    0.000    0.000    0.000 
#
# Total GULP energy -133822.014095 kJ/mol
# GULP energy per Si atom -5575.917254 kJ/mol
# Density = 2.085916 g / cm^3
# Si number density = 20.906749 Si / 1000 Ang^3
#
#
#
# Elastic Constant Matrix: (Units=GPa)
#
#
# Indices 1 2 3 4 5 6 
#
# 1 36.2436 22.8802 23.7997 0.0000 -9.2680 0.0000
# 2 22.8802 84.1232 41.4843 0.0000 5.1497 0.0000
# 3 23.7997 41.4843 104.9550 0.0000 5.9857 0.0000
# 4 0.0000 0.0000 0.0000 21.1509 0.0000 -16.3418
# 5 -9.2680 5.1497 5.9857 0.0000 24.0007 0.0000
# 6 0.0000 0.0000 0.0000 -16.3418 0.0000 5.0815
#
#
#
# Elastic Compliance Matrix: (Units=1/GPa)
#
#
# Indices 1 2 3 4 5 6 
#
# 1 0.043747 -0.009557 -0.007327 0.000000 0.020771 0.000000
# 2 -0.009557 0.016925 -0.004164 0.000000 -0.006283 0.000000
# 3 -0.007327 -0.004164 0.013133 0.000000 -0.005211 0.000000
# 4 0.000000 0.000000 0.000000 -0.031843 0.000000 -0.102407
# 5 0.020771 -0.006283 -0.005211 0.000000 0.052334 0.000000
# 6 0.000000 0.000000 0.000000 -0.102407 0.000000 -0.132543
#
#
# Mechanical properties :
#
#
# Convention : Reuss Voigt Hill
#
# Bulk Modulus (GPa) = 31.53778 44.62782 38.08280
# Shear Modulus (GPa) = 346.77319 19.19045 182.98182
#
# Velocity S-wave (km/s) = 12.89289 3.03298 9.36551
# Velocity P-wave (km/s) = 15.38679 5.80153 11.62779
#
# Compressibility (1/GPa) = 0.03170800
#
# Stress axis : x y z
#
# Youngs Moduli (GPa) = 22.85849 59.08495 76.14631
#
# Poissons Ratio (x) = 0.56466 0.55796
# Poissons Ratio (y) = 0.21845 0.31709
# Poissons Ratio (z) = 0.16749 0.24604
#
# Static dielectric constant tensor:
#      x y z
#    x 1.784840 0.000000 -0.023850 
#    y 0.000000 1.787060 0.000000 
#    z -0.023850 0.000000 1.729710 
# 
# From -- ./inp_files/108173.got.cif
#   From: 2010.05.17/outbox.cif.g08.bks.cpg/sg15_55_cif.got.tgz:108173.got - 2010.06.03 18:47:42.
