data_PCOD9280881
_publ_section_title
;
Structure prediction by ZEFSAII (Michael W. Deem and Ramdas Pophale) SiO2 
 PCOD9280881
Probable space group: C 2/C
;
_chemical_formula_sum "Si O2"
_cell_formula_units_Z 64
_cell_length_a 9.451327
_cell_length_b 17.442936
_cell_length_c 24.189100
_cell_angle_alpha 90.000000
_cell_angle_beta 49.279927
_cell_angle_gamma 90.000000
_cell_volume 3022.367958
_symmetry_space_group_name_H-M "C 2/C"
_symmetry_group_IT_number 15
_symmetry_cell_setting 'monoclinic'
loop_
_space_group_symop_operation_xyz
x,y,z
-x,y,1/2-z
-x,-y,-z
x,-y,1/2+z
1/2+x,1/2+y,z
1/2-x,1/2+y,1/2-z
1/2-x,1/2-y,-z
1/2+x,1/2-y,1/2+z
loop_
_atom_site_type_symbol
_atom_site_label
_atom_site_fract_x
_atom_site_fract_y
_atom_site_fract_z
Si Si1 0.023242 0.900449 0.416408
Si Si2 0.801167 0.019030 0.323780
Si Si3 0.124773 0.069488 0.076713
Si Si4 0.780509 0.779260 0.429552
Si Si5 0.517144 0.120159 0.924636
Si Si6 0.967494 0.462069 0.697373
Si Si7 0.688926 0.375427 0.915185
Si Si8 0.543924 0.133750 0.681859
O O1 0.947889 0.839350 0.391111
O O2 0.934383 0.881705 0.498442
O O3 0.241465 0.890569 0.368144
O O4 0.949516 0.983796 0.418011
O O5 0.836707 0.071150 0.368097
O O6 0.696490 0.063803 0.300959
O O7 0.000000 0.990146 0.250000
O O8 0.660465 0.951181 0.379330
O O9 0.953961 0.120915 0.098944
O O10 0.316024 0.089184 0.995840
O O11 0.750000 0.750000 0.500000
O O12 0.605066 0.824548 0.448455
O O13 0.805040 0.702938 0.387633
O O14 0.495251 0.161600 0.870381
O O15 0.165279 0.444967 0.618936
O O16 0.931596 0.552826 0.713446
O O17 0.000000 0.428641 0.750000
O O18 0.500000 0.178195 0.750000
#
# Coordination Sequence:
#
# PCOD9280881 Si02
#       8
#     8   8   8   8   8   8   8   8
#     4  11  20  40  61  96 120 162 212 256 324 375
#     4  11  24  37  62  99 130 163 210 281 322 372
#     4  12  22  37  68  96 125 156 220 268 317 385
#     4  10  25  40  61  88 132 167 212 257 328 381
#     4  11  23  40  62  97 125 170 213 265 325 383
#     4  10  21  38  62  90 127 165 211 259 330 380
#     4  11  22  40  61  90 125 171 202 261 316 389
#     4  10  21  37  65  95 127 158 212 277 319 377
#
# _framework density 21.175450999999999
#
# number of rings (size 3 to 8) (size 9 to 14) (size 15 to 20)
#    0.000    1.250    3.750    3.000    7.000    0.500 
#    0.000    1.875    0.000    1.500    0.000    0.000 
#    0.000    0.000    0.000    0.000    0.000    0.000 
#
# Total GULP energy -178512.008072 kJ/mol
# GULP energy per Si atom -5578.500252 kJ/mol
# Density = 2.112725 g / cm^3
# Si number density = 21.175451 Si / 1000 Ang^3
#
#
#
# Elastic Constant Matrix: (Units=GPa)
#
#
# Indices 1 2 3 4 5 6 
#
# 1 182.6051 28.0368 38.4796 -0.0002 27.3205 -0.0001
# 2 28.0368 44.2628 -1.1722 -0.0004 12.2546 -0.0002
# 3 38.4796 -1.1722 69.9280 -0.0013 7.0708 -0.0005
# 4 -0.0002 -0.0004 -0.0013 4.5862 0.0003 10.2369
# 5 27.3205 12.2546 7.0708 0.0003 39.7266 0.0002
# 6 -0.0001 -0.0002 -0.0005 10.2369 0.0002 23.3000
#
#
#
# Elastic Compliance Matrix: (Units=1/GPa)
#
#
# Indices 1 2 3 4 5 6 
#
# 1 0.007344 -0.003871 -0.003784 -0.000038 -0.003183 0.000017
# 2 -0.003871 0.026843 0.003206 0.000142 -0.006189 -0.000062
# 3 -0.003784 0.003206 0.016572 0.000197 -0.001336 -0.000086
# 4 -0.000038 0.000142 0.000197 11.285767 -0.000111 -4.958432
# 5 -0.003183 -0.006189 -0.001336 -0.000111 0.029508 0.000048
# 6 0.000017 -0.000062 -0.000086 -4.958432 0.000048 2.221419
#
#
# Mechanical properties :
#
#
# Convention : Reuss Voigt Hill
#
# Bulk Modulus (GPa) = 23.88944 47.49827 35.69385
# Shear Modulus (GPa) = 0.36737 28.95266 14.66001
#
# Velocity S-wave (km/s) = 0.41697 3.70168 2.63404
# Velocity P-wave (km/s) = 3.39676 6.38353 5.11309
#
# Compressibility (1/GPa) = 0.04185951
#
# Stress axis : x y z
#
# Youngs Moduli (GPa) = 136.15871 37.25421 60.34375
#
# Poissons Ratio (x) = 0.14421 0.22837
# Poissons Ratio (y) = 0.52707 -0.19345
# Poissons Ratio (z) = 0.51529 -0.11943
#
# Static dielectric constant tensor:
#      x y z
#    x 1.795280 0.000000 0.041610 
#    y 0.000000 1.852290 0.000000 
#    z 0.041610 0.000000 1.842370 
# 
# From -- ./inp_files/266065.got.cif
#   From: 2010.05.17/outbox.cif.g08.bks.cpg/sg15_134_cif.got.tgz:266065.got - 2010.06.03 18:47:42.
