data_PCOD9280721
_publ_section_title
;
Structure prediction by ZEFSAII (Michael W. Deem and Ramdas Pophale) SiO2 
 PCOD9280721
Probable space group: C 2/C
;
_chemical_formula_sum "Si O2"
_cell_formula_units_Z 44
_cell_length_a 6.143447
_cell_length_b 19.767267
_cell_length_c 16.205877
_cell_angle_alpha 90.000000
_cell_angle_beta 102.886714
_cell_angle_gamma 90.000000
_cell_volume 1918.459196
_symmetry_space_group_name_H-M "C 2/C"
_symmetry_group_IT_number 15
_symmetry_cell_setting 'monoclinic'
loop_
_space_group_symop_operation_xyz
x,y,z
-x,y,1/2-z
-x,-y,-z
x,-y,1/2+z
1/2+x,1/2+y,z
1/2-x,1/2+y,1/2-z
1/2-x,1/2-y,-z
1/2+x,1/2-y,1/2+z
loop_
_atom_site_type_symbol
_atom_site_label
_atom_site_fract_x
_atom_site_fract_y
_atom_site_fract_z
Si Si1 0.500000 0.124981 0.750000
Si Si2 0.709755 0.967546 0.405474
Si Si3 0.102590 0.126214 0.938360
Si Si4 0.876776 0.803211 0.570617
Si Si5 0.793665 0.231491 0.689602
Si Si6 0.545289 0.086659 0.057187
O O1 0.438651 0.080063 0.665950
O O2 0.703623 0.173276 0.743087
O O3 0.690447 0.956429 0.503176
O O4 0.957898 0.940391 0.401702
O O5 0.594434 0.041511 0.389782
O O6 0.101931 0.190074 0.877865
O O7 0.359414 0.114732 0.979269
O O8 0.000090 0.149522 0.015676
O O9 0.750000 0.750000 0.500000
O O10 0.696896 0.851331 0.600841
O O11 0.071167 0.770719 0.642427
O O12 0.000000 0.269503 0.750000
#
# Coordination Sequence:
#
# PCOD9280721 Si02
#       6
#     4   8   8   8   8   8
#     4  12  22  40  64  94 132 174 220 286 352 404
#     4  10  21  37  62  99 129 166 227 283 334 411
#     4  11  20  39  66  95 124 175 228 278 341 403
#     4  11  23  39  64  93 132 176 227 282 337 417
#     4  12  24  37  63 101 135 175 228 289 349 411
#     4  10  21  38  64  94 130 173 226 279 335 404
#
# _framework density 22.935072999999999
#
# number of rings (size 3 to 8) (size 9 to 14) (size 15 to 20)
#    0.000    1.091    5.455    2.182    0.000    0.000 
#    0.000    0.000    6.000    0.000    4.727    0.000 
#    0.000    0.000    0.000    0.000    0.000    0.000 
#
# Total GULP energy -122615.675910 kJ/mol
# GULP energy per Si atom -5573.439814 kJ/mol
# Density = 2.288287 g / cm^3
# Si number density = 22.935073 Si / 1000 Ang^3
#
#
#
# Elastic Constant Matrix: (Units=GPa)
#
#
# Indices 1 2 3 4 5 6 
#
# 1 89.4521 57.1162 58.2286 0.0000 41.5479 0.0000
# 2 57.1162 106.9926 50.9873 0.0000 26.1163 0.0000
# 3 58.2286 50.9873 73.5155 0.0000 28.4811 0.0000
# 4 0.0000 0.0000 0.0000 26.6062 0.0000 8.6948
# 5 41.5479 26.1163 28.4811 0.0000 54.5829 0.0000
# 6 0.0000 0.0000 0.0000 8.6948 0.0000 51.8560
#
#
#
# Elastic Compliance Matrix: (Units=1/GPa)
#
#
# Indices 1 2 3 4 5 6 
#
# 1 0.030963 -0.006112 -0.015401 0.000000 -0.012608 0.000000
# 2 -0.006112 0.015351 -0.005969 0.000000 0.000422 0.000000
# 3 -0.015401 -0.005969 0.030448 0.000000 -0.001309 0.000000
# 4 0.000000 0.000000 0.000000 0.039764 0.000000 -0.006667
# 5 -0.012608 0.000422 -0.001309 0.000000 0.028399 0.000000
# 6 0.000000 0.000000 0.000000 -0.006667 0.000000 0.020402
#
#
# Mechanical properties :
#
#
# Convention : Reuss Voigt Hill
#
# Bulk Modulus (GPa) = 45.87672 66.95828 56.41750
# Shear Modulus (GPa) = 21.97251 33.51754 27.74503
#
# Velocity S-wave (km/s) = 3.09857 3.82699 3.48188
# Velocity P-wave (km/s) = 5.73130 6.98469 6.38880
#
# Compressibility (1/GPa) = 0.02179755
#
# Stress axis : x y z
#
# Youngs Moduli (GPa) = 32.29631 65.14290 32.84320
#
# Poissons Ratio (x) = 0.39818 0.50581
# Poissons Ratio (y) = 0.19741 0.19604
# Poissons Ratio (z) = 0.49739 0.38884
#
# Static dielectric constant tensor:
#      x y z
#    x 1.465210 0.000000 -0.330010 
#    y 0.000000 1.959540 0.000000 
#    z -0.330010 0.000000 1.677710 
# 
# From -- ./inp_files/184812.got.cif
#   From: 2010.05.17/outbox.cif.g08.bks.cpg/sg15_93_cif.got.tgz:184812.got - 2010.06.03 18:47:42.
