data_PCOD9280050
_publ_section_title
;
Structure prediction by ZEFSAII (Michael W. Deem and Ramdas Pophale) SiO2 
 PCOD9280050
Probable space group: C 2/C
;
_chemical_formula_sum "Si O2"
_cell_formula_units_Z 44
_cell_length_a 9.584396
_cell_length_b 8.833392
_cell_length_c 19.133126
_cell_angle_alpha 90.000000
_cell_angle_beta 88.435340
_cell_angle_gamma 90.000000
_cell_volume 1619.258652
_symmetry_space_group_name_H-M "C 2/C"
_symmetry_group_IT_number 15
_symmetry_cell_setting 'monoclinic'
loop_
_space_group_symop_operation_xyz
x,y,z
-x,y,1/2-z
-x,-y,-z
x,-y,1/2+z
1/2+x,1/2+y,z
1/2-x,1/2+y,1/2-z
1/2-x,1/2-y,-z
1/2+x,1/2-y,1/2+z
loop_
_atom_site_type_symbol
_atom_site_label
_atom_site_fract_x
_atom_site_fract_y
_atom_site_fract_z
Si Si1 0.500000 0.031854 0.750000
Si Si2 0.147257 0.812727 0.804240
Si Si3 0.919884 0.377640 0.887813
Si Si4 0.261364 0.629512 0.560595
Si Si5 0.143833 0.121480 0.531955
Si Si6 0.834922 0.114780 0.345803
O O1 0.501203 0.928983 0.818515
O O2 0.620249 0.152953 0.767364
O O3 0.274344 0.824437 0.854459
O O4 0.179209 0.917747 0.736536
O O5 0.002360 0.850966 0.845122
O O6 0.880943 0.527124 0.931621
O O7 0.970651 0.236979 0.933207
O O8 0.250000 0.750000 0.500000
O O9 0.367815 0.499736 0.530838
O O10 0.249883 0.734371 0.629719
O O11 0.250000 0.250000 0.500000
O O12 0.193340 0.016488 0.596872
#
# Coordination Sequence:
#
# PCOD9280050 Si02
#       6
#     4   8   8   8   8   8
#     4  10  22  42  60  92 132 154 188 276 306 358
#     4  10  21  36  64  88 118 155 201 248 309 367
#     4  11  21  38  63  89 117 157 203 246 311 362
#     4   9  17  37  61  78 121 168 191 246 306 348
#     4   9  20  34  57  86 116 157 203 248 290 361
#     4   9  18  38  60  84 123 156 194 253 310 353
#
# _framework density 27.172927000000001
#
# number of rings (size 3 to 8) (size 9 to 14) (size 15 to 20)
#    0.000    2.545    3.636    0.000    2.545    1.455 
#    0.000    9.091    0.000    0.000    0.000    0.000 
#    0.000    0.000    0.000    0.000    0.000    0.000 
#
# Total GULP energy -122763.414441 kJ/mol
# GULP energy per Si atom -5580.155202 kJ/mol
# Density = 2.711108 g / cm^3
# Si number density = 27.172927 Si / 1000 Ang^3
#
#
#
# Elastic Constant Matrix: (Units=GPa)
#
#
# Indices 1 2 3 4 5 6 
#
# 1 85.1197 32.3674 32.4223 0.0000 3.2558 0.0000
# 2 32.3674 206.1317 88.1359 0.0000 -2.4527 0.0000
# 3 32.4223 88.1359 192.2053 0.0000 -21.1180 0.0000
# 4 0.0000 0.0000 0.0000 70.8129 0.0000 -0.2559
# 5 3.2558 -2.4527 -21.1180 0.0000 47.8278 0.0000
# 6 0.0000 0.0000 0.0000 -0.2559 0.0000 42.1292
#
#
#
# Elastic Compliance Matrix: (Units=1/GPa)
#
#
# Indices 1 2 3 4 5 6 
#
# 1 0.012988 -0.001296 -0.001788 0.000000 -0.001740 0.000000
# 2 -0.001296 0.006206 -0.002714 0.000000 -0.000792 0.000000
# 3 -0.001788 -0.002714 0.007091 0.000000 0.003114 0.000000
# 4 0.000000 0.000000 0.000000 0.014122 0.000000 0.000086
# 5 -0.001740 -0.000792 0.003114 0.000000 0.022361 0.000000
# 6 0.000000 0.000000 0.000000 0.000086 0.000000 0.023737
#
#
# Mechanical properties :
#
#
# Convention : Reuss Voigt Hill
#
# Bulk Modulus (GPa) = 68.07517 87.70088 77.88803
# Shear Modulus (GPa) = 48.54488 54.18939 51.36714
#
# Velocity S-wave (km/s) = 4.23131 4.47054 4.35257
# Velocity P-wave (km/s) = 6.99849 7.68068 7.34751
#
# Compressibility (1/GPa) = 0.01468964
#
# Stress axis : x y z
#
# Youngs Moduli (GPa) = 76.99128 161.14033 141.02326
#
# Poissons Ratio (x) = 0.20879 0.25215
# Poissons Ratio (y) = 0.09976 0.38275
# Poissons Ratio (z) = 0.13766 0.43735
#
# Static dielectric constant tensor:
#      x y z
#    x 2.239820 0.000000 -0.222350 
#    y 0.000000 2.154130 0.000000 
#    z -0.222350 0.000000 1.869600 
# 
# From -- ./inp_files/268131.got.cif
#   From: 2010.05.17/outbox.cif.g08.bks.cpg/sg15_135_cif.got.tgz:268131.got - 2010.06.03 18:47:42.
