data_PCOD9280181
_publ_section_title
;
Structure prediction by ZEFSAII (Michael W. Deem and Ramdas Pophale) SiO2 
 PCOD9280181
Probable space group: C 2/C
;
_chemical_formula_sum "Si O2"
_cell_formula_units_Z 40
_cell_length_a 15.124059
_cell_length_b 16.876267
_cell_length_c 18.526331
_cell_angle_alpha 90.000000
_cell_angle_beta 152.848059
_cell_angle_gamma 90.000000
_cell_volume 2157.912723
_symmetry_space_group_name_H-M "C 2/C"
_symmetry_group_IT_number 15
_symmetry_cell_setting 'monoclinic'
loop_
_space_group_symop_operation_xyz
x,y,z
-x,y,1/2-z
-x,-y,-z
x,-y,1/2+z
1/2+x,1/2+y,z
1/2-x,1/2+y,1/2-z
1/2-x,1/2-y,-z
1/2+x,1/2-y,1/2+z
loop_
_atom_site_type_symbol
_atom_site_label
_atom_site_fract_x
_atom_site_fract_y
_atom_site_fract_z
Si Si1 0.665898 0.490124 0.819489
Si Si2 0.079306 0.417458 0.886765
Si Si3 0.159538 0.754063 0.606993
Si Si4 0.671524 0.859986 0.668280
Si Si5 0.471894 0.654735 0.626525
O O1 0.500000 0.454094 0.750000
O O2 0.743731 0.430843 0.816206
O O3 0.573510 0.569481 0.715448
O O4 0.830677 0.515617 0.996050
O O5 0.000000 0.439271 0.750000
O O6 0.905810 0.385277 0.809067
O O7 0.258873 0.355751 0.007069
O O8 0.178224 0.792300 0.699443
O O9 0.368738 0.719482 0.733171
O O10 0.072329 0.816628 0.486718
O O11 0.013657 0.680093 0.503219
#
# Coordination Sequence:
#
# PCOD9280181 Si02
#       5
#     8   8   8   8   8
#     4  10  23  43  60  83 117 162 204 243 281 346
#     4  11  21  37  58  92 119 154 192 233 301 355
#     4  10  22  36  59  93 118 156 192 236 303 352
#     4  11  22  40  61  85 124 155 196 244 292 350
#     4  10  21  37  55  88 123 151 192 234 295 353
#
# _framework density 18.536431
#
# number of rings (size 3 to 8) (size 9 to 14) (size 15 to 20)
#    0.000    1.600    4.000    0.600    0.000    5.600 
#    0.000    1.000    0.000    0.000    0.000    0.000 
#    0.000    0.000    0.000    0.000    0.000    0.000 
#
# Total GULP energy -111439.684463 kJ/mol
# GULP energy per Si atom -5571.984223 kJ/mol
# Density = 1.849424 g / cm^3
# Si number density = 18.536431 Si / 1000 Ang^3
#
#
#
# Elastic Constant Matrix: (Units=GPa)
#
#
# Indices 1 2 3 4 5 6 
#
# 1 88.9691 72.6087 43.0289 -0.0021 -1.3386 0.0009
# 2 72.6087 68.8001 40.1401 0.0024 -3.7953 0.0014
# 3 43.0289 40.1401 116.5949 0.0050 -13.4122 0.0047
# 4 -0.0021 0.0024 0.0050 18.2094 0.0011 -7.2818
# 5 -1.3386 -3.7953 -13.4122 0.0011 16.9433 -0.0010
# 6 0.0009 0.0014 0.0047 -7.2818 -0.0010 27.8555
#
#
#
# Elastic Compliance Matrix: (Units=1/GPa)
#
#
# Indices 1 2 3 4 5 6 
#
# 1 0.084419 -0.088514 -0.002415 0.000026 -0.015069 0.000008
# 2 -0.088514 0.111011 -0.003846 -0.000028 0.014829 -0.000009
# 3 -0.002415 -0.003846 0.011740 -0.000004 0.008241 -0.000003
# 4 0.000026 -0.000028 -0.000004 0.061328 -0.000011 0.016032
# 5 -0.015069 0.014829 0.008241 -0.000011 0.067675 -0.000002
# 6 0.000008 -0.000009 -0.000003 0.016032 -0.000002 0.040091
#
#
# Mechanical properties :
#
#
# Convention : Reuss Voigt Hill
#
# Bulk Modulus (GPa) = 56.75709 65.10217 60.92963
# Shear Modulus (GPa) = 8.74604 20.50739 14.62672
#
# Velocity S-wave (km/s) = 2.17452 3.32976 2.81210
# Velocity P-wave (km/s) = 6.08197 7.06969 6.59435
#
# Compressibility (1/GPa) = 0.01761894
#
# Stress axis : x y z
#
# Youngs Moduli (GPa) = 11.84570 9.00811 85.17830
#
# Poissons Ratio (x) = 0.79735 0.20572
# Poissons Ratio (y) = 1.04851 0.32760
# Poissons Ratio (z) = 0.02861 0.03465
#
# Static dielectric constant tensor:
#      x y z
#    x 1.630760 0.000000 0.021760 
#    y 0.000000 1.661270 0.000000 
#    z 0.021760 0.000000 1.732370 
# 
# From -- ./inp_files/29079.got.cif
#   From: 2010.05.17/outbox.cif.g08.bks.cpg/sg15_15_cif.got.tgz:29079.got - 2010.06.03 18:47:42.
