data_PCOD9280658
_publ_section_title
;
Structure prediction by ZEFSAII (Michael W. Deem and Ramdas Pophale) SiO2 
 PCOD9280658
Probable space group: C 2/C
;
_chemical_formula_sum "Si O2"
_cell_formula_units_Z 44
_cell_length_a 18.371137
_cell_length_b 19.226883
_cell_length_c 5.583799
_cell_angle_alpha 90.000000
_cell_angle_beta 72.389046
_cell_angle_gamma 90.000000
_cell_volume 1879.871355
_symmetry_space_group_name_H-M "C 2/C"
_symmetry_group_IT_number 15
_symmetry_cell_setting 'monoclinic'
loop_
_space_group_symop_operation_xyz
x,y,z
-x,y,1/2-z
-x,-y,-z
x,-y,1/2+z
1/2+x,1/2+y,z
1/2-x,1/2+y,1/2-z
1/2-x,1/2-y,-z
1/2+x,1/2-y,1/2+z
loop_
_atom_site_type_symbol
_atom_site_label
_atom_site_fract_x
_atom_site_fract_y
_atom_site_fract_z
Si Si1 0.000000 0.815591 0.750000
Si Si2 0.072823 0.291173 0.800219
Si Si3 0.722688 0.825912 0.928204
Si Si4 0.875379 0.836971 0.518100
Si Si5 0.107434 0.973216 0.228530
Si Si6 0.218674 0.525122 0.547308
O O1 0.036025 0.764829 0.516420
O O2 0.068677 0.854142 0.816490
O O3 0.140686 0.324670 0.882552
O O4 0.112961 0.243172 0.559956
O O5 0.000000 0.329113 0.750000
O O6 0.788385 0.846503 0.675452
O O7 0.750000 0.750000 0.000000
O O8 0.721839 0.892364 0.103982
O O9 0.896015 0.889943 0.287374
O O10 0.075234 0.998668 0.510656
O O11 0.195822 0.997688 0.103151
O O12 0.182882 0.511982 0.316886
#
# Coordination Sequence:
#
# PCOD9280658 Si02
#       6
#     4   8   8   8   8   8
#     4  10  22  42  56  90 136 170 204 278 336 386
#     4  10  24  41  61  92 133 168 212 282 341 385
#     4  12  23  38  72 102 125 170 236 273 327 404
#     4  11  22  39  66  91 129 170 218 271 327 399
#     4  10  21  37  62  88 132 172 214 264 327 391
#     4  10  22  40  62  96 139 170 210 281 338 388
#
# _framework density 23.405856
#
# number of rings (size 3 to 8) (size 9 to 14) (size 15 to 20)
#    0.000    1.455    5.455    0.545    7.636    1.455 
#    0.000    0.909    0.000    1.091    0.000    0.000 
#    0.000    0.000    0.000    0.000    0.000    0.000 
#
# Total GULP energy -122780.195308 kJ/mol
# GULP energy per Si atom -5580.917969 kJ/mol
# Density = 2.335258 g / cm^3
# Si number density = 23.405856 Si / 1000 Ang^3
#
#
#
# Elastic Constant Matrix: (Units=GPa)
#
#
# Indices 1 2 3 4 5 6 
#
# 1 134.7754 11.4784 1.6145 0.0000 12.9588 0.0000
# 2 11.4784 96.9554 9.2319 0.0000 12.1160 0.0000
# 3 1.6145 9.2319 107.3532 0.0000 14.2467 0.0000
# 4 0.0000 0.0000 0.0000 9.6228 0.0000 24.3748
# 5 12.9588 12.1160 14.2467 0.0000 24.0823 0.0000
# 6 0.0000 0.0000 0.0000 24.3748 0.0000 2.0438
#
#
#
# Elastic Compliance Matrix: (Units=1/GPa)
#
#
# Indices 1 2 3 4 5 6 
#
# 1 0.007865 -0.000440 0.000490 0.000000 -0.004301 0.000000
# 2 -0.000440 0.011036 -0.000257 0.000000 -0.005163 0.000000
# 3 0.000490 -0.000257 0.010144 0.000000 -0.006135 0.000000
# 4 0.000000 0.000000 0.000000 -0.003558 0.000000 0.042430
# 5 -0.004301 -0.005163 -0.006135 0.000000 0.050066 0.000000
# 6 0.000000 0.000000 0.000000 0.042430 0.000000 -0.016751
#
#
# Mechanical properties :
#
#
# Convention : Reuss Voigt Hill
#
# Bulk Modulus (GPa) = 34.92814 42.63707 38.78261
# Shear Modulus (GPa) = 72.71695 28.26707 50.49201
#
# Velocity S-wave (km/s) = 5.57990 3.47896 4.64965
# Velocity P-wave (km/s) = 7.51458 5.86460 6.74027
#
# Compressibility (1/GPa) = 0.02863021
#
# Stress axis : x y z
#
# Youngs Moduli (GPa) = 127.14730 90.61372 98.58028
#
# Poissons Ratio (x) = 0.03990 -0.04834
# Poissons Ratio (y) = 0.05599 0.02536
# Poissons Ratio (z) = -0.06234 0.02331
#
# Static dielectric constant tensor:
#      x y z
#    x 1.911600 0.000000 0.085400 
#    y 0.000000 1.888370 0.000000 
#    z 0.085400 0.000000 1.966850 
# 
# From -- ./inp_files/10291.got.cif
#   From: 2010.05.17/outbox.cif.g08.bks.cpg/sg15_6_cif.got.tgz:10291.got - 2010.06.03 18:47:42.
