data_PCOD9281413
_publ_section_title
;
Structure prediction by ZEFSAII (Michael W. Deem and Ramdas Pophale) SiO2 
 PCOD9281413
Probable space group: C 2/C
;
_chemical_formula_sum "Si O2"
_cell_formula_units_Z 48
_cell_length_a 13.219396
_cell_length_b 21.103078
_cell_length_c 9.203104
_cell_angle_alpha 90.000000
_cell_angle_beta 114.437690
_cell_angle_gamma 90.000000
_cell_volume 2337.381408
_symmetry_space_group_name_H-M "C 2/C"
_symmetry_group_IT_number 15
_symmetry_cell_setting 'monoclinic'
loop_
_space_group_symop_operation_xyz
x,y,z
-x,y,1/2-z
-x,-y,-z
x,-y,1/2+z
1/2+x,1/2+y,z
1/2-x,1/2+y,1/2-z
1/2-x,1/2-y,-z
1/2+x,1/2-y,1/2+z
loop_
_atom_site_type_symbol
_atom_site_label
_atom_site_fract_x
_atom_site_fract_y
_atom_site_fract_z
Si Si1 0.417775 0.450739 0.368553
Si Si2 0.307267 0.529348 0.080733
Si Si3 0.332921 0.662365 0.210603
Si Si4 0.052011 0.189759 0.510091
Si Si5 0.421979 0.174217 0.344567
Si Si6 0.949687 0.557127 0.559339
O O1 0.500000 0.500000 0.500000
O O2 0.374971 0.469856 0.184025
O O3 0.313711 0.462005 0.412770
O O4 0.446653 0.377167 0.404153
O O5 0.361851 0.588554 0.198338
O O6 0.178906 0.538292 0.030446
O O7 0.432442 0.692122 0.360970
O O8 0.350362 0.689308 0.056174
O O9 0.213967 0.666161 0.221553
O O10 0.062946 0.251945 0.611889
O O11 0.500000 0.159736 0.250000
O O12 0.464648 0.125548 0.493141
O O13 0.000000 0.558458 0.750000
O O14 0.000000 0.500000 0.500000
#
# Coordination Sequence:
#
# PCOD9281413 Si02
#       6
#     8   8   8   8   8   8
#     4  11  20  36  62  93 127 166 208 263 329 378
#     4  10  21  38  61  92 125 163 214 268 312 384
#     4   9  20  41  64  87 127 177 217 269 319 391
#     4  10  21  40  65  92 132 174 222 261 329 399
#     4  11  25  42  65  97 135 166 220 278 326 391
#     4  11  24  45  68  93 127 174 221 265 325 389
#
# _framework density 20.535799000000001
#
# number of rings (size 3 to 8) (size 9 to 14) (size 15 to 20)
#    0.000    1.667    1.667    2.500    2.333    3.333 
#    3.000    0.000    0.000    0.000    0.000    0.000 
#    0.000    0.000    0.000    0.000    0.000    0.000 
#
# Total GULP energy -133627.179206 kJ/mol
# GULP energy per Si atom -5567.799134 kJ/mol
# Density = 2.048906 g / cm^3
# Si number density = 20.535799 Si / 1000 Ang^3
#
#
#
# Elastic Constant Matrix: (Units=GPa)
#
#
# Indices 1 2 3 4 5 6 
#
# 1 109.2602 17.5847 27.6264 0.0000 -12.4029 0.0000
# 2 17.5847 112.8250 41.2786 0.0000 -1.7826 0.0000
# 3 27.6264 41.2786 94.4212 0.0000 -7.1496 0.0000
# 4 0.0000 0.0000 0.0000 32.0736 0.0000 -2.3319
# 5 -12.4029 -1.7826 -7.1496 0.0000 24.7191 0.0000
# 6 0.0000 0.0000 0.0000 -2.3319 0.0000 18.3126
#
#
#
# Elastic Compliance Matrix: (Units=1/GPa)
#
#
# Indices 1 2 3 4 5 6 
#
# 1 0.010375 -0.000666 -0.002406 0.000000 0.004461 0.000000
# 2 -0.000666 0.010602 -0.004506 0.000000 -0.000873 0.000000
# 3 -0.002406 -0.004506 0.013443 0.000000 0.002356 0.000000
# 4 0.000000 0.000000 0.000000 0.031470 0.000000 0.004007
# 5 0.004461 -0.000873 0.002356 0.000000 0.043312 0.000000
# 6 0.000000 0.000000 0.000000 0.004007 0.000000 0.055118
#
#
# Mechanical properties :
#
#
# Convention : Reuss Voigt Hill
#
# Bulk Modulus (GPa) = 51.91422 54.38730 53.15076
# Shear Modulus (GPa) = 26.89666 30.35550 28.62608
#
# Velocity S-wave (km/s) = 3.62297 3.84887 3.73763
# Velocity P-wave (km/s) = 6.54492 6.80393 6.67568
#
# Compressibility (1/GPa) = 0.01926255
#
# Stress axis : x y z
#
# Youngs Moduli (GPa) = 96.38945 94.32240 74.38643
#
# Poissons Ratio (x) = 0.06282 0.17901
# Poissons Ratio (y) = 0.06420 0.33520
# Poissons Ratio (z) = 0.23196 0.42503
#
# Static dielectric constant tensor:
#      x y z
#    x 3.108360 0.000000 -0.194100 
#    y 0.000000 1.908440 0.000000 
#    z -0.194100 0.000000 1.761330 
# 
# From -- ./inp_files/32663.got.cif
#   From: 2010.05.17/outbox.cif.g08.bks.cpg/sg15_17_cif.got.tgz:32663.got - 2010.06.03 18:47:42.
