data_PCOD9281585
_publ_section_title
;
Structure prediction by ZEFSAII (Michael W. Deem and Ramdas Pophale) SiO2 
 PCOD9281585
Probable space group: C 2/C
;
_chemical_formula_sum "Si O2"
_cell_formula_units_Z 56
_cell_length_a 18.499836
_cell_length_b 7.964765
_cell_length_c 18.247590
_cell_angle_alpha 90.000000
_cell_angle_beta 73.939424
_cell_angle_gamma 90.000000
_cell_volume 2583.783212
_symmetry_space_group_name_H-M "C 2/C"
_symmetry_group_IT_number 15
_symmetry_cell_setting 'monoclinic'
loop_
_space_group_symop_operation_xyz
x,y,z
-x,y,1/2-z
-x,-y,-z
x,-y,1/2+z
1/2+x,1/2+y,z
1/2-x,1/2+y,1/2-z
1/2-x,1/2-y,-z
1/2+x,1/2-y,1/2+z
loop_
_atom_site_type_symbol
_atom_site_label
_atom_site_fract_x
_atom_site_fract_y
_atom_site_fract_z
Si Si1 0.089207 0.899751 0.007524
Si Si2 0.704995 0.108282 0.465801
Si Si3 0.538453 0.767102 0.024791
Si Si4 0.558912 0.078151 0.668861
Si Si5 0.202479 0.076890 0.343683
Si Si6 0.171745 0.314256 0.589987
Si Si7 0.703351 0.730504 0.185593
O O1 0.132351 0.931231 0.918859
O O2 0.030829 0.746300 0.011625
O O3 0.146591 0.849693 0.054652
O O4 0.049479 0.071117 0.041382
O O5 0.750000 0.250000 0.500000
O O6 0.619273 0.168001 0.474608
O O7 0.750619 0.100884 0.377783
O O8 0.696868 0.946770 0.519744
O O9 0.521539 0.869452 0.102745
O O10 0.500000 0.079870 0.750000
O O11 0.627335 0.207004 0.667151
O O12 0.600020 0.899949 0.648595
O O13 0.262736 0.192907 0.369388
O O14 0.185514 0.154182 0.269611
O O15 0.243058 0.895826 0.324281
#
# Coordination Sequence:
#
# PCOD9281585 Si02
#       7
#     8   8   8   8   8   8   8
#     4  11  22  39  59  92 120 156 203 250 298 362
#     4  11  18  41  65  83 116 160 203 246 300 365
#     4  10  21  38  63  84 119 156 198 248 296 363
#     4  10  21  41  60  84 118 158 197 247 308 366
#     4  11  23  39  58  90 124 155 202 251 300 367
#     4  10  23  39  63  90 118 161 203 256 296 362
#     4  11  23  38  60  89 120 157 200 251 307 355
#
# _framework density 21.673646000000002
#
# number of rings (size 3 to 8) (size 9 to 14) (size 15 to 20)
#    0.000    1.429    5.714    1.286    2.000    3.429 
#    5.143    0.714    0.000    0.000    0.000    0.000 
#    0.000    0.000    0.000    0.000    0.000    0.000 
#
# Total GULP energy -156596.849440 kJ/mol
# GULP energy per Si atom -5592.744623 kJ/mol
# Density = 2.162432 g / cm^3
# Si number density = 21.673646 Si / 1000 Ang^3
#
#
#
# Elastic Constant Matrix: (Units=GPa)
#
#
# Indices 1 2 3 4 5 6 
#
# 1 66.0230 0.1343 4.3107 0.0000 -9.5339 0.0000
# 2 0.1343 41.2343 4.5564 0.0000 0.9953 0.0000
# 3 4.3107 4.5564 96.0767 0.0000 -20.5780 0.0000
# 4 0.0000 0.0000 0.0000 20.9359 0.0000 3.9709
# 5 -9.5339 0.9953 -20.5780 0.0000 41.7534 0.0000
# 6 0.0000 0.0000 0.0000 3.9709 0.0000 27.3378
#
#
#
# Elastic Compliance Matrix: (Units=1/GPa)
#
#
# Indices 1 2 3 4 5 6 
#
# 1 0.015664 -0.000147 0.000079 0.000000 0.003619 0.000000
# 2 -0.000147 0.024443 -0.001436 0.000000 -0.001324 0.000000
# 3 0.000079 -0.001436 0.011721 0.000000 0.005829 0.000000
# 4 0.000000 0.000000 0.000000 0.049118 0.000000 -0.007135
# 5 0.003619 -0.001324 0.005829 0.000000 0.027681 0.000000
# 6 0.000000 0.000000 0.000000 -0.007135 0.000000 0.037616
#
#
# Mechanical properties :
#
#
# Convention : Reuss Voigt Hill
#
# Bulk Modulus (GPa) = 20.48329 24.59299 22.53814
# Shear Modulus (GPa) = 26.95063 30.96092 28.95578
#
# Velocity S-wave (km/s) = 3.53012 3.78366 3.65909
# Velocity P-wave (km/s) = 5.10754 5.51903 5.31727
#
# Compressibility (1/GPa) = 0.04882029
#
# Stress axis : x y z
#
# Youngs Moduli (GPa) = 63.84066 40.91189 85.31386
#
# Poissons Ratio (x) = 0.00602 -0.00677
# Poissons Ratio (y) = 0.00939 0.12253
# Poissons Ratio (z) = -0.00507 0.05876
#
# Static dielectric constant tensor:
#      x y z
#    x 1.823910 0.000000 -0.008500 
#    y 0.000000 1.821910 0.000000 
#    z -0.008500 0.000000 1.757930 
# 
# From -- ./inp_files/209503.got.cif
#   From: 2010.05.17/outbox.cif.g08.bks.cpg/sg15_105_cif.got.tgz:209503.got - 2010.06.03 18:47:42.
