data_PCOD9281434
_publ_section_title
;
Structure prediction by ZEFSAII (Michael W. Deem and Ramdas Pophale) SiO2 
 PCOD9281434
Probable space group: C 2/C
;
_chemical_formula_sum "Si O2"
_cell_formula_units_Z 44
_cell_length_a 9.308203
_cell_length_b 22.931487
_cell_length_c 11.975558
_cell_angle_alpha 90.000000
_cell_angle_beta 52.854911
_cell_angle_gamma 90.000000
_cell_volume 2037.565261
_symmetry_space_group_name_H-M "C 2/C"
_symmetry_group_IT_number 15
_symmetry_cell_setting 'monoclinic'
loop_
_space_group_symop_operation_xyz
x,y,z
-x,y,1/2-z
-x,-y,-z
x,-y,1/2+z
1/2+x,1/2+y,z
1/2-x,1/2+y,1/2-z
1/2-x,1/2-y,-z
1/2+x,1/2-y,1/2+z
loop_
_atom_site_type_symbol
_atom_site_label
_atom_site_fract_x
_atom_site_fract_y
_atom_site_fract_z
Si Si1 0.000000 0.029221 0.750000
Si Si2 0.500000 0.109610 0.250000
Si Si3 0.000000 0.406505 0.250000
Si Si4 0.137190 0.507659 0.334347
Si Si5 0.161574 0.132811 0.544777
Si Si6 0.435292 0.181044 0.592915
Si Si7 0.095024 0.241756 0.825287
O O1 0.163502 0.990503 0.713406
O O2 0.070046 0.071314 0.616621
O O3 0.313798 0.137122 0.379443
O O4 0.569593 0.066818 0.312921
O O5 0.130528 0.453636 0.249251
O O6 0.960709 0.361388 0.370405
O O7 0.000000 0.500000 0.500000
O O8 0.278437 0.145630 0.601431
O O9 0.012314 0.182065 0.594879
O O10 0.307197 0.228688 0.714236
O O11 0.551991 0.211517 0.441486
O O12 0.000000 0.256927 0.750000
#
# Coordination Sequence:
#
# PCOD9281434 Si02
#       7
#     4   4   4   8   8   8   8
#     4  12  20  42  67  85 131 165 216 262 326 392
#     4  11  24  36  67  94 124 163 218 275 322 376
#     4  11  22  42  66  87 141 172 204 277 330 382
#     4  11  23  44  63  98 127 172 219 267 326 392
#     4  11  20  38  62  93 123 166 216 263 320 383
#     4  11  22  38  62  91 128 172 213 268 328 380
#     4  10  21  38  61  95 126 168 224 264 317 393
#
# _framework density 21.594401000000001
#
# number of rings (size 3 to 8) (size 9 to 14) (size 15 to 20)
#    0.000    1.091    6.364    2.182    3.818    1.455 
#    3.273    0.000    0.000    0.000    0.000    0.000 
#    0.000    0.000    0.000    0.000    0.000    0.000 
#
# Total GULP energy -122704.892685 kJ/mol
# GULP energy per Si atom -5577.495122 kJ/mol
# Density = 2.154525 g / cm^3
# Si number density = 21.594401 Si / 1000 Ang^3
#
#
#
# Elastic Constant Matrix: (Units=GPa)
#
#
# Indices 1 2 3 4 5 6 
#
# 1 72.3406 1.4840 14.2475 0.0000 -5.1728 0.0000
# 2 1.4840 30.3283 14.5242 0.0000 -0.1790 0.0000
# 3 14.2475 14.5242 115.1834 0.0000 -13.9759 0.0000
# 4 0.0000 0.0000 0.0000 32.1918 0.0000 -3.3437
# 5 -5.1728 -0.1790 -13.9759 0.0000 30.0142 0.0000
# 6 0.0000 0.0000 0.0000 -3.3437 0.0000 14.5484
#
#
#
# Elastic Compliance Matrix: (Units=1/GPa)
#
#
# Indices 1 2 3 4 5 6 
#
# 1 0.014253 0.000060 -0.001561 0.000000 0.001730 0.000000
# 2 0.000060 0.035201 -0.004684 0.000000 -0.001961 0.000000
# 3 -0.001561 -0.004684 0.009994 0.000000 0.004357 0.000000
# 4 0.000000 0.000000 0.000000 0.031824 0.000000 0.007314
# 5 0.001730 -0.001961 0.004357 0.000000 0.035633 0.000000
# 6 0.000000 0.000000 0.000000 0.007314 0.000000 0.070417
#
#
# Mechanical properties :
#
#
# Convention : Reuss Voigt Hill
#
# Bulk Modulus (GPa) = 21.24065 30.92928 26.08496
# Shear Modulus (GPa) = 22.18430 27.85731 25.02080
#
# Velocity S-wave (km/s) = 3.20866 3.59559 3.40762
# Velocity P-wave (km/s) = 4.85642 5.62064 5.25245
#
# Compressibility (1/GPa) = 0.04707954
#
# Stress axis : x y z
#
# Youngs Moduli (GPa) = 70.15892 28.40808 100.05867
#
# Poissons Ratio (x) = -0.00171 0.15616
# Poissons Ratio (y) = -0.00423 0.46869
# Poissons Ratio (z) = 0.10950 0.13307
#
# Static dielectric constant tensor:
#      x y z
#    x 1.751160 0.000000 0.021180 
#    y 0.000000 1.906860 0.000000 
#    z 0.021180 0.000000 1.857530 
# 
# From -- ./inp_files/79735.got.cif
#   From: 2010.05.17/outbox.cif.g08.bks.cpg/sg15_40_cif.got.tgz:79735.got - 2010.06.03 18:47:42.
