data_PCOD9281916
_publ_section_title
;
Structure prediction by ZEFSAII (Michael W. Deem and Ramdas Pophale) SiO2 
 PCOD9281916
Probable space group: C 2/C
;
_chemical_formula_sum "Si O2"
_cell_formula_units_Z 64
_cell_length_a 31.175327
_cell_length_b 14.959041
_cell_length_c 10.288999
_cell_angle_alpha 90.000000
_cell_angle_beta 42.720755
_cell_angle_gamma 90.000000
_cell_volume 3255.294452
_symmetry_space_group_name_H-M "C 2/C"
_symmetry_group_IT_number 15
_symmetry_cell_setting 'monoclinic'
loop_
_space_group_symop_operation_xyz
x,y,z
-x,y,1/2-z
-x,-y,-z
x,-y,1/2+z
1/2+x,1/2+y,z
1/2-x,1/2+y,1/2-z
1/2-x,1/2-y,-z
1/2+x,1/2-y,1/2+z
loop_
_atom_site_type_symbol
_atom_site_label
_atom_site_fract_x
_atom_site_fract_y
_atom_site_fract_z
Si Si1 0.423551 0.945682 0.411227
Si Si2 0.751378 0.854572 0.033795
Si Si3 0.367545 0.517243 0.230538
Si Si4 0.930613 0.056968 0.340452
Si Si5 0.347613 0.000371 0.333430
Si Si6 0.660582 0.682087 0.666715
Si Si7 0.272909 0.830670 0.110843
Si Si8 0.074340 0.755835 0.560542
O O1 0.500000 0.951691 0.250000
O O2 0.396288 0.989642 0.342997
O O3 0.401913 0.841776 0.458294
O O4 0.388673 0.987452 0.612545
O O5 0.697657 0.914443 0.083014
O O6 0.739841 0.859943 0.214504
O O7 0.750000 0.750000 0.000000
O O8 0.817158 0.903812 0.853674
O O9 0.425109 0.531269 0.202967
O O10 0.338950 0.423948 0.348791
O O11 0.388551 0.499788 0.035702
O O12 0.904848 0.158476 0.404019
O O13 0.000000 0.055099 0.250000
O O14 0.305214 0.087885 0.459779
O O15 0.682607 0.743245 0.499443
O O16 0.709265 0.697938 0.677593
O O17 0.593727 0.716903 0.871026
O O18 0.000000 0.750214 0.750000
#
# Coordination Sequence:
#
# PCOD9281916 Si02
#       8
#     8   8   8   8   8   8   8   8
#     4  11  24  43  67  93 126 170 216 264 316 381
#     4  12  28  40  62  97 133 164 209 272 326 373
#     4  11  23  40  64  91 129 162 208 253 319 370
#     4  10  22  40  64  92 126 167 211 254 302 371
#     4  12  24  43  67  94 131 167 213 263 327 384
#     4  10  21  38  66  90 125 171 205 261 314 383
#     4  11  23  41  63  93 129 166 216 261 320 388
#     4   9  19  37  62  91 119 162 214 251 298 371
#
# _framework density 19.660281000000001
#
# number of rings (size 3 to 8) (size 9 to 14) (size 15 to 20)
#    0.000    1.250    3.750    2.250    5.250    0.000 
#    0.000    0.000    0.000    1.500    0.000    0.000 
#    0.000    0.000    0.000    0.000    0.000    0.000 
#
# Total GULP energy -178524.444730 kJ/mol
# GULP energy per Si atom -5578.888898 kJ/mol
# Density = 1.961553 g / cm^3
# Si number density = 19.660281 Si / 1000 Ang^3
#
#
#
# Elastic Constant Matrix: (Units=GPa)
#
#
# Indices 1 2 3 4 5 6 
#
# 1 85.6371 9.4478 39.7987 0.0000 -0.2193 0.0000
# 2 9.4478 92.1232 36.2147 0.0000 -16.5644 0.0000
# 3 39.7987 36.2147 79.4048 0.0000 -4.3571 0.0000
# 4 0.0000 0.0000 0.0000 30.1234 0.0000 -10.2640
# 5 -0.2193 -16.5644 -4.3571 0.0000 29.4123 0.0000
# 6 0.0000 0.0000 0.0000 -10.2640 0.0000 6.3039
#
#
#
# Elastic Compliance Matrix: (Units=1/GPa)
#
#
# Indices 1 2 3 4 5 6 
#
# 1 0.015460 0.001747 -0.008555 0.000000 -0.000168 0.000000
# 2 0.001747 0.014834 -0.007241 0.000000 0.007295 0.000000
# 3 -0.008555 -0.007241 0.020120 0.000000 -0.001161 0.000000
# 4 0.000000 0.000000 0.000000 0.074562 0.000000 0.121401
# 5 -0.000168 0.007295 -0.001161 0.000000 0.037934 0.000000
# 6 0.000000 0.000000 0.000000 0.121401 0.000000 0.356295
#
#
# Mechanical properties :
#
#
# Convention : Reuss Voigt Hill
#
# Bulk Modulus (GPa) = 44.80877 47.56527 46.18702
# Shear Modulus (GPa) = 9.01323 24.61485 16.81404
#
# Velocity S-wave (km/s) = 2.14346 3.54221 2.92760
# Velocity P-wave (km/s) = 5.38209 6.40123 5.91366
#
# Compressibility (1/GPa) = 0.02231706
#
# Stress axis : x y z
#
# Youngs Moduli (GPa) = 64.68438 67.41303 49.70151
#
# Poissons Ratio (x) = -0.11779 0.42518
# Poissons Ratio (y) = -0.11302 0.35988
# Poissons Ratio (z) = 0.55336 0.48813
#
# Static dielectric constant tensor:
#      x y z
#    x 1.691220 0.000000 -0.032650 
#    y 0.000000 1.701900 0.000000 
#    z -0.032650 0.000000 1.723920 
# 
# From -- ./inp_files/70139.got.cif
#   From: 2010.05.17/outbox.cif.g08.bks.cpg/sg15_36_cif.got.tgz:70139.got - 2010.06.03 18:47:42.
