data_PCOD9281801
_publ_section_title
;
Structure prediction by ZEFSAII (Michael W. Deem and Ramdas Pophale) SiO2 
 PCOD9281801
Probable space group: C 2/C
;
_chemical_formula_sum "Si O2"
_cell_formula_units_Z 60
_cell_length_a 17.406137
_cell_length_b 15.425776
_cell_length_c 14.515941
_cell_angle_alpha 90.000000
_cell_angle_beta 53.255797
_cell_angle_gamma 90.000000
_cell_volume 3123.183704
_symmetry_space_group_name_H-M "C 2/C"
_symmetry_group_IT_number 15
_symmetry_cell_setting 'monoclinic'
loop_
_space_group_symop_operation_xyz
x,y,z
-x,y,1/2-z
-x,-y,-z
x,-y,1/2+z
1/2+x,1/2+y,z
1/2-x,1/2+y,1/2-z
1/2-x,1/2-y,-z
1/2+x,1/2-y,1/2+z
loop_
_atom_site_type_symbol
_atom_site_label
_atom_site_fract_x
_atom_site_fract_y
_atom_site_fract_z
Si Si1 0.060286 0.654766 0.863903
Si Si2 0.937362 0.271545 0.618865
Si Si3 0.276843 0.953339 0.313828
Si Si4 0.500000 0.128193 0.250000
Si Si5 0.943931 0.091382 0.539770
Si Si6 0.108745 0.471083 0.081080
Si Si7 0.221183 0.602157 0.328857
Si Si8 0.564985 0.662196 0.287182
O O1 0.161645 0.607348 0.798243
O O2 0.075269 0.734507 0.783798
O O3 0.984000 0.588283 0.874243
O O4 0.018232 0.688569 0.991348
O O5 0.944550 0.166947 0.617228
O O6 0.839375 0.309428 0.643271
O O7 0.947489 0.312788 0.712276
O O8 0.166708 0.927811 0.399566
O O9 0.327795 0.945164 0.376124
O O10 0.282324 0.048198 0.263648
O O11 0.567640 0.064589 0.140504
O O12 0.998638 0.140628 0.420450
O O13 0.000000 0.000000 0.500000
O O14 0.171700 0.455411 0.944394
O O15 0.330445 0.620935 0.278547
O O16 0.500000 0.632131 0.250000
#
# Coordination Sequence:
#
# PCOD9281801 Si02
#       8
#     8   8   8   4   8   8   8   8
#     4  10  21  38  64  96 127 161 206 278 330 376
#     4  10  23  40  64  96 128 169 213 266 327 376
#     4  12  20  38  64  90 129 167 212 260 323 383
#     4  12  20  40  64  96 134 158 206 266 320 390
#     4  11  24  43  61  85 126 178 216 254 312 378
#     4  11  21  36  65 100 126 161 211 266 338 380
#     4  11  22  38  62  96 130 167 212 265 322 385
#     4  11  22  40  62  89 127 164 220 270 313 371
#
# _framework density 19.211165999999999
#
# number of rings (size 3 to 8) (size 9 to 14) (size 15 to 20)
#    0.000    1.067    4.000    3.200    0.000    2.133 
#    1.200    5.333    0.000    5.600    0.000    0.000 
#    0.000    0.000    0.000    0.000    0.000    0.000 
#
# Total GULP energy -167256.347045 kJ/mol
# GULP energy per Si atom -5575.211568 kJ/mol
# Density = 1.916744 g / cm^3
# Si number density = 19.211166 Si / 1000 Ang^3
#
#
#
# Elastic Constant Matrix: (Units=GPa)
#
#
# Indices 1 2 3 4 5 6 
#
# 1 97.3129 40.2147 50.4779 0.0000 -16.8846 0.0000
# 2 40.2147 109.1466 30.9476 0.0000 -3.8326 0.0000
# 3 50.4779 30.9476 79.6355 0.0000 -15.2415 0.0000
# 4 0.0000 0.0000 0.0000 -0.1694 0.0000 -1.5196
# 5 -16.8846 -3.8326 -15.2415 0.0000 45.1862 0.0000
# 6 0.0000 0.0000 0.0000 -1.5196 0.0000 22.5298
#
#
#
# Elastic Compliance Matrix: (Units=1/GPa)
#
#
# Indices 1 2 3 4 5 6 
#
# 1 0.016791 -0.003627 -0.008650 0.000000 0.003049 0.000000
# 2 -0.003627 0.011091 -0.002235 0.000000 -0.001168 0.000000
# 3 -0.008650 -0.002235 0.019514 0.000000 0.003160 0.000000
# 4 0.000000 0.000000 0.000000 -3.677725 0.000000 -0.248056
# 5 0.003049 -0.001168 0.003160 0.000000 0.024237 0.000000
# 6 0.000000 0.000000 0.000000 -0.248056 0.000000 0.027655
#
#
# Mechanical properties :
#
#
# Convention : Reuss Voigt Hill
#
# Bulk Modulus (GPa) = 54.43131 58.81950 56.62541
# Shear Modulus (GPa) = -1.41112 24.47297 11.53093
#
# Velocity S-wave (km/s) = -0.85798 3.57304 2.45260
# Velocity P-wave (km/s) = 5.23576 6.90695 6.12858
#
# Compressibility (1/GPa) = 0.01837178
#
# Stress axis : x y z
#
# Youngs Moduli (GPa) = 59.55609 90.16391 51.24653
#
# Poissons Ratio (x) = 0.32701 0.44329
# Poissons Ratio (y) = 0.21600 0.11453
# Poissons Ratio (z) = 0.51517 0.20150
#
# Static dielectric constant tensor:
#      x y z
#    x 1.656140 0.000000 0.016550 
#    y 0.000000 1.734770 0.000000 
#    z 0.016550 0.000000 1.683910 
# 
# From -- ./inp_files/154229.got.cif
#   From: 2010.05.17/outbox.cif.g08.bks.cpg/sg15_78_cif.got.tgz:154229.got - 2010.06.03 18:47:42.
