data_PCOD9281180
_publ_section_title
;
Structure prediction by ZEFSAII (Michael W. Deem and Ramdas Pophale) SiO2 
 PCOD9281180
Probable space group: C 2/C
;
_chemical_formula_sum "Si O2"
_cell_formula_units_Z 40
_cell_length_a 6.856405
_cell_length_b 23.226359
_cell_length_c 12.439375
_cell_angle_alpha 90.000000
_cell_angle_beta 69.965543
_cell_angle_gamma 90.000000
_cell_volume 1861.087635
_symmetry_space_group_name_H-M "C 2/C"
_symmetry_group_IT_number 15
_symmetry_cell_setting 'monoclinic'
loop_
_space_group_symop_operation_xyz
x,y,z
-x,y,1/2-z
-x,-y,-z
x,-y,1/2+z
1/2+x,1/2+y,z
1/2-x,1/2+y,1/2-z
1/2-x,1/2-y,-z
1/2+x,1/2-y,1/2+z
loop_
_atom_site_type_symbol
_atom_site_label
_atom_site_fract_x
_atom_site_fract_y
_atom_site_fract_z
Si Si1 0.500000 0.189554 0.250000
Si Si2 0.000000 0.872994 0.250000
Si Si3 0.077391 0.357908 0.967000
Si Si4 0.447374 0.569113 0.384978
Si Si5 0.786169 0.054585 0.966135
Si Si6 0.355393 0.219532 0.676044
O O1 0.439507 0.154823 0.155948
O O2 0.300602 0.228467 0.319324
O O3 0.045673 0.912503 0.139192
O O4 0.198317 0.832739 0.233935
O O5 0.311602 0.376308 0.946867
O O6 0.926067 0.412172 0.017490
O O7 0.993883 0.304104 0.051617
O O8 0.500000 0.573261 0.250000
O O9 0.647392 0.562282 0.422665
O O10 0.308945 0.511896 0.430990
O O11 0.500000 0.233340 0.750000
#
# Coordination Sequence:
#
# PCOD9281180 Si02
#       6
#     4   4   8   8   8   8
#     4  11  24  40  60  88 120 154 200 251 292 340
#     4   9  18  38  60  86 124 152 196 241 288 346
#     4  11  23  40  61  87 119 156 196 243 295 348
#     4  11  22  37  60  89 120 157 195 236 291 352
#     4  10  21  38  59  87 121 157 192 239 289 351
#     4  10  22  39  62  88 115 158 200 244 294 347
#
# _framework density 21.492809999999999
#
# number of rings (size 3 to 8) (size 9 to 14) (size 15 to 20)
#    0.000    1.600    1.000    3.600    0.000    3.200 
#    0.000    0.000    0.000    0.000    0.000    0.000 
#    0.000    0.000    0.000    0.000    0.000    0.000 
#
# Total GULP energy -111804.012541 kJ/mol
# GULP energy per Si atom -5590.200627 kJ/mol
# Density = 2.144389 g / cm^3
# Si number density = 21.492810 Si / 1000 Ang^3
#
#
#
# Elastic Constant Matrix: (Units=GPa)
#
#
# Indices 1 2 3 4 5 6 
#
# 1 55.7137 6.1163 9.3852 0.0000 -1.9374 0.0000
# 2 6.1163 28.3177 -15.2369 0.0000 -13.7829 0.0000
# 3 9.3852 -15.2369 81.0786 0.0000 -4.5371 0.0000
# 4 0.0000 0.0000 0.0000 19.2952 0.0000 -3.2354
# 5 -1.9374 -13.7829 -4.5371 0.0000 22.0361 0.0000
# 6 0.0000 0.0000 0.0000 -3.2354 0.0000 -7.1681
#
#
#
# Elastic Compliance Matrix: (Units=1/GPa)
#
#
# Indices 1 2 3 4 5 6 
#
# 1 0.019432 -0.008623 -0.004124 0.000000 -0.004534 0.000000
# 2 -0.008623 0.067844 0.016267 0.000000 0.045026 0.000000
# 3 -0.004124 0.016267 0.016609 0.000000 0.013232 0.000000
# 4 0.000000 0.000000 0.000000 0.048180 0.000000 -0.021746
# 5 -0.004534 0.045026 0.013232 0.000000 0.075868 0.000000
# 6 0.000000 0.000000 0.000000 -0.021746 0.000000 -0.129691
#
#
# Mechanical properties :
#
#
# Convention : Reuss Voigt Hill
#
# Bulk Modulus (GPa) = 9.01487 18.40435 13.70961
# Shear Modulus (GPa) = 39.00907 17.82233 28.41570
#
# Velocity S-wave (km/s) = 4.26488 2.88275 3.64002
# Velocity P-wave (km/s) = 5.33440 4.43418 4.90498
#
# Compressibility (1/GPa) = 0.11092783
#
# Stress axis : x y z
#
# Youngs Moduli (GPa) = 51.46027 14.73967 60.20982
#
# Poissons Ratio (x) = 0.12709 0.24828
# Poissons Ratio (y) = 0.44372 -0.97946
# Poissons Ratio (z) = 0.21220 -0.23978
#
# Static dielectric constant tensor:
#      x y z
#    x 1.797330 0.000000 -0.013040 
#    y 0.000000 1.767910 0.000000 
#    z -0.013040 0.000000 1.745240 
# 
# From -- ./inp_files/73123.got.cif
#   From: 2010.05.17/outbox.cif.g08.bks.cpg/sg15_37_cif.got.tgz:73123.got - 2010.06.03 18:47:42.
