data_PCOD9281358
_publ_section_title
;
Structure prediction by ZEFSAII (Michael W. Deem and Ramdas Pophale) SiO2 
 PCOD9281358
Probable space group: C 2/C
;
_chemical_formula_sum "Si O2"
_cell_formula_units_Z 52
_cell_length_a 14.629001
_cell_length_b 14.163422
_cell_length_c 11.087634
_cell_angle_alpha 90.000000
_cell_angle_beta 113.306932
_cell_angle_gamma 90.000000
_cell_volume 2109.856514
_symmetry_space_group_name_H-M "C 2/C"
_symmetry_group_IT_number 15
_symmetry_cell_setting 'monoclinic'
loop_
_space_group_symop_operation_xyz
x,y,z
-x,y,1/2-z
-x,-y,-z
x,-y,1/2+z
1/2+x,1/2+y,z
1/2-x,1/2+y,1/2-z
1/2-x,1/2-y,-z
1/2+x,1/2-y,1/2+z
loop_
_atom_site_type_symbol
_atom_site_label
_atom_site_fract_x
_atom_site_fract_y
_atom_site_fract_z
Si Si1 0.325174 0.120254 0.957199
Si Si2 0.185769 0.062533 0.209707
Si Si3 0.868844 0.587063 0.482306
Si Si4 0.128758 0.822327 0.453304
Si Si5 0.000000 0.123908 0.250000
Si Si6 0.238636 0.633431 0.833293
Si Si7 0.059808 0.772831 0.028711
O O1 0.202771 0.117589 0.907988
O O2 0.332910 0.140276 0.819030
O O3 0.381126 0.023830 0.019693
O O4 0.352378 0.210595 0.051337
O O5 0.284728 0.080134 0.336519
O O6 0.091558 0.062771 0.248696
O O7 0.203442 0.966583 0.145516
O O8 0.166570 0.145345 0.104858
O O9 0.824005 0.634347 0.578238
O O10 0.953158 0.659283 0.481667
O O11 0.009735 0.825592 0.409091
O O12 0.036502 0.184573 0.384338
O O13 0.325419 0.709761 0.880598
#
# Coordination Sequence:
#
# PCOD9281358 Si02
#       7
#     8   8   8   8   4   8   8
#     4  10  23  41  65  83 125 163 211 246 316 364
#     4  10  21  38  61  87 123 155 207 251 314 359
#     4  11  22  40  61  94 116 166 206 260 298 375
#     4  10  22  42  60  91 120 163 200 258 310 376
#     4  10  22  36  58  92 120 160 192 270 304 370
#     4  11  22  37  63  90 120 164 200 254 298 379
#     4  11  24  37  64  90 128 150 212 253 317 352
#
# _framework density 24.646227
#
# number of rings (size 3 to 8) (size 9 to 14) (size 15 to 20)
#    0.000    1.538    3.077    1.385    4.308    6.154 
#    0.000    0.000    0.000    0.000    0.000    0.000 
#    0.000    0.000    0.000    0.000    0.000    0.000 
#
# Total GULP energy -145316.838122 kJ/mol
# GULP energy per Si atom -5589.109159 kJ/mol
# Density = 2.459013 g / cm^3
# Si number density = 24.646227 Si / 1000 Ang^3
#
#
#
# Elastic Constant Matrix: (Units=GPa)
#
#
# Indices 1 2 3 4 5 6 
#
# 1 54.7105 11.8791 6.6836 0.0000 -7.9135 0.0000
# 2 11.8791 97.8405 -7.5627 0.0000 1.7508 0.0000
# 3 6.6836 -7.5627 33.0635 0.0000 -5.0812 0.0000
# 4 0.0000 0.0000 0.0000 20.5179 0.0000 -0.6040
# 5 -7.9135 1.7508 -5.0812 0.0000 26.8266 0.0000
# 6 0.0000 0.0000 0.0000 -0.6040 0.0000 36.4663
#
#
#
# Elastic Compliance Matrix: (Units=1/GPa)
#
#
# Indices 1 2 3 4 5 6 
#
# 1 0.020151 -0.002844 -0.003895 0.000000 0.005392 0.000000
# 2 -0.002844 0.010808 0.002894 0.000000 -0.000996 0.000000
# 3 -0.003895 0.002894 0.032433 0.000000 0.004805 0.000000
# 4 0.000000 0.000000 0.000000 0.048762 0.000000 0.000808
# 5 0.005392 -0.000996 0.004805 0.000000 0.039842 0.000000
# 6 0.000000 0.000000 0.000000 0.000808 0.000000 0.027436
#
#
# Mechanical properties :
#
#
# Convention : Reuss Voigt Hill
#
# Bulk Modulus (GPa) = 17.95327 23.06828 20.51077
# Shear Modulus (GPa) = 24.30845 28.40312 26.35579
#
# Velocity S-wave (km/s) = 3.14394 3.39843 3.27366
# Velocity P-wave (km/s) = 4.52541 4.97787 4.75702
#
# Compressibility (1/GPa) = 0.05570016
#
# Stress axis : x y z
#
# Youngs Moduli (GPa) = 49.62434 92.52785 30.83309
#
# Poissons Ratio (x) = 0.26317 0.12011
# Poissons Ratio (y) = 0.14114 -0.08923
# Poissons Ratio (z) = 0.19331 -0.26777
#
# Static dielectric constant tensor:
#      x y z
#    x 2.017500 0.000000 0.002020 
#    y 0.000000 2.044190 0.000000 
#    z 0.002020 0.000000 1.887130 
# 
# From -- ./inp_files/97117.got.cif
#   From: 2010.05.17/outbox.cif.g08.bks.cpg/sg15_49_cif.got.tgz:97117.got - 2010.06.03 18:47:42.
