data_PCOD9281480
_publ_section_title
;
Structure prediction by ZEFSAII (Michael W. Deem and Ramdas Pophale) SiO2 
 PCOD9281480
Probable space group: C 2/C
;
_chemical_formula_sum "Si O2"
_cell_formula_units_Z 44
_cell_length_a 4.882266
_cell_length_b 34.975911
_cell_length_c 12.005344
_cell_angle_alpha 90.000000
_cell_angle_beta 83.524592
_cell_angle_gamma 90.000000
_cell_volume 2036.974348
_symmetry_space_group_name_H-M "C 2/C"
_symmetry_group_IT_number 15
_symmetry_cell_setting 'monoclinic'
loop_
_space_group_symop_operation_xyz
x,y,z
-x,y,1/2-z
-x,-y,-z
x,-y,1/2+z
1/2+x,1/2+y,z
1/2-x,1/2+y,1/2-z
1/2-x,1/2-y,-z
1/2+x,1/2-y,1/2+z
loop_
_atom_site_type_symbol
_atom_site_label
_atom_site_fract_x
_atom_site_fract_y
_atom_site_fract_z
Si Si1 0.000000 0.000000 0.500000
Si Si2 0.589515 0.729123 0.870843
Si Si3 0.090403 0.923837 0.871018
Si Si4 0.948540 0.301162 0.007374
Si Si5 0.945962 0.390358 0.511234
Si Si6 0.278580 0.946022 0.171627
O O1 0.936328 0.968400 0.600274
O O2 0.800490 0.975427 0.421924
O O3 0.500000 0.721783 0.750000
O O4 0.889850 0.715032 0.892066
O O5 0.373771 0.706683 0.959912
O O6 0.553897 0.773724 0.903600
O O7 0.869462 0.903089 0.962505
O O8 0.000000 0.915574 0.750000
O O9 0.387377 0.908367 0.892662
O O10 0.015340 0.345240 0.990216
O O11 0.076142 0.410173 0.395827
O O12 0.500000 0.961868 0.250000
O O13 0.000000 0.935809 0.250000
#
# Coordination Sequence:
#
# PCOD9281480 Si02
#       6
#     4   8   8   8   8   8
#     4  10  24  44  64  90 126 160 208 262 300 366
#     4  10  21  38  62  89 117 159 199 237 295 354
#     4  11  24  41  64  90 121 162 204 249 308 362
#     4  10  22  40  60  88 124 153 196 249 291 352
#     4  11  24  42  61  92 127 157 202 255 302 362
#     4  11  24  41  64  92 123 164 207 253 312 365
#
# _framework density 21.600663000000001
#
# number of rings (size 3 to 8) (size 9 to 14) (size 15 to 20)
#    0.000    1.455    0.000    4.909    0.000   11.636 
#    0.000    0.000    0.000    0.000    0.000    0.000 
#    0.000    0.000    0.000    0.000    0.000    0.000 
#
# Total GULP energy -122534.587801 kJ/mol
# GULP energy per Si atom -5569.753991 kJ/mol
# Density = 2.155150 g / cm^3
# Si number density = 21.600663 Si / 1000 Ang^3
#
#
#
# Elastic Constant Matrix: (Units=GPa)
#
#
# Indices 1 2 3 4 5 6 
#
# 1 72.3411 2.8995 -3.1743 0.0000 -7.8153 0.0000
# 2 2.8995 84.9634 -7.0672 0.0000 -6.9667 0.0000
# 3 -3.1743 -7.0672 55.1803 0.0000 3.9505 0.0000
# 4 0.0000 0.0000 0.0000 0.0221 0.0000 -4.6090
# 5 -7.8153 -6.9667 3.9505 0.0000 32.6209 0.0000
# 6 0.0000 0.0000 0.0000 -4.6090 0.0000 -8.1912
#
#
#
# Elastic Compliance Matrix: (Units=1/GPa)
#
#
# Indices 1 2 3 4 5 6 
#
# 1 0.014211 -0.000168 0.000560 0.000000 0.003301 0.000000
# 2 -0.000168 0.012084 0.001368 0.000000 0.002375 0.000000
# 3 0.000560 0.001368 0.018459 0.000000 -0.001809 0.000000
# 4 0.000000 0.000000 0.000000 0.382341 0.000000 -0.215134
# 5 0.003301 0.002375 -0.001809 0.000000 0.032172 0.000000
# 6 0.000000 0.000000 0.000000 -0.215134 0.000000 -0.001031
#
#
# Mechanical properties :
#
#
# Convention : Reuss Voigt Hill
#
# Bulk Modulus (GPa) = 20.71485 21.97786 21.34635
# Shear Modulus (GPa) = 10.62001 19.54546 15.08274
#
# Velocity S-wave (km/s) = 2.21973 3.01134 2.64532
# Velocity P-wave (km/s) = 4.02248 4.72098 4.38566
#
# Compressibility (1/GPa) = 0.04827455
#
# Stress axis : x y z
#
# Youngs Moduli (GPa) = 70.36641 82.75391 54.17315
#
# Poissons Ratio (x) = 0.01388 -0.03032
# Poissons Ratio (y) = 0.01180 -0.07411
# Poissons Ratio (z) = -0.03938 -0.11321
#
# Static dielectric constant tensor:
#      x y z
#    x 1.774810 0.000000 -0.016780 
#    y 0.000000 1.741430 0.000000 
#    z -0.016780 0.000000 1.807310 
# 
# From -- ./inp_files/73881.got.cif
#   From: 2010.05.17/outbox.cif.g08.bks.cpg/sg15_37_cif.got.tgz:73881.got - 2010.06.03 18:47:42.
