data_PCOD9281592
_publ_section_title
;
Structure prediction by ZEFSAII (Michael W. Deem and Ramdas Pophale) SiO2 
 PCOD9281592
Probable space group: C 2/C
;
_chemical_formula_sum "Si O2"
_cell_formula_units_Z 56
_cell_length_a 18.268239
_cell_length_b 9.560297
_cell_length_c 28.789297
_cell_angle_alpha 90.000000
_cell_angle_beta 34.678383
_cell_angle_gamma 90.000000
_cell_volume 2860.803057
_symmetry_space_group_name_H-M "C 2/C"
_symmetry_group_IT_number 15
_symmetry_cell_setting 'monoclinic'
loop_
_space_group_symop_operation_xyz
x,y,z
-x,y,1/2-z
-x,-y,-z
x,-y,1/2+z
1/2+x,1/2+y,z
1/2-x,1/2+y,1/2-z
1/2-x,1/2-y,-z
1/2+x,1/2-y,1/2+z
loop_
_atom_site_type_symbol
_atom_site_label
_atom_site_fract_x
_atom_site_fract_y
_atom_site_fract_z
Si Si1 0.635746 0.617735 0.021188
Si Si2 0.610982 0.205361 0.050352
Si Si3 0.791117 0.878911 0.578899
Si Si4 0.342647 0.543310 0.156766
Si Si5 0.148349 0.892153 0.180825
Si Si6 0.209650 0.576798 0.467732
Si Si7 0.161884 0.797926 0.275659
O O1 0.489876 0.568837 0.093768
O O2 0.680534 0.606813 0.051040
O O3 0.727236 0.512295 0.944563
O O4 0.645224 0.773117 0.995641
O O5 0.488087 0.252363 0.143507
O O6 0.750000 0.250000 0.000000
O O7 0.606198 0.285327 0.003303
O O8 0.616397 0.040513 0.038351
O O9 0.833387 0.937952 0.606297
O O10 0.679031 0.765367 0.645968
O O11 0.251064 0.662382 0.225859
O O12 0.305721 0.393935 0.197217
O O13 0.180101 0.885790 0.218725
O O14 0.000000 0.923861 0.250000
O O15 0.231690 0.002736 0.108121
#
# Coordination Sequence:
#
# PCOD9281592 Si02
#       7
#     8   8   8   8   8   8   8
#     4  11  21  40  62  88 122 157 200 255 296 358
#     4  11  19  39  67  88 113 161 209 252 285 360
#     4  10  21  38  63  87 111 163 208 234 299 358
#     4  11  24  41  58  89 126 163 194 251 300 377
#     4  10  21  39  60  89 118 152 205 256 295 362
#     4  10  23  37  64  92 116 155 207 248 307 349
#     4  11  24  38  61  90 123 162 197 245 320 345
#
# _framework density 19.574923999999999
#
# number of rings (size 3 to 8) (size 9 to 14) (size 15 to 20)
#    0.000    1.429    2.857    3.000    2.000    1.143 
#    0.000    2.857    0.000    0.000    0.000    0.000 
#    0.000    0.000    0.000    0.000    0.000    0.000 
#
# Total GULP energy -156267.719298 kJ/mol
# GULP energy per Si atom -5580.989975 kJ/mol
# Density = 1.953037 g / cm^3
# Si number density = 19.574924 Si / 1000 Ang^3
#
#
#
# Elastic Constant Matrix: (Units=GPa)
#
#
# Indices 1 2 3 4 5 6 
#
# 1 28.5466 -2.6396 22.4672 0.0000 7.3199 -0.0002
# 2 -2.6396 111.9859 28.3370 0.0000 8.3379 -0.0003
# 3 22.4672 28.3370 88.9067 0.0000 12.3485 0.0000
# 4 0.0000 0.0000 0.0000 26.6638 0.0000 10.2359
# 5 7.3199 8.3379 12.3485 0.0000 21.6184 0.0001
# 6 -0.0002 -0.0003 0.0000 10.2359 0.0001 25.6042
#
#
#
# Elastic Compliance Matrix: (Units=1/GPa)
#
#
# Indices 1 2 3 4 5 6 
#
# 1 0.047952 0.005045 -0.012166 0.000000 -0.011233 0.000001
# 2 0.005045 0.010337 -0.004104 0.000000 -0.003351 0.000000
# 3 -0.012166 -0.004104 0.016117 0.000000 -0.003504 0.000000
# 4 0.000000 0.000000 0.000000 0.044303 0.000000 -0.017711
# 5 -0.011233 -0.003351 -0.003504 0.000000 0.053354 0.000000
# 6 0.000001 0.000000 0.000000 -0.017711 0.000000 0.046137
#
#
# Mechanical properties :
#
#
# Convention : Reuss Voigt Hill
#
# Bulk Modulus (GPa) = 19.24696 36.19649 27.72173
# Shear Modulus (GPa) = 19.38228 26.86223 23.12226
#
# Velocity S-wave (km/s) = 3.15009 3.70845 3.44061
# Velocity P-wave (km/s) = 4.80464 6.07192 5.47507
#
# Compressibility (1/GPa) = 0.05195625
#
# Stress axis : x y z
#
# Youngs Moduli (GPa) = 20.85416 96.74382 62.04713
#
# Poissons Ratio (x) = -0.48807 0.75484
# Poissons Ratio (y) = -0.10521 0.25465
# Poissons Ratio (z) = 0.25370 0.39704
#
# Static dielectric constant tensor:
#      x y z
#    x 1.696030 0.000000 0.026160 
#    y 0.000000 1.699470 0.000000 
#    z 0.026160 0.000000 1.690940 
# 
# From -- ./inp_files/209657.got.cif
#   From: 2010.05.17/outbox.cif.g08.bks.cpg/sg15_105_cif.got.tgz:209657.got - 2010.06.03 18:47:42.
