data_PCOD9281211
_publ_section_title
;
Structure prediction by ZEFSAII (Michael W. Deem and Ramdas Pophale) SiO2 
 PCOD9281211
Probable space group: C 2/C
;
_chemical_formula_sum "Si O2"
_cell_formula_units_Z 56
_cell_length_a 6.842084
_cell_length_b 28.724767
_cell_length_c 14.127943
_cell_angle_alpha 90.000000
_cell_angle_beta 88.523961
_cell_angle_gamma 90.000000
_cell_volume 2775.745989
_symmetry_space_group_name_H-M "C 2/C"
_symmetry_group_IT_number 15
_symmetry_cell_setting 'monoclinic'
loop_
_space_group_symop_operation_xyz
x,y,z
-x,y,1/2-z
-x,-y,-z
x,-y,1/2+z
1/2+x,1/2+y,z
1/2-x,1/2+y,1/2-z
1/2-x,1/2-y,-z
1/2+x,1/2-y,1/2+z
loop_
_atom_site_type_symbol
_atom_site_label
_atom_site_fract_x
_atom_site_fract_y
_atom_site_fract_z
Si Si1 0.494937 0.853022 0.362212
Si Si2 0.332945 0.635013 0.991217
Si Si3 0.774419 0.805241 0.996476
Si Si4 0.129028 0.547016 0.651367
Si Si5 0.898839 0.467760 0.648390
Si Si6 0.947663 0.032366 0.911362
Si Si7 0.979793 0.365922 0.637523
O O1 0.500000 0.851007 0.250000
O O2 0.699725 0.842797 0.409665
O O3 0.326978 0.821376 0.405354
O O4 0.434834 0.905226 0.395085
O O5 0.382877 0.582869 0.952782
O O6 0.516259 0.668644 0.009320
O O7 0.191786 0.631319 0.084497
O O8 0.644546 0.826159 0.912490
O O9 0.750000 0.750000 0.000000
O O10 0.360744 0.543619 0.653683
O O11 0.000000 0.548398 0.750000
O O12 0.061706 0.500563 0.598335
O O13 0.708581 0.500475 0.643415
O O14 0.872232 0.415290 0.615893
O O15 0.000000 0.459982 0.750000
O O16 0.000000 0.000000 0.000000
O O17 0.000000 0.358960 0.750000
#
# Coordination Sequence:
#
# PCOD9281211 Si02
#       7
#     8   8   8   8   8   8   8
#     4  10  22  43  66 100 138 173 216 280 344 405
#     4  11  23  41  70  95 135 179 216 282 341 401
#     4  11  25  48  69 100 133 171 231 289 346 411
#     4  10  21  38  59  92 136 173 217 271 327 399
#     4  10  22  39  61  94 137 179 221 271 323 407
#     4  12  23  35  63  96 129 181 226 264 341 404
#     4  10  24  46  69  96 136 178 228 279 339 404
#
# _framework density 20.174758000000001
#
# number of rings (size 3 to 8) (size 9 to 14) (size 15 to 20)
#    0.000    1.429    2.857    1.714    2.000    6.857 
#    5.143    4.286    0.000    0.000    0.000    0.000 
#    0.000    0.000    0.000    0.000    0.000    0.000 
#
# Total GULP energy -156060.111384 kJ/mol
# GULP energy per Si atom -5573.575407 kJ/mol
# Density = 2.012884 g / cm^3
# Si number density = 20.174758 Si / 1000 Ang^3
#
#
#
# Elastic Constant Matrix: (Units=GPa)
#
#
# Indices 1 2 3 4 5 6 
#
# 1 159.5019 58.0597 57.0110 0.0000 -8.2990 0.0000
# 2 58.0597 159.9794 34.1170 0.0000 -6.2087 0.0000
# 3 57.0110 34.1170 139.2063 0.0000 -7.6343 0.0000
# 4 0.0000 0.0000 0.0000 24.6334 0.0000 -0.5168
# 5 -8.2990 -6.2087 -7.6343 0.0000 25.1912 0.0000
# 6 0.0000 0.0000 0.0000 -0.5168 0.0000 59.6381
#
#
#
# Elastic Compliance Matrix: (Units=1/GPa)
#
#
# Indices 1 2 3 4 5 6 
#
# 1 0.008149 -0.002333 -0.002695 0.000000 0.001293 0.000000
# 2 -0.002333 0.007296 -0.000790 0.000000 0.000791 0.000000
# 3 -0.002695 -0.000790 0.008564 0.000000 0.001513 0.000000
# 4 0.000000 0.000000 0.000000 0.040603 0.000000 0.000352
# 5 0.001293 0.000791 0.001513 0.000000 0.040776 0.000000
# 6 0.000000 0.000000 0.000000 0.000352 0.000000 0.016771
#
#
# Mechanical properties :
#
#
# Convention : Reuss Voigt Hill
#
# Bulk Modulus (GPa) = 80.80640 84.11810 82.46225
# Shear Modulus (GPa) = 36.25357 42.52588 39.38973
#
# Velocity S-wave (km/s) = 4.24368 4.59614 4.42342
# Velocity P-wave (km/s) = 8.00949 8.36369 8.18850
#
# Compressibility (1/GPa) = 0.01237526
#
# Stress axis : x y z
#
# Youngs Moduli (GPa) = 122.71322 137.05371 116.77196
#
# Poissons Ratio (x) = 0.31969 0.31468
# Poissons Ratio (y) = 0.28624 0.09220
# Poissons Ratio (z) = 0.33069 0.10821
#
# Static dielectric constant tensor:
#      x y z
#    x 1.737030 0.000000 0.005120 
#    y 0.000000 1.793520 0.000000 
#    z 0.005120 0.000000 1.771110 
# 
# From -- ./inp_files/130782.got.cif
#   From: 2010.05.17/outbox.cif.g08.bks.cpg/sg15_66_cif.got.tgz:130782.got - 2010.06.03 18:47:42.
