data_PCOD9281255
_publ_section_title
;
Structure prediction by ZEFSAII (Michael W. Deem and Ramdas Pophale) SiO2 
 PCOD9281255
Probable space group: C 2/C
;
_chemical_formula_sum "Si O2"
_cell_formula_units_Z 48
_cell_length_a 9.174098
_cell_length_b 16.254669
_cell_length_c 15.033464
_cell_angle_alpha 90.000000
_cell_angle_beta 123.735190
_cell_angle_gamma 90.000000
_cell_volume 1864.326343
_symmetry_space_group_name_H-M "C 2/C"
_symmetry_group_IT_number 15
_symmetry_cell_setting 'monoclinic'
loop_
_space_group_symop_operation_xyz
x,y,z
-x,y,1/2-z
-x,-y,-z
x,-y,1/2+z
1/2+x,1/2+y,z
1/2-x,1/2+y,1/2-z
1/2-x,1/2-y,-z
1/2+x,1/2-y,1/2+z
loop_
_atom_site_type_symbol
_atom_site_label
_atom_site_fract_x
_atom_site_fract_y
_atom_site_fract_z
Si Si1 0.245879 0.425849 0.242966
Si Si2 0.829357 0.613954 0.248017
Si Si3 0.348749 0.551994 0.594361
Si Si4 0.750389 0.369305 0.920876
Si Si5 0.784418 0.307144 0.117263
Si Si6 0.643337 0.311791 0.531990
O O1 0.208904 0.516146 0.269490
O O2 0.455842 0.417409 0.321085
O O3 0.214826 0.422472 0.126969
O O4 0.171546 0.354669 0.278453
O O5 0.851378 0.624948 0.361557
O O6 0.698015 0.677414 0.153809
O O7 0.000000 0.631696 0.250000
O O8 0.355280 0.453660 0.602627
O O9 0.306802 0.596940 0.488996
O O10 0.648424 0.284615 0.871078
O O11 0.836656 0.357484 0.046690
O O12 0.567630 0.299309 0.042988
O O13 0.750000 0.250000 0.500000
#
# Coordination Sequence:
#
# PCOD9281255 Si02
#       6
#     8   8   8   8   8   8
#     4   9  19  38  65  88 116 158 205 239 299 358
#     4  11  23  39  60  85 121 156 199 251 302 359
#     4   9  19  38  65  90 117 158 202 249 290 365
#     4  10  21  38  60  88 121 158 194 246 313 350
#     4  10  21  39  63  88 120 158 198 254 297 364
#     4  11  23  38  61  93 118 158 209 245 301 359
#
# _framework density 25.746566000000001
#
# number of rings (size 3 to 8) (size 9 to 14) (size 15 to 20)
#    0.000    2.000    0.000    3.000    2.333    4.667 
#    0.000   18.333    7.333    0.000    0.000    0.000 
#    0.000    0.000    0.000    0.000    0.000    0.000 
#
# Total GULP energy -134005.435243 kJ/mol
# GULP energy per Si atom -5583.559802 kJ/mol
# Density = 2.568797 g / cm^3
# Si number density = 25.746566 Si / 1000 Ang^3
#
#
#
# Elastic Constant Matrix: (Units=GPa)
#
#
# Indices 1 2 3 4 5 6 
#
# 1 140.6991 43.7245 36.1906 0.0000 -11.3544 0.0000
# 2 43.7245 107.8682 32.7736 0.0000 -35.9040 0.0000
# 3 36.1906 32.7736 98.1303 0.0000 -30.2234 0.0000
# 4 0.0000 0.0000 0.0000 32.9177 0.0000 -16.6287
# 5 -11.3544 -35.9040 -30.2234 0.0000 42.0646 0.0000
# 6 0.0000 0.0000 0.0000 -16.6287 0.0000 14.6229
#
#
#
# Elastic Compliance Matrix: (Units=1/GPa)
#
#
# Indices 1 2 3 4 5 6 
#
# 1 0.008740 -0.003592 -0.002878 0.000000 -0.002775 0.000000
# 2 -0.003592 0.014533 -0.000009 0.000000 0.011429 0.000000
# 3 -0.002878 -0.000009 0.014143 0.000000 0.009377 0.000000
# 4 0.000000 0.000000 0.000000 0.071387 0.000000 0.081179
# 5 -0.002775 0.011429 0.009377 0.000000 0.039516 0.000000
# 6 0.000000 0.000000 0.000000 0.081179 0.000000 0.160700
#
#
# Mechanical properties :
#
#
# Convention : Reuss Voigt Hill
#
# Bulk Modulus (GPa) = 40.88663 63.56388 52.22526
# Shear Modulus (GPa) = 15.14547 33.52163 24.33355
#
# Velocity S-wave (km/s) = 2.42802 3.61222 3.07761
# Velocity P-wave (km/s) = 4.87599 6.49148 5.74085
#
# Compressibility (1/GPa) = 0.02445787
#
# Stress axis : x y z
#
# Youngs Moduli (GPa) = 114.41626 68.80716 70.70535
#
# Poissons Ratio (x) = 0.24714 0.20351
# Poissons Ratio (y) = 0.41096 0.00065
# Poissons Ratio (z) = 0.32933 0.00064
#
# Static dielectric constant tensor:
#      x y z
#    x 2.059770 0.000000 0.030260 
#    y 0.000000 1.991060 0.000000 
#    z 0.030260 0.000000 2.112210 
# 
# From -- ./inp_files/144397.got.cif
#   From: 2010.05.17/outbox.cif.g08.bks.cpg/sg15_73_cif.got.tgz:144397.got - 2010.06.03 18:47:42.
