data_PCOD9281962
_publ_section_title
;
Structure prediction by ZEFSAII (Michael W. Deem and Ramdas Pophale) SiO2 
 PCOD9281962
Probable space group: C 2/C
;
_chemical_formula_sum "Si O2"
_cell_formula_units_Z 64
_cell_length_a 15.814081
_cell_length_b 12.057564
_cell_length_c 16.153833
_cell_angle_alpha 90.000000
_cell_angle_beta 95.030788
_cell_angle_gamma 90.000000
_cell_volume 3068.335672
_symmetry_space_group_name_H-M "C 2/C"
_symmetry_group_IT_number 15
_symmetry_cell_setting 'monoclinic'
loop_
_space_group_symop_operation_xyz
x,y,z
-x,y,1/2-z
-x,-y,-z
x,-y,1/2+z
1/2+x,1/2+y,z
1/2-x,1/2+y,1/2-z
1/2-x,1/2-y,-z
1/2+x,1/2-y,1/2+z
loop_
_atom_site_type_symbol
_atom_site_label
_atom_site_fract_x
_atom_site_fract_y
_atom_site_fract_z
Si Si1 0.637966 0.876505 0.877808
Si Si2 0.894047 0.702140 0.940215
Si Si3 0.268442 0.683097 0.687593
Si Si4 0.651928 0.530913 0.376747
Si Si5 0.528119 0.912966 0.345171
Si Si6 0.200575 0.029801 0.569689
Si Si7 0.531260 0.444606 0.588215
Si Si8 0.302309 0.218933 0.638240
O O1 0.662426 0.780708 0.815548
O O2 0.563755 0.962052 0.848427
O O3 0.721803 0.952713 0.896103
O O4 0.616035 0.820042 0.963641
O O5 0.801895 0.702882 0.889761
O O6 0.940719 0.818224 0.925298
O O7 0.950993 0.607820 0.901232
O O8 0.311616 0.565176 0.676674
O O9 0.220020 0.686196 0.769887
O O10 0.675579 0.500071 0.473715
O O11 0.550385 0.545487 0.360566
O O12 0.694185 0.649709 0.365785
O O13 0.500000 0.882845 0.250000
O O14 0.606476 0.833167 0.376559
O O15 0.231940 0.156156 0.577694
O O16 0.117782 0.007960 0.618267
O O17 0.500000 0.500000 0.500000
#
# Coordination Sequence:
#
# PCOD9281962 Si02
#       8
#     8   8   8   8   8   8   8   8
#     4  11  23  41  67  98 130 168 219 266 323 385
#     4  12  21  42  67  96 127 174 220 262 318 396
#     4  12  25  41  68  97 133 173 217 267 331 387
#     4  11  23  43  65  98 128 170 220 270 322 393
#     4  11  24  43  63  97 131 171 216 270 324 384
#     4  10  21  41  66  97 130 171 212 269 326 384
#     4  10  21  38  66  96 129 159 214 271 313 379
#     4  11  25  41  65  95 134 171 217 269 329 391
#
# _framework density 20.858215000000001
#
# number of rings (size 3 to 8) (size 9 to 14) (size 15 to 20)
#    0.000    1.000    5.000    2.625    3.500    0.000 
#    0.000    6.875    0.000    0.000    0.000    0.000 
#    0.000    0.000    0.000    0.000    0.000    0.000 
#
# Total GULP energy -178917.493428 kJ/mol
# GULP energy per Si atom -5591.171670 kJ/mol
# Density = 2.081074 g / cm^3
# Si number density = 20.858215 Si / 1000 Ang^3
#
#
#
# Elastic Constant Matrix: (Units=GPa)
#
#
# Indices 1 2 3 4 5 6 
#
# 1 92.9156 41.8138 -0.9690 0.0000 -9.0482 0.0000
# 2 41.8138 110.0974 -16.3800 0.0000 -8.6155 0.0000
# 3 -0.9690 -16.3800 24.0372 0.0000 -6.9695 0.0000
# 4 0.0000 0.0000 0.0000 -1.4413 0.0000 -8.5460
# 5 -9.0482 -8.6155 -6.9695 0.0000 27.0142 0.0000
# 6 0.0000 0.0000 0.0000 -8.5460 0.0000 36.8245
#
#
#
# Elastic Compliance Matrix: (Units=1/GPa)
#
#
# Indices 1 2 3 4 5 6 
#
# 1 0.013308 -0.005243 -0.002409 0.000000 0.002164 0.000000
# 2 -0.005243 0.012960 0.010062 0.000000 0.004973 0.000000
# 3 -0.002409 0.010062 0.053025 0.000000 0.016082 0.000000
# 4 0.000000 0.000000 0.000000 -0.292007 0.000000 -0.067767
# 5 0.002164 0.004973 0.016082 0.000000 0.043477 0.000000
# 6 0.000000 0.000000 0.000000 -0.067767 0.000000 0.011429
#
#
# Mechanical properties :
#
#
# Convention : Reuss Voigt Hill
#
# Bulk Modulus (GPa) = 11.88875 30.66441 21.27658
# Shear Modulus (GPa) = -37.14997 25.98519 -5.58239
#
# Velocity S-wave (km/s) = -4.22485 3.53342 -1.63773
# Velocity P-wave (km/s) = 4.25288 5.60179 2.57808
#
# Compressibility (1/GPa) = 0.08411315
#
# Stress axis : x y z
#
# Youngs Moduli (GPa) = 75.14524 77.15804 18.85900
#
# Poissons Ratio (x) = 0.40455 0.04543
# Poissons Ratio (y) = 0.39400 -0.18977
# Poissons Ratio (z) = 0.18104 -0.77640
#
# Static dielectric constant tensor:
#      x y z
#    x 1.749820 0.000000 0.005240 
#    y 0.000000 1.746160 0.000000 
#    z 0.005240 0.000000 1.739060 
# 
# From -- ./inp_files/204468.got.cif
#   From: 2010.05.17/outbox.cif.g08.bks.cpg/sg15_103_cif.got.tgz:204468.got - 2010.06.03 18:47:42.
