data_PCOD9281231
_publ_section_title
;
Structure prediction by ZEFSAII (Michael W. Deem and Ramdas Pophale) SiO2 
 PCOD9281231
Probable space group: C 2/C
;
_chemical_formula_sum "Si O2"
_cell_formula_units_Z 60
_cell_length_a 7.663539
_cell_length_b 34.131280
_cell_length_c 12.564196
_cell_angle_alpha 90.000000
_cell_angle_beta 83.827242
_cell_angle_gamma 90.000000
_cell_volume 3267.317738
_symmetry_space_group_name_H-M "C 2/C"
_symmetry_group_IT_number 15
_symmetry_cell_setting 'monoclinic'
loop_
_space_group_symop_operation_xyz
x,y,z
-x,y,1/2-z
-x,-y,-z
x,-y,1/2+z
1/2+x,1/2+y,z
1/2-x,1/2+y,1/2-z
1/2-x,1/2-y,-z
1/2+x,1/2-y,1/2+z
loop_
_atom_site_type_symbol
_atom_site_label
_atom_site_fract_x
_atom_site_fract_y
_atom_site_fract_z
Si Si1 0.204424 0.947485 0.960251
Si Si2 0.759361 0.292513 0.056205
Si Si3 0.352037 0.360996 0.597455
Si Si4 0.123221 0.719424 0.448868
Si Si5 0.572148 0.494093 0.641832
Si Si6 0.076662 0.443138 0.864185
Si Si7 0.500000 0.268533 0.250000
Si Si8 0.246776 0.138853 0.156134
O O1 0.197212 0.900798 0.959556
O O2 0.410193 0.957304 0.943131
O O3 0.086649 0.963358 0.870010
O O4 0.106972 0.971281 0.057626
O O5 0.655405 0.291929 0.175861
O O6 0.750000 0.250000 0.000000
O O7 0.678457 0.324451 0.979572
O O8 0.970198 0.295256 0.039821
O O9 0.245729 0.357013 0.715578
O O10 0.549215 0.367058 0.627038
O O11 0.250000 0.750000 0.500000
O O12 0.067215 0.741895 0.343561
O O13 0.202709 0.679346 0.401060
O O14 0.500000 0.514977 0.750000
O O15 0.752327 0.469966 0.636363
O O16 0.136921 0.398602 0.882913
O O17 0.000000 0.443956 0.750000
#
# Coordination Sequence:
#
# PCOD9281231 Si02
#       8
#     8   8   8   8   8   8   4   8
#     4  11  23  38  62  87 122 161 201 261 306 372
#     4  10  21  38  60  84 119 162 204 248 306 370
#     4  11  21  38  59  92 121 156 208 253 313 363
#     4  11  23  38  60  94 126 160 206 258 320 378
#     4  11  22  41  59  89 122 163 202 250 315 382
#     4  12  21  35  63  92 123 153 204 262 319 365
#     4  10  22  40  58  82 120 166 202 248 308 372
#     4  11  21  34  62  91 122 153 198 267 309 365
#
# _framework density 18.363686000000001
#
# number of rings (size 3 to 8) (size 9 to 14) (size 15 to 20)
#    0.000    1.067    4.000    4.400    0.933    1.600 
#    1.200    0.000    0.000    0.000    0.000    0.000 
#    0.000    0.000    0.000    0.000    0.000    0.000 
#
# Total GULP energy -167061.726819 kJ/mol
# GULP energy per Si atom -5568.724227 kJ/mol
# Density = 1.832189 g / cm^3
# Si number density = 18.363686 Si / 1000 Ang^3
#
#
#
# Elastic Constant Matrix: (Units=GPa)
#
#
# Indices 1 2 3 4 5 6 
#
# 1 82.8597 16.4463 36.1128 0.0000 -17.7034 0.0000
# 2 16.4463 85.1692 37.7076 0.0000 -10.5932 0.0000
# 3 36.1128 37.7076 84.0107 0.0000 -17.9835 0.0000
# 4 0.0000 0.0000 0.0000 14.4382 0.0000 1.8688
# 5 -17.7034 -10.5932 -17.9835 0.0000 30.9726 0.0000
# 6 0.0000 0.0000 0.0000 1.8688 0.0000 30.7225
#
#
#
# Elastic Compliance Matrix: (Units=1/GPa)
#
#
# Indices 1 2 3 4 5 6 
#
# 1 0.015708 0.000159 -0.005584 0.000000 0.005791 0.000000
# 2 0.000159 0.014705 -0.006364 0.000000 0.001426 0.000000
# 3 -0.005584 -0.006364 0.018283 0.000000 0.005247 0.000000
# 4 0.000000 0.000000 0.000000 0.069810 0.000000 -0.004246
# 5 0.005791 0.001426 0.005247 0.000000 0.039131 0.000000
# 6 0.000000 0.000000 0.000000 -0.004246 0.000000 0.032808
#
#
# Mechanical properties :
#
#
# Convention : Reuss Voigt Hill
#
# Bulk Modulus (GPa) = 39.80990 48.06368 43.93679
# Shear Modulus (GPa) = 22.48246 26.01151 24.24699
#
# Velocity S-wave (km/s) = 3.50278 3.76768 3.63764
# Velocity P-wave (km/s) = 6.17130 6.71991 6.45144
#
# Compressibility (1/GPa) = 0.02511938
#
# Stress axis : x y z
#
# Youngs Moduli (GPa) = 63.66224 68.00260 54.69502
#
# Poissons Ratio (x) = -0.01083 0.30542
# Poissons Ratio (y) = -0.01014 0.34806
# Poissons Ratio (z) = 0.35550 0.43275
#
# Static dielectric constant tensor:
#      x y z
#    x 1.651950 0.000000 0.018110 
#    y 0.000000 2.142460 0.000000 
#    z 0.018110 0.000000 1.777480 
# 
# From -- ./inp_files/82206.got.cif
#   From: 2010.05.17/outbox.cif.g08.bks.cpg/sg15_42_cif.got.tgz:82206.got - 2010.06.03 18:47:42.
