data_PCOD9281641
_publ_section_title
;
Structure prediction by ZEFSAII (Michael W. Deem and Ramdas Pophale) SiO2 
 PCOD9281641
Probable space group: C 2/C
;
_chemical_formula_sum "Si O2"
_cell_formula_units_Z 48
_cell_length_a 9.118852
_cell_length_b 30.176219
_cell_length_c 14.898412
_cell_angle_alpha 90.000000
_cell_angle_beta 33.988900
_cell_angle_gamma 90.000000
_cell_volume 2291.827138
_symmetry_space_group_name_H-M "C 2/C"
_symmetry_group_IT_number 15
_symmetry_cell_setting 'monoclinic'
loop_
_space_group_symop_operation_xyz
x,y,z
-x,y,1/2-z
-x,-y,-z
x,-y,1/2+z
1/2+x,1/2+y,z
1/2-x,1/2+y,1/2-z
1/2-x,1/2-y,-z
1/2+x,1/2-y,1/2+z
loop_
_atom_site_type_symbol
_atom_site_label
_atom_site_fract_x
_atom_site_fract_y
_atom_site_fract_z
Si Si1 0.210123 0.554011 0.429618
Si Si2 0.392646 0.029468 0.407709
Si Si3 0.537050 0.235110 0.882581
Si Si4 0.685840 0.851890 0.916744
Si Si5 0.340480 0.125685 0.422846
Si Si6 0.576868 0.284076 0.029477
O O1 0.500000 0.562362 0.250000
O O2 0.219953 0.517614 0.503312
O O3 0.122906 0.603063 0.504501
O O4 0.073722 0.538270 0.405165
O O5 0.500000 0.025602 0.250000
O O6 0.228789 0.075663 0.490856
O O7 0.768376 0.226443 0.695417
O O8 0.250000 0.250000 0.000000
O O9 0.476633 0.189584 0.964921
O O10 0.649394 0.273115 0.890765
O O11 0.560639 0.863904 0.884934
O O12 0.000000 0.842292 0.750000
O O13 0.500000 0.125739 0.250000
O O14 0.136300 0.165771 0.526624
O O15 0.750000 0.250000 0.000000
#
# Coordination Sequence:
#
# PCOD9281641 Si02
#       6
#     8   8   8   8   8   8
#     4   9  19  38  61  88 122 166 207 255 313 375
#     4   9  19  38  60  91 123 159 208 259 315 370
#     4  12  26  43  62  90 125 166 204 256 314 377
#     4  10  21  39  63  87 124 168 208 252 315 375
#     4  10  21  38  63  92 123 160 208 261 312 371
#     4  12  24  41  63  92 123 159 209 257 311 371
#
# _framework density 20.943985999999999
#
# number of rings (size 3 to 8) (size 9 to 14) (size 15 to 20)
#    0.000    1.667    1.667    3.000    2.333    0.667 
#    9.000    1.667    0.000    0.000    0.000    0.000 
#    0.000    0.000    0.000    0.000    0.000    0.000 
#
# Total GULP energy -133621.247167 kJ/mol
# GULP energy per Si atom -5567.551965 kJ/mol
# Density = 2.089632 g / cm^3
# Si number density = 20.943986 Si / 1000 Ang^3
#
#
#
# Elastic Constant Matrix: (Units=GPa)
#
#
# Indices 1 2 3 4 5 6 
#
# 1 47.6780 32.5628 8.1251 0.0000 6.3971 0.0000
# 2 32.5628 144.9329 23.8009 0.0000 13.3526 0.0000
# 3 8.1251 23.8009 50.1801 0.0000 2.8565 0.0000
# 4 0.0000 0.0000 0.0000 63.6904 0.0000 16.0090
# 5 6.3971 13.3526 2.8565 0.0000 28.7186 0.0000
# 6 0.0000 0.0000 0.0000 16.0090 0.0000 28.7690
#
#
#
# Elastic Compliance Matrix: (Units=1/GPa)
#
#
# Indices 1 2 3 4 5 6 
#
# 1 0.025135 -0.005124 -0.001465 0.000000 -0.003071 0.000000
# 2 -0.005124 0.008820 -0.003204 0.000000 -0.002641 0.000000
# 3 -0.001465 -0.003204 0.021704 0.000000 -0.000343 0.000000
# 4 0.000000 0.000000 0.000000 0.018254 0.000000 -0.010158
# 5 -0.003071 -0.002641 -0.000343 0.000000 0.036767 0.000000
# 6 0.000000 0.000000 0.000000 -0.010158 0.000000 0.040412
#
#
# Mechanical properties :
#
#
# Convention : Reuss Voigt Hill
#
# Bulk Modulus (GPa) = 27.71961 41.30761 34.51361
# Shear Modulus (GPa) = 27.36690 36.12242 31.74466
#
# Velocity S-wave (km/s) = 3.61871 4.15747 3.89741
# Velocity P-wave (km/s) = 5.54292 6.54308 6.06365
#
# Compressibility (1/GPa) = 0.03607555
#
# Stress axis : x y z
#
# Youngs Moduli (GPa) = 39.78506 113.37444 46.07355
#
# Poissons Ratio (x) = 0.58090 0.06749
# Poissons Ratio (y) = 0.20385 0.14760
# Poissons Ratio (z) = 0.05828 0.36321
#
# Static dielectric constant tensor:
#      x y z
#    x 1.784090 0.000000 0.000850 
#    y 0.000000 1.888480 0.000000 
#    z 0.000850 0.000000 1.706180 
# 
# From -- ./inp_files/138883.got.cif
#   From: 2010.05.17/outbox.cif.g08.bks.cpg/sg15_70_cif.got.tgz:138883.got - 2010.06.03 18:47:42.
