data_PCOD9281218
_publ_section_title
;
Structure prediction by ZEFSAII (Michael W. Deem and Ramdas Pophale) SiO2 
 PCOD9281218
Probable space group: C 2/C
;
_chemical_formula_sum "Si O2"
_cell_formula_units_Z 44
_cell_length_a 10.311215
_cell_length_b 24.122620
_cell_length_c 13.532361
_cell_angle_alpha 90.000000
_cell_angle_beta 148.304091
_cell_angle_gamma 90.000000
_cell_volume 1768.507767
_symmetry_space_group_name_H-M "C 2/C"
_symmetry_group_IT_number 15
_symmetry_cell_setting 'monoclinic'
loop_
_space_group_symop_operation_xyz
x,y,z
-x,y,1/2-z
-x,-y,-z
x,-y,1/2+z
1/2+x,1/2+y,z
1/2-x,1/2+y,1/2-z
1/2-x,1/2-y,-z
1/2+x,1/2-y,1/2+z
loop_
_atom_site_type_symbol
_atom_site_label
_atom_site_fract_x
_atom_site_fract_y
_atom_site_fract_z
Si Si1 0.037063 0.384643 0.514345
Si Si2 0.750000 0.250000 0.000000
Si Si3 0.945022 0.161010 0.403125
Si Si4 0.033700 0.170376 0.666238
Si Si5 0.294511 0.939661 0.531645
Si Si6 0.733023 0.561798 0.524467
O O1 0.815421 0.347308 0.328931
O O2 0.926113 0.433411 0.510656
O O3 0.184767 0.343648 0.681892
O O4 0.213510 0.409981 0.546422
O O5 0.000000 0.253780 0.250000
O O6 0.856403 0.193093 0.031280
O O7 0.931793 0.193347 0.497984
O O8 0.044176 0.097492 0.467392
O O9 0.881986 0.113059 0.578428
O O10 0.000000 0.199454 0.750000
O O11 0.500000 0.933800 0.750000
O O12 0.161090 0.998019 0.461427
O O13 0.000000 0.561215 0.750000
#
# Coordination Sequence:
#
# PCOD9281218 Si02
#       6
#     8   4   8   8   8   8
#     4  11  22  39  64  95 140 190 231 293 350 430
#     4  12  30  52  82 114 146 182 246 308 382 430
#     4  12  25  45  72 102 139 183 240 305 363 433
#     4  10  23  41  66  99 142 186 234 286 356 430
#     4  10  21  38  59  98 140 195 235 280 346 434
#     4  11  22  36  61  96 141 186 242 290 354 424
#
# _framework density 24.879731
#
# number of rings (size 3 to 8) (size 9 to 14) (size 15 to 20)
#    0.000    1.091    3.636    2.727    2.545    6.545 
#    0.000    0.000    0.000    1.091    0.000    0.000 
#    0.000    0.000    0.000    0.000    0.000    0.000 
#
# Total GULP energy -122484.030813 kJ/mol
# GULP energy per Si atom -5567.455946 kJ/mol
# Density = 2.482310 g / cm^3
# Si number density = 24.879731 Si / 1000 Ang^3
#
#
#
# Elastic Constant Matrix: (Units=GPa)
#
#
# Indices 1 2 3 4 5 6 
#
# 1 33.2561 2.2688 -10.6204 0.0000 -0.2747 0.0001
# 2 2.2688 47.7827 -1.7919 0.0000 2.6257 0.0000
# 3 -10.6204 -1.7919 123.8171 0.0001 -6.1969 0.0002
# 4 0.0000 0.0000 0.0001 -9.8047 0.0000 8.0112
# 5 -0.2747 2.6257 -6.1969 0.0000 32.8727 0.0001
# 6 0.0001 0.0000 0.0002 8.0112 0.0001 -17.9933
#
#
#
# Elastic Compliance Matrix: (Units=1/GPa)
#
#
# Indices 1 2 3 4 5 6 
#
# 1 0.031031 -0.001421 0.002685 0.000000 0.000879 0.000000
# 2 -0.001421 0.021091 0.000099 0.000000 -0.001678 0.000000
# 3 0.002685 0.000099 0.008388 0.000000 0.001596 0.000000
# 4 0.000000 0.000000 0.000000 -0.160312 0.000000 -0.071376
# 5 0.000879 -0.001678 0.001596 0.000000 0.030863 0.000000
# 6 0.000000 0.000000 0.000000 -0.071376 0.000000 -0.087355
#
#
# Mechanical properties :
#
#
# Convention : Reuss Voigt Hill
#
# Bulk Modulus (GPa) = 15.81330 20.50764 18.16047
# Shear Modulus (GPa) = -36.24733 15.34825 -10.44954
#
# Velocity S-wave (km/s) = -3.82108 2.48644 -2.05162
# Velocity P-wave (km/s) = 3.61909 4.06248 1.30498
#
# Compressibility (1/GPa) = 0.06323791
#
# Stress axis : x y z
#
# Youngs Moduli (GPa) = 32.22541 47.41256 119.21716
#
# Poissons Ratio (x) = 0.06738 -0.32012
# Poissons Ratio (y) = 0.04579 -0.01185
# Poissons Ratio (z) = -0.08653 -0.00471
#
# Static dielectric constant tensor:
#      x y z
#    x 2.041030 0.000000 -0.132080 
#    y 0.000000 1.953450 0.000000 
#    z -0.132080 0.000000 2.393460 
# 
# From -- ./inp_files/148636.got.cif
#   From: 2010.05.17/outbox.cif.g08.bks.cpg/sg15_75_cif.got.tgz:148636.got - 2010.06.03 18:47:42.
