data_PCOD9281135
_publ_section_title
;
Structure prediction by ZEFSAII (Michael W. Deem and Ramdas Pophale) SiO2 
 PCOD9281135
Probable space group: C 2/C
;
_chemical_formula_sum "Si O2"
_cell_formula_units_Z 56
_cell_length_a 20.489692
_cell_length_b 16.005275
_cell_length_c 9.360608
_cell_angle_alpha 90.000000
_cell_angle_beta 92.235797
_cell_angle_gamma 90.000000
_cell_volume 3067.410438
_symmetry_space_group_name_H-M "C 2/C"
_symmetry_group_IT_number 15
_symmetry_cell_setting 'monoclinic'
loop_
_space_group_symop_operation_xyz
x,y,z
-x,y,1/2-z
-x,-y,-z
x,-y,1/2+z
1/2+x,1/2+y,z
1/2-x,1/2+y,1/2-z
1/2-x,1/2-y,-z
1/2+x,1/2-y,1/2+z
loop_
_atom_site_type_symbol
_atom_site_label
_atom_site_fract_x
_atom_site_fract_y
_atom_site_fract_z
Si Si1 0.741178 0.474769 0.892545
Si Si2 0.928674 0.723082 0.681028
Si Si3 0.195368 0.842397 0.337604
Si Si4 0.044063 0.453067 0.389146
Si Si5 0.338060 0.782375 0.443329
Si Si6 0.330452 0.061542 0.135681
Si Si7 0.816034 0.192364 0.986630
O O1 0.701715 0.557040 0.838085
O O2 0.785722 0.437430 0.770642
O O3 0.701535 0.400113 0.959409
O O4 0.789621 0.512046 0.013890
O O5 0.934638 0.641620 0.578522
O O6 0.889912 0.702512 0.824009
O O7 0.878393 0.779983 0.586356
O O8 0.000000 0.751289 0.750000
O O9 0.267854 0.802195 0.365424
O O10 0.159822 0.807048 0.476904
O O11 0.169808 0.812005 0.182072
O O12 0.103870 0.509558 0.343634
O O13 0.000000 0.439207 0.250000
O O14 0.000000 0.500000 0.500000
O O15 0.345356 0.848479 0.571824
O O16 0.750000 0.250000 0.000000
#
# Coordination Sequence:
#
# PCOD9281135 Si02
#       7
#     8   8   8   8   8   8   8
#     4  11  22  35  58  90 124 146 201 265 316 364
#     4  11  24  41  60  88 126 167 203 254 315 370
#     4  10  21  38  58  94 117 161 200 264 315 360
#     4  11  22  38  56  82 124 167 203 237 298 381
#     4  10  21  38  60  84 129 159 205 250 317 361
#     4  11  20  35  55  88 120 157 198 252 315 359
#     4  12  22  38  64  92 120 158 217 257 307 377
#
# _framework density 18.256442
#
# number of rings (size 3 to 8) (size 9 to 14) (size 15 to 20)
#    0.000    1.143    2.857    6.000    4.000    1.143 
#    0.000    0.714    0.000    3.429    0.000    0.000 
#    0.000    0.000    0.000    0.000    0.000    0.000 
#
# Total GULP energy -156131.552030 kJ/mol
# GULP energy per Si atom -5576.126858 kJ/mol
# Density = 1.821489 g / cm^3
# Si number density = 18.256442 Si / 1000 Ang^3
#
#
#
# Elastic Constant Matrix: (Units=GPa)
#
#
# Indices 1 2 3 4 5 6 
#
# 1 70.0210 21.1384 2.5800 0.0000 -4.1346 0.0000
# 2 21.1384 91.5923 20.9222 0.0000 -2.4981 0.0000
# 3 2.5800 20.9222 74.1317 0.0000 -12.2656 0.0000
# 4 0.0000 0.0000 0.0000 26.7766 0.0000 -0.8395
# 5 -4.1346 -2.4981 -12.2656 0.0000 25.3344 0.0000
# 6 0.0000 0.0000 0.0000 -0.8395 0.0000 18.3160
#
#
#
# Elastic Compliance Matrix: (Units=1/GPa)
#
#
# Indices 1 2 3 4 5 6 
#
# 1 0.015527 -0.003728 0.000946 0.000000 0.002624 0.000000
# 2 -0.003728 0.012571 -0.003602 0.000000 -0.001113 0.000000
# 3 0.000946 -0.003602 0.015697 0.000000 0.007399 0.000000
# 4 0.000000 0.000000 0.000000 0.037400 0.000000 0.001714
# 5 0.002624 -0.001113 0.007399 0.000000 0.043373 0.000000
# 6 0.000000 0.000000 0.000000 0.001714 0.000000 0.054676
#
#
# Mechanical properties :
#
#
# Convention : Reuss Voigt Hill
#
# Bulk Modulus (GPa) = 32.23018 36.11402 34.17210
# Shear Modulus (GPa) = 24.70914 26.82569 25.76741
#
# Velocity S-wave (km/s) = 3.68291 3.83741 3.76096
# Velocity P-wave (km/s) = 5.98144 6.28162 6.13337
#
# Compressibility (1/GPa) = 0.03102682
#
# Stress axis : x y z
#
# Youngs Moduli (GPa) = 64.40417 79.54941 63.70449
#
# Poissons Ratio (x) = 0.29655 -0.06026
# Poissons Ratio (y) = 0.24009 0.22948
# Poissons Ratio (z) = -0.06092 0.28656
#
# Static dielectric constant tensor:
#      x y z
#    x 1.615520 0.000000 0.010450 
#    y 0.000000 1.923080 0.000000 
#    z 0.010450 0.000000 1.634430 
# 
# From -- ./inp_files/55612.got.cif
#   From: 2010.05.17/outbox.cif.g08.bks.cpg/sg15_28_cif.got.tgz:55612.got - 2010.06.03 18:47:42.
