data_PCOD9281172
_publ_section_title
;
Structure prediction by ZEFSAII (Michael W. Deem and Ramdas Pophale) SiO2 
 PCOD9281172
Probable space group: C 2/C
;
_chemical_formula_sum "Si O2"
_cell_formula_units_Z 44
_cell_length_a 7.932337
_cell_length_b 17.388503
_cell_length_c 14.627891
_cell_angle_alpha 90.000000
_cell_angle_beta 69.942937
_cell_angle_gamma 90.000000
_cell_volume 1895.279264
_symmetry_space_group_name_H-M "C 2/C"
_symmetry_group_IT_number 15
_symmetry_cell_setting 'monoclinic'
loop_
_space_group_symop_operation_xyz
x,y,z
-x,y,1/2-z
-x,-y,-z
x,-y,1/2+z
1/2+x,1/2+y,z
1/2-x,1/2+y,1/2-z
1/2-x,1/2-y,-z
1/2+x,1/2-y,1/2+z
loop_
_atom_site_type_symbol
_atom_site_label
_atom_site_fract_x
_atom_site_fract_y
_atom_site_fract_z
Si Si1 0.293598 0.678140 0.677854
Si Si2 0.010657 0.977957 0.390006
Si Si3 0.500000 0.780705 0.750000
Si Si4 0.369865 0.927209 0.014645
Si Si5 0.314850 0.626051 0.136318
Si Si6 0.013758 0.284724 0.395405
O O1 0.348291 0.590130 0.651777
O O2 0.476263 0.724028 0.668233
O O3 0.159489 0.690496 0.789287
O O4 0.181153 0.710537 0.614190
O O5 0.814849 0.948703 0.398181
O O6 0.075509 0.058295 0.337496
O O7 0.000000 0.000000 0.500000
O O8 0.330384 0.835072 0.772419
O O9 0.462467 0.850491 0.034393
O O10 0.301419 0.908198 0.925443
O O11 0.500000 0.000000 0.000000
O O12 0.437400 0.698241 0.083101
#
# Coordination Sequence:
#
# PCOD9281172 Si02
#       6
#     8   8   4   8   8   8
#     4  10  21  40  62  86 119 160 200 248 306 364
#     4  10  21  38  59  86 119 155 200 246 299 361
#     4  10  22  42  64  90 122 160 204 252 306 362
#     4  11  23  40  60  88 122 162 202 249 307 365
#     4  10  22  39  61  91 122 156 202 251 300 363
#     4  10  21  39  62  88 121 159 202 251 306 362
#
# _framework density 23.215577
#
# number of rings (size 3 to 8) (size 9 to 14) (size 15 to 20)
#    0.000    1.818    0.000    4.909    0.000    5.818 
#    0.000   14.545    0.000    0.000    0.000    0.000 
#    0.000    0.000    0.000    0.000    0.000    0.000 
#
# Total GULP energy -122914.612377 kJ/mol
# GULP energy per Si atom -5587.027835 kJ/mol
# Density = 2.316274 g / cm^3
# Si number density = 23.215577 Si / 1000 Ang^3
#
#
#
# Elastic Constant Matrix: (Units=GPa)
#
#
# Indices 1 2 3 4 5 6 
#
# 1 117.7643 59.4522 5.0006 0.0000 13.1787 0.0000
# 2 59.4522 187.5284 17.4454 0.0000 2.8846 0.0000
# 3 5.0006 17.4454 33.9935 0.0000 10.0344 0.0000
# 4 0.0000 0.0000 0.0000 34.1872 0.0000 -3.4686
# 5 13.1787 2.8846 10.0344 0.0000 32.1367 0.0000
# 6 0.0000 0.0000 0.0000 -3.4686 0.0000 47.2106
#
#
#
# Elastic Compliance Matrix: (Units=1/GPa)
#
#
# Indices 1 2 3 4 5 6 
#
# 1 0.010682 -0.003461 0.001549 0.000000 -0.004554 0.000000
# 2 -0.003461 0.006727 -0.003507 0.000000 0.001910 0.000000
# 3 0.001549 -0.003507 0.034240 0.000000 -0.011011 0.000000
# 4 0.000000 0.000000 0.000000 0.029470 0.000000 0.002165
# 5 -0.004554 0.001910 -0.011011 0.000000 0.036251 0.000000
# 6 0.000000 0.000000 0.000000 0.002165 0.000000 0.021341
#
#
# Mechanical properties :
#
#
# Convention : Reuss Voigt Hill
#
# Bulk Modulus (GPa) = 24.50322 55.89808 40.20065
# Shear Modulus (GPa) = 30.64622 39.86609 35.25615
#
# Velocity S-wave (km/s) = 3.63722 4.14842 3.90120
# Velocity P-wave (km/s) = 5.31194 6.86119 6.13566
#
# Compressibility (1/GPa) = 0.04081097
#
# Stress axis : x y z
#
# Youngs Moduli (GPa) = 93.61138 148.66525 29.20592
#
# Poissons Ratio (x) = 0.51449 -0.04523
# Poissons Ratio (y) = 0.32396 0.10242
# Poissons Ratio (z) = -0.14498 0.52135
#
# Static dielectric constant tensor:
#      x y z
#    x 1.971880 0.000000 -0.140910 
#    y 0.000000 1.967940 0.000000 
#    z -0.140910 0.000000 2.061210 
# 
# From -- ./inp_files/188751.got.cif
#   From: 2010.05.17/outbox.cif.g08.bks.cpg/sg15_95_cif.got.tgz:188751.got - 2010.06.03 18:47:42.
