data_PCOD9281076
_publ_section_title
;
Structure prediction by ZEFSAII (Michael W. Deem and Ramdas Pophale) SiO2 
 PCOD9281076
Probable space group: C 2/C
;
_chemical_formula_sum "Si O2"
_cell_formula_units_Z 40
_cell_length_a 15.407525
_cell_length_b 8.290936
_cell_length_c 13.334245
_cell_angle_alpha 90.000000
_cell_angle_beta 106.659029
_cell_angle_gamma 90.000000
_cell_volume 1631.860223
_symmetry_space_group_name_H-M "C 2/C"
_symmetry_group_IT_number 15
_symmetry_cell_setting 'monoclinic'
loop_
_space_group_symop_operation_xyz
x,y,z
-x,y,1/2-z
-x,-y,-z
x,-y,1/2+z
1/2+x,1/2+y,z
1/2-x,1/2+y,1/2-z
1/2-x,1/2-y,-z
1/2+x,1/2-y,1/2+z
loop_
_atom_site_type_symbol
_atom_site_label
_atom_site_fract_x
_atom_site_fract_y
_atom_site_fract_z
Si Si1 0.328208 0.378752 0.550015
Si Si2 0.444072 0.965486 0.881869
Si Si3 0.257928 0.887975 0.346793
Si Si4 0.911123 0.878023 0.360196
Si Si5 0.904837 0.205546 0.293231
O O1 0.250000 0.250000 0.500000
O O2 0.289490 0.557817 0.565690
O O3 0.388369 0.378888 0.470154
O O4 0.369046 0.317831 0.669362
O O5 0.464782 0.785571 0.853181
O O6 0.334615 0.972084 0.859496
O O7 0.456889 0.127203 0.823365
O O8 0.500000 0.000000 0.000000
O O9 0.180903 0.882798 0.236591
O O10 0.320794 0.732809 0.344455
O O11 0.956613 0.045578 0.344091
#
# Coordination Sequence:
#
# PCOD9281076 Si02
#       5
#     8   8   8   8   8
#     4  11  16  32  62  85 115 153 196 249 288 344
#     4  10  21  38  58  81 117 156 189 243 306 352
#     4   9  19  34  56  89 113 149 197 238 292 346
#     4  11  19  36  61  85 117 150 200 246 287 353
#     4   9  21  34  53  87 113 150 196 237 299 348
#
# _framework density 24.511904999999999
#
# number of rings (size 3 to 8) (size 9 to 14) (size 15 to 20)
#    1.200    0.800    4.000    1.200    0.000    1.600 
#    0.000    7.000    0.000    0.000    0.000    0.000 
#    0.000    0.000    0.000    0.000    0.000    0.000 
#
# Total GULP energy -111515.306669 kJ/mol
# GULP energy per Si atom -5575.765333 kJ/mol
# Density = 2.445611 g / cm^3
# Si number density = 24.511905 Si / 1000 Ang^3
#
#
#
# Elastic Constant Matrix: (Units=GPa)
#
#
# Indices 1 2 3 4 5 6 
#
# 1 48.1707 33.5111 40.8407 0.0000 0.0441 0.0000
# 2 33.5111 219.1409 86.8779 0.0000 -3.6741 0.0000
# 3 40.8407 86.8779 168.7677 0.0000 2.9822 0.0000
# 4 0.0000 0.0000 0.0000 29.9845 0.0000 20.8377
# 5 0.0441 -3.6741 2.9822 0.0000 41.3749 0.0000
# 6 0.0000 0.0000 0.0000 20.8377 0.0000 -33.6484
#
#
#
# Elastic Compliance Matrix: (Units=1/GPa)
#
#
# Indices 1 2 3 4 5 6 
#
# 1 0.026744 -0.001909 -0.005493 0.000000 0.000198 0.000000
# 2 -0.001909 0.005891 -0.002583 0.000000 0.000711 0.000000
# 3 -0.005493 -0.002583 0.008599 0.000000 -0.000843 0.000000
# 4 0.000000 0.000000 0.000000 0.023316 0.000000 0.014439
# 5 0.000198 0.000711 -0.000843 0.000000 0.024293 0.000000
# 6 0.000000 0.000000 0.000000 0.014439 0.000000 -0.020777
#
#
# Mechanical properties :
#
#
# Convention : Reuss Voigt Hill
#
# Bulk Modulus (GPa) = 47.02600 84.28207 65.65403
# Shear Modulus (GPa) = 52.56257 25.86552 39.21404
#
# Velocity S-wave (km/s) = 4.63576 3.25194 4.00408
# Velocity P-wave (km/s) = 6.91956 6.96843 6.94403
#
# Compressibility (1/GPa) = 0.02126483
#
# Stress axis : x y z
#
# Youngs Moduli (GPa) = 37.39128 169.74314 116.28887
#
# Poissons Ratio (x) = 0.32401 0.63875
# Poissons Ratio (y) = 0.07137 0.30041
# Poissons Ratio (z) = 0.20538 0.43850
#
# Static dielectric constant tensor:
#      x y z
#    x 2.007860 0.000000 0.024990 
#    y 0.000000 2.003770 0.000000 
#    z 0.024990 0.000000 1.872120 
# 
# From -- ./inp_files/116169.got.cif
#   From: 2010.05.17/outbox.cif.g08.bks.cpg/sg15_59_cif.got.tgz:116169.got - 2010.06.03 18:47:42.
