data_PCOD9281978
_publ_section_title
;
Structure prediction by ZEFSAII (Michael W. Deem and Ramdas Pophale) SiO2 
 PCOD9281978
Probable space group: C 2/C
;
_chemical_formula_sum "Si O2"
_cell_formula_units_Z 24
_cell_length_a 7.779496
_cell_length_b 14.244605
_cell_length_c 14.388747
_cell_angle_alpha 90.000000
_cell_angle_beta 141.618216
_cell_angle_gamma 90.000000
_cell_volume 990.023544
_symmetry_space_group_name_H-M "C 2/C"
_symmetry_group_IT_number 15
_symmetry_cell_setting 'monoclinic'
loop_
_space_group_symop_operation_xyz
x,y,z
-x,y,1/2-z
-x,-y,-z
x,-y,1/2+z
1/2+x,1/2+y,z
1/2-x,1/2+y,1/2-z
1/2-x,1/2-y,-z
1/2+x,1/2-y,1/2+z
loop_
_atom_site_type_symbol
_atom_site_label
_atom_site_fract_x
_atom_site_fract_y
_atom_site_fract_z
Si Si1 0.198608 0.701782 0.575595
Si Si2 0.295174 0.361920 0.414057
Si Si3 0.143827 0.016223 0.908201
O O1 0.500000 0.701104 0.750000
O O2 0.250000 0.750000 0.500000
O O3 0.127141 0.593971 0.523712
O O4 0.978832 0.773377 0.524544
O O5 0.263657 0.432386 0.486744
O O6 0.438233 0.423080 0.390657
O O7 0.000000 0.330391 0.250000
O O8 0.000000 0.988264 0.750000
#
# Coordination Sequence:
#
# PCOD9281978 Si02
#       3
#     8   8   8
#     4   9  19  39  64  89 128 174 210 263 334 390
#     4  10  21  38  67 100 127 168 226 276 323 392
#     4   9  20  39  63  92 133 177 214 265 337 397
#
# _framework density 24.241848000000001
#
# number of rings (size 3 to 8) (size 9 to 14) (size 15 to 20)
#    0.000    2.667    0.000    0.000    0.000   13.333 
#    0.000   21.667    0.000   18.000    0.000    9.333 
#    0.000    0.000    0.000    0.000    0.000    0.000 
#
# Total GULP energy -67038.141843 kJ/mol
# GULP energy per Si atom -5586.511820 kJ/mol
# Density = 2.418667 g / cm^3
# Si number density = 24.241848 Si / 1000 Ang^3
#
#
#
# Elastic Constant Matrix: (Units=GPa)
#
#
# Indices 1 2 3 4 5 6 
#
# 1 132.5448 44.5959 40.5227 -0.0001 -17.6225 0.0001
# 2 44.5959 189.6653 95.5589 -0.0005 5.3710 0.0000
# 3 40.5227 95.5589 131.6794 0.0001 -19.6057 0.0010
# 4 -0.0001 -0.0005 0.0001 27.4763 0.0001 -8.5854
# 5 -17.6225 5.3710 -19.6057 0.0001 52.1450 0.0004
# 6 0.0001 0.0000 0.0010 -8.5854 0.0004 29.3292
#
#
#
# Elastic Compliance Matrix: (Units=1/GPa)
#
#
# Indices 1 2 3 4 5 6 
#
# 1 0.008783 -0.001546 -0.001182 0.000000 0.002683 0.000000
# 2 -0.001546 0.009160 -0.006769 0.000000 -0.004011 0.000000
# 3 -0.001182 -0.006769 0.013680 0.000000 0.005441 -0.000001
# 4 0.000000 0.000000 0.000000 0.040059 0.000000 0.011726
# 5 0.002683 -0.004011 0.005441 0.000000 0.022543 -0.000001
# 6 0.000000 0.000000 -0.000001 0.011726 -0.000001 0.037528
#
#
# Mechanical properties :
#
#
# Convention : Reuss Voigt Hill
#
# Bulk Modulus (GPa) = 79.17357 90.58274 84.87815
# Shear Modulus (GPa) = 32.26756 40.00424 36.13590
#
# Velocity S-wave (km/s) = 3.65234 4.06669 3.86507
# Velocity P-wave (km/s) = 7.10752 7.71350 7.41670
#
# Compressibility (1/GPa) = 0.01263048
#
# Stress axis : x y z
#
# Youngs Moduli (GPa) = 113.86068 109.17391 73.10002
#
# Poissons Ratio (x) = 0.16876 0.08637
# Poissons Ratio (y) = 0.17600 0.49479
# Poissons Ratio (z) = 0.13453 0.73896
#
# Static dielectric constant tensor:
#      x y z
#    x 2.001220 0.000000 -0.013530 
#    y 0.000000 1.675330 0.000000 
#    z -0.013530 0.000000 1.838510 
# 
# From -- ./inp_files/133018.got.cif
#   From: 2010.05.17/outbox.cif.g08.bks.cpg/sg15_67_cif.got.tgz:133018.got - 2010.06.03 18:47:42.
