data_PCOD9281547
_publ_section_title
;
Structure prediction by ZEFSAII (Michael W. Deem and Ramdas Pophale) SiO2 
 PCOD9281547
Probable space group: C 2/C
;
_chemical_formula_sum "Si O2"
_cell_formula_units_Z 64
_cell_length_a 18.239763
_cell_length_b 8.645956
_cell_length_c 30.581432
_cell_angle_alpha 90.000000
_cell_angle_beta 38.731151
_cell_angle_gamma 90.000000
_cell_volume 3017.402124
_symmetry_space_group_name_H-M "C 2/C"
_symmetry_group_IT_number 15
_symmetry_cell_setting 'monoclinic'
loop_
_space_group_symop_operation_xyz
x,y,z
-x,y,1/2-z
-x,-y,-z
x,-y,1/2+z
1/2+x,1/2+y,z
1/2-x,1/2+y,1/2-z
1/2-x,1/2-y,-z
1/2+x,1/2-y,1/2+z
loop_
_atom_site_type_symbol
_atom_site_label
_atom_site_fract_x
_atom_site_fract_y
_atom_site_fract_z
Si Si1 0.484670 0.917899 0.405925
Si Si2 0.717255 0.230419 0.900911
Si Si3 0.782365 0.756774 0.699283
Si Si4 0.910476 0.938258 0.168303
Si Si5 0.531687 0.347498 0.457645
Si Si6 0.137811 0.896081 0.569349
Si Si7 0.695976 0.882408 0.556228
Si Si8 0.322711 0.893793 0.559467
O O1 0.621202 0.880946 0.340775
O O2 0.424844 0.757811 0.417882
O O3 0.438226 0.935719 0.476933
O O4 0.428301 0.055321 0.403728
O O5 0.723940 0.296225 0.849173
O O6 0.801768 0.316153 0.896029
O O7 0.726821 0.045087 0.893446
O O8 0.589650 0.256261 0.981447
O O9 0.661017 0.692691 0.773724
O O10 0.832114 0.906131 0.701124
O O11 0.939052 0.887856 0.105525
O O12 0.035116 0.986025 0.130719
O O13 0.500000 0.500000 0.500000
O O14 0.636852 0.247889 0.429591
O O15 0.224132 0.860230 0.568946
O O16 0.213619 0.976300 0.495519
O O17 0.750000 0.750000 0.500000
#
# Coordination Sequence:
#
# PCOD9281547 Si02
#       8
#     8   8   8   8   8   8   8   8
#     4  10  21  38  62  93 133 169 214 265 331 405
#     4  12  23  38  64 102 133 166 220 282 333 398
#     4  11  26  43  64  93 133 173 224 272 342 410
#     4  11  25  44  67  93 130 182 222 276 343 410
#     4  12  23  40  68  99 133 169 230 281 328 398
#     4  10  21  39  62  92 128 175 216 266 331 399
#     4  11  20  34  62  98 133 164 214 272 335 389
#     4  11  22  36  63 101 131 165 215 283 335 385
#
# _framework density 21.210298999999999
#
# number of rings (size 3 to 8) (size 9 to 14) (size 15 to 20)
#    0.000    1.000    6.250    2.625    3.500    1.000 
#    0.000    0.625    0.000    1.500    0.000    0.000 
#    0.000    0.000    0.000    0.000    0.000    0.000 
#
# Total GULP energy -178907.972394 kJ/mol
# GULP energy per Si atom -5590.874137 kJ/mol
# Density = 2.116202 g / cm^3
# Si number density = 21.210299 Si / 1000 Ang^3
#
#
#
# Elastic Constant Matrix: (Units=GPa)
#
#
# Indices 1 2 3 4 5 6 
#
# 1 79.9237 28.7164 15.8166 0.0011 -6.4403 -0.0053
# 2 28.7164 77.8336 8.9752 0.0037 -2.4889 -0.0068
# 3 15.8166 8.9752 76.2902 0.0005 -11.4012 -0.0020
# 4 0.0011 0.0037 0.0005 36.1052 0.0002 -5.3351
# 5 -6.4403 -2.4889 -11.4012 0.0002 10.5656 0.0004
# 6 -0.0053 -0.0068 -0.0020 -5.3351 0.0004 46.0612
#
#
#
# Elastic Compliance Matrix: (Units=1/GPa)
#
#
# Indices 1 2 3 4 5 6 
#
# 1 0.015215 -0.005228 -0.001595 0.000000 0.006322 0.000001
# 2 -0.005228 0.014846 -0.000735 -0.000001 -0.000482 0.000001
# 3 -0.001595 -0.000735 0.015921 0.000000 0.016035 0.000000
# 4 0.000000 -0.000001 0.000000 0.028179 -0.000001 0.003264
# 5 0.006322 -0.000482 0.016035 -0.000001 0.115691 0.000000
# 6 0.000001 0.000001 0.000000 0.003264 0.000000 0.022088
#
#
# Mechanical properties :
#
#
# Convention : Reuss Voigt Hill
#
# Bulk Modulus (GPa) = 32.39551 37.89600 35.14575
# Shear Modulus (GPa) = 21.06647 30.58236 25.82441
#
# Velocity S-wave (km/s) = 3.15496 3.80131 3.49311
# Velocity P-wave (km/s) = 5.34587 6.09690 5.73369
#
# Compressibility (1/GPa) = 0.03086848
#
# Stress axis : x y z
#
# Youngs Moduli (GPa) = 65.72372 67.35859 62.80890
#
# Poissons Ratio (x) = 0.35212 0.10015
# Poissons Ratio (y) = 0.34357 0.04615
# Poissons Ratio (z) = 0.10480 0.04950
#
# Static dielectric constant tensor:
#      x y z
#    x 1.791860 0.000000 -0.022090 
#    y 0.000000 1.870930 0.000000 
#    z -0.022090 0.000000 1.728490 
# 
# From -- ./inp_files/315704.got.cif
#   From: 2010.05.17/outbox.cif.g08.bks.cpg/sg15_158_cif.got.tgz:315704.got - 2010.06.03 18:47:42.
