data_PCOD9281882
_publ_section_title
;
Structure prediction by ZEFSAII (Michael W. Deem and Ramdas Pophale) SiO2 
 PCOD9281882
Probable space group: C 2/C
;
_chemical_formula_sum "Si O2"
_cell_formula_units_Z 44
_cell_length_a 11.420651
_cell_length_b 9.140338
_cell_length_c 17.661847
_cell_angle_alpha 90.000000
_cell_angle_beta 59.428677
_cell_angle_gamma 90.000000
_cell_volume 1587.415880
_symmetry_space_group_name_H-M "C 2/C"
_symmetry_group_IT_number 15
_symmetry_cell_setting 'monoclinic'
loop_
_space_group_symop_operation_xyz
x,y,z
-x,y,1/2-z
-x,-y,-z
x,-y,1/2+z
1/2+x,1/2+y,z
1/2-x,1/2+y,1/2-z
1/2-x,1/2-y,-z
1/2+x,1/2-y,1/2+z
loop_
_atom_site_type_symbol
_atom_site_label
_atom_site_fract_x
_atom_site_fract_y
_atom_site_fract_z
Si Si1 0.090346 0.085902 0.087444
Si Si2 0.814102 0.533961 0.221210
Si Si3 0.000000 0.697581 0.750000
Si Si4 0.342808 0.031369 0.547221
Si Si5 0.046431 0.251089 0.648471
Si Si6 0.166917 0.153408 0.410069
O O1 0.063647 0.196960 0.165019
O O2 0.996865 0.125234 0.046829
O O3 0.254427 0.076013 0.024726
O O4 0.065167 0.911509 0.109633
O O5 0.771908 0.468316 0.154503
O O6 0.699777 0.604735 0.311583
O O7 0.893176 0.408238 0.241784
O O8 0.916918 0.661061 0.161029
O O9 0.344437 0.203394 0.533637
O O10 0.500000 0.000000 0.500000
O O11 0.172651 0.366190 0.615886
O O12 0.000000 0.223051 0.750000
#
# Coordination Sequence:
#
# PCOD9281882 Si02
#       6
#     8   8   4   8   8   8
#     4  11  22  36  65  97 127 174 223 272 340 391
#     4  11  22  40  66  95 135 166 221 283 324 397
#     4  12  20  36  66 108 122 166 230 284 322 384
#     4  11  26  44  63  96 141 178 213 279 349 404
#     4   9  19  37  57  93 134 164 209 281 336 382
#     4  10  21  38  65  96 129 166 232 272 322 403
#
# _framework density 27.718003
#
# number of rings (size 3 to 8) (size 9 to 14) (size 15 to 20)
#    0.000    1.455    5.455    1.091    5.091    0.727 
#    0.000    3.636    0.000    3.273    0.000    0.000 
#    0.000    0.000    0.000    0.000    0.000    0.000 
#
# Total GULP energy -122486.073552 kJ/mol
# GULP energy per Si atom -5567.548798 kJ/mol
# Density = 2.765492 g / cm^3
# Si number density = 27.718003 Si / 1000 Ang^3
#
#
#
# Elastic Constant Matrix: (Units=GPa)
#
#
# Indices 1 2 3 4 5 6 
#
# 1 179.6883 47.3749 25.6994 0.0000 -19.7400 0.0000
# 2 47.3749 120.8037 24.0303 0.0000 2.8484 0.0000
# 3 25.6994 24.0303 45.7044 0.0000 5.6515 0.0000
# 4 0.0000 0.0000 0.0000 15.1750 0.0000 -34.8894
# 5 -19.7400 2.8484 5.6515 0.0000 44.6744 0.0000
# 6 0.0000 0.0000 0.0000 -34.8894 0.0000 36.0371
#
#
#
# Elastic Compliance Matrix: (Units=1/GPa)
#
#
# Indices 1 2 3 4 5 6 
#
# 1 0.007006 -0.002189 -0.003239 0.000000 0.003645 0.000000
# 2 -0.002189 0.009929 -0.003852 0.000000 -0.001113 0.000000
# 3 -0.003239 -0.003852 0.026284 0.000000 -0.004511 0.000000
# 4 0.000000 0.000000 0.000000 -0.053754 0.000000 -0.052042
# 5 0.003645 -0.001113 -0.004511 0.000000 0.024636 0.000000
# 6 0.000000 0.000000 0.000000 -0.052042 0.000000 -0.022635
#
#
# Mechanical properties :
#
#
# Convention : Reuss Voigt Hill
#
# Bulk Modulus (GPa) = 40.55359 60.04507 50.29933
# Shear Modulus (GPa) = 274.03471 35.78340 154.90906
#
# Velocity S-wave (km/s) = 9.95389 3.59692 7.48391
# Velocity P-wave (km/s) = 12.11483 6.24182 9.63663
#
# Compressibility (1/GPa) = 0.02465873
#
# Stress axis : x y z
#
# Youngs Moduli (GPa) = 142.73324 100.71671 38.04590
#
# Poissons Ratio (x) = 0.22048 0.12324
# Poissons Ratio (y) = 0.31246 0.14654
# Poissons Ratio (z) = 0.46234 0.38794
#
# Static dielectric constant tensor:
#      x y z
#    x 2.168330 0.000000 0.169950 
#    y 0.000000 2.203760 0.000000 
#    z 0.169950 0.000000 1.826660 
# 
# From -- ./inp_files/267964.got.cif
#   From: 2010.05.17/outbox.cif.g08.bks.cpg/sg15_134_cif.got.tgz:267964.got - 2010.06.03 18:47:42.
