data_PCOD9281050
_publ_section_title
;
Structure prediction by ZEFSAII (Michael W. Deem and Ramdas Pophale) SiO2 
 PCOD9281050
Probable space group: C 2/C
;
_chemical_formula_sum "Si O2"
_cell_formula_units_Z 36
_cell_length_a 5.135610
_cell_length_b 23.849280
_cell_length_c 13.200089
_cell_angle_alpha 90.000000
_cell_angle_beta 75.140019
_cell_angle_gamma 90.000000
_cell_volume 1562.683180
_symmetry_space_group_name_H-M "C 2/C"
_symmetry_group_IT_number 15
_symmetry_cell_setting 'monoclinic'
loop_
_space_group_symop_operation_xyz
x,y,z
-x,y,1/2-z
-x,-y,-z
x,-y,1/2+z
1/2+x,1/2+y,z
1/2-x,1/2+y,1/2-z
1/2-x,1/2-y,-z
1/2+x,1/2-y,1/2+z
loop_
_atom_site_type_symbol
_atom_site_label
_atom_site_fract_x
_atom_site_fract_y
_atom_site_fract_z
Si Si1 0.475023 0.713422 0.531310
Si Si2 0.350172 0.652429 0.165194
Si Si3 0.087410 0.019053 0.630580
Si Si4 0.113990 0.445809 0.581577
Si Si5 0.000000 0.758874 0.250000
O O1 0.250000 0.750000 0.500000
O O2 0.480175 0.660855 0.454905
O O3 0.433446 0.706248 0.655640
O O4 0.750000 0.750000 0.500000
O O5 0.500000 0.631346 0.250000
O O6 0.128374 0.610115 0.145131
O O7 0.238328 0.713891 0.204995
O O8 0.314098 0.969992 0.611906
O O9 0.000000 0.039086 0.750000
O O10 0.817200 0.992198 0.609558
O O11 0.249309 0.062187 0.542579
#
# Coordination Sequence:
#
# PCOD9281050 Si02
#       5
#     8   8   8   8   4
#     4  10  21  38  57  85 122 160 197 250 322 364
#     4  11  22  36  62  91 123 154 218 260 301 377
#     4  10  21  40  59  82 127 158 193 256 325 371
#     4  10  23  36  59  93 114 157 209 253 306 377
#     4  10  22  38  60  86 122 166 200 260 314 370
#
# _framework density 23.037299000000001
#
# number of rings (size 3 to 8) (size 9 to 14) (size 15 to 20)
#    0.000    1.778    2.222    1.333    6.222    0.000 
#    2.000    0.000    0.000    0.000    0.000    0.000 
#    0.000    0.000    0.000    0.000    0.000    0.000 
#
# Total GULP energy -100411.783807 kJ/mol
# GULP energy per Si atom -5578.432434 kJ/mol
# Density = 2.298487 g / cm^3
# Si number density = 23.037299 Si / 1000 Ang^3
#
#
#
# Elastic Constant Matrix: (Units=GPa)
#
#
# Indices 1 2 3 4 5 6 
#
# 1 107.9033 5.6668 23.8750 0.0000 16.6520 0.0000
# 2 5.6668 31.8103 31.6786 0.0000 2.6010 0.0000
# 3 23.8750 31.6786 237.6971 0.0000 7.5013 0.0000
# 4 0.0000 0.0000 0.0000 7.8075 0.0000 9.2863
# 5 16.6520 2.6010 7.5013 0.0000 37.2966 0.0000
# 6 0.0000 0.0000 0.0000 9.2863 0.0000 26.4564
#
#
#
# Elastic Compliance Matrix: (Units=1/GPa)
#
#
# Indices 1 2 3 4 5 6 
#
# 1 0.010145 -0.000663 -0.000794 0.000000 -0.004324 0.000000
# 2 -0.000663 0.036382 -0.004741 0.000000 -0.001288 0.000000
# 3 -0.000794 -0.004741 0.004928 0.000000 -0.000306 0.000000
# 4 0.000000 0.000000 0.000000 0.219876 0.000000 -0.077177
# 5 -0.004324 -0.001288 -0.000306 0.000000 0.028894 0.000000
# 6 0.000000 0.000000 0.000000 -0.077177 0.000000 0.064888
#
#
# Mechanical properties :
#
#
# Convention : Reuss Voigt Hill
#
# Bulk Modulus (GPa) = 25.60286 55.53906 40.57096
# Shear Modulus (GPa) = 12.80314 35.39146 24.09730
#
# Velocity S-wave (km/s) = 2.36001 3.92378 3.23772
# Velocity P-wave (km/s) = 4.30859 6.68496 5.62373
#
# Compressibility (1/GPa) = 0.03905814
#
# Stress axis : x y z
#
# Youngs Moduli (GPa) = 98.56741 27.48645 202.90653
#
# Poissons Ratio (x) = 0.01822 0.16116
# Poissons Ratio (y) = 0.06534 0.96208
# Poissons Ratio (z) = 0.07829 0.13033
#
# Static dielectric constant tensor:
#      x y z
#    x 1.874970 0.000000 -0.056510 
#    y 0.000000 1.853290 0.000000 
#    z -0.056510 0.000000 1.987850 
# 
# From -- ./inp_files/72881.got.cif
#   From: 2010.05.17/outbox.cif.g08.bks.cpg/sg15_37_cif.got.tgz:72881.got - 2010.06.03 18:47:42.
