data_PCOD9281548
_publ_section_title
;
Structure prediction by ZEFSAII (Michael W. Deem and Ramdas Pophale) SiO2 
 PCOD9281548
Probable space group: C 2/C
;
_chemical_formula_sum "Si O2"
_cell_formula_units_Z 60
_cell_length_a 25.471027
_cell_length_b 10.562359
_cell_length_c 17.036647
_cell_angle_alpha 90.000000
_cell_angle_beta 30.882994
_cell_angle_gamma 90.000000
_cell_volume 2352.617846
_symmetry_space_group_name_H-M "C 2/C"
_symmetry_group_IT_number 15
_symmetry_cell_setting 'monoclinic'
loop_
_space_group_symop_operation_xyz
x,y,z
-x,y,1/2-z
-x,-y,-z
x,-y,1/2+z
1/2+x,1/2+y,z
1/2-x,1/2+y,1/2-z
1/2-x,1/2-y,-z
1/2+x,1/2-y,1/2+z
loop_
_atom_site_type_symbol
_atom_site_label
_atom_site_fract_x
_atom_site_fract_y
_atom_site_fract_z
Si Si1 0.433376 0.110043 0.966362
Si Si2 0.301716 0.097569 0.438599
Si Si3 0.738950 0.081529 0.766263
Si Si4 0.184594 0.133793 0.141235
Si Si5 0.065628 0.762282 0.922914
Si Si6 0.641468 0.283750 0.244612
Si Si7 0.000000 0.577031 0.250000
Si Si8 0.341908 0.661994 0.489206
O O1 0.502697 0.163646 0.947563
O O2 0.492482 0.009207 0.837183
O O3 0.406712 0.230239 0.947559
O O4 0.326382 0.042826 0.127876
O O5 0.330837 0.136989 0.312700
O O6 0.192875 0.153114 0.603099
O O7 0.394143 0.147781 0.374473
O O8 0.280925 0.956748 0.498582
O O9 0.653458 0.185531 0.853627
O O10 0.804643 0.149162 0.750540
O O11 0.810218 0.065312 0.597917
O O12 0.236203 0.268563 0.096334
O O13 0.111765 0.124106 0.310638
O O14 0.118218 0.122365 0.147055
O O15 0.978153 0.804055 0.094825
#
# Coordination Sequence:
#
# PCOD9281548 Si02
#       8
#     8   8   8   8   8   8   4   8
#     4  12  22  39  65 103 133 174 230 289 350 414
#     4  11  25  43  71 100 140 186 235 290 348 422
#     4  11  23  41  66 100 138 182 229 297 346 415
#     4  10  22  42  63 100 136 182 222 286 349 418
#     4  11  25  41  70 100 141 182 234 283 361 428
#     4  11  24  46  67 103 141 185 238 284 349 421
#     4  12  22  38  72 102 132 178 236 284 348 406
#     4  10  21  38  62  93 140 169 221 285 348 409
#
# _framework density 25.503505000000001
#
# number of rings (size 3 to 8) (size 9 to 14) (size 15 to 20)
#    0.000    1.067    4.000    2.000    5.600    0.533 
#    0.000    0.000    5.867    0.000    0.000    0.000 
#    0.000    0.000    0.000    0.000    0.000    0.000 
#
# Total GULP energy -167527.805167 kJ/mol
# GULP energy per Si atom -5584.260172 kJ/mol
# Density = 2.544546 g / cm^3
# Si number density = 25.503505 Si / 1000 Ang^3
#
#
#
# Elastic Constant Matrix: (Units=GPa)
#
#
# Indices 1 2 3 4 5 6 
#
# 1 72.5385 28.3945 9.3527 0.0001 -5.2809 0.0000
# 2 28.3945 51.7238 21.9376 -0.0002 -6.3426 0.0000
# 3 9.3527 21.9376 119.7574 -0.0001 10.1374 0.0000
# 4 0.0001 -0.0002 -0.0001 32.2738 0.0000 -5.2383
# 5 -5.2809 -6.3426 10.1374 0.0000 35.9132 0.0000
# 6 0.0000 0.0000 0.0000 -5.2383 0.0000 23.9799
#
#
#
# Elastic Compliance Matrix: (Units=1/GPa)
#
#
# Indices 1 2 3 4 5 6 
#
# 1 0.017600 -0.009710 0.000338 0.000000 0.000778 0.000000
# 2 -0.009710 0.027197 -0.004620 0.000000 0.004679 0.000000
# 3 0.000338 -0.004620 0.009461 0.000000 -0.003437 0.000000
# 4 0.000000 0.000000 0.000000 0.032124 0.000000 0.007017
# 5 0.000778 0.004679 -0.003437 0.000000 0.029756 0.000000
# 6 0.000000 0.000000 0.000000 0.007017 0.000000 0.043234
#
#
# Mechanical properties :
#
#
# Convention : Reuss Voigt Hill
#
# Bulk Modulus (GPa) = 38.05878 40.37658 39.21768
# Shear Modulus (GPa) = 25.49562 30.72238 28.10900
#
# Velocity S-wave (km/s) = 3.16522 3.47455 3.32348
# Velocity P-wave (km/s) = 5.32104 5.65357 5.48982
#
# Compressibility (1/GPa) = 0.02627515
#
# Stress axis : x y z
#
# Youngs Moduli (GPa) = 56.81974 36.76890 105.69720
#
# Poissons Ratio (x) = 0.35701 -0.03576
# Poissons Ratio (y) = 0.55170 0.48830
# Poissons Ratio (z) = -0.01922 0.16987
#
# Static dielectric constant tensor:
#      x y z
#    x 2.040770 0.000000 0.073230 
#    y 0.000000 2.286990 0.000000 
#    z 0.073230 0.000000 2.163870 
# 
# From -- ./inp_files/222525.got.cif
#   From: 2010.05.17/outbox.cif.g08.bks.cpg/sg15_112_cif.got.tgz:222525.got - 2010.06.03 18:47:42.
