data_PCOD9281966
_publ_section_title
;
Structure prediction by ZEFSAII (Michael W. Deem and Ramdas Pophale) SiO2 
 PCOD9281966
Probable space group: C 2/C
;
_chemical_formula_sum "Si O2"
_cell_formula_units_Z 64
_cell_length_a 15.343057
_cell_length_b 15.042358
_cell_length_c 24.985310
_cell_angle_alpha 90.000000
_cell_angle_beta 152.309829
_cell_angle_gamma 90.000000
_cell_volume 2679.637389
_symmetry_space_group_name_H-M "C 2/C"
_symmetry_group_IT_number 15
_symmetry_cell_setting 'monoclinic'
loop_
_space_group_symop_operation_xyz
x,y,z
-x,y,1/2-z
-x,-y,-z
x,-y,1/2+z
1/2+x,1/2+y,z
1/2-x,1/2+y,1/2-z
1/2-x,1/2-y,-z
1/2+x,1/2-y,1/2+z
loop_
_atom_site_type_symbol
_atom_site_label
_atom_site_fract_x
_atom_site_fract_y
_atom_site_fract_z
Si Si1 0.647500 0.500005 0.943276
Si Si2 0.276553 0.653742 0.843399
Si Si3 0.221564 0.179125 0.533733
Si Si4 0.261180 0.022390 0.237821
Si Si5 0.076465 0.457700 0.488124
Si Si6 0.598086 0.200225 0.234654
Si Si7 0.916822 0.708227 0.866661
Si Si8 0.703503 0.327580 0.545898
O O1 0.756894 0.417791 0.030053
O O2 0.428896 0.478797 0.830881
O O3 0.691486 0.586154 0.001960
O O4 0.731295 0.499039 0.929180
O O5 0.280307 0.546022 0.834618
O O6 0.126036 0.690797 0.718912
O O7 0.216863 0.679043 0.870979
O O8 0.484448 0.692433 0.940510
O O9 0.250000 0.250000 0.500000
O O10 0.997684 0.193114 0.418275
O O11 0.415529 0.973709 0.357119
O O12 0.359555 0.117069 0.280848
O O13 0.066084 0.350805 0.480995
O O14 0.000000 0.500000 0.500000
O O15 0.714380 0.288669 0.283903
O O16 0.692712 0.162368 0.340449
O O17 0.378687 0.226625 0.114936
#
# Coordination Sequence:
#
# PCOD9281966 Si02
#       8
#     8   8   8   8   8   8   8   8
#     4  11  21  41  68  96 126 171 226 275 343 406
#     4  10  23  42  64  92 139 178 216 278 341 402
#     4  12  23  41  65  98 135 169 218 279 341 401
#     4  10  21  41  67  97 126 169 230 279 333 411
#     4  11  25  45  64  91 138 183 225 272 330 416
#     4  11  20  38  66 101 129 162 220 280 334 400
#     4  11  24  43  64 100 137 172 226 275 338 401
#     4  10  21  38  66  97 126 174 215 275 343 392
#
# _framework density 23.883827
#
# number of rings (size 3 to 8) (size 9 to 14) (size 15 to 20)
#    0.000    1.250    5.000    0.750    0.000    4.500 
#    0.000    8.750    0.000    0.000    0.000    0.000 
#    0.000    0.000    0.000    0.000    0.000    0.000 
#
# Total GULP energy -178166.947725 kJ/mol
# GULP energy per Si atom -5567.717116 kJ/mol
# Density = 2.382947 g / cm^3
# Si number density = 23.883827 Si / 1000 Ang^3
#
#
#
# Elastic Constant Matrix: (Units=GPa)
#
#
# Indices 1 2 3 4 5 6 
#
# 1 148.3616 27.8264 26.9499 0.0000 9.9316 0.0001
# 2 27.8264 33.2685 -0.0436 0.0007 -7.8272 0.0001
# 3 26.9499 -0.0436 80.9319 0.0030 16.8609 0.0003
# 4 0.0000 0.0007 0.0030 24.2167 0.0005 7.5745
# 5 9.9316 -7.8272 16.8609 0.0005 26.9066 0.0000
# 6 0.0001 0.0001 0.0003 7.5745 0.0000 15.2935
#
#
#
# Elastic Compliance Matrix: (Units=1/GPa)
#
#
# Indices 1 2 3 4 5 6 
#
# 1 0.009040 -0.008636 -0.002066 0.000001 -0.004554 0.000000
# 2 -0.008636 0.040869 -0.000280 -0.000002 0.015252 0.000001
# 3 -0.002066 -0.000280 0.014839 -0.000002 -0.008618 0.000001
# 4 0.000001 -0.000002 -0.000002 0.048863 -0.000001 -0.024201
# 5 -0.004554 0.015252 -0.008618 -0.000001 0.048684 0.000000
# 6 0.000000 0.000001 0.000001 -0.024201 0.000000 0.077373
#
#
# Mechanical properties :
#
#
# Convention : Reuss Voigt Hill
#
# Bulk Modulus (GPa) = 23.37234 41.33638 32.35436
# Shear Modulus (GPa) = 18.12286 27.13865 22.63076
#
# Velocity S-wave (km/s) = 2.75761 3.37453 3.08154
# Velocity P-wave (km/s) = 4.46613 5.70334 5.12222
#
# Compressibility (1/GPa) = 0.04278561
#
# Stress axis : x y z
#
# Youngs Moduli (GPa) = 110.61780 24.46819 67.38853
#
# Poissons Ratio (x) = 0.21130 0.13924
# Poissons Ratio (y) = 0.95524 0.01886
# Poissons Ratio (z) = 0.22856 0.00685
#
# Static dielectric constant tensor:
#      x y z
#    x 2.121100 0.000000 0.070650 
#    y 0.000000 2.040250 0.000000 
#    z 0.070650 0.000000 1.898730 
# 
# From -- ./inp_files/274846.got.cif
#   From: 2010.05.17/outbox.cif.g08.bks.cpg/sg15_138_cif.got.tgz:274846.got - 2010.06.03 18:47:42.
