data_PCOD9281390
_publ_section_title
;
Structure prediction by ZEFSAII (Michael W. Deem and Ramdas Pophale) SiO2 
 PCOD9281390
Probable space group: C 2/C
;
_chemical_formula_sum "Si O2"
_cell_formula_units_Z 36
_cell_length_a 11.269118
_cell_length_b 16.704779
_cell_length_c 8.654232
_cell_angle_alpha 90.000000
_cell_angle_beta 104.562712
_cell_angle_gamma 90.000000
_cell_volume 1576.803497
_symmetry_space_group_name_H-M "C 2/C"
_symmetry_group_IT_number 15
_symmetry_cell_setting 'monoclinic'
loop_
_space_group_symop_operation_xyz
x,y,z
-x,y,1/2-z
-x,-y,-z
x,-y,1/2+z
1/2+x,1/2+y,z
1/2-x,1/2+y,1/2-z
1/2-x,1/2-y,-z
1/2+x,1/2-y,1/2+z
loop_
_atom_site_type_symbol
_atom_site_label
_atom_site_fract_x
_atom_site_fract_y
_atom_site_fract_z
Si Si1 0.746634 0.107871 0.597162
Si Si2 0.500000 0.693442 0.750000
Si Si3 0.637323 0.175938 0.093160
Si Si4 0.368230 0.019871 0.235601
Si Si5 0.366259 0.238640 0.743794
O O1 0.693802 0.065064 0.428377
O O2 0.659271 0.182331 0.618524
O O3 0.885619 0.141619 0.647073
O O4 0.727158 0.041368 0.722776
O O5 0.444104 0.752304 0.862717
O O6 0.594828 0.089342 0.130296
O O7 0.769216 0.190867 0.214213
O O8 0.657631 0.185423 0.917914
O O9 0.500000 0.978315 0.250000
O O10 0.500000 0.269786 0.750000
#
# Coordination Sequence:
#
# PCOD9281390 Si02
#       5
#     8   4   8   8   8
#     4  11  25  41  67  92 134 166 216 258 330 366
#     4  10  24  44  64  96 132 170 206 266 316 396
#     4  10  22  39  63  92 129 162 215 253 322 370
#     4  12  23  41  66  95 124 171 215 270 307 383
#     4  10  21  38  61  90 125 165 206 263 306 381
#
# _framework density 22.830998999999998
#
# number of rings (size 3 to 8) (size 9 to 14) (size 15 to 20)
#    0.000    1.333    1.111    4.000    3.111    2.667 
#    2.000    0.000    0.000    0.000    0.000    0.000 
#    0.000    0.000    0.000    0.000    0.000    0.000 
#
# Total GULP energy -100671.798090 kJ/mol
# GULP energy per Si atom -5592.877672 kJ/mol
# Density = 2.277903 g / cm^3
# Si number density = 22.830999 Si / 1000 Ang^3
#
#
#
# Elastic Constant Matrix: (Units=GPa)
#
#
# Indices 1 2 3 4 5 6 
#
# 1 163.3848 49.3488 23.9178 0.0000 22.9538 0.0000
# 2 49.3488 58.6865 15.5005 0.0000 6.8747 0.0000
# 3 23.9178 15.5005 72.5978 0.0000 5.7491 0.0000
# 4 0.0000 0.0000 0.0000 38.0822 0.0000 0.3339
# 5 22.9538 6.8747 5.7491 0.0000 29.8569 0.0000
# 6 0.0000 0.0000 0.0000 0.3339 0.0000 36.9965
#
#
#
# Elastic Compliance Matrix: (Units=1/GPa)
#
#
# Indices 1 2 3 4 5 6 
#
# 1 0.009037 -0.006691 -0.001138 0.000000 -0.005188 0.000000
# 2 -0.006691 0.023372 -0.002810 0.000000 0.000303 0.000000
# 3 -0.001138 -0.002810 0.014855 0.000000 -0.001339 0.000000
# 4 0.000000 0.000000 0.000000 0.026261 0.000000 -0.000237
# 5 -0.005188 0.000303 -0.001339 0.000000 0.037669 0.000000
# 6 0.000000 0.000000 0.000000 -0.000237 0.000000 0.027032
#
#
# Mechanical properties :
#
#
# Convention : Reuss Voigt Hill
#
# Bulk Modulus (GPa) = 38.48001 52.46703 45.47352
# Shear Modulus (GPa) = 29.73244 34.71391 32.22317
#
# Velocity S-wave (km/s) = 3.61263 3.90355 3.76091
# Velocity P-wave (km/s) = 5.85597 6.58388 6.23056
#
# Compressibility (1/GPa) = 0.02598752
#
# Stress axis : x y z
#
# Youngs Moduli (GPa) = 110.65900 42.78533 67.31566
#
# Poissons Ratio (x) = 0.28626 0.07660
# Poissons Ratio (y) = 0.74038 0.18916
# Poissons Ratio (z) = 0.12591 0.12023
#
# Static dielectric constant tensor:
#      x y z
#    x 1.850970 0.000000 0.009920 
#    y 0.000000 1.803510 0.000000 
#    z 0.009920 0.000000 1.923180 
# 
# From -- ./inp_files/28722.got.cif
#   From: 2010.05.17/outbox.cif.g08.bks.cpg/sg15_15_cif.got.tgz:28722.got - 2010.06.03 18:47:42.
