data_PCOD9281663
_publ_section_title
;
Structure prediction by ZEFSAII (Michael W. Deem and Ramdas Pophale) SiO2 
 PCOD9281663
Probable space group: C 2/C
;
_chemical_formula_sum "Si O2"
_cell_formula_units_Z 44
_cell_length_a 7.248886
_cell_length_b 11.298064
_cell_length_c 25.411834
_cell_angle_alpha 90.000000
_cell_angle_beta 100.984682
_cell_angle_gamma 90.000000
_cell_volume 2043.056794
_symmetry_space_group_name_H-M "C 2/C"
_symmetry_group_IT_number 15
_symmetry_cell_setting 'monoclinic'
loop_
_space_group_symop_operation_xyz
x,y,z
-x,y,1/2-z
-x,-y,-z
x,-y,1/2+z
1/2+x,1/2+y,z
1/2-x,1/2+y,1/2-z
1/2-x,1/2-y,-z
1/2+x,1/2-y,1/2+z
loop_
_atom_site_type_symbol
_atom_site_label
_atom_site_fract_x
_atom_site_fract_y
_atom_site_fract_z
Si Si1 0.022054 0.885223 0.949914
Si Si2 0.334617 0.002885 0.033673
Si Si3 0.145418 0.815544 0.712922
Si Si4 0.000000 0.827262 0.250000
Si Si5 0.429874 0.454923 0.349884
Si Si6 0.092498 0.332599 0.379383
O O1 0.075477 0.765223 0.923877
O O2 0.171707 0.914135 0.003278
O O3 0.805676 0.888098 0.959367
O O4 0.036796 0.988208 0.905598
O O5 0.432152 0.957046 0.092275
O O6 0.500000 0.000000 0.000000
O O7 0.324549 0.757805 0.748682
O O8 0.000000 0.850175 0.750000
O O9 0.049147 0.714144 0.672041
O O10 0.183009 0.931259 0.679562
O O11 0.965236 0.903045 0.195199
O O12 0.295245 0.352174 0.364179
#
# Coordination Sequence:
#
# PCOD9281663 Si02
#       6
#     8   8   8   4   8   8
#     4   9  21  41  61  88 130 157 201 258 306 364
#     4  10  21  38  63  94 120 163 205 253 307 371
#     4  11  23  41  60  90 122 158 211 259 305 376
#     4  12  24  38  66  88 116 174 202 250 326 360
#     4  10  22  42  62  90 126 161 205 258 309 368
#     4  10  21  42  61  86 126 164 199 258 313 362
#
# _framework density 21.536358
#
# number of rings (size 3 to 8) (size 9 to 14) (size 15 to 20)
#    0.000    1.818    2.727    0.545    2.545    2.182 
#    9.818    0.000    0.000    0.000    0.000    0.000 
#    0.000    0.000    0.000    0.000    0.000    0.000 
#
# Total GULP energy -122568.417972 kJ/mol
# GULP energy per Si atom -5571.291726 kJ/mol
# Density = 2.148734 g / cm^3
# Si number density = 21.536358 Si / 1000 Ang^3
#
#
#
# Elastic Constant Matrix: (Units=GPa)
#
#
# Indices 1 2 3 4 5 6 
#
# 1 93.1989 43.8366 19.9224 0.0000 -24.9315 0.0000
# 2 43.8366 59.3630 12.9581 0.0000 0.3577 0.0000
# 3 19.9224 12.9581 76.1433 0.0000 -17.9178 0.0000
# 4 0.0000 0.0000 0.0000 32.3008 0.0000 -10.1969
# 5 -24.9315 0.3577 -17.9178 0.0000 40.8644 0.0000
# 6 0.0000 0.0000 0.0000 -10.1969 0.0000 23.5008
#
#
#
# Elastic Compliance Matrix: (Units=1/GPa)
#
#
# Indices 1 2 3 4 5 6 
#
# 1 0.022083 -0.016445 0.000251 0.000000 0.013727 0.000000
# 2 -0.016445 0.029839 -0.003566 0.000000 -0.011857 0.000000
# 3 0.000251 -0.003566 0.015296 0.000000 0.006891 0.000000
# 4 0.000000 0.000000 0.000000 0.035873 0.000000 0.015565
# 5 0.013727 -0.011857 0.006891 0.000000 0.035971 0.000000
# 6 0.000000 0.000000 0.000000 0.015565 0.000000 0.049305
#
#
# Mechanical properties :
#
#
# Convention : Reuss Voigt Hill
#
# Bulk Modulus (GPa) = 36.10263 42.45994 39.28128
# Shear Modulus (GPa) = 21.08649 29.46574 25.27611
#
# Velocity S-wave (km/s) = 3.13247 3.70291 3.42957
# Velocity P-wave (km/s) = 5.46655 6.16769 5.82767
#
# Compressibility (1/GPa) = 0.02769881
#
# Stress axis : x y z
#
# Youngs Moduli (GPa) = 45.28380 33.51342 65.37709
#
# Poissons Ratio (x) = 0.55112 -0.01640
# Poissons Ratio (y) = 0.74467 0.23311
# Poissons Ratio (z) = -0.01136 0.11950
#
# Static dielectric constant tensor:
#      x y z
#    x 1.789300 0.000000 -0.044680 
#    y 0.000000 1.803410 0.000000 
#    z -0.044680 0.000000 1.817550 
# 
# From -- ./inp_files/304962.got.cif
#   From: 2010.05.17/outbox.cif.g08.bks.cpg/sg15_153_cif.got.tgz:304962.got - 2010.06.03 18:47:42.
