data_PCOD9281811
_publ_section_title
;
Structure prediction by ZEFSAII (Michael W. Deem and Ramdas Pophale) SiO2 
 PCOD9281811
Probable space group: C 2/C
;
_chemical_formula_sum "Si O2"
_cell_formula_units_Z 64
_cell_length_a 16.338220
_cell_length_b 24.584302
_cell_length_c 8.704737
_cell_angle_alpha 90.000000
_cell_angle_beta 135.559279
_cell_angle_gamma 90.000000
_cell_volume 2448.061728
_symmetry_space_group_name_H-M "C 2/C"
_symmetry_group_IT_number 15
_symmetry_cell_setting 'monoclinic'
loop_
_space_group_symop_operation_xyz
x,y,z
-x,y,1/2-z
-x,-y,-z
x,-y,1/2+z
1/2+x,1/2+y,z
1/2-x,1/2+y,1/2-z
1/2-x,1/2-y,-z
1/2+x,1/2-y,1/2+z
loop_
_atom_site_type_symbol
_atom_site_label
_atom_site_fract_x
_atom_site_fract_y
_atom_site_fract_z
Si Si1 0.374275 0.423179 0.100215
Si Si2 0.727070 0.689215 0.709624
Si Si3 0.327394 0.434353 0.374451
Si Si4 0.014764 0.274777 0.945040
Si Si5 0.352281 0.308526 0.730739
Si Si6 0.736753 0.815341 0.896017
Si Si7 0.698192 0.561296 0.322178
Si Si8 0.090179 0.486142 0.988114
O O1 0.500000 0.395076 0.250000
O O2 0.373308 0.450859 0.266315
O O3 0.272435 0.378716 0.958963
O O4 0.355972 0.455301 0.915807
O O5 0.662308 0.630718 0.619839
O O6 0.685145 0.711114 0.487615
O O7 0.869258 0.688249 0.881330
O O8 0.717210 0.706745 0.876811
O O9 0.359747 0.452419 0.590517
O O10 0.189790 0.446837 0.181263
O O11 0.000000 0.255291 0.750000
O O12 0.900413 0.310480 0.815461
O O13 0.025609 0.222569 0.071971
O O14 0.291769 0.291823 0.812591
O O15 0.324716 0.373104 0.702174
O O16 0.830585 0.535864 0.481171
O O17 0.000000 0.459693 0.750000
O O18 0.000000 0.500000 0.000000
#
# Coordination Sequence:
#
# PCOD9281811 Si02
#       8
#     8   8   8   8   8   8   8   8
#     4  10  22  43  71  99 134 187 239 295 356 414
#     4   9  20  39  64  98 139 178 230 280 344 424
#     4  10  22  41  67 101 145 184 232 287 349 435
#     4  10  21  38  64  97 135 178 231 290 345 409
#     4  10  21  40  63  94 137 185 230 279 340 421
#     4   9  21  41  64  95 129 171 229 289 346 407
#     4  10  23  43  65 102 142 183 242 281 342 439
#     4  12  23  40  70 106 148 186 221 290 362 420
#
# _framework density 26.143131
#
# number of rings (size 3 to 8) (size 9 to 14) (size 15 to 20)
#    0.000    2.000    1.250    1.125    0.000    9.500 
#    0.000    5.625    0.000   12.000    0.000    0.000 
#    0.000    0.000    0.000    0.000    0.000    0.000 
#
# Total GULP energy -178349.834125 kJ/mol
# GULP energy per Si atom -5573.432316 kJ/mol
# Density = 2.608363 g / cm^3
# Si number density = 26.143131 Si / 1000 Ang^3
#
#
#
# Elastic Constant Matrix: (Units=GPa)
#
#
# Indices 1 2 3 4 5 6 
#
# 1 172.2577 41.0761 76.5958 0.0000 -43.7023 0.0000
# 2 41.0761 86.1515 34.0603 0.0000 -26.0362 0.0000
# 3 76.5958 34.0603 159.8296 0.0000 -44.8585 0.0000
# 4 0.0000 0.0000 0.0000 50.5072 0.0000 -15.6898
# 5 -43.7023 -26.0362 -44.8585 0.0000 78.2559 0.0000
# 6 0.0000 0.0000 0.0000 -15.6898 0.0000 47.8552
#
#
#
# Elastic Compliance Matrix: (Units=1/GPa)
#
#
# Indices 1 2 3 4 5 6 
#
# 1 0.008122 -0.002084 -0.002824 0.000000 0.002224 0.000000
# 2 -0.002084 0.013911 -0.001184 0.000000 0.002786 0.000000
# 3 -0.002824 -0.001184 0.008711 0.000000 0.003022 0.000000
# 4 0.000000 0.000000 0.000000 0.022044 0.000000 0.007227
# 5 0.002224 0.002786 0.003022 0.000000 0.016680 0.000000
# 6 0.000000 0.000000 0.000000 0.007227 0.000000 0.023266
#
#
# Mechanical properties :
#
#
# Convention : Reuss Voigt Hill
#
# Bulk Modulus (GPa) = 53.88051 80.18923 67.03487
# Shear Modulus (GPa) = 45.00272 53.09077 49.04674
#
# Velocity S-wave (km/s) = 4.15347 4.51130 4.33608
# Velocity P-wave (km/s) = 6.60730 7.60760 7.12502
#
# Compressibility (1/GPa) = 0.01855959
#
# Stress axis : x y z
#
# Youngs Moduli (GPa) = 123.12035 71.88527 114.80254
#
# Poissons Ratio (x) = 0.14981 0.32423
# Poissons Ratio (y) = 0.25658 0.13591
# Poissons Ratio (z) = 0.34772 0.08510
#
# Static dielectric constant tensor:
#      x y z
#    x 2.093020 0.000000 0.078500 
#    y 0.000000 2.275420 0.000000 
#    z 0.078500 0.000000 1.915520 
# 
# From -- ./inp_files/52861.got.cif
#   From: 2010.05.17/outbox.cif.g08.bks.cpg/sg15_27_cif.got.tgz:52861.got - 2010.06.03 18:47:42.
