data_PCOD9281479
_publ_section_title
;
Structure prediction by ZEFSAII (Michael W. Deem and Ramdas Pophale) SiO2 
 PCOD9281479
Probable space group: C 2/C
;
_chemical_formula_sum "Si O2"
_cell_formula_units_Z 64
_cell_length_a 30.579327
_cell_length_b 22.885449
_cell_length_c 9.608586
_cell_angle_alpha 90.000000
_cell_angle_beta 27.862447
_cell_angle_gamma 90.000000
_cell_volume 3142.603058
_symmetry_space_group_name_H-M "C 2/C"
_symmetry_group_IT_number 15
_symmetry_cell_setting 'monoclinic'
loop_
_space_group_symop_operation_xyz
x,y,z
-x,y,1/2-z
-x,-y,-z
x,-y,1/2+z
1/2+x,1/2+y,z
1/2-x,1/2+y,1/2-z
1/2-x,1/2-y,-z
1/2+x,1/2-y,1/2+z
loop_
_atom_site_type_symbol
_atom_site_label
_atom_site_fract_x
_atom_site_fract_y
_atom_site_fract_z
Si Si1 0.081379 0.122952 0.126001
Si Si2 0.811474 0.821040 0.705680
Si Si3 0.337862 0.076802 0.851306
Si Si4 0.287186 0.291672 0.082835
Si Si5 0.341677 0.100156 0.549111
Si Si6 0.547619 0.417085 0.265195
Si Si7 0.500442 0.060554 0.913596
Si Si8 0.696869 0.480831 0.327547
O O1 0.000000 0.139885 0.250000
O O2 0.031859 0.090754 0.395996
O O3 0.141032 0.178024 0.012305
O O4 0.146665 0.070724 0.881185
O O5 0.756432 0.772147 0.773014
O O6 0.899376 0.854459 0.392927
O O7 0.740055 0.873609 0.932964
O O8 0.832119 0.794032 0.800729
O O9 0.389819 0.082071 0.557966
O O10 0.404019 0.087794 0.796242
O O11 0.281829 0.016151 0.018512
O O12 0.198769 0.335192 0.330786
O O13 0.251378 0.057178 0.790452
O O14 0.410299 0.093752 0.226506
O O15 0.500000 0.428781 0.250000
O O16 0.621610 0.469707 0.083042
O O17 0.500000 0.054455 0.750000
O O18 0.500000 0.000000 0.000000
#
# Coordination Sequence:
#
# PCOD9281479 Si02
#       8
#     8   8   8   8   8   8   8   8
#     4  11  23  38  57  90 125 157 191 241 302 360
#     4   9  19  40  66  88 116 155 204 252 292 344
#     4  10  21  38  62  89 117 158 200 251 301 358
#     4   9  19  41  64  88 119 155 202 248 297 346
#     4  10  21  38  62  89 118 159 202 249 299 358
#     4  11  21  38  59  90 119 155 203 240 289 357
#     4  12  24  40  58  85 121 156 202 246 299 358
#     4  10  22  33  60  86 127 157 193 238 307 361
#
# _framework density 20.365282000000001
#
# number of rings (size 3 to 8) (size 9 to 14) (size 15 to 20)
#    0.000    1.750    2.500    1.875    3.500    0.000 
#    9.000    1.250    0.000    0.000    0.000    0.000 
#    0.000    0.000    0.000    0.000    0.000    0.000 
#
# Total GULP energy -178470.603898 kJ/mol
# GULP energy per Si atom -5577.206372 kJ/mol
# Density = 2.031893 g / cm^3
# Si number density = 20.365282 Si / 1000 Ang^3
#
#
#
# Elastic Constant Matrix: (Units=GPa)
#
#
# Indices 1 2 3 4 5 6 
#
# 1 107.4597 12.4717 20.7439 0.0000 -1.5259 0.0000
# 2 12.4717 93.0077 13.5165 0.0000 -6.1660 0.0000
# 3 20.7439 13.5165 69.4457 0.0000 1.0941 0.0000
# 4 0.0000 0.0000 0.0000 19.8771 0.0000 -5.2721
# 5 -1.5259 -6.1660 1.0941 0.0000 30.8923 0.0000
# 6 0.0000 0.0000 0.0000 -5.2721 0.0000 15.9217
#
#
#
# Elastic Compliance Matrix: (Units=1/GPa)
#
#
# Indices 1 2 3 4 5 6 
#
# 1 0.009958 -0.000900 -0.002806 0.000000 0.000412 0.000000
# 2 -0.000900 0.011310 -0.001968 0.000000 0.002283 0.000000
# 3 -0.002806 -0.001968 0.015638 0.000000 -0.001085 0.000000
# 4 0.000000 0.000000 0.000000 0.055153 0.000000 0.018263
# 5 0.000412 0.002283 -0.001085 0.000000 0.032885 0.000000
# 6 0.000000 0.000000 0.000000 0.018263 0.000000 0.068855
#
#
# Mechanical properties :
#
#
# Convention : Reuss Voigt Hill
#
# Bulk Modulus (GPa) = 39.12811 40.37526 39.75168
# Shear Modulus (GPa) = 23.40103 28.21697 25.80900
#
# Velocity S-wave (km/s) = 3.39346 3.72633 3.56378
# Velocity P-wave (km/s) = 5.88294 6.19537 6.04117
#
# Compressibility (1/GPa) = 0.02555708
#
# Stress axis : x y z
#
# Youngs Moduli (GPa) = 100.42434 88.41816 63.94671
#
# Poissons Ratio (x) = 0.07960 0.17942
# Poissons Ratio (y) = 0.09041 0.12587
# Poissons Ratio (z) = 0.28176 0.17404
#
# Static dielectric constant tensor:
#      x y z
#    x 1.780630 0.000000 -0.023700 
#    y 0.000000 1.724390 0.000000 
#    z -0.023700 0.000000 1.760190 
# 
# From -- ./inp_files/70970.got.cif
#   From: 2010.05.17/outbox.cif.g08.bks.cpg/sg15_36_cif.got.tgz:70970.got - 2010.06.03 18:47:42.
