data_PCOD9281301
_publ_section_title
;
Structure prediction by ZEFSAII (Michael W. Deem and Ramdas Pophale) SiO2 
 PCOD9281301
Probable space group: C 2/C
;
_chemical_formula_sum "Si O2"
_cell_formula_units_Z 28
_cell_length_a 8.187408
_cell_length_b 30.432578
_cell_length_c 5.210025
_cell_angle_alpha 90.000000
_cell_angle_beta 93.280872
_cell_angle_gamma 90.000000
_cell_volume 1296.022622
_symmetry_space_group_name_H-M "C 2/C"
_symmetry_group_IT_number 15
_symmetry_cell_setting 'monoclinic'
loop_
_space_group_symop_operation_xyz
x,y,z
-x,y,1/2-z
-x,-y,-z
x,-y,1/2+z
1/2+x,1/2+y,z
1/2-x,1/2+y,1/2-z
1/2-x,1/2-y,-z
1/2+x,1/2-y,1/2+z
loop_
_atom_site_type_symbol
_atom_site_label
_atom_site_fract_x
_atom_site_fract_y
_atom_site_fract_z
Si Si1 0.000000 0.576984 0.250000
Si Si2 0.331424 0.614623 0.388087
Si Si3 0.388151 0.713383 0.493561
Si Si4 0.768055 0.528925 0.897710
O O1 0.164661 0.604289 0.212948
O O2 0.051747 0.546659 0.494177
O O3 0.500000 0.612121 0.250000
O O4 0.317636 0.663807 0.491260
O O5 0.328939 0.574801 0.590647
O O6 0.500000 0.718043 0.250000
O O7 0.250000 0.750000 0.500000
O O8 0.500000 0.718376 0.750000
O O9 0.731035 0.496648 0.134836
#
# Coordination Sequence:
#
# PCOD9281301 Si02
#       4
#     4   8   8   8
#     4   8  20  40  62  90 132 174 222 270 334 386
#     4   9  22  41  64  95 133 169 223 275 331 397
#     4  11  25  47  73 103 138 175 226 285 344 416
#     4  10  21  38  60  92 129 174 224 271 322 393
#
# _framework density 21.604562000000001
#
# number of rings (size 3 to 8) (size 9 to 14) (size 15 to 20)
#    1.714    0.571    0.000    1.714    2.000    5.714 
#    0.000    0.000    0.000    0.000    0.000    0.000 
#    0.000    0.000    0.000    0.000    0.000    0.000 
#
# Total GULP energy -78065.781160 kJ/mol
# GULP energy per Si atom -5576.127226 kJ/mol
# Density = 2.155539 g / cm^3
# Si number density = 21.604562 Si / 1000 Ang^3
#
#
#
# Elastic Constant Matrix: (Units=GPa)
#
#
# Indices 1 2 3 4 5 6 
#
# 1 120.3806 92.7314 34.2310 0.0000 11.8930 0.0000
# 2 92.7314 221.3735 57.3274 0.0000 -4.1531 0.0000
# 3 34.2310 57.3274 96.7217 0.0000 -11.6887 0.0000
# 4 0.0000 0.0000 0.0000 15.1073 0.0000 12.1814
# 5 11.8930 -4.1531 -11.6887 0.0000 22.0793 0.0000
# 6 0.0000 0.0000 0.0000 12.1814 0.0000 19.2720
#
#
#
# Elastic Compliance Matrix: (Units=1/GPa)
#
#
# Indices 1 2 3 4 5 6 
#
# 1 0.014406 -0.005414 -0.003152 0.000000 -0.010447 0.000000
# 2 -0.005414 0.007382 -0.002071 0.000000 0.003208 0.000000
# 3 -0.003152 -0.002071 0.013718 0.000000 0.008570 0.000000
# 4 0.000000 0.000000 0.000000 0.134993 0.000000 -0.085326
# 5 -0.010447 0.003208 0.008570 0.000000 0.056059 0.000000
# 6 0.000000 0.000000 0.000000 -0.085326 0.000000 0.105822
#
#
# Mechanical properties :
#
#
# Convention : Reuss Voigt Hill
#
# Bulk Modulus (GPa) = 70.27069 89.67281 79.97175
# Shear Modulus (GPa) = 13.95095 28.23746 21.09420
#
# Velocity S-wave (km/s) = 2.54390 3.61919 3.12809
# Velocity P-wave (km/s) = 6.42067 7.68513 7.08118
#
# Compressibility (1/GPa) = 0.01423068
#
# Stress axis : x y z
#
# Youngs Moduli (GPa) = 69.41488 135.46691 72.89787
#
# Poissons Ratio (x) = 0.73347 0.22976
# Poissons Ratio (y) = 0.37584 0.15099
# Poissons Ratio (z) = 0.21879 0.28060
#
# Static dielectric constant tensor:
#      x y z
#    x 1.847550 0.000000 -0.014160 
#    y 0.000000 1.807520 0.000000 
#    z -0.014160 0.000000 1.811410 
# 
# From -- ./inp_files/2054.got.cif
#   From: 2010.05.17/outbox.cif.g08.bks.cpg/sg15_2_cif.got.tgz:2054.got - 2010.06.03 18:47:42.
