data_PCOD9281316
_publ_section_title
;
Structure prediction by ZEFSAII (Michael W. Deem and Ramdas Pophale) SiO2 
 PCOD9281316
Probable space group: C 2/C
;
_chemical_formula_sum "Si O2"
_cell_formula_units_Z 56
_cell_length_a 5.054785
_cell_length_b 26.347418
_cell_length_c 20.564451
_cell_angle_alpha 90.000000
_cell_angle_beta 111.635618
_cell_angle_gamma 90.000000
_cell_volume 2545.830226
_symmetry_space_group_name_H-M "C 2/C"
_symmetry_group_IT_number 15
_symmetry_cell_setting 'monoclinic'
loop_
_space_group_symop_operation_xyz
x,y,z
-x,y,1/2-z
-x,-y,-z
x,-y,1/2+z
1/2+x,1/2+y,z
1/2-x,1/2+y,1/2-z
1/2-x,1/2-y,-z
1/2+x,1/2-y,1/2+z
loop_
_atom_site_type_symbol
_atom_site_label
_atom_site_fract_x
_atom_site_fract_y
_atom_site_fract_z
Si Si1 0.000000 0.756204 0.750000
Si Si2 0.985585 0.176075 0.824391
Si Si3 0.237589 0.573926 0.824391
Si Si4 0.311554 0.315050 0.620133
Si Si5 0.000000 0.993797 0.750000
Si Si6 0.701154 0.434950 0.879866
Si Si7 0.277178 0.739747 0.426262
Si Si8 0.751607 0.989747 0.926262
O O1 0.761789 0.717796 0.703112
O O2 0.041610 0.793982 0.693534
O O3 0.908725 0.125001 0.855818
O O4 0.000000 0.159798 0.750000
O O5 0.239065 0.208165 0.880628
O O6 0.402457 0.532205 0.796889
O O7 0.152821 0.541836 0.880629
O O8 0.000000 0.590202 0.750000
O O9 0.299261 0.375000 0.616174
O O10 0.433547 0.289040 0.566222
O O11 0.998245 0.295897 0.611578
O O12 0.211007 0.956019 0.806465
O O13 0.413510 0.454104 0.888422
O O14 0.984880 0.460961 0.933778
O O15 0.250000 0.750000 0.500000
O O16 0.000000 0.000000 0.000000
#
# Coordination Sequence:
#
# PCOD9281316 Si02
#       8
#     4   8   8   8   4   8   8   8
#     4  10  21  38  60  96 130 164 215 286 332 394
#     4  11  21  38  65  94 132 172 228 279 345 404
#     4  11  21  38  65  94 132 172 228 279 345 404
#     4  11  23  41  67  93 131 173 223 270 340 408
#     4  10  21  38  60  96 130 164 215 286 332 394
#     4  11  23  41  67  93 131 173 223 270 340 408
#     4  11  25  44  64  96 136 177 222 284 338 409
#     4  11  25  44  64  96 136 177 222 284 338 409
#
# _framework density 21.996752000000001
#
# number of rings (size 3 to 8) (size 9 to 14) (size 15 to 20)
#    0.000    1.143    4.286    2.143    0.000    2.286 
#    0.000    4.286    0.000    0.000    0.000    0.000 
#    0.000    0.000    0.000    0.000    0.000    0.000 
#
# Total GULP energy -156112.108690 kJ/mol
# GULP energy per Si atom -5575.432453 kJ/mol
# Density = 2.194669 g / cm^3
# Si number density = 21.996752 Si / 1000 Ang^3
#
#
#
# Elastic Constant Matrix: (Units=GPa)
#
#
# Indices 1 2 3 4 5 6 
#
# 1 74.2810 30.8212 -10.1477 0.0000 -2.0849 0.0000
# 2 30.8212 149.2857 23.9645 0.0000 -0.2933 0.0000
# 3 -10.1477 23.9645 53.7743 0.0000 1.2050 0.0000
# 4 0.0000 0.0000 0.0000 10.0997 0.0000 -0.7220
# 5 -2.0849 -0.2933 1.2050 0.0000 18.0635 0.0000
# 6 0.0000 0.0000 0.0000 -0.7220 0.0000 26.9227
#
#
#
# Elastic Compliance Matrix: (Units=1/GPa)
#
#
# Indices 1 2 3 4 5 6 
#
# 1 0.015822 -0.004026 0.004747 0.000000 0.001444 0.000000
# 2 -0.004026 0.008241 -0.004432 0.000000 -0.000035 0.000000
# 3 0.004747 -0.004432 0.021489 0.000000 -0.000957 0.000000
# 4 0.000000 0.000000 0.000000 0.099203 0.000000 0.002660
# 5 0.001444 -0.000035 -0.000957 0.000000 0.055590 0.000000
# 6 0.000000 0.000000 0.000000 0.002660 0.000000 0.037215
#
#
# Mechanical properties :
#
#
# Convention : Reuss Voigt Hill
#
# Bulk Modulus (GPa) = 26.22489 40.73522 33.48006
# Shear Modulus (GPa) = 19.40321 26.53072 22.96697
#
# Velocity S-wave (km/s) = 2.97323 3.47669 3.23477
# Velocity P-wave (km/s) = 4.87184 5.88859 5.40418
#
# Compressibility (1/GPa) = 0.03813172
#
# Stress axis : x y z
#
# Youngs Moduli (GPa) = 63.20344 121.34391 46.53651
#
# Poissons Ratio (x) = 0.48851 -0.22093
# Poissons Ratio (y) = 0.25445 0.20623
# Poissons Ratio (z) = -0.30006 0.53774
#
# Static dielectric constant tensor:
#      x y z
#    x 1.902790 0.000000 -0.000230 
#    y 0.000000 1.930400 0.000000 
#    z -0.000230 0.000000 1.897440 
# 
# From -- ./inp_files/227942.got.cif
#   From: 2010.05.17/outbox.cif.g08.bks.cpg/sg15_114_cif.got.tgz:227942.got - 2010.06.03 18:47:42.
