data_PCOD9281591
_publ_section_title
;
Structure prediction by ZEFSAII (Michael W. Deem and Ramdas Pophale) SiO2 
 PCOD9281591
Probable space group: C 2/C
;
_chemical_formula_sum "Si O2"
_cell_formula_units_Z 44
_cell_length_a 12.805345
_cell_length_b 9.281996
_cell_length_c 16.716982
_cell_angle_alpha 90.000000
_cell_angle_beta 90.950424
_cell_angle_gamma 90.000000
_cell_volume 1986.693093
_symmetry_space_group_name_H-M "C 2/C"
_symmetry_group_IT_number 15
_symmetry_cell_setting 'monoclinic'
loop_
_space_group_symop_operation_xyz
x,y,z
-x,y,1/2-z
-x,-y,-z
x,-y,1/2+z
1/2+x,1/2+y,z
1/2-x,1/2+y,1/2-z
1/2-x,1/2-y,-z
1/2+x,1/2-y,1/2+z
loop_
_atom_site_type_symbol
_atom_site_label
_atom_site_fract_x
_atom_site_fract_y
_atom_site_fract_z
Si Si1 0.725255 0.829739 0.735194
Si Si2 0.483960 0.680709 0.581532
Si Si3 0.718320 0.355159 0.072079
Si Si4 0.782501 0.924262 0.145958
Si Si5 0.500000 0.159402 0.250000
Si Si6 0.168788 0.615840 0.497521
O O1 0.729695 0.727521 0.656698
O O2 0.737848 0.728275 0.811603
O O3 0.613265 0.910534 0.745052
O O4 0.801408 0.959347 0.715281
O O5 0.594481 0.614475 0.560447
O O6 0.385420 0.576362 0.592262
O O7 0.496322 0.744487 0.670659
O O8 0.441865 0.812388 0.525609
O O9 0.750000 0.250000 0.000000
O O10 0.789880 0.496855 0.064236
O O11 0.685276 0.953738 0.085422
O O12 0.250000 0.750000 0.500000
#
# Coordination Sequence:
#
# PCOD9281591 Si02
#       6
#     8   8   8   8   4   8
#     4  10  21  38  63  86 125 161 214 253 320 383
#     4   9  21  40  67  88 128 169 212 260 328 381
#     4  11  22  41  65  93 123 170 214 265 323 391
#     4  10  21  39  62  91 122 167 206 262 315 385
#     4   8  18  38  58  88 114 170 200 250 318 376
#     4  10  22  39  62  95 125 162 209 264 320 376
#
# _framework density 22.147357
#
# number of rings (size 3 to 8) (size 9 to 14) (size 15 to 20)
#    0.000    2.182    1.818    0.000    7.636    3.636 
#    0.000    0.000    8.000    0.000    0.000    0.000 
#    0.000    0.000    0.000    0.000    0.000    0.000 
#
# Total GULP energy -122609.586854 kJ/mol
# GULP energy per Si atom -5573.163039 kJ/mol
# Density = 2.209695 g / cm^3
# Si number density = 22.147357 Si / 1000 Ang^3
#
#
#
# Elastic Constant Matrix: (Units=GPa)
#
#
# Indices 1 2 3 4 5 6 
#
# 1 51.1587 0.0532 12.5034 0.0000 -8.0637 0.0000
# 2 0.0532 71.3315 6.3921 0.0000 -9.6732 0.0000
# 3 12.5034 6.3921 90.4022 0.0000 -5.4905 0.0000
# 4 0.0000 0.0000 0.0000 44.4042 0.0000 -4.2523
# 5 -8.0637 -9.6732 -5.4905 0.0000 32.6638 0.0000
# 6 0.0000 0.0000 0.0000 -4.2523 0.0000 13.9741
#
#
#
# Elastic Compliance Matrix: (Units=1/GPa)
#
#
# Indices 1 2 3 4 5 6 
#
# 1 0.020985 0.000901 -0.002662 0.000000 0.005000 0.000000
# 2 0.000901 0.014699 -0.000895 0.000000 0.004425 0.000000
# 3 -0.002662 -0.000895 0.011555 0.000000 0.001020 0.000000
# 4 0.000000 0.000000 0.000000 0.023196 0.000000 0.007059
# 5 0.005000 0.004425 0.001020 0.000000 0.033331 0.000000
# 6 0.000000 0.000000 0.000000 0.007059 0.000000 0.073709
#
#
# Mechanical properties :
#
#
# Convention : Reuss Voigt Hill
#
# Bulk Modulus (GPa) = 23.85192 27.86554 25.85873
# Shear Modulus (GPa) = 25.41124 31.13800 28.27462
#
# Velocity S-wave (km/s) = 3.39096 3.75366 3.57691
# Velocity P-wave (km/s) = 5.11122 5.60320 5.36285
#
# Compressibility (1/GPa) = 0.04192534
#
# Stress axis : x y z
#
# Youngs Moduli (GPa) = 47.65340 68.03345 86.54145
#
# Poissons Ratio (x) = -0.06129 0.23041
# Poissons Ratio (y) = -0.04293 0.07747
# Poissons Ratio (z) = 0.12687 0.06090
#
# Static dielectric constant tensor:
#      x y z
#    x 1.889360 0.000000 0.042450 
#    y 0.000000 1.847550 0.000000 
#    z 0.042450 0.000000 1.863710 
# 
# From -- ./inp_files/202676.got.cif
#   From: 2010.05.17/outbox.cif.g08.bks.cpg/sg15_102_cif.got.tgz:202676.got - 2010.06.03 18:47:42.
