data_PCOD9281070
_publ_section_title
;
Structure prediction by ZEFSAII (Michael W. Deem and Ramdas Pophale) SiO2 
 PCOD9281070
Probable space group: C 2/C
;
_chemical_formula_sum "Si O2"
_cell_formula_units_Z 48
_cell_length_a 17.035366
_cell_length_b 14.398775
_cell_length_c 8.242148
_cell_angle_alpha 90.000000
_cell_angle_beta 90.000000
_cell_angle_gamma 90.000000
_cell_volume 2021.703313
_symmetry_space_group_name_H-M "C 2/C"
_symmetry_group_IT_number 15
_symmetry_cell_setting 'monoclinic'
loop_
_space_group_symop_operation_xyz
x,y,z
-x,y,1/2-z
-x,-y,-z
x,-y,1/2+z
1/2+x,1/2+y,z
1/2-x,1/2+y,1/2-z
1/2-x,1/2-y,-z
1/2+x,1/2-y,1/2+z
loop_
_atom_site_type_symbol
_atom_site_label
_atom_site_fract_x
_atom_site_fract_y
_atom_site_fract_z
Si Si1 0.340759 0.521874 0.497370
Si Si2 0.090846 0.376798 0.694173
Si Si3 0.418749 0.691302 0.668855
Si Si4 0.840759 0.521874 0.002631
Si Si5 0.581251 0.808698 0.168855
Si Si6 0.590846 0.376798 0.805827
O O1 0.365983 0.604889 0.619470
O O2 0.250000 0.498423 0.514131
O O3 0.394011 0.431652 0.529657
O O4 0.358442 0.565870 0.323430
O O5 0.114921 0.269626 0.710253
O O6 0.105989 0.431652 0.529656
O O7 0.000000 0.381908 0.750000
O O8 0.141558 0.434130 0.823430
O O9 0.500000 0.660316 0.750000
O O10 0.433447 0.750000 0.500000
O O11 0.865983 0.604889 0.880530
O O12 0.500000 0.839684 0.250000
O O13 0.614922 0.730374 0.289747
O O14 0.500000 0.381908 0.750000
#
# Coordination Sequence:
#
# PCOD9281070 Si02
#       6
#     8   8   8   8   8   8
#     4  11  22  36  57  84 114 144 179 228 278 323
#     4  10  21  38  58  80 108 148 188 223 267 326
#     4   9  20  37  58  80 107 145 186 225 268 325
#     4  11  22  36  57  84 114 144 179 228 278 323
#     4   9  20  37  58  80 107 145 186 225 268 325
#     4  10  21  38  58  80 108 148 188 223 267 326
#
# _framework density 23.742357999999999
#
# number of rings (size 3 to 8) (size 9 to 14) (size 15 to 20)
#    0.000    2.000    0.000    3.000    0.000   12.667 
#    0.000    0.000    0.000    5.000    0.000    0.000 
#    0.000    0.000    0.000    0.000    0.000    0.000 
#
# Total GULP energy -134281.614014 kJ/mol
# GULP energy per Si atom -5595.067251 kJ/mol
# Density = 2.368832 g / cm^3
# Si number density = 23.742358 Si / 1000 Ang^3
#
#
#
# Elastic Constant Matrix: (Units=GPa)
#
#
# Indices 1 2 3 4 5 6 
#
# 1 71.8094 18.0220 5.8009 0.0000 0.0000 0.0000
# 2 18.0220 97.3679 25.6301 0.0000 -0.0001 0.0000
# 3 5.8009 25.6301 35.9009 0.0000 -0.0001 0.0000
# 4 0.0000 0.0000 0.0000 290.5102 0.0000 0.0031
# 5 0.0000 -0.0001 -0.0001 0.0000 38.6871 0.0000
# 6 0.0000 0.0000 0.0000 0.0031 0.0000 0.2516
#
#
#
# Elastic Compliance Matrix: (Units=1/GPa)
#
#
# Indices 1 2 3 4 5 6 
#
# 1 0.014612 -0.002565 -0.000530 0.000000 0.000000 0.000000
# 2 -0.002565 0.013097 -0.008936 0.000000 0.000000 0.000000
# 3 -0.000530 -0.008936 0.034319 0.000000 0.000000 0.000000
# 4 0.000000 0.000000 0.000000 0.003442 0.000000 -0.000043
# 5 0.000000 0.000000 0.000000 0.000000 0.025848 0.000000
# 6 0.000000 0.000000 0.000000 -0.000043 0.000000 3.974807
#
#
# Mechanical properties :
#
#
# Convention : Reuss Voigt Hill
#
# Bulk Modulus (GPa) = 26.33829 33.77601 30.05715
# Shear Modulus (GPa) = 1.21867 76.26478 38.74173
#
# Velocity S-wave (km/s) = 0.71722 5.67376 4.04388
# Velocity P-wave (km/s) = 3.43560 7.56168 5.87292
#
# Compressibility (1/GPa) = 0.03796754
#
# Stress axis : x y z
#
# Youngs Moduli (GPa) = 68.43531 76.35165 29.13801
#
# Poissons Ratio (x) = 0.19586 0.01544
# Poissons Ratio (y) = 0.17555 0.26037
# Poissons Ratio (z) = 0.03625 0.68227
#
# Static dielectric constant tensor:
#      x y z
#    x 1.823270 0.000000 0.000000 
#    y 0.000000 1.889460 0.000000 
#    z 0.000000 0.000000 2.035660 
# 
# From -- ./inp_files/47452.got.cif
#   From: 2010.05.17/outbox.cif.g08.bks.cpg/sg15_24_cif.got.tgz:47452.got - 2010.06.03 18:47:42.
