data_PCOD9281507
_publ_section_title
;
Structure prediction by ZEFSAII (Michael W. Deem and Ramdas Pophale) SiO2 
 PCOD9281507
Probable space group: C 2/C
;
_chemical_formula_sum "Si O2"
_cell_formula_units_Z 56
_cell_length_a 11.909688
_cell_length_b 26.941228
_cell_length_c 9.436647
_cell_angle_alpha 90.000000
_cell_angle_beta 113.376773
_cell_angle_gamma 90.000000
_cell_volume 2779.317794
_symmetry_space_group_name_H-M "C 2/C"
_symmetry_group_IT_number 15
_symmetry_cell_setting 'monoclinic'
loop_
_space_group_symop_operation_xyz
x,y,z
-x,y,1/2-z
-x,-y,-z
x,-y,1/2+z
1/2+x,1/2+y,z
1/2-x,1/2+y,1/2-z
1/2-x,1/2-y,-z
1/2+x,1/2-y,1/2+z
loop_
_atom_site_type_symbol
_atom_site_label
_atom_site_fract_x
_atom_site_fract_y
_atom_site_fract_z
Si Si1 0.376759 0.942300 0.765430
Si Si2 0.940193 0.210178 0.080698
Si Si3 0.500000 0.845519 0.750000
Si Si4 0.133064 0.271423 0.025889
Si Si5 0.000000 0.007017 0.750000
Si Si6 0.827451 0.976811 0.408235
Si Si7 0.110594 0.416740 0.404327
Si Si8 0.680642 0.811337 0.360516
O O1 0.500000 0.962029 0.750000
O O2 0.388985 0.883563 0.732924
O O3 0.256589 0.973101 0.657877
O O4 0.391825 0.941617 0.942580
O O5 0.879251 0.262315 0.100701
O O6 0.000000 0.186249 0.250000
O O7 0.046965 0.225202 0.027291
O O8 0.824226 0.181971 0.962779
O O9 0.447955 0.809456 0.604923
O O10 0.168040 0.300808 0.187114
O O11 0.250000 0.250000 0.000000
O O12 0.095453 0.033729 0.694372
O O13 0.916068 0.979895 0.589481
O O14 0.732299 0.934045 0.388495
O O15 0.113368 0.357262 0.400839
O O16 0.000000 0.432100 0.250000
#
# Coordination Sequence:
#
# PCOD9281507 Si02
#       8
#     8   8   4   8   4   8   8   8
#     4  10  24  41  65  99 128 165 221 277 335 379
#     4   9  19  38  60  85 121 168 210 253 317 391
#     4  10  22  38  60  93 130 160 207 268 320 380
#     4  11  21  37  62  94 130 171 206 264 326 385
#     4  10  24  44  64  89 124 178 213 264 328 410
#     4  11  23  44  68  92 130 172 221 266 336 398
#     4  12  24  40  68  97 128 166 220 282 333 389
#     4  10  21  38  62  90 126 164 218 261 322 389
#
# _framework density 20.148828999999999
#
# number of rings (size 3 to 8) (size 9 to 14) (size 15 to 20)
#    0.429    1.143    1.429    4.286    2.000    3.429 
#    1.286    4.286    0.000    0.857    0.000    0.000 
#    0.000    0.000    0.000    0.000    0.000    0.000 
#
# Total GULP energy -156050.496466 kJ/mol
# GULP energy per Si atom -5573.232017 kJ/mol
# Density = 2.010297 g / cm^3
# Si number density = 20.148829 Si / 1000 Ang^3
#
#
#
# Elastic Constant Matrix: (Units=GPa)
#
#
# Indices 1 2 3 4 5 6 
#
# 1 125.2837 2.8811 51.9959 0.0000 -8.9083 0.0000
# 2 2.8811 50.2474 29.0365 0.0000 0.9738 0.0000
# 3 51.9959 29.0365 110.0920 0.0000 8.0421 0.0000
# 4 0.0000 0.0000 0.0000 15.3717 0.0000 20.5709
# 5 -8.9083 0.9738 8.0421 0.0000 38.7525 0.0000
# 6 0.0000 0.0000 0.0000 20.5709 0.0000 34.8306
#
#
#
# Elastic Compliance Matrix: (Units=1/GPa)
#
#
# Indices 1 2 3 4 5 6 
#
# 1 0.010691 0.002817 -0.006058 0.000000 0.003644 0.000000
# 2 0.002817 0.024242 -0.007846 0.000000 0.001667 0.000000
# 3 -0.006058 -0.007846 0.014318 0.000000 -0.004167 0.000000
# 4 0.000000 0.000000 0.000000 0.310316 0.000000 -0.183273
# 5 0.003644 0.001667 -0.004167 0.000000 0.027465 0.000000
# 6 0.000000 0.000000 0.000000 -0.183273 0.000000 0.136951
#
#
# Mechanical properties :
#
#
# Convention : Reuss Voigt Hill
#
# Bulk Modulus (GPa) = 36.93236 50.38334 43.65785
# Shear Modulus (GPa) = 9.00604 31.23827 20.12215
#
# Velocity S-wave (km/s) = 2.11647 3.94175 3.16361
# Velocity P-wave (km/s) = 4.93378 6.76583 5.92109
#
# Compressibility (1/GPa) = 0.02707653
#
# Stress axis : x y z
#
# Youngs Moduli (GPa) = 93.54031 41.25128 69.84013
#
# Poissons Ratio (x) = -0.11622 0.42312
# Poissons Ratio (y) = -0.26354 0.54797
# Poissons Ratio (z) = 0.56670 0.32366
#
# Static dielectric constant tensor:
#      x y z
#    x 1.689720 0.000000 -0.041050 
#    y 0.000000 1.714100 0.000000 
#    z -0.041050 0.000000 1.682540 
# 
# From -- ./inp_files/35325.got.cif
#   From: 2010.05.17/outbox.cif.g08.bks.cpg/sg15_18_cif.got.tgz:35325.got - 2010.06.03 18:47:42.
