data_PCOD9281907
_publ_section_title
;
Structure prediction by ZEFSAII (Michael W. Deem and Ramdas Pophale) SiO2 
 PCOD9281907
Probable space group: C 2/C
;
_chemical_formula_sum "Si O2"
_cell_formula_units_Z 56
_cell_length_a 13.728188
_cell_length_b 14.526933
_cell_length_c 12.470489
_cell_angle_alpha 90.000000
_cell_angle_beta 89.118039
_cell_angle_gamma 90.000000
_cell_volume 2486.675872
_symmetry_space_group_name_H-M "C 2/C"
_symmetry_group_IT_number 15
_symmetry_cell_setting 'monoclinic'
loop_
_space_group_symop_operation_xyz
x,y,z
-x,y,1/2-z
-x,-y,-z
x,-y,1/2+z
1/2+x,1/2+y,z
1/2-x,1/2+y,1/2-z
1/2-x,1/2-y,-z
1/2+x,1/2-y,1/2+z
loop_
_atom_site_type_symbol
_atom_site_label
_atom_site_fract_x
_atom_site_fract_y
_atom_site_fract_z
Si Si1 0.427939 0.953615 0.329611
Si Si2 0.110240 0.060322 0.292148
Si Si3 0.946963 0.345683 0.857683
Si Si4 0.896916 0.689709 0.007080
Si Si5 0.727987 0.287663 0.665361
Si Si6 0.741452 0.593597 0.713567
Si Si7 0.239938 0.857267 0.968043
O O1 0.500000 0.896921 0.250000
O O2 0.400627 0.902019 0.437304
O O3 0.331469 0.962783 0.261233
O O4 0.481169 0.047817 0.358302
O O5 0.175329 0.128835 0.221192
O O6 0.145693 0.097849 0.409344
O O7 0.000000 0.069544 0.250000
O O8 0.147421 0.956782 0.265648
O O9 0.833246 0.361422 0.885313
O O10 0.000000 0.307224 0.750000
O O11 0.994378 0.290493 0.955218
O O12 0.829348 0.682513 0.111792
O O13 0.844326 0.760343 0.930085
O O14 0.745447 0.197711 0.739885
O O15 0.746610 0.593829 0.584586
O O16 0.250000 0.750000 0.000000
#
# Coordination Sequence:
#
# PCOD9281907 Si02
#       7
#     8   8   8   8   8   8   8
#     4  10  21  38  66 107 142 178 233 301 372 441
#     4  12  28  50  75 107 150 200 252 307 374 453
#     4  11  23  39  67 105 143 182 239 308 373 441
#     4  10  22  39  68 101 144 188 236 301 381 433
#     4  10  24  45  71 106 146 195 246 310 368 447
#     4  11  25  47  73 106 150 189 251 307 369 442
#     4  12  26  47  75 105 146 201 246 307 375 449
#
# _framework density 22.520025
#
# number of rings (size 3 to 8) (size 9 to 14) (size 15 to 20)
#    0.000    1.143    2.857    2.143    6.000    4.000 
#    2.571    0.000    0.000    0.000    0.000    0.000 
#    0.000    0.000    0.000    0.000    0.000    0.000 
#
# Total GULP energy -156061.989330 kJ/mol
# GULP energy per Si atom -5573.642476 kJ/mol
# Density = 2.246877 g / cm^3
# Si number density = 22.520025 Si / 1000 Ang^3
#
#
#
# Elastic Constant Matrix: (Units=GPa)
#
#
# Indices 1 2 3 4 5 6 
#
# 1 124.1133 8.0703 55.0981 0.0000 27.3086 0.0000
# 2 8.0703 49.8312 13.8797 0.0000 -3.2927 0.0000
# 3 55.0981 13.8797 131.6832 0.0000 18.7492 0.0000
# 4 0.0000 0.0000 0.0000 25.3188 0.0000 -8.1463
# 5 27.3086 -3.2927 18.7492 0.0000 41.4316 0.0000
# 6 0.0000 0.0000 0.0000 -8.1463 0.0000 18.4582
#
#
#
# Elastic Compliance Matrix: (Units=1/GPa)
#
#
# Indices 1 2 3 4 5 6 
#
# 1 0.011016 -0.001135 -0.003680 0.000000 -0.005686 0.000000
# 2 -0.001135 0.021102 -0.002239 0.000000 0.003438 0.000000
# 3 -0.003680 -0.002239 0.009673 0.000000 -0.002130 0.000000
# 4 0.000000 0.000000 0.000000 0.046033 0.000000 0.020316
# 5 -0.005686 0.003438 -0.002130 0.000000 0.029121 0.000000
# 6 0.000000 0.000000 0.000000 0.020316 0.000000 0.063143
#
#
# Mechanical properties :
#
#
# Convention : Reuss Voigt Hill
#
# Bulk Modulus (GPa) = 36.12250 51.08044 43.60147
# Shear Modulus (GPa) = 24.57941 32.28037 28.42989
#
# Velocity S-wave (km/s) = 3.30729 3.79014 3.55692
# Velocity P-wave (km/s) = 5.53708 6.47187 6.02264
#
# Compressibility (1/GPa) = 0.02768358
#
# Stress axis : x y z
#
# Youngs Moduli (GPa) = 90.78051 47.38806 103.38099
#
# Poissons Ratio (x) = 0.05377 0.38044
# Poissons Ratio (y) = 0.10301 0.23147
# Poissons Ratio (z) = 0.33407 0.10610
#
# Static dielectric constant tensor:
#      x y z
#    x 1.894660 0.000000 0.007240 
#    y 0.000000 1.836170 0.000000 
#    z 0.007240 0.000000 1.914980 
# 
# From -- ./inp_files/97023.got.cif
#   From: 2010.05.17/outbox.cif.g08.bks.cpg/sg15_49_cif.got.tgz:97023.got - 2010.06.03 18:47:42.
