data_PCOD9281508
_publ_section_title
;
Structure prediction by ZEFSAII (Michael W. Deem and Ramdas Pophale) SiO2 
 PCOD9281508
Probable space group: C 2/C
;
_chemical_formula_sum "Si O2"
_cell_formula_units_Z 48
_cell_length_a 29.832664
_cell_length_b 17.257911
_cell_length_c 13.827817
_cell_angle_alpha 90.000000
_cell_angle_beta 18.804333
_cell_angle_gamma 90.000000
_cell_volume 2294.797819
_symmetry_space_group_name_H-M "C 2/C"
_symmetry_group_IT_number 15
_symmetry_cell_setting 'monoclinic'
loop_
_space_group_symop_operation_xyz
x,y,z
-x,y,1/2-z
-x,-y,-z
x,-y,1/2+z
1/2+x,1/2+y,z
1/2-x,1/2+y,1/2-z
1/2-x,1/2-y,-z
1/2+x,1/2-y,1/2+z
loop_
_atom_site_type_symbol
_atom_site_label
_atom_site_fract_x
_atom_site_fract_y
_atom_site_fract_z
Si Si1 0.896400 0.184824 0.545198
Si Si2 0.013321 0.907891 0.457295
Si Si3 0.272604 0.047255 0.698143
Si Si4 0.708335 0.846464 0.721428
Si Si5 0.359936 0.609603 0.085426
Si Si6 0.461520 0.993477 0.467397
O O1 0.979098 0.135300 0.456277
O O2 0.785668 0.127808 0.720432
O O3 0.824807 0.259184 0.738953
O O4 0.000000 0.211562 0.250000
O O5 0.886888 0.884874 0.643918
O O6 0.158217 0.883147 0.107397
O O7 0.000000 0.000000 0.500000
O O8 0.160671 0.980089 0.904515
O O9 0.330750 0.041350 0.688950
O O10 0.403891 0.021093 0.365698
O O11 0.739712 0.847532 0.772636
O O12 0.582126 0.904935 0.961690
O O13 0.500000 0.639910 0.750000
O O14 0.500000 0.000000 0.500000
#
# Coordination Sequence:
#
# PCOD9281508 Si02
#       6
#     8   8   8   8   8   8
#     4  12  26  41  64  98 132 167 211 272 326 376
#     4  11  22  40  71  97 123 169 222 262 316 386
#     4  10  21  38  62  90 127 161 219 254 311 383
#     4  10  24  44  64  91 138 166 205 272 330 370
#     4   9  19  38  65  89 118 170 209 259 315 379
#     4  10  22  39  65  90 120 173 212 253 314 385
#
# _framework density 20.916875000000001
#
# number of rings (size 3 to 8) (size 9 to 14) (size 15 to 20)
#    0.000    1.667    1.667    2.000    9.333    0.000 
#   12.000    0.833    0.000    0.000    0.000    0.000 
#    0.000    0.000    0.000    0.000    0.000    0.000 
#
# Total GULP energy -133945.521157 kJ/mol
# GULP energy per Si atom -5581.063382 kJ/mol
# Density = 2.086927 g / cm^3
# Si number density = 20.916875 Si / 1000 Ang^3
#
#
#
# Elastic Constant Matrix: (Units=GPa)
#
#
# Indices 1 2 3 4 5 6 
#
# 1 177.9774 37.0103 29.1665 -0.0001 -27.8924 0.0000
# 2 37.0103 118.2442 26.3696 -0.0004 -15.8591 -0.0002
# 3 29.1665 26.3696 65.3536 -0.0009 -4.4204 -0.0004
# 4 -0.0001 -0.0004 -0.0009 32.4230 -0.0001 -2.2909
# 5 -27.8924 -15.8591 -4.4204 -0.0001 33.4508 -0.0001
# 6 0.0000 -0.0002 -0.0004 -2.2909 -0.0001 13.5961
#
#
#
# Elastic Compliance Matrix: (Units=1/GPa)
#
#
# Indices 1 2 3 4 5 6 
#
# 1 0.007008 -0.000982 -0.002389 0.000000 0.005062 0.000000
# 2 -0.000982 0.009977 -0.003353 0.000000 0.003469 0.000000
# 3 -0.002389 -0.003353 0.017636 0.000000 -0.001251 0.000001
# 4 0.000000 0.000000 0.000000 0.031214 0.000000 0.005260
# 5 0.005062 0.003469 -0.001251 0.000000 0.035595 0.000000
# 6 0.000000 0.000000 0.000001 0.005260 0.000000 0.074437
#
#
# Mechanical properties :
#
#
# Convention : Reuss Voigt Hill
#
# Bulk Modulus (GPa) = 47.22888 60.74090 53.98489
# Shear Modulus (GPa) = 25.46195 33.82923 29.64559
#
# Velocity S-wave (km/s) = 3.49276 4.02595 3.76880
# Velocity P-wave (km/s) = 6.23652 7.12133 6.69356
#
# Compressibility (1/GPa) = 0.02117348
#
# Stress axis : x y z
#
# Youngs Moduli (GPa) = 142.70118 100.22728 56.70279
#
# Poissons Ratio (x) = 0.09839 0.13546
# Poissons Ratio (y) = 0.14009 0.19013
# Poissons Ratio (z) = 0.34090 0.33607
#
# Static dielectric constant tensor:
#      x y z
#    x 1.809010 0.000000 0.015730 
#    y 0.000000 1.749080 0.000000 
#    z 0.015730 0.000000 1.811880 
# 
# From -- ./inp_files/182452.got.cif
#   From: 2010.05.17/outbox.cif.g08.bks.cpg/sg15_92_cif.got.tgz:182452.got - 2010.06.03 18:47:42.
