data_PCOD9281068
_publ_section_title
;
Structure prediction by ZEFSAII (Michael W. Deem and Ramdas Pophale) SiO2 
 PCOD9281068
Probable space group: C 2/C
;
_chemical_formula_sum "Si O2"
_cell_formula_units_Z 48
_cell_length_a 13.557649
_cell_length_b 29.829176
_cell_length_c 5.889967
_cell_angle_alpha 90.000000
_cell_angle_beta 107.021670
_cell_angle_gamma 90.000000
_cell_volume 2277.637307
_symmetry_space_group_name_H-M "C 2/C"
_symmetry_group_IT_number 15
_symmetry_cell_setting 'monoclinic'
loop_
_space_group_symop_operation_xyz
x,y,z
-x,y,1/2-z
-x,-y,-z
x,-y,1/2+z
1/2+x,1/2+y,z
1/2-x,1/2+y,1/2-z
1/2-x,1/2-y,-z
1/2+x,1/2-y,1/2+z
loop_
_atom_site_type_symbol
_atom_site_label
_atom_site_fract_x
_atom_site_fract_y
_atom_site_fract_z
Si Si1 0.731719 0.845420 0.926408
Si Si2 0.352593 0.223365 0.499119
Si Si3 0.325448 0.611149 0.098357
Si Si4 0.618183 0.515152 0.541209
Si Si5 0.108607 0.635317 0.733207
Si Si6 0.410185 0.312676 0.360060
O O1 0.682000 0.810241 0.722017
O O2 0.806114 0.881125 0.851241
O O3 0.638101 0.869495 0.991539
O O4 0.804520 0.817801 0.145942
O O5 0.250000 0.250000 0.500000
O O6 0.390227 0.189025 0.715853
O O7 0.426839 0.262476 0.461687
O O8 0.374792 0.566793 0.030666
O O9 0.208292 0.614653 0.924343
O O10 0.390781 0.653259 0.052219
O O11 0.500000 0.500000 0.500000
O O12 0.661106 0.508200 0.832241
O O13 0.000000 0.617915 0.750000
O O14 0.500000 0.325800 0.250000
#
# Coordination Sequence:
#
# PCOD9281068 Si02
#       6
#     8   8   8   8   8   8
#     4  10  21  38  58  76 124 163 209 269 306 374
#     4  11  20  37  50  83 118 168 217 258 316 357
#     4  10  23  42  61  92 123 162 214 259 333 390
#     4  10  24  42  71 101 133 171 206 264 330 422
#     4  10  23  38  62  86 120 166 220 267 319 381
#     4  11  24  33  55  85 124 167 215 262 311 382
#
# _framework density 21.074470000000002
#
# number of rings (size 3 to 8) (size 9 to 14) (size 15 to 20)
#    0.000    1.667    5.000    0.500    9.333    4.000 
#    0.000    0.000    0.000    1.000    0.000    0.000 
#    0.000    0.000    0.000    0.000    0.000    0.000 
#
# Total GULP energy -133780.282035 kJ/mol
# GULP energy per Si atom -5574.178418 kJ/mol
# Density = 2.102650 g / cm^3
# Si number density = 21.074470 Si / 1000 Ang^3
#
#
#
# Elastic Constant Matrix: (Units=GPa)
#
#
# Indices 1 2 3 4 5 6 
#
# 1 113.9351 15.9810 20.9504 0.0000 -26.4198 0.0000
# 2 15.9810 92.8463 23.2116 0.0000 -9.6505 0.0000
# 3 20.9504 23.2116 95.2866 0.0000 -35.1732 0.0000
# 4 0.0000 0.0000 0.0000 13.9223 0.0000 -7.1999
# 5 -26.4198 -9.6505 -35.1732 0.0000 29.2507 0.0000
# 6 0.0000 0.0000 0.0000 -7.1999 0.0000 27.8483
#
#
#
# Elastic Compliance Matrix: (Units=1/GPa)
#
#
# Indices 1 2 3 4 5 6 
#
# 1 0.011521 -0.001274 0.002631 0.000000 0.013149 0.000000
# 2 -0.001274 0.011619 -0.002805 0.000000 -0.000690 0.000000
# 3 0.002631 -0.002805 0.020022 0.000000 0.025527 0.000000
# 4 0.000000 0.000000 0.000000 0.082913 0.000000 0.021436
# 5 0.013149 -0.000690 0.025527 0.000000 0.076532 0.000000
# 6 0.000000 0.000000 0.000000 0.021436 0.000000 0.041451
#
#
# Mechanical properties :
#
#
# Convention : Reuss Voigt Hill
#
# Bulk Modulus (GPa) = 24.83447 46.92822 35.88135
# Shear Modulus (GPa) = 19.20290 30.33260 24.76775
#
# Velocity S-wave (km/s) = 3.02187 3.79793 3.43191
# Velocity P-wave (km/s) = 4.89748 6.44582 5.72424
#
# Compressibility (1/GPa) = 0.04026661
#
# Stress axis : x y z
#
# Youngs Moduli (GPa) = 86.79816 86.06357 49.94399
#
# Poissons Ratio (x) = 0.10965 -0.13141
# Poissons Ratio (y) = 0.11058 0.14010
# Poissons Ratio (z) = -0.22838 0.24142
#
# Static dielectric constant tensor:
#      x y z
#    x 1.794370 0.000000 -0.013960 
#    y 0.000000 1.759670 0.000000 
#    z -0.013960 0.000000 1.882000 
# 
# From -- ./inp_files/8763.got.cif
#   From: 2010.05.17/outbox.cif.g08.bks.cpg/sg15_5_cif.got.tgz:8763.got - 2010.06.03 18:47:42.
