data_PCOD9281481
_publ_section_title
;
Structure prediction by ZEFSAII (Michael W. Deem and Ramdas Pophale) SiO2 
 PCOD9281481
Probable space group: C 2/C
;
_chemical_formula_sum "Si O2"
_cell_formula_units_Z 48
_cell_length_a 10.455546
_cell_length_b 12.500096
_cell_length_c 20.384164
_cell_angle_alpha 90.000000
_cell_angle_beta 45.499015
_cell_angle_gamma 90.000000
_cell_volume 1900.149129
_symmetry_space_group_name_H-M "C 2/C"
_symmetry_group_IT_number 15
_symmetry_cell_setting 'monoclinic'
loop_
_space_group_symop_operation_xyz
x,y,z
-x,y,1/2-z
-x,-y,-z
x,-y,1/2+z
1/2+x,1/2+y,z
1/2-x,1/2+y,1/2-z
1/2-x,1/2-y,-z
1/2+x,1/2-y,1/2+z
loop_
_atom_site_type_symbol
_atom_site_label
_atom_site_fract_x
_atom_site_fract_y
_atom_site_fract_z
Si Si1 0.854433 0.156238 0.075857
Si Si2 0.804679 0.779767 0.263029
Si Si3 0.808196 0.024112 0.488427
Si Si4 0.692387 0.506507 0.165246
Si Si5 0.930831 0.329618 0.341802
Si Si6 0.410255 0.204621 0.092700
O O1 0.696884 0.190963 0.180388
O O2 0.008933 0.088920 0.058837
O O3 0.936461 0.263198 0.013149
O O4 0.801440 0.080692 0.035344
O O5 0.814608 0.896684 0.291504
O O6 0.603384 0.769802 0.306662
O O7 0.931843 0.762668 0.155096
O O8 0.648390 0.098202 0.572298
O O9 0.798487 0.995902 0.416167
O O10 0.500000 0.560249 0.250000
O O11 0.858465 0.582457 0.124194
O O12 0.767594 0.254743 0.377866
O O13 0.000000 0.387285 0.250000
#
# Coordination Sequence:
#
# PCOD9281481 Si02
#       6
#     8   8   8   8   8   8
#     4  10  21  39  61  88 120 155 194 237 288 343
#     4  11  23  38  59  88 118 150 193 242 292 345
#     4  10  21  38  62  89 119 155 194 237 287 345
#     4  12  24  39  60  86 117 154 197 242 292 347
#     4   9  19  37  59  87 115 149 198 243 283 335
#     4  10  21  39  64  85 112 152 198 245 283 337
#
# _framework density 25.261175000000001
#
# number of rings (size 3 to 8) (size 9 to 14) (size 15 to 20)
#    0.000    1.667    0.000    5.500    0.000   11.333 
#    0.000    2.500    0.000    0.000    0.000    0.000 
#    0.000    0.000    0.000    0.000    0.000    0.000 
#
# Total GULP energy -134466.421433 kJ/mol
# GULP energy per Si atom -5602.767560 kJ/mol
# Density = 2.520368 g / cm^3
# Si number density = 25.261175 Si / 1000 Ang^3
#
#
#
# Elastic Constant Matrix: (Units=GPa)
#
#
# Indices 1 2 3 4 5 6 
#
# 1 67.1563 21.1406 50.3227 0.0000 20.9259 0.0000
# 2 21.1406 94.0134 21.1498 0.0000 22.5326 0.0000
# 3 50.3227 21.1498 113.7914 0.0000 24.3493 0.0000
# 4 0.0000 0.0000 0.0000 23.1763 0.0000 11.5327
# 5 20.9259 22.5326 24.3493 0.0000 46.1676 0.0000
# 6 0.0000 0.0000 0.0000 11.5327 0.0000 25.8063
#
#
#
# Elastic Compliance Matrix: (Units=1/GPa)
#
#
# Indices 1 2 3 4 5 6 
#
# 1 0.023963 -0.002135 -0.009130 0.000000 -0.005004 0.000000
# 2 -0.002135 0.012361 -0.000304 0.000000 -0.004905 0.000000
# 3 -0.009130 -0.000304 0.013487 0.000000 -0.002827 0.000000
# 4 0.000000 0.000000 0.000000 0.055486 0.000000 -0.024797
# 5 -0.005004 -0.004905 -0.002827 0.000000 0.027813 0.000000
# 6 0.000000 0.000000 0.000000 -0.024797 0.000000 0.049832
#
#
# Mechanical properties :
#
#
# Convention : Reuss Voigt Hill
#
# Bulk Modulus (GPa) = 37.49002 51.13192 44.31097
# Shear Modulus (GPa) = 23.25893 31.18658 27.22276
#
# Velocity S-wave (km/s) = 3.03766 3.51745 3.28632
# Velocity P-wave (km/s) = 5.21309 6.06481 5.65501
#
# Compressibility (1/GPa) = 0.02667376
#
# Stress axis : x y z
#
# Youngs Moduli (GPa) = 41.73021 80.90086 74.14634
#
# Poissons Ratio (x) = 0.17275 0.67694
# Poissons Ratio (y) = 0.08911 0.02251
# Poissons Ratio (z) = 0.38099 0.02456
#
# Static dielectric constant tensor:
#      x y z
#    x 2.042940 0.000000 -0.011720 
#    y 0.000000 2.010420 0.000000 
#    z -0.011720 0.000000 1.957690 
# 
# From -- ./inp_files/237440.got.cif
#   From: 2010.05.17/outbox.cif.g08.bks.cpg/sg15_119_cif.got.tgz:237440.got - 2010.06.03 18:47:42.
