data_PCOD9281565
_publ_section_title
;
Structure prediction by ZEFSAII (Michael W. Deem and Ramdas Pophale) SiO2 
 PCOD9281565
Probable space group: C 2/C
;
_chemical_formula_sum "Si O2"
_cell_formula_units_Z 56
_cell_length_a 25.001740
_cell_length_b 16.065964
_cell_length_c 8.661626
_cell_angle_alpha 90.000000
_cell_angle_beta 37.737949
_cell_angle_gamma 90.000000
_cell_volume 2129.433272
_symmetry_space_group_name_H-M "C 2/C"
_symmetry_group_IT_number 15
_symmetry_cell_setting 'monoclinic'
loop_
_space_group_symop_operation_xyz
x,y,z
-x,y,1/2-z
-x,-y,-z
x,-y,1/2+z
1/2+x,1/2+y,z
1/2-x,1/2+y,1/2-z
1/2-x,1/2-y,-z
1/2+x,1/2-y,1/2+z
loop_
_atom_site_type_symbol
_atom_site_label
_atom_site_fract_x
_atom_site_fract_y
_atom_site_fract_z
Si Si1 0.397729 0.705906 0.514209
Si Si2 0.000000 0.945130 0.250000
Si Si3 0.000000 0.336036 0.750000
Si Si4 0.898182 0.389424 0.538711
Si Si5 0.672001 0.460926 0.322210
Si Si6 0.657229 0.933894 0.364920
Si Si7 0.407824 0.697565 0.136098
Si Si8 0.744616 0.873551 0.903886
O O1 0.500000 0.692521 0.250000
O O2 0.385780 0.794210 0.625413
O O3 0.354300 0.626317 0.693948
O O4 0.368586 0.704379 0.398687
O O5 0.968226 0.883757 0.460277
O O6 0.916818 0.002905 0.397827
O O7 0.074818 0.396817 0.643598
O O8 0.030840 0.274146 0.545900
O O9 0.877060 0.482950 0.645598
O O10 0.819829 0.386673 0.589780
O O11 0.000000 0.391210 0.250000
O O12 0.757452 0.443677 0.227785
O O13 0.706517 0.540990 0.152885
O O14 0.680222 0.861753 0.191678
O O15 0.325780 0.687403 0.206352
#
# Coordination Sequence:
#
# PCOD9281565 Si02
#       8
#     8   4   4   8   8   8   8   8
#     4  11  22  39  62  91 132 168 202 258 327 382
#     4   9  20  40  65  96 130 158 215 274 318 381
#     4  11  24  40  67  96 122 166 223 272 308 371
#     4  10  23  41  56  90 128 165 208 251 309 387
#     4  10  21  38  62  97 125 162 212 258 322 381
#     4  11  22  42  63  91 125 170 214 265 307 380
#     4  10  22  41  66 100 122 160 219 274 320 371
#     4  10  22  40  70  91 122 168 213 271 316 366
#
# _framework density 26.298075999999998
#
# number of rings (size 3 to 8) (size 9 to 14) (size 15 to 20)
#    0.000    1.714    2.857    0.857    2.000    3.429 
#   10.286    0.714    0.000    0.000    0.000    0.000 
#    0.000    0.000    0.000    0.000    0.000    0.000 
#
# Total GULP energy -156116.278144 kJ/mol
# GULP energy per Si atom -5575.581362 kJ/mol
# Density = 2.623822 g / cm^3
# Si number density = 26.298076 Si / 1000 Ang^3
#
#
#
# Elastic Constant Matrix: (Units=GPa)
#
#
# Indices 1 2 3 4 5 6 
#
# 1 61.8481 10.1448 28.1639 0.0000 -37.9653 0.0000
# 2 10.1448 185.9340 56.5782 0.0000 -22.0401 0.0000
# 3 28.1639 56.5782 91.6902 0.0000 -40.2030 0.0000
# 4 0.0000 0.0000 0.0000 49.0548 0.0000 -7.2320
# 5 -37.9653 -22.0401 -40.2030 0.0000 45.9247 0.0000
# 6 0.0000 0.0000 0.0000 -7.2320 0.0000 19.8383
#
#
#
# Elastic Compliance Matrix: (Units=1/GPa)
#
#
# Indices 1 2 3 4 5 6 
#
# 1 0.033491 0.001050 0.002313 0.000000 0.030215 0.000000
# 2 0.001050 0.006666 -0.004305 0.000000 0.000299 0.000000
# 3 0.002313 -0.004305 0.020749 0.000000 0.018010 0.000000
# 4 0.000000 0.000000 0.000000 0.021543 0.000000 0.007853
# 5 0.030215 0.000299 0.018010 0.000000 0.062663 0.000000
# 6 0.000000 0.000000 0.000000 0.007853 0.000000 0.053270
#
#
# Mechanical properties :
#
#
# Convention : Reuss Voigt Hill
#
# Bulk Modulus (GPa) = 16.94255 58.80513 37.87384
# Shear Modulus (GPa) = 22.73343 39.26925 31.00134
#
# Velocity S-wave (km/s) = 2.94335 3.86843 3.43716
# Velocity P-wave (km/s) = 4.24353 6.50865 5.49409
#
# Compressibility (1/GPa) = 0.05902300
#
# Stress axis : x y z
#
# Youngs Moduli (GPa) = 29.85913 150.00611 48.19474
#
# Poissons Ratio (x) = -0.15758 -0.11148
# Poissons Ratio (y) = -0.03137 0.20748
# Poissons Ratio (z) = -0.06907 0.64580
#
# Static dielectric constant tensor:
#      x y z
#    x 2.129430 0.000000 0.020550 
#    y 0.000000 2.144870 0.000000 
#    z 0.020550 0.000000 2.088030 
# 
# From -- ./inp_files/127020.got.cif
#   From: 2010.05.17/outbox.cif.g08.bks.cpg/sg15_64_cif.got.tgz:127020.got - 2010.06.03 18:47:42.
