data_PCOD9281038
_publ_section_title
;
Structure prediction by ZEFSAII (Michael W. Deem and Ramdas Pophale) SiO2 
 PCOD9281038
Probable space group: C 2/C
;
_chemical_formula_sum "Si O2"
_cell_formula_units_Z 56
_cell_length_a 9.627693
_cell_length_b 14.071143
_cell_length_c 20.797518
_cell_angle_alpha 90.000000
_cell_angle_beta 94.905743
_cell_angle_gamma 90.000000
_cell_volume 2807.173527
_symmetry_space_group_name_H-M "C 2/C"
_symmetry_group_IT_number 15
_symmetry_cell_setting 'monoclinic'
loop_
_space_group_symop_operation_xyz
x,y,z
-x,y,1/2-z
-x,-y,-z
x,-y,1/2+z
1/2+x,1/2+y,z
1/2-x,1/2+y,1/2-z
1/2-x,1/2-y,-z
1/2+x,1/2-y,1/2+z
loop_
_atom_site_type_symbol
_atom_site_label
_atom_site_fract_x
_atom_site_fract_y
_atom_site_fract_z
Si Si1 0.869768 0.465765 0.083972
Si Si2 0.418931 0.137375 0.812406
Si Si3 0.107919 0.305607 0.506344
Si Si4 0.095528 0.871718 0.314630
Si Si5 0.899496 0.797562 0.902258
Si Si6 0.411397 0.810894 0.610897
Si Si7 0.047779 0.985760 0.076989
O O1 0.887244 0.416890 0.014070
O O2 0.894365 0.575234 0.104356
O O3 0.705438 0.445577 0.088971
O O4 0.984176 0.412916 0.131182
O O5 0.500000 0.123907 0.750000
O O6 0.257755 0.105398 0.806728
O O7 0.413046 0.246716 0.834373
O O8 0.250000 0.250000 0.500000
O O9 0.998612 0.253389 0.456244
O O10 0.047626 0.291554 0.574441
O O11 0.077845 0.757773 0.326865
O O12 0.000000 0.899168 0.250000
O O13 0.049367 0.924065 0.379384
O O14 0.741790 0.781244 0.920599
O O15 0.939831 0.906566 0.898054
O O16 0.000000 0.000000 0.000000
#
# Coordination Sequence:
#
# PCOD9281038 Si02
#       7
#     8   8   8   8   8   8   8
#     4  10  22  37  59  90 125 162 205 253 307 370
#     4  10  22  41  61  84 118 160 204 255 312 373
#     4  11  20  33  56  89 121 155 197 247 299 356
#     4  11  24  42  63  88 119 161 209 261 319 381
#     4   9  21  37  57  81 112 154 195 239 298 359
#     4  10  21  38  57  81 117 157 196 243 299 364
#     4  11  22  40  63  93 127 163 206 258 314 377
#
# _framework density 19.948893000000002
#
# number of rings (size 3 to 8) (size 9 to 14) (size 15 to 20)
#    0.000    1.714    0.000    4.286    0.000   10.286 
#    0.000    2.857    0.000    0.000    0.000    0.000 
#    0.000    0.000    0.000    0.000    0.000    0.000 
#
# Total GULP energy -155872.605298 kJ/mol
# GULP energy per Si atom -5566.878761 kJ/mol
# Density = 1.990349 g / cm^3
# Si number density = 19.948893 Si / 1000 Ang^3
#
#
#
# Elastic Constant Matrix: (Units=GPa)
#
#
# Indices 1 2 3 4 5 6 
#
# 1 161.1438 39.6234 60.8163 0.0000 -7.9453 0.0000
# 2 39.6234 58.4698 9.5697 0.0000 0.8454 0.0000
# 3 60.8163 9.5697 82.1708 0.0000 -1.0205 0.0000
# 4 0.0000 0.0000 0.0000 16.7342 0.0000 -1.3879
# 5 -7.9453 0.8454 -1.0205 0.0000 33.4452 0.0000
# 6 0.0000 0.0000 0.0000 -1.3879 0.0000 28.3471
#
#
#
# Elastic Compliance Matrix: (Units=1/GPa)
#
#
# Indices 1 2 3 4 5 6 
#
# 1 0.010430 -0.005958 -0.006995 0.000000 0.002415 0.000000
# 2 -0.005958 0.020847 0.001958 0.000000 -0.001883 0.000000
# 3 -0.006995 0.001958 0.017104 0.000000 -0.001189 0.000000
# 4 0.000000 0.000000 0.000000 0.060002 0.000000 0.002938
# 5 0.002415 -0.001883 -0.001189 0.000000 0.030485 0.000000
# 6 0.000000 0.000000 0.000000 0.002938 0.000000 0.035421
#
#
# Mechanical properties :
#
#
# Convention : Reuss Voigt Hill
#
# Bulk Modulus (GPa) = 37.89140 57.97812 47.93476
# Shear Modulus (GPa) = 24.38126 28.49030 26.43578
#
# Velocity S-wave (km/s) = 3.49977 3.78321 3.64424
# Velocity P-wave (km/s) = 5.94699 6.94334 6.46439
#
# Compressibility (1/GPa) = 0.02639121
#
# Stress axis : x y z
#
# Youngs Moduli (GPa) = 95.87888 47.96829 58.46440
#
# Poissons Ratio (x) = 0.28579 0.40899
# Poissons Ratio (y) = 0.57125 -0.11450
# Poissons Ratio (z) = 0.67072 -0.09394
#
# Static dielectric constant tensor:
#      x y z
#    x 1.723440 0.000000 -0.019120 
#    y 0.000000 1.752350 0.000000 
#    z -0.019120 0.000000 1.731990 
# 
# From -- ./inp_files/231566.got.cif
#   From: 2010.05.17/outbox.cif.g08.bks.cpg/sg15_116_cif.got.tgz:231566.got - 2010.06.03 18:47:42.
