data_PCOD9281342
_publ_section_title
;
Structure prediction by ZEFSAII (Michael W. Deem and Ramdas Pophale) SiO2 
 PCOD9281342
Probable space group: C 2/C
;
_chemical_formula_sum "Si O2"
_cell_formula_units_Z 44
_cell_length_a 13.160461
_cell_length_b 18.366710
_cell_length_c 9.579689
_cell_angle_alpha 90.000000
_cell_angle_beta 77.103407
_cell_angle_gamma 90.000000
_cell_volume 2257.137554
_symmetry_space_group_name_H-M "C 2/C"
_symmetry_group_IT_number 15
_symmetry_cell_setting 'monoclinic'
loop_
_space_group_symop_operation_xyz
x,y,z
-x,y,1/2-z
-x,-y,-z
x,-y,1/2+z
1/2+x,1/2+y,z
1/2-x,1/2+y,1/2-z
1/2-x,1/2-y,-z
1/2+x,1/2-y,1/2+z
loop_
_atom_site_type_symbol
_atom_site_label
_atom_site_fract_x
_atom_site_fract_y
_atom_site_fract_z
Si Si1 0.942207 0.558053 0.415461
Si Si2 0.000000 0.813914 0.250000
Si Si3 0.181518 0.081857 0.794911
Si Si4 0.704563 0.543983 0.476569
Si Si5 0.601518 0.159207 0.811670
Si Si6 0.852041 0.787596 0.534412
O O1 0.826622 0.533884 0.405815
O O2 0.920602 0.624504 0.528729
O O3 0.000000 0.571551 0.250000
O O4 0.000000 0.500000 0.500000
O O5 0.089740 0.861490 0.295594
O O6 0.942190 0.774156 0.393013
O O7 0.193797 0.039486 0.645436
O O8 0.292489 0.122960 0.780251
O O9 0.150462 0.023399 0.919343
O O10 0.667373 0.625569 0.446861
O O11 0.500000 0.145630 0.750000
O O12 0.621859 0.244530 0.832903
O O13 0.750000 0.750000 0.500000
#
# Coordination Sequence:
#
# PCOD9281342 Si02
#       6
#     8   4   8   8   8   8
#     4  11  20  33  60  92 119 164 207 254 315 365
#     4  10  22  40  68  86 120 164 214 250 310 376
#     4  10  21  40  62  89 120 160 206 258 303 370
#     4  10  21  38  61  86 126 157 205 256 305 370
#     4  11  23  41  60  89 132 157 206 269 310 370
#     4  11  21  43  63  89 124 169 207 251 316 382
#
# _framework density 19.493717
#
# number of rings (size 3 to 8) (size 9 to 14) (size 15 to 20)
#    0.000    1.455    5.455    3.818    1.273    2.909 
#    4.909    0.909    0.000    0.000    0.000    0.000 
#    0.000    0.000    0.000    0.000    0.000    0.000 
#
# Total GULP energy -122676.577694 kJ/mol
# GULP energy per Si atom -5576.208077 kJ/mol
# Density = 1.944935 g / cm^3
# Si number density = 19.493717 Si / 1000 Ang^3
#
#
#
# Elastic Constant Matrix: (Units=GPa)
#
#
# Indices 1 2 3 4 5 6 
#
# 1 90.8922 26.9701 24.2901 0.0000 -5.4732 0.0000
# 2 26.9701 70.2007 2.6058 0.0000 11.3343 0.0000
# 3 24.2901 2.6058 36.5567 0.0000 -8.3316 0.0000
# 4 0.0000 0.0000 0.0000 32.3073 0.0000 16.3039
# 5 -5.4732 11.3343 -8.3316 0.0000 34.2139 0.0000
# 6 0.0000 0.0000 0.0000 16.3039 0.0000 15.2507
#
#
#
# Elastic Compliance Matrix: (Units=1/GPa)
#
#
# Indices 1 2 3 4 5 6 
#
# 1 0.015370 -0.005907 -0.009301 0.000000 0.002151 0.000000
# 2 -0.005907 0.017511 0.001206 0.000000 -0.006452 0.000000
# 3 -0.009301 0.001206 0.034959 0.000000 0.006626 0.000000
# 4 0.000000 0.000000 0.000000 0.067215 0.000000 -0.071857
# 5 0.002151 -0.006452 0.006626 0.000000 0.033323 0.000000
# 6 0.000000 0.000000 0.000000 -0.071857 0.000000 0.142389
#
#
# Mechanical properties :
#
#
# Convention : Reuss Voigt Hill
#
# Bulk Modulus (GPa) = 25.10303 33.93131 29.51717
# Shear Modulus (GPa) = 14.20252 25.93997 20.07124
#
# Velocity S-wave (km/s) = 2.70213 3.65181 3.21226
# Velocity P-wave (km/s) = 4.75823 5.93507 5.37893
#
# Compressibility (1/GPa) = 0.03983582
#
# Stress axis : x y z
#
# Youngs Moduli (GPa) = 65.06192 57.10639 28.60485
#
# Poissons Ratio (x) = 0.33732 0.26607
# Poissons Ratio (y) = 0.38431 -0.03450
# Poissons Ratio (z) = 0.60517 -0.06887
#
# Static dielectric constant tensor:
#      x y z
#    x 1.569170 0.000000 -0.096330 
#    y 0.000000 1.728920 0.000000 
#    z -0.096330 0.000000 1.636410 
# 
# From -- ./inp_files/30845.got.cif
#   From: 2010.05.17/outbox.cif.g08.bks.cpg/sg15_16_cif.got.tgz:30845.got - 2010.06.03 18:47:42.
