data_PCOD9281857
_publ_section_title
;
Structure prediction by ZEFSAII (Michael W. Deem and Ramdas Pophale) SiO2 
 PCOD9281857
Probable space group: C 2/C
;
_chemical_formula_sum "Si O2"
_cell_formula_units_Z 48
_cell_length_a 9.236443
_cell_length_b 15.231025
_cell_length_c 26.033363
_cell_angle_alpha 90.000000
_cell_angle_beta 136.964090
_cell_angle_gamma 90.000000
_cell_volume 2499.419754
_symmetry_space_group_name_H-M "C 2/C"
_symmetry_group_IT_number 15
_symmetry_cell_setting 'monoclinic'
loop_
_space_group_symop_operation_xyz
x,y,z
-x,y,1/2-z
-x,-y,-z
x,-y,1/2+z
1/2+x,1/2+y,z
1/2-x,1/2+y,1/2-z
1/2-x,1/2-y,-z
1/2+x,1/2-y,1/2+z
loop_
_atom_site_type_symbol
_atom_site_label
_atom_site_fract_x
_atom_site_fract_y
_atom_site_fract_z
Si Si1 0.294888 0.215458 0.733756
Si Si2 0.670599 0.423008 0.039322
Si Si3 0.067366 0.180589 0.939610
Si Si4 0.753396 0.489051 0.951911
Si Si5 0.577004 0.035366 0.711469
Si Si6 0.927945 0.895759 0.790073
O O1 0.500000 0.205578 0.750000
O O2 0.281486 0.122582 0.758336
O O3 0.354578 0.297048 0.785142
O O4 0.090924 0.221885 0.644045
O O5 0.568740 0.341792 0.044117
O O6 0.875589 0.452655 0.123776
O O7 0.500000 0.500000 0.000000
O O8 0.731532 0.424037 0.995400
O O9 0.159765 0.086270 0.942931
O O10 0.250000 0.250000 0.000000
O O11 0.606526 0.443434 0.870452
O O12 0.000000 0.500000 0.000000
O O13 0.500000 0.026560 0.750000
O O14 0.717505 0.952822 0.735942
O O15 0.000000 0.890372 0.750000
#
# Coordination Sequence:
#
# PCOD9281857 Si02
#       6
#     8   8   8   8   8   8
#     4  10  21  40  66  90 122 171 221 253 321 388
#     4  10  21  38  65  93 125 166 213 263 325 388
#     4  11  23  41  68  95 130 171 223 267 328 404
#     4  11  24  42  63 100 133 169 215 272 340 396
#     4  11  19  41  67  89 121 166 216 265 310 394
#     4  11  24  40  65  90 130 169 212 264 334 388
#
# _framework density 19.204457999999999
#
# number of rings (size 3 to 8) (size 9 to 14) (size 15 to 20)
#    0.000    1.333    5.000    2.000    9.333    0.000 
#    0.000    5.833    0.000    0.000    0.000    0.000 
#    0.000    0.000    0.000    0.000    0.000    0.000 
#
# Total GULP energy -133805.182726 kJ/mol
# GULP energy per Si atom -5575.215947 kJ/mol
# Density = 1.916075 g / cm^3
# Si number density = 19.204458 Si / 1000 Ang^3
#
#
#
# Elastic Constant Matrix: (Units=GPa)
#
#
# Indices 1 2 3 4 5 6 
#
# 1 75.4690 7.5895 17.7242 0.0000 -0.9412 0.0000
# 2 7.5895 55.1121 -20.3751 0.0000 1.5236 0.0000
# 3 17.7242 -20.3751 112.3855 0.0000 1.9247 0.0000
# 4 0.0000 0.0000 0.0000 21.5260 0.0000 -13.3851
# 5 -0.9412 1.5236 1.9247 0.0000 32.9429 0.0000
# 6 0.0000 0.0000 0.0000 -13.3851 0.0000 5.2912
#
#
#
# Elastic Compliance Matrix: (Units=1/GPa)
#
#
# Indices 1 2 3 4 5 6 
#
# 1 0.014220 -0.003013 -0.002801 0.000000 0.000709 0.000000
# 2 -0.003013 0.020127 0.004146 0.000000 -0.001259 0.000000
# 3 -0.002801 0.004146 0.010106 0.000000 -0.000862 0.000000
# 4 0.000000 0.000000 0.000000 -0.081078 0.000000 -0.205100
# 5 0.000709 -0.001259 -0.000862 0.000000 0.030484 0.000000
# 6 0.000000 0.000000 0.000000 -0.205100 0.000000 -0.329844
#
#
# Mechanical properties :
#
#
# Convention : Reuss Voigt Hill
#
# Bulk Modulus (GPa) = 24.32136 28.09377 26.20756
# Shear Modulus (GPa) = -15.67689 27.82055 6.07183
#
# Velocity S-wave (km/s) = -2.86022 3.81024 1.78004
# Velocity P-wave (km/s) = 1.33570 5.83248 4.23095
#
# Compressibility (1/GPa) = 0.04111613
#
# Stress axis : x y z
#
# Youngs Moduli (GPa) = 70.32230 49.68363 98.95012
#
# Poissons Ratio (x) = 0.14972 0.27717
# Poissons Ratio (y) = 0.21191 -0.41023
# Poissons Ratio (z) = 0.19698 -0.20598
#
# Static dielectric constant tensor:
#      x y z
#    x 1.678920 0.000000 -0.021720 
#    y 0.000000 1.712610 0.000000 
#    z -0.021720 0.000000 1.652550 
# 
# From -- ./inp_files/289081.got.cif
#   From: 2010.05.17/outbox.cif.g08.bks.cpg/sg15_145_cif.got.tgz:289081.got - 2010.06.03 18:47:42.
