data_PCOD9281246
_publ_section_title
;
Structure prediction by ZEFSAII (Michael W. Deem and Ramdas Pophale) SiO2 
 PCOD9281246
Probable space group: C 2/C
;
_chemical_formula_sum "Si O2"
_cell_formula_units_Z 52
_cell_length_a 20.447190
_cell_length_b 9.062822
_cell_length_c 18.292145
_cell_angle_alpha 90.000000
_cell_angle_beta 47.198889
_cell_angle_gamma 90.000000
_cell_volume 2487.082067
_symmetry_space_group_name_H-M "C 2/C"
_symmetry_group_IT_number 15
_symmetry_cell_setting 'monoclinic'
loop_
_space_group_symop_operation_xyz
x,y,z
-x,y,1/2-z
-x,-y,-z
x,-y,1/2+z
1/2+x,1/2+y,z
1/2-x,1/2+y,1/2-z
1/2-x,1/2-y,-z
1/2+x,1/2-y,1/2+z
loop_
_atom_site_type_symbol
_atom_site_label
_atom_site_fract_x
_atom_site_fract_y
_atom_site_fract_z
Si Si1 0.000000 0.580910 0.750000
Si Si2 0.182985 0.273513 0.119469
Si Si3 0.817539 0.027021 0.604681
Si Si4 0.227246 0.022227 0.192383
Si Si5 0.485585 0.932925 0.899538
Si Si6 0.300175 0.224029 0.537813
Si Si7 0.917313 0.689810 0.046794
O O1 0.086666 0.675983 0.664129
O O2 0.967954 0.475093 0.709957
O O3 0.230354 0.394237 0.135938
O O4 0.174141 0.128541 0.177045
O O5 0.250000 0.250000 0.000000
O O6 0.895685 0.147586 0.535715
O O7 0.807524 0.997505 0.698994
O O8 0.829942 0.876395 0.551938
O O9 0.323462 0.103550 0.124974
O O10 0.241649 0.866596 0.141079
O O11 0.536167 0.815321 0.910199
O O12 0.386831 0.875985 0.958196
O O13 0.477968 0.087457 0.949378
O O14 0.250000 0.250000 0.500000
#
# Coordination Sequence:
#
# PCOD9281246 Si02
#       7
#     4   8   8   8   8   8   8
#     4  12  22  38  68  94 120 166 218 260 316 390
#     4  11  23  42  65  91 125 168 213 259 316 384
#     4  11  21  37  63  88 119 165 211 256 316 379
#     4  10  21  38  60  87 118 159 208 254 309 375
#     4  10  22  38  59  86 119 157 206 260 311 376
#     4  11  22  37  58  88 127 164 199 257 328 378
#     4   9  20  39  59  83 117 159 206 253 308 369
#
# _framework density 20.908035000000002
#
# number of rings (size 3 to 8) (size 9 to 14) (size 15 to 20)
#    0.000    1.538    0.000    7.385    0.000    4.308 
#    0.000    3.077    0.000    1.846    0.000    0.000 
#    0.000    0.000    0.000    0.000    0.000    0.000 
#
# Total GULP energy -145260.830216 kJ/mol
# GULP energy per Si atom -5586.955008 kJ/mol
# Density = 2.086045 g / cm^3
# Si number density = 20.908035 Si / 1000 Ang^3
#
#
#
# Elastic Constant Matrix: (Units=GPa)
#
#
# Indices 1 2 3 4 5 6 
#
# 1 105.8851 25.2738 27.9245 0.0000 20.9940 0.0000
# 2 25.2738 111.5605 32.6811 0.0001 15.9629 -0.0002
# 3 27.9245 32.6811 65.7660 0.0000 25.2030 0.0000
# 4 0.0000 0.0001 0.0000 20.6207 0.0000 11.2284
# 5 20.9940 15.9629 25.2030 0.0000 32.4520 0.0000
# 6 0.0000 -0.0002 0.0000 11.2284 0.0000 30.2963
#
#
#
# Elastic Compliance Matrix: (Units=1/GPa)
#
#
# Indices 1 2 3 4 5 6 
#
# 1 0.011318 -0.001175 -0.002331 0.000000 -0.004933 0.000000
# 2 -0.001175 0.010670 -0.004390 0.000000 -0.001079 0.000000
# 3 -0.002331 -0.004390 0.024162 0.000000 -0.015098 0.000000
# 4 0.000000 0.000000 0.000000 0.060756 0.000000 -0.022517
# 5 -0.004933 -0.001079 -0.015098 0.000000 0.046262 0.000000
# 6 0.000000 0.000000 0.000000 -0.022517 0.000000 0.041353
#
#
# Mechanical properties :
#
#
# Convention : Reuss Voigt Hill
#
# Bulk Modulus (GPa) = 32.93990 50.55226 41.74608
# Shear Modulus (GPa) = 22.68262 29.82928 26.25595
#
# Velocity S-wave (km/s) = 3.29732 3.78125 3.54755
# Velocity P-wave (km/s) = 5.50321 6.57987 6.06548
#
# Compressibility (1/GPa) = 0.03035832
#
# Stress axis : x y z
#
# Youngs Moduli (GPa) = 88.35815 93.71726 41.38653
#
# Poissons Ratio (x) = 0.11014 0.09647
# Poissons Ratio (y) = 0.10384 0.18168
# Poissons Ratio (z) = 0.20595 0.41141
#
# Static dielectric constant tensor:
#      x y z
#    x 1.763480 0.000000 -0.011300 
#    y 0.000000 1.757820 0.000000 
#    z -0.011300 0.000000 1.778080 
# 
# From -- ./inp_files/214248.got.cif
#   From: 2010.05.17/outbox.cif.g08.bks.cpg/sg15_108_cif.got.tgz:214248.got - 2010.06.03 18:47:42.
