data_PCOD9281541
_publ_section_title
;
Structure prediction by ZEFSAII (Michael W. Deem and Ramdas Pophale) SiO2 
 PCOD9281541
Probable space group: C 2/C
;
_chemical_formula_sum "Si O2"
_cell_formula_units_Z 56
_cell_length_a 14.224575
_cell_length_b 12.285817
_cell_length_c 17.942939
_cell_angle_alpha 90.000000
_cell_angle_beta 62.056198
_cell_angle_gamma 90.000000
_cell_volume 2770.116763
_symmetry_space_group_name_H-M "C 2/C"
_symmetry_group_IT_number 15
_symmetry_cell_setting 'monoclinic'
loop_
_space_group_symop_operation_xyz
x,y,z
-x,y,1/2-z
-x,-y,-z
x,-y,1/2+z
1/2+x,1/2+y,z
1/2-x,1/2+y,1/2-z
1/2-x,1/2-y,-z
1/2+x,1/2-y,1/2+z
loop_
_atom_site_type_symbol
_atom_site_label
_atom_site_fract_x
_atom_site_fract_y
_atom_site_fract_z
Si Si1 0.942584 0.089742 0.972668
Si Si2 0.251050 0.443156 0.004702
Si Si3 0.583083 0.746391 0.388337
Si Si4 0.081831 0.145577 0.779647
Si Si5 0.631257 0.755078 0.119770
Si Si6 0.747396 0.179799 0.276287
Si Si7 0.212851 0.465693 0.360938
O O1 0.006335 0.095652 0.871403
O O2 0.949172 0.200143 0.018818
O O3 0.824164 0.041455 0.006486
O O4 0.000000 0.000000 0.000000
O O5 0.172574 0.377843 0.088261
O O6 0.322919 0.340924 0.950656
O O7 0.198396 0.491491 0.950069
O O8 0.490814 0.752911 0.360771
O O9 0.673771 0.666786 0.322476
O O10 0.639206 0.862747 0.374587
O O11 0.159649 0.230655 0.790239
O O12 0.163925 0.066442 0.704588
O O13 0.000000 0.194346 0.750000
O O14 0.678308 0.719363 0.182224
O O15 0.690672 0.068058 0.317188
#
# Coordination Sequence:
#
# PCOD9281541 Si02
#       7
#     8   8   8   8   8   8   8
#     4  12  22  38  66  98 124 170 218 270 318 386
#     4  10  21  38  62  93 127 163 212 265 322 375
#     4  11  24  40  65  97 130 168 220 266 323 390
#     4  11  23  43  65  92 127 172 218 265 322 394
#     4  10  21  40  64  94 126 166 216 266 313 384
#     4  10  23  43  63  89 132 169 217 268 321 387
#     4  10  23  42  63  94 127 170 213 267 324 383
#
# _framework density 20.215752999999999
#
# number of rings (size 3 to 8) (size 9 to 14) (size 15 to 20)
#    0.000    1.429    2.857    2.143    4.000    2.286 
#    0.000    2.857    0.000    0.000    0.000    0.000 
#    0.000    0.000    0.000    0.000    0.000    0.000 
#
# Total GULP energy -156114.275138 kJ/mol
# GULP energy per Si atom -5575.509826 kJ/mol
# Density = 2.016974 g / cm^3
# Si number density = 20.215753 Si / 1000 Ang^3
#
#
#
# Elastic Constant Matrix: (Units=GPa)
#
#
# Indices 1 2 3 4 5 6 
#
# 1 71.1967 28.0729 10.6477 0.0000 3.8301 0.0000
# 2 28.0729 64.6561 15.9691 0.0000 2.0608 0.0000
# 3 10.6477 15.9691 54.6044 0.0000 4.8330 0.0000
# 4 0.0000 0.0000 0.0000 25.8882 0.0000 3.5525
# 5 3.8301 2.0608 4.8330 0.0000 17.2418 0.0000
# 6 0.0000 0.0000 0.0000 3.5525 0.0000 28.8623
#
#
#
# Elastic Compliance Matrix: (Units=1/GPa)
#
#
# Indices 1 2 3 4 5 6 
#
# 1 0.017145 -0.007105 -0.001029 0.000000 -0.002671 0.000000
# 2 -0.007105 0.019622 -0.004394 0.000000 0.000465 0.000000
# 3 -0.001029 -0.004394 0.020235 0.000000 -0.004918 0.000000
# 4 0.000000 0.000000 0.000000 0.039291 0.000000 -0.004836
# 5 -0.002671 0.000465 -0.004918 0.000000 0.059915 0.000000
# 6 0.000000 0.000000 0.000000 -0.004836 0.000000 0.035242
#
#
# Mechanical properties :
#
#
# Convention : Reuss Voigt Hill
#
# Bulk Modulus (GPa) = 31.30358 33.31519 32.30939
# Shear Modulus (GPa) = 22.01155 23.44963 22.73059
#
# Velocity S-wave (km/s) = 3.30332 3.40953 3.35685
# Velocity P-wave (km/s) = 5.48340 5.65822 5.57149
#
# Compressibility (1/GPa) = 0.03194522
#
# Stress axis : x y z
#
# Youngs Moduli (GPa) = 58.32753 50.96401 49.42037
#
# Poissons Ratio (x) = 0.36208 0.05085
# Poissons Ratio (y) = 0.41440 0.21716
# Poissons Ratio (z) = 0.06002 0.22394
#
# Static dielectric constant tensor:
#      x y z
#    x 1.671590 0.000000 -0.014060 
#    y 0.000000 1.691060 0.000000 
#    z -0.014060 0.000000 1.769370 
# 
# From -- ./inp_files/204368.got.cif
#   From: 2010.05.17/outbox.cif.g08.bks.cpg/sg15_103_cif.got.tgz:204368.got - 2010.06.03 18:47:42.
