data_PCOD9281043
_publ_section_title
;
Structure prediction by ZEFSAII (Michael W. Deem and Ramdas Pophale) SiO2 
 PCOD9281043
Probable space group: C 2/C
;
_chemical_formula_sum "Si O2"
_cell_formula_units_Z 64
_cell_length_a 20.647060
_cell_length_b 19.731150
_cell_length_c 12.426782
_cell_angle_alpha 90.000000
_cell_angle_beta 143.935408
_cell_angle_gamma 90.000000
_cell_volume 2980.307393
_symmetry_space_group_name_H-M "C 2/C"
_symmetry_group_IT_number 15
_symmetry_cell_setting 'monoclinic'
loop_
_space_group_symop_operation_xyz
x,y,z
-x,y,1/2-z
-x,-y,-z
x,-y,1/2+z
1/2+x,1/2+y,z
1/2-x,1/2+y,1/2-z
1/2-x,1/2-y,-z
1/2+x,1/2-y,1/2+z
loop_
_atom_site_type_symbol
_atom_site_label
_atom_site_fract_x
_atom_site_fract_y
_atom_site_fract_z
Si Si1 0.119247 0.688915 0.606862
Si Si2 0.877283 0.501913 0.133660
Si Si3 0.262202 0.186601 0.280820
Si Si4 0.116110 0.340667 0.348807
Si Si5 0.111959 0.704822 0.268043
Si Si6 0.274538 0.550554 0.385244
Si Si7 0.782053 0.072196 0.754013
Si Si8 0.155747 0.146564 0.849768
O O1 0.161194 0.762723 0.627801
O O2 0.106602 0.689463 0.717991
O O3 0.208925 0.631603 0.705437
O O4 0.006575 0.670731 0.394282
O O5 0.863284 0.421403 0.130744
O O6 0.836246 0.534149 0.192851
O O7 0.000000 0.513745 0.250000
O O8 0.793306 0.530377 0.931712
O O9 0.299828 0.192598 0.454202
O O10 0.347960 0.208270 0.302670
O O11 0.246620 0.107328 0.233557
O O12 0.000000 0.332871 0.250000
O O13 0.099298 0.781802 0.289780
O O14 0.212666 0.668816 0.466016
O O15 0.317215 0.481569 0.390594
O O16 0.355565 0.590052 0.574588
O O17 0.869485 0.111444 0.797370
#
# Coordination Sequence:
#
# PCOD9281043 Si02
#       8
#     8   8   8   8   8   8   8   8
#     4  12  24  36  64  89 116 167 205 251 310 361
#     4  10  22  32  53  86 121 156 190 236 305 379
#     4  11  22  40  57  88 123 158 201 254 306 360
#     4  11  21  37  57  87 126 159 197 246 307 374
#     4  10  21  41  59  85 127 155 205 254 299 365
#     4  10  21  38  57  82 123 161 196 247 298 363
#     4  11  21  35  56  87 117 160 198 244 309 357
#     4   9  21  39  58  88 119 159 201 252 305 356
#
# _framework density 21.474295000000001
#
# number of rings (size 3 to 8) (size 9 to 14) (size 15 to 20)
#    0.000    1.500    5.000    0.375    5.250    0.500 
#    0.000    0.000    0.000    0.750    3.250    0.000 
#    0.000    0.000    0.000    0.000    0.000    0.000 
#
# Total GULP energy -178598.338214 kJ/mol
# GULP energy per Si atom -5581.198069 kJ/mol
# Density = 2.142542 g / cm^3
# Si number density = 21.474295 Si / 1000 Ang^3
#
#
#
# Elastic Constant Matrix: (Units=GPa)
#
#
# Indices 1 2 3 4 5 6 
#
# 1 51.2383 28.4327 14.1135 0.0000 -26.9679 0.0000
# 2 28.4327 106.9022 16.4118 0.0000 -12.5703 0.0000
# 3 14.1135 16.4118 34.0001 0.0000 -11.9589 0.0000
# 4 0.0000 0.0000 0.0000 22.7187 0.0000 -12.1128
# 5 -26.9679 -12.5703 -11.9589 0.0000 25.8445 0.0000
# 6 0.0000 0.0000 0.0000 -12.1128 0.0000 21.4011
#
#
#
# Elastic Compliance Matrix: (Units=1/GPa)
#
#
# Indices 1 2 3 4 5 6 
#
# 1 0.048145 -0.007312 -0.000043 0.000000 0.046661 0.000000
# 2 -0.007312 0.011436 -0.003837 0.000000 -0.003842 0.000000
# 3 -0.000043 -0.003837 0.036560 0.000000 0.015006 0.000000
# 4 0.000000 0.000000 0.000000 0.063040 0.000000 0.035680
# 5 0.046661 -0.003842 0.015006 0.000000 0.092457 0.000000
# 6 0.000000 0.000000 0.000000 0.035680 0.000000 0.066921
#
#
# Mechanical properties :
#
#
# Convention : Reuss Voigt Hill
#
# Bulk Modulus (GPa) = 13.55796 34.45071 24.00434
# Shear Modulus (GPa) = 13.67886 22.87171 18.27529
#
# Velocity S-wave (km/s) = 2.52660 3.26709 2.92041
# Velocity P-wave (km/s) = 3.85213 5.50540 4.75123
#
# Compressibility (1/GPa) = 0.07375740
#
# Stress axis : x y z
#
# Youngs Moduli (GPa) = 20.77065 87.44163 27.35260
#
# Poissons Ratio (x) = 0.63934 0.00119
# Poissons Ratio (y) = 0.15187 0.10494
# Poissons Ratio (z) = 0.00090 0.33548
#
# Static dielectric constant tensor:
#      x y z
#    x 1.820670 0.000000 -0.028730 
#    y 0.000000 1.784000 0.000000 
#    z -0.028730 0.000000 1.809770 
# 
# From -- ./inp_files/107535.got.cif
#   From: 2010.05.17/outbox.cif.g08.bks.cpg/sg15_54_cif.got.tgz:107535.got - 2010.06.03 18:47:42.
