data_PCOD9281056
_publ_section_title
;
Structure prediction by ZEFSAII (Michael W. Deem and Ramdas Pophale) SiO2 
 PCOD9281056
Probable space group: C 2/C
;
_chemical_formula_sum "Si O2"
_cell_formula_units_Z 56
_cell_length_a 28.065646
_cell_length_b 13.131680
_cell_length_c 9.444085
_cell_angle_alpha 90.000000
_cell_angle_beta 53.660695
_cell_angle_gamma 90.000000
_cell_volume 2803.706908
_symmetry_space_group_name_H-M "C 2/C"
_symmetry_group_IT_number 15
_symmetry_cell_setting 'monoclinic'
loop_
_space_group_symop_operation_xyz
x,y,z
-x,y,1/2-z
-x,-y,-z
x,-y,1/2+z
1/2+x,1/2+y,z
1/2-x,1/2+y,1/2-z
1/2-x,1/2-y,-z
1/2+x,1/2-y,1/2+z
loop_
_atom_site_type_symbol
_atom_site_label
_atom_site_fract_x
_atom_site_fract_y
_atom_site_fract_z
Si Si1 0.165730 0.822966 0.687232
Si Si2 0.853499 0.485582 0.704272
Si Si3 0.796439 0.377432 0.545077
Si Si4 0.954899 0.666500 0.113928
Si Si5 0.917091 0.681864 0.500449
Si Si6 0.078722 0.965734 0.705401
Si Si7 0.955916 0.119183 0.519712
O O1 0.174693 0.728440 0.562055
O O2 0.226986 0.854703 0.651513
O O3 0.139144 0.919827 0.654702
O O4 0.118448 0.778856 0.881246
O O5 0.816545 0.412090 0.665532
O O6 0.913663 0.427059 0.642830
O O7 0.873833 0.585386 0.583159
O O8 0.817625 0.532943 0.899916
O O9 0.937258 0.694805 0.304803
O O10 0.942052 0.762341 0.035361
O O11 0.025960 0.655655 0.001046
O O12 0.074928 0.949932 0.544945
O O13 0.063097 0.075548 0.795011
O O14 0.025161 0.897929 0.866335
#
# Coordination Sequence:
#
# PCOD9281056 Si02
#       7
#     8   8   8   8   8   8   8
#     4  10  21  42  62  87 121 171 209 255 309 374
#     4  11  21  43  60  98 124 163 206 261 311 385
#     4  10  23  40  67  84 125 165 212 253 309 369
#     4  11  21  38  64  96 129 161 204 261 324 377
#     4  10  22  37  65  95 126 163 200 264 320 378
#     4  10  21  38  57  87 122 163 207 259 306 370
#     4  10  22  35  59  89 122 163 202 255 316 372
#
# _framework density 19.973557
#
# number of rings (size 3 to 8) (size 9 to 14) (size 15 to 20)
#    0.000    1.714    2.857    1.286    2.000    2.286 
#    0.000    2.143    0.000    0.000    0.000    0.000 
#    0.000    0.000    0.000    0.000    0.000    0.000 
#
# Total GULP energy -156216.109260 kJ/mol
# GULP energy per Si atom -5579.146759 kJ/mol
# Density = 1.992810 g / cm^3
# Si number density = 19.973557 Si / 1000 Ang^3
#
#
#
# Elastic Constant Matrix: (Units=GPa)
#
#
# Indices 1 2 3 4 5 6 
#
# 1 70.6153 6.9905 20.6429 0.0000 -6.4660 0.0000
# 2 6.9905 58.9825 7.9168 0.0000 0.9481 0.0000
# 3 20.6429 7.9168 38.2996 0.0000 -0.5031 0.0000
# 4 0.0000 0.0000 0.0000 18.5941 0.0000 -4.2126
# 5 -6.4660 0.9481 -0.5031 0.0000 23.6117 0.0000
# 6 0.0000 0.0000 0.0000 -4.2126 0.0000 32.6694
#
#
#
# Elastic Compliance Matrix: (Units=1/GPa)
#
#
# Indices 1 2 3 4 5 6 
#
# 1 0.017329 -0.000907 -0.009092 0.000000 0.004588 0.000000
# 2 -0.000907 0.017500 -0.003142 0.000000 -0.001018 0.000000
# 3 -0.009092 -0.003142 0.031638 0.000000 -0.001690 0.000000
# 4 0.000000 0.000000 0.000000 0.055399 0.000000 0.007144
# 5 0.004588 -0.001018 -0.001690 0.000000 0.043613 0.000000
# 6 0.000000 0.000000 0.000000 0.007144 0.000000 0.031531
#
#
# Mechanical properties :
#
#
# Convention : Reuss Voigt Hill
#
# Bulk Modulus (GPa) = 24.88544 26.55533 25.72038
# Shear Modulus (GPa) = 21.12495 23.79818 22.46157
#
# Velocity S-wave (km/s) = 3.25567 3.45553 3.35709
# Velocity P-wave (km/s) = 5.15934 5.40787 5.28507
#
# Compressibility (1/GPa) = 0.04018414
#
# Stress axis : x y z
#
# Youngs Moduli (GPa) = 57.70629 57.14365 31.60774
#
# Poissons Ratio (x) = 0.05184 0.28739
# Poissons Ratio (y) = 0.05235 0.09930
# Poissons Ratio (z) = 0.52469 0.17953
#
# Static dielectric constant tensor:
#      x y z
#    x 1.706410 0.000000 0.008890 
#    y 0.000000 1.686430 0.000000 
#    z 0.008890 0.000000 1.722000 
# 
# From -- ./inp_files/61809.got.cif
#   From: 2010.05.17/outbox.cif.g08.bks.cpg/sg15_31_cif.got.tgz:61809.got - 2010.06.03 18:47:42.
