data_PCOD9281608
_publ_section_title
;
Structure prediction by ZEFSAII (Michael W. Deem and Ramdas Pophale) SiO2 
 PCOD9281608
Probable space group: C 2/C
;
_chemical_formula_sum "Si O2"
_cell_formula_units_Z 40
_cell_length_a 11.169460
_cell_length_b 10.125815
_cell_length_c 18.476990
_cell_angle_alpha 90.000000
_cell_angle_beta 56.023002
_cell_angle_gamma 90.000000
_cell_volume 1732.946495
_symmetry_space_group_name_H-M "C 2/C"
_symmetry_group_IT_number 15
_symmetry_cell_setting 'monoclinic'
loop_
_space_group_symop_operation_xyz
x,y,z
-x,y,1/2-z
-x,-y,-z
x,-y,1/2+z
1/2+x,1/2+y,z
1/2-x,1/2+y,1/2-z
1/2-x,1/2-y,-z
1/2+x,1/2-y,1/2+z
loop_
_atom_site_type_symbol
_atom_site_label
_atom_site_fract_x
_atom_site_fract_y
_atom_site_fract_z
Si Si1 0.823443 0.973863 0.482934
Si Si2 0.958421 0.231133 0.413214
Si Si3 0.028061 0.633927 0.034196
Si Si4 0.065526 0.509909 0.803694
Si Si5 0.138970 0.993682 0.357985
O O1 0.827072 0.125477 0.450321
O O2 0.517370 0.240222 0.509804
O O3 0.696789 0.882181 0.497286
O O4 0.982967 0.922428 0.406781
O O5 0.970283 0.366944 0.365791
O O6 0.095308 0.140119 0.345316
O O7 0.000000 0.500000 0.000000
O O8 0.940616 0.609129 0.137157
O O9 0.227856 0.557137 0.732840
O O10 0.000000 0.465783 0.750000
O O11 0.679177 0.490277 0.929294
#
# Coordination Sequence:
#
# PCOD9281608 Si02
#       5
#     8   8   8   8   8
#     4   9  19  42  60  84 127 159 207 245 314 378
#     4   9  22  40  61  90 119 170 207 239 332 356
#     4  10  21  38  63  89 122 157 211 251 303 379
#     4  11  21  39  58  93 124 149 207 265 297 367
#     4   9  20  41  58  86 124 162 202 255 309 374
#
# _framework density 23.082073000000001
#
# number of rings (size 3 to 8) (size 9 to 14) (size 15 to 20)
#    1.200    1.200    2.000    0.000    0.000    5.600 
#    7.200    4.000    0.000    0.000    0.000    0.000 
#    0.000    0.000    0.000    0.000    0.000    0.000 
#
# Total GULP energy -111430.537534 kJ/mol
# GULP energy per Si atom -5571.526877 kJ/mol
# Density = 2.302954 g / cm^3
# Si number density = 23.082073 Si / 1000 Ang^3
#
#
#
# Elastic Constant Matrix: (Units=GPa)
#
#
# Indices 1 2 3 4 5 6 
#
# 1 102.0591 -6.2919 39.4257 0.0000 -18.6847 0.0000
# 2 -6.2919 54.6849 3.4718 0.0000 1.9705 0.0000
# 3 39.4257 3.4718 128.7993 0.0000 -18.9365 0.0000
# 4 0.0000 0.0000 0.0000 34.5453 0.0000 4.6043
# 5 -18.6847 1.9705 -18.9365 0.0000 42.4375 0.0000
# 6 0.0000 0.0000 0.0000 4.6043 0.0000 27.5780
#
#
#
# Elastic Compliance Matrix: (Units=1/GPa)
#
#
# Indices 1 2 3 4 5 6 
#
# 1 0.011763 0.001415 -0.003090 0.000000 0.003735 0.000000
# 2 0.001415 0.018540 -0.001036 0.000000 -0.000700 0.000000
# 3 -0.003090 -0.001036 0.009145 0.000000 0.002768 0.000000
# 4 0.000000 0.000000 0.000000 0.029606 0.000000 -0.004943
# 5 0.003735 -0.000700 0.002768 0.000000 0.026476 0.000000
# 6 0.000000 0.000000 0.000000 -0.004943 0.000000 0.037086
#
#
# Mechanical properties :
#
#
# Convention : Reuss Voigt Hill
#
# Bulk Modulus (GPa) = 29.38862 39.86162 34.62512
# Shear Modulus (GPa) = 33.47175 37.50798 35.48987
#
# Velocity S-wave (km/s) = 3.81217 4.03548 3.92542
# Velocity P-wave (km/s) = 5.66893 6.24664 5.96478
#
# Compressibility (1/GPa) = 0.03402677
#
# Stress axis : x y z
#
# Youngs Moduli (GPa) = 85.01424 53.93638 109.35296
#
# Poissons Ratio (x) = -0.07632 0.33786
# Poissons Ratio (y) = -0.12029 0.11327
# Poissons Ratio (z) = 0.26266 0.05587
#
# Static dielectric constant tensor:
#      x y z
#    x 1.982990 0.000000 -0.145170 
#    y 0.000000 2.023160 0.000000 
#    z -0.145170 0.000000 1.978310 
# 
# From -- ./inp_files/237953.got.cif
#   From: 2010.05.17/outbox.cif.g08.bks.cpg/sg15_119_cif.got.tgz:237953.got - 2010.06.03 18:47:42.
