data_PCOD9281283
_publ_section_title
;
Structure prediction by ZEFSAII (Michael W. Deem and Ramdas Pophale) SiO2 
 PCOD9281283
Probable space group: C 2/C
;
_chemical_formula_sum "Si O2"
_cell_formula_units_Z 64
_cell_length_a 16.950110
_cell_length_b 22.689316
_cell_length_c 8.642219
_cell_angle_alpha 90.000000
_cell_angle_beta 76.321968
_cell_angle_gamma 90.000000
_cell_volume 3229.419869
_symmetry_space_group_name_H-M "C 2/C"
_symmetry_group_IT_number 15
_symmetry_cell_setting 'monoclinic'
loop_
_space_group_symop_operation_xyz
x,y,z
-x,y,1/2-z
-x,-y,-z
x,-y,1/2+z
1/2+x,1/2+y,z
1/2-x,1/2+y,1/2-z
1/2-x,1/2-y,-z
1/2+x,1/2-y,1/2+z
loop_
_atom_site_type_symbol
_atom_site_label
_atom_site_fract_x
_atom_site_fract_y
_atom_site_fract_z
Si Si1 0.464820 0.226915 0.100037
Si Si2 0.319603 0.494511 0.836432
Si Si3 0.084845 0.645214 0.633343
Si Si4 0.256074 0.077993 0.850323
Si Si5 0.067225 0.949223 0.981933
Si Si6 0.408796 0.678517 0.064191
Si Si7 0.190722 0.245795 0.178607
Si Si8 0.178551 0.809284 0.220869
O O1 0.500000 0.211123 0.250000
O O2 0.393079 0.273605 0.162009
O O3 0.434598 0.168093 0.029762
O O4 0.533108 0.264779 0.979077
O O5 0.247722 0.530720 0.787287
O O6 0.367135 0.459583 0.682783
O O7 0.289500 0.452099 0.985333
O O8 0.384948 0.539584 0.880727
O O9 0.155719 0.598465 0.632510
O O10 0.122224 0.705341 0.685452
O O11 0.000000 0.628421 0.750000
O O12 0.206906 0.133925 0.805519
O O13 0.040070 0.881950 0.972017
O O14 0.000000 0.000000 0.000000
O O15 0.354919 0.686794 0.244515
O O16 0.351412 0.677070 0.938006
O O17 0.244546 0.266039 0.299827
O O18 0.250000 0.250000 0.000000
#
# Coordination Sequence:
#
# PCOD9281283 Si02
#       8
#     8   8   8   8   8   8   8   8
#     4  10  22  37  58  89 134 166 209 253 321 406
#     4  10  23  43  60  91 123 166 231 268 326 378
#     4  11  22  43  62  93 128 164 210 274 340 387
#     4  10  23  42  69  88 125 167 215 284 321 387
#     4  11  24  39  60  91 131 176 220 265 316 389
#     4  11  23  38  60  92 132 176 210 258 325 384
#     4  11  22  37  62  92 128 164 220 259 315 397
#     4  10  21  38  60  90 127 171 207 262 320 390
#
# _framework density 19.817799999999998
#
# number of rings (size 3 to 8) (size 9 to 14) (size 15 to 20)
#    0.000    1.500    3.750    0.750    7.000    1.000 
#    2.250    3.125    0.000    0.000    0.000    0.000 
#    0.000    0.000    0.000    0.000    0.000    0.000 
#
# Total GULP energy -178487.068899 kJ/mol
# GULP energy per Si atom -5577.720903 kJ/mol
# Density = 1.977269 g / cm^3
# Si number density = 19.817800 Si / 1000 Ang^3
#
#
#
# Elastic Constant Matrix: (Units=GPa)
#
#
# Indices 1 2 3 4 5 6 
#
# 1 95.2917 21.6879 21.2927 0.0000 14.4034 0.0000
# 2 21.6879 59.8936 15.6002 0.0000 4.3703 0.0000
# 3 21.2927 15.6002 59.1985 0.0000 3.2321 0.0000
# 4 0.0000 0.0000 0.0000 7.2671 0.0000 -13.2366
# 5 14.4034 4.3703 3.2321 0.0000 13.2741 0.0000
# 6 0.0000 0.0000 0.0000 -13.2366 0.0000 22.4728
#
#
#
# Elastic Compliance Matrix: (Units=1/GPa)
#
#
# Indices 1 2 3 4 5 6 
#
# 1 0.014008 -0.003198 -0.003469 0.000000 -0.013302 0.000000
# 2 -0.003198 0.018966 -0.003746 0.000000 -0.001862 0.000000
# 3 -0.003469 -0.003746 0.019108 0.000000 0.000345 0.000000
# 4 0.000000 0.000000 0.000000 -1.889090 0.000000 -1.112683
# 5 -0.013302 -0.001862 0.000345 0.000000 0.090297 0.000000
# 6 0.000000 0.000000 0.000000 -1.112683 0.000000 -0.610877
#
#
# Mechanical properties :
#
#
# Convention : Reuss Voigt Hill
#
# Bulk Modulus (GPa) = 31.99456 36.83837 34.41647
# Shear Modulus (GPa) = -2.14930 18.98967 8.42019
#
# Velocity S-wave (km/s) = -1.04254 3.09886 2.06350
# Velocity P-wave (km/s) = 3.83800 5.60650 4.80432
#
# Compressibility (1/GPa) = 0.03125531
#
# Stress axis : x y z
#
# Youngs Moduli (GPa) = 71.38924 52.72624 52.33277
#
# Poissons Ratio (x) = 0.16862 0.18156
# Poissons Ratio (y) = 0.22831 0.19604
# Poissons Ratio (z) = 0.24767 0.19751
#
# Static dielectric constant tensor:
#      x y z
#    x 1.741760 0.000000 0.021880 
#    y 0.000000 1.711010 0.000000 
#    z 0.021880 0.000000 1.725290 
# 
# From -- ./inp_files/51223.got.cif
#   From: 2010.05.17/outbox.cif.g08.bks.cpg/sg15_26_cif.got.tgz:51223.got - 2010.06.03 18:47:42.
