data_PCOD9281667
_publ_section_title
;
Structure prediction by ZEFSAII (Michael W. Deem and Ramdas Pophale) SiO2 
 PCOD9281667
Probable space group: C 2/C
;
_chemical_formula_sum "Si O2"
_cell_formula_units_Z 32
_cell_length_a 6.429170
_cell_length_b 16.386880
_cell_length_c 16.476638
_cell_angle_alpha 90.000000
_cell_angle_beta 61.078718
_cell_angle_gamma 90.000000
_cell_volume 1519.389942
_symmetry_space_group_name_H-M "C 2/C"
_symmetry_group_IT_number 15
_symmetry_cell_setting 'monoclinic'
loop_
_space_group_symop_operation_xyz
x,y,z
-x,y,1/2-z
-x,-y,-z
x,-y,1/2+z
1/2+x,1/2+y,z
1/2-x,1/2+y,1/2-z
1/2-x,1/2-y,-z
1/2+x,1/2-y,1/2+z
loop_
_atom_site_type_symbol
_atom_site_label
_atom_site_fract_x
_atom_site_fract_y
_atom_site_fract_z
Si Si1 0.029323 0.684772 0.149156
Si Si2 0.866250 0.075782 0.985482
Si Si3 0.728555 0.212170 0.594213
Si Si4 0.764257 0.851626 0.348551
O O1 0.157452 0.610432 0.081367
O O2 0.201291 0.764082 0.113053
O O3 0.000000 0.668299 0.250000
O O4 0.795249 0.717206 0.146481
O O5 0.756436 0.075482 0.915235
O O6 0.072514 0.143026 0.938402
O O7 0.000000 0.000000 0.000000
O O8 0.750000 0.250000 0.500000
O O9 0.478078 0.166095 0.652983
O O10 0.000000 0.861563 0.250000
#
# Coordination Sequence:
#
# PCOD9281667 Si02
#       4
#     8   8   8   8
#     4  10  21  38  63  94 125 163 222 268 311 383
#     4  11  23  40  59  94 136 165 200 265 330 387
#     4  11  19  41  69  85 119 173 218 265 313 375
#     4  10  21  40  66  93 120 164 225 264 310 385
#
# _framework density 21.061084999999999
#
# number of rings (size 3 to 8) (size 9 to 14) (size 15 to 20)
#    0.000    1.500    5.000    1.500    0.000   10.000 
#    4.500    0.000    0.000    0.000    0.000    0.000 
#    0.000    0.000    0.000    0.000    0.000    0.000 
#
# Total GULP energy -89232.734668 kJ/mol
# GULP energy per Si atom -5577.045917 kJ/mol
# Density = 2.101315 g / cm^3
# Si number density = 21.061085 Si / 1000 Ang^3
#
#
#
# Elastic Constant Matrix: (Units=GPa)
#
#
# Indices 1 2 3 4 5 6 
#
# 1 148.5782 31.0846 83.5286 0.0000 -0.8920 0.0000
# 2 31.0846 72.6677 50.5076 0.0000 5.6777 0.0000
# 3 83.5286 50.5076 141.0054 0.0000 9.0741 0.0000
# 4 0.0000 0.0000 0.0000 8.0999 0.0000 0.2701
# 5 -0.8920 5.6777 9.0741 0.0000 36.3207 0.0000
# 6 0.0000 0.0000 0.0000 0.2701 0.0000 37.4199
#
#
#
# Elastic Compliance Matrix: (Units=1/GPa)
#
#
# Indices 1 2 3 4 5 6 
#
# 1 0.010209 -0.000298 -0.006057 0.000000 0.001811 0.000000
# 2 -0.000298 0.018387 -0.006326 0.000000 -0.001301 0.000000
# 3 -0.006057 -0.006326 0.013103 0.000000 -0.002433 0.000000
# 4 0.000000 0.000000 0.000000 0.123488 0.000000 -0.000891
# 5 0.001811 -0.001301 -0.002433 0.000000 0.028388 0.000000
# 6 0.000000 0.000000 0.000000 -0.000891 0.000000 0.026730
#
#
# Mechanical properties :
#
#
# Convention : Reuss Voigt Hill
#
# Bulk Modulus (GPa) = 61.21421 76.94365 69.07893
# Shear Modulus (GPa) = 19.91133 29.51012 24.71072
#
# Velocity S-wave (km/s) = 3.07809 3.74728 3.42905
# Velocity P-wave (km/s) = 6.46227 7.43880 6.96766
#
# Compressibility (1/GPa) = 0.01633608
#
# Stress axis : x y z
#
# Youngs Moduli (GPa) = 97.95198 54.38530 76.32089
#
# Poissons Ratio (x) = 0.01623 0.46230
# Poissons Ratio (y) = 0.02923 0.48279
# Poissons Ratio (z) = 0.59332 0.34403
#
# Static dielectric constant tensor:
#      x y z
#    x 1.893790 0.000000 0.055200 
#    y 0.000000 1.749800 0.000000 
#    z 0.055200 0.000000 1.819410 
# 
# From -- ./inp_files/183912.got.cif
#   From: 2010.05.17/outbox.cif.g08.bks.cpg/sg15_92_cif.got.tgz:183912.got - 2010.06.03 18:47:42.
