data_PCOD9281329
_publ_section_title
;
Structure prediction by ZEFSAII (Michael W. Deem and Ramdas Pophale) SiO2 
 PCOD9281329
Probable space group: C 2/C
;
_chemical_formula_sum "Si O2"
_cell_formula_units_Z 52
_cell_length_a 11.709531
_cell_length_b 29.203932
_cell_length_c 9.461075
_cell_angle_alpha 90.000000
_cell_angle_beta 119.735036
_cell_angle_gamma 90.000000
_cell_volume 2809.346522
_symmetry_space_group_name_H-M "C 2/C"
_symmetry_group_IT_number 15
_symmetry_cell_setting 'monoclinic'
loop_
_space_group_symop_operation_xyz
x,y,z
-x,y,1/2-z
-x,-y,-z
x,-y,1/2+z
1/2+x,1/2+y,z
1/2-x,1/2+y,1/2-z
1/2-x,1/2-y,-z
1/2+x,1/2-y,1/2+z
loop_
_atom_site_type_symbol
_atom_site_label
_atom_site_fract_x
_atom_site_fract_y
_atom_site_fract_z
Si Si1 0.986891 0.068021 0.909001
Si Si2 0.134265 0.209554 0.260297
Si Si3 0.000000 0.611943 0.750000
Si Si4 0.720025 0.505404 0.164626
Si Si5 0.287619 0.188778 0.619288
Si Si6 0.494212 0.674842 0.916340
Si Si7 0.608290 0.027113 0.977761
O O1 0.998661 0.120880 0.953707
O O2 0.000000 0.064585 0.750000
O O3 0.849701 0.044189 0.866198
O O4 0.107058 0.039034 0.042827
O O5 0.252349 0.189123 0.429031
O O6 0.143761 0.263751 0.295217
O O7 0.000000 0.191846 0.250000
O O8 0.110038 0.198365 0.080541
O O9 0.120709 0.645770 0.786564
O O10 0.947474 0.576745 0.598475
O O11 0.767495 0.525583 0.342027
O O12 0.840818 0.498780 0.131255
O O13 0.148661 0.190170 0.615538
O O14 0.500000 0.681475 0.750000
O O15 0.500000 0.000000 0.000000
#
# Coordination Sequence:
#
# PCOD9281329 Si02
#       7
#     8   8   4   8   8   8   8
#     4  10  21  38  61  85 120 154 201 253 296 343
#     4   9  19  40  63  89 115 154 195 252 304 340
#     4  12  24  38  66  90 112 166 206 240 294 352
#     4  11  22  40  58  84 118 162 200 249 295 344
#     4  10  21  39  64  86 120 150 204 249 288 364
#     4  10  22  37  60  92 121 155 193 247 304 358
#     4  12  24  39  58  84 123 161 199 241 294 357
#
# _framework density 18.509640999999998
#
# number of rings (size 3 to 8) (size 9 to 14) (size 15 to 20)
#    0.000    1.538    3.846    0.923    2.154    0.615 
#    2.769    0.000    0.000    0.000    0.000    0.000 
#    0.000    0.000    0.000    0.000    0.000    0.000 
#
# Total GULP energy -144916.063535 kJ/mol
# GULP energy per Si atom -5573.694751 kJ/mol
# Density = 1.846751 g / cm^3
# Si number density = 18.509641 Si / 1000 Ang^3
#
#
#
# Elastic Constant Matrix: (Units=GPa)
#
#
# Indices 1 2 3 4 5 6 
#
# 1 69.2491 14.3164 22.4018 0.0000 -2.7103 0.0000
# 2 14.3164 69.2435 74.1200 0.0000 8.2716 0.0000
# 3 22.4018 74.1200 128.1267 0.0000 8.6770 0.0000
# 4 0.0000 0.0000 0.0000 8.9440 0.0000 -17.0477
# 5 -2.7103 8.2716 8.6770 0.0000 26.3568 0.0000
# 6 0.0000 0.0000 0.0000 -17.0477 0.0000 -2.7975
#
#
#
# Elastic Compliance Matrix: (Units=1/GPa)
#
#
# Indices 1 2 3 4 5 6 
#
# 1 0.015504 -0.001129 -0.002239 0.000000 0.002686 0.000000
# 2 -0.001129 0.038610 -0.021795 0.000000 -0.005058 0.000000
# 3 -0.002239 -0.021795 0.020821 0.000000 -0.000245 0.000000
# 4 0.000000 0.000000 0.000000 0.008863 0.000000 -0.054009
# 5 0.002686 -0.005058 -0.000245 0.000000 0.039885 0.000000
# 6 0.000000 0.000000 0.000000 -0.054009 0.000000 -0.028336
#
#
# Mechanical properties :
#
#
# Convention : Reuss Voigt Hill
#
# Bulk Modulus (GPa) = 40.63932 54.25507 47.44719
# Shear Modulus (GPa) = 32.49352 16.88607 24.68980
#
# Velocity S-wave (km/s) = 4.19440 3.02368 3.65621
# Velocity P-wave (km/s) = 6.74246 6.44714 6.59645
#
# Compressibility (1/GPa) = 0.02460671
#
# Stress axis : x y z
#
# Youngs Moduli (GPa) = 64.50111 25.90016 48.02776
#
# Poissons Ratio (x) = 0.02925 0.10755
# Poissons Ratio (y) = 0.07284 1.04678
# Poissons Ratio (z) = 0.14443 0.56450
#
# Static dielectric constant tensor:
#      x y z
#    x 1.666810 0.000000 0.003040 
#    y 0.000000 1.641730 0.000000 
#    z 0.003040 0.000000 1.561940 
# 
# From -- ./inp_files/35369.got.cif
#   From: 2010.05.17/outbox.cif.g08.bks.cpg/sg15_18_cif.got.tgz:35369.got - 2010.06.03 18:47:42.
