data_PCOD9281686
_publ_section_title
;
Structure prediction by ZEFSAII (Michael W. Deem and Ramdas Pophale) SiO2 
 PCOD9281686
Probable space group: C 2/C
;
_chemical_formula_sum "Si O2"
_cell_formula_units_Z 48
_cell_length_a 8.157470
_cell_length_b 22.256681
_cell_length_c 11.818325
_cell_angle_alpha 90.000000
_cell_angle_beta 72.803062
_cell_angle_gamma 90.000000
_cell_volume 2049.787969
_symmetry_space_group_name_H-M "C 2/C"
_symmetry_group_IT_number 15
_symmetry_cell_setting 'monoclinic'
loop_
_space_group_symop_operation_xyz
x,y,z
-x,y,1/2-z
-x,-y,-z
x,-y,1/2+z
1/2+x,1/2+y,z
1/2-x,1/2+y,1/2-z
1/2-x,1/2-y,-z
1/2+x,1/2-y,1/2+z
loop_
_atom_site_type_symbol
_atom_site_label
_atom_site_fract_x
_atom_site_fract_y
_atom_site_fract_z
Si Si1 0.317394 0.320793 0.728846
Si Si2 0.702978 0.190240 0.746275
Si Si3 0.561418 0.578456 0.862744
Si Si4 0.266200 0.654307 0.994911
Si Si5 0.886485 0.534794 0.873431
Si Si6 0.074230 0.588986 0.393873
O O1 0.500000 0.327252 0.750000
O O2 0.236949 0.258415 0.791293
O O3 0.337124 0.310999 0.589648
O O4 0.213353 0.380453 0.785006
O O5 0.500000 0.188979 0.750000
O O6 0.820277 0.139166 0.663855
O O7 0.744668 0.178810 0.871670
O O8 0.500000 0.563924 0.750000
O O9 0.389730 0.596096 0.962348
O O10 0.690865 0.527318 0.875695
O O11 0.077283 0.636406 0.069542
O O12 0.991742 0.474203 0.874227
O O13 0.000000 0.563962 0.750000
O O14 0.872459 0.574898 0.988477
#
# Coordination Sequence:
#
# PCOD9281686 Si02
#       6
#     8   8   8   8   8   8
#     4  11  24  42  63  95 134 174 221 275 334 398
#     4  10  22  40  66  96 131 174 220 275 333 398
#     4  10  21  38  63  96 128 165 220 272 324 397
#     4  11  22  39  62  94 132 174 218 268 332 398
#     4  11  22  43  67  92 127 175 223 273 333 389
#     4  11  25  42  66  94 132 175 221 277 330 394
#
# _framework density 23.417054
#
# number of rings (size 3 to 8) (size 9 to 14) (size 15 to 20)
#    0.000    1.333    0.000    6.500    0.000    6.000 
#    0.000   10.833    0.000    0.000    0.000    0.000 
#    0.000    0.000    0.000    0.000    0.000    0.000 
#
# Total GULP energy -133971.572628 kJ/mol
# GULP energy per Si atom -5582.148860 kJ/mol
# Density = 2.336376 g / cm^3
# Si number density = 23.417054 Si / 1000 Ang^3
#
#
#
# Elastic Constant Matrix: (Units=GPa)
#
#
# Indices 1 2 3 4 5 6 
#
# 1 113.0962 21.9225 35.6455 0.0000 27.3023 0.0000
# 2 21.9225 88.2414 37.6192 0.0000 12.4928 0.0000
# 3 35.6455 37.6192 83.2088 0.0000 19.6061 0.0000
# 4 0.0000 0.0000 0.0000 -46.4750 0.0000 -52.5476
# 5 27.3023 12.4928 19.6061 0.0000 37.6107 0.0000
# 6 0.0000 0.0000 0.0000 -52.5476 0.0000 -13.2633
#
#
#
# Elastic Compliance Matrix: (Units=1/GPa)
#
#
# Indices 1 2 3 4 5 6 
#
# 1 0.011521 -0.000606 -0.003122 0.000000 -0.006535 0.000000
# 2 -0.000606 0.014149 -0.005852 0.000000 -0.001209 0.000000
# 3 -0.003122 -0.005852 0.017111 0.000000 -0.004710 0.000000
# 4 0.000000 0.000000 0.000000 0.006184 0.000000 -0.024500
# 5 -0.006535 -0.001209 -0.004710 0.000000 0.034189 0.000000
# 6 0.000000 0.000000 0.000000 -0.024500 0.000000 0.021668
#
#
# Mechanical properties :
#
#
# Convention : Reuss Voigt Hill
#
# Bulk Modulus (GPa) = 42.33608 52.76901 47.55254
# Shear Modulus (GPa) = 37.92018 8.19840 23.05929
#
# Velocity S-wave (km/s) = 4.02847 1.87314 3.14143
# Velocity P-wave (km/s) = 6.30527 5.22126 5.78870
#
# Compressibility (1/GPa) = 0.02362052
#
# Stress axis : x y z
#
# Youngs Moduli (GPa) = 86.79863 70.67462 58.44245
#
# Poissons Ratio (x) = 0.04285 0.18243
# Poissons Ratio (y) = 0.05263 0.34203
# Poissons Ratio (z) = 0.27095 0.41362
#
# Static dielectric constant tensor:
#      x y z
#    x 1.868070 0.000000 0.070630 
#    y 0.000000 1.937100 0.000000 
#    z 0.070630 0.000000 1.920330 
# 
# From -- ./inp_files/79257.got.cif
#   From: 2010.05.17/outbox.cif.g08.bks.cpg/sg15_40_cif.got.tgz:79257.got - 2010.06.03 18:47:42.
