data_PCOD9281201
_publ_section_title
;
Structure prediction by ZEFSAII (Michael W. Deem and Ramdas Pophale) SiO2 
 PCOD9281201
Probable space group: C 2/C
;
_chemical_formula_sum "Si O2"
_cell_formula_units_Z 64
_cell_length_a 30.060366
_cell_length_b 14.635320
_cell_length_c 9.182862
_cell_angle_alpha 90.000000
_cell_angle_beta 131.537718
_cell_angle_gamma 90.000000
_cell_volume 3023.970697
_symmetry_space_group_name_H-M "C 2/C"
_symmetry_group_IT_number 15
_symmetry_cell_setting 'monoclinic'
loop_
_space_group_symop_operation_xyz
x,y,z
-x,y,1/2-z
-x,-y,-z
x,-y,1/2+z
1/2+x,1/2+y,z
1/2-x,1/2+y,1/2-z
1/2-x,1/2-y,-z
1/2+x,1/2-y,1/2+z
loop_
_atom_site_type_symbol
_atom_site_label
_atom_site_fract_x
_atom_site_fract_y
_atom_site_fract_z
Si Si1 0.649940 0.486271 0.849419
Si Si2 0.182585 0.781392 0.883071
Si Si3 0.901948 0.227304 0.579807
Si Si4 0.808200 0.622967 0.401127
Si Si5 0.561789 0.079350 0.327155
Si Si6 0.291911 0.325189 0.011071
Si Si7 0.934514 0.027396 0.586304
Si Si8 0.639226 0.002509 0.240704
O O1 0.682463 0.389667 0.908611
O O2 0.689102 0.574461 0.887746
O O3 0.624123 0.493667 0.955476
O O4 0.588101 0.481565 0.626450
O O5 0.136830 0.763487 0.652344
O O6 0.250000 0.750000 0.000000
O O7 0.163496 0.717474 0.978755
O O8 0.942883 0.312728 0.700452
O O9 0.853548 0.221977 0.603407
O O10 0.936050 0.132519 0.640719
O O11 0.833549 0.581050 0.304532
O O12 0.817228 0.550595 0.552487
O O13 0.741376 0.646811 0.210587
O O14 0.500000 0.039160 0.250000
O O15 0.587444 0.037715 0.235059
O O16 0.610517 0.063555 0.558756
O O17 0.250000 0.250000 0.000000
O O18 0.000000 0.986285 0.750000
#
# Coordination Sequence:
#
# PCOD9281201 Si02
#       8
#     8   8   8   8   8   8   8   8
#     4  10  25  39  65  93 131 164 216 264 324 391
#     4  11  22  40  63  90 130 174 211 257 331 395
#     4  10  21  38  59  90 122 163 212 259 320 395
#     4  11  23  41  65  92 135 173 214 275 328 405
#     4  11  21  40  63  88 124 168 214 273 326 381
#     4  11  24  40  64  98 133 168 208 265 327 398
#     4  10  21  42  65  89 119 166 212 267 322 378
#     4  10  24  39  63  94 125 167 226 266 331 389
#
# _framework density 21.164227
#
# number of rings (size 3 to 8) (size 9 to 14) (size 15 to 20)
#    0.000    1.500    2.500    1.875    3.500    0.000 
#    0.000    0.000    0.000    0.000    0.000    0.000 
#    0.000    0.000    0.000    0.000    0.000    0.000 
#
# Total GULP energy -178372.164437 kJ/mol
# GULP energy per Si atom -5574.130139 kJ/mol
# Density = 2.111606 g / cm^3
# Si number density = 21.164227 Si / 1000 Ang^3
#
#
#
# Elastic Constant Matrix: (Units=GPa)
#
#
# Indices 1 2 3 4 5 6 
#
# 1 93.0354 40.9818 21.8220 0.0000 1.0972 0.0000
# 2 40.9818 125.5993 17.7828 0.0000 -3.2315 0.0000
# 3 21.8220 17.7828 41.4258 0.0000 -7.1918 0.0000
# 4 0.0000 0.0000 0.0000 25.5999 0.0000 -2.6073
# 5 1.0972 -3.2315 -7.1918 0.0000 32.0016 0.0000
# 6 0.0000 0.0000 0.0000 -2.6073 0.0000 5.3981
#
#
#
# Elastic Compliance Matrix: (Units=1/GPa)
#
#
# Indices 1 2 3 4 5 6 
#
# 1 0.013835 -0.003710 -0.006080 0.000000 -0.002215 0.000000
# 2 -0.003710 0.009472 -0.002001 0.000000 0.000634 0.000000
# 3 -0.006080 -0.002001 0.029348 0.000000 0.006602 0.000000
# 4 0.000000 0.000000 0.000000 0.041084 0.000000 0.019844
# 5 -0.002215 0.000634 0.006602 0.000000 0.032872 0.000000
# 6 0.000000 0.000000 0.000000 0.019844 0.000000 0.194836
#
#
# Mechanical properties :
#
#
# Convention : Reuss Voigt Hill
#
# Bulk Modulus (GPa) = 34.39813 46.80374 40.60094
# Shear Modulus (GPa) = 14.09562 24.56485 19.33024
#
# Velocity S-wave (km/s) = 2.58352 3.41057 3.02544
# Velocity P-wave (km/s) = 5.01873 6.13774 5.60623
#
# Compressibility (1/GPa) = 0.02907135
#
# Stress axis : x y z
#
# Youngs Moduli (GPa) = 72.27915 105.57201 34.07440
#
# Poissons Ratio (x) = 0.39172 0.20717
# Poissons Ratio (y) = 0.26819 0.06820
# Poissons Ratio (z) = 0.43945 0.21130
#
# Static dielectric constant tensor:
#      x y z
#    x 1.803420 0.000000 -0.018250 
#    y 0.000000 1.806190 0.000000 
#    z -0.018250 0.000000 1.749450 
# 
# From -- ./inp_files/70167.got.cif
#   From: 2010.05.17/outbox.cif.g08.bks.cpg/sg15_36_cif.got.tgz:70167.got - 2010.06.03 18:47:42.
