data_PCOD9281995
_publ_section_title
;
Structure prediction by ZEFSAII (Michael W. Deem and Ramdas Pophale) SiO2 
 PCOD9281995
Probable space group: C 2/C
;
_chemical_formula_sum "Si O2"
_cell_formula_units_Z 56
_cell_length_a 11.380234
_cell_length_b 19.188721
_cell_length_c 11.664002
_cell_angle_alpha 90.000000
_cell_angle_beta 98.143850
_cell_angle_gamma 90.000000
_cell_volume 2521.406944
_symmetry_space_group_name_H-M "C 2/C"
_symmetry_group_IT_number 15
_symmetry_cell_setting 'monoclinic'
loop_
_space_group_symop_operation_xyz
x,y,z
-x,y,1/2-z
-x,-y,-z
x,-y,1/2+z
1/2+x,1/2+y,z
1/2-x,1/2+y,1/2-z
1/2-x,1/2-y,-z
1/2+x,1/2-y,1/2+z
loop_
_atom_site_type_symbol
_atom_site_label
_atom_site_fract_x
_atom_site_fract_y
_atom_site_fract_z
Si Si1 0.697283 0.563817 0.704822
Si Si2 0.066181 0.203002 0.639710
Si Si3 0.995172 0.796345 0.620544
Si Si4 0.168463 0.561525 0.553523
Si Si5 0.208625 0.094403 0.157714
Si Si6 0.726744 0.825186 0.623845
Si Si7 0.403597 0.085933 0.564421
O O1 0.605492 0.621872 0.649192
O O2 0.722943 0.566242 0.843334
O O3 0.665831 0.485101 0.665677
O O4 0.826991 0.577953 0.667812
O O5 0.995464 0.224876 0.513791
O O6 0.185277 0.249582 0.657790
O O7 0.000000 0.217676 0.750000
O O8 0.861863 0.825710 0.603123
O O9 0.000000 0.758660 0.750000
O O10 0.096998 0.854387 0.643162
O O11 0.211284 0.598932 0.444090
O O12 0.136439 0.482135 0.514334
O O13 0.044869 0.589768 0.586958
O O14 0.286546 0.119196 0.276329
O O15 0.646234 0.847531 0.507467
#
# Coordination Sequence:
#
# PCOD9281995 Si02
#       7
#     8   8   8   8   8   8   8
#     4  11  22  42  65 103 137 171 226 280 336 396
#     4  12  27  43  68 102 139 177 223 285 342 400
#     4  10  23  46  70  96 132 179 228 269 336 414
#     4  10  21  39  63 105 132 168 228 283 324 392
#     4  10  23  41  71  97 132 177 225 279 335 397
#     4  11  23  46  65  94 133 185 218 265 348 410
#     4  10  21  38  67  92 136 179 221 267 340 399
#
# _framework density 22.209821999999999
#
# number of rings (size 3 to 8) (size 9 to 14) (size 15 to 20)
#    0.000    1.429    2.857    1.714    2.000    2.286 
#    5.143    3.571    0.000    0.000    0.000    0.000 
#    0.000    0.000    0.000    0.000    0.000    0.000 
#
# Total GULP energy -156203.725424 kJ/mol
# GULP energy per Si atom -5578.704479 kJ/mol
# Density = 2.215927 g / cm^3
# Si number density = 22.209822 Si / 1000 Ang^3
#
#
#
# Elastic Constant Matrix: (Units=GPa)
#
#
# Indices 1 2 3 4 5 6 
#
# 1 52.0404 -0.1859 12.3471 0.0000 -5.8411 0.0000
# 2 -0.1859 46.6640 1.8456 0.0000 -3.2507 0.0000
# 3 12.3471 1.8456 138.1900 0.0000 -7.5575 0.0000
# 4 0.0000 0.0000 0.0000 10.0533 0.0000 1.0292
# 5 -5.8411 -3.2507 -7.5575 0.0000 33.5593 0.0000
# 6 0.0000 0.0000 0.0000 1.0292 0.0000 19.6046
#
#
#
# Elastic Compliance Matrix: (Units=1/GPa)
#
#
# Indices 1 2 3 4 5 6 
#
# 1 0.019953 0.000362 -0.001616 0.000000 0.003144 0.000000
# 2 0.000362 0.021586 -0.000205 0.000000 0.002108 0.000000
# 3 -0.001616 -0.000205 0.007459 0.000000 0.001379 0.000000
# 4 0.000000 0.000000 0.000000 0.100007 0.000000 -0.005250
# 5 0.003144 0.002108 0.001379 0.000000 0.030860 0.000000
# 6 0.000000 0.000000 0.000000 -0.005250 0.000000 0.051284
#
#
# Mechanical properties :
#
#
# Convention : Reuss Voigt Hill
#
# Bulk Modulus (GPa) = 21.70085 29.43421 25.56753
# Shear Modulus (GPa) = 20.04591 27.50261 23.77426
#
# Velocity S-wave (km/s) = 3.00754 3.52278 3.27531
# Velocity P-wave (km/s) = 4.67466 5.46152 5.08334
#
# Compressibility (1/GPa) = 0.04608115
#
# Stress axis : x y z
#
# Youngs Moduli (GPa) = 50.11685 46.32588 134.06776
#
# Poissons Ratio (x) = -0.01679 0.21661
# Poissons Ratio (y) = -0.01816 0.02754
# Poissons Ratio (z) = 0.08097 0.00952
#
# Static dielectric constant tensor:
#      x y z
#    x 1.759780 0.000000 -0.011520 
#    y 0.000000 1.815510 0.000000 
#    z -0.011520 0.000000 1.873020 
# 
# From -- ./inp_files/88975.got.cif
#   From: 2010.05.17/outbox.cif.g08.bks.cpg/sg15_45_cif.got.tgz:88975.got - 2010.06.03 18:47:42.
