data_PCOD9281286
_publ_section_title
;
Structure prediction by ZEFSAII (Michael W. Deem and Ramdas Pophale) SiO2 
 PCOD9281286
Probable space group: C 2/C
;
_chemical_formula_sum "Si O2"
_cell_formula_units_Z 48
_cell_length_a 11.703332
_cell_length_b 21.831622
_cell_length_c 13.553130
_cell_angle_alpha 90.000000
_cell_angle_beta 42.235660
_cell_angle_gamma 90.000000
_cell_volume 2327.671579
_symmetry_space_group_name_H-M "C 2/C"
_symmetry_group_IT_number 15
_symmetry_cell_setting 'monoclinic'
loop_
_space_group_symop_operation_xyz
x,y,z
-x,y,1/2-z
-x,-y,-z
x,-y,1/2+z
1/2+x,1/2+y,z
1/2-x,1/2+y,1/2-z
1/2-x,1/2-y,-z
1/2+x,1/2-y,1/2+z
loop_
_atom_site_type_symbol
_atom_site_label
_atom_site_fract_x
_atom_site_fract_y
_atom_site_fract_z
Si Si1 0.579370 0.286127 0.495745
Si Si2 0.975695 0.428038 0.522652
Si Si3 0.846311 0.618505 0.292069
Si Si4 0.135794 0.339368 0.074474
Si Si5 0.696777 0.751493 0.716271
Si Si6 0.687721 0.634581 0.597670
O O1 0.677454 0.337243 0.495745
O O2 0.632882 0.219812 0.504870
O O3 0.639136 0.288963 0.345034
O O4 0.378118 0.281492 0.626016
O O5 0.830228 0.413778 0.697787
O O6 0.919081 0.396355 0.457000
O O7 0.000000 0.500000 0.500000
O O8 0.153739 0.397710 0.447423
O O9 0.911678 0.686982 0.222530
O O10 0.709323 0.625300 0.466272
O O11 0.000000 0.584713 0.250000
O O12 0.000000 0.330251 0.250000
O O13 0.698614 0.706320 0.622385
O O14 0.500000 0.613281 0.750000
#
# Coordination Sequence:
#
# PCOD9281286 Si02
#       6
#     8   8   8   8   8   8
#     4  11  21  33  58  91 125 159 199 254 328 392
#     4  11  24  45  65  86 123 175 225 263 314 382
#     4  10  21  38  60  91 122 164 208 258 314 383
#     4  11  21  38  57  87 121 162 207 260 326 375
#     4  12  19  37  60  93 131 161 196 258 327 391
#     4  11  22  39  62  94 124 165 207 262 319 383
#
# _framework density 20.621466999999999
#
# number of rings (size 3 to 8) (size 9 to 14) (size 15 to 20)
#    0.000    1.000    5.000    3.000    0.000    2.000 
#    0.000    2.500    0.000    0.000    0.000    0.000 
#    0.000    0.000    0.000    0.000    0.000    0.000 
#
# Total GULP energy -133878.680457 kJ/mol
# GULP energy per Si atom -5578.278352 kJ/mol
# Density = 2.057453 g / cm^3
# Si number density = 20.621467 Si / 1000 Ang^3
#
#
#
# Elastic Constant Matrix: (Units=GPa)
#
#
# Indices 1 2 3 4 5 6 
#
# 1 85.3549 16.6805 28.9157 -0.0001 -8.0091 0.0001
# 2 16.6805 102.0453 26.5619 0.0000 7.4638 0.0001
# 3 28.9157 26.5619 136.4452 0.0000 17.2962 0.0001
# 4 -0.0001 0.0000 0.0000 14.3386 0.0000 -1.3336
# 5 -8.0091 7.4638 17.2962 0.0000 27.9366 -0.0001
# 6 0.0001 0.0001 0.0001 -1.3336 -0.0001 20.0526
#
#
#
# Elastic Compliance Matrix: (Units=1/GPa)
#
#
# Indices 1 2 3 4 5 6 
#
# 1 0.013850 -0.001858 -0.003407 0.000000 0.006577 0.000000
# 2 -0.001858 0.010642 -0.001356 0.000000 -0.002536 0.000000
# 3 -0.003407 -0.001356 0.009108 0.000000 -0.006253 0.000000
# 4 0.000000 0.000000 0.000000 0.070176 0.000000 0.004667
# 5 0.006577 -0.002536 -0.006253 0.000000 0.042230 0.000000
# 6 0.000000 0.000000 0.000000 0.004667 0.000000 0.050179
#
#
# Mechanical properties :
#
#
# Convention : Reuss Voigt Hill
#
# Bulk Modulus (GPa) = 49.12432 52.01796 50.57114
# Shear Modulus (GPa) = 23.12530 29.24472 26.18501
#
# Velocity S-wave (km/s) = 3.35239 3.76994 3.56728
# Velocity P-wave (km/s) = 6.23365 6.65055 6.44547
#
# Compressibility (1/GPa) = 0.02035652
#
# Stress axis : x y z
#
# Youngs Moduli (GPa) = 72.20085 93.96845 109.79704
#
# Poissons Ratio (x) = 0.17461 0.37409
# Poissons Ratio (y) = 0.13416 0.14893
# Poissons Ratio (z) = 0.24600 0.12746
#
# Static dielectric constant tensor:
#      x y z
#    x 1.883150 0.000000 -0.018500 
#    y 0.000000 1.708910 0.000000 
#    z -0.018500 0.000000 1.800290 
# 
# From -- ./inp_files/57726.got.cif
#   From: 2010.05.17/outbox.cif.g08.bks.cpg/sg15_29_cif.got.tgz:57726.got - 2010.06.03 18:47:42.
