data_PCOD9281976
_publ_section_title
;
Structure prediction by ZEFSAII (Michael W. Deem and Ramdas Pophale) SiO2 
 PCOD9281976
Probable space group: C 2/C
;
_chemical_formula_sum "Si O2"
_cell_formula_units_Z 52
_cell_length_a 8.695667
_cell_length_b 19.763584
_cell_length_c 13.702923
_cell_angle_alpha 90.000000
_cell_angle_beta 87.128247
_cell_angle_gamma 90.000000
_cell_volume 2351.993310
_symmetry_space_group_name_H-M "C 2/C"
_symmetry_group_IT_number 15
_symmetry_cell_setting 'monoclinic'
loop_
_space_group_symop_operation_xyz
x,y,z
-x,y,1/2-z
-x,-y,-z
x,-y,1/2+z
1/2+x,1/2+y,z
1/2-x,1/2+y,1/2-z
1/2-x,1/2-y,-z
1/2+x,1/2-y,1/2+z
loop_
_atom_site_type_symbol
_atom_site_label
_atom_site_fract_x
_atom_site_fract_y
_atom_site_fract_z
Si Si1 0.750824 0.342156 0.313730
Si Si2 0.134313 0.594827 0.486810
Si Si3 0.149989 0.973431 0.050392
Si Si4 0.719325 0.284097 0.604618
Si Si5 0.500000 0.442972 0.250000
Si Si6 0.625753 0.757622 0.362340
Si Si7 0.187310 0.348162 0.542518
O O1 0.847709 0.372522 0.403501
O O2 0.678813 0.267507 0.336133
O O3 0.617906 0.395591 0.303925
O O4 0.837640 0.320575 0.211365
O O5 0.204751 0.520397 0.481299
O O6 0.242533 0.639109 0.411934
O O7 0.966182 0.606321 0.446177
O O8 0.105067 0.978962 0.165802
O O9 0.187227 0.897126 0.013100
O O10 0.000000 0.000000 0.000000
O O11 0.750000 0.250000 0.500000
O O12 0.546211 0.271080 0.645400
O O13 0.740778 0.692806 0.368167
O O14 0.632210 0.790861 0.468785
#
# Coordination Sequence:
#
# PCOD9281976 Si02
#       7
#     8   8   8   8   4   8   8
#     4  11  23  40  70 101 130 174 231 286 338 403
#     4  11  24  45  70  97 142 182 228 280 347 408
#     4  12  25  47  70  98 138 186 232 282 342 418
#     4  10  21  38  66  99 134 172 213 282 345 398
#     4  12  26  42  74 100 130 188 234 286 344 422
#     4  11  22  39  68 101 135 166 229 277 343 406
#     4  11  24  40  70 100 136 179 220 284 341 408
#
# _framework density 22.108906999999999
#
# number of rings (size 3 to 8) (size 9 to 14) (size 15 to 20)
#    0.000    0.923    6.154    1.846    4.308    0.000 
#    5.538    0.000    0.000    0.000    0.000    0.000 
#    0.000    0.000    0.000    0.000    0.000    0.000 
#
# Total GULP energy -144764.511373 kJ/mol
# GULP energy per Si atom -5567.865822 kJ/mol
# Density = 2.205859 g / cm^3
# Si number density = 22.108907 Si / 1000 Ang^3
#
#
#
# Elastic Constant Matrix: (Units=GPa)
#
#
# Indices 1 2 3 4 5 6 
#
# 1 102.8182 27.7888 15.9426 0.0000 -5.4314 0.0000
# 2 27.7888 87.3875 16.3596 0.0000 -4.6062 0.0000
# 3 15.9426 16.3596 71.3243 0.0000 -15.6226 0.0000
# 4 0.0000 0.0000 0.0000 25.0894 0.0000 -22.3167
# 5 -5.4314 -4.6062 -15.6226 0.0000 25.4032 0.0000
# 6 0.0000 0.0000 0.0000 -22.3167 0.0000 32.0444
#
#
#
# Elastic Compliance Matrix: (Units=1/GPa)
#
#
# Indices 1 2 3 4 5 6 
#
# 1 0.010850 -0.003121 -0.001532 0.000000 0.000812 0.000000
# 2 -0.003121 0.012861 -0.002182 0.000000 0.000323 0.000000
# 3 -0.001532 -0.002182 0.016994 0.000000 0.009728 0.000000
# 4 0.000000 0.000000 0.000000 0.104741 0.000000 0.072944
# 5 0.000812 0.000323 0.009728 0.000000 0.045580 0.000000
# 6 0.000000 0.000000 0.000000 0.072944 0.000000 0.082007
#
#
# Mechanical properties :
#
#
# Convention : Reuss Voigt Hill
#
# Bulk Modulus (GPa) = 36.98610 42.41245 39.69927
# Shear Modulus (GPa) = 16.90832 29.93667 23.42250
#
# Velocity S-wave (km/s) = 2.76846 3.68374 3.25840
# Velocity P-wave (km/s) = 5.19466 6.10887 5.67022
#
# Compressibility (1/GPa) = 0.02703718
#
# Stress axis : x y z
#
# Youngs Moduli (GPa) = 92.16850 77.75397 58.84445
#
# Poissons Ratio (x) = 0.24264 0.09012
# Poissons Ratio (y) = 0.28762 0.12838
# Poissons Ratio (z) = 0.14116 0.16963
#
# Static dielectric constant tensor:
#      x y z
#    x 1.878350 0.000000 -0.048160 
#    y 0.000000 1.928050 0.000000 
#    z -0.048160 0.000000 2.039090 
# 
# From -- ./inp_files/135998.got.cif
#   From: 2010.05.17/outbox.cif.g08.bks.cpg/sg15_68_cif.got.tgz:135998.got - 2010.06.03 18:47:42.
