data_PCOD9281737
_publ_section_title
;
Structure prediction by ZEFSAII (Michael W. Deem and Ramdas Pophale) SiO2 
 PCOD9281737
Probable space group: C 2/C
;
_chemical_formula_sum "Si O2"
_cell_formula_units_Z 36
_cell_length_a 9.421627
_cell_length_b 28.943322
_cell_length_c 9.301905
_cell_angle_alpha 90.000000
_cell_angle_beta 46.210917
_cell_angle_gamma 90.000000
_cell_volume 1831.127008
_symmetry_space_group_name_H-M "C 2/C"
_symmetry_group_IT_number 15
_symmetry_cell_setting 'monoclinic'
loop_
_space_group_symop_operation_xyz
x,y,z
-x,y,1/2-z
-x,-y,-z
x,-y,1/2+z
1/2+x,1/2+y,z
1/2-x,1/2+y,1/2-z
1/2-x,1/2-y,-z
1/2+x,1/2-y,1/2+z
loop_
_atom_site_type_symbol
_atom_site_label
_atom_site_fract_x
_atom_site_fract_y
_atom_site_fract_z
Si Si1 0.390504 0.437699 0.095617
Si Si2 0.000000 0.008482 0.250000
Si Si3 0.060137 0.639858 0.866002
Si Si4 0.224626 0.803542 0.052537
Si Si5 0.812351 0.389079 0.792624
O O1 0.373788 0.475845 0.232642
O O2 0.233642 0.397725 0.230188
O O3 0.375627 0.460927 0.949118
O O4 0.613087 0.417710 0.948830
O O5 0.141388 0.680967 0.907894
O O6 0.000000 0.654791 0.750000
O O7 0.881812 0.617226 0.080628
O O8 0.000000 0.812363 0.250000
O O9 0.250000 0.750000 0.000000
O O10 0.275850 0.838496 0.887592
O O11 0.000000 0.408627 0.750000
#
# Coordination Sequence:
#
# PCOD9281737 Si02
#       5
#     8   4   8   8   8
#     4  11  21  42  58  89 129 164 209 261 320 352
#     4  10  22  36  64  86 122 170 212 260 304 384
#     4  11  23  40  65  94 125 167 209 257 319 364
#     4  11  21  41  65  93 123 163 209 255 301 381
#     4  10  21  38  64  89 120 171 211 248 319 380
#
# _framework density 19.660024
#
# number of rings (size 3 to 8) (size 9 to 14) (size 15 to 20)
#    0.000    1.333    2.222    6.000    0.000    0.000 
#    0.000   26.667    0.000    0.000    0.000    0.000 
#    0.000    0.000    0.000    0.000    0.000    0.000 
#
# Total GULP energy -100588.196845 kJ/mol
# GULP energy per Si atom -5588.233158 kJ/mol
# Density = 1.961528 g / cm^3
# Si number density = 19.660024 Si / 1000 Ang^3
#
#
#
# Elastic Constant Matrix: (Units=GPa)
#
#
# Indices 1 2 3 4 5 6 
#
# 1 74.5898 52.8220 57.5399 0.0000 16.9279 0.0000
# 2 52.8220 113.6507 46.1231 0.0000 11.3120 0.0000
# 3 57.5399 46.1231 130.4762 0.0000 10.2260 0.0000
# 4 0.0000 0.0000 0.0000 27.1260 0.0000 14.7819
# 5 16.9279 11.3120 10.2260 0.0000 48.1987 0.0000
# 6 0.0000 0.0000 0.0000 14.7819 0.0000 11.7192
#
#
#
# Elastic Compliance Matrix: (Units=1/GPa)
#
#
# Indices 1 2 3 4 5 6 
#
# 1 0.027546 -0.008733 -0.008606 0.000000 -0.005799 0.000000
# 2 -0.008733 0.013175 -0.000818 0.000000 0.000148 0.000000
# 3 -0.008606 -0.000818 0.011691 0.000000 0.000734 0.000000
# 4 0.000000 0.000000 0.000000 0.117912 0.000000 -0.148728
# 5 -0.005799 0.000148 0.000734 0.000000 0.022594 0.000000
# 6 0.000000 0.000000 0.000000 -0.148728 0.000000 0.272928
#
#
# Mechanical properties :
#
#
# Convention : Reuss Voigt Hill
#
# Bulk Modulus (GPa) = 62.11832 70.18741 66.15286
# Shear Modulus (GPa) = 9.85171 28.22422 19.03797
#
# Velocity S-wave (km/s) = 2.24096 3.79306 3.11522
# Velocity P-wave (km/s) = 6.19360 7.41358 6.83088
#
# Compressibility (1/GPa) = 0.01609831
#
# Stress axis : x y z
#
# Youngs Moduli (GPa) = 36.30285 75.90265 85.53501
#
# Poissons Ratio (x) = 0.66284 0.73614
# Poissons Ratio (y) = 0.31703 0.06994
# Poissons Ratio (z) = 0.31243 0.06207
#
# Static dielectric constant tensor:
#      x y z
#    x 1.687030 0.000000 -0.000420 
#    y 0.000000 1.687390 0.000000 
#    z -0.000420 0.000000 1.704420 
# 
# From -- ./inp_files/24693.got.cif
#   From: 2010.05.17/outbox.cif.g08.bks.cpg/sg15_13_cif.got.tgz:24693.got - 2010.06.03 18:47:42.
