data_PCOD9281105
_publ_section_title
;
Structure prediction by ZEFSAII (Michael W. Deem and Ramdas Pophale) SiO2 
 PCOD9281105
Probable space group: C 2/C
;
_chemical_formula_sum "Si O2"
_cell_formula_units_Z 40
_cell_length_a 18.436973
_cell_length_b 10.926584
_cell_length_c 8.902977
_cell_angle_alpha 90.000000
_cell_angle_beta 76.016580
_cell_angle_gamma 90.000000
_cell_volume 1740.382522
_symmetry_space_group_name_H-M "C 2/C"
_symmetry_group_IT_number 15
_symmetry_cell_setting 'monoclinic'
loop_
_space_group_symop_operation_xyz
x,y,z
-x,y,1/2-z
-x,-y,-z
x,-y,1/2+z
1/2+x,1/2+y,z
1/2-x,1/2+y,1/2-z
1/2-x,1/2-y,-z
1/2+x,1/2-y,1/2+z
loop_
_atom_site_type_symbol
_atom_site_label
_atom_site_fract_x
_atom_site_fract_y
_atom_site_fract_z
Si Si1 0.852760 0.693208 0.472418
Si Si2 0.525885 0.337915 0.976714
Si Si3 0.909665 0.947305 0.864916
Si Si4 0.737955 0.055322 0.502198
Si Si5 0.227403 0.762410 0.263906
O O1 0.935846 0.711729 0.493971
O O2 0.818924 0.557238 0.473867
O O3 0.840999 0.756188 0.316904
O O4 0.798111 0.762146 0.618471
O O5 0.439364 0.346223 0.971949
O O6 0.567073 0.391873 0.806691
O O7 0.547637 0.433001 0.096023
O O8 0.822742 0.975108 0.913930
O O9 0.749013 0.114485 0.661272
O O10 0.715306 0.161167 0.397226
#
# Coordination Sequence:
#
# PCOD9281105 Si02
#       5
#     8   8   8   8   8
#     4  11  21  37  59  91 122 163 204 263 314 370
#     4  10  22  37  58  87 122 168 205 253 318 374
#     4  10  21  38  58  85 123 163 208 257 310 375
#     4  11  22  37  61  90 125 157 207 264 313 367
#     4  10  22  36  56  89 123 162 199 263 315 372
#
# _framework density 22.983453000000001
#
# number of rings (size 3 to 8) (size 9 to 14) (size 15 to 20)
#    0.000    1.600    2.000    3.600    5.600    0.000 
#    0.000    0.000    0.000    4.800    0.000    0.000 
#    0.000    0.200    0.000    0.000    0.000    0.000 
#
# Total GULP energy -111683.072202 kJ/mol
# GULP energy per Si atom -5584.153610 kJ/mol
# Density = 2.293114 g / cm^3
# Si number density = 22.983453 Si / 1000 Ang^3
#
#
#
# Elastic Constant Matrix: (Units=GPa)
#
#
# Indices 1 2 3 4 5 6 
#
# 1 81.5456 61.4639 18.9459 0.0000 26.6357 0.0000
# 2 61.4639 121.5407 40.7526 0.0000 22.8612 0.0000
# 3 18.9459 40.7526 126.3568 0.0000 26.0279 0.0000
# 4 0.0000 0.0000 0.0000 27.9304 0.0000 11.4437
# 5 26.6357 22.8612 26.0279 0.0000 27.1231 0.0000
# 6 0.0000 0.0000 0.0000 11.4437 0.0000 44.9780
#
#
#
# Elastic Compliance Matrix: (Units=1/GPa)
#
#
# Indices 1 2 3 4 5 6 
#
# 1 0.025931 -0.010564 0.003652 0.000000 -0.020066 0.000000
# 2 -0.010564 0.014427 -0.003367 0.000000 0.001445 0.000000
# 3 0.003652 -0.003367 0.010727 0.000000 -0.011043 0.000000
# 4 0.000000 0.000000 0.000000 0.039970 0.000000 -0.010169
# 5 -0.020066 0.001445 -0.011043 0.000000 0.065954 0.000000
# 6 0.000000 0.000000 0.000000 -0.010169 0.000000 0.024821
#
#
# Mechanical properties :
#
#
# Convention : Reuss Voigt Hill
#
# Bulk Modulus (GPa) = 32.75594 63.52976 48.14285
# Shear Modulus (GPa) = 23.52256 33.89168 28.70712
#
# Velocity S-wave (km/s) = 3.20262 3.84423 3.53800
# Velocity P-wave (km/s) = 5.28759 6.88518 6.13858
#
# Compressibility (1/GPa) = 0.03052881
#
# Stress axis : x y z
#
# Youngs Moduli (GPa) = 38.56362 69.31454 93.22304
#
# Poissons Ratio (x) = 0.73223 -0.34048
# Poissons Ratio (y) = 0.40738 0.31385
# Poissons Ratio (z) = -0.14085 0.23336
#
# Static dielectric constant tensor:
#      x y z
#    x 1.916800 0.000000 -0.018510 
#    y 0.000000 1.931790 0.000000 
#    z -0.018510 0.000000 1.898330 
# 
# From -- ./inp_files/54111.got.cif
#   From: 2010.05.17/outbox.cif.g08.bks.cpg/sg15_28_cif.got.tgz:54111.got - 2010.06.03 18:47:42.
