data_PCOD9281073
_publ_section_title
;
Structure prediction by ZEFSAII (Michael W. Deem and Ramdas Pophale) SiO2 
 PCOD9281073
Probable space group: C 2/C
;
_chemical_formula_sum "Si O2"
_cell_formula_units_Z 48
_cell_length_a 6.902569
_cell_length_b 27.313871
_cell_length_c 16.913460
_cell_angle_alpha 90.000000
_cell_angle_beta 36.611492
_cell_angle_gamma 90.000000
_cell_volume 1901.751768
_symmetry_space_group_name_H-M "C 2/C"
_symmetry_group_IT_number 15
_symmetry_cell_setting 'monoclinic'
loop_
_space_group_symop_operation_xyz
x,y,z
-x,y,1/2-z
-x,-y,-z
x,-y,1/2+z
1/2+x,1/2+y,z
1/2-x,1/2+y,1/2-z
1/2-x,1/2-y,-z
1/2+x,1/2-y,1/2+z
loop_
_atom_site_type_symbol
_atom_site_label
_atom_site_fract_x
_atom_site_fract_y
_atom_site_fract_z
Si Si1 0.691758 0.532419 0.269762
Si Si2 0.691052 0.778256 0.897720
Si Si3 0.356644 0.698799 0.102428
Si Si4 0.326993 0.601571 0.485180
Si Si5 0.189266 0.079847 0.771353
Si Si6 0.949374 0.616401 0.439826
O O1 0.500000 0.526729 0.250000
O O2 0.497021 0.549848 0.411413
O O3 0.782502 0.476496 0.256075
O O4 0.919556 0.578016 0.168464
O O5 0.542428 0.825746 0.900950
O O6 0.000000 0.757732 0.750000
O O7 0.861972 0.794705 0.923364
O O8 0.450785 0.735574 0.001950
O O9 0.402875 0.640883 0.077478
O O10 0.000000 0.711542 0.250000
O O11 0.032268 0.605648 0.643286
O O12 0.159935 0.607379 0.452397
O O13 0.000000 0.081913 0.750000
O O14 0.920842 0.102950 0.916939
#
# Coordination Sequence:
#
# PCOD9281073 Si02
#       6
#     8   8   8   8   8   8
#     4   9  15  26  46  75 108 139 175 220 270 318
#     4  10  21  38  58  81 108 141 186 233 273 323
#     4  10  22  38  57  80 108 145 184 225 277 328
#     4   9  17  30  46  69 105 139 171 215 266 323
#     4   9  16  25  45  76 107 139 174 218 270 319
#     4   9  16  27  46  74 107 137 169 217 272 319
#
# _framework density 25.239888000000001
#
# number of rings (size 3 to 8) (size 9 to 14) (size 15 to 20)
#    0.000    2.667    0.000    3.500    0.000    9.333 
#    0.000    1.667    0.000    3.000    0.000    0.000 
#    0.000    0.000    0.000    0.000    0.000    0.000 
#
# Total GULP energy -133962.733643 kJ/mol
# GULP energy per Si atom -5581.780568 kJ/mol
# Density = 2.518244 g / cm^3
# Si number density = 25.239888 Si / 1000 Ang^3
#
#
#
# Elastic Constant Matrix: (Units=GPa)
#
#
# Indices 1 2 3 4 5 6 
#
# 1 97.1207 21.5789 4.5982 0.0000 -15.7364 0.0000
# 2 21.5789 81.4936 55.3744 0.0000 -12.7763 0.0000
# 3 4.5982 55.3744 174.8238 0.0000 -5.2382 0.0003
# 4 0.0000 0.0000 0.0000 24.8191 0.0000 9.3929
# 5 -15.7364 -12.7763 -5.2382 0.0000 35.8255 0.0000
# 6 0.0000 0.0000 0.0003 9.3929 0.0000 -74.0132
#
#
#
# Elastic Compliance Matrix: (Units=1/GPa)
#
#
# Indices 1 2 3 4 5 6 
#
# 1 0.011584 -0.002922 0.000745 0.000000 0.004155 0.000000
# 2 -0.002922 0.017269 -0.005270 0.000000 0.004104 0.000000
# 3 0.000745 -0.005270 0.007355 0.000000 -0.000477 0.000000
# 4 0.000000 0.000000 0.000000 0.038445 0.000000 0.004879
# 5 0.004155 0.004104 -0.000477 0.000000 0.031132 0.000000
# 6 0.000000 0.000000 0.000000 0.004879 0.000000 -0.012892
#
#
# Mechanical properties :
#
#
# Convention : Reuss Voigt Hill
#
# Bulk Modulus (GPa) = 46.91687 57.39344 52.15515
# Shear Modulus (GPa) = 43.51896 15.45206 29.48551
#
# Velocity S-wave (km/s) = 4.15687 2.47697 3.42162
# Velocity P-wave (km/s) = 6.45509 5.56498 6.02649
#
# Compressibility (1/GPa) = 0.02131430
#
# Stress axis : x y z
#
# Youngs Moduli (GPa) = 86.32810 57.90658 135.95412
#
# Poissons Ratio (x) = 0.16923 -0.10135
# Poissons Ratio (y) = 0.25229 0.71649
# Poissons Ratio (z) = -0.06436 0.30517
#
# Static dielectric constant tensor:
#      x y z
#    x 2.197120 0.000000 0.020780 
#    y 0.000000 1.973750 0.000000 
#    z 0.020780 0.000000 1.952670 
# 
# From -- ./inp_files/293932.got.cif
#   From: 2010.05.17/outbox.cif.g08.bks.cpg/sg15_147_cif.got.tgz:293932.got - 2010.06.03 18:47:42.
