data_PCOD9281294
_publ_section_title
;
Structure prediction by ZEFSAII (Michael W. Deem and Ramdas Pophale) SiO2 
 PCOD9281294
Probable space group: C 2/C
;
_chemical_formula_sum "Si O2"
_cell_formula_units_Z 60
_cell_length_a 15.097789
_cell_length_b 21.410731
_cell_length_c 20.682125
_cell_angle_alpha 90.000000
_cell_angle_beta 153.527037
_cell_angle_gamma 90.000000
_cell_volume 2980.273766
_symmetry_space_group_name_H-M "C 2/C"
_symmetry_group_IT_number 15
_symmetry_cell_setting 'monoclinic'
loop_
_space_group_symop_operation_xyz
x,y,z
-x,y,1/2-z
-x,-y,-z
x,-y,1/2+z
1/2+x,1/2+y,z
1/2-x,1/2+y,1/2-z
1/2-x,1/2-y,-z
1/2+x,1/2-y,1/2+z
loop_
_atom_site_type_symbol
_atom_site_label
_atom_site_fract_x
_atom_site_fract_y
_atom_site_fract_z
Si Si1 0.897803 0.685380 0.751920
Si Si2 0.653746 0.058814 0.706885
Si Si3 0.101258 0.375556 0.044408
Si Si4 0.653692 0.039390 0.302896
Si Si5 0.512702 0.755376 0.453725
Si Si6 0.695163 0.375210 0.702256
Si Si7 0.000000 0.937757 0.250000
Si Si8 0.033036 0.013449 0.400628
O O1 0.825014 0.620493 0.735891
O O2 0.716476 0.732846 0.619780
O O3 0.038758 0.714440 0.899582
O O4 0.000000 0.673909 0.750000
O O5 0.555866 0.078030 0.575123
O O6 0.862839 0.028538 0.823672
O O7 0.552774 0.004357 0.682635
O O8 0.098912 0.306907 0.075443
O O9 0.309995 0.396562 0.149100
O O10 0.916952 0.377126 0.875517
O O11 0.500000 0.072085 0.250000
O O12 0.792365 0.088358 0.357420
O O13 0.779468 0.993363 0.430406
O O14 0.382930 0.693690 0.358872
O O15 0.550545 0.416277 0.653328
O O16 0.938754 0.982260 0.150409
#
# Coordination Sequence:
#
# PCOD9281294 Si02
#       8
#     8   8   8   8   8   8   4   8
#     4  11  21  37  60  86 117 158 206 255 301 370
#     4   9  20  36  60  81 121 156 195 248 318 368
#     4  10  22  41  63  90 121 172 204 253 316 368
#     4  11  21  35  59  91 122 157 203 256 308 372
#     4  11  22  41  60  86 126 167 207 253 311 368
#     4  11  22  40  62  87 124 164 209 252 315 379
#     4  10  22  42  64  94 128 154 212 264 302 380
#     4  10  21  38  60  92 120 163 200 258 318 368
#
# _framework density 20.132379
#
# number of rings (size 3 to 8) (size 9 to 14) (size 15 to 20)
#    0.000    1.600    1.333    4.800    0.000    5.867 
#    2.400    0.667    0.000    0.000    0.000    0.000 
#    0.000    0.000    0.000    0.000    0.000    0.000 
#
# Total GULP energy -167492.536028 kJ/mol
# GULP energy per Si atom -5583.084534 kJ/mol
# Density = 2.008656 g / cm^3
# Si number density = 20.132379 Si / 1000 Ang^3
#
#
#
# Elastic Constant Matrix: (Units=GPa)
#
#
# Indices 1 2 3 4 5 6 
#
# 1 109.9190 34.1205 11.7879 -0.0091 -10.1272 0.0029
# 2 34.1205 94.7280 6.0089 0.0093 -10.4266 -0.0009
# 3 11.7879 6.0089 60.6546 0.0142 -9.4451 -0.0006
# 4 -0.0091 0.0093 0.0142 25.3556 -0.0053 -5.8374
# 5 -10.1272 -10.4266 -9.4451 -0.0053 19.3346 -0.0004
# 6 0.0029 -0.0009 -0.0006 -5.8374 -0.0004 12.0030
#
#
#
# Elastic Compliance Matrix: (Units=1/GPa)
#
#
# Indices 1 2 3 4 5 6 
#
# 1 0.010567 -0.003386 -0.001235 0.000006 0.003106 0.000000
# 2 -0.003386 0.012310 0.000212 -0.000005 0.004968 0.000000
# 3 -0.001235 0.000212 0.017991 -0.000010 0.008257 -0.000003
# 4 0.000006 -0.000005 -0.000010 0.044412 0.000009 0.021599
# 5 0.003106 0.004968 0.008257 0.000009 0.060060 0.000006
# 6 0.000000 0.000000 -0.000003 0.021599 0.000006 0.093817
#
#
# Mechanical properties :
#
#
# Convention : Reuss Voigt Hill
#
# Bulk Modulus (GPa) = 31.19989 41.01512 36.10751
# Shear Modulus (GPa) = 19.33057 25.56426 22.44741
#
# Velocity S-wave (km/s) = 3.10203 3.56730 3.34277
# Velocity P-wave (km/s) = 5.32552 6.11428 5.73348
#
# Compressibility (1/GPa) = 0.03205139
#
# Stress axis : x y z
#
# Youngs Moduli (GPa) = 94.63198 81.23755 55.58201
#
# Poissons Ratio (x) = 0.27508 0.06862
# Poissons Ratio (y) = 0.32043 -0.01180
# Poissons Ratio (z) = 0.11683 -0.01724
#
# Static dielectric constant tensor:
#      x y z
#    x 1.732040 0.000000 -0.010940 
#    y 0.000000 1.695140 0.000000 
#    z -0.010940 0.000000 1.715070 
# 
# From -- ./inp_files/245469.got.cif
#   From: 2010.05.17/outbox.cif.g08.bks.cpg/sg15_123_cif.got.tgz:245469.got - 2010.06.03 18:47:42.
