data_PCOD9281545
_publ_section_title
;
Structure prediction by ZEFSAII (Michael W. Deem and Ramdas Pophale) SiO2 
 PCOD9281545
Probable space group: C 2/C
;
_chemical_formula_sum "Si O2"
_cell_formula_units_Z 40
_cell_length_a 9.434108
_cell_length_b 16.848901
_cell_length_c 13.287285
_cell_angle_alpha 90.000000
_cell_angle_beta 134.790518
_cell_angle_gamma 90.000000
_cell_volume 1498.910595
_symmetry_space_group_name_H-M "C 2/C"
_symmetry_group_IT_number 15
_symmetry_cell_setting 'monoclinic'
loop_
_space_group_symop_operation_xyz
x,y,z
-x,y,1/2-z
-x,-y,-z
x,-y,1/2+z
1/2+x,1/2+y,z
1/2-x,1/2+y,1/2-z
1/2-x,1/2-y,-z
1/2+x,1/2-y,1/2+z
loop_
_atom_site_type_symbol
_atom_site_label
_atom_site_fract_x
_atom_site_fract_y
_atom_site_fract_z
Si Si1 0.178645 0.073803 0.892147
Si Si2 0.788713 0.077155 0.292981
Si Si3 0.941210 0.650637 0.508534
Si Si4 0.241578 0.555230 0.922950
Si Si5 0.621335 0.300288 0.513805
O O1 0.051720 0.131535 0.901926
O O2 0.000000 0.027330 0.750000
O O3 0.336568 0.118725 0.903217
O O4 0.306816 0.016812 0.025268
O O5 0.705706 0.103889 0.143115
O O6 0.736563 0.153779 0.336618
O O7 0.026888 0.075014 0.436705
O O8 0.719781 0.992365 0.306499
O O9 0.878653 0.629100 0.590854
O O10 0.962416 0.743294 0.488630
O O11 0.750000 0.250000 0.500000
#
# Coordination Sequence:
#
# PCOD9281545 Si02
#       5
#     8   8   8   8   8
#     4  10  21  38  62  93 131 168 219 271 320 391
#     4  10  22  42  66  93 135 169 219 273 332 392
#     4  11  22  38  69  94 129 176 219 267 335 394
#     4  10  22  41  64  97 127 172 218 276 329 393
#     4   9  22  36  59  93 123 169 216 264 318 389
#
# _framework density 26.686048
#
# number of rings (size 3 to 8) (size 9 to 14) (size 15 to 20)
#    0.000    2.000    0.000    2.400    5.600    7.200 
#    0.000    4.000    0.000    0.000    0.000    0.000 
#    0.000    0.000    0.000    0.000    0.000    0.000 
#
# Total GULP energy -111609.996017 kJ/mol
# GULP energy per Si atom -5580.499801 kJ/mol
# Density = 2.662531 g / cm^3
# Si number density = 26.686048 Si / 1000 Ang^3
#
#
#
# Elastic Constant Matrix: (Units=GPa)
#
#
# Indices 1 2 3 4 5 6 
#
# 1 115.1701 64.2858 36.6624 -0.0001 -1.2364 0.0000
# 2 64.2858 130.7316 34.1610 -0.0001 -13.2661 0.0000
# 3 36.6624 34.1610 148.3734 -0.0004 4.4306 -0.0002
# 4 -0.0001 -0.0001 -0.0004 24.6889 -0.0002 -9.5947
# 5 -1.2364 -13.2661 4.4306 -0.0002 35.7633 -0.0001
# 6 0.0000 0.0000 -0.0002 -9.5947 -0.0001 68.9194
#
#
#
# Elastic Compliance Matrix: (Units=1/GPa)
#
#
# Indices 1 2 3 4 5 6 
#
# 1 0.012466 -0.005844 -0.001689 0.000000 -0.001527 0.000000
# 2 -0.005844 0.011276 -0.001276 0.000000 0.004139 0.000000
# 3 -0.001689 -0.001276 0.007495 0.000000 -0.001460 0.000000
# 4 0.000000 0.000000 0.000000 0.042821 0.000000 0.005961
# 5 -0.001527 0.004139 -0.001460 0.000000 0.029625 0.000000
# 6 0.000000 0.000000 0.000000 0.005961 0.000000 0.015340
#
#
# Mechanical properties :
#
#
# Convention : Reuss Voigt Hill
#
# Bulk Modulus (GPa) = 73.42558 73.83260 73.62909
# Shear Modulus (GPa) = 35.41604 43.15205 39.28404
#
# Velocity S-wave (km/s) = 3.64694 4.02559 3.84093
# Velocity P-wave (km/s) = 6.73111 7.02384 6.87903
#
# Compressibility (1/GPa) = 0.01361923
#
# Stress axis : x y z
#
# Youngs Moduli (GPa) = 80.21868 88.68275 133.43100
#
# Poissons Ratio (x) = 0.51822 0.22540
# Poissons Ratio (y) = 0.46876 0.17024
# Poissons Ratio (z) = 0.13551 0.11315
#
# Static dielectric constant tensor:
#      x y z
#    x 2.258370 0.000000 -0.102750 
#    y 0.000000 2.203720 0.000000 
#    z -0.102750 0.000000 2.182000 
# 
# From -- ./inp_files/136312.got.cif
#   From: 2010.05.17/outbox.cif.g08.bks.cpg/sg15_69_cif.got.tgz:136312.got - 2010.06.03 18:47:42.
