data_PCOD9281335
_publ_section_title
;
Structure prediction by ZEFSAII (Michael W. Deem and Ramdas Pophale) SiO2 
 PCOD9281335
Probable space group: C 2/C
;
_chemical_formula_sum "Si O2"
_cell_formula_units_Z 56
_cell_length_a 15.748325
_cell_length_b 21.031483
_cell_length_c 18.918956
_cell_angle_alpha 90.000000
_cell_angle_beta 150.707987
_cell_angle_gamma 90.000000
_cell_volume 3065.786633
_symmetry_space_group_name_H-M "C 2/C"
_symmetry_group_IT_number 15
_symmetry_cell_setting 'monoclinic'
loop_
_space_group_symop_operation_xyz
x,y,z
-x,y,1/2-z
-x,-y,-z
x,-y,1/2+z
1/2+x,1/2+y,z
1/2-x,1/2+y,1/2-z
1/2-x,1/2-y,-z
1/2+x,1/2-y,1/2+z
loop_
_atom_site_type_symbol
_atom_site_label
_atom_site_fract_x
_atom_site_fract_y
_atom_site_fract_z
Si Si1 0.799465 0.949670 0.618219
Si Si2 0.356834 0.843702 0.092528
Si Si3 0.435949 0.944585 0.624533
Si Si4 0.117843 0.700046 0.118146
Si Si5 0.974486 0.223722 0.087604
Si Si6 0.386237 0.943815 0.884141
Si Si7 0.411026 0.796887 0.609955
O O1 0.697674 0.889947 0.510496
O O2 0.782767 0.950970 0.691005
O O3 0.000000 0.944494 0.750000
O O4 0.709373 0.009300 0.513660
O O5 0.500000 0.871633 0.250000
O O6 0.444562 0.780504 0.122782
O O7 0.178819 0.825287 0.003775
O O8 0.500000 0.958926 0.750000
O O9 0.600320 0.950014 0.690139
O O10 0.368329 0.872005 0.571857
O O11 0.328123 0.699042 0.268037
O O12 0.050964 0.628211 0.055965
O O13 0.038220 0.719112 0.136439
O O14 0.058012 0.746901 0.013148
O O15 0.500000 0.000000 0.000000
O O16 0.500000 0.791458 0.750000
O O17 0.250000 0.750000 0.500000
#
# Coordination Sequence:
#
# PCOD9281335 Si02
#       7
#     8   8   8   8   8   8   8
#     4  11  21  36  60  87 117 155 194 237 287 351
#     4  11  22  35  53  82 123 154 191 228 279 344
#     4   9  20  39  61  80 113 154 195 242 295 345
#     4  11  20  37  58  84 119 153 196 239 293 350
#     4  11  22  34  54  86 117 157 190 232 282 342
#     4   9  19  36  59  83 109 152 196 232 286 348
#     4  10  21  38  61  86 113 150 193 252 301 344
#
# _framework density 18.266110999999999
#
# number of rings (size 3 to 8) (size 9 to 14) (size 15 to 20)
#    0.000    1.714    2.857    2.143    0.000    0.571 
#    0.000    2.143    0.000    0.000    0.000    0.000 
#    0.000    0.000    0.000    0.000    0.000    0.000 
#
# Total GULP energy -155981.514819 kJ/mol
# GULP energy per Si atom -5570.768386 kJ/mol
# Density = 1.822454 g / cm^3
# Si number density = 18.266111 Si / 1000 Ang^3
#
#
#
# Elastic Constant Matrix: (Units=GPa)
#
#
# Indices 1 2 3 4 5 6 
#
# 1 154.9873 32.6907 37.1729 -0.0033 -5.7919 -0.0001
# 2 32.6907 77.0250 37.6534 -0.0079 1.5505 -0.0017
# 3 37.1729 37.6534 70.3761 -0.0047 3.8926 -0.0020
# 4 -0.0033 -0.0079 -0.0047 13.0863 -0.0035 0.1595
# 5 -5.7919 1.5505 3.8926 -0.0035 35.1523 -0.0007
# 6 -0.0001 -0.0017 -0.0020 0.1595 -0.0007 23.3282
#
#
#
# Elastic Compliance Matrix: (Units=1/GPa)
#
#
# Indices 1 2 3 4 5 6 
#
# 1 0.007648 -0.001705 -0.003221 0.000000 0.001692 0.000000
# 2 -0.001705 0.017964 -0.008704 0.000007 -0.000109 0.000001
# 3 -0.003221 -0.008704 0.020703 0.000001 -0.002439 0.000001
# 4 0.000000 0.000007 0.000001 0.076422 0.000007 -0.000523
# 5 0.001692 -0.000109 -0.002439 0.000007 0.029001 0.000001
# 6 0.000000 0.000001 0.000001 -0.000523 0.000001 0.042870
#
#
# Mechanical properties :
#
#
# Convention : Reuss Voigt Hill
#
# Bulk Modulus (GPa) = 52.48466 57.49138 54.98802
# Shear Modulus (GPa) = 21.90872 27.30477 24.60674
#
# Velocity S-wave (km/s) = 3.46702 3.87050 3.67430
# Velocity P-wave (km/s) = 6.69498 7.17754 6.94045
#
# Compressibility (1/GPa) = 0.01905319
#
# Stress axis : x y z
#
# Youngs Moduli (GPa) = 130.76130 55.66708 48.30327
#
# Poissons Ratio (x) = 0.09494 0.15556
# Poissons Ratio (y) = 0.22300 0.42045
# Poissons Ratio (z) = 0.42113 0.48455
#
# Static dielectric constant tensor:
#      x y z
#    x 1.662690 -0.000010 -0.000920 
#    y -0.000010 1.678020 -0.000010 
#    z -0.000920 -0.000010 1.578890 
# 
# From -- ./inp_files/206994.got.cif
#   From: 2010.05.17/outbox.cif.g08.bks.cpg/sg15_104_cif.got.tgz:206994.got - 2010.06.03 18:47:42.
