data_PCOD9281125
_publ_section_title
;
Structure prediction by ZEFSAII (Michael W. Deem and Ramdas Pophale) SiO2 
 PCOD9281125
Probable space group: C 2/C
;
_chemical_formula_sum "Si O2"
_cell_formula_units_Z 56
_cell_length_a 17.739047
_cell_length_b 9.670168
_cell_length_c 13.198922
_cell_angle_alpha 90.000000
_cell_angle_beta 81.386054
_cell_angle_gamma 90.000000
_cell_volume 2238.597761
_symmetry_space_group_name_H-M "C 2/C"
_symmetry_group_IT_number 15
_symmetry_cell_setting 'monoclinic'
loop_
_space_group_symop_operation_xyz
x,y,z
-x,y,1/2-z
-x,-y,-z
x,-y,1/2+z
1/2+x,1/2+y,z
1/2-x,1/2+y,1/2-z
1/2-x,1/2-y,-z
1/2+x,1/2-y,1/2+z
loop_
_atom_site_type_symbol
_atom_site_label
_atom_site_fract_x
_atom_site_fract_y
_atom_site_fract_z
Si Si1 0.854128 0.309064 0.062888
Si Si2 0.197634 0.129954 0.902802
Si Si3 0.359022 0.133817 0.775612
Si Si4 0.808539 0.084563 0.930502
Si Si5 0.396906 0.116883 0.992620
Si Si6 0.085350 0.052968 0.760734
Si Si7 0.566969 0.128827 0.302242
O O1 0.886564 0.285351 0.169555
O O2 0.762415 0.327216 0.095836
O O3 0.879555 0.454831 0.010277
O O4 0.863745 0.187420 0.981060
O O5 0.271154 0.161352 0.820599
O O6 0.165013 0.271483 0.954778
O O7 0.129465 0.047448 0.858622
O O8 0.223153 0.026104 0.984583
O O9 0.363908 0.975458 0.732663
O O10 0.404873 0.148516 0.872012
O O11 0.855498 0.005097 0.835880
O O12 0.455906 0.138988 0.074702
O O13 0.082898 0.221230 0.754309
O O14 0.000000 0.004554 0.750000
O O15 0.500000 0.065502 0.250000
#
# Coordination Sequence:
#
# PCOD9281125 Si02
#       7
#     8   8   8   8   8   8   8
#     4  10  22  35  59  93 122 157 199 259 304 362
#     4  11  23  36  61  92 120 161 204 255 313 366
#     4  11  20  35  59  89 126 154 197 261 315 357
#     4  11  22  37  60  91 122 158 211 254 302 359
#     4  10  21  38  58  89 123 157 198 251 318 361
#     4  10  22  42  62  85 125 172 210 246 304 383
#     4   9  21  39  61  87 119 165 211 245 303 377
#
# _framework density 25.01566
#
# number of rings (size 3 to 8) (size 9 to 14) (size 15 to 20)
#    0.000    1.714    2.857    1.286    2.000    3.429 
#    0.000    4.286    0.000    4.286    0.000    0.000 
#    0.000    0.000    0.000    0.000    0.000    0.000 
#
# Total GULP energy -156304.084072 kJ/mol
# GULP energy per Si atom -5582.288717 kJ/mol
# Density = 2.495872 g / cm^3
# Si number density = 25.015660 Si / 1000 Ang^3
#
#
#
# Elastic Constant Matrix: (Units=GPa)
#
#
# Indices 1 2 3 4 5 6 
#
# 1 67.7626 -6.7253 22.5825 0.0000 21.1076 0.0000
# 2 -6.7253 54.9787 15.5982 0.0000 4.5000 0.0000
# 3 22.5825 15.5982 156.6837 0.0000 45.3102 0.0000
# 4 0.0000 0.0000 0.0000 17.7006 0.0000 8.4234
# 5 21.1076 4.5000 45.3102 0.0000 35.8189 0.0000
# 6 0.0000 0.0000 0.0000 8.4234 0.0000 15.0445
#
#
#
# Elastic Compliance Matrix: (Units=1/GPa)
#
#
# Indices 1 2 3 4 5 6 
#
# 1 0.018640 0.003128 0.000461 0.000000 -0.011960 0.000000
# 2 0.003128 0.019243 -0.001789 0.000000 -0.001998 0.000000
# 3 0.000461 -0.001789 0.010261 0.000000 -0.013027 0.000000
# 4 0.000000 0.000000 0.000000 0.077015 0.000000 -0.043121
# 5 -0.011960 -0.001998 -0.013027 0.000000 0.051696 0.000000
# 6 0.000000 0.000000 0.000000 -0.043121 0.000000 0.090613
#
#
# Mechanical properties :
#
#
# Convention : Reuss Voigt Hill
#
# Bulk Modulus (GPa) = 19.32586 38.03731 28.68159
# Shear Modulus (GPa) = 17.78635 30.24411 24.01523
#
# Velocity S-wave (km/s) = 2.66937 3.48085 3.10176
# Velocity P-wave (km/s) = 4.15247 5.60299 4.93135
#
# Compressibility (1/GPa) = 0.05174413
#
# Stress axis : x y z
#
# Youngs Moduli (GPa) = 53.64872 51.96814 97.45558
#
# Poissons Ratio (x) = -0.16257 -0.04489
# Poissons Ratio (y) = -0.16783 0.17431
# Poissons Ratio (z) = -0.02471 0.09295
#
# Static dielectric constant tensor:
#      x y z
#    x 2.139160 0.000000 0.070490 
#    y 0.000000 1.960960 0.000000 
#    z 0.070490 0.000000 2.019700 
# 
# From -- ./inp_files/110999.got.cif
#   From: 2010.05.17/outbox.cif.g08.bks.cpg/sg15_56_cif.got.tgz:110999.got - 2010.06.03 18:47:42.
