data_PCOD9281726
_publ_section_title
;
Structure prediction by ZEFSAII (Michael W. Deem and Ramdas Pophale) SiO2 
 PCOD9281726
Probable space group: C 2/C
;
_chemical_formula_sum "Si O2"
_cell_formula_units_Z 40
_cell_length_a 9.326221
_cell_length_b 14.063603
_cell_length_c 14.714651
_cell_angle_alpha 90.000000
_cell_angle_beta 92.806248
_cell_angle_gamma 90.000000
_cell_volume 1927.663172
_symmetry_space_group_name_H-M "C 2/C"
_symmetry_group_IT_number 15
_symmetry_cell_setting 'monoclinic'
loop_
_space_group_symop_operation_xyz
x,y,z
-x,y,1/2-z
-x,-y,-z
x,-y,1/2+z
1/2+x,1/2+y,z
1/2-x,1/2+y,1/2-z
1/2-x,1/2-y,-z
1/2+x,1/2-y,1/2+z
loop_
_atom_site_type_symbol
_atom_site_label
_atom_site_fract_x
_atom_site_fract_y
_atom_site_fract_z
Si Si1 0.505110 0.043953 0.399482
Si Si2 0.358464 0.746847 0.586078
Si Si3 0.163577 0.771878 0.752253
Si Si4 0.739693 0.015119 0.254038
Si Si5 0.902625 0.833980 0.324948
O O1 0.546615 0.156082 0.407510
O O2 0.632247 0.008762 0.336921
O O3 0.360377 0.017667 0.339094
O O4 0.500000 0.000000 0.500000
O O5 0.250000 0.750000 0.500000
O O6 0.245904 0.735762 0.665426
O O7 0.480777 0.664616 0.591309
O O8 0.178396 0.884873 0.747272
O O9 0.260553 0.728307 0.835959
O O10 0.000000 0.740863 0.750000
O O11 0.849443 0.930644 0.277649
O O12 0.000000 0.782438 0.250000
#
# Coordination Sequence:
#
# PCOD9281726 Si02
#       5
#     8   8   8   8   8
#     4  10  22  39  62  91 125 163 204 257 316 368
#     4  10  22  42  61  90 128 161 206 261 310 372
#     4  10  21  39  61  89 120 162 207 254 308 370
#     4  10  21  41  61  89 127 160 207 260 309 371
#     4  10  21  38  64  88 121 166 205 248 319 365
#
# _framework density 20.750513999999999
#
# number of rings (size 3 to 8) (size 9 to 14) (size 15 to 20)
#    0.000    2.000    2.000    0.600    8.400    0.000 
#    3.600    4.000    0.000    0.000    0.000    0.000 
#    0.000    0.000    0.000    0.000    0.000    0.000 
#
# Total GULP energy -111356.009644 kJ/mol
# GULP energy per Si atom -5567.800482 kJ/mol
# Density = 2.070328 g / cm^3
# Si number density = 20.750514 Si / 1000 Ang^3
#
#
#
# Elastic Constant Matrix: (Units=GPa)
#
#
# Indices 1 2 3 4 5 6 
#
# 1 183.7814 48.4144 47.4447 0.0000 43.7203 0.0000
# 2 48.4144 91.7582 12.1923 0.0000 24.6010 0.0000
# 3 47.4447 12.1923 89.8681 0.0000 28.4408 0.0000
# 4 0.0000 0.0000 0.0000 16.0630 0.0000 5.9484
# 5 43.7203 24.6010 28.4408 0.0000 35.6031 0.0000
# 6 0.0000 0.0000 0.0000 5.9484 0.0000 38.5502
#
#
#
# Elastic Compliance Matrix: (Units=1/GPa)
#
#
# Indices 1 2 3 4 5 6 
#
# 1 0.008159 -0.002163 -0.001761 0.000000 -0.007118 0.000000
# 2 -0.002163 0.014099 0.001970 0.000000 -0.008660 0.000000
# 3 -0.001761 0.001970 0.015440 0.000000 -0.011531 0.000000
# 4 0.000000 0.000000 0.000000 0.066028 0.000000 -0.010188
# 5 -0.007118 -0.008660 -0.011531 0.000000 0.052024 0.000000
# 6 0.000000 0.000000 0.000000 -0.010188 0.000000 0.027512
#
#
# Mechanical properties :
#
#
# Convention : Reuss Voigt Hill
#
# Bulk Modulus (GPa) = 29.59546 64.61228 47.10387
# Shear Modulus (GPa) = 25.19737 35.20034 30.19885
#
# Velocity S-wave (km/s) = 3.48846 4.12316 3.81902
# Velocity P-wave (km/s) = 5.52443 7.33979 6.49584
#
# Compressibility (1/GPa) = 0.03378896
#
# Stress axis : x y z
#
# Youngs Moduli (GPa) = 122.56526 70.92512 64.76875
#
# Poissons Ratio (x) = 0.15338 0.11409
# Poissons Ratio (y) = 0.26505 -0.12756
# Poissons Ratio (z) = 0.21589 -0.13969
#
# Static dielectric constant tensor:
#      x y z
#    x 1.791150 0.000000 0.094460 
#    y 0.000000 1.828890 0.000000 
#    z 0.094460 0.000000 1.869590 
# 
# From -- ./inp_files/133180.got.cif
#   From: 2010.05.17/outbox.cif.g08.bks.cpg/sg15_67_cif.got.tgz:133180.got - 2010.06.03 18:47:42.
