data_PCOD9281728
_publ_section_title
;
Structure prediction by ZEFSAII (Michael W. Deem and Ramdas Pophale) SiO2 
 PCOD9281728
Probable space group: C 2/C
;
_chemical_formula_sum "Si O2"
_cell_formula_units_Z 56
_cell_length_a 25.070908
_cell_length_b 16.157269
_cell_length_c 9.372897
_cell_angle_alpha 90.000000
_cell_angle_beta 50.746832
_cell_angle_gamma 90.000000
_cell_volume 2940.041507
_symmetry_space_group_name_H-M "C 2/C"
_symmetry_group_IT_number 15
_symmetry_cell_setting 'monoclinic'
loop_
_space_group_symop_operation_xyz
x,y,z
-x,y,1/2-z
-x,-y,-z
x,-y,1/2+z
1/2+x,1/2+y,z
1/2-x,1/2+y,1/2-z
1/2-x,1/2-y,-z
1/2+x,1/2-y,1/2+z
loop_
_atom_site_type_symbol
_atom_site_label
_atom_site_fract_x
_atom_site_fract_y
_atom_site_fract_z
Si Si1 0.077946 0.240469 0.171224
Si Si2 0.000000 0.304546 0.750000
Si Si3 0.060631 0.452963 0.476920
Si Si4 0.500000 0.465347 0.250000
Si Si5 0.136410 0.069930 0.033181
Si Si6 0.586567 0.324396 0.980333
Si Si7 0.204802 0.938690 0.723348
Si Si8 0.634045 0.923659 0.069536
O O1 0.119318 0.164961 0.029792
O O2 0.081038 0.218924 0.335417
O O3 0.108049 0.330485 0.086279
O O4 0.000000 0.238142 0.250000
O O5 0.024817 0.368114 0.587622
O O6 0.063754 0.239837 0.642141
O O7 0.120182 0.438313 0.260616
O O8 0.090280 0.508772 0.554720
O O9 0.000000 0.500000 0.500000
O O10 0.563850 0.522824 0.187066
O O11 0.533513 0.402227 0.078080
O O12 0.182780 0.065014 0.095744
O O13 0.174916 0.021938 0.842920
O O14 0.661899 0.363701 0.868723
O O15 0.285978 0.931801 0.602243
#
# Coordination Sequence:
#
# PCOD9281728 Si02
#       8
#     8   4   8   4   8   8   8   8
#     4  11  22  35  60  94 116 149 203 261 294 340
#     4  11  20  40  61  90 114 152 211 250 304 345
#     4  12  23  41  66  89 116 160 206 261 300 349
#     4   9  18  36  61  90 122 156 195 252 300 351
#     4  10  21  38  64  88 122 160 205 244 297 363
#     4   9  21  36  61  87 122 159 193 248 299 363
#     4  10  23  42  59  89 124 169 195 234 309 375
#     4  12  25  42  62  89 129 158 202 249 307 368
#
# _framework density 19.047349000000001
#
# number of rings (size 3 to 8) (size 9 to 14) (size 15 to 20)
#    0.000    1.429    3.571    1.714    2.000    4.000 
#    2.571    0.000    0.000    2.571    0.000    0.000 
#    0.000    0.000    0.000    0.000    0.000    0.000 
#
# Total GULP energy -156150.062416 kJ/mol
# GULP energy per Si atom -5576.787943 kJ/mol
# Density = 1.900400 g / cm^3
# Si number density = 19.047349 Si / 1000 Ang^3
#
#
#
# Elastic Constant Matrix: (Units=GPa)
#
#
# Indices 1 2 3 4 5 6 
#
# 1 65.7018 15.4538 14.8182 0.0000 -13.7430 0.0000
# 2 15.4538 116.3401 33.0720 0.0000 -1.8382 0.0000
# 3 14.8182 33.0720 82.5181 0.0000 -20.5316 0.0000
# 4 0.0000 0.0000 0.0000 33.7180 0.0000 0.8075
# 5 -13.7430 -1.8382 -20.5316 0.0000 21.7536 0.0000
# 6 0.0000 0.0000 0.0000 0.8075 0.0000 12.4232
#
#
#
# Elastic Compliance Matrix: (Units=1/GPa)
#
#
# Indices 1 2 3 4 5 6 
#
# 1 0.018120 -0.002408 0.000665 0.000000 0.011872 0.000000
# 2 -0.002408 0.010257 -0.005020 0.000000 -0.005393 0.000000
# 3 0.000665 -0.005020 0.018310 0.000000 0.017278 0.000000
# 4 0.000000 0.000000 0.000000 0.029704 0.000000 -0.001931
# 5 0.011872 -0.005393 0.017278 0.000000 0.069321 0.000000
# 6 0.000000 0.000000 0.000000 -0.001931 0.000000 0.080620
#
#
# Mechanical properties :
#
#
# Convention : Reuss Voigt Hill
#
# Bulk Modulus (GPa) = 30.15663 43.47198 36.81430
# Shear Modulus (GPa) = 19.92722 26.99335 23.46029
#
# Velocity S-wave (km/s) = 3.23800 3.76862 3.51334
# Velocity P-wave (km/s) = 5.46318 6.46601 5.98563
#
# Compressibility (1/GPa) = 0.03316021
#
# Stress axis : x y z
#
# Youngs Moduli (GPa) = 55.18762 97.49119 54.61479
#
# Poissons Ratio (x) = 0.23480 -0.03633
# Poissons Ratio (y) = 0.13292 0.27419
# Poissons Ratio (z) = -0.03671 0.48944
#
# Static dielectric constant tensor:
#      x y z
#    x 1.624560 0.000000 0.012940 
#    y 0.000000 1.695780 0.000000 
#    z 0.012940 0.000000 1.705550 
# 
# From -- ./inp_files/56552.got.cif
#   From: 2010.05.17/outbox.cif.g08.bks.cpg/sg15_29_cif.got.tgz:56552.got - 2010.06.03 18:47:42.
