data_PCOD9281072
_publ_section_title
;
Structure prediction by ZEFSAII (Michael W. Deem and Ramdas Pophale) SiO2 
 PCOD9281072
Probable space group: C 2/C
;
_chemical_formula_sum "Si O2"
_cell_formula_units_Z 36
_cell_length_a 11.598266
_cell_length_b 26.788643
_cell_length_c 8.963269
_cell_angle_alpha 90.000000
_cell_angle_beta 140.515059
_cell_angle_gamma 90.000000
_cell_volume 1770.851847
_symmetry_space_group_name_H-M "C 2/C"
_symmetry_group_IT_number 15
_symmetry_cell_setting 'monoclinic'
loop_
_space_group_symop_operation_xyz
x,y,z
-x,y,1/2-z
-x,-y,-z
x,-y,1/2+z
1/2+x,1/2+y,z
1/2-x,1/2+y,1/2-z
1/2-x,1/2-y,-z
1/2+x,1/2-y,1/2+z
loop_
_atom_site_type_symbol
_atom_site_label
_atom_site_fract_x
_atom_site_fract_y
_atom_site_fract_z
Si Si1 0.500000 0.209697 0.750000
Si Si2 0.682626 0.060466 0.131253
Si Si3 0.233331 0.455437 0.333772
Si Si4 0.490088 0.385395 0.065815
Si Si5 0.633784 0.307741 0.012303
O O1 0.400184 0.248227 0.535973
O O2 0.660059 0.180943 0.827806
O O3 0.786935 0.107569 0.302084
O O4 0.737175 0.013033 0.287279
O O5 0.465729 0.063988 0.913699
O O6 0.743422 0.050036 0.021996
O O7 0.387432 0.424757 0.403467
O O8 0.500000 0.394953 0.250000
O O9 0.571832 0.331979 0.102729
O O10 0.500000 0.328822 0.750000
#
# Coordination Sequence:
#
# PCOD9281072 Si02
#       5
#     4   8   8   8   8
#     4   8  18  38  66  82 106 140 182 238 284 342
#     4  10  21  38  58  80 112 151 194 235 280 328
#     4  10  21  38  58  81 110 153 192 236 282 325
#     4  12  24  35  53  85 119 150 187 231 275 335
#     4   9  18  37  61  84 106 141 184 228 283 337
#
# _framework density 20.329198999999999
#
# number of rings (size 3 to 8) (size 9 to 14) (size 15 to 20)
#    0.667    1.333    0.000    4.000    0.000    6.222 
#    0.000    1.111    0.000    0.000    0.000    0.000 
#    0.000    0.000    0.000    0.000    0.000    0.000 
#
# Total GULP energy -100522.941565 kJ/mol
# GULP energy per Si atom -5584.607865 kJ/mol
# Density = 2.028293 g / cm^3
# Si number density = 20.329199 Si / 1000 Ang^3
#
#
#
# Elastic Constant Matrix: (Units=GPa)
#
#
# Indices 1 2 3 4 5 6 
#
# 1 90.9631 10.7070 43.6538 0.0000 16.1111 0.0000
# 2 10.7070 39.7092 6.7264 0.0000 5.8534 0.0000
# 3 43.6538 6.7264 68.0728 0.0000 -2.2656 0.0000
# 4 0.0000 0.0000 0.0000 4.0264 0.0000 1.2616
# 5 16.1111 5.8534 -2.2656 0.0000 27.2832 0.0000
# 6 0.0000 0.0000 0.0000 1.2616 0.0000 37.3285
#
#
#
# Elastic Compliance Matrix: (Units=1/GPa)
#
#
# Indices 1 2 3 4 5 6 
#
# 1 0.019429 -0.001274 -0.012742 0.000000 -0.012258 0.000000
# 2 -0.001274 0.026618 -0.001984 0.000000 -0.005123 0.000000
# 3 -0.012742 -0.001984 0.023387 0.000000 0.009892 0.000000
# 4 0.000000 0.000000 0.000000 0.251021 0.000000 -0.008484
# 5 -0.012258 -0.005123 0.009892 0.000000 0.045812 0.000000
# 6 0.000000 0.000000 0.000000 -0.008484 0.000000 0.027076
#
#
# Mechanical properties :
#
#
# Convention : Reuss Voigt Hill
#
# Bulk Modulus (GPa) = 26.71300 35.65774 31.18537
# Shear Modulus (GPa) = 11.42023 22.90480 17.16251
#
# Velocity S-wave (km/s) = 2.37273 3.36027 2.90872
# Velocity P-wave (km/s) = 4.54700 5.71257 5.16278
#
# Compressibility (1/GPa) = 0.03743496
#
# Stress axis : x y z
#
# Youngs Moduli (GPa) = 51.46842 37.56888 42.75968
#
# Poissons Ratio (x) = 0.04785 0.54484
# Poissons Ratio (y) = 0.06555 0.08483
# Poissons Ratio (z) = 0.65580 0.07453
#
# Static dielectric constant tensor:
#      x y z
#    x 1.692090 0.000000 0.027690 
#    y 0.000000 1.773170 0.000000 
#    z 0.027690 0.000000 1.717300 
# 
# From -- ./inp_files/34696.got.cif
#   From: 2010.05.17/outbox.cif.g08.bks.cpg/sg15_18_cif.got.tgz:34696.got - 2010.06.03 18:47:42.
