data_PCOD9281401
_publ_section_title
;
Structure prediction by ZEFSAII (Michael W. Deem and Ramdas Pophale) SiO2 
 PCOD9281401
Probable space group: C 2/C
;
_chemical_formula_sum "Si O2"
_cell_formula_units_Z 40
_cell_length_a 11.759056
_cell_length_b 25.216054
_cell_length_c 5.406080
_cell_angle_alpha 90.000000
_cell_angle_beta 79.999056
_cell_angle_gamma 90.000000
_cell_volume 1578.636899
_symmetry_space_group_name_H-M "C 2/C"
_symmetry_group_IT_number 15
_symmetry_cell_setting 'monoclinic'
loop_
_space_group_symop_operation_xyz
x,y,z
-x,y,1/2-z
-x,-y,-z
x,-y,1/2+z
1/2+x,1/2+y,z
1/2-x,1/2+y,1/2-z
1/2-x,1/2-y,-z
1/2+x,1/2-y,1/2+z
loop_
_atom_site_type_symbol
_atom_site_label
_atom_site_fract_x
_atom_site_fract_y
_atom_site_fract_z
Si Si1 0.865561 0.978096 0.347865
Si Si2 0.864830 0.190688 0.375578
Si Si3 0.022486 0.411331 0.498261
Si Si4 0.067231 0.300670 0.969990
Si Si5 0.280545 0.635731 0.914431
O O1 0.854318 0.917307 0.434770
O O2 0.000000 0.992175 0.250000
O O3 0.813690 0.012070 0.593966
O O4 0.857470 0.250341 0.485761
O O5 0.822288 0.157513 0.631206
O O6 0.000000 0.181088 0.250000
O O7 0.797403 0.175894 0.143507
O O8 0.148780 0.384057 0.440532
O O9 0.000000 0.438099 0.250000
O O10 0.925182 0.364183 0.564890
O O11 0.000000 0.444395 0.750000
O O12 0.000000 0.283028 0.750000
O O13 0.000000 0.302368 0.250000
#
# Coordination Sequence:
#
# PCOD9281401 Si02
#       5
#     8   8   8   8   8
#     4  10  21  38  61  91 124 150 182 243 313 372
#     4  11  21  36  56  88 123 151 196 252 294 356
#     4  10  22  42  60  82 119 163 210 258 296 340
#     4   9  18  36  53  74 117 157 192 248 295 328
#     4  12  23  38  65  90 115 165 209 240 304 373
#
# _framework density 25.338318000000001
#
# number of rings (size 3 to 8) (size 9 to 14) (size 15 to 20)
#    0.000    1.600    0.000    6.600    0.000    1.600 
#    0.000   38.000    0.000    3.600    0.000    0.000 
#    0.000    0.000    0.000    0.000    0.000    0.000 
#
# Total GULP energy -111396.488031 kJ/mol
# GULP energy per Si atom -5569.824402 kJ/mol
# Density = 2.528065 g / cm^3
# Si number density = 25.338318 Si / 1000 Ang^3
#
#
#
# Elastic Constant Matrix: (Units=GPa)
#
#
# Indices 1 2 3 4 5 6 
#
# 1 89.7466 -0.4214 44.4503 0.0000 6.2786 0.0000
# 2 -0.4214 114.4358 47.1355 0.0000 2.4852 0.0000
# 3 44.4503 47.1355 250.2567 0.0000 26.2970 0.0000
# 4 0.0000 0.0000 0.0000 15.8012 0.0000 28.2262
# 5 6.2786 2.4852 26.2970 0.0000 35.2664 0.0000
# 6 0.0000 0.0000 0.0000 28.2262 0.0000 42.4328
#
#
#
# Elastic Compliance Matrix: (Units=1/GPa)
#
#
# Indices 1 2 3 4 5 6 
#
# 1 0.012337 0.001015 -0.002326 0.000000 -0.000533 0.000000
# 2 0.001015 0.009574 -0.002055 0.000000 0.000677 0.000000
# 3 -0.002326 -0.002055 0.005140 0.000000 -0.003274 0.000000
# 4 0.000000 0.000000 0.000000 -0.336161 0.000000 0.223614
# 5 -0.000533 0.000677 -0.003274 0.000000 0.030844 0.000000
# 6 0.000000 0.000000 0.000000 0.223614 0.000000 -0.125181
#
#
# Mechanical properties :
#
#
# Convention : Reuss Voigt Hill
#
# Bulk Modulus (GPa) = 49.21475 70.75200 59.98338
# Shear Modulus (GPa) = -12.82241 42.91839 15.04799
#
# Velocity S-wave (km/s) = -2.25199 4.12006 2.43961
# Velocity P-wave (km/s) = 3.56416 7.11455 5.62672
#
# Compressibility (1/GPa) = 0.02031911
#
# Stress axis : x y z
#
# Youngs Moduli (GPa) = 81.05819 104.45092 194.54764
#
# Poissons Ratio (x) = -0.10604 0.45261
# Poissons Ratio (y) = -0.08229 0.39973
# Poissons Ratio (z) = 0.18858 0.21461
#
# Static dielectric constant tensor:
#      x y z
#    x 2.212060 0.000000 0.041740 
#    y 0.000000 2.023670 0.000000 
#    z 0.041740 0.000000 2.020840 
# 
# From -- ./inp_files/4930.got.cif
#   From: 2010.05.17/outbox.cif.g08.bks.cpg/sg15_3_cif.got.tgz:4930.got - 2010.06.03 18:47:42.
