data_PCOD9281049
_publ_section_title
;
Structure prediction by ZEFSAII (Michael W. Deem and Ramdas Pophale) SiO2 
 PCOD9281049
Probable space group: C 2/C
;
_chemical_formula_sum "Si O2"
_cell_formula_units_Z 64
_cell_length_a 7.316518
_cell_length_b 22.236030
_cell_length_c 20.688382
_cell_angle_alpha 90.000000
_cell_angle_beta 54.562603
_cell_angle_gamma 90.000000
_cell_volume 2742.283428
_symmetry_space_group_name_H-M "C 2/C"
_symmetry_group_IT_number 15
_symmetry_cell_setting 'monoclinic'
loop_
_space_group_symop_operation_xyz
x,y,z
-x,y,1/2-z
-x,-y,-z
x,-y,1/2+z
1/2+x,1/2+y,z
1/2-x,1/2+y,1/2-z
1/2-x,1/2-y,-z
1/2+x,1/2-y,1/2+z
loop_
_atom_site_type_symbol
_atom_site_label
_atom_site_fract_x
_atom_site_fract_y
_atom_site_fract_z
Si Si1 0.756072 0.042509 0.264988
Si Si2 0.100889 0.603105 0.072103
Si Si3 0.780680 0.283860 0.256292
Si Si4 0.651445 0.419975 0.283561
Si Si5 0.614923 0.489766 0.047411
Si Si6 0.957352 0.111910 0.108671
Si Si7 0.387084 0.254303 0.905607
Si Si8 0.521800 0.764548 0.585019
O O1 0.579319 0.073880 0.345369
O O2 0.787655 0.081281 0.194098
O O3 0.000000 0.041380 0.250000
O O4 0.680804 0.973716 0.269872
O O5 0.322049 0.620171 0.069429
O O6 0.000087 0.665853 0.071264
O O7 0.174364 0.552910 0.006593
O O8 0.742695 0.354094 0.279034
O O9 0.554240 0.247692 0.324472
O O10 0.000000 0.258316 0.250000
O O11 0.882563 0.279117 0.162155
O O12 0.500000 0.411734 0.250000
O O13 0.527280 0.452009 0.370097
O O14 0.641428 0.558700 0.064724
O O15 0.500000 0.500000 0.000000
O O16 0.043414 0.175757 0.114554
O O17 0.185795 0.229092 0.902753
O O18 0.250000 0.250000 0.000000
O O19 0.750000 0.750000 0.500000
#
# Coordination Sequence:
#
# PCOD9281049 Si02
#       8
#     8   8   8   8   8   8   8   8
#     4  10  21  38  57  85 121 156 192 245 309 370
#     4  11  21  36  63  89 114 158 207 252 310 379
#     4  10  24  42  62  87 124 171 214 261 326 391
#     4  10  22  40  62  91 127 162 209 267 321 382
#     4   9  21  39  62  93 127 161 205 263 325 392
#     4  10  21  39  60  88 120 154 204 259 310 376
#     4  11  24  41  61  90 124 164 211 267 322 379
#     4  11  23  41  62  87 122 164 209 260 320 391
#
# _framework density 23.338214000000001
#
# number of rings (size 3 to 8) (size 9 to 14) (size 15 to 20)
#    0.000    1.750    0.000    3.375    0.000   11.000 
#    0.000   10.000    0.000    0.000    0.000    0.000 
#    0.000    0.000    0.000    0.000    0.000    0.000 
#
# Total GULP energy -178189.296558 kJ/mol
# GULP energy per Si atom -5568.415517 kJ/mol
# Density = 2.328510 g / cm^3
# Si number density = 23.338214 Si / 1000 Ang^3
#
#
#
# Elastic Constant Matrix: (Units=GPa)
#
#
# Indices 1 2 3 4 5 6 
#
# 1 73.5182 -8.8733 6.8775 0.0000 -8.4224 0.0000
# 2 -8.8733 145.8213 34.3601 0.0000 -18.4877 0.0000
# 3 6.8775 34.3601 130.0798 0.0000 -20.9144 0.0000
# 4 0.0000 0.0000 0.0000 33.5880 0.0000 -0.3568
# 5 -8.4224 -18.4877 -20.9144 0.0000 32.3383 0.0000
# 6 0.0000 0.0000 0.0000 -0.3568 0.0000 21.7170
#
#
#
# Elastic Compliance Matrix: (Units=1/GPa)
#
#
# Indices 1 2 3 4 5 6 
#
# 1 0.014323 0.001527 -0.000469 0.000000 0.004300 0.000000
# 2 0.001527 0.007800 -0.001518 0.000000 0.003875 0.000000
# 3 -0.000469 -0.001518 0.008877 0.000000 0.004751 0.000000
# 4 0.000000 0.000000 0.000000 0.029778 0.000000 0.000489
# 5 0.004300 0.003875 0.004751 0.000000 0.037331 0.000000
# 6 0.000000 0.000000 0.000000 0.000489 0.000000 0.046055
#
#
# Mechanical properties :
#
#
# Convention : Reuss Voigt Hill
#
# Bulk Modulus (GPa) = 33.24490 46.01646 39.63068
# Shear Modulus (GPa) = 32.23516 38.66566 35.45041
#
# Velocity S-wave (km/s) = 3.72051 4.07474 3.90164
# Velocity P-wave (km/s) = 5.72119 6.47287 6.10860
#
# Compressibility (1/GPa) = 0.03007980
#
# Stress axis : x y z
#
# Youngs Moduli (GPa) = 69.81816 128.21139 112.64722
#
# Poissons Ratio (x) = -0.19582 0.05287
# Poissons Ratio (y) = -0.10663 0.17099
# Poissons Ratio (z) = 0.03277 0.19462
#
# Static dielectric constant tensor:
#      x y z
#    x 1.877650 0.000000 0.092890 
#    y 0.000000 1.666260 0.000000 
#    z 0.092890 0.000000 2.110960 
# 
# From -- ./inp_files/234417.got.cif
#   From: 2010.05.17/outbox.cif.g08.bks.cpg/sg15_118_cif.got.tgz:234417.got - 2010.06.03 18:47:42.
