data_PCOD9281032
_publ_section_title
;
Structure prediction by ZEFSAII (Michael W. Deem and Ramdas Pophale) SiO2 
 PCOD9281032
Probable space group: C 2/C
;
_chemical_formula_sum "Si O2"
_cell_formula_units_Z 56
_cell_length_a 16.902631
_cell_length_b 26.691522
_cell_length_c 8.803407
_cell_angle_alpha 90.000000
_cell_angle_beta 48.865297
_cell_angle_gamma 90.000000
_cell_volume 2991.359532
_symmetry_space_group_name_H-M "C 2/C"
_symmetry_group_IT_number 15
_symmetry_cell_setting 'monoclinic'
loop_
_space_group_symop_operation_xyz
x,y,z
-x,y,1/2-z
-x,-y,-z
x,-y,1/2+z
1/2+x,1/2+y,z
1/2-x,1/2+y,1/2-z
1/2-x,1/2-y,-z
1/2+x,1/2-y,1/2+z
loop_
_atom_site_type_symbol
_atom_site_label
_atom_site_fract_x
_atom_site_fract_y
_atom_site_fract_z
Si Si1 0.904266 0.862156 0.972266
Si Si2 0.709446 0.702377 0.139626
Si Si3 0.927562 0.325767 0.494444
Si Si4 0.716705 0.063963 0.744432
Si Si5 0.035117 0.431648 0.924668
Si Si6 0.997721 0.776826 0.435057
Si Si7 0.648090 0.009509 0.549240
O O1 0.847950 0.829692 0.914544
O O2 0.000000 0.885905 0.750000
O O3 0.810680 0.897554 0.150463
O O4 0.946835 0.824334 0.049693
O O5 0.808864 0.676403 0.087299
O O6 0.624211 0.719102 0.368390
O O7 0.750000 0.750000 0.000000
O O8 0.933211 0.374079 0.595919
O O9 0.958298 0.274432 0.543234
O O10 0.000000 0.331097 0.250000
O O11 0.708729 0.047822 0.580201
O O12 0.591283 0.073606 0.933696
O O13 0.732127 0.017003 0.834753
O O14 0.093836 0.466412 0.725124
O O15 0.068801 0.460586 0.037231
O O16 0.000000 0.776908 0.250000
#
# Coordination Sequence:
#
# PCOD9281032 Si02
#       7
#     8   8   8   8   8   8   8
#     4  10  22  42  62  84 114 162 201 238 290 354
#     4  11  20  40  64  81 116 163 198 236 288 349
#     4  12  22  37  61  90 116 158 205 234 287 366
#     4  11  20  36  63  83 120 154 193 238 300 349
#     4  11  21  34  59  90 121 153 189 237 295 359
#     4  11  25  41  58  87 127 153 194 251 295 340
#     4  10  21  38  56  90 124 151 185 245 301 348
#
# _framework density 18.720586000000001
#
# number of rings (size 3 to 8) (size 9 to 14) (size 15 to 20)
#    0.000    1.143    2.857    6.429    0.000    2.857 
#    0.000    2.143    0.000    0.000    0.000    0.000 
#    0.000    0.000    0.000    0.000    0.000    0.000 
#
# Total GULP energy -155975.378096 kJ/mol
# GULP energy per Si atom -5570.549218 kJ/mol
# Density = 1.867798 g / cm^3
# Si number density = 18.720586 Si / 1000 Ang^3
#
#
#
# Elastic Constant Matrix: (Units=GPa)
#
#
# Indices 1 2 3 4 5 6 
#
# 1 91.7635 28.0215 50.1642 0.0000 5.1150 0.0000
# 2 28.0215 72.2060 34.2163 0.0000 -1.6478 0.0000
# 3 50.1642 34.2163 88.5682 0.0000 -2.5555 0.0000
# 4 0.0000 0.0000 0.0000 28.8216 0.0000 -7.0946
# 5 5.1150 -1.6478 -2.5555 0.0000 33.0645 0.0000
# 6 0.0000 0.0000 0.0000 -7.0946 0.0000 30.1397
#
#
#
# Elastic Compliance Matrix: (Units=1/GPa)
#
#
# Indices 1 2 3 4 5 6 
#
# 1 0.016463 -0.002449 -0.008475 0.000000 -0.003324 0.000000
# 2 -0.002449 0.017321 -0.005280 0.000000 0.000834 0.000000
# 3 -0.008475 -0.005280 0.018201 0.000000 0.002455 0.000000
# 4 0.000000 0.000000 0.000000 0.036830 0.000000 0.008670
# 5 -0.003324 0.000834 0.002455 0.000000 0.030989 0.000000
# 6 0.000000 0.000000 0.000000 0.008670 0.000000 0.035220
#
#
# Mechanical properties :
#
#
# Convention : Reuss Voigt Hill
#
# Bulk Modulus (GPa) = 51.07809 53.03799 52.05804
# Shear Modulus (GPa) = 25.77865 27.74753 26.76309
#
# Velocity S-wave (km/s) = 3.71485 3.85410 3.78512
# Velocity P-wave (km/s) = 6.76342 6.94250 6.85355
#
# Compressibility (1/GPa) = 0.01957787
#
# Stress axis : x y z
#
# Youngs Moduli (GPa) = 60.74045 57.73358 54.94086
#
# Poissons Ratio (x) = 0.14140 0.46560
# Poissons Ratio (y) = 0.14876 0.29011
# Poissons Ratio (z) = 0.51475 0.30485
#
# Static dielectric constant tensor:
#      x y z
#    x 1.650960 0.000000 0.020910 
#    y 0.000000 1.703020 0.000000 
#    z 0.020910 0.000000 1.694000 
# 
# From -- ./inp_files/52279.got.cif
#   From: 2010.05.17/outbox.cif.g08.bks.cpg/sg15_27_cif.got.tgz:52279.got - 2010.06.03 18:47:42.
