data_PCOD9281305
_publ_section_title
;
Structure prediction by ZEFSAII (Michael W. Deem and Ramdas Pophale) SiO2 
 PCOD9281305
Probable space group: C 2/C
;
_chemical_formula_sum "Si O2"
_cell_formula_units_Z 40
_cell_length_a 14.319589
_cell_length_b 15.926425
_cell_length_c 7.411203
_cell_angle_alpha 90.000000
_cell_angle_beta 111.377537
_cell_angle_gamma 90.000000
_cell_volume 1573.910268
_symmetry_space_group_name_H-M "C 2/C"
_symmetry_group_IT_number 15
_symmetry_cell_setting 'monoclinic'
loop_
_space_group_symop_operation_xyz
x,y,z
-x,y,1/2-z
-x,-y,-z
x,-y,1/2+z
1/2+x,1/2+y,z
1/2-x,1/2+y,1/2-z
1/2-x,1/2-y,-z
1/2+x,1/2-y,1/2+z
loop_
_atom_site_type_symbol
_atom_site_label
_atom_site_fract_x
_atom_site_fract_y
_atom_site_fract_z
Si Si1 0.583445 0.887125 0.043772
Si Si2 0.822161 0.922105 0.855852
Si Si3 0.979410 0.781158 0.931395
Si Si4 0.394289 0.403438 0.278857
Si Si5 0.134575 0.437771 0.466412
O O1 0.578079 0.789200 0.991991
O O2 0.644404 0.900840 0.273144
O O3 0.617781 0.961636 0.937641
O O4 0.467557 0.906768 0.013084
O O5 0.907927 0.860253 0.844093
O O6 0.727323 0.916889 0.659228
O O7 0.861562 0.018105 0.876246
O O8 0.815424 0.895094 0.060600
O O9 0.000000 0.743374 0.750000
O O10 0.078077 0.819471 0.093738
O O11 0.500000 0.423388 0.250000
#
# Coordination Sequence:
#
# PCOD9281305 Si02
#       5
#     8   8   8   8   8
#     4  10  22  43  62  85 124 167 204 245 309 362
#     4  11  21  38  65  95 123 155 207 254 303 365
#     4  11  21  40  62  91 126 163 198 249 309 367
#     4  10  21  38  60  93 126 161 191 247 319 360
#     4  10  21  42  63  88 119 163 208 244 304 361
#
# _framework density 25.414411000000001
#
# number of rings (size 3 to 8) (size 9 to 14) (size 15 to 20)
#    0.000    1.600    2.000    5.400    0.000    0.800 
#   25.200    1.000    0.000    0.000    0.000    0.000 
#    0.000    0.000    0.000    0.000    0.000    0.000 
#
# Total GULP energy -111949.235650 kJ/mol
# GULP energy per Si atom -5597.461783 kJ/mol
# Density = 2.535657 g / cm^3
# Si number density = 25.414411 Si / 1000 Ang^3
#
#
#
# Elastic Constant Matrix: (Units=GPa)
#
#
# Indices 1 2 3 4 5 6 
#
# 1 31.7956 -1.8432 12.9555 0.0000 14.4034 0.0000
# 2 -1.8432 136.8502 51.4942 0.0000 7.8338 0.0000
# 3 12.9555 51.4942 178.9901 0.0000 12.2781 0.0000
# 4 0.0000 0.0000 0.0000 34.1397 0.0000 -9.6629
# 5 14.4034 7.8338 12.2781 0.0000 34.0957 0.0000
# 6 0.0000 0.0000 0.0000 -9.6629 0.0000 5.6555
#
#
#
# Elastic Compliance Matrix: (Units=1/GPa)
#
#
# Indices 1 2 3 4 5 6 
#
# 1 0.040121 0.002417 -0.002459 0.000000 -0.016619 0.000000
# 2 0.002417 0.008377 -0.002443 0.000000 -0.002066 0.000000
# 3 -0.002459 -0.002443 0.006519 0.000000 -0.000747 0.000000
# 4 0.000000 0.000000 0.000000 0.056722 0.000000 0.096913
# 5 -0.016619 -0.002066 -0.000747 0.000000 0.037093 0.000000
# 6 0.000000 0.000000 0.000000 0.096913 0.000000 0.342401
#
#
# Mechanical properties :
#
#
# Convention : Reuss Voigt Hill
#
# Bulk Modulus (GPa) = 19.98135 52.53877 36.26006
# Shear Modulus (GPa) = 9.74872 33.78014 21.76443
#
# Velocity S-wave (km/s) = 1.96067 3.64974 2.92957
# Velocity P-wave (km/s) = 3.60623 6.20310 5.07363
#
# Compressibility (1/GPa) = 0.05004667
#
# Stress axis : x y z
#
# Youngs Moduli (GPa) = 24.92433 119.36765 153.39493
#
# Poissons Ratio (x) = -0.28853 0.37727
# Poissons Ratio (y) = -0.06025 0.37480
# Poissons Ratio (z) = 0.06130 0.29166
#
# Static dielectric constant tensor:
#      x y z
#    x 2.062480 0.000000 -0.027730 
#    y 0.000000 2.002340 0.000000 
#    z -0.027730 0.000000 2.029290 
# 
# From -- ./inp_files/55495.got.cif
#   From: 2010.05.17/outbox.cif.g08.bks.cpg/sg15_28_cif.got.tgz:55495.got - 2010.06.03 18:47:42.
