data_PCOD9281870
_publ_section_title
;
Structure prediction by ZEFSAII (Michael W. Deem and Ramdas Pophale) SiO2 
 PCOD9281870
Probable space group: C 2/C
;
_chemical_formula_sum "Si O2"
_cell_formula_units_Z 64
_cell_length_a 29.906818
_cell_length_b 10.723108
_cell_length_c 9.598805
_cell_angle_alpha 90.000000
_cell_angle_beta 97.052141
_cell_angle_gamma 90.000000
_cell_volume 3054.991858
_symmetry_space_group_name_H-M "C 2/C"
_symmetry_group_IT_number 15
_symmetry_cell_setting 'monoclinic'
loop_
_space_group_symop_operation_xyz
x,y,z
-x,y,1/2-z
-x,-y,-z
x,-y,1/2+z
1/2+x,1/2+y,z
1/2-x,1/2+y,1/2-z
1/2-x,1/2-y,-z
1/2+x,1/2-y,1/2+z
loop_
_atom_site_type_symbol
_atom_site_label
_atom_site_fract_x
_atom_site_fract_y
_atom_site_fract_z
Si Si1 0.130829 0.294367 0.088348
Si Si2 0.910162 0.532384 0.536409
Si Si3 0.248928 0.926731 0.763912
Si Si4 0.117952 0.842167 0.305530
Si Si5 0.950016 0.368786 0.789888
Si Si6 0.773206 0.620720 0.975175
Si Si7 0.670313 0.780445 0.576826
Si Si8 0.347061 0.380628 0.688661
O O1 0.095631 0.400919 0.043918
O O2 0.178573 0.360585 0.075872
O O3 0.124615 0.231243 0.234004
O O4 0.127117 0.189008 0.969172
O O5 0.922687 0.477966 0.693640
O O6 0.945947 0.606261 0.454129
O O7 0.864342 0.614625 0.497312
O O8 0.272466 0.947424 0.624350
O O9 0.281269 0.840053 0.870897
O O10 0.198113 0.879404 0.733684
O O11 0.243657 0.051568 0.850035
O O12 0.072138 0.767423 0.249652
O O13 0.152383 0.768971 0.217868
O O14 0.126501 0.989444 0.292188
O O15 0.000000 0.372734 0.750000
O O16 0.750000 0.750000 0.000000
O O17 0.668830 0.664411 0.469681
#
# Coordination Sequence:
#
# PCOD9281870 Si02
#       8
#     8   8   8   8   8   8   8   8
#     4  11  21  40  61  81 125 165 203 264 317 360
#     4  10  21  38  65  95 124 154 198 257 326 385
#     4  12  27  37  62  84 127 168 222 266 305 354
#     4  10  23  41  60  86 126 164 207 254 317 382
#     4  10  21  40  69  96 124 155 198 261 327 392
#     4  12  25  42  56  86 126 166 217 270 310 356
#     4  11  23  40  59  88 125 165 217 260 312 368
#     4  12  25  37  60  86 122 174 222 254 302 365
#
# _framework density 20.949321000000001
#
# number of rings (size 3 to 8) (size 9 to 14) (size 15 to 20)
#    0.000    1.000    3.750    3.000    3.500    0.000 
#    0.000    0.000    0.000   15.000    0.000    0.000 
#    0.000    0.000    0.000    0.000    0.000    0.000 
#
# Total GULP energy -178582.967144 kJ/mol
# GULP energy per Si atom -5580.717723 kJ/mol
# Density = 2.090164 g / cm^3
# Si number density = 20.949321 Si / 1000 Ang^3
#
#
#
# Elastic Constant Matrix: (Units=GPa)
#
#
# Indices 1 2 3 4 5 6 
#
# 1 33.8641 15.1630 -8.1952 0.0000 -3.0959 0.0000
# 2 15.1630 90.9242 27.1000 0.0000 -0.5380 0.0000
# 3 -8.1952 27.1000 85.8633 0.0000 -0.6526 0.0000
# 4 0.0000 0.0000 0.0000 31.8895 0.0000 6.9902
# 5 -3.0959 -0.5380 -0.6526 0.0000 14.6088 0.0000
# 6 0.0000 0.0000 0.0000 6.9902 0.0000 14.0837
#
#
#
# Elastic Compliance Matrix: (Units=1/GPa)
#
#
# Indices 1 2 3 4 5 6 
#
# 1 0.034959 -0.007503 0.005761 0.000000 0.007390 0.000000
# 2 -0.007503 0.013752 -0.005066 0.000000 -0.001310 0.000000
# 3 0.005761 -0.005066 0.013808 0.000000 0.001651 0.000000
# 4 0.000000 0.000000 0.000000 0.035186 0.000000 -0.017464
# 5 0.007390 -0.001310 0.001651 0.000000 0.070043 0.000000
# 6 0.000000 0.000000 0.000000 -0.017464 0.000000 0.079672
#
#
# Mechanical properties :
#
#
# Convention : Reuss Voigt Hill
#
# Bulk Modulus (GPa) = 20.44926 30.97634 25.71280
# Shear Modulus (GPa) = 18.02848 23.88865 20.95856
#
# Velocity S-wave (km/s) = 2.93674 3.38051 3.16641
# Velocity P-wave (km/s) = 4.61321 5.48229 5.06642
#
# Compressibility (1/GPa) = 0.04890153
#
# Stress axis : x y z
#
# Youngs Moduli (GPa) = 28.60470 72.71787 72.42231
#
# Poissons Ratio (x) = 0.54563 -0.41723
# Poissons Ratio (y) = 0.21463 0.36692
# Poissons Ratio (z) = -0.16479 0.36842
#
# Static dielectric constant tensor:
#      x y z
#    x 1.666810 0.000000 -0.102660 
#    y 0.000000 1.808670 0.000000 
#    z -0.102660 0.000000 1.679280 
# 
# From -- ./inp_files/69363.got.cif
#   From: 2010.05.17/outbox.cif.g08.bks.cpg/sg15_35_cif.got.tgz:69363.got - 2010.06.03 18:47:42.
