data_PCOD9281194
_publ_section_title
;
Structure prediction by ZEFSAII (Michael W. Deem and Ramdas Pophale) SiO2 
 PCOD9281194
Probable space group: C 2/C
;
_chemical_formula_sum "Si O2"
_cell_formula_units_Z 56
_cell_length_a 19.454095
_cell_length_b 11.778459
_cell_length_c 12.520401
_cell_angle_alpha 90.000000
_cell_angle_beta 115.578901
_cell_angle_gamma 90.000000
_cell_volume 2587.737555
_symmetry_space_group_name_H-M "C 2/C"
_symmetry_group_IT_number 15
_symmetry_cell_setting 'monoclinic'
loop_
_space_group_symop_operation_xyz
x,y,z
-x,y,1/2-z
-x,-y,-z
x,-y,1/2+z
1/2+x,1/2+y,z
1/2-x,1/2+y,1/2-z
1/2-x,1/2-y,-z
1/2+x,1/2-y,1/2+z
loop_
_atom_site_type_symbol
_atom_site_label
_atom_site_fract_x
_atom_site_fract_y
_atom_site_fract_z
Si Si1 0.442041 0.226330 0.971467
Si Si2 0.561002 0.645519 0.696305
Si Si3 0.377992 0.965958 0.324370
Si Si4 0.758423 0.887483 0.384551
Si Si5 0.700860 0.138305 0.084482
Si Si6 0.344263 0.434685 0.824513
Si Si7 0.408420 0.146887 0.172697
O O1 0.447207 0.119837 0.894299
O O2 0.393493 0.326915 0.888902
O O3 0.515302 0.288491 0.071637
O O4 0.397145 0.167369 0.040628
O O5 0.500000 0.619126 0.750000
O O6 0.602632 0.532154 0.689973
O O7 0.617834 0.738991 0.784588
O O8 0.302940 0.889976 0.252886
O O9 0.363801 0.059390 0.406760
O O10 0.381716 0.038006 0.218005
O O11 0.717118 0.881838 0.470836
O O12 0.808852 0.773672 0.408938
O O13 0.806441 0.002096 0.400809
O O14 0.777388 0.102989 0.199862
O O15 0.500000 0.143694 0.250000
#
# Coordination Sequence:
#
# PCOD9281194 Si02
#       7
#     8   8   8   8   8   8   8
#     4  10  21  38  59  89 119 149 205 246 290 368
#     4   9  21  38  60  87 120 154 197 246 298 357
#     4  11  20  39  60  85 117 156 193 246 301 348
#     4  10  22  38  57  87 119 155 196 247 290 350
#     4  10  22  38  57  85 120 155 197 244 290 355
#     4  11  21  38  62  86 118 162 194 246 303 349
#     4   9  21  38  59  85 114 152 198 246 295 360
#
# _framework density 21.640523999999999
#
# number of rings (size 3 to 8) (size 9 to 14) (size 15 to 20)
#    0.000    2.286    1.429    2.143    4.000    2.286 
#    0.000    5.714    0.000    0.000    0.000    0.000 
#    0.000    0.000    0.000    0.000    0.000    0.000 
#
# Total GULP energy -156211.284927 kJ/mol
# GULP energy per Si atom -5578.974462 kJ/mol
# Density = 2.159127 g / cm^3
# Si number density = 21.640524 Si / 1000 Ang^3
#
#
#
# Elastic Constant Matrix: (Units=GPa)
#
#
# Indices 1 2 3 4 5 6 
#
# 1 25.3765 10.7428 -4.3444 0.0000 -0.9932 0.0000
# 2 10.7428 131.4423 32.6847 0.0000 -2.7521 0.0000
# 3 -4.3444 32.6847 54.2315 0.0000 -1.6956 0.0000
# 4 0.0000 0.0000 0.0000 47.4454 0.0000 -11.3983
# 5 -0.9932 -2.7521 -1.6956 0.0000 21.8107 0.0000
# 6 0.0000 0.0000 0.0000 -11.3983 0.0000 28.2574
#
#
#
# Elastic Compliance Matrix: (Units=1/GPa)
#
#
# Indices 1 2 3 4 5 6 
#
# 1 0.042750 -0.005084 0.006545 0.000000 0.001814 0.000000
# 2 -0.005084 0.009565 -0.006156 0.000000 0.000497 0.000000
# 3 0.006545 -0.006156 0.022714 0.000000 0.001287 0.000000
# 4 0.000000 0.000000 0.000000 0.023339 0.000000 0.009414
# 5 0.001814 0.000497 0.001287 0.000000 0.046094 0.000000
# 6 0.000000 0.000000 0.000000 0.009414 0.000000 0.039186
#
#
# Mechanical properties :
#
#
# Convention : Reuss Voigt Hill
#
# Bulk Modulus (GPa) = 15.23465 32.13518 23.68491
# Shear Modulus (GPa) = 23.26477 30.96718 27.11598
#
# Velocity S-wave (km/s) = 3.28236 3.78693 3.54364
# Velocity P-wave (km/s) = 4.62821 5.83120 5.26419
#
# Compressibility (1/GPa) = 0.06563985
#
# Stress axis : x y z
#
# Youngs Moduli (GPa) = 23.39174 104.55243 44.02523
#
# Poissons Ratio (x) = 0.53149 -0.28815
# Poissons Ratio (y) = 0.11891 0.27103
# Poissons Ratio (z) = -0.15310 0.64364
#
# Static dielectric constant tensor:
#      x y z
#    x 1.831430 0.000000 -0.026460 
#    y 0.000000 1.814380 0.000000 
#    z -0.026460 0.000000 1.794860 
# 
# From -- ./inp_files/111681.got.cif
#   From: 2010.05.17/outbox.cif.g08.bks.cpg/sg15_56_cif.got.tgz:111681.got - 2010.06.03 18:47:42.
