data_PCOD9281244
_publ_section_title
;
Structure prediction by ZEFSAII (Michael W. Deem and Ramdas Pophale) SiO2 
 PCOD9281244
Probable space group: C 2/C
;
_chemical_formula_sum "Si O2"
_cell_formula_units_Z 64
_cell_length_a 17.938538
_cell_length_b 21.715536
_cell_length_c 14.762728
_cell_angle_alpha 90.000000
_cell_angle_beta 30.128055
_cell_angle_gamma 90.000000
_cell_volume 2886.496871
_symmetry_space_group_name_H-M "C 2/C"
_symmetry_group_IT_number 15
_symmetry_cell_setting 'monoclinic'
loop_
_space_group_symop_operation_xyz
x,y,z
-x,y,1/2-z
-x,-y,-z
x,-y,1/2+z
1/2+x,1/2+y,z
1/2-x,1/2+y,1/2-z
1/2-x,1/2-y,-z
1/2+x,1/2-y,1/2+z
loop_
_atom_site_type_symbol
_atom_site_label
_atom_site_fract_x
_atom_site_fract_y
_atom_site_fract_z
Si Si1 0.582297 0.629778 0.078227
Si Si2 0.458291 0.889617 0.017397
Si Si3 0.377839 0.369495 0.161715
Si Si4 0.663432 0.222241 0.316759
Si Si5 0.383192 0.926985 0.293122
Si Si6 0.891241 0.842100 0.439497
Si Si7 0.874295 0.733602 0.941104
Si Si8 0.356063 0.935917 0.837176
O O1 0.500000 0.601343 0.250000
O O2 0.547782 0.702317 0.110652
O O3 0.561984 0.606025 0.998271
O O4 0.754411 0.623065 0.922424
O O5 0.291097 0.893612 0.154145
O O6 0.460566 0.918299 0.114827
O O7 0.514772 0.818621 0.957230
O O8 0.577353 0.924051 0.831889
O O9 0.361539 0.294713 0.172821
O O10 0.496387 0.380848 0.115230
O O11 0.691663 0.209165 0.394717
O O12 0.791516 0.199249 0.112836
O O13 0.500000 0.924097 0.250000
O O14 0.306498 0.993445 0.388805
O O15 0.773814 0.886567 0.512599
O O16 0.000000 0.810885 0.250000
O O17 0.000000 0.699494 0.750000
O O18 0.750000 0.750000 0.000000
O O19 0.500000 0.927228 0.750000
#
# Coordination Sequence:
#
# PCOD9281244 Si02
#       8
#     8   8   8   8   8   8   8   8
#     4   9  21  36  53  87 127 158 188 239 296 357
#     4  10  21  38  60  86 121 158 195 254 296 357
#     4  10  21  39  59  86 123 156 197 242 297 362
#     4  10  23  37  59  89 128 162 199 242 292 360
#     4  10  22  37  61  87 116 155 202 251 297 364
#     4  11  24  40  63  87 113 161 210 255 305 356
#     4  10  23  34  58  89 128 170 199 231 290 367
#     4  10  22  43  63  84 111 149 205 262 313 352
#
# _framework density 22.172205000000002
#
# number of rings (size 3 to 8) (size 9 to 14) (size 15 to 20)
#    0.000    2.000    0.000    1.875   12.250    2.000 
#    0.000    5.625    0.000    0.000    0.000    0.000 
#    0.000    0.000    0.000    0.000    0.000    0.000 
#
# Total GULP energy -178468.750672 kJ/mol
# GULP energy per Si atom -5577.148458 kJ/mol
# Density = 2.212174 g / cm^3
# Si number density = 22.172205 Si / 1000 Ang^3
#
#
#
# Elastic Constant Matrix: (Units=GPa)
#
#
# Indices 1 2 3 4 5 6 
#
# 1 93.8395 -5.7396 37.2588 -0.0028 -3.2303 0.0012
# 2 -5.7396 56.0858 3.7531 -0.0012 0.1621 0.0010
# 3 37.2588 3.7531 116.6867 -0.0053 28.3607 0.0029
# 4 -0.0028 -0.0012 -0.0053 12.2270 0.0030 -0.4656
# 5 -3.2303 0.1621 28.3607 0.0030 33.5880 -0.0013
# 6 0.0012 0.0010 0.0029 -0.4656 -0.0013 8.3261
#
#
#
# Elastic Compliance Matrix: (Units=1/GPa)
#
#
# Indices 1 2 3 4 5 6 
#
# 1 0.013273 0.001728 -0.005790 -0.000001 0.006157 0.000001
# 2 0.001728 0.018100 -0.001451 0.000001 0.001304 -0.000002
# 3 -0.005790 -0.001451 0.013336 0.000007 -0.011810 -0.000005
# 4 -0.000001 0.000001 0.000007 0.081960 -0.000013 0.004583
# 5 0.006157 0.001304 -0.011810 -0.000013 0.040331 0.000009
# 6 0.000001 -0.000002 -0.000005 0.004583 0.000009 0.120361
#
#
# Mechanical properties :
#
#
# Convention : Reuss Voigt Hill
#
# Bulk Modulus (GPa) = 29.68870 37.46186 33.57528
# Shear Modulus (GPa) = 16.14908 26.25087 21.19998
#
# Velocity S-wave (km/s) = 2.70172 3.44460 3.09552
# Velocity P-wave (km/s) = 4.81160 5.72301 5.28698
#
# Compressibility (1/GPa) = 0.03368284
#
# Stress axis : x y z
#
# Youngs Moduli (GPa) = 75.33990 55.24868 74.98484
#
# Poissons Ratio (x) = -0.09547 0.43419
# Poissons Ratio (y) = -0.13019 0.10879
# Poissons Ratio (z) = 0.43624 0.08016
#
# Static dielectric constant tensor:
#      x y z
#    x 1.655860 0.000000 -0.364960 
#    y 0.000000 1.862920 0.000010 
#    z -0.364960 0.000010 1.015950 
# 
# From -- ./inp_files/164237.got.cif
#   From: 2010.05.17/outbox.cif.g08.bks.cpg/sg15_83_cif.got.tgz:164237.got - 2010.06.03 18:47:42.
