data_PCOD9281975
_publ_section_title
;
Structure prediction by ZEFSAII (Michael W. Deem and Ramdas Pophale) SiO2 
 PCOD9281975
Probable space group: C 2/C
;
_chemical_formula_sum "Si O2"
_cell_formula_units_Z 32
_cell_length_a 22.058106
_cell_length_b 4.919355
_cell_length_c 15.587121
_cell_angle_alpha 90.000000
_cell_angle_beta 131.494995
_cell_angle_gamma 90.000000
_cell_volume 1266.869830
_symmetry_space_group_name_H-M "C 2/C"
_symmetry_group_IT_number 15
_symmetry_cell_setting 'monoclinic'
loop_
_space_group_symop_operation_xyz
x,y,z
-x,y,1/2-z
-x,-y,-z
x,-y,1/2+z
1/2+x,1/2+y,z
1/2-x,1/2+y,1/2-z
1/2-x,1/2-y,-z
1/2+x,1/2-y,1/2+z
loop_
_atom_site_type_symbol
_atom_site_label
_atom_site_fract_x
_atom_site_fract_y
_atom_site_fract_z
Si Si1 0.311466 0.977747 0.649206
Si Si2 0.019011 0.822667 0.176646
Si Si3 0.048705 0.345049 0.471468
Si Si4 0.219210 0.475177 0.585488
O O1 0.392822 0.812765 0.745033
O O2 0.508278 0.443507 0.914261
O O3 0.241145 0.786671 0.622120
O O4 0.300356 0.015765 0.535798
O O5 0.962688 0.558543 0.116683
O O6 0.202958 0.220571 0.329151
O O7 0.000000 0.954786 0.250000
O O8 0.000000 0.500000 0.500000
O O9 0.145339 0.350128 0.570081
#
# Coordination Sequence:
#
# PCOD9281975 Si02
#       4
#     8   8   8   8
#     4  10  21  38  66  99 130 166 227 287 320 392
#     4  12  24  42  69 103 132 177 241 284 326 402
#     4  12  26  44  66  99 143 182 219 280 355 411
#     4  10  21  39  64  98 135 172 216 276 347 392
#
# _framework density 25.259107
#
# number of rings (size 3 to 8) (size 9 to 14) (size 15 to 20)
#    0.000    1.000    2.500    4.500    7.000    0.000 
#    0.000    5.000    0.000    0.000    0.000    0.000 
#    0.000    0.000    0.000    0.000    0.000    0.000 
#
# Total GULP energy -89387.394023 kJ/mol
# GULP energy per Si atom -5586.712126 kJ/mol
# Density = 2.520162 g / cm^3
# Si number density = 25.259107 Si / 1000 Ang^3
#
#
#
# Elastic Constant Matrix: (Units=GPa)
#
#
# Indices 1 2 3 4 5 6 
#
# 1 116.5313 45.1422 37.7004 0.0003 20.9226 -0.0006
# 2 45.1422 169.7760 28.7043 0.0009 15.7230 -0.0008
# 3 37.7004 28.7043 37.7017 0.0003 15.3419 -0.0004
# 4 0.0003 0.0009 0.0003 41.2996 0.0000 13.1931
# 5 20.9226 15.7230 15.3419 0.0000 39.8257 0.0000
# 6 -0.0006 -0.0008 -0.0004 13.1931 0.0000 20.9420
#
#
#
# Elastic Compliance Matrix: (Units=1/GPa)
#
#
# Indices 1 2 3 4 5 6 
#
# 1 0.013120 -0.001403 -0.011233 0.000000 -0.002012 0.000000
# 2 -0.001403 0.006933 -0.003630 0.000000 -0.000601 0.000000
# 3 -0.011233 -0.003630 0.044514 0.000000 -0.009813 0.000001
# 4 0.000000 0.000000 0.000000 0.030314 0.000000 -0.019097
# 5 -0.002012 -0.000601 -0.009813 0.000000 0.030184 0.000000
# 6 0.000000 0.000000 0.000001 -0.019097 0.000000 0.059782
#
#
# Mechanical properties :
#
#
# Convention : Reuss Voigt Hill
#
# Bulk Modulus (GPa) = 31.21696 60.78919 46.00308
# Shear Modulus (GPa) = 21.92428 34.57761 28.25094
#
# Velocity S-wave (km/s) = 2.94934 3.70390 3.34795
# Velocity P-wave (km/s) = 4.89731 6.51232 5.76168
#
# Compressibility (1/GPa) = 0.03203387
#
# Stress axis : x y z
#
# Youngs Moduli (GPa) = 76.21840 144.24420 22.46484
#
# Poissons Ratio (x) = 0.20239 0.25235
# Poissons Ratio (y) = 0.10694 0.08156
# Poissons Ratio (z) = 0.85616 0.52367
#
# Static dielectric constant tensor:
#      x y z
#    x 2.201310 0.000000 -0.062770 
#    y 0.000000 1.911250 0.000000 
#    z -0.062770 0.000000 2.191220 
# 
# From -- ./inp_files/110215.got.cif
#   From: 2010.05.17/outbox.cif.g08.bks.cpg/sg15_56_cif.got.tgz:110215.got - 2010.06.03 18:47:42.
