data_PCOD9281007
_publ_section_title
;
Structure prediction by ZEFSAII (Michael W. Deem and Ramdas Pophale) SiO2 
 PCOD9281007
Probable space group: C 2/C
;
_chemical_formula_sum "Si O2"
_cell_formula_units_Z 40
_cell_length_a 13.456705
_cell_length_b 28.128430
_cell_length_c 7.977729
_cell_angle_alpha 90.000000
_cell_angle_beta 137.296801
_cell_angle_gamma 90.000000
_cell_volume 2047.961266
_symmetry_space_group_name_H-M "C 2/C"
_symmetry_group_IT_number 15
_symmetry_cell_setting 'monoclinic'
loop_
_space_group_symop_operation_xyz
x,y,z
-x,y,1/2-z
-x,-y,-z
x,-y,1/2+z
1/2+x,1/2+y,z
1/2-x,1/2+y,1/2-z
1/2-x,1/2-y,-z
1/2+x,1/2-y,1/2+z
loop_
_atom_site_type_symbol
_atom_site_label
_atom_site_fract_x
_atom_site_fract_y
_atom_site_fract_z
Si Si1 0.336377 0.401525 0.484275
Si Si2 0.875050 0.632549 0.487064
Si Si3 0.121804 0.197640 0.655363
Si Si4 0.809180 0.785360 0.866309
Si Si5 0.550203 0.051922 0.503333
O O1 0.248881 0.387540 0.543877
O O2 0.347377 0.355027 0.377036
O O3 0.500000 0.416211 0.750000
O O4 0.223632 0.438150 0.252591
O O5 0.803899 0.671647 0.284844
O O6 0.958656 0.590522 0.495800
O O7 0.000000 0.657655 0.750000
O O8 0.231475 0.236573 0.716557
O O9 0.949022 0.206529 0.421058
O O10 0.144991 0.209442 0.881952
O O11 0.500000 0.057793 0.250000
O O12 0.500000 0.000000 0.500000
#
# Coordination Sequence:
#
# PCOD9281007 Si02
#       5
#     8   8   8   8   8
#     4  11  22  41  64  96 130 165 212 269 318 371
#     4  10  22  38  61  89 124 162 208 260 318 381
#     4  10  22  36  59  85 129 171 218 262 309 375
#     4  10  21  38  55  88 124 174 221 256 312 372
#     4  11  24  46  71  95 125 165 209 259 327 396
#
# _framework density 19.53162
#
# number of rings (size 3 to 8) (size 9 to 14) (size 15 to 20)
#    0.000    1.600    2.000    3.000    5.600    1.600 
#    0.000    4.000    0.000    0.000    0.000    0.000 
#    0.000    0.000    0.000    0.000    0.000    0.000 
#
# Total GULP energy -111465.678972 kJ/mol
# GULP energy per Si atom -5573.283949 kJ/mol
# Density = 1.948717 g / cm^3
# Si number density = 19.531620 Si / 1000 Ang^3
#
#
#
# Elastic Constant Matrix: (Units=GPa)
#
#
# Indices 1 2 3 4 5 6 
#
# 1 76.8560 19.0944 37.6139 0.0000 23.6978 0.0000
# 2 19.0944 103.2397 54.3492 0.0000 25.6154 0.0000
# 3 37.6139 54.3492 127.2864 0.0000 32.8944 0.0000
# 4 0.0000 0.0000 0.0000 3.6779 0.0000 -6.4319
# 5 23.6978 25.6154 32.8944 0.0000 36.3669 0.0000
# 6 0.0000 0.0000 0.0000 -6.4319 0.0000 22.4950
#
#
#
# Elastic Compliance Matrix: (Units=1/GPa)
#
#
# Indices 1 2 3 4 5 6 
#
# 1 0.017057 0.000628 -0.003030 0.000000 -0.008816 0.000000
# 2 0.000628 0.013316 -0.004361 0.000000 -0.005844 0.000000
# 3 -0.003030 -0.004361 0.012150 0.000000 -0.005943 0.000000
# 4 0.000000 0.000000 0.000000 0.543812 0.000000 0.155490
# 5 -0.008816 -0.005844 -0.005943 0.000000 0.042734 0.000000
# 6 0.000000 0.000000 0.000000 0.155490 0.000000 0.088913
#
#
# Mechanical properties :
#
#
# Convention : Reuss Voigt Hill
#
# Bulk Modulus (GPa) = 34.48769 58.83299 46.66034
# Shear Modulus (GPa) = 6.74606 25.59627 16.17116
#
# Velocity S-wave (km/s) = 1.86049 3.62402 2.88053
# Velocity P-wave (km/s) = 4.72344 6.90642 5.91648
#
# Compressibility (1/GPa) = 0.02899586
#
# Stress axis : x y z
#
# Youngs Moduli (GPa) = 58.62802 75.09894 82.30637
#
# Poissons Ratio (x) = -0.04716 0.24940
# Poissons Ratio (y) = -0.03681 0.35894
# Poissons Ratio (z) = 0.17765 0.32751
#
# Static dielectric constant tensor:
#      x y z
#    x 1.631740 0.000000 0.130770 
#    y 0.000000 1.678200 0.000000 
#    z 0.130770 0.000000 1.483700 
# 
# From -- ./inp_files/33315.got.cif
#   From: 2010.05.17/outbox.cif.g08.bks.cpg/sg15_17_cif.got.tgz:33315.got - 2010.06.03 18:47:42.
