data_PCOD9281061
_publ_section_title
;
Structure prediction by ZEFSAII (Michael W. Deem and Ramdas Pophale) SiO2 
 PCOD9281061
Probable space group: C 2/C
;
_chemical_formula_sum "Si O2"
_cell_formula_units_Z 36
_cell_length_a 21.935242
_cell_length_b 5.168413
_cell_length_c 32.300639
_cell_angle_alpha 90.000000
_cell_angle_beta 158.071580
_cell_angle_gamma 90.000000
_cell_volume 1367.542559
_symmetry_space_group_name_H-M "C 2/C"
_symmetry_group_IT_number 15
_symmetry_cell_setting 'monoclinic'
loop_
_space_group_symop_operation_xyz
x,y,z
-x,y,1/2-z
-x,-y,-z
x,-y,1/2+z
1/2+x,1/2+y,z
1/2-x,1/2+y,1/2-z
1/2-x,1/2-y,-z
1/2+x,1/2-y,1/2+z
loop_
_atom_site_type_symbol
_atom_site_label
_atom_site_fract_x
_atom_site_fract_y
_atom_site_fract_z
Si Si1 0.500000 0.512792 0.250000
Si Si2 0.459202 0.025935 0.127876
Si Si3 0.781424 0.847528 0.243120
Si Si4 0.712464 0.621112 0.536554
Si Si5 0.241587 0.359763 0.853216
O O1 0.636411 0.690864 0.356214
O O2 0.394053 0.328478 0.212621
O O3 0.309041 0.057897 0.064586
O O4 0.530799 0.284825 0.151759
O O5 0.623335 0.932287 0.255830
O O6 0.409505 0.816902 0.062561
O O7 0.745630 0.619956 0.253163
O O8 0.681604 0.790358 0.137518
O O9 0.662571 0.478473 0.547766
#
# Coordination Sequence:
#
# PCOD9281061 Si02
#       5
#     4   8   8   8   8
#     4  12  18  34  64  86 124 158 194 268 322 372
#     4   9  21  39  62  90 124 161 206 257 319 373
#     4  10  23  43  65  86 127 175 212 255 309 374
#     4  11  20  39  61  95 124 152 209 262 324 374
#     4  10  21  38  57  91 118 161 206 253 317 362
#
# _framework density 26.324593
#
# number of rings (size 3 to 8) (size 9 to 14) (size 15 to 20)
#    1.333    0.444    4.444    0.000    6.222    0.889 
#    4.000    2.222    0.000    0.000    0.000    0.000 
#    0.000    0.000    0.000    0.000    0.000    0.000 
#
# Total GULP energy -100611.100001 kJ/mol
# GULP energy per Si atom -5589.505556 kJ/mol
# Density = 2.626468 g / cm^3
# Si number density = 26.324593 Si / 1000 Ang^3
#
#
#
# Elastic Constant Matrix: (Units=GPa)
#
#
# Indices 1 2 3 4 5 6 
#
# 1 138.7724 31.1322 22.9567 0.1760 -27.2828 -0.1011
# 2 31.1322 78.7303 19.9412 0.2046 -10.6719 -0.0984
# 3 22.9567 19.9412 76.1486 -0.1489 -24.1557 -0.0133
# 4 0.1760 0.2046 -0.1489 32.2116 -0.0356 -2.3684
# 5 -27.2828 -10.6719 -24.1557 -0.0356 56.0556 0.0566
# 6 -0.1011 -0.0984 -0.0133 -2.3684 0.0566 34.7301
#
#
#
# Elastic Compliance Matrix: (Units=1/GPa)
#
#
# Indices 1 2 3 4 5 6 
#
# 1 0.008610 -0.002746 -0.000826 -0.000029 0.003312 0.000010
# 2 -0.002746 0.014553 -0.002929 -0.000089 0.000172 0.000026
# 3 -0.000826 -0.002929 0.016036 0.000103 0.005951 -0.000007
# 4 -0.000029 -0.000089 0.000103 0.031202 0.000031 0.002127
# 5 0.003312 0.000172 0.005951 0.000031 0.022048 -0.000021
# 6 0.000010 0.000026 -0.000007 0.002127 -0.000021 0.028939
#
#
# Mechanical properties :
#
#
# Convention : Reuss Voigt Hill
#
# Bulk Modulus (GPa) = 38.17269 49.07906 43.62587
# Shear Modulus (GPa) = 34.93500 39.24086 37.08793
#
# Velocity S-wave (km/s) = 3.64687 3.86509 3.75756
# Velocity P-wave (km/s) = 5.68024 6.21312 5.95264
#
# Compressibility (1/GPa) = 0.02619674
#
# Stress axis : x y z
#
# Youngs Moduli (GPa) = 116.14472 68.71457 62.35934
#
# Poissons Ratio (x) = 0.18872 0.05151
# Poissons Ratio (y) = 0.31898 0.18263
# Poissons Ratio (z) = 0.09593 0.20125
#
# Static dielectric constant tensor:
#      x y z
#    x 2.198920 -0.000080 -0.077950 
#    y -0.000080 2.082270 0.000080 
#    z -0.077950 0.000080 2.224930 
# 
# From -- ./inp_files/212480.got.cif
#   From: 2010.05.17/outbox.cif.g08.bks.cpg/sg15_107_cif.got.tgz:212480.got - 2010.06.03 18:47:42.
