data_PCOD9281020
_publ_section_title
;
Structure prediction by ZEFSAII (Michael W. Deem and Ramdas Pophale) SiO2 
 PCOD9281020
Probable space group: C 2/C
;
_chemical_formula_sum "Si O2"
_cell_formula_units_Z 56
_cell_length_a 9.269758
_cell_length_b 10.582582
_cell_length_c 27.506155
_cell_angle_alpha 90.000000
_cell_angle_beta 120.502179
_cell_angle_gamma 90.000000
_cell_volume 2324.880227
_symmetry_space_group_name_H-M "C 2/C"
_symmetry_group_IT_number 15
_symmetry_cell_setting 'monoclinic'
loop_
_space_group_symop_operation_xyz
x,y,z
-x,y,1/2-z
-x,-y,-z
x,-y,1/2+z
1/2+x,1/2+y,z
1/2-x,1/2+y,1/2-z
1/2-x,1/2-y,-z
1/2+x,1/2-y,1/2+z
loop_
_atom_site_type_symbol
_atom_site_label
_atom_site_fract_x
_atom_site_fract_y
_atom_site_fract_z
Si Si1 0.643941 0.126000 0.968709
Si Si2 0.539429 0.530425 0.630791
Si Si3 0.826253 0.355523 0.248182
Si Si4 0.658123 0.452513 0.556581
Si Si5 0.599814 0.880949 0.716499
Si Si6 0.823312 0.502683 0.423596
Si Si7 0.947186 0.704462 0.090022
O O1 0.708426 0.066431 0.929275
O O2 0.441897 0.118413 0.933961
O O3 0.750000 0.250000 0.000000
O O4 0.687788 0.030799 0.020744
O O5 0.688651 0.579164 0.689500
O O6 0.606398 0.430822 0.603301
O O7 0.366615 0.496909 0.627937
O O8 0.485416 0.650676 0.589199
O O9 0.749599 0.220437 0.250073
O O10 0.854348 0.473796 0.289491
O O11 0.000000 0.332032 0.250000
O O12 0.500000 0.500000 0.500000
O O13 0.755888 0.334643 0.550948
O O14 0.500000 0.887405 0.750000
O O15 0.490048 0.826294 0.653773
O O16 0.927271 0.619191 0.419416
#
# Coordination Sequence:
#
# PCOD9281020 Si02
#       7
#     8   8   8   8   8   8   8
#     4  10  21  38  56  83 118 160 204 248 295 351
#     4  11  23  40  63  91 123 165 206 258 316 368
#     4  10  23  42  65  94 128 162 206 266 321 386
#     4  11  21  36  59  88 122 165 209 247 305 366
#     4  10  22  43  66  92 125 163 211 261 323 388
#     4  10  22  39  57  85 120 153 204 251 292 364
#     4  10  24  41  59  90 126 158 205 263 309 373
#
# _framework density 24.087263
#
# number of rings (size 3 to 8) (size 9 to 14) (size 15 to 20)
#    0.000    1.714    1.429    2.571    2.000    5.714 
#    0.000    2.857    0.000    0.000    0.000    0.000 
#    0.000    0.000    0.000    0.000    0.000    0.000 
#
# Total GULP energy -156402.681020 kJ/mol
# GULP energy per Si atom -5585.810036 kJ/mol
# Density = 2.403244 g / cm^3
# Si number density = 24.087263 Si / 1000 Ang^3
#
#
#
# Elastic Constant Matrix: (Units=GPa)
#
#
# Indices 1 2 3 4 5 6 
#
# 1 147.6741 34.9939 13.7157 0.0000 27.6783 0.0000
# 2 34.9939 100.6570 -18.5835 0.0000 4.4131 0.0000
# 3 13.7157 -18.5835 49.8396 0.0000 8.5440 0.0000
# 4 0.0000 0.0000 0.0000 30.6410 0.0000 4.5534
# 5 27.6783 4.4131 8.5440 0.0000 38.4093 0.0000
# 6 0.0000 0.0000 0.0000 4.5534 0.0000 39.3864
#
#
#
# Elastic Compliance Matrix: (Units=1/GPa)
#
#
# Indices 1 2 3 4 5 6 
#
# 1 0.008824 -0.003341 -0.002755 0.000000 -0.005362 0.000000
# 2 -0.003341 0.012115 0.005471 0.000000 -0.000201 0.000000
# 3 -0.002755 0.005471 0.023527 0.000000 -0.003877 0.000000
# 4 0.000000 0.000000 0.000000 0.033206 0.000000 -0.003839
# 5 -0.005362 -0.000201 -0.003877 0.000000 0.030785 0.000000
# 6 0.000000 0.000000 0.000000 -0.003839 0.000000 0.025833
#
#
# Mechanical properties :
#
#
# Convention : Reuss Voigt Hill
#
# Bulk Modulus (GPa) = 23.13911 39.82479 31.48195
# Shear Modulus (GPa) = 33.34500 39.55697 36.45098
#
# Velocity S-wave (km/s) = 3.72471 4.05685 3.89432
# Velocity P-wave (km/s) = 5.30332 6.20592 5.77229
#
# Compressibility (1/GPa) = 0.04321687
#
# Stress axis : x y z
#
# Youngs Moduli (GPa) = 113.32225 82.53991 42.50387
#
# Poissons Ratio (x) = 0.27580 0.11710
# Poissons Ratio (y) = 0.37866 -0.23256
# Poissons Ratio (z) = 0.31221 -0.45161
#
# Static dielectric constant tensor:
#      x y z
#    x 1.967170 0.000000 0.036160 
#    y 0.000000 1.955940 0.000000 
#    z 0.036160 0.000000 1.955540 
# 
# From -- ./inp_files/307548.got.cif
#   From: 2010.05.17/outbox.cif.g08.bks.cpg/sg15_154_cif.got.tgz:307548.got - 2010.06.03 18:47:42.
