data_PCOD9281679
_publ_section_title
;
Structure prediction by ZEFSAII (Michael W. Deem and Ramdas Pophale) SiO2 
 PCOD9281679
Probable space group: C 2/C
;
_chemical_formula_sum "Si O2"
_cell_formula_units_Z 40
_cell_length_a 17.889926
_cell_length_b 6.749578
_cell_length_c 26.458697
_cell_angle_alpha 90.000000
_cell_angle_beta 149.838744
_cell_angle_gamma 90.000000
_cell_volume 1605.217362
_symmetry_space_group_name_H-M "C 2/C"
_symmetry_group_IT_number 15
_symmetry_cell_setting 'monoclinic'
loop_
_space_group_symop_operation_xyz
x,y,z
-x,y,1/2-z
-x,-y,-z
x,-y,1/2+z
1/2+x,1/2+y,z
1/2-x,1/2+y,1/2-z
1/2-x,1/2-y,-z
1/2+x,1/2-y,1/2+z
loop_
_atom_site_type_symbol
_atom_site_label
_atom_site_fract_x
_atom_site_fract_y
_atom_site_fract_z
Si Si1 0.661190 0.438884 0.571586
Si Si2 0.177271 0.401935 0.159713
Si Si3 0.653939 0.709532 0.361999
Si Si4 0.420110 0.911478 0.076227
Si Si5 0.543659 0.720140 0.621361
O O1 0.500000 0.500000 0.500000
O O2 0.705388 0.242852 0.629130
O O3 0.778666 0.617177 0.634852
O O4 0.606076 0.383789 0.483465
O O5 0.324436 0.408603 0.279683
O O6 0.111351 0.626751 0.117611
O O7 0.048093 0.304843 0.118451
O O8 0.500000 0.626311 0.250000
O O9 0.616248 0.804765 0.393938
O O10 0.786934 0.566338 0.457664
O O11 0.492198 0.120908 0.132473
#
# Coordination Sequence:
#
# PCOD9281679 Si02
#       5
#     8   8   8   8   8
#     4  12  22  39  65  93 124 166 216 263 306 380
#     4  10  21  38  63  96 122 163 208 261 320 368
#     4  11  23  41  65  87 132 172 209 254 326 381
#     4   9  23  41  59  98 124 170 206 263 317 378
#     4  10  22  39  65  93 128 157 214 263 315 371
#
# _framework density 24.918745000000001
#
# number of rings (size 3 to 8) (size 9 to 14) (size 15 to 20)
#    1.200    0.400    2.000    3.000    2.800    0.800 
#    0.000    1.000    0.000    0.000    0.000    0.000 
#    0.000    0.000    0.000    0.000    0.000    0.000 
#
# Total GULP energy -111498.753665 kJ/mol
# GULP energy per Si atom -5574.937683 kJ/mol
# Density = 2.486203 g / cm^3
# Si number density = 24.918745 Si / 1000 Ang^3
#
#
#
# Elastic Constant Matrix: (Units=GPa)
#
#
# Indices 1 2 3 4 5 6 
#
# 1 69.3439 4.2982 18.8231 0.0000 -3.8024 0.0001
# 2 4.2982 45.7289 24.3231 -0.0001 5.9303 0.0003
# 3 18.8231 24.3231 122.2335 0.0001 30.4079 0.0001
# 4 0.0000 -0.0001 0.0001 34.0438 0.0000 -8.2509
# 5 -3.8024 5.9303 30.4079 0.0000 28.2078 0.0000
# 6 0.0001 0.0003 0.0001 -8.2509 0.0000 -6.2106
#
#
#
# Elastic Compliance Matrix: (Units=1/GPa)
#
#
# Indices 1 2 3 4 5 6 
#
# 1 0.015885 -0.000195 -0.004031 0.000000 0.006528 0.000000
# 2 -0.000195 0.024459 -0.004853 0.000000 0.000062 0.000001
# 3 -0.004031 -0.004853 0.013185 0.000000 -0.013736 0.000000
# 4 0.000000 0.000000 0.000000 0.022220 0.000000 -0.029519
# 5 0.006528 0.000062 -0.013736 0.000000 0.051126 0.000000
# 6 0.000000 0.000001 0.000000 -0.029519 0.000000 -0.121798
#
#
# Mechanical properties :
#
#
# Convention : Reuss Voigt Hill
#
# Bulk Modulus (GPa) = 28.27214 36.91057 32.59135
# Shear Modulus (GPa) = 142.75418 23.86566 83.30992
#
# Velocity S-wave (km/s) = 7.57709 3.09809 5.78837
# Velocity P-wave (km/s) = 9.37657 5.25758 7.60139
#
# Compressibility (1/GPa) = 0.03537051
#
# Stress axis : x y z
#
# Youngs Moduli (GPa) = 62.95153 40.88412 75.84607
#
# Poissons Ratio (x) = 0.00799 0.30576
# Poissons Ratio (y) = 0.01230 0.36805
# Poissons Ratio (z) = 0.25378 0.19839
#
# Static dielectric constant tensor:
#      x y z
#    x 2.047470 0.000000 -0.003340 
#    y 0.000000 2.061970 0.000000 
#    z -0.003340 0.000000 2.044570 
# 
# From -- ./inp_files/300400.got.cif
#   From: 2010.05.17/outbox.cif.g08.bks.cpg/sg15_151_cif.got.tgz:300400.got - 2010.06.03 18:47:42.
