data_PCOD9281898
_publ_section_title
;
Structure prediction by ZEFSAII (Michael W. Deem and Ramdas Pophale) SiO2 
 PCOD9281898
Probable space group: C 2/C
;
_chemical_formula_sum "Si O2"
_cell_formula_units_Z 64
_cell_length_a 12.377501
_cell_length_b 19.278479
_cell_length_c 29.425497
_cell_angle_alpha 90.000000
_cell_angle_beta 153.286654
_cell_angle_gamma 90.000000
_cell_volume 3156.351807
_symmetry_space_group_name_H-M "C 2/C"
_symmetry_group_IT_number 15
_symmetry_cell_setting 'monoclinic'
loop_
_space_group_symop_operation_xyz
x,y,z
-x,y,1/2-z
-x,-y,-z
x,-y,1/2+z
1/2+x,1/2+y,z
1/2-x,1/2+y,1/2-z
1/2-x,1/2-y,-z
1/2+x,1/2-y,1/2+z
loop_
_atom_site_type_symbol
_atom_site_label
_atom_site_fract_x
_atom_site_fract_y
_atom_site_fract_z
Si Si1 0.144650 0.929359 0.543252
Si Si2 0.332891 0.611831 0.759388
Si Si3 0.133430 0.729447 0.250828
Si Si4 0.013696 0.113050 0.090980
Si Si5 0.883881 0.495091 0.255402
Si Si6 0.977111 0.429917 0.052994
Si Si7 0.178349 0.322506 0.950288
Si Si8 0.609879 0.088763 0.505688
O O1 0.078869 0.884222 0.562397
O O2 0.120488 0.879589 0.490391
O O3 0.417262 0.957759 0.644763
O O4 0.000000 0.000000 0.500000
O O5 0.303598 0.693866 0.742429
O O6 0.180598 0.572903 0.740968
O O7 0.610137 0.598112 0.875747
O O8 0.228123 0.580348 0.673233
O O9 0.365202 0.680484 0.342045
O O10 0.000000 0.732438 0.250000
O O11 0.961833 0.695830 0.148315
O O12 0.153536 0.044396 0.161583
O O13 0.735583 0.102280 0.996908
O O14 0.000000 0.479534 0.250000
O O15 0.975121 0.396678 0.002208
O O16 0.932594 0.510794 0.027088
O O17 0.250000 0.250000 0.000000
O O18 0.038546 0.361605 0.937774
#
# Coordination Sequence:
#
# PCOD9281898 Si02
#       8
#     8   8   8   8   8   8   8   8
#     4  11  22  39  71 103 134 172 230 295 348 406
#     4  12  24  43  66  98 138 183 231 287 346 420
#     4  12  24  45  70 100 136 184 234 279 352 424
#     4  11  21  43  69  98 136 177 233 287 342 417
#     4  10  21  38  66 100 130 168 228 290 347 398
#     4  11  25  42  68  99 137 184 232 285 342 413
#     4  12  24  41  69 103 135 183 230 284 349 422
#     4  11  24  44  66 100 138 180 236 282 343 417
#
# _framework density 20.276574
#
# number of rings (size 3 to 8) (size 9 to 14) (size 15 to 20)
#    0.000    0.750    5.000    3.750    1.750    0.500 
#    0.000    3.125    0.000    0.000    0.000    0.000 
#    0.000    0.000    0.000    0.000    0.000    0.000 
#
# Total GULP energy -178691.462341 kJ/mol
# GULP energy per Si atom -5584.108198 kJ/mol
# Density = 2.023042 g / cm^3
# Si number density = 20.276574 Si / 1000 Ang^3
#
#
#
# Elastic Constant Matrix: (Units=GPa)
#
#
# Indices 1 2 3 4 5 6 
#
# 1 89.7801 56.7507 22.7026 -0.0008 -10.2941 0.0002
# 2 56.7507 120.7676 23.2524 0.0008 -12.6780 0.0012
# 3 22.7026 23.2524 61.3169 -0.0002 -5.3193 0.0003
# 4 -0.0008 0.0008 -0.0002 29.6128 0.0012 -13.6474
# 5 -10.2941 -12.6780 -5.3193 0.0012 30.5289 0.0004
# 6 0.0002 0.0012 0.0003 -13.6474 0.0004 20.3835
#
#
#
# Elastic Compliance Matrix: (Units=1/GPa)
#
#
# Indices 1 2 3 4 5 6 
#
# 1 0.016614 -0.006941 -0.003334 0.000001 0.002139 0.000001
# 2 -0.006941 0.012144 -0.001829 -0.000001 0.002384 -0.000002
# 3 -0.003334 -0.001829 0.018350 0.000000 0.001314 0.000000
# 4 0.000001 -0.000001 0.000000 0.048839 -0.000003 0.032700
# 5 0.002139 0.002384 0.001314 -0.000003 0.034696 -0.000003
# 6 0.000001 -0.000002 0.000000 0.032700 -0.000003 0.070953
#
#
# Mechanical properties :
#
#
# Convention : Reuss Voigt Hill
#
# Bulk Modulus (GPa) = 43.66353 53.03068 48.34710
# Shear Modulus (GPa) = 21.41902 27.38227 24.40065
#
# Velocity S-wave (km/s) = 3.25367 3.67882 3.47276
# Velocity P-wave (km/s) = 5.97460 6.65247 6.32263
#
# Compressibility (1/GPa) = 0.02290241
#
# Stress axis : x y z
#
# Youngs Moduli (GPa) = 60.19082 82.34303 54.49453
#
# Poissons Ratio (x) = 0.57152 0.18167
# Poissons Ratio (y) = 0.41777 0.09965
# Poissons Ratio (z) = 0.20066 0.15058
#
# Static dielectric constant tensor:
#      x y z
#    x 1.753940 0.000000 -0.009280 
#    y 0.000000 1.731850 0.000000 
#    z -0.009280 0.000000 1.765180 
# 
# From -- ./inp_files/311648.got.cif
#   From: 2010.05.17/outbox.cif.g08.bks.cpg/sg15_156_cif.got.tgz:311648.got - 2010.06.03 18:47:42.
