data_PCOD9281209
_publ_section_title
;
Structure prediction by ZEFSAII (Michael W. Deem and Ramdas Pophale) SiO2 
 PCOD9281209
Probable space group: C 2/C
;
_chemical_formula_sum "Si O2"
_cell_formula_units_Z 56
_cell_length_a 11.421385
_cell_length_b 18.028262
_cell_length_c 13.439736
_cell_angle_alpha 90.000000
_cell_angle_beta 119.321603
_cell_angle_gamma 90.000000
_cell_volume 2412.806103
_symmetry_space_group_name_H-M "C 2/C"
_symmetry_group_IT_number 15
_symmetry_cell_setting 'monoclinic'
loop_
_space_group_symop_operation_xyz
x,y,z
-x,y,1/2-z
-x,-y,-z
x,-y,1/2+z
1/2+x,1/2+y,z
1/2-x,1/2+y,1/2-z
1/2-x,1/2-y,-z
1/2+x,1/2-y,1/2+z
loop_
_atom_site_type_symbol
_atom_site_label
_atom_site_fract_x
_atom_site_fract_y
_atom_site_fract_z
Si Si1 0.428770 0.285868 0.941315
Si Si2 0.000000 0.482468 0.250000
Si Si3 0.153040 0.761284 0.280108
Si Si4 0.784489 0.566950 0.510933
Si Si5 0.178197 0.592676 0.206330
Si Si6 0.875863 0.053952 0.459160
Si Si7 0.000000 0.768258 0.750000
Si Si8 0.208056 0.801511 0.101321
O O1 0.291929 0.239975 0.901847
O O2 0.413185 0.361509 0.996702
O O3 0.444266 0.303341 0.829222
O O4 0.573782 0.251569 0.028072
O O5 0.094295 0.432528 0.358609
O O6 0.062077 0.538346 0.195233
O O7 0.155499 0.676154 0.237849
O O8 0.190540 0.819815 0.209687
O O9 0.000000 0.773720 0.250000
O O10 0.807597 0.585434 0.405924
O O11 0.720398 0.485829 0.501124
O O12 0.691949 0.631156 0.518871
O O13 0.301157 0.559327 0.321860
O O14 0.000000 0.000000 0.500000
O O15 0.141441 0.730398 0.844288
#
# Coordination Sequence:
#
# PCOD9281209 Si02
#       8
#     8   4   8   8   8   8   4   8
#     4  10  22  38  64  91 128 169 214 268 323 394
#     4  10  21  44  62  94 129 166 222 268 322 400
#     4  10  23  43  64  91 129 175 222 267 327 397
#     4  11  23  38  65  97 131 167 215 272 337 387
#     4  10  22  39  67  92 124 174 219 273 324 393
#     4  10  21  38  59  92 131 165 214 266 325 399
#     4  10  23  38  64 100 125 166 218 274 326 378
#     4  11  23  39  65  97 131 164 217 276 325 389
#
# _framework density 23.209489999999999
#
# number of rings (size 3 to 8) (size 9 to 14) (size 15 to 20)
#    0.000    1.714    2.143    1.286    8.000    1.143 
#    0.000    2.857    1.571    0.000    0.000    0.000 
#    0.000    0.000    0.000    0.000    0.000    0.000 
#
# Total GULP energy -155926.334584 kJ/mol
# GULP energy per Si atom -5568.797664 kJ/mol
# Density = 2.315666 g / cm^3
# Si number density = 23.209490 Si / 1000 Ang^3
#
#
#
# Elastic Constant Matrix: (Units=GPa)
#
#
# Indices 1 2 3 4 5 6 
#
# 1 152.1339 23.2745 34.2465 0.0000 8.2558 0.0000
# 2 23.2745 44.4900 16.3940 0.0000 -7.0867 0.0000
# 3 34.2465 16.3940 58.5518 0.0000 -5.5370 0.0000
# 4 0.0000 0.0000 0.0000 12.6056 0.0000 -1.2401
# 5 8.2558 -7.0867 -5.5370 0.0000 47.0623 0.0000
# 6 0.0000 0.0000 0.0000 -1.2401 0.0000 12.5257
#
#
#
# Elastic Compliance Matrix: (Units=1/GPa)
#
#
# Indices 1 2 3 4 5 6 
#
# 1 0.008098 -0.003106 -0.004091 0.000000 -0.002370 0.000000
# 2 -0.003106 0.026675 -0.005279 0.000000 0.003941 0.000000
# 3 -0.004091 -0.005279 0.021178 0.000000 0.002414 0.000000
# 4 0.000000 0.000000 0.000000 0.080110 0.000000 0.007931
# 5 -0.002370 0.003941 0.002414 0.000000 0.022542 0.000000
# 6 0.000000 0.000000 0.000000 0.007931 0.000000 0.080621
#
#
# Mechanical properties :
#
#
# Convention : Reuss Voigt Hill
#
# Bulk Modulus (GPa) = 32.25992 44.77842 38.51917
# Shear Modulus (GPa) = 18.21437 26.52278 22.36858
#
# Velocity S-wave (km/s) = 2.80443 3.38413 3.10783
# Velocity P-wave (km/s) = 4.94126 5.88259 5.43235
#
# Compressibility (1/GPa) = 0.03099821
#
# Stress axis : x y z
#
# Youngs Moduli (GPa) = 123.49005 37.48822 47.21898
#
# Poissons Ratio (x) = 0.11645 0.19316
# Poissons Ratio (y) = 0.38361 0.24928
# Poissons Ratio (z) = 0.50516 0.19791
#
# Static dielectric constant tensor:
#      x y z
#    x 1.964090 0.000000 0.037750 
#    y 0.000000 1.891430 0.000000 
#    z 0.037750 0.000000 1.964690 
# 
# From -- ./inp_files/90937.got.cif
#   From: 2010.05.17/outbox.cif.g08.bks.cpg/sg15_46_cif.got.tgz:90937.got - 2010.06.03 18:47:42.
