data_PCOD9281350
_publ_section_title
;
Structure prediction by ZEFSAII (Michael W. Deem and Ramdas Pophale) SiO2 
 PCOD9281350
Probable space group: C 2/C
;
_chemical_formula_sum "Si O2"
_cell_formula_units_Z 52
_cell_length_a 17.745848
_cell_length_b 15.064836
_cell_length_c 13.737739
_cell_angle_alpha 90.000000
_cell_angle_beta 34.861839
_cell_angle_gamma 90.000000
_cell_volume 2099.269830
_symmetry_space_group_name_H-M "C 2/C"
_symmetry_group_IT_number 15
_symmetry_cell_setting 'monoclinic'
loop_
_space_group_symop_operation_xyz
x,y,z
-x,y,1/2-z
-x,-y,-z
x,-y,1/2+z
1/2+x,1/2+y,z
1/2-x,1/2+y,1/2-z
1/2-x,1/2-y,-z
1/2+x,1/2-y,1/2+z
loop_
_atom_site_type_symbol
_atom_site_label
_atom_site_fract_x
_atom_site_fract_y
_atom_site_fract_z
Si Si1 0.629754 0.166240 0.225982
Si Si2 0.276910 0.571699 0.353715
Si Si3 0.333688 0.463932 0.579818
Si Si4 0.000000 0.059113 0.250000
Si Si5 0.356349 0.113348 0.492133
Si Si6 0.933092 0.283184 0.497034
Si Si7 0.717560 0.149986 0.714258
O O1 0.509889 0.094081 0.350474
O O2 0.644583 0.183598 0.095267
O O3 0.579943 0.223233 0.370559
O O4 0.766074 0.124094 0.113013
O O5 0.355980 0.552824 0.169863
O O6 0.375896 0.607222 0.330829
O O7 0.218501 0.477613 0.451757
O O8 0.157306 0.635836 0.447763
O O9 0.450919 0.494451 0.387987
O O10 0.230232 0.545792 0.680653
O O11 0.297983 0.153114 0.652229
O O12 0.855090 0.197246 0.542342
O O13 0.085891 0.303332 0.312595
#
# Coordination Sequence:
#
# PCOD9281350 Si02
#       7
#     8   8   8   4   8   8   8
#     4   9  17  35  62  88 114 149 198 245 291 354
#     4  10  21  38  61  87 119 154 198 244 296 351
#     4  10  21  38  61  87 119 154 198 244 296 351
#     4  12  22  36  60  94 120 152 192 254 300 350
#     4   9  17  35  62  88 114 149 198 245 291 354
#     4  10  22  39  60  85 119 162 198 241 296 351
#     4  10  22  39  60  85 119 162 198 241 296 351
#
# _framework density 24.770517999999999
#
# number of rings (size 3 to 8) (size 9 to 14) (size 15 to 20)
#    0.000    2.154    1.538    1.385    2.154    4.308 
#    2.769    0.769    0.000    0.000    0.000    0.000 
#    0.000    0.000    0.000    0.000    0.000    0.000 
#
# Total GULP energy -145085.087215 kJ/mol
# GULP energy per Si atom -5580.195662 kJ/mol
# Density = 2.471414 g / cm^3
# Si number density = 24.770518 Si / 1000 Ang^3
#
#
#
# Elastic Constant Matrix: (Units=GPa)
#
#
# Indices 1 2 3 4 5 6 
#
# 1 131.9386 23.1085 41.1901 0.0000 -6.0763 0.0000
# 2 23.1085 52.4043 6.7464 0.0000 -5.0451 0.0000
# 3 41.1901 6.7464 59.2860 0.0000 9.1798 0.0000
# 4 0.0000 0.0000 0.0000 16.7114 0.0000 -7.5400
# 5 -6.0763 -5.0451 9.1798 0.0000 34.2045 0.0000
# 6 0.0000 0.0000 0.0000 -7.5400 0.0000 19.0879
#
#
#
# Elastic Compliance Matrix: (Units=1/GPa)
#
#
# Indices 1 2 3 4 5 6 
#
# 1 0.010701 -0.003413 -0.007577 0.000000 0.003431 0.000000
# 2 -0.003413 0.020888 -0.000406 0.000000 0.002584 0.000000
# 3 -0.007577 -0.000406 0.023367 0.000000 -0.007677 0.000000
# 4 0.000000 0.000000 0.000000 0.072817 0.000000 0.028764
# 5 0.003431 0.002584 -0.007677 0.000000 0.032287 0.000000
# 6 0.000000 0.000000 0.000000 0.028764 0.000000 0.063751
#
#
# Mechanical properties :
#
#
# Convention : Reuss Voigt Hill
#
# Bulk Modulus (GPa) = 31.09110 42.85768 36.97439
# Shear Modulus (GPa) = 19.43070 25.50636 22.46853
#
# Velocity S-wave (km/s) = 2.80380 3.21238 3.01502
# Velocity P-wave (km/s) = 4.80215 5.57662 5.20381
#
# Compressibility (1/GPa) = 0.03216354
#
# Stress axis : x y z
#
# Youngs Moduli (GPa) = 93.45240 47.87367 42.79571
#
# Poissons Ratio (x) = 0.16338 0.32428
# Poissons Ratio (y) = 0.31893 0.01737
# Poissons Ratio (z) = 0.70813 0.01943
#
# Static dielectric constant tensor:
#      x y z
#    x 1.988250 0.000000 0.020900 
#    y 0.000000 1.965480 0.000000 
#    z 0.020900 0.000000 1.995160 
# 
# From -- ./inp_files/162492.got.cif
#   From: 2010.05.17/outbox.cif.g08.bks.cpg/sg15_82_cif.got.tgz:162492.got - 2010.06.03 18:47:42.
