data_PCOD9281879
_publ_section_title
;
Structure prediction by ZEFSAII (Michael W. Deem and Ramdas Pophale) SiO2 
 PCOD9281879
Probable space group: C 2/C
;
_chemical_formula_sum "Si O2"
_cell_formula_units_Z 28
_cell_length_a 7.923201
_cell_length_b 6.781451
_cell_length_c 23.111769
_cell_angle_alpha 90.000000
_cell_angle_beta 121.743562
_cell_angle_gamma 90.000000
_cell_volume 1056.052566
_symmetry_space_group_name_H-M "C 2/C"
_symmetry_group_IT_number 15
_symmetry_cell_setting 'monoclinic'
loop_
_space_group_symop_operation_xyz
x,y,z
-x,y,1/2-z
-x,-y,-z
x,-y,1/2+z
1/2+x,1/2+y,z
1/2-x,1/2+y,1/2-z
1/2-x,1/2-y,-z
1/2+x,1/2-y,1/2+z
loop_
_atom_site_type_symbol
_atom_site_label
_atom_site_fract_x
_atom_site_fract_y
_atom_site_fract_z
Si Si1 0.000000 0.608247 0.750000
Si Si2 0.936712 0.012111 0.300843
Si Si3 0.734667 0.796092 0.078900
Si Si4 0.144425 0.559657 0.954131
O O1 0.202698 0.494624 0.771810
O O2 0.977381 0.767524 0.693336
O O3 0.000000 0.919968 0.250000
O O4 0.053042 0.888198 0.369607
O O5 0.747507 0.560729 0.076867
O O6 0.579876 0.876295 0.097834
O O7 0.648373 0.892334 0.004853
O O8 0.250000 0.750000 0.000000
#
# Coordination Sequence:
#
# PCOD9281879 Si02
#       4
#     4   8   8   8
#     4  10  24  42  68  92 140 174 236 272 346 402
#     4  10  24  43  65  99 133 185 221 286 338 409
#     4  10  21  41  61  93 136 166 227 274 336 406
#     4  10  21  38  65  96 126 175 218 277 336 402
#
# _framework density 26.513833000000002
#
# number of rings (size 3 to 8) (size 9 to 14) (size 15 to 20)
#    0.857    1.143    0.000    2.571    2.000    2.286 
#    0.000    0.000    0.000    0.000    0.000    0.000 
#    0.000    0.000    0.000    0.000    0.000    0.000 
#
# Total GULP energy -78238.589761 kJ/mol
# GULP energy per Si atom -5588.470697 kJ/mol
# Density = 2.645349 g / cm^3
# Si number density = 26.513833 Si / 1000 Ang^3
#
#
#
# Elastic Constant Matrix: (Units=GPa)
#
#
# Indices 1 2 3 4 5 6 
#
# 1 187.1261 77.0326 43.2944 0.0000 27.8355 0.0000
# 2 77.0326 157.1700 11.5491 0.0000 4.4100 0.0000
# 3 43.2944 11.5491 43.3336 0.0000 5.0173 0.0000
# 4 0.0000 0.0000 0.0000 28.3203 0.0000 3.3154
# 5 27.8355 4.4100 5.0173 0.0000 44.5151 0.0000
# 6 0.0000 0.0000 0.0000 3.3154 0.0000 54.2718
#
#
#
# Elastic Compliance Matrix: (Units=1/GPa)
#
#
# Indices 1 2 3 4 5 6 
#
# 1 0.009480 -0.003937 -0.007884 0.000000 -0.004649 0.000000
# 2 -0.003937 0.008133 0.001595 0.000000 0.001476 0.000000
# 3 -0.007884 0.001595 0.030373 0.000000 0.001349 0.000000
# 4 0.000000 0.000000 0.000000 0.035565 0.000000 -0.002173
# 5 -0.004649 0.001476 0.001349 0.000000 0.025073 0.000000
# 6 0.000000 0.000000 0.000000 -0.002173 0.000000 0.018559
#
#
# Mechanical properties :
#
#
# Convention : Reuss Voigt Hill
#
# Bulk Modulus (GPa) = 36.31912 72.37574 54.34743
# Shear Modulus (GPa) = 31.88495 42.47167 37.17831
#
# Velocity S-wave (km/s) = 3.47158 4.00668 3.74869
# Velocity P-wave (km/s) = 5.45867 6.98292 6.26731
#
# Compressibility (1/GPa) = 0.02753371
#
# Stress axis : x y z
#
# Youngs Moduli (GPa) = 105.48141 122.94944 32.92429
#
# Poissons Ratio (x) = 0.48402 0.25958
# Poissons Ratio (y) = 0.41525 -0.05250
# Poissons Ratio (z) = 0.83164 -0.19605
#
# Static dielectric constant tensor:
#      x y z
#    x 2.183950 0.000000 -0.114020 
#    y 0.000000 2.079130 0.000000 
#    z -0.114020 0.000000 2.109800 
# 
# From -- ./inp_files/262172.got.cif
#   From: 2010.05.17/outbox.cif.g08.bks.cpg/sg15_132_cif.got.tgz:262172.got - 2010.06.03 18:47:42.
