data_PCOD9281389
_publ_section_title
;
Structure prediction by ZEFSAII (Michael W. Deem and Ramdas Pophale) SiO2 
 PCOD9281389
Probable space group: C 2/C
;
_chemical_formula_sum "Si O2"
_cell_formula_units_Z 32
_cell_length_a 11.813778
_cell_length_b 14.372062
_cell_length_c 13.191925
_cell_angle_alpha 90.000000
_cell_angle_beta 136.099646
_cell_angle_gamma 90.000000
_cell_volume 1553.115779
_symmetry_space_group_name_H-M "C 2/C"
_symmetry_group_IT_number 15
_symmetry_cell_setting 'monoclinic'
loop_
_space_group_symop_operation_xyz
x,y,z
-x,y,1/2-z
-x,-y,-z
x,-y,1/2+z
1/2+x,1/2+y,z
1/2-x,1/2+y,1/2-z
1/2-x,1/2-y,-z
1/2+x,1/2-y,1/2+z
loop_
_atom_site_type_symbol
_atom_site_label
_atom_site_fract_x
_atom_site_fract_y
_atom_site_fract_z
Si Si1 0.207144 0.045709 0.748601
Si Si2 0.022035 0.122548 0.041918
Si Si3 0.822476 0.919385 0.594607
Si Si4 0.506044 0.819989 0.131313
O O1 0.048380 0.108058 0.616198
O O2 0.368605 0.099317 0.819789
O O3 0.214423 0.015013 0.871117
O O4 0.168309 0.946008 0.668763
O O5 0.863889 0.083391 0.003090
O O6 0.050755 0.226159 0.099721
O O7 0.676144 0.849219 0.519281
O O8 0.000000 0.889865 0.750000
O O9 0.500000 0.811369 0.250000
#
# Coordination Sequence:
#
# PCOD9281389 Si02
#       4
#     8   8   8   8
#     4  10  22  37  59  93 126 159 194 253 310 354
#     4  10  22  39  62  92 125 156 200 256 306 351
#     4  10  21  38  61  90 125 156 196 252 303 354
#     4  12  22  37  67  97 117 156 207 258 300 357
#
# _framework density 20.603743000000001
#
# number of rings (size 3 to 8) (size 9 to 14) (size 15 to 20)
#    0.000    1.500    2.500    3.750    7.000    0.000 
#    0.000    0.000    0.000   28.500    0.000    0.000 
#    0.000    0.000    0.000    0.000    0.000    0.000 
#
# Total GULP energy -89109.872448 kJ/mol
# GULP energy per Si atom -5569.367028 kJ/mol
# Density = 2.055685 g / cm^3
# Si number density = 20.603743 Si / 1000 Ang^3
#
#
#
# Elastic Constant Matrix: (Units=GPa)
#
#
# Indices 1 2 3 4 5 6 
#
# 1 51.0213 60.2511 15.0558 0.0000 12.1569 0.0000
# 2 60.2511 143.4954 50.2209 0.0000 19.1040 0.0000
# 3 15.0558 50.2209 86.3766 0.0000 19.2443 0.0000
# 4 0.0000 0.0000 0.0000 23.0475 0.0000 -3.3934
# 5 12.1569 19.1040 19.2443 0.0000 33.6008 0.0000
# 6 0.0000 0.0000 0.0000 -3.3934 0.0000 37.8421
#
#
#
# Elastic Compliance Matrix: (Units=1/GPa)
#
#
# Indices 1 2 3 4 5 6 
#
# 1 0.041252 -0.018067 0.004987 0.000000 -0.007509 0.000000
# 2 -0.018067 0.016828 -0.006832 0.000000 0.000881 0.000000
# 3 0.004987 -0.006832 0.016296 0.000000 -0.007253 0.000000
# 4 0.000000 0.000000 0.000000 0.043969 0.000000 0.003943
# 5 -0.007509 0.000881 -0.007253 0.000000 0.036131 0.000000
# 6 0.000000 0.000000 0.000000 0.003943 0.000000 0.026779
#
#
# Mechanical properties :
#
#
# Convention : Reuss Voigt Hill
#
# Bulk Modulus (GPa) = 28.94027 59.10541 44.02284
# Shear Modulus (GPa) = 21.49645 29.25579 25.37612
#
# Velocity S-wave (km/s) = 3.23356 3.77228 3.51326
# Velocity P-wave (km/s) = 5.29319 6.90814 6.15387
#
# Compressibility (1/GPa) = 0.03455393
#
# Stress axis : x y z
#
# Youngs Moduli (GPa) = 24.24116 59.42379 61.36476
#
# Poissons Ratio (x) = 1.07359 -0.30602
# Poissons Ratio (y) = 0.43796 0.41922
# Poissons Ratio (z) = -0.12089 0.40596
#
# Static dielectric constant tensor:
#      x y z
#    x 1.847160 0.000000 -0.106180 
#    y 0.000000 1.764600 0.000000 
#    z -0.106180 0.000000 1.837700 
# 
# From -- ./inp_files/54820.got.cif
#   From: 2010.05.17/outbox.cif.g08.bks.cpg/sg15_28_cif.got.tgz:54820.got - 2010.06.03 18:47:42.
