data_PCOD9281600
_publ_section_title
;
Structure prediction by ZEFSAII (Michael W. Deem and Ramdas Pophale) SiO2 
 PCOD9281600
Probable space group: C 2/C
;
_chemical_formula_sum "Si O2"
_cell_formula_units_Z 52
_cell_length_a 13.371672
_cell_length_b 6.429219
_cell_length_c 28.686347
_cell_angle_alpha 90.000000
_cell_angle_beta 82.512215
_cell_angle_gamma 90.000000
_cell_volume 2445.118590
_symmetry_space_group_name_H-M "C 2/C"
_symmetry_group_IT_number 15
_symmetry_cell_setting 'monoclinic'
loop_
_space_group_symop_operation_xyz
x,y,z
-x,y,1/2-z
-x,-y,-z
x,-y,1/2+z
1/2+x,1/2+y,z
1/2-x,1/2+y,1/2-z
1/2-x,1/2-y,-z
1/2+x,1/2-y,1/2+z
loop_
_atom_site_type_symbol
_atom_site_label
_atom_site_fract_x
_atom_site_fract_y
_atom_site_fract_z
Si Si1 0.500000 0.774180 0.750000
Si Si2 0.076251 0.115630 0.559387
Si Si3 0.878755 0.778858 0.024165
Si Si4 0.129448 0.407636 0.301299
Si Si5 0.039378 0.235811 0.132221
Si Si6 0.151687 0.087497 0.214542
Si Si7 0.679588 0.986997 0.055179
O O1 0.414755 0.619934 0.774923
O O2 0.446917 0.922303 0.715580
O O3 0.170626 0.266925 0.560622
O O4 0.979358 0.245249 0.547756
O O5 0.100057 0.950710 0.517301
O O6 0.045992 0.986434 0.606536
O O7 0.785582 0.874251 0.058490
O O8 0.846538 0.577907 0.996587
O O9 0.235129 0.519539 0.304055
O O10 0.073255 0.306330 0.348639
O O11 0.147372 0.226933 0.261585
O O12 0.096197 0.392748 0.094578
O O13 0.100280 0.218555 0.176682
#
# Coordination Sequence:
#
# PCOD9281600 Si02
#       7
#     4   8   8   8   8   8   8
#     4  12  22  44  72  84 124 172 210 268 314 396
#     4  10  21  38  63  88 125 168 200 264 316 372
#     4   9  20  40  61  90 121 162 224 242 307 398
#     4  12  25  44  68  94 125 173 218 262 330 390
#     4  11  25  40  57 100 130 148 220 266 312 396
#     4  12  25  44  68  94 125 173 218 262 330 390
#     4  10  21  38  63  88 125 168 200 264 316 372
#
# _framework density 21.266863000000001
#
# number of rings (size 3 to 8) (size 9 to 14) (size 15 to 20)
#    0.000    1.231    4.615    0.923    2.154    2.462 
#    2.769    3.077    0.000    0.000    0.000    0.000 
#    0.000    0.000    0.000    0.000    0.000    0.000 
#
# Total GULP energy -145359.376770 kJ/mol
# GULP energy per Si atom -5590.745260 kJ/mol
# Density = 2.121846 g / cm^3
# Si number density = 21.266863 Si / 1000 Ang^3
#
#
#
# Elastic Constant Matrix: (Units=GPa)
#
#
# Indices 1 2 3 4 5 6 
#
# 1 83.4632 11.4116 13.8236 0.0000 -21.6508 0.0000
# 2 11.4116 66.5087 9.0362 0.0000 -7.4964 0.0000
# 3 13.8236 9.0362 63.8607 0.0000 -24.3699 0.0000
# 4 0.0000 0.0000 0.0000 20.9770 0.0000 -6.2397
# 5 -21.6508 -7.4964 -24.3699 0.0000 19.4802 0.0000
# 6 0.0000 0.0000 0.0000 -6.2397 0.0000 37.6230
#
#
#
# Elastic Compliance Matrix: (Units=1/GPa)
#
#
# Indices 1 2 3 4 5 6 
#
# 1 0.018521 -0.000857 0.007351 0.000000 0.029450 0.000000
# 2 -0.000857 0.015758 -0.000179 0.000000 0.004887 0.000000
# 3 0.007351 -0.000179 0.032883 0.000000 0.049237 0.000000
# 4 0.000000 0.000000 0.000000 0.050145 0.000000 0.008317
# 5 0.029450 0.004887 0.049237 0.000000 0.147543 0.000000
# 6 0.000000 0.000000 0.000000 0.008317 0.000000 0.027959
#
#
# Mechanical properties :
#
#
# Convention : Reuss Voigt Hill
#
# Bulk Modulus (GPa) = 12.53283 31.37505 21.95394
# Shear Modulus (GPa) = 16.29854 27.58680 21.94267
#
# Velocity S-wave (km/s) = 2.77136 3.60554 3.21561
# Velocity P-wave (km/s) = 4.01827 5.66730 4.91247
#
# Compressibility (1/GPa) = 0.07979044
#
# Stress axis : x y z
#
# Youngs Moduli (GPa) = 53.99388 63.46030 30.41106
#
# Poissons Ratio (x) = 0.05439 -0.22354
# Poissons Ratio (y) = 0.04627 0.00545
# Poissons Ratio (z) = -0.39689 0.01137
#
# Static dielectric constant tensor:
#      x y z
#    x 1.759170 0.000000 -0.013040 
#    y 0.000000 1.785590 0.000000 
#    z -0.013040 0.000000 1.750160 
# 
# From -- ./inp_files/305349.got.cif
#   From: 2010.05.17/outbox.cif.g08.bks.cpg/sg15_153_cif.got.tgz:305349.got - 2010.06.03 18:47:42.
