data_PCOD9281616
_publ_section_title
;
Structure prediction by ZEFSAII (Michael W. Deem and Ramdas Pophale) SiO2 
 PCOD9281616
Probable space group: C 2/C
;
_chemical_formula_sum "Si O2"
_cell_formula_units_Z 40
_cell_length_a 20.137071
_cell_length_b 9.319781
_cell_length_c 9.767612
_cell_angle_alpha 90.000000
_cell_angle_beta 76.016940
_cell_angle_gamma 90.000000
_cell_volume 1778.797544
_symmetry_space_group_name_H-M "C 2/C"
_symmetry_group_IT_number 15
_symmetry_cell_setting 'monoclinic'
loop_
_space_group_symop_operation_xyz
x,y,z
-x,y,1/2-z
-x,-y,-z
x,-y,1/2+z
1/2+x,1/2+y,z
1/2-x,1/2+y,1/2-z
1/2-x,1/2-y,-z
1/2+x,1/2-y,1/2+z
loop_
_atom_site_type_symbol
_atom_site_label
_atom_site_fract_x
_atom_site_fract_y
_atom_site_fract_z
Si Si1 0.191849 0.764188 0.868835
Si Si2 0.212850 0.523532 0.077204
Si Si3 0.053565 0.853376 0.832473
Si Si4 0.461081 0.319036 0.142066
Si Si5 0.678659 0.168147 0.351603
O O1 0.183556 0.653280 0.996379
O O2 0.126680 0.780759 0.806705
O O3 0.260953 0.736108 0.746413
O O4 0.210086 0.920205 0.929197
O O5 0.201707 0.387593 0.987765
O O6 0.177407 0.535671 0.242685
O O7 0.000000 0.793184 0.750000
O O8 0.062767 0.022605 0.798046
O O9 0.017121 0.838865 0.996751
O O10 0.500000 0.246717 0.250000
O O11 0.394819 0.239720 0.117470
#
# Coordination Sequence:
#
# PCOD9281616 Si02
#       5
#     8   8   8   8   8
#     4   9  21  39  64  82 132 160 200 254 313 363
#     4   9  21  38  61  91 124 163 206 246 312 357
#     4  10  22  40  62  92 121 159 210 253 305 366
#     4  10  22  39  63  88 126 165 199 254 319 361
#     4  10  21  38  63  90 121 162 210 248 305 369
#
# _framework density 22.487102
#
# number of rings (size 3 to 8) (size 9 to 14) (size 15 to 20)
#    1.200    1.200    0.000    1.200    2.800    4.800 
#    0.000    8.000    0.000    0.000    0.000    0.000 
#    0.000    0.000    0.000    0.000    0.000    0.000 
#
# Total GULP energy -111596.785667 kJ/mol
# GULP energy per Si atom -5579.839283 kJ/mol
# Density = 2.243592 g / cm^3
# Si number density = 22.487102 Si / 1000 Ang^3
#
#
#
# Elastic Constant Matrix: (Units=GPa)
#
#
# Indices 1 2 3 4 5 6 
#
# 1 122.2232 30.9415 7.9083 0.0000 21.4404 0.0000
# 2 30.9415 43.4463 6.3951 0.0000 3.3546 0.0000
# 3 7.9083 6.3951 74.8985 0.0000 20.8222 0.0000
# 4 0.0000 0.0000 0.0000 27.1211 0.0000 14.2692
# 5 21.4404 3.3546 20.8222 0.0000 39.4642 0.0000
# 6 0.0000 0.0000 0.0000 14.2692 0.0000 19.5804
#
#
#
# Elastic Compliance Matrix: (Units=1/GPa)
#
#
# Indices 1 2 3 4 5 6 
#
# 1 0.011079 -0.007597 0.001140 0.000000 -0.005975 0.000000
# 2 -0.007597 0.028559 -0.002471 0.000000 0.003004 0.000000
# 3 0.001140 -0.002471 0.015886 0.000000 -0.008791 0.000000
# 4 0.000000 0.000000 0.000000 0.059800 0.000000 -0.043579
# 5 -0.005975 0.003004 -0.008791 0.000000 0.032969 0.000000
# 6 0.000000 0.000000 0.000000 -0.043579 0.000000 0.082830
#
#
# Mechanical properties :
#
#
# Convention : Reuss Voigt Hill
#
# Bulk Modulus (GPa) = 26.54797 36.78421 31.66609
# Shear Modulus (GPa) = 19.11788 30.25468 24.68628
#
# Velocity S-wave (km/s) = 2.91893 3.67198 3.31690
# Velocity P-wave (km/s) = 4.81578 5.86271 5.36484
#
# Compressibility (1/GPa) = 0.03766766
#
# Stress axis : x y z
#
# Youngs Moduli (GPa) = 90.25835 35.01510 62.94848
#
# Poissons Ratio (x) = 0.26601 -0.07175
# Poissons Ratio (y) = 0.68568 0.15557
# Poissons Ratio (z) = -0.10288 0.08653
#
# Static dielectric constant tensor:
#      x y z
#    x 1.792920 0.000000 0.022080 
#    y 0.000000 1.943550 0.000000 
#    z 0.022080 0.000000 1.836970 
# 
# From -- ./inp_files/46106.got.cif
#   From: 2010.05.17/outbox.cif.g08.bks.cpg/sg15_24_cif.got.tgz:46106.got - 2010.06.03 18:47:42.
