data_PCOD9281468
_publ_section_title
;
Structure prediction by ZEFSAII (Michael W. Deem and Ramdas Pophale) SiO2 
 PCOD9281468
Probable space group: C 2/C
;
_chemical_formula_sum "Si O2"
_cell_formula_units_Z 32
_cell_length_a 12.159031
_cell_length_b 7.763681
_cell_length_c 25.232243
_cell_angle_alpha 90.000000
_cell_angle_beta 146.292375
_cell_angle_gamma 90.000000
_cell_volume 1321.844551
_symmetry_space_group_name_H-M "C 2/C"
_symmetry_group_IT_number 15
_symmetry_cell_setting 'monoclinic'
loop_
_space_group_symop_operation_xyz
x,y,z
-x,y,1/2-z
-x,-y,-z
x,-y,1/2+z
1/2+x,1/2+y,z
1/2-x,1/2+y,1/2-z
1/2-x,1/2-y,-z
1/2+x,1/2-y,1/2+z
loop_
_atom_site_type_symbol
_atom_site_label
_atom_site_fract_x
_atom_site_fract_y
_atom_site_fract_z
Si Si1 0.660750 0.284094 0.207906
Si Si2 0.566138 0.606146 0.365607
Si Si3 0.714612 0.903150 0.353798
Si Si4 0.806191 0.570234 0.049264
O O1 0.538346 0.424809 0.192608
O O2 0.665211 0.373774 0.151409
O O3 0.537729 0.106795 0.152745
O O4 0.883126 0.227349 0.311230
O O5 0.670848 0.714985 0.361552
O O6 0.728098 0.565338 0.475298
O O7 0.500000 0.972843 0.250000
O O8 0.784215 0.022546 0.429895
O O9 0.750000 0.750000 0.000000
#
# Coordination Sequence:
#
# PCOD9281468 Si02
#       4
#     8   8   8   8
#     4  10  21  40  60  84 124 159 192 252 303 340
#     4  10  21  38  62  88 117 157 201 242 295 357
#     4  10  21  39  61  87 120 159 199 242 298 354
#     4  10  22  40  62  91 121 156 203 245 293 360
#
# _framework density 24.208597000000001
#
# number of rings (size 3 to 8) (size 9 to 14) (size 15 to 20)
#    0.000    2.000    0.000    3.750    0.000    5.000 
#    0.000   40.000    0.000    0.000    0.000    0.000 
#    0.000    0.000    0.000    0.000    0.000    0.000 
#
# Total GULP energy -89310.574268 kJ/mol
# GULP energy per Si atom -5581.910892 kJ/mol
# Density = 2.415350 g / cm^3
# Si number density = 24.208597 Si / 1000 Ang^3
#
#
#
# Elastic Constant Matrix: (Units=GPa)
#
#
# Indices 1 2 3 4 5 6 
#
# 1 80.8154 9.3741 23.0730 0.0000 -11.3192 0.0000
# 2 9.3741 127.2325 35.5170 0.0000 -11.3389 0.0000
# 3 23.0730 35.5170 66.7206 0.0000 -27.2766 0.0000
# 4 0.0000 0.0000 0.0000 50.7979 0.0000 -4.0392
# 5 -11.3192 -11.3389 -27.2766 0.0000 37.1289 0.0000
# 6 0.0000 0.0000 0.0000 -4.0392 0.0000 14.1175
#
#
#
# Elastic Compliance Matrix: (Units=1/GPa)
#
#
# Indices 1 2 3 4 5 6 
#
# 1 0.013768 0.000341 -0.004551 0.000000 0.000958 0.000000
# 2 0.000341 0.009273 -0.005509 0.000000 -0.001111 0.000000
# 3 -0.004551 -0.005509 0.026068 0.000000 0.016081 0.000000
# 4 0.000000 0.000000 0.000000 0.020144 0.000000 0.005763
# 5 0.000958 -0.001111 0.016081 0.000000 0.038700 0.000000
# 6 0.000000 0.000000 0.000000 0.005763 0.000000 0.072483
#
#
# Mechanical properties :
#
#
# Convention : Reuss Voigt Hill
#
# Bulk Modulus (GPa) = 33.70085 45.63298 39.66692
# Shear Modulus (GPa) = 23.83626 34.19580 29.01603
#
# Velocity S-wave (km/s) = 3.14127 3.76247 3.46581
# Velocity P-wave (km/s) = 5.20654 6.14538 5.69534
#
# Compressibility (1/GPa) = 0.02967284
#
# Stress axis : x y z
#
# Youngs Moduli (GPa) = 72.63297 107.83782 38.36065
#
# Poissons Ratio (x) = -0.03683 0.17459
# Poissons Ratio (y) = -0.02480 0.21131
# Poissons Ratio (z) = 0.33057 0.59403
#
# Static dielectric constant tensor:
#      x y z
#    x 1.903770 0.000000 0.065170 
#    y 0.000000 1.975680 0.000000 
#    z 0.065170 0.000000 2.014220 
# 
# From -- ./inp_files/149962.got.cif
#   From: 2010.05.17/outbox.cif.g08.bks.cpg/sg15_75_cif.got.tgz:149962.got - 2010.06.03 18:47:42.
