data_PCOD9281166
_publ_section_title
;
Structure prediction by ZEFSAII (Michael W. Deem and Ramdas Pophale) SiO2 
 PCOD9281166
Probable space group: C 2/C
;
_chemical_formula_sum "Si O2"
_cell_formula_units_Z 40
_cell_length_a 9.806410
_cell_length_b 16.561374
_cell_length_c 13.901735
_cell_angle_alpha 90.000000
_cell_angle_beta 71.362846
_cell_angle_gamma 90.000000
_cell_volume 2139.354566
_symmetry_space_group_name_H-M "C 2/C"
_symmetry_group_IT_number 15
_symmetry_cell_setting 'monoclinic'
loop_
_space_group_symop_operation_xyz
x,y,z
-x,y,1/2-z
-x,-y,-z
x,-y,1/2+z
1/2+x,1/2+y,z
1/2-x,1/2+y,1/2-z
1/2-x,1/2-y,-z
1/2+x,1/2-y,1/2+z
loop_
_atom_site_type_symbol
_atom_site_label
_atom_site_fract_x
_atom_site_fract_y
_atom_site_fract_z
Si Si1 0.500000 0.389167 0.250000
Si Si2 0.288246 0.075917 0.930031
Si Si3 0.327716 0.422015 0.464971
Si Si4 0.991747 0.612976 0.060173
Si Si5 0.073082 0.198815 0.915707
Si Si6 0.500000 0.990816 0.750000
O O1 0.393603 0.437213 0.343967
O O2 0.412083 0.331816 0.197705
O O3 0.208412 0.160786 0.939508
O O4 0.372297 0.048211 0.815895
O O5 0.399693 0.076606 0.993312
O O6 0.173713 0.004841 0.975745
O O7 0.162317 0.393800 0.500880
O O8 0.429751 0.350413 0.481419
O O9 0.948896 0.706611 0.076198
O O10 0.963510 0.565730 0.166580
#
# Coordination Sequence:
#
# PCOD9281166 Si02
#       6
#     4   8   8   8   8   4
#     4   8  21  32  66  79 116 150 208 214 289 344
#     4  11  23  37  62  89 119 152 190 248 290 335
#     4   9  20  38  59  83 114 157 197 226 280 356
#     4  11  22  39  61  87 119 150 197 241 290 340
#     4  10  21  38  59  85 119 150 193 242 287 335
#     4  10  23  38  60  87 116 160 198 226 287 360
#
# _framework density 18.697229
#
# number of rings (size 3 to 8) (size 9 to 14) (size 15 to 20)
#    1.200    0.800    0.000    4.800    5.600    0.000 
#    0.000    0.000    0.000    0.000    0.000    0.000 
#    0.000    0.000    0.000    0.000    0.000    0.000 
#
# Total GULP energy -111396.970363 kJ/mol
# GULP energy per Si atom -5569.848518 kJ/mol
# Density = 1.865467 g / cm^3
# Si number density = 18.697229 Si / 1000 Ang^3
#
#
#
# Elastic Constant Matrix: (Units=GPa)
#
#
# Indices 1 2 3 4 5 6 
#
# 1 95.6859 30.8250 38.6250 0.0000 0.2382 0.0000
# 2 30.8250 101.9424 26.6295 0.0000 -17.4087 0.0000
# 3 38.6250 26.6295 110.0113 0.0000 -21.0611 0.0000
# 4 0.0000 0.0000 0.0000 7.7646 0.0000 -0.0721
# 5 0.2382 -17.4087 -21.0611 0.0000 28.4985 0.0000
# 6 0.0000 0.0000 0.0000 -0.0721 0.0000 21.4388
#
#
#
# Elastic Compliance Matrix: (Units=1/GPa)
#
#
# Indices 1 2 3 4 5 6 
#
# 1 0.013780 -0.003907 -0.005092 0.000000 -0.006265 0.000000
# 2 -0.003907 0.012305 -0.000188 0.000000 0.007410 0.000000
# 3 -0.005092 -0.000188 0.012707 0.000000 0.009319 0.000000
# 4 0.000000 0.000000 0.000000 0.128793 0.000000 0.000433
# 5 -0.006265 0.007410 0.009319 0.000000 0.046555 0.000000
# 6 0.000000 0.000000 0.000000 0.000433 0.000000 0.046646
#
#
# Mechanical properties :
#
#
# Convention : Reuss Voigt Hill
#
# Bulk Modulus (GPa) = 48.97348 55.53320 52.25334
# Shear Modulus (GPa) = 17.48451 25.64441 21.56446
#
# Velocity S-wave (km/s) = 3.06132 3.70748 3.39979
# Velocity P-wave (km/s) = 6.22458 6.93491 6.58932
#
# Compressibility (1/GPa) = 0.02041922
#
# Stress axis : x y z
#
# Youngs Moduli (GPa) = 72.56674 81.26522 78.69444
#
# Poissons Ratio (x) = 0.31747 0.40071
# Poissons Ratio (y) = 0.28349 0.01483
# Poissons Ratio (z) = 0.36951 0.01531
#
# Static dielectric constant tensor:
#      x y z
#    x 1.672440 0.000000 0.007530 
#    y 0.000000 1.646870 0.000000 
#    z 0.007530 0.000000 1.655400 
# 
# From -- ./inp_files/142887.got.cif
#   From: 2010.05.17/outbox.cif.g08.bks.cpg/sg15_72_cif.got.tgz:142887.got - 2010.06.03 18:47:42.
