data_PCOD9281011
_publ_section_title
;
Structure prediction by ZEFSAII (Michael W. Deem and Ramdas Pophale) SiO2 
 PCOD9281011
Probable space group: C 2/C
;
_chemical_formula_sum "Si O2"
_cell_formula_units_Z 60
_cell_length_a 16.044376
_cell_length_b 21.516073
_cell_length_c 9.242207
_cell_angle_alpha 90.000000
_cell_angle_beta 117.091754
_cell_angle_gamma 90.000000
_cell_volume 2840.451298
_symmetry_space_group_name_H-M "C 2/C"
_symmetry_group_IT_number 15
_symmetry_cell_setting 'monoclinic'
loop_
_space_group_symop_operation_xyz
x,y,z
-x,y,1/2-z
-x,-y,-z
x,-y,1/2+z
1/2+x,1/2+y,z
1/2-x,1/2+y,1/2-z
1/2-x,1/2-y,-z
1/2+x,1/2-y,1/2+z
loop_
_atom_site_type_symbol
_atom_site_label
_atom_site_fract_x
_atom_site_fract_y
_atom_site_fract_z
Si Si1 0.441342 0.586273 0.952733
Si Si2 0.500000 0.498170 0.250000
Si Si3 0.162414 0.197194 0.719391
Si Si4 0.600275 0.063336 0.667989
Si Si5 0.379729 0.951329 0.997956
Si Si6 0.378550 0.812312 0.475738
Si Si7 0.107971 0.175247 0.000628
Si Si8 0.173370 0.335050 0.742663
O O1 0.435104 0.544457 0.802262
O O2 0.364781 0.640510 0.904390
O O3 0.445049 0.541596 0.093517
O O4 0.539602 0.623376 0.009337
O O5 0.269372 0.196273 0.853090
O O6 0.147942 0.267621 0.654819
O O7 0.108282 0.181174 0.826185
O O8 0.492253 0.043621 0.597560
O O9 0.590323 0.132166 0.599463
O O10 0.650571 0.016552 0.596502
O O11 0.651170 0.059384 0.862211
O O12 0.353679 0.893851 0.874560
O O13 0.422646 0.745179 0.480099
O O14 0.380500 0.832602 0.645422
O O15 0.215079 0.163515 0.135291
#
# Coordination Sequence:
#
# PCOD9281011 Si02
#       8
#     8   4   8   8   8   8   8   8
#     4  11  20  42  58  84 111 158 188 238 284 332
#     4  10  24  38  60  82 116 142 204 238 272 340
#     4   9  18  36  60  82 115 147 191 228 280 335
#     4  10  21  38  56  80 112 147 186 229 278 336
#     4  10  21  38  56  80 112 147 186 229 278 336
#     4   9  19  36  57  87 112 146 188 236 274 339
#     4   9  18  36  60  82 115 147 191 228 280 335
#     4   9  19  36  57  87 112 146 188 236 274 339
#
# _framework density 21.123405000000002
#
# number of rings (size 3 to 8) (size 9 to 14) (size 15 to 20)
#    0.000    2.400    1.333    2.400    1.867    1.600 
#    9.600    1.333    0.000    0.000    0.000    0.000 
#    0.000    0.000    0.000    0.000    0.000    0.000 
#
# Total GULP energy -167351.597919 kJ/mol
# GULP energy per Si atom -5578.386597 kJ/mol
# Density = 2.107533 g / cm^3
# Si number density = 21.123405 Si / 1000 Ang^3
#
#
#
# Elastic Constant Matrix: (Units=GPa)
#
#
# Indices 1 2 3 4 5 6 
#
# 1 27.1137 9.8404 10.3965 0.0000 3.2237 0.0000
# 2 9.8404 106.2473 43.9229 0.0000 -8.8713 0.0000
# 3 10.3965 43.9229 74.9923 0.0000 -9.9409 0.0000
# 4 0.0000 0.0000 0.0000 30.9458 0.0000 11.7030
# 5 3.2237 -8.8713 -9.9409 0.0000 22.1913 0.0000
# 6 0.0000 0.0000 0.0000 11.7030 0.0000 22.8572
#
#
#
# Elastic Compliance Matrix: (Units=1/GPa)
#
#
# Indices 1 2 3 4 5 6 
#
# 1 0.040961 -0.002263 -0.005594 0.000000 -0.009361 0.000000
# 2 -0.002263 0.012613 -0.006763 0.000000 0.002341 0.000000
# 3 -0.005594 -0.006763 0.018946 0.000000 0.006596 0.000000
# 4 0.000000 0.000000 0.000000 0.040074 0.000000 -0.020518
# 5 -0.009361 0.002341 0.006596 0.000000 0.050313 0.000000
# 6 0.000000 0.000000 0.000000 -0.020518 0.000000 0.054255
#
#
# Mechanical properties :
#
#
# Convention : Reuss Voigt Hill
#
# Bulk Modulus (GPa) = 23.10569 37.40808 30.25689
# Shear Modulus (GPa) = 19.16961 24.81176 21.99068
#
# Velocity S-wave (km/s) = 3.01575 3.43098 3.23004
# Velocity P-wave (km/s) = 4.80505 5.78301 5.31657
#
# Compressibility (1/GPa) = 0.04327938
#
# Stress axis : x y z
#
# Youngs Moduli (GPa) = 24.41349 79.28289 52.78176
#
# Poissons Ratio (x) = 0.17939 0.29527
# Poissons Ratio (y) = 0.05524 0.35699
# Poissons Ratio (z) = 0.13657 0.53622
#
# Static dielectric constant tensor:
#      x y z
#    x 1.656180 0.000000 -0.061340 
#    y 0.000000 1.781350 0.000000 
#    z -0.061340 0.000000 1.741620 
# 
# From -- ./inp_files/50689.got.cif
#   From: 2010.05.17/outbox.cif.g08.bks.cpg/sg15_26_cif.got.tgz:50689.got - 2010.06.03 18:47:42.
