data_PCOD9281100
_publ_section_title
;
Structure prediction by ZEFSAII (Michael W. Deem and Ramdas Pophale) SiO2 
 PCOD9281100
Probable space group: C 2/C
;
_chemical_formula_sum "Si O2"
_cell_formula_units_Z 32
_cell_length_a 8.961727
_cell_length_b 19.109079
_cell_length_c 13.495768
_cell_angle_alpha 90.000000
_cell_angle_beta 46.232583
_cell_angle_gamma 90.000000
_cell_volume 1669.009168
_symmetry_space_group_name_H-M "C 2/C"
_symmetry_group_IT_number 15
_symmetry_cell_setting 'monoclinic'
loop_
_space_group_symop_operation_xyz
x,y,z
-x,y,1/2-z
-x,-y,-z
x,-y,1/2+z
1/2+x,1/2+y,z
1/2-x,1/2+y,1/2-z
1/2-x,1/2-y,-z
1/2+x,1/2-y,1/2+z
loop_
_atom_site_type_symbol
_atom_site_label
_atom_site_fract_x
_atom_site_fract_y
_atom_site_fract_z
Si Si1 0.939432 0.538135 0.165066
Si Si2 0.744965 0.582093 0.644033
Si Si3 0.189335 0.823359 0.738784
Si Si4 0.888890 0.264247 0.033266
O O1 0.838598 0.463046 0.190482
O O2 0.778807 0.598309 0.206643
O O3 0.000000 0.548257 0.250000
O O4 0.141565 0.549267 0.004248
O O5 0.500000 0.575728 0.750000
O O6 0.809009 0.663047 0.617238
O O7 0.131187 0.795000 0.874338
O O8 0.378038 0.776843 0.609988
O O9 0.000000 0.820398 0.750000
O O10 0.750000 0.250000 0.000000
#
# Coordination Sequence:
#
# PCOD9281100 Si02
#       4
#     8   8   8   8
#     4  10  22  39  59  83 116 156 193 237 295 350
#     4  10  21  38  58  85 116 147 194 243 284 346
#     4  11  22  38  60  87 119 154 196 245 293 346
#     4  11  22  39  62  87 118 156 196 240 294 351
#
# _framework density 19.173051000000001
#
# number of rings (size 3 to 8) (size 9 to 14) (size 15 to 20)
#    0.000    1.500    0.000    6.750    0.000    2.000 
#    0.000   10.000    0.000    0.000    0.000    0.000 
#    0.000    0.000    0.000    0.000    0.000    0.000 
#
# Total GULP energy -89437.279193 kJ/mol
# GULP energy per Si atom -5589.829950 kJ/mol
# Density = 1.912941 g / cm^3
# Si number density = 19.173051 Si / 1000 Ang^3
#
#
#
# Elastic Constant Matrix: (Units=GPa)
#
#
# Indices 1 2 3 4 5 6 
#
# 1 163.5707 28.8133 69.9550 0.0000 -3.9446 0.0000
# 2 28.8133 77.8040 21.8995 0.0000 0.5353 0.0000
# 3 69.9550 21.8995 67.2454 0.0000 -0.0575 0.0000
# 4 0.0000 0.0000 0.0000 21.6638 0.0000 7.8619
# 5 -3.9446 0.5353 -0.0575 0.0000 28.0131 0.0000
# 6 0.0000 0.0000 0.0000 7.8619 0.0000 19.2128
#
#
#
# Elastic Compliance Matrix: (Units=1/GPa)
#
#
# Indices 1 2 3 4 5 6 
#
# 1 0.011145 -0.000963 -0.011278 0.000000 0.001565 0.000000
# 2 -0.000963 0.014235 -0.003634 0.000000 -0.000415 0.000000
# 3 -0.011278 -0.003634 0.027786 0.000000 -0.001462 0.000000
# 4 0.000000 0.000000 0.000000 0.054210 0.000000 -0.022183
# 5 0.001565 -0.000415 -0.001462 0.000000 0.035923 0.000000
# 6 0.000000 0.000000 0.000000 -0.022183 0.000000 0.061126
#
#
# Mechanical properties :
#
#
# Convention : Reuss Voigt Hill
#
# Bulk Modulus (GPa) = 46.69848 61.10619 53.90233
# Shear Modulus (GPa) = 20.54952 26.30809 23.42880
#
# Velocity S-wave (km/s) = 3.27737 3.70826 3.49945
# Velocity P-wave (km/s) = 6.22340 7.09048 6.67105
#
# Compressibility (1/GPa) = 0.02141398
#
# Stress axis : x y z
#
# Youngs Moduli (GPa) = 89.73029 70.24776 35.98924
#
# Poissons Ratio (x) = 0.06767 0.40590
# Poissons Ratio (y) = 0.08644 0.13079
# Poissons Ratio (z) = 1.01202 0.25529
#
# Static dielectric constant tensor:
#      x y z
#    x 1.626020 0.000000 0.001100 
#    y 0.000000 1.673150 0.000000 
#    z 0.001100 0.000000 1.666000 
# 
# From -- ./inp_files/22062.got.cif
#   From: 2010.05.17/outbox.cif.g08.bks.cpg/sg15_12_cif.got.tgz:22062.got - 2010.06.03 18:47:42.
