data_PCOD9281904
_publ_section_title
;
Structure prediction by ZEFSAII (Michael W. Deem and Ramdas Pophale) SiO2 
 PCOD9281904
Probable space group: C 2/C
;
_chemical_formula_sum "Si O2"
_cell_formula_units_Z 56
_cell_length_a 5.539647
_cell_length_b 21.324395
_cell_length_c 22.442428
_cell_angle_alpha 90.000000
_cell_angle_beta 77.583876
_cell_angle_gamma 90.000000
_cell_volume 2589.110715
_symmetry_space_group_name_H-M "C 2/C"
_symmetry_group_IT_number 15
_symmetry_cell_setting 'monoclinic'
loop_
_space_group_symop_operation_xyz
x,y,z
-x,y,1/2-z
-x,-y,-z
x,-y,1/2+z
1/2+x,1/2+y,z
1/2-x,1/2+y,1/2-z
1/2-x,1/2-y,-z
1/2+x,1/2-y,1/2+z
loop_
_atom_site_type_symbol
_atom_site_label
_atom_site_fract_x
_atom_site_fract_y
_atom_site_fract_z
Si Si1 0.653944 0.643362 0.407492
Si Si2 0.721688 0.573816 0.281931
Si Si3 0.452799 0.431269 0.027816
Si Si4 0.927279 0.281143 0.412039
Si Si5 0.109002 0.411266 0.398502
Si Si6 0.737691 0.065839 0.765178
Si Si7 0.511562 0.783122 0.540707
O O1 0.665039 0.598699 0.350621
O O2 0.498583 0.613942 0.469217
O O3 0.554110 0.713301 0.397651
O O4 0.920117 0.657835 0.423085
O O5 0.500000 0.595314 0.250000
O O6 0.727669 0.498097 0.274843
O O7 0.000000 0.595106 0.250000
O O8 0.169289 0.428391 0.065658
O O9 0.668302 0.416661 0.065482
O O10 0.500000 0.500000 0.000000
O O11 0.076400 0.338926 0.378394
O O12 0.643471 0.266048 0.411994
O O13 0.894418 0.300613 0.483665
O O14 0.178534 0.450920 0.336576
O O15 0.500000 0.099173 0.750000
O O16 0.000000 0.100147 0.750000
O O17 0.750000 0.750000 0.500000
#
# Coordination Sequence:
#
# PCOD9281904 Si02
#       7
#     8   8   8   8   8   8   8
#     4  11  24  41  69 102 143 178 230 288 359 427
#     4  10  25  43  69  92 131 187 236 281 335 408
#     4  12  28  41  68 112 143 180 222 297 351 429
#     4  10  21  38  66 103 137 180 216 281 357 423
#     4  12  25  45  71 103 143 178 235 285 357 419
#     4  10  23  46  70  91 127 190 234 280 335 409
#     4   9  17  35  61  95 136 173 211 261 350 425
#
# _framework density 21.629045999999999
#
# number of rings (size 3 to 8) (size 9 to 14) (size 15 to 20)
#    0.000    1.429    1.429    3.857   12.000    0.000 
#    0.000    1.429    0.000    0.000    0.000    0.000 
#    0.000    0.000    0.000    0.000    0.000    0.000 
#
# Total GULP energy -156061.096551 kJ/mol
# GULP energy per Si atom -5573.610591 kJ/mol
# Density = 2.157982 g / cm^3
# Si number density = 21.629046 Si / 1000 Ang^3
#
#
#
# Elastic Constant Matrix: (Units=GPa)
#
#
# Indices 1 2 3 4 5 6 
#
# 1 143.0877 4.0897 48.4424 0.0000 -20.7589 0.0000
# 2 4.0897 86.1353 11.4942 0.0000 -6.4019 0.0000
# 3 48.4424 11.4942 89.2528 0.0000 2.4402 0.0000
# 4 0.0000 0.0000 0.0000 16.9423 0.0000 0.2286
# 5 -20.7589 -6.4019 2.4402 0.0000 25.2280 0.0000
# 6 0.0000 0.0000 0.0000 0.2286 0.0000 22.7709
#
#
#
# Elastic Compliance Matrix: (Units=1/GPa)
#
#
# Indices 1 2 3 4 5 6 
#
# 1 0.010348 0.001005 -0.006002 0.000000 0.009351 0.000000
# 2 0.001005 0.012166 -0.002225 0.000000 0.004129 0.000000
# 3 -0.006002 -0.002225 0.014938 0.000000 -0.006948 0.000000
# 4 0.000000 0.000000 0.000000 0.059032 0.000000 -0.000593
# 5 0.009351 0.004129 -0.006948 0.000000 0.049053 0.000000
# 6 0.000000 0.000000 0.000000 -0.000593 0.000000 0.043922
#
#
# Mechanical properties :
#
#
# Convention : Reuss Voigt Hill
#
# Bulk Modulus (GPa) = 43.46269 49.61427 46.53848
# Shear Modulus (GPa) = 23.63264 29.95155 26.79210
#
# Velocity S-wave (km/s) = 3.30909 3.72531 3.52335
# Velocity P-wave (km/s) = 5.89392 6.44146 6.17376
#
# Compressibility (1/GPa) = 0.02300824
#
# Stress axis : x y z
#
# Youngs Moduli (GPa) = 96.63249 82.19818 66.94304
#
# Poissons Ratio (x) = -0.08257 0.40177
# Poissons Ratio (y) = -0.09707 0.14894
# Poissons Ratio (z) = 0.57996 0.18288
#
# Static dielectric constant tensor:
#      x y z
#    x 2.095420 0.000000 0.002090 
#    y 0.000000 1.850070 0.000000 
#    z 0.002090 0.000000 1.798350 
# 
# From -- ./inp_files/228093.got.cif
#   From: 2010.05.17/outbox.cif.g08.bks.cpg/sg15_115_cif.got.tgz:228093.got - 2010.06.03 18:47:42.
