data_PCOD9281810
_publ_section_title
;
Structure prediction by ZEFSAII (Michael W. Deem and Ramdas Pophale) SiO2 
 PCOD9281810
Probable space group: C 2/C
;
_chemical_formula_sum "Si O2"
_cell_formula_units_Z 64
_cell_length_a 13.145850
_cell_length_b 29.183985
_cell_length_c 8.996190
_cell_angle_alpha 90.000000
_cell_angle_beta 124.198985
_cell_angle_gamma 90.000000
_cell_volume 2854.597849
_symmetry_space_group_name_H-M "C 2/C"
_symmetry_group_IT_number 15
_symmetry_cell_setting 'monoclinic'
loop_
_space_group_symop_operation_xyz
x,y,z
-x,y,1/2-z
-x,-y,-z
x,-y,1/2+z
1/2+x,1/2+y,z
1/2-x,1/2+y,1/2-z
1/2-x,1/2-y,-z
1/2+x,1/2-y,1/2+z
loop_
_atom_site_type_symbol
_atom_site_label
_atom_site_fract_x
_atom_site_fract_y
_atom_site_fract_z
Si Si1 0.553331 0.126161 0.146932
Si Si2 0.794661 0.631346 0.792967
Si Si3 0.631599 0.479168 0.662786
Si Si4 0.752461 0.402049 0.935945
Si Si5 0.139530 0.804530 0.772798
Si Si6 0.174151 0.277150 0.813115
Si Si7 0.899062 0.207992 0.942040
Si Si8 0.649501 0.436242 0.368465
O O1 0.500000 0.100726 0.250000
O O2 0.638965 0.099061 0.099497
O O3 0.624284 0.170807 0.274489
O O4 0.434139 0.141391 0.953827
O O5 0.792517 0.599387 0.642039
O O6 0.714344 0.676586 0.696976
O O7 0.722251 0.607245 0.869349
O O8 0.500000 0.500000 0.500000
O O9 0.652464 0.440614 0.807856
O O10 0.683271 0.455068 0.558243
O O11 0.686658 0.524100 0.783025
O O12 0.693723 0.352171 0.870464
O O13 0.231245 0.778059 0.745320
O O14 0.023736 0.819588 0.577291
O O15 0.118777 0.774679 0.903759
O O16 0.069718 0.244798 0.657642
O O17 0.250000 0.250000 0.000000
O O18 0.500000 0.428978 0.250000
#
# Coordination Sequence:
#
# PCOD9281810 Si02
#       8
#     8   8   8   8   8   8   8   8
#     4  11  24  43  65  96 130 178 224 276 338 404
#     4  11  23  42  67  97 132 177 226 274 333 401
#     4  10  21  38  64  97 134 172 214 266 324 388
#     4  10  22  43  68  94 135 173 224 275 332 398
#     4   9  22  41  59  89 121 174 217 270 331 392
#     4  11  24  40  62  90 127 167 221 281 333 393
#     4  10  22  39  62  87 125 172 219 274 329 395
#     4  10  22  39  62 100 133 175 214 268 327 390
#
# _framework density 22.419969999999999
#
# number of rings (size 3 to 8) (size 9 to 14) (size 15 to 20)
#    0.000    1.750    0.000    3.000    7.000    2.000 
#    9.000    0.625    0.000    0.000    0.000    0.000 
#    0.000    0.000    0.000    0.000    0.000    0.000 
#
# Total GULP energy -178231.057005 kJ/mol
# GULP energy per Si atom -5569.720531 kJ/mol
# Density = 2.236894 g / cm^3
# Si number density = 22.419970 Si / 1000 Ang^3
#
#
#
# Elastic Constant Matrix: (Units=GPa)
#
#
# Indices 1 2 3 4 5 6 
#
# 1 82.7038 18.7615 27.6768 0.0000 -9.9946 0.0000
# 2 18.7615 65.7093 37.6914 0.0000 -11.0410 0.0000
# 3 27.6768 37.6914 127.9920 0.0000 3.5667 0.0000
# 4 0.0000 0.0000 0.0000 40.7925 0.0000 -2.9146
# 5 -9.9946 -11.0410 3.5667 0.0000 17.3120 0.0000
# 6 0.0000 0.0000 0.0000 -2.9146 0.0000 5.9057
#
#
#
# Elastic Compliance Matrix: (Units=1/GPa)
#
#
# Indices 1 2 3 4 5 6 
#
# 1 0.014330 -0.000947 -0.003051 0.000000 0.008297 0.000000
# 2 -0.000947 0.021747 -0.006608 0.000000 0.014684 0.000000
# 3 -0.003051 -0.006608 0.010646 0.000000 -0.008169 0.000000
# 4 0.000000 0.000000 0.000000 0.025410 0.000000 0.012540
# 5 0.008297 0.014684 -0.008169 0.000000 0.073602 0.000000
# 6 0.000000 0.000000 0.000000 0.012540 0.000000 0.175516
#
#
# Mechanical properties :
#
#
# Convention : Reuss Voigt Hill
#
# Bulk Modulus (GPa) = 39.20025 49.40716 44.30371
# Shear Modulus (GPa) = 14.24630 25.62041 19.93335
#
# Velocity S-wave (km/s) = 2.52351 3.38413 2.98499
# Velocity P-wave (km/s) = 5.10032 6.11185 5.62885
#
# Compressibility (1/GPa) = 0.02551004
#
# Stress axis : x y z
#
# Youngs Moduli (GPa) = 69.78385 45.98326 93.92799
#
# Poissons Ratio (x) = 0.04356 0.28657
# Poissons Ratio (y) = 0.06611 0.62072
# Poissons Ratio (z) = 0.21291 0.30388
#
# Static dielectric constant tensor:
#      x y z
#    x 1.943620 0.000000 0.037360 
#    y 0.000000 1.946960 0.000000 
#    z 0.037360 0.000000 1.939410 
# 
# From -- ./inp_files/44862.got.cif
#   From: 2010.05.17/outbox.cif.g08.bks.cpg/sg15_23_cif.got.tgz:44862.got - 2010.06.03 18:47:42.
