data_PCOD9281233
_publ_section_title
;
Structure prediction by ZEFSAII (Michael W. Deem and Ramdas Pophale) SiO2 
 PCOD9281233
Probable space group: C 2/C
;
_chemical_formula_sum "Si O2"
_cell_formula_units_Z 40
_cell_length_a 23.476540
_cell_length_b 5.559709
_cell_length_c 13.199567
_cell_angle_alpha 90.000000
_cell_angle_beta 84.957983
_cell_angle_gamma 90.000000
_cell_volume 1716.177014
_symmetry_space_group_name_H-M "C 2/C"
_symmetry_group_IT_number 15
_symmetry_cell_setting 'monoclinic'
loop_
_space_group_symop_operation_xyz
x,y,z
-x,y,1/2-z
-x,-y,-z
x,-y,1/2+z
1/2+x,1/2+y,z
1/2-x,1/2+y,1/2-z
1/2-x,1/2-y,-z
1/2+x,1/2-y,1/2+z
loop_
_atom_site_type_symbol
_atom_site_label
_atom_site_fract_x
_atom_site_fract_y
_atom_site_fract_z
Si Si1 0.826251 0.111828 0.957507
Si Si2 0.785343 0.254141 0.747430
Si Si3 0.044641 0.531277 0.585541
Si Si4 0.170418 0.389866 0.970732
Si Si5 0.043610 0.968019 0.086272
O O1 0.819822 0.200662 0.843986
O O2 0.893023 0.063271 0.970791
O O3 0.803541 0.338869 0.026530
O O4 0.803495 0.838782 0.972110
O O5 0.750090 0.505399 0.766256
O O6 0.825772 0.303778 0.645095
O O7 0.107412 0.560433 0.525506
O O8 0.037330 0.282209 0.645018
O O9 0.000000 0.500000 0.500000
O O10 0.038434 0.781206 0.644874
O O11 0.000000 0.000000 0.000000
#
# Coordination Sequence:
#
# PCOD9281233 Si02
#       5
#     8   8   8   8   8
#     4  10  21  38  60  85 118 158 199 252 311 361
#     4  12  26  40  58  87 120 161 216 260 302 368
#     4   8  14  27  51  80 107 141 179 224 289 355
#     4  10  21  38  60  85 118 158 199 252 311 361
#     4   8  14  27  51  80 107 141 179 224 289 355
#
# _framework density 23.307621000000001
#
# number of rings (size 3 to 8) (size 9 to 14) (size 15 to 20)
#    0.000    2.400    0.000    2.400    0.000    4.800 
#    0.000    0.000    0.000   19.200    0.000   56.000 
#    0.000    0.000    0.000    0.000    0.000    0.000 
#
# Total GULP energy -111344.812546 kJ/mol
# GULP energy per Si atom -5567.240627 kJ/mol
# Density = 2.325457 g / cm^3
# Si number density = 23.307621 Si / 1000 Ang^3
#
#
#
# Elastic Constant Matrix: (Units=GPa)
#
#
# Indices 1 2 3 4 5 6 
#
# 1 97.5325 42.5726 36.0781 0.0000 6.3812 0.0000
# 2 42.5726 310.1676 29.5796 0.0000 -5.1023 0.0000
# 3 36.0781 29.5796 91.6686 0.0000 -11.3477 0.0000
# 4 0.0000 0.0000 0.0000 24.0994 0.0000 5.1861
# 5 6.3812 -5.1023 -11.3477 0.0000 21.9115 0.0000
# 6 0.0000 0.0000 0.0000 5.1861 0.0000 26.0447
#
#
#
# Elastic Compliance Matrix: (Units=1/GPa)
#
#
# Indices 1 2 3 4 5 6 
#
# 1 0.013467 -0.001420 -0.005736 0.000000 -0.007224 0.000000
# 2 -0.001420 0.003477 -0.000440 0.000000 0.000996 0.000000
# 3 -0.005736 -0.000440 0.014428 0.000000 0.009040 0.000000
# 4 0.000000 0.000000 0.000000 0.043352 0.000000 -0.008632
# 5 -0.007224 0.000996 0.009040 0.000000 0.052655 0.000000
# 6 0.000000 0.000000 0.000000 -0.008632 0.000000 0.040115
#
#
# Mechanical properties :
#
#
# Convention : Reuss Voigt Hill
#
# Bulk Modulus (GPa) = 61.80691 79.53659 70.67175
# Shear Modulus (GPa) = 26.58434 40.48701 33.53568
#
# Velocity S-wave (km/s) = 3.38092 4.17234 3.79730
# Velocity P-wave (km/s) = 6.46655 7.57694 7.04366
#
# Compressibility (1/GPa) = 0.01617942
#
# Stress axis : x y z
#
# Youngs Moduli (GPa) = 74.25303 287.57709 69.31207
#
# Poissons Ratio (x) = 0.40844 0.39760
# Poissons Ratio (y) = 0.10546 0.03049
# Poissons Ratio (z) = 0.42594 0.12649
#
# Static dielectric constant tensor:
#      x y z
#    x 1.975550 0.000000 -0.005650 
#    y 0.000000 2.086640 0.000000 
#    z -0.005650 0.000000 1.794020 
# 
# From -- ./inp_files/120816.got.cif
#   From: 2010.05.17/outbox.cif.g08.bks.cpg/sg15_61_cif.got.tgz:120816.got - 2010.06.03 18:47:42.
