data_PCOD9281844
_publ_section_title
;
Structure prediction by ZEFSAII (Michael W. Deem and Ramdas Pophale) SiO2 
 PCOD9281844
Probable space group: C 2/C
;
_chemical_formula_sum "Si O2"
_cell_formula_units_Z 56
_cell_length_a 18.415224
_cell_length_b 7.810559
_cell_length_c 22.915909
_cell_angle_alpha 90.000000
_cell_angle_beta 114.605107
_cell_angle_gamma 90.000000
_cell_volume 2996.782072
_symmetry_space_group_name_H-M "C 2/C"
_symmetry_group_IT_number 15
_symmetry_cell_setting 'monoclinic'
loop_
_space_group_symop_operation_xyz
x,y,z
-x,y,1/2-z
-x,-y,-z
x,-y,1/2+z
1/2+x,1/2+y,z
1/2-x,1/2+y,1/2-z
1/2-x,1/2-y,-z
1/2+x,1/2-y,1/2+z
loop_
_atom_site_type_symbol
_atom_site_label
_atom_site_fract_x
_atom_site_fract_y
_atom_site_fract_z
Si Si1 0.252330 0.990230 0.493138
Si Si2 0.699188 0.832061 0.282652
Si Si3 0.965003 0.896630 0.432252
Si Si4 0.363230 0.523761 0.786443
Si Si5 0.379045 0.731991 0.580121
Si Si6 0.908411 0.344018 0.720793
Si Si7 0.303749 0.712701 0.928826
O O1 0.320578 0.848847 0.521881
O O2 0.173794 0.938763 0.431033
O O3 0.293552 0.146444 0.474674
O O4 0.217611 0.036369 0.545207
O O5 0.652433 0.667793 0.242117
O O6 0.776348 0.894791 0.271886
O O7 0.738956 0.771081 0.356539
O O8 0.644896 0.000800 0.272443
O O9 0.918152 0.991242 0.363198
O O10 0.892819 0.783275 0.433686
O O11 0.038354 0.801919 0.425152
O O12 0.000000 0.000000 0.500000
O O13 0.400466 0.666456 0.755052
O O14 0.387144 0.810407 0.646454
O O15 0.000000 0.398926 0.750000
#
# Coordination Sequence:
#
# PCOD9281844 Si02
#       7
#     8   8   8   8   8   8   8
#     4  10  21  38  65  91 119 172 205 258 319 372
#     4  11  23  44  66  97 125 173 221 262 322 396
#     4  11  23  43  63  93 130 166 209 270 324 382
#     4  11  24  43  72  93 131 173 215 271 326 384
#     4  11  22  41  64  91 128 166 210 261 323 378
#     4  12  24  43  64  97 135 166 214 272 321 384
#     4  10  21  40  63  89 128 160 213 264 305 383
#
# _framework density 18.686710000000001
#
# number of rings (size 3 to 8) (size 9 to 14) (size 15 to 20)
#    0.000    1.143    5.714    0.857    0.000    1.143 
#    7.714    0.000    0.000    0.000    0.000    0.000 
#    0.000    0.000    0.000    0.000    0.000    0.000 
#
# Total GULP energy -156031.887381 kJ/mol
# GULP energy per Si atom -5572.567406 kJ/mol
# Density = 1.864418 g / cm^3
# Si number density = 18.686710 Si / 1000 Ang^3
#
#
#
# Elastic Constant Matrix: (Units=GPa)
#
#
# Indices 1 2 3 4 5 6 
#
# 1 124.7627 43.6717 33.8293 0.0000 14.3862 0.0000
# 2 43.6717 77.5494 38.5038 0.0000 -1.4566 0.0000
# 3 33.8293 38.5038 86.0931 0.0000 12.0138 0.0000
# 4 0.0000 0.0000 0.0000 24.7925 0.0000 -5.4261
# 5 14.3862 -1.4566 12.0138 0.0000 26.3896 0.0000
# 6 0.0000 0.0000 0.0000 -5.4261 0.0000 25.6288
#
#
#
# Elastic Compliance Matrix: (Units=1/GPa)
#
#
# Indices 1 2 3 4 5 6 
#
# 1 0.010987 -0.005868 -0.000867 0.000000 -0.005919 0.000000
# 2 -0.005868 0.020245 -0.007850 0.000000 0.007890 0.000000
# 3 -0.000867 -0.007850 0.016510 0.000000 -0.007477 0.000000
# 4 0.000000 0.000000 0.000000 0.042295 0.000000 0.008954
# 5 -0.005919 0.007890 -0.007477 0.000000 0.044959 0.000000
# 6 0.000000 0.000000 0.000000 0.008954 0.000000 0.040914
#
#
# Mechanical properties :
#
#
# Convention : Reuss Voigt Hill
#
# Bulk Modulus (GPa) = 53.84150 57.82387 55.83269
# Shear Modulus (GPa) = 23.66645 26.85555 25.26100
#
# Velocity S-wave (km/s) = 3.56263 3.79508 3.68069
# Velocity P-wave (km/s) = 6.76745 7.08622 6.92867
#
# Compressibility (1/GPa) = 0.01857303
#
# Stress axis : x y z
#
# Youngs Moduli (GPa) = 91.01904 49.39485 60.56985
#
# Poissons Ratio (x) = 0.28984 0.05251
# Poissons Ratio (y) = 0.53409 0.47544
# Poissons Ratio (z) = 0.07890 0.38773
#
# Static dielectric constant tensor:
#      x y z
#    x 1.632400 0.000000 -0.000160 
#    y 0.000000 1.687330 0.000000 
#    z -0.000160 0.000000 1.718580 
# 
# From -- ./inp_files/247594.got.cif
#   From: 2010.05.17/outbox.cif.g08.bks.cpg/sg15_124_cif.got.tgz:247594.got - 2010.06.03 18:47:42.
