data_PCOD9281363
_publ_section_title
;
Structure prediction by ZEFSAII (Michael W. Deem and Ramdas Pophale) SiO2 
 PCOD9281363
Probable space group: C 2/C
;
_chemical_formula_sum "Si O2"
_cell_formula_units_Z 32
_cell_length_a 20.969068
_cell_length_b 8.211258
_cell_length_c 8.008051
_cell_angle_alpha 90.000000
_cell_angle_beta 66.188396
_cell_angle_gamma 90.000000
_cell_volume 1261.475449
_symmetry_space_group_name_H-M "C 2/C"
_symmetry_group_IT_number 15
_symmetry_cell_setting 'monoclinic'
loop_
_space_group_symop_operation_xyz
x,y,z
-x,y,1/2-z
-x,-y,-z
x,-y,1/2+z
1/2+x,1/2+y,z
1/2-x,1/2+y,1/2-z
1/2-x,1/2-y,-z
1/2+x,1/2-y,1/2+z
loop_
_atom_site_type_symbol
_atom_site_label
_atom_site_fract_x
_atom_site_fract_y
_atom_site_fract_z
Si Si1 0.165792 0.890812 0.686334
Si Si2 0.088746 0.616579 0.264120
Si Si3 0.955324 0.276262 0.057250
Si Si4 0.287501 0.277711 0.225577
O O1 0.085150 0.876628 0.823875
O O2 0.209795 0.777062 0.766726
O O3 0.179307 0.825745 0.487635
O O4 0.199170 0.068047 0.671259
O O5 0.064214 0.431076 0.307703
O O6 0.167390 0.633719 0.241575
O O7 0.037854 0.721166 0.439521
O O8 0.075438 0.681545 0.093247
#
# Coordination Sequence:
#
# PCOD9281363 Si02
#       4
#     8   8   8   8
#     4  11  24  40  60  86 116 152 193 238 288 342
#     4  10  21  38  61  88 118 153 192 235 285 341
#     4  10  21  38  61  88 118 153 192 235 285 341
#     4  11  24  40  60  86 116 152 193 238 288 342
#
# _framework density 25.36712
#
# number of rings (size 3 to 8) (size 9 to 14) (size 15 to 20)
#    0.000    1.500    0.000    4.500    0.000   12.000 
#    0.000    0.000    0.000    0.000    0.000    0.000 
#    0.000    0.000    0.000    0.000    0.000    0.000 
#
# Total GULP energy -89684.232252 kJ/mol
# GULP energy per Si atom -5605.264516 kJ/mol
# Density = 2.530938 g / cm^3
# Si number density = 25.367120 Si / 1000 Ang^3
#
#
#
# Elastic Constant Matrix: (Units=GPa)
#
#
# Indices 1 2 3 4 5 6 
#
# 1 86.7137 -0.7149 20.4009 0.0000 3.2663 0.0000
# 2 -0.7149 60.3744 -2.3350 0.0000 -3.7044 0.0000
# 3 20.4009 -2.3350 89.6868 0.0000 -3.4684 0.0000
# 4 0.0000 0.0000 0.0000 23.5288 0.0000 -2.3262
# 5 3.2663 -3.7044 -3.4684 0.0000 35.7437 0.0000
# 6 0.0000 0.0000 0.0000 -2.3262 0.0000 34.8532
#
#
#
# Elastic Compliance Matrix: (Units=1/GPa)
#
#
# Indices 1 2 3 4 5 6 
#
# 1 0.012253 -0.000051 -0.002843 0.000000 -0.001401 0.000000
# 2 -0.000051 0.016692 0.000515 0.000000 0.001785 0.000000
# 3 -0.002843 0.000515 0.011867 0.000000 0.001465 0.000000
# 4 0.000000 0.000000 0.000000 0.042783 0.000000 0.002855
# 5 -0.001401 0.001785 0.001465 0.000000 0.028432 0.000000
# 6 0.000000 0.000000 0.000000 0.002855 0.000000 0.028882
#
#
# Mechanical properties :
#
#
# Convention : Reuss Voigt Hill
#
# Bulk Modulus (GPa) = 27.73518 30.16410 28.94964
# Shear Modulus (GPa) = 31.70877 33.45341 32.58109
#
# Velocity S-wave (km/s) = 3.53936 3.63543 3.58772
# Velocity P-wave (km/s) = 5.25928 5.43494 5.34783
#
# Compressibility (1/GPa) = 0.03605529
#
# Stress axis : x y z
#
# Youngs Moduli (GPa) = 81.61032 59.90843 84.27013
#
# Poissons Ratio (x) = 0.00304 0.23956
# Poissons Ratio (y) = 0.00415 -0.04341
# Poissons Ratio (z) = 0.23200 -0.03086
#
# Static dielectric constant tensor:
#      x y z
#    x 1.928410 0.000000 -0.001720 
#    y 0.000000 1.986290 0.000000 
#    z -0.001720 0.000000 1.957870 
# 
# From -- ./inp_files/53412.got.cif
#   From: 2010.05.17/outbox.cif.g08.bks.cpg/sg15_27_cif.got.tgz:53412.got - 2010.06.03 18:47:42.
