data_PCOD9281096
_publ_section_title
;
Structure prediction by ZEFSAII (Michael W. Deem and Ramdas Pophale) SiO2 
 PCOD9281096
Probable space group: C 2/C
;
_chemical_formula_sum "Si O2"
_cell_formula_units_Z 64
_cell_length_a 10.754203
_cell_length_b 28.946492
_cell_length_c 9.225348
_cell_angle_alpha 90.000000
_cell_angle_beta 94.683081
_cell_angle_gamma 90.000000
_cell_volume 2862.230640
_symmetry_space_group_name_H-M "C 2/C"
_symmetry_group_IT_number 15
_symmetry_cell_setting 'monoclinic'
loop_
_space_group_symop_operation_xyz
x,y,z
-x,y,1/2-z
-x,-y,-z
x,-y,1/2+z
1/2+x,1/2+y,z
1/2-x,1/2+y,1/2-z
1/2-x,1/2-y,-z
1/2+x,1/2-y,1/2+z
loop_
_atom_site_type_symbol
_atom_site_label
_atom_site_fract_x
_atom_site_fract_y
_atom_site_fract_z
Si Si1 0.712764 0.302849 0.679305
Si Si2 0.745967 0.992318 0.174612
Si Si3 0.224851 0.661025 0.011495
Si Si4 0.644058 0.798207 0.220154
Si Si5 0.850127 0.936217 0.456016
Si Si6 0.161388 0.440703 0.891014
Si Si7 0.062164 0.347398 0.949070
Si Si8 0.925542 0.889621 0.894369
O O1 0.688558 0.249352 0.655021
O O2 0.852905 0.316333 0.646790
O O3 0.616446 0.336616 0.586932
O O4 0.699364 0.317378 0.847626
O O5 0.817514 0.960898 0.300674
O O6 0.652150 0.022858 0.262099
O O7 0.670809 0.963745 0.048647
O O8 0.832180 0.025661 0.082199
O O9 0.231621 0.689114 0.862909
O O10 0.261611 0.607825 0.984664
O O11 0.079918 0.665194 0.040312
O O12 0.500000 0.789754 0.250000
O O13 0.634163 0.840847 0.108664
O O14 0.987222 0.913855 0.478973
O O15 0.066742 0.399154 0.893558
O O16 0.296087 0.416908 0.873846
O O17 0.000000 0.893072 0.750000
#
# Coordination Sequence:
#
# PCOD9281096 Si02
#       8
#     8   8   8   8   8   8   8   8
#     4  11  21  38  63  88 118 152 200 242 289 358
#     4  10  22  37  59  89 118 154 204 248 289 358
#     4  11  22  39  63  86 118 157 197 240 296 350
#     4  10  22  38  62  91 118 151 194 246 296 348
#     4  11  22  39  59  88 121 158 200 244 300 346
#     4  10  21  38  58  84 118 154 198 243 298 349
#     4  10  22  41  61  84 119 161 192 238 301 351
#     4  11  20  36  60  85 116 160 189 239 304 350
#
# _framework density 22.360182999999999
#
# number of rings (size 3 to 8) (size 9 to 14) (size 15 to 20)
#    0.000    1.500    2.500    3.000    0.000    3.500 
#    0.000    3.750    2.750    0.000    0.000    0.000 
#    0.000    0.000    0.000    0.000    0.000    0.000 
#
# Total GULP energy -178845.980536 kJ/mol
# GULP energy per Si atom -5588.936892 kJ/mol
# Density = 2.230929 g / cm^3
# Si number density = 22.360183 Si / 1000 Ang^3
#
#
#
# Elastic Constant Matrix: (Units=GPa)
#
#
# Indices 1 2 3 4 5 6 
#
# 1 18.4540 13.4049 14.4194 0.0000 1.4048 0.0000
# 2 13.4049 102.0912 26.0284 0.0000 5.0119 0.0000
# 3 14.4194 26.0284 85.2493 0.0000 3.3020 0.0000
# 4 0.0000 0.0000 0.0000 23.7671 0.0000 4.0235
# 5 1.4048 5.0119 3.3020 0.0000 19.8907 0.0000
# 6 0.0000 0.0000 0.0000 4.0235 0.0000 3.5070
#
#
#
# Elastic Compliance Matrix: (Units=1/GPa)
#
#
# Indices 1 2 3 4 5 6 
#
# 1 0.066036 -0.006248 -0.009201 0.000000 -0.001562 0.000000
# 2 -0.006248 0.011305 -0.002317 0.000000 -0.002023 0.000000
# 3 -0.009201 -0.002317 0.014036 0.000000 -0.001097 0.000000
# 4 0.000000 0.000000 0.000000 0.052216 0.000000 -0.059906
# 5 -0.001562 -0.002023 -0.001097 0.000000 0.051077 0.000000
# 6 0.000000 0.000000 0.000000 -0.059906 0.000000 0.353873
#
#
# Mechanical properties :
#
#
# Convention : Reuss Voigt Hill
#
# Bulk Modulus (GPa) = 17.90649 34.83332 26.36990
# Shear Modulus (GPa) = 8.29612 19.56242 13.92927
#
# Velocity S-wave (km/s) = 1.92828 2.96104 2.49860
# Velocity P-wave (km/s) = 3.60323 5.22517 4.48808
#
# Compressibility (1/GPa) = 0.05584568
#
# Stress axis : x y z
#
# Youngs Moduli (GPa) = 15.14322 88.45253 71.24309
#
# Poissons Ratio (x) = 0.55266 0.65554
# Poissons Ratio (y) = 0.09462 0.16504
# Poissons Ratio (z) = 0.13934 0.20491
#
# Static dielectric constant tensor:
#      x y z
#    x 1.808080 0.000000 0.008560 
#    y 0.000000 1.822670 0.000000 
#    z 0.008560 0.000000 1.885580 
# 
# From -- ./inp_files/35691.got.cif
#   From: 2010.05.17/outbox.cif.g08.bks.cpg/sg15_18_cif.got.tgz:35691.got - 2010.06.03 18:47:42.
