data_PCOD9281701
_publ_section_title
;
Structure prediction by ZEFSAII (Michael W. Deem and Ramdas Pophale) SiO2 
 PCOD9281701
Probable space group: C 2/C
;
_chemical_formula_sum "Si O2"
_cell_formula_units_Z 52
_cell_length_a 11.177759
_cell_length_b 9.196622
_cell_length_c 23.007851
_cell_angle_alpha 90.000000
_cell_angle_beta 113.078161
_cell_angle_gamma 90.000000
_cell_volume 2175.871581
_symmetry_space_group_name_H-M "C 2/C"
_symmetry_group_IT_number 15
_symmetry_cell_setting 'monoclinic'
loop_
_space_group_symop_operation_xyz
x,y,z
-x,y,1/2-z
-x,-y,-z
x,-y,1/2+z
1/2+x,1/2+y,z
1/2-x,1/2+y,1/2-z
1/2-x,1/2-y,-z
1/2+x,1/2-y,1/2+z
loop_
_atom_site_type_symbol
_atom_site_label
_atom_site_fract_x
_atom_site_fract_y
_atom_site_fract_z
Si Si1 0.240637 0.638891 0.303279
Si Si2 0.124118 0.148924 0.984243
Si Si3 0.492637 0.522813 0.845921
Si Si4 0.161693 0.825274 0.033466
Si Si5 0.627282 0.773311 0.334442
Si Si6 0.868708 0.411040 0.293624
Si Si7 0.000000 0.245658 0.750000
O O1 0.361963 0.548342 0.346676
O O2 0.195992 0.566250 0.232416
O O3 0.282802 0.806201 0.316456
O O4 0.098562 0.648748 0.302543
O O5 0.074668 0.097200 0.911546
O O6 0.993029 0.212458 0.990822
O O7 0.250000 0.250000 0.000000
O O8 0.163164 0.998626 0.023282
O O9 0.569773 0.388863 0.830942
O O10 0.449703 0.638367 0.789812
O O11 0.237826 0.783949 0.106488
O O12 0.250000 0.750000 0.000000
O O13 0.516458 0.879837 0.341020
O O14 0.638273 0.827972 0.270536
#
# Coordination Sequence:
#
# PCOD9281701 Si02
#       7
#     8   8   8   8   8   8   4
#     4  11  22  39  62  99 138 174 221 278 344 428
#     4  11  27  47  73 104 140 184 247 298 353 414
#     4  11  23  45  64 103 143 176 227 301 342 423
#     4  11  24  49  72  98 139 191 236 299 351 416
#     4  10  21  41  69  90 137 182 229 284 357 418
#     4  10  21  38  63  98 132 177 226 276 354 420
#     4  12  24  38  70 100 140 178 232 270 368 424
#
# _framework density 23.898472000000002
#
# number of rings (size 3 to 8) (size 9 to 14) (size 15 to 20)
#    0.000    1.231    3.077    3.692    0.000    5.538 
#    0.000    0.000    0.000    0.000    0.000    0.000 
#    0.000    0.000    0.000    0.000    0.000    0.000 
#
# Total GULP energy -145039.860089 kJ/mol
# GULP energy per Si atom -5578.456157 kJ/mol
# Density = 2.384408 g / cm^3
# Si number density = 23.898472 Si / 1000 Ang^3
#
#
#
# Elastic Constant Matrix: (Units=GPa)
#
#
# Indices 1 2 3 4 5 6 
#
# 1 139.4668 56.0614 34.7152 0.0000 34.0980 0.0000
# 2 56.0614 114.2368 11.5868 0.0000 18.8136 0.0000
# 3 34.7152 11.5868 79.0871 0.0000 18.9899 0.0000
# 4 0.0000 0.0000 0.0000 33.4104 0.0000 7.7131
# 5 34.0980 18.8136 18.9899 0.0000 45.5854 0.0000
# 6 0.0000 0.0000 0.0000 7.7131 0.0000 47.3749
#
#
#
# Elastic Compliance Matrix: (Units=1/GPa)
#
#
# Indices 1 2 3 4 5 6 
#
# 1 0.010834 -0.004170 -0.002902 0.000000 -0.005174 0.000000
# 2 -0.004170 0.011015 0.000621 0.000000 -0.001685 0.000000
# 3 -0.002902 0.000621 0.014853 0.000000 -0.004273 0.000000
# 4 0.000000 0.000000 0.000000 0.031100 0.000000 -0.005063
# 5 -0.005174 -0.001685 -0.004273 0.000000 0.028282 0.000000
# 6 0.000000 0.000000 0.000000 -0.005063 0.000000 0.021933
#
#
# Mechanical properties :
#
#
# Convention : Reuss Voigt Hill
#
# Bulk Modulus (GPa) = 42.01720 59.72418 50.87069
# Shear Modulus (GPa) = 36.00960 40.63594 38.32277
#
# Velocity S-wave (km/s) = 3.88593 4.12801 4.00880
# Velocity P-wave (km/s) = 6.14440 6.91127 6.53909
#
# Compressibility (1/GPa) = 0.02379978
#
# Stress axis : x y z
#
# Youngs Moduli (GPa) = 92.30400 90.78676 67.32545
#
# Poissons Ratio (x) = 0.37860 0.19540
# Poissons Ratio (y) = 0.38493 -0.04184
# Poissons Ratio (z) = 0.26789 -0.05642
#
# Static dielectric constant tensor:
#      x y z
#    x 2.013520 0.000000 0.008210 
#    y 0.000000 1.954460 0.000000 
#    z 0.008210 0.000000 1.939240 
# 
# From -- ./inp_files/291705.got.cif
#   From: 2010.05.17/outbox.cif.g08.bks.cpg/sg15_146_cif.got.tgz:291705.got - 2010.06.03 18:47:42.
