data_PCOD9281300
_publ_section_title
;
Structure prediction by ZEFSAII (Michael W. Deem and Ramdas Pophale) SiO2 
 PCOD9281300
Probable space group: C 2/C
;
_chemical_formula_sum "Si O2"
_cell_formula_units_Z 32
_cell_length_a 11.451441
_cell_length_b 22.014525
_cell_length_c 5.036878
_cell_angle_alpha 90.000000
_cell_angle_beta 93.197871
_cell_angle_gamma 90.000000
_cell_volume 1267.809778
_symmetry_space_group_name_H-M "C 2/C"
_symmetry_group_IT_number 15
_symmetry_cell_setting 'monoclinic'
loop_
_space_group_symop_operation_xyz
x,y,z
-x,y,1/2-z
-x,-y,-z
x,-y,1/2+z
1/2+x,1/2+y,z
1/2-x,1/2+y,1/2-z
1/2-x,1/2-y,-z
1/2+x,1/2-y,1/2+z
loop_
_atom_site_type_symbol
_atom_site_label
_atom_site_fract_x
_atom_site_fract_y
_atom_site_fract_z
Si Si1 0.822067 0.344423 0.494974
Si Si2 0.500000 0.454396 0.750000
Si Si3 0.332612 0.347590 0.531812
Si Si4 0.627807 0.976429 0.154629
Si Si5 0.500000 0.752696 0.250000
O O1 0.775677 0.334189 0.783943
O O2 0.880144 0.410332 0.469391
O O3 0.912684 0.294329 0.408863
O O4 0.714417 0.349892 0.273601
O O5 0.500000 0.500000 0.500000
O O6 0.396109 0.406625 0.664517
O O7 0.422078 0.291962 0.562943
O O8 0.500000 0.995382 0.250000
O O9 0.689528 0.980664 0.448431
#
# Coordination Sequence:
#
# PCOD9281300 Si02
#       5
#     8   4   8   8   4
#     4  12  24  44  69  98 131 179 219 275 333 394
#     4  11  24  46  72 100 138 175 214 274 334 387
#     4  11  27  43  69 101 131 170 231 271 325 400
#     4  10  21  38  60  92 129 164 206 259 320 389
#     4  11  26  48  66  96 134 179 218 284 330 387
#
# _framework density 25.240378
#
# number of rings (size 3 to 8) (size 9 to 14) (size 15 to 20)
#    0.000    1.000    1.250    4.500    0.000   12.000 
#    0.000    0.000    0.000    0.000    0.000    0.000 
#    0.000    0.000    0.000    0.000    0.000    0.000 
#
# Total GULP energy -89581.660129 kJ/mol
# GULP energy per Si atom -5598.853758 kJ/mol
# Density = 2.518293 g / cm^3
# Si number density = 25.240378 Si / 1000 Ang^3
#
#
#
# Elastic Constant Matrix: (Units=GPa)
#
#
# Indices 1 2 3 4 5 6 
#
# 1 63.0250 51.9291 -9.1768 0.0000 4.1538 0.0000
# 2 51.9291 150.0740 16.2963 0.0000 3.0455 0.0000
# 3 -9.1768 16.2963 114.9971 0.0000 -12.6922 0.0000
# 4 0.0000 0.0000 0.0000 36.3770 0.0000 -12.4085
# 5 4.1538 3.0455 -12.6922 0.0000 20.8675 0.0000
# 6 0.0000 0.0000 0.0000 -12.4085 0.0000 98.5955
#
#
#
# Elastic Compliance Matrix: (Units=1/GPa)
#
#
# Indices 1 2 3 4 5 6 
#
# 1 0.023247 -0.008319 0.002848 0.000000 -0.001681 0.000000
# 2 -0.008319 0.009800 -0.002174 0.000000 -0.001096 0.000000
# 3 0.002848 -0.002174 0.009866 0.000000 0.005751 0.000000
# 4 0.000000 0.000000 0.000000 0.028723 0.000000 0.003615
# 5 -0.001681 -0.001096 0.005751 0.000000 0.051914 0.000000
# 6 0.000000 0.000000 0.000000 0.003615 0.000000 0.010597
#
#
# Mechanical properties :
#
#
# Convention : Reuss Voigt Hill
#
# Bulk Modulus (GPa) = 36.19993 49.57704 42.88849
# Shear Modulus (GPa) = 31.51715 49.10450 40.31082
#
# Velocity S-wave (km/s) = 3.53750 4.41554 4.00068
# Velocity P-wave (km/s) = 5.57301 6.75874 6.19431
#
# Compressibility (1/GPa) = 0.02762436
#
# Stress axis : x y z
#
# Youngs Moduli (GPa) = 43.01677 102.03797 101.35875
#
# Poissons Ratio (x) = 0.84887 -0.28872
# Poissons Ratio (y) = 0.35786 0.22032
# Poissons Ratio (z) = -0.12253 0.22180
#
# Static dielectric constant tensor:
#      x y z
#    x 2.285600 0.000000 0.413850 
#    y 0.000000 1.967700 0.000000 
#    z 0.413850 0.000000 2.454470 
# 
# From -- ./inp_files/3705.got.cif
#   From: 2010.05.17/outbox.cif.g08.bks.cpg/sg15_2_cif.got.tgz:3705.got - 2010.06.03 18:47:42.
