data_PCOD9281472
_publ_section_title
;
Structure prediction by ZEFSAII (Michael W. Deem and Ramdas Pophale) SiO2 
 PCOD9281472
Probable space group: C 2/C
;
_chemical_formula_sum "Si O2"
_cell_formula_units_Z 56
_cell_length_a 13.423149
_cell_length_b 8.316903
_cell_length_c 26.161452
_cell_angle_alpha 90.000000
_cell_angle_beta 63.374737
_cell_angle_gamma 90.000000
_cell_volume 2610.924938
_symmetry_space_group_name_H-M "C 2/C"
_symmetry_group_IT_number 15
_symmetry_cell_setting 'monoclinic'
loop_
_space_group_symop_operation_xyz
x,y,z
-x,y,1/2-z
-x,-y,-z
x,-y,1/2+z
1/2+x,1/2+y,z
1/2-x,1/2+y,1/2-z
1/2-x,1/2-y,-z
1/2+x,1/2-y,1/2+z
loop_
_atom_site_type_symbol
_atom_site_label
_atom_site_fract_x
_atom_site_fract_y
_atom_site_fract_z
Si Si1 0.149021 0.738586 0.373909
Si Si2 0.970857 0.336828 0.197439
Si Si3 0.558241 0.463289 0.317352
Si Si4 0.312916 0.334404 0.393148
Si Si5 0.748724 0.445465 0.196508
Si Si6 0.921813 0.460190 0.911353
Si Si7 0.692512 0.871191 0.974689
O O1 0.127019 0.907340 0.351682
O O2 0.244535 0.630869 0.324582
O O3 0.164331 0.730105 0.430697
O O4 0.036488 0.637360 0.389652
O O5 0.851763 0.414578 0.210337
O O6 0.000000 0.355752 0.250000
O O7 0.062027 0.420013 0.139867
O O8 0.961703 0.151292 0.184023
O O9 0.438166 0.380217 0.346978
O O10 0.635150 0.411216 0.252273
O O11 0.242268 0.339097 0.356976
O O12 0.267058 0.478598 0.438624
O O13 0.324422 0.166741 0.420188
O O14 0.904285 0.550564 0.968773
O O15 0.750000 0.750000 0.000000
#
# Coordination Sequence:
#
# PCOD9281472 Si02
#       7
#     8   8   8   8   8   8   8
#     4   9  22  40  59  85 117 157 202 241 297 364
#     4  11  24  39  60  92 124 156 201 253 304 364
#     4  11  21  38  60  86 122 159 196 249 304 358
#     4  10  22  39  61  90 120 158 203 245 302 369
#     4  10  21  38  62  88 120 159 196 246 305 366
#     4  10  22  41  61  83 119 161 199 246 301 361
#     4  11  22  39  62  88 118 154 201 256 301 352
#
# _framework density 21.448338
#
# number of rings (size 3 to 8) (size 9 to 14) (size 15 to 20)
#    0.000    1.714    0.000    3.857    0.000    9.143 
#    0.000    8.571    0.000    0.000    0.000    0.000 
#    0.000    0.000    0.000    0.000    0.000    0.000 
#
# Total GULP energy -156458.155809 kJ/mol
# GULP energy per Si atom -5587.791279 kJ/mol
# Density = 2.139952 g / cm^3
# Si number density = 21.448338 Si / 1000 Ang^3
#
#
#
# Elastic Constant Matrix: (Units=GPa)
#
#
# Indices 1 2 3 4 5 6 
#
# 1 48.8222 11.1069 47.4185 0.0000 27.3194 0.0000
# 2 11.1069 38.0270 39.1806 0.0000 27.5674 0.0000
# 3 47.4185 39.1806 145.3575 0.0000 28.7829 0.0000
# 4 0.0000 0.0000 0.0000 26.0920 0.0000 4.1839
# 5 27.3194 27.5674 28.7829 0.0000 49.9838 0.0000
# 6 0.0000 0.0000 0.0000 4.1839 0.0000 27.0973
#
#
#
# Elastic Compliance Matrix: (Units=1/GPa)
#
#
# Indices 1 2 3 4 5 6 
#
# 1 0.047524 0.024764 -0.016175 0.000000 -0.030319 0.000000
# 2 0.024764 0.066653 -0.018155 0.000000 -0.039841 0.000000
# 3 -0.016175 -0.018155 0.015030 0.000000 0.010199 0.000000
# 4 0.000000 0.000000 0.000000 0.039299 0.000000 -0.006068
# 5 -0.030319 -0.039841 0.010199 0.000000 0.052679 0.000000
# 6 0.000000 0.000000 0.000000 -0.006068 0.000000 0.037841
#
#
# Mechanical properties :
#
#
# Convention : Reuss Voigt Hill
#
# Bulk Modulus (GPa) = 9.08470 47.51322 28.29896
# Shear Modulus (GPa) = 15.88059 29.60133 22.74096
#
# Velocity S-wave (km/s) = 2.72400 3.71903 3.25971
# Velocity P-wave (km/s) = 3.76011 6.37511 5.23357
#
# Compressibility (1/GPa) = 0.11007517
#
# Stress axis : x y z
#
# Youngs Moduli (GPa) = 21.04199 15.00308 66.53185
#
# Poissons Ratio (x) = -0.37154 1.07614
# Poissons Ratio (y) = -0.52109 1.20792
# Poissons Ratio (z) = 0.34035 0.27239
#
# Static dielectric constant tensor:
#      x y z
#    x 1.810220 0.000000 -0.012880 
#    y 0.000000 1.796380 0.000000 
#    z -0.012880 0.000000 1.800960 
# 
# From -- ./inp_files/273074.got.cif
#   From: 2010.05.17/outbox.cif.g08.bks.cpg/sg15_137_cif.got.tgz:273074.got - 2010.06.03 18:47:42.
