data_PCOD9281447
_publ_section_title
;
Structure prediction by ZEFSAII (Michael W. Deem and Ramdas Pophale) SiO2 
 PCOD9281447
Probable space group: C 2/C
;
_chemical_formula_sum "Si O2"
_cell_formula_units_Z 56
_cell_length_a 18.459696
_cell_length_b 12.757004
_cell_length_c 18.346955
_cell_angle_alpha 90.000000
_cell_angle_beta 143.884126
_cell_angle_gamma 90.000000
_cell_volume 2546.608833
_symmetry_space_group_name_H-M "C 2/C"
_symmetry_group_IT_number 15
_symmetry_cell_setting 'monoclinic'
loop_
_space_group_symop_operation_xyz
x,y,z
-x,y,1/2-z
-x,-y,-z
x,-y,1/2+z
1/2+x,1/2+y,z
1/2-x,1/2+y,1/2-z
1/2-x,1/2-y,-z
1/2+x,1/2-y,1/2+z
loop_
_atom_site_type_symbol
_atom_site_label
_atom_site_fract_x
_atom_site_fract_y
_atom_site_fract_z
Si Si1 0.462204 0.001006 0.634383
Si Si2 0.868890 0.027282 0.929425
Si Si3 0.519009 0.239524 0.178478
Si Si4 0.720056 0.956768 0.625014
Si Si5 0.752085 0.816838 0.780242
Si Si6 0.500124 0.475148 0.163604
Si Si7 0.853182 0.378790 0.320994
O O1 0.500000 0.009747 0.750000
O O2 0.468816 0.876661 0.619745
O O3 0.330698 0.041993 0.498202
O O4 0.555870 0.072218 0.663799
O O5 0.788166 0.923963 0.849397
O O6 0.785393 0.115662 0.825154
O O7 0.901090 0.043603 0.039841
O O8 0.000000 0.000000 0.000000
O O9 0.500000 0.243439 0.250000
O O10 0.655788 0.237508 0.256172
O O11 0.471195 0.354428 0.116525
O O12 0.862646 0.988564 0.745558
O O13 0.646567 0.046046 0.609250
O O14 0.701509 0.854646 0.660291
O O15 0.866416 0.740288 0.857578
O O16 0.500000 0.481890 0.250000
#
# Coordination Sequence:
#
# PCOD9281447 Si02
#       7
#     8   8   8   8   8   8   8
#     4  11  25  43  63  92 130 165 209 262 313 370
#     4  11  21  41  64  92 127 162 213 254 312 373
#     4  10  21  38  61  99 128 161 200 251 327 370
#     4  11  23  43  63  94 124 168 213 252 314 373
#     4  11  22  40  67  95 125 165 214 257 307 375
#     4  11  24  39  63  98 130 165 199 259 321 375
#     4  11  23  41  66  94 123 169 211 260 309 369
#
# _framework density 21.990030000000001
#
# number of rings (size 3 to 8) (size 9 to 14) (size 15 to 20)
#    0.000    1.143    7.143    0.429    4.000    1.143 
#    0.000    5.000    0.000    0.000    0.000    0.000 
#    0.000    0.000    0.000    0.000    0.000    0.000 
#
# Total GULP energy -156116.675371 kJ/mol
# GULP energy per Si atom -5575.595549 kJ/mol
# Density = 2.193998 g / cm^3
# Si number density = 21.990030 Si / 1000 Ang^3
#
#
#
# Elastic Constant Matrix: (Units=GPa)
#
#
# Indices 1 2 3 4 5 6 
#
# 1 77.9000 18.5003 19.9388 0.0000 -18.5054 0.0000
# 2 18.5003 64.0248 4.0173 0.0000 -7.8422 0.0000
# 3 19.9388 4.0173 104.4353 0.0000 -21.5902 0.0000
# 4 0.0000 0.0000 0.0000 20.6237 0.0000 -1.1224
# 5 -18.5054 -7.8422 -21.5902 0.0000 27.0766 0.0000
# 6 0.0000 0.0000 0.0000 -1.1224 0.0000 31.1191
#
#
#
# Elastic Compliance Matrix: (Units=1/GPa)
#
#
# Indices 1 2 3 4 5 6 
#
# 1 0.016106 -0.003465 -0.001046 0.000000 0.009170 0.000000
# 2 -0.003465 0.016954 0.000641 0.000000 0.003053 0.000000
# 3 -0.001046 0.000641 0.011544 0.000000 0.008675 0.000000
# 4 0.000000 0.000000 0.000000 0.048583 0.000000 0.001752
# 5 0.009170 0.003053 0.008675 0.000000 0.051001 0.000000
# 6 0.000000 0.000000 0.000000 0.001752 0.000000 0.032198
#
#
# Mechanical properties :
#
#
# Convention : Reuss Voigt Hill
#
# Bulk Modulus (GPa) = 27.12763 36.80808 31.96786
# Shear Modulus (GPa) = 25.45638 29.35748 27.40693
#
# Velocity S-wave (km/s) = 3.40609 3.65778 3.53418
# Velocity P-wave (km/s) = 5.27558 5.88337 5.58774
#
# Compressibility (1/GPa) = 0.03686278
#
# Stress axis : x y z
#
# Youngs Moduli (GPa) = 62.08882 58.98331 86.62618
#
# Poissons Ratio (x) = 0.20438 0.09061
# Poissons Ratio (y) = 0.21514 -0.05549
# Poissons Ratio (z) = 0.06494 -0.03778
#
# Static dielectric constant tensor:
#      x y z
#    x 1.829130 0.000000 -0.001010 
#    y 0.000000 1.836070 0.000000 
#    z -0.001010 0.000000 1.864000 
# 
# From -- ./inp_files/211230.got.cif
#   From: 2010.05.17/outbox.cif.g08.bks.cpg/sg15_106_cif.got.tgz:211230.got - 2010.06.03 18:47:42.
