data_PCOD9281790
_publ_section_title
;
Structure prediction by ZEFSAII (Michael W. Deem and Ramdas Pophale) SiO2 
 PCOD9281790
Probable space group: C 2/C
;
_chemical_formula_sum "Si O2"
_cell_formula_units_Z 64
_cell_length_a 28.734080
_cell_length_b 9.525549
_cell_length_c 22.766370
_cell_angle_alpha 90.000000
_cell_angle_beta 147.386384
_cell_angle_gamma 90.000000
_cell_volume 3358.508706
_symmetry_space_group_name_H-M "C 2/C"
_symmetry_group_IT_number 15
_symmetry_cell_setting 'monoclinic'
loop_
_space_group_symop_operation_xyz
x,y,z
-x,y,1/2-z
-x,-y,-z
x,-y,1/2+z
1/2+x,1/2+y,z
1/2-x,1/2+y,1/2-z
1/2-x,1/2-y,-z
1/2+x,1/2-y,1/2+z
loop_
_atom_site_type_symbol
_atom_site_label
_atom_site_fract_x
_atom_site_fract_y
_atom_site_fract_z
Si Si1 0.137258 0.338531 0.555389
Si Si2 0.456479 0.208660 0.932843
Si Si3 0.987751 0.004433 0.168518
Si Si4 0.316865 0.518822 0.918279
Si Si5 0.678998 0.445806 0.710283
Si Si6 0.431259 0.680756 0.846050
Si Si7 0.005343 0.341853 0.323863
Si Si8 0.122864 0.494169 0.728375
O O1 0.169904 0.180830 0.583622
O O2 0.221475 0.425362 0.664241
O O3 0.049782 0.319722 0.501433
O O4 0.096348 0.385954 0.449886
O O5 0.387763 0.325962 0.837397
O O6 0.405557 0.064103 0.864748
O O7 0.486066 0.273159 0.026542
O O8 0.000000 0.969132 0.250000
O O9 0.045319 0.915335 0.184635
O O10 0.003416 0.172538 0.178650
O O11 0.891133 0.977194 0.042406
O O12 0.320296 0.439283 0.859712
O O13 0.223098 0.509198 0.845272
O O14 0.635973 0.591224 0.686130
O O15 0.395783 0.830522 0.789830
O O16 0.931986 0.420486 0.282461
O O17 0.000000 0.375190 0.250000
#
# Coordination Sequence:
#
# PCOD9281790 Si02
#       8
#     8   8   8   8   8   8   8   8
#     4  10  21  38  64  95 124 160 215 260 309 379
#     4  11  21  42  62  91 128 171 205 254 319 383
#     4  10  23  45  68  89 121 170 220 263 312 378
#     4  11  21  39  62  94 130 162 210 259 321 376
#     4  12  22  38  66  95 132 167 205 266 319 383
#     4  12  23  39  62  95 129 168 206 256 329 377
#     4   9  21  46  68  86 121 172 224 260 310 372
#     4  11  24  38  62  95 130 163 208 263 317 382
#
# _framework density 19.056076999999998
#
# number of rings (size 3 to 8) (size 9 to 14) (size 15 to 20)
#    0.000    1.250    3.750    3.750    0.000    1.500 
#    6.750    2.500    0.000    0.000    0.000    0.000 
#    0.000    0.000    0.000    0.000    0.000    0.000 
#
# Total GULP energy -178405.662909 kJ/mol
# GULP energy per Si atom -5575.176966 kJ/mol
# Density = 1.901270 g / cm^3
# Si number density = 19.056077 Si / 1000 Ang^3
#
#
#
# Elastic Constant Matrix: (Units=GPa)
#
#
# Indices 1 2 3 4 5 6 
#
# 1 76.7310 36.1638 61.3099 0.0000 -6.4283 0.0000
# 2 36.1638 73.4183 48.0805 0.0000 8.4467 0.0000
# 3 61.3099 48.0805 139.6331 0.0000 1.6833 0.0000
# 4 0.0000 0.0000 0.0000 -25.5313 0.0000 -23.1929
# 5 -6.4283 8.4467 1.6833 0.0000 37.4815 0.0000
# 6 0.0000 0.0000 0.0000 -23.1929 0.0000 11.2634
#
#
#
# Elastic Compliance Matrix: (Units=1/GPa)
#
#
# Indices 1 2 3 4 5 6 
#
# 1 0.023002 -0.006899 -0.007795 0.000000 0.005850 0.000000
# 2 -0.006899 0.020181 -0.003853 0.000000 -0.005558 0.000000
# 3 -0.007795 -0.003853 0.011923 0.000000 -0.001004 0.000000
# 4 0.000000 0.000000 0.000000 -0.013645 0.000000 -0.028096
# 5 0.005850 -0.005558 -0.001004 0.000000 0.028981 0.000000
# 6 0.000000 0.000000 0.000000 -0.028096 0.000000 0.030929
#
#
# Mechanical properties :
#
#
# Convention : Reuss Voigt Hill
#
# Bulk Modulus (GPa) = 55.51368 64.54341 60.02855
# Shear Modulus (GPa) = 34.60935 14.25792 24.43363
#
# Velocity S-wave (km/s) = 4.26629 2.73831 3.58466
# Velocity P-wave (km/s) = 7.31186 6.62884 6.97871
#
# Compressibility (1/GPa) = 0.01801358
#
# Stress axis : x y z
#
# Youngs Moduli (GPa) = 43.47403 49.55049 83.87087
#
# Poissons Ratio (x) = 0.34182 0.65377
# Poissons Ratio (y) = 0.29991 0.32317
# Poissons Ratio (z) = 0.33888 0.19093
#
# Static dielectric constant tensor:
#      x y z
#    x 1.690040 0.000000 -0.018140 
#    y 0.000000 1.680040 0.000000 
#    z -0.018140 0.000000 1.689240 
# 
# From -- ./inp_files/284464.got.cif
#   From: 2010.05.17/outbox.cif.g08.bks.cpg/sg15_143_cif.got.tgz:284464.got - 2010.06.03 18:47:42.
