data_PCOD9281498
_publ_section_title
;
Structure prediction by ZEFSAII (Michael W. Deem and Ramdas Pophale) SiO2 
 PCOD9281498
Probable space group: C 2/C
;
_chemical_formula_sum "Si O2"
_cell_formula_units_Z 60
_cell_length_a 10.542171
_cell_length_b 7.691670
_cell_length_c 33.636554
_cell_angle_alpha 90.000000
_cell_angle_beta 80.215039
_cell_angle_gamma 90.000000
_cell_volume 2687.805945
_symmetry_space_group_name_H-M "C 2/C"
_symmetry_group_IT_number 15
_symmetry_cell_setting 'monoclinic'
loop_
_space_group_symop_operation_xyz
x,y,z
-x,y,1/2-z
-x,-y,-z
x,-y,1/2+z
1/2+x,1/2+y,z
1/2-x,1/2+y,1/2-z
1/2-x,1/2-y,-z
1/2+x,1/2-y,1/2+z
loop_
_atom_site_type_symbol
_atom_site_label
_atom_site_fract_x
_atom_site_fract_y
_atom_site_fract_z
Si Si1 0.879033 0.097569 0.687423
Si Si2 0.500000 0.464515 0.750000
Si Si3 0.175562 0.858972 0.882189
Si Si4 0.626779 0.562700 0.470205
Si Si5 0.294363 0.050352 0.103186
Si Si6 0.027326 0.600805 0.143310
Si Si7 0.651144 0.028603 0.986399
Si Si8 0.388233 0.251152 0.829109
O O1 0.742766 0.177997 0.683318
O O2 0.885122 0.064396 0.734160
O O3 0.993049 0.236794 0.673315
O O4 0.882025 0.936364 0.655604
O O5 0.448758 0.361835 0.790610
O O6 0.109698 0.948940 0.923770
O O7 0.182825 0.651180 0.886023
O O8 0.326199 0.903462 0.878027
O O9 0.500000 0.500000 0.500000
O O10 0.652835 0.765972 0.476973
O O11 0.756505 0.479255 0.481806
O O12 0.425802 0.131066 0.113527
O O13 0.294337 0.063785 0.055922
O O14 0.170488 0.136512 0.130917
O O15 0.020544 0.411182 0.164245
O O16 0.500000 0.000000 0.000000
#
# Coordination Sequence:
#
# PCOD9281498 Si02
#       8
#     8   4   8   8   8   8   8   8
#     4  10  24  40  61  88 117 158 201 249 309 370
#     4  12  24  40  62  88 120 152 196 252 306 362
#     4  10  21  39  61  86 120 162 204 249 308 373
#     4  10  23  38  58  90 126 162 205 257 312 372
#     4  10  21  38  62  90 122 159 206 251 304 369
#     4  10  21  40  62  86 118 160 202 248 306 368
#     4  10  22  39  61  92 125 162 207 258 310 369
#     4  10  24  40  60  90 120 157 201 250 307 373
#
# _framework density 22.323042000000001
#
# number of rings (size 3 to 8) (size 9 to 14) (size 15 to 20)
#    0.000    1.867    0.000    2.400    0.000   16.000 
#    0.000    0.000    0.000    0.000    0.000    0.000 
#    0.000    0.000    0.000    0.000    0.000    0.000 
#
# Total GULP energy -167357.806657 kJ/mol
# GULP energy per Si atom -5578.593555 kJ/mol
# Density = 2.227223 g / cm^3
# Si number density = 22.323042 Si / 1000 Ang^3
#
#
#
# Elastic Constant Matrix: (Units=GPa)
#
#
# Indices 1 2 3 4 5 6 
#
# 1 71.9902 1.0549 19.2170 0.0000 6.0083 0.0000
# 2 1.0549 61.3149 23.8069 0.0000 9.0133 0.0000
# 3 19.2170 23.8069 87.8688 0.0000 18.8950 0.0000
# 4 0.0000 0.0000 0.0000 25.7928 0.0000 -3.5512
# 5 6.0083 9.0133 18.8950 0.0000 35.3902 0.0000
# 6 0.0000 0.0000 0.0000 -3.5512 0.0000 35.7224
#
#
#
# Elastic Compliance Matrix: (Units=1/GPa)
#
#
# Indices 1 2 3 4 5 6 
#
# 1 0.014854 0.001198 -0.003350 0.000000 -0.001038 0.000000
# 2 0.001198 0.018485 -0.004761 0.000000 -0.002369 0.000000
# 3 -0.003350 -0.004761 0.014709 0.000000 -0.006072 0.000000
# 4 0.000000 0.000000 0.000000 0.039308 0.000000 0.003908
# 5 -0.001038 -0.002369 -0.006072 0.000000 0.032278 0.000000
# 6 0.000000 0.000000 0.000000 0.003908 0.000000 0.028382
#
#
# Mechanical properties :
#
#
# Convention : Reuss Voigt Hill
#
# Bulk Modulus (GPa) = 29.22058 34.37018 31.79538
# Shear Modulus (GPa) = 28.85999 31.18742 30.02371
#
# Velocity S-wave (km/s) = 3.59950 3.74183 3.67135
# Velocity P-wave (km/s) = 5.51303 5.83939 5.67856
#
# Compressibility (1/GPa) = 0.03422245
#
# Stress axis : x y z
#
# Youngs Moduli (GPa) = 67.32156 54.09659 67.98659
#
# Poissons Ratio (x) = -0.06479 0.22774
# Poissons Ratio (y) = -0.08063 0.32367
# Poissons Ratio (z) = 0.22552 0.25754
#
# Static dielectric constant tensor:
#      x y z
#    x 1.865360 0.000000 0.007610 
#    y 0.000000 1.939960 0.000000 
#    z 0.007610 0.000000 1.802110 
# 
# From -- ./inp_files/310271.got.cif
#   From: 2010.05.17/outbox.cif.g08.bks.cpg/sg15_156_cif.got.tgz:310271.got - 2010.06.03 18:47:42.
