data_PCOD9281069
_publ_section_title
;
Structure prediction by ZEFSAII (Michael W. Deem and Ramdas Pophale) SiO2 
 PCOD9281069
Probable space group: C 2/C
;
_chemical_formula_sum "Si O2"
_cell_formula_units_Z 52
_cell_length_a 23.624963
_cell_length_b 6.608105
_cell_length_c 19.133090
_cell_angle_alpha 90.000000
_cell_angle_beta 77.922567
_cell_angle_gamma 90.000000
_cell_volume 2920.871221
_symmetry_space_group_name_H-M "C 2/C"
_symmetry_group_IT_number 15
_symmetry_cell_setting 'monoclinic'
loop_
_space_group_symop_operation_xyz
x,y,z
-x,y,1/2-z
-x,-y,-z
x,-y,1/2+z
1/2+x,1/2+y,z
1/2-x,1/2+y,1/2-z
1/2-x,1/2-y,-z
1/2+x,1/2-y,1/2+z
loop_
_atom_site_type_symbol
_atom_site_label
_atom_site_fract_x
_atom_site_fract_y
_atom_site_fract_z
Si Si1 0.000000 0.540431 0.750000
Si Si2 0.755460 0.005379 0.573363
Si Si3 0.756593 0.890326 0.341042
Si Si4 0.060519 0.163538 0.799910
Si Si5 0.550072 0.582820 0.159649
Si Si6 0.328276 0.654070 0.423064
Si Si7 0.313841 0.247833 0.183391
O O1 0.959687 0.387766 0.717103
O O2 0.967057 0.693375 0.809999
O O3 0.693412 0.112881 0.574787
O O4 0.795618 0.056162 0.497182
O O5 0.783892 0.115316 0.632615
O O6 0.752115 0.773722 0.596194
O O7 0.782635 0.785377 0.265715
O O8 0.802060 0.051053 0.360239
O O9 0.699408 0.016768 0.335482
O O10 0.119751 0.187177 0.825950
O O11 0.069057 0.040410 0.724847
O O12 0.007193 0.041085 0.849355
O O13 0.603911 0.608240 0.094478
#
# Coordination Sequence:
#
# PCOD9281069 Si02
#       7
#     4   8   8   8   8   8   8
#     4   8  18  30  50  82 100 138 184 224 280 314
#     4  10  23  37  53  85 112 144 188 225 279 338
#     4  11  21  34  56  81 111 148 176 224 287 327
#     4   9  19  33  50  82 112 136 186 235 265 336
#     4   9  18  33  56  79 106 145 186 228 278 319
#     4  10  21  38  58  78 112 149 184 229 274 336
#     4  11  21  34  54  83 114 141 182 232 280 330
#
# _framework density 17.802907999999999
#
# number of rings (size 3 to 8) (size 9 to 14) (size 15 to 20)
#    0.000    2.462    3.077    0.462    2.154    2.462 
#    0.000    0.769    0.000    1.846    0.000    0.000 
#    0.000    0.000    0.000    0.000    0.000    0.000 
#
# Total GULP energy -144849.886193 kJ/mol
# GULP energy per Si atom -5571.149469 kJ/mol
# Density = 1.776239 g / cm^3
# Si number density = 17.802908 Si / 1000 Ang^3
#
#
#
# Elastic Constant Matrix: (Units=GPa)
#
#
# Indices 1 2 3 4 5 6 
#
# 1 150.6746 77.2648 44.0365 0.0000 -7.4807 0.0000
# 2 77.2648 157.0898 44.7683 0.0000 3.0575 0.0000
# 3 44.0365 44.7683 72.8880 0.0000 -2.2705 0.0000
# 4 0.0000 0.0000 0.0000 20.7428 0.0000 4.7083
# 5 -7.4807 3.0575 -2.2705 0.0000 30.0167 0.0000
# 6 0.0000 0.0000 0.0000 4.7083 0.0000 1.9794
#
#
#
# Elastic Compliance Matrix: (Units=1/GPa)
#
#
# Indices 1 2 3 4 5 6 
#
# 1 0.009751 -0.003867 -0.003437 0.000000 0.002564 0.000000
# 2 -0.003867 0.009289 -0.003437 0.000000 -0.002170 0.000000
# 3 -0.003437 -0.003437 0.017933 0.000000 0.000850 0.000000
# 4 0.000000 0.000000 0.000000 0.104786 0.000000 -0.249253
# 5 0.002564 -0.002170 0.000850 0.000000 0.034239 0.000000
# 6 0.000000 0.000000 0.000000 -0.249253 0.000000 1.098105
#
#
# Mechanical properties :
#
#
# Convention : Reuss Voigt Hill
#
# Bulk Modulus (GPa) = 64.54328 79.19908 71.87118
# Shear Modulus (GPa) = 3.84394 24.85330 14.34862
#
# Velocity S-wave (km/s) = 1.47100 3.74039 2.84204
# Velocity P-wave (km/s) = 6.26244 7.95218 7.15735
#
# Compressibility (1/GPa) = 0.01549348
#
# Stress axis : x y z
#
# Youngs Moduli (GPa) = 102.55000 107.64981 55.76162
#
# Poissons Ratio (x) = 0.41625 0.19163
# Poissons Ratio (y) = 0.39653 0.19165
# Poissons Ratio (z) = 0.35242 0.37000
#
# Static dielectric constant tensor:
#      x y z
#    x 1.622800 0.000000 -0.008370 
#    y 0.000000 1.638700 0.000000 
#    z -0.008370 0.000000 1.599510 
# 
# From -- ./inp_files/220984.got.cif
#   From: 2010.05.17/outbox.cif.g08.bks.cpg/sg15_111_cif.got.tgz:220984.got - 2010.06.03 18:47:42.
