data_PCOD9281229
_publ_section_title
;
Structure prediction by ZEFSAII (Michael W. Deem and Ramdas Pophale) SiO2 
 PCOD9281229
Probable space group: C 2/C
;
_chemical_formula_sum "Si O2"
_cell_formula_units_Z 60
_cell_length_a 11.419332
_cell_length_b 18.275622
_cell_length_c 14.810435
_cell_angle_alpha 90.000000
_cell_angle_beta 75.100146
_cell_angle_gamma 90.000000
_cell_volume 2986.944456
_symmetry_space_group_name_H-M "C 2/C"
_symmetry_group_IT_number 15
_symmetry_cell_setting 'monoclinic'
loop_
_space_group_symop_operation_xyz
x,y,z
-x,y,1/2-z
-x,-y,-z
x,-y,1/2+z
1/2+x,1/2+y,z
1/2-x,1/2+y,1/2-z
1/2-x,1/2-y,-z
1/2+x,1/2-y,1/2+z
loop_
_atom_site_type_symbol
_atom_site_label
_atom_site_fract_x
_atom_site_fract_y
_atom_site_fract_z
Si Si1 0.557610 0.319984 0.426501
Si Si2 0.583643 0.430541 0.156173
Si Si3 0.000000 0.171700 0.250000
Si Si4 0.320784 0.206033 0.835519
Si Si5 0.130711 0.925302 0.569953
Si Si6 0.653120 0.086026 0.810299
Si Si7 0.091067 0.450597 0.920085
Si Si8 0.512861 0.184249 0.528665
O O1 0.479406 0.357996 0.366065
O O2 0.677858 0.280468 0.365857
O O3 0.611625 0.382070 0.481717
O O4 0.477261 0.262800 0.498049
O O5 0.500000 0.463951 0.250000
O O6 0.589633 0.490599 0.076674
O O7 0.712799 0.416427 0.174930
O O8 0.110640 0.230770 0.234945
O O9 0.050822 0.120248 0.159431
O O10 0.345296 0.126664 0.785649
O O11 0.374630 0.202737 0.926189
O O12 0.272418 0.934924 0.569666
O O13 0.577308 0.139745 0.889831
O O14 0.605478 0.002560 0.829399
O O15 0.000000 0.500000 0.000000
O O16 0.036789 0.369606 0.939343
#
# Coordination Sequence:
#
# PCOD9281229 Si02
#       8
#     8   8   4   8   8   8   8   8
#     4  12  23  37  61  88 122 159 203 253 298 365
#     4  11  23  40  57  83 121 166 199 238 301 369
#     4  12  22  34  62  94 124 144 200 268 312 352
#     4  12  20  34  60  92 116 151 196 256 311 350
#     4  11  21  39  60  88 123 156 203 257 302 357
#     4  10  21  38  60  84 115 158 198 241 304 366
#     4   9  20  36  60  86 116 156 194 242 306 364
#     4  11  20  38  60  90 118 148 201 256 305 351
#
# _framework density 20.087416999999999
#
# number of rings (size 3 to 8) (size 9 to 14) (size 15 to 20)
#    0.000    1.067    6.000    1.600    0.000    0.533 
#    0.000    0.000    0.000    4.800    0.000    0.000 
#    0.000    0.000    0.000    0.000    0.000    0.000 
#
# Total GULP energy -167094.841329 kJ/mol
# GULP energy per Si atom -5569.828044 kJ/mol
# Density = 2.004170 g / cm^3
# Si number density = 20.087417 Si / 1000 Ang^3
#
#
#
# Elastic Constant Matrix: (Units=GPa)
#
#
# Indices 1 2 3 4 5 6 
#
# 1 55.7923 17.1470 8.4582 0.0000 -13.5903 0.0000
# 2 17.1470 84.0638 13.2251 0.0000 4.8084 0.0000
# 3 8.4582 13.2251 43.2831 0.0000 -1.6313 0.0000
# 4 0.0000 0.0000 0.0000 -83.3958 0.0000 -17.6116
# 5 -13.5903 4.8084 -1.6313 0.0000 21.6632 0.0000
# 6 0.0000 0.0000 0.0000 -17.6116 0.0000 12.6580
#
#
#
# Elastic Compliance Matrix: (Units=1/GPa)
#
#
# Indices 1 2 3 4 5 6 
#
# 1 0.023838 -0.005397 -0.002407 0.000000 0.015971 0.000000
# 2 -0.005397 0.013925 -0.003454 0.000000 -0.006737 0.000000
# 3 -0.002407 -0.003454 0.024672 0.000000 0.001114 0.000000
# 4 0.000000 0.000000 0.000000 -0.009268 0.000000 -0.012895
# 5 0.015971 -0.006737 0.001114 0.000000 0.057760 0.000000
# 6 0.000000 0.000000 0.000000 -0.012895 0.000000 0.061060
#
#
# Mechanical properties :
#
#
# Convention : Reuss Voigt Hill
#
# Bulk Modulus (GPa) = 25.05163 28.97776 27.01470
# Shear Modulus (GPa) = 24.06049 -0.19434 11.93308
#
# Velocity S-wave (km/s) = 3.46466 -0.31138 2.43997
# Velocity P-wave (km/s) = 5.33887 3.78522 4.62771
#
# Compressibility (1/GPa) = 0.03991756
#
# Stress axis : x y z
#
# Youngs Moduli (GPa) = 41.95043 71.81136 40.53255
#
# Poissons Ratio (x) = 0.38758 0.09757
# Poissons Ratio (y) = 0.22641 0.14000
# Poissons Ratio (z) = 0.10099 0.24804
#
# Static dielectric constant tensor:
#      x y z
#    x 1.691510 0.000000 -0.045350 
#    y 0.000000 1.747290 0.000000 
#    z -0.045350 0.000000 1.725140 
# 
# From -- ./inp_files/146056.got.cif
#   From: 2010.05.17/outbox.cif.g08.bks.cpg/sg15_74_cif.got.tgz:146056.got - 2010.06.03 18:47:42.
