data_PCOD9281415
_publ_section_title
;
Structure prediction by ZEFSAII (Michael W. Deem and Ramdas Pophale) SiO2 
 PCOD9281415
Probable space group: C 2/C
;
_chemical_formula_sum "Si O2"
_cell_formula_units_Z 48
_cell_length_a 11.290670
_cell_length_b 14.694540
_cell_length_c 20.979018
_cell_angle_alpha 90.000000
_cell_angle_beta 145.670138
_cell_angle_gamma 90.000000
_cell_volume 1962.937592
_symmetry_space_group_name_H-M "C 2/C"
_symmetry_group_IT_number 15
_symmetry_cell_setting 'monoclinic'
loop_
_space_group_symop_operation_xyz
x,y,z
-x,y,1/2-z
-x,-y,-z
x,-y,1/2+z
1/2+x,1/2+y,z
1/2-x,1/2+y,1/2-z
1/2-x,1/2-y,-z
1/2+x,1/2-y,1/2+z
loop_
_atom_site_type_symbol
_atom_site_label
_atom_site_fract_x
_atom_site_fract_y
_atom_site_fract_z
Si Si1 0.364334 0.482419 0.571932
Si Si2 0.279527 0.169054 0.931281
Si Si3 0.758660 0.422816 0.283768
Si Si4 0.135184 0.587483 0.873588
Si Si5 0.052296 0.797675 0.846256
Si Si6 0.899931 0.749016 0.334435
O O1 0.255278 0.575180 0.545686
O O2 0.591996 0.497700 0.706451
O O3 0.346696 0.464470 0.488047
O O4 0.306210 0.382873 0.572880
O O5 0.266262 0.134872 0.852500
O O6 0.090636 0.238701 0.867986
O O7 0.492795 0.211435 0.053912
O O8 0.676984 0.353087 0.192785
O O9 0.983823 0.453316 0.361671
O O10 0.000000 0.570608 0.750000
O O11 0.150597 0.696337 0.891941
O O12 0.824227 0.797269 0.781117
O O13 0.000000 0.809400 0.750000
#
# Coordination Sequence:
#
# PCOD9281415 Si02
#       6
#     8   8   8   8   8   8
#     4  11  22  38  65  95 126 162 215 267 319 366
#     4  10  21  40  67  96 124 164 217 271 307 372
#     4  10  22  42  66  95 127 163 218 269 309 378
#     4  10  24  43  60  88 132 170 212 260 319 386
#     4  10  21  38  61  92 127 166 212 258 321 388
#     4   9  20  39  60  93 127 164 205 261 320 372
#
# _framework density 24.453146
#
# number of rings (size 3 to 8) (size 9 to 14) (size 15 to 20)
#    0.000    2.000    0.000    3.500    4.667    1.333 
#    9.000    5.000    0.000    0.000    0.000    0.000 
#    0.000    0.000    0.000    0.000    0.000    0.000 
#
# Total GULP energy -133634.781970 kJ/mol
# GULP energy per Si atom -5568.115915 kJ/mol
# Density = 2.439749 g / cm^3
# Si number density = 24.453146 Si / 1000 Ang^3
#
#
#
# Elastic Constant Matrix: (Units=GPa)
#
#
# Indices 1 2 3 4 5 6 
#
# 1 73.5521 23.5429 24.4924 0.0002 -9.8434 0.0001
# 2 23.5429 85.9445 66.4022 0.0000 -25.6200 0.0000
# 3 24.4924 66.4022 106.2965 0.0004 -28.5907 0.0003
# 4 0.0002 0.0000 0.0004 60.4715 0.0002 -8.7101
# 5 -9.8434 -25.6200 -28.5907 0.0002 30.4650 0.0001
# 6 0.0001 0.0000 0.0003 -8.7101 0.0001 14.8434
#
#
#
# Elastic Compliance Matrix: (Units=1/GPa)
#
#
# Indices 1 2 3 4 5 6 
#
# 1 0.015100 -0.002576 -0.001526 0.000000 0.001281 0.000000
# 2 -0.002576 0.024351 -0.012486 0.000000 0.007929 0.000000
# 3 -0.001526 -0.012486 0.019533 0.000000 0.007338 -0.000001
# 4 0.000000 0.000000 0.000000 0.018063 0.000000 0.010600
# 5 0.001281 0.007929 0.007338 0.000000 0.046792 -0.000001
# 6 0.000000 0.000000 -0.000001 0.010600 -0.000001 0.073590
#
#
# Mechanical properties :
#
#
# Convention : Reuss Voigt Hill
#
# Bulk Modulus (GPa) = 38.74601 54.96312 46.85457
# Shear Modulus (GPa) = 20.90238 31.24636 26.07437
#
# Velocity S-wave (km/s) = 2.92686 3.57852 3.26897
# Velocity P-wave (km/s) = 5.22507 6.29286 5.78366
#
# Compressibility (1/GPa) = 0.02580911
#
# Stress axis : x y z
#
# Youngs Moduli (GPa) = 66.22642 41.06548 51.19634
#
# Poissons Ratio (x) = 0.10577 0.07811
# Poissons Ratio (y) = 0.17058 0.63923
# Poissons Ratio (z) = 0.10104 0.51274
#
# Static dielectric constant tensor:
#      x y z
#    x 2.106210 0.000000 0.085330 
#    y 0.000000 1.906380 0.000000 
#    z 0.085330 0.000000 2.127780 
# 
# From -- ./inp_files/239029.got.cif
#   From: 2010.05.17/outbox.cif.g08.bks.cpg/sg15_120_cif.got.tgz:239029.got - 2010.06.03 18:47:42.
