data_PCOD9281756
_publ_section_title
;
Structure prediction by ZEFSAII (Michael W. Deem and Ramdas Pophale) SiO2 
 PCOD9281756
Probable space group: C 2/C
;
_chemical_formula_sum "Si O2"
_cell_formula_units_Z 56
_cell_length_a 17.043837
_cell_length_b 21.211493
_cell_length_c 14.012749
_cell_angle_alpha 90.000000
_cell_angle_beta 146.289631
_cell_angle_gamma 90.000000
_cell_volume 2811.583641
_symmetry_space_group_name_H-M "C 2/C"
_symmetry_group_IT_number 15
_symmetry_cell_setting 'monoclinic'
loop_
_space_group_symop_operation_xyz
x,y,z
-x,y,1/2-z
-x,-y,-z
x,-y,1/2+z
1/2+x,1/2+y,z
1/2-x,1/2+y,1/2-z
1/2-x,1/2-y,-z
1/2+x,1/2-y,1/2+z
loop_
_atom_site_type_symbol
_atom_site_label
_atom_site_fract_x
_atom_site_fract_y
_atom_site_fract_z
Si Si1 0.214947 0.570817 0.601278
Si Si2 0.241227 0.807863 0.109781
Si Si3 0.723866 0.950708 0.331430
Si Si4 0.500000 0.999124 0.250000
Si Si5 0.500000 0.763382 0.250000
Si Si6 0.442309 0.679306 0.585242
Si Si7 0.969813 0.959476 0.064943
Si Si8 0.237147 0.217898 0.819441
O O1 0.187467 0.545149 0.681498
O O2 0.103881 0.542485 0.416718
O O3 0.212967 0.647187 0.601074
O O4 0.373586 0.548854 0.733546
O O5 0.211709 0.881244 0.095216
O O6 0.385991 0.801709 0.196553
O O7 0.267400 0.775258 0.237950
O O8 0.105319 0.777800 0.921772
O O9 0.591507 0.959206 0.267118
O O10 0.842534 0.001282 0.481268
O O11 0.500000 0.665943 0.750000
O O12 0.418831 0.613186 0.507062
O O13 0.309468 0.725638 0.449735
O O14 0.569235 0.716503 0.662822
O O15 0.000000 0.000000 0.000000
#
# Coordination Sequence:
#
# PCOD9281756 Si02
#       8
#     8   8   8   4   4   8   8   8
#     4   9  22  40  59  87 121 162 208 257 303 378
#     4  10  21  40  62  90 124 158 205 259 317 369
#     4  10  22  40  60  88 122 159 207 257 309 372
#     4  12  23  34  62  86 125 164 202 256 322 362
#     4  10  21  38  64  92 117 156 210 262 304 380
#     4  11  23  38  64  93 126 162 213 259 303 374
#     4   9  21  42  63  84 120 162 208 254 298 362
#     4  10  22  40  60  88 128 164 202 258 319 365
#
# _framework density 19.917601000000001
#
# number of rings (size 3 to 8) (size 9 to 14) (size 15 to 20)
#    0.000    2.000    0.000    3.000    5.000    2.286 
#    0.000    8.571    0.000    0.000    0.000    0.000 
#    0.000    0.000    0.000    0.000    0.000    0.000 
#
# Total GULP energy -156207.156530 kJ/mol
# GULP energy per Si atom -5578.827019 kJ/mol
# Density = 1.987227 g / cm^3
# Si number density = 19.917601 Si / 1000 Ang^3
#
#
#
# Elastic Constant Matrix: (Units=GPa)
#
#
# Indices 1 2 3 4 5 6 
#
# 1 72.1396 15.5794 32.0445 0.0000 7.8349 0.0000
# 2 15.5794 96.5996 61.5208 0.0000 -1.7795 0.0000
# 3 32.0445 61.5208 88.9939 0.0000 -6.5424 0.0000
# 4 0.0000 0.0000 0.0000 -286.3538 0.0000 145.5571
# 5 7.8349 -1.7795 -6.5424 0.0000 30.0098 0.0000
# 6 0.0000 0.0000 0.0000 145.5571 0.0000 -38.0232
#
#
#
# Elastic Compliance Matrix: (Units=1/GPa)
#
#
# Indices 1 2 3 4 5 6 
#
# 1 0.017846 0.002494 -0.008620 0.000000 -0.006391 0.000000
# 2 0.002494 0.018930 -0.014177 0.000000 -0.002619 0.000000
# 3 -0.008620 -0.014177 0.024639 0.000000 0.006781 0.000000
# 4 0.000000 0.000000 0.000000 0.003692 0.000000 0.014133
# 5 -0.006391 -0.002619 0.006781 0.000000 0.036314 0.000000
# 6 0.000000 0.000000 0.000000 0.014133 0.000000 0.027805
#
#
# Mechanical properties :
#
#
# Convention : Reuss Voigt Hill
#
# Bulk Modulus (GPa) = 48.05318 52.89138 50.47228
# Shear Modulus (GPa) = 28.28547 -48.96755 -10.34104
#
# Velocity S-wave (km/s) = 3.77254 -4.96371 -2.28105
# Velocity P-wave (km/s) = 6.56921 2.49770 4.29627
#
# Compressibility (1/GPa) = 0.02081028
#
# Stress axis : x y z
#
# Youngs Moduli (GPa) = 56.03361 52.82533 40.58554
#
# Poissons Ratio (x) = -0.13172 0.34983
# Poissons Ratio (y) = -0.13972 0.57537
# Poissons Ratio (z) = 0.48299 0.74889
#
# Static dielectric constant tensor:
#      x y z
#    x 1.771680 0.000000 -0.011360 
#    y 0.000000 1.680310 0.000000 
#    z -0.011360 0.000000 1.674940 
# 
# From -- ./inp_files/163868.got.cif
#   From: 2010.05.17/outbox.cif.g08.bks.cpg/sg15_82_cif.got.tgz:163868.got - 2010.06.03 18:47:42.
