data_PCOD9281832
_publ_section_title
;
Structure prediction by ZEFSAII (Michael W. Deem and Ramdas Pophale) SiO2 
 PCOD9281832
Probable space group: C 2/C
;
_chemical_formula_sum "Si O2"
_cell_formula_units_Z 40
_cell_length_a 6.793274
_cell_length_b 19.631679
_cell_length_c 14.802002
_cell_angle_alpha 90.000000
_cell_angle_beta 107.582208
_cell_angle_gamma 90.000000
_cell_volume 1881.826473
_symmetry_space_group_name_H-M "C 2/C"
_symmetry_group_IT_number 15
_symmetry_cell_setting 'monoclinic'
loop_
_space_group_symop_operation_xyz
x,y,z
-x,y,1/2-z
-x,-y,-z
x,-y,1/2+z
1/2+x,1/2+y,z
1/2-x,1/2+y,1/2-z
1/2-x,1/2-y,-z
1/2+x,1/2-y,1/2+z
loop_
_atom_site_type_symbol
_atom_site_label
_atom_site_fract_x
_atom_site_fract_y
_atom_site_fract_z
Si Si1 0.490894 0.368166 0.534870
Si Si2 0.191379 0.476088 0.589700
Si Si3 0.532140 0.135852 0.351221
Si Si4 0.635857 0.622195 0.853755
Si Si5 0.450438 0.220412 0.976601
O O1 0.344232 0.426073 0.555158
O O2 0.726092 0.379601 0.600923
O O3 0.503763 0.371271 0.427851
O O4 0.444181 0.287977 0.548188
O O5 0.302176 0.543303 0.640244
O O6 0.000000 0.500000 0.500000
O O7 0.098080 0.432914 0.659092
O O8 0.500000 0.169766 0.250000
O O9 0.454857 0.179333 0.426348
O O10 0.500000 0.643117 0.750000
O O11 0.846562 0.666809 0.893410
O O12 0.250000 0.250000 0.000000
#
# Coordination Sequence:
#
# PCOD9281832 Si02
#       5
#     8   8   8   8   8
#     4  10  23  39  63  90 127 167 211 266 319 380
#     4  12  23  39  62  93 130 168 213 258 326 383
#     4  10  22  38  62  89 122 163 212 267 321 384
#     4  10  21  38  65  89 126 167 213 266 328 378
#     4   8  18  39  60  88 116 164 205 256 320 367
#
# _framework density 21.255946999999999
#
# number of rings (size 3 to 8) (size 9 to 14) (size 15 to 20)
#    0.000    2.400    4.000    0.600    2.800    8.000 
#    0.000    0.000    0.000    7.200    0.000    0.000 
#    0.000    0.000    0.000    0.000    0.000    0.000 
#
# Total GULP energy -111490.227351 kJ/mol
# GULP energy per Si atom -5574.511368 kJ/mol
# Density = 2.120757 g / cm^3
# Si number density = 21.255947 Si / 1000 Ang^3
#
#
#
# Elastic Constant Matrix: (Units=GPa)
#
#
# Indices 1 2 3 4 5 6 
#
# 1 97.7118 47.2198 28.4203 0.0000 0.3688 0.0000
# 2 47.2198 160.6575 30.9773 0.0000 2.5648 0.0000
# 3 28.4203 30.9773 136.6067 0.0000 7.6553 0.0000
# 4 0.0000 0.0000 0.0000 139.3103 0.0000 77.6097
# 5 0.3688 2.5648 7.6553 0.0000 4.1434 0.0000
# 6 0.0000 0.0000 0.0000 77.6097 0.0000 89.9364
#
#
#
# Elastic Compliance Matrix: (Units=1/GPa)
#
#
# Indices 1 2 3 4 5 6 
#
# 1 0.012435 -0.003327 -0.002104 0.000000 0.004840 0.000000
# 2 -0.003327 0.007407 -0.000833 0.000000 -0.002749 0.000000
# 3 -0.002104 -0.000833 0.008821 0.000000 -0.015594 0.000000
# 4 0.000000 0.000000 0.000000 0.013824 0.000000 -0.011929
# 5 0.004840 -0.002749 -0.015594 0.000000 0.271430 0.000000
# 6 0.000000 0.000000 0.000000 -0.011929 0.000000 0.021413
#
#
# Mechanical properties :
#
#
# Convention : Reuss Voigt Hill
#
# Bulk Modulus (GPa) = 61.97686 67.57897 64.77792
# Shear Modulus (GPa) = 14.15480 65.90192 40.02836
#
# Velocity S-wave (km/s) = 2.58335 5.57416 4.34425
# Velocity P-wave (km/s) = 6.17405 8.56098 7.46356
#
# Compressibility (1/GPa) = 0.01613505
#
# Stress axis : x y z
#
# Youngs Moduli (GPa) = 80.41516 135.01214 113.36727
#
# Poissons Ratio (x) = 0.44913 0.23853
# Poissons Ratio (y) = 0.26751 0.09449
# Poissons Ratio (z) = 0.16919 0.11253
#
# Static dielectric constant tensor:
#      x y z
#    x 1.841910 0.000000 0.080620 
#    y 0.000000 1.870930 0.000000 
#    z 0.080620 0.000000 1.847990 
# 
# From -- ./inp_files/129553.got.cif
#   From: 2010.05.17/outbox.cif.g08.bks.cpg/sg15_65_cif.got.tgz:129553.got - 2010.06.03 18:47:42.
