data_PCOD9281223
_publ_section_title
;
Structure prediction by ZEFSAII (Michael W. Deem and Ramdas Pophale) SiO2 
 PCOD9281223
Probable space group: C 2/C
;
_chemical_formula_sum "Si O2"
_cell_formula_units_Z 64
_cell_length_a 21.730437
_cell_length_b 13.879773
_cell_length_c 14.920875
_cell_angle_alpha 90.000000
_cell_angle_beta 41.065769
_cell_angle_gamma 90.000000
_cell_volume 2956.384048
_symmetry_space_group_name_H-M "C 2/C"
_symmetry_group_IT_number 15
_symmetry_cell_setting 'monoclinic'
loop_
_space_group_symop_operation_xyz
x,y,z
-x,y,1/2-z
-x,-y,-z
x,-y,1/2+z
1/2+x,1/2+y,z
1/2-x,1/2+y,1/2-z
1/2-x,1/2-y,-z
1/2+x,1/2-y,1/2+z
loop_
_atom_site_type_symbol
_atom_site_label
_atom_site_fract_x
_atom_site_fract_y
_atom_site_fract_z
Si Si1 0.675064 0.898218 0.939766
Si Si2 0.265287 0.570066 0.747696
Si Si3 0.407518 0.190505 0.213758
Si Si4 0.402986 0.405570 0.264701
Si Si5 0.399865 0.982830 0.308448
Si Si6 0.384795 0.550004 0.985142
Si Si7 0.779578 0.783295 0.700831
Si Si8 0.014488 0.392977 0.444020
O O1 0.754522 0.822296 0.827264
O O2 0.694866 0.984911 0.848855
O O3 0.572444 0.861434 0.024872
O O4 0.672900 0.942049 0.040298
O O5 0.334906 0.576505 0.756396
O O6 0.328032 0.536473 0.594745
O O7 0.209132 0.669484 0.805867
O O8 0.418786 0.289922 0.254297
O O9 0.389518 0.094034 0.290702
O O10 0.315374 0.202542 0.253380
O O11 0.496865 0.173409 0.050265
O O12 0.502598 0.455719 0.135077
O O13 0.363117 0.439553 0.403713
O O14 0.500000 0.980952 0.250000
O O15 0.404004 0.913547 0.217283
O O16 0.353934 0.646905 0.072343
O O17 0.000000 0.500000 0.500000
#
# Coordination Sequence:
#
# PCOD9281223 Si02
#       8
#     8   8   8   8   8   8   8   8
#     4   9  18  31  50  78 104 145 183 230 273 336
#     4  10  21  38  60  78 114 154 183 237 290 331
#     4   9  18  30  51  82 107 140 176 231 280 333
#     4  10  22  36  60  83 113 145 197 235 278 339
#     4   9  17  26  48  74 112 144 176 219 276 334
#     4  10  22  38  58  86 113 144 191 243 278 337
#     4   9  20  35  54  78 108 139 187 229 284 335
#     4   8  15  30  45  73 112 141 174 213 279 336
#
# _framework density 21.648067000000001
#
# number of rings (size 3 to 8) (size 9 to 14) (size 15 to 20)
#    0.000    2.750    0.000    0.375    5.250    3.000 
#    0.000    0.000   22.000    1.500    0.000    0.000 
#    0.000    0.000    0.000    0.000    0.000    0.000 
#
# Total GULP energy -178484.043138 kJ/mol
# GULP energy per Si atom -5577.626348 kJ/mol
# Density = 2.159879 g / cm^3
# Si number density = 21.648067 Si / 1000 Ang^3
#
#
#
# Elastic Constant Matrix: (Units=GPa)
#
#
# Indices 1 2 3 4 5 6 
#
# 1 61.9908 6.3429 19.6159 0.0000 8.6451 0.0000
# 2 6.3429 37.0428 -1.1468 0.0000 4.7563 0.0000
# 3 19.6159 -1.1468 106.8358 0.0000 24.4378 0.0000
# 4 0.0000 0.0000 0.0000 7.9422 0.0000 6.3268
# 5 8.6451 4.7563 24.4378 0.0000 30.6983 0.0000
# 6 0.0000 0.0000 0.0000 6.3268 0.0000 24.6768
#
#
#
# Elastic Compliance Matrix: (Units=1/GPa)
#
#
# Indices 1 2 3 4 5 6 
#
# 1 0.017608 -0.002797 -0.002724 0.000000 -0.002357 0.000000
# 2 -0.002797 0.028201 0.002000 0.000000 -0.005174 0.000000
# 3 -0.002724 0.002000 0.011954 0.000000 -0.009059 0.000000
# 4 0.000000 0.000000 0.000000 0.158225 0.000000 -0.040567
# 5 -0.002357 -0.005174 -0.009059 0.000000 0.041252 0.000000
# 6 0.000000 0.000000 0.000000 -0.040567 0.000000 0.050925
#
#
# Mechanical properties :
#
#
# Convention : Reuss Voigt Hill
#
# Bulk Modulus (GPa) = 19.71570 28.38814 24.05192
# Shear Modulus (GPa) = 15.05509 24.73395 19.89452
#
# Velocity S-wave (km/s) = 2.63999 3.38383 3.03479
# Velocity P-wave (km/s) = 4.29184 5.33001 4.83885
#
# Compressibility (1/GPa) = 0.05072101
#
# Stress axis : x y z
#
# Youngs Moduli (GPa) = 56.79166 35.45987 83.65481
#
# Poissons Ratio (x) = 0.09917 0.22787
# Poissons Ratio (y) = 0.15883 -0.16728
# Poissons Ratio (z) = 0.15469 -0.07091
#
# Static dielectric constant tensor:
#      x y z
#    x 1.858790 0.000000 -0.027790 
#    y 0.000000 1.797350 0.000000 
#    z -0.027790 0.000000 1.830030 
# 
# From -- ./inp_files/162276.got.cif
#   From: 2010.05.17/outbox.cif.g08.bks.cpg/sg15_82_cif.got.tgz:162276.got - 2010.06.03 18:47:42.
