data_PCOD9281937
_publ_section_title
;
Structure prediction by ZEFSAII (Michael W. Deem and Ramdas Pophale) SiO2 
 PCOD9281937
Probable space group: C 2/C
;
_chemical_formula_sum "Si O2"
_cell_formula_units_Z 48
_cell_length_a 31.461590
_cell_length_b 8.981039
_cell_length_c 16.788417
_cell_angle_alpha 90.000000
_cell_angle_beta 149.390823
_cell_angle_gamma 90.000000
_cell_volume 2415.392505
_symmetry_space_group_name_H-M "C 2/C"
_symmetry_group_IT_number 15
_symmetry_cell_setting 'monoclinic'
loop_
_space_group_symop_operation_xyz
x,y,z
-x,y,1/2-z
-x,-y,-z
x,-y,1/2+z
1/2+x,1/2+y,z
1/2-x,1/2+y,1/2-z
1/2-x,1/2-y,-z
1/2+x,1/2-y,1/2+z
loop_
_atom_site_type_symbol
_atom_site_label
_atom_site_fract_x
_atom_site_fract_y
_atom_site_fract_z
Si Si1 0.342962 0.765139 0.870518
Si Si2 0.489694 0.584697 0.328407
Si Si3 0.710280 0.559273 0.238075
Si Si4 0.086214 0.463184 0.097114
Si Si5 0.946436 0.215989 0.582670
Si Si6 0.836446 0.796622 0.676765
O O1 0.287157 0.617513 0.769341
O O2 0.298076 0.856547 0.868857
O O3 0.356637 0.893167 0.826997
O O4 0.435218 0.695330 0.027929
O O5 0.500000 0.571772 0.250000
O O6 0.502602 0.415704 0.380889
O O7 0.402800 0.645986 0.219612
O O8 0.675537 0.587931 0.270171
O O9 0.645537 0.634567 0.069032
O O10 0.130837 0.349334 0.226852
O O11 0.065946 0.369667 0.984060
O O12 0.000000 0.500000 0.000000
O O13 0.000000 0.241532 0.750000
O O14 0.750000 0.750000 0.500000
#
# Coordination Sequence:
#
# PCOD9281937 Si02
#       6
#     8   8   8   8   8   8
#     4  11  22  41  63  92 126 170 217 263 333 380
#     4  10  21  38  66  93 126 172 216 266 329 396
#     4  10  22  39  67  92 129 169 214 271 323 392
#     4  11  23  40  62  94 130 171 215 271 323 396
#     4   9  21  39  63  91 123 166 211 265 323 389
#     4  11  23  42  63  95 131 170 219 270 328 394
#
# _framework density 19.872547000000001
#
# number of rings (size 3 to 8) (size 9 to 14) (size 15 to 20)
#    0.000    1.667    1.667    3.000    2.333    5.333 
#    6.000    0.833    0.000    0.000    0.000    0.000 
#    0.000    0.000    0.000    0.000    0.000    0.000 
#
# Total GULP energy -133713.292215 kJ/mol
# GULP energy per Si atom -5571.387176 kJ/mol
# Density = 1.982732 g / cm^3
# Si number density = 19.872547 Si / 1000 Ang^3
#
#
#
# Elastic Constant Matrix: (Units=GPa)
#
#
# Indices 1 2 3 4 5 6 
#
# 1 100.1118 46.2892 25.5018 0.0000 15.9742 0.0000
# 2 46.2892 138.6364 23.3929 0.0000 6.7541 0.0000
# 3 25.5018 23.3929 91.3023 0.0000 1.6597 0.0000
# 4 0.0000 0.0000 0.0000 13.3748 0.0000 12.4999
# 5 15.9742 6.7541 1.6597 0.0000 25.5833 0.0000
# 6 0.0000 0.0000 0.0000 12.4999 0.0000 30.2160
#
#
#
# Elastic Compliance Matrix: (Units=1/GPa)
#
#
# Indices 1 2 3 4 5 6 
#
# 1 0.013562 -0.003716 -0.002703 0.000000 -0.007312 0.000000
# 2 -0.003716 0.008647 -0.001180 0.000000 0.000114 0.000000
# 3 -0.002703 -0.001180 0.011988 0.000000 0.001222 0.000000
# 4 0.000000 0.000000 0.000000 0.121894 0.000000 -0.050426
# 5 -0.007312 0.000114 0.001222 0.000000 0.043544 0.000000
# 6 0.000000 0.000000 0.000000 -0.050426 0.000000 0.053955
#
#
# Mechanical properties :
#
#
# Convention : Reuss Voigt Hill
#
# Bulk Modulus (GPa) = 52.63237 57.82426 55.22832
# Shear Modulus (GPa) = 18.17375 29.49260 23.83317
#
# Velocity S-wave (km/s) = 3.02738 3.85656 3.46685
# Velocity P-wave (km/s) = 6.22595 6.99939 6.62397
#
# Compressibility (1/GPa) = 0.01899971
#
# Stress axis : x y z
#
# Youngs Moduli (GPa) = 73.73386 115.64237 83.41890
#
# Poissons Ratio (x) = 0.42972 0.22549
# Poissons Ratio (y) = 0.27399 0.09841
# Poissons Ratio (z) = 0.19931 0.13643
#
# Static dielectric constant tensor:
#      x y z
#    x 1.711220 0.000000 -0.005260 
#    y 0.000000 1.722540 0.000000 
#    z -0.005260 0.000000 1.731110 
# 
# From -- ./inp_files/176999.got.cif
#   From: 2010.05.17/outbox.cif.g08.bks.cpg/sg15_89_cif.got.tgz:176999.got - 2010.06.03 18:47:42.
