data_PCOD9281463
_publ_section_title
;
Structure prediction by ZEFSAII (Michael W. Deem and Ramdas Pophale) SiO2 
 PCOD9281463
Probable space group: C 2/C
;
_chemical_formula_sum "Si O2"
_cell_formula_units_Z 32
_cell_length_a 9.872898
_cell_length_b 25.438658
_cell_length_c 12.544132
_cell_angle_alpha 90.000000
_cell_angle_beta 24.515511
_cell_angle_gamma 90.000000
_cell_volume 1307.267051
_symmetry_space_group_name_H-M "C 2/C"
_symmetry_group_IT_number 15
_symmetry_cell_setting 'monoclinic'
loop_
_space_group_symop_operation_xyz
x,y,z
-x,y,1/2-z
-x,-y,-z
x,-y,1/2+z
1/2+x,1/2+y,z
1/2-x,1/2+y,1/2-z
1/2-x,1/2-y,-z
1/2+x,1/2-y,1/2+z
loop_
_atom_site_type_symbol
_atom_site_label
_atom_site_fract_x
_atom_site_fract_y
_atom_site_fract_z
Si Si1 0.110489 0.453881 0.054587
Si Si2 0.293901 0.328650 0.499622
Si Si3 0.242987 0.714998 0.668019
Si Si4 0.619272 0.929810 0.504548
O O1 0.000000 0.435237 0.250000
O O2 0.958633 0.423919 0.063176
O O3 0.500000 0.452329 0.750000
O O4 0.970056 0.514379 0.147287
O O5 0.500000 0.314185 0.250000
O O6 0.555845 0.327612 0.407816
O O7 0.077532 0.377046 0.600808
O O8 0.000000 0.292825 0.750000
O O9 0.509365 0.751556 0.415419
O O10 0.000000 0.693842 0.750000
O O11 0.000000 0.938784 0.250000
#
# Coordination Sequence:
#
# PCOD9281463 Si02
#       4
#     8   8   8   8
#     4  10  21  38  62  87 120 166 211 254 308 366
#     4  11  23  39  61  92 128 160 203 257 309 364
#     4  10  22  42  67  93 123 161 204 251 311 380
#     4   9  21  39  60  89 125 162 208 260 308 364
#
# _framework density 24.478549000000001
#
# number of rings (size 3 to 8) (size 9 to 14) (size 15 to 20)
#    0.000    2.000    0.000    2.250    0.000   16.000 
#    0.000   10.000    0.000    3.000    0.000    0.000 
#    0.000    0.000    0.000    0.000    0.000    0.000 
#
# Total GULP energy -89084.502700 kJ/mol
# GULP energy per Si atom -5567.781419 kJ/mol
# Density = 2.442284 g / cm^3
# Si number density = 24.478549 Si / 1000 Ang^3
#
#
#
# Elastic Constant Matrix: (Units=GPa)
#
#
# Indices 1 2 3 4 5 6 
#
# 1 287.6942 63.3730 77.8884 0.0001 1.4354 -0.0001
# 2 63.3730 77.1387 10.2214 0.0001 -0.5763 0.0003
# 3 77.8884 10.2214 160.5697 0.0006 22.5009 -0.0005
# 4 0.0001 0.0001 0.0006 -7.4058 0.0000 -29.8617
# 5 1.4354 -0.5763 22.5009 0.0000 52.3484 0.0005
# 6 -0.0001 0.0003 -0.0005 -29.8617 0.0005 5.2570
#
#
#
# Elastic Compliance Matrix: (Units=1/GPa)
#
#
# Indices 1 2 3 4 5 6 
#
# 1 0.004902 -0.003723 -0.002252 0.000000 0.000792 0.000000
# 2 -0.003723 0.015915 0.000802 0.000000 -0.000067 0.000000
# 3 -0.002252 0.000802 0.007724 0.000000 -0.003250 0.000000
# 4 0.000000 0.000000 0.000000 -0.005649 0.000000 -0.032087
# 5 0.000792 -0.000067 -0.003250 0.000000 0.020477 0.000000
# 6 0.000000 0.000000 0.000000 -0.032087 0.000000 0.007958
#
#
# Mechanical properties :
#
#
# Convention : Reuss Voigt Hill
#
# Bulk Modulus (GPa) = 54.95511 92.04093 73.49802
# Shear Modulus (GPa) = 73.81477 34.96790 54.39134
#
# Velocity S-wave (km/s) = 5.49730 3.78367 4.71892
# Velocity P-wave (km/s) = 7.92419 7.53462 7.73186
#
# Compressibility (1/GPa) = 0.01819667
#
# Stress axis : x y z
#
# Youngs Moduli (GPa) = 204.01573 62.83317 129.46007
#
# Poissons Ratio (x) = 0.23390 0.29151
# Poissons Ratio (y) = 0.75947 -0.10384
# Poissons Ratio (z) = 0.45939 -0.05040
#
# Static dielectric constant tensor:
#      x y z
#    x 1.908700 0.000000 -0.034180 
#    y 0.000000 2.292880 0.000000 
#    z -0.034180 0.000000 1.726480 
# 
# From -- ./inp_files/82439.got.cif
#   From: 2010.05.17/outbox.cif.g08.bks.cpg/sg15_42_cif.got.tgz:82439.got - 2010.06.03 18:47:42.
