data_PCOD9281687
_publ_section_title
;
Structure prediction by ZEFSAII (Michael W. Deem and Ramdas Pophale) SiO2 
 PCOD9281687
Probable space group: C 2/C
;
_chemical_formula_sum "Si O2"
_cell_formula_units_Z 36
_cell_length_a 5.363165
_cell_length_b 19.570786
_cell_length_c 13.935232
_cell_angle_alpha 90.000000
_cell_angle_beta 103.489308
_cell_angle_gamma 90.000000
_cell_volume 1422.311085
_symmetry_space_group_name_H-M "C 2/C"
_symmetry_group_IT_number 15
_symmetry_cell_setting 'monoclinic'
loop_
_space_group_symop_operation_xyz
x,y,z
-x,y,1/2-z
-x,-y,-z
x,-y,1/2+z
1/2+x,1/2+y,z
1/2-x,1/2+y,1/2-z
1/2-x,1/2-y,-z
1/2+x,1/2-y,1/2+z
loop_
_atom_site_type_symbol
_atom_site_label
_atom_site_fract_x
_atom_site_fract_y
_atom_site_fract_z
Si Si1 0.945090 0.696703 0.130111
Si Si2 0.445020 0.621250 0.131407
Si Si3 0.048315 0.850886 0.139717
Si Si4 0.741839 0.982162 0.087041
Si Si5 0.500000 0.069332 0.750000
O O1 0.658015 0.668074 0.101034
O O2 0.000000 0.695167 0.250000
O O3 0.157481 0.650816 0.096214
O O4 0.993219 0.774463 0.102230
O O5 0.500000 0.622263 0.250000
O O6 0.444312 0.543418 0.096427
O O7 0.335513 0.881332 0.164905
O O8 0.000000 0.849833 0.250000
O O9 0.867271 0.908900 0.080897
O O10 0.658752 0.978016 0.191971
O O11 0.500000 0.000000 0.000000
#
# Coordination Sequence:
#
# PCOD9281687 Si02
#       5
#     8   8   8   8   4
#     4   9  20  35  64  94 131 170 221 273 333 397
#     4  10  21  38  63  96 131 172 220 276 333 391
#     4   9  20  38  64  95 126 174 220 268 334 404
#     4  11  25  42  64  97 133 175 227 276 331 405
#     4  10  22  40  74  90 134 174 230 274 344 402
#
# _framework density 25.310917
#
# number of rings (size 3 to 8) (size 9 to 14) (size 15 to 20)
#    0.000    2.222    0.000    2.000   18.667    0.889 
#    0.000    2.222    0.000    0.000    0.000    0.000 
#    0.000    0.000    0.000    0.000    0.000    0.000 
#
# Total GULP energy -100805.856472 kJ/mol
# GULP energy per Si atom -5600.325360 kJ/mol
# Density = 2.525331 g / cm^3
# Si number density = 25.310917 Si / 1000 Ang^3
#
#
#
# Elastic Constant Matrix: (Units=GPa)
#
#
# Indices 1 2 3 4 5 6 
#
# 1 115.6655 50.2010 21.0787 0.0000 23.5923 0.0000
# 2 50.2010 169.7172 36.9057 0.0000 16.5491 0.0000
# 3 21.0787 36.9057 96.0048 0.0000 -3.6783 0.0000
# 4 0.0000 0.0000 0.0000 28.1158 0.0000 7.1628
# 5 23.5923 16.5491 -3.6783 0.0000 31.9359 0.0000
# 6 0.0000 0.0000 0.0000 7.1628 0.0000 39.3740
#
#
#
# Elastic Compliance Matrix: (Units=1/GPa)
#
#
# Indices 1 2 3 4 5 6 
#
# 1 0.011521 -0.002244 -0.001957 0.000000 -0.007574 0.000000
# 2 -0.002244 0.007315 -0.002412 0.000000 -0.002411 0.000000
# 3 -0.001957 -0.002412 0.011929 0.000000 0.004070 0.000000
# 4 0.000000 0.000000 0.000000 0.037296 0.000000 -0.006785
# 5 -0.007574 -0.002411 0.004070 0.000000 0.038626 0.000000
# 6 0.000000 0.000000 0.000000 -0.006785 0.000000 0.026632
#
#
# Mechanical properties :
#
#
# Convention : Reuss Voigt Hill
#
# Bulk Modulus (GPa) = 57.01349 66.41759 61.71554
# Shear Modulus (GPa) = 32.81038 38.09860 35.45449
#
# Velocity S-wave (km/s) = 3.60431 3.88393 3.74673
# Velocity P-wave (km/s) = 6.31630 6.81255 6.56911
#
# Compressibility (1/GPa) = 0.01753971
#
# Stress axis : x y z
#
# Youngs Moduli (GPa) = 86.79878 136.69783 83.82955
#
# Poissons Ratio (x) = 0.30671 0.16407
# Poissons Ratio (y) = 0.19475 0.20219
# Poissons Ratio (z) = 0.16988 0.32970
#
# Static dielectric constant tensor:
#      x y z
#    x 2.040250 0.000000 0.044360 
#    y 0.000000 1.919670 0.000000 
#    z 0.044360 0.000000 2.013980 
# 
# From -- ./inp_files/184140.got.cif
#   From: 2010.05.17/outbox.cif.g08.bks.cpg/sg15_93_cif.got.tgz:184140.got - 2010.06.03 18:47:42.
