data_PCOD9281856
_publ_section_title
;
Structure prediction by ZEFSAII (Michael W. Deem and Ramdas Pophale) SiO2 
 PCOD9281856
Probable space group: C 2/C
;
_chemical_formula_sum "Si O2"
_cell_formula_units_Z 48
_cell_length_a 28.511883
_cell_length_b 5.369555
_cell_length_c 27.056611
_cell_angle_alpha 90.000000
_cell_angle_beta 149.278903
_cell_angle_gamma 90.000000
_cell_volume 2116.113996
_symmetry_space_group_name_H-M "C 2/C"
_symmetry_group_IT_number 15
_symmetry_cell_setting 'monoclinic'
loop_
_space_group_symop_operation_xyz
x,y,z
-x,y,1/2-z
-x,-y,-z
x,-y,1/2+z
1/2+x,1/2+y,z
1/2-x,1/2+y,1/2-z
1/2-x,1/2-y,-z
1/2+x,1/2-y,1/2+z
loop_
_atom_site_type_symbol
_atom_site_label
_atom_site_fract_x
_atom_site_fract_y
_atom_site_fract_z
Si Si1 0.894453 0.190014 0.106443
Si Si2 0.846849 0.504491 0.745157
Si Si3 0.805298 0.537875 0.309370
Si Si4 0.020028 0.293152 0.855734
Si Si5 0.824100 0.308632 0.429545
Si Si6 0.785297 0.832493 0.608291
O O1 0.943855 0.452181 0.138067
O O2 0.853322 0.180253 0.124054
O O3 0.958367 0.952621 0.155592
O O4 0.803675 0.168555 0.989003
O O5 0.875737 0.520670 0.828398
O O6 0.742547 0.404901 0.650463
O O7 0.838317 0.752878 0.705689
O O8 0.915598 0.333222 0.776642
O O9 0.770419 0.819186 0.268964
O O10 0.834565 0.495856 0.392504
O O11 0.077837 0.255056 0.958591
O O12 0.765640 0.415801 0.422851
#
# Coordination Sequence:
#
# PCOD9281856 Si02
#       6
#     8   8   8   8   8   8
#     4  10  24  42  63  92 126 163 217 258 316 378
#     4  11  23  40  65  94 128 168 216 256 326 376
#     4  10  21  38  65  93 122 167 213 256 318 381
#     4  11  25  41  63  97 127 165 213 263 311 381
#     4  10  22  42  66  87 133 161 211 266 318 371
#     4  10  21  41  67  86 124 173 208 260 323 370
#
# _framework density 22.683085999999999
#
# number of rings (size 3 to 8) (size 9 to 14) (size 15 to 20)
#    0.000    1.667    3.333    0.000    4.667    3.333 
#    0.000    0.000    0.000    8.000    0.000    0.000 
#    0.000    0.000    0.000    0.000    0.000    0.000 
#
# Total GULP energy -133877.986710 kJ/mol
# GULP energy per Si atom -5578.249446 kJ/mol
# Density = 2.263146 g / cm^3
# Si number density = 22.683086 Si / 1000 Ang^3
#
#
#
# Elastic Constant Matrix: (Units=GPa)
#
#
# Indices 1 2 3 4 5 6 
#
# 1 109.2605 23.3883 12.6415 0.0080 -13.0639 -0.0040
# 2 23.3883 94.2476 15.0725 0.0006 2.6215 0.0575
# 3 12.6415 15.0725 60.7979 -0.0023 3.8098 0.0046
# 4 0.0080 0.0006 -0.0023 16.7599 0.0012 4.2711
# 5 -13.0639 2.6215 3.8098 0.0012 25.2325 0.0034
# 6 -0.0040 0.0575 0.0046 4.2711 0.0034 29.1206
#
#
#
# Elastic Compliance Matrix: (Units=1/GPa)
#
#
# Indices 1 2 3 4 5 6 
#
# 1 0.010640 -0.002493 -0.001974 -0.000008 0.006066 0.000007
# 2 -0.002493 0.011646 -0.002233 0.000007 -0.002164 -0.000024
# 3 -0.001974 -0.002233 0.017628 0.000003 -0.003452 0.000001
# 4 -0.000008 0.000007 0.000003 0.061983 -0.000007 -0.009091
# 5 0.006066 -0.002164 -0.003452 -0.000007 0.043518 0.000002
# 6 0.000007 -0.000024 0.000001 -0.009091 0.000002 0.035673
#
#
# Mechanical properties :
#
#
# Convention : Reuss Voigt Hill
#
# Bulk Modulus (GPa) = 37.71750 40.72340 39.22045
# Shear Modulus (GPa) = 24.59075 28.43617 26.51346
#
# Velocity S-wave (km/s) = 3.29614 3.54450 3.42258
# Velocity P-wave (km/s) = 5.58123 5.89436 5.73993
#
# Compressibility (1/GPa) = 0.02651289
#
# Stress axis : x y z
#
# Youngs Moduli (GPa) = 93.98616 85.86301 56.72662
#
# Poissons Ratio (x) = 0.21409 0.11199
# Poissons Ratio (y) = 0.23434 0.12669
# Poissons Ratio (z) = 0.18556 0.19176
#
# Static dielectric constant tensor:
#      x y z
#    x 1.884150 0.000000 -0.053700 
#    y 0.000000 1.879870 0.000000 
#    z -0.053700 0.000000 1.899750 
# 
# From -- ./inp_files/179759.got.cif
#   From: 2010.05.17/outbox.cif.g08.bks.cpg/sg15_90_cif.got.tgz:179759.got - 2010.06.03 18:47:42.
