data_PCOD9281012
_publ_section_title
;
Structure prediction by ZEFSAII (Michael W. Deem and Ramdas Pophale) SiO2 
 PCOD9281012
Probable space group: C 2/C
;
_chemical_formula_sum "Si O2"
_cell_formula_units_Z 60
_cell_length_a 18.467101
_cell_length_b 17.799377
_cell_length_c 9.288465
_cell_angle_alpha 90.000000
_cell_angle_beta 69.934779
_cell_angle_gamma 90.000000
_cell_volume 2867.827587
_symmetry_space_group_name_H-M "C 2/C"
_symmetry_group_IT_number 15
_symmetry_cell_setting 'monoclinic'
loop_
_space_group_symop_operation_xyz
x,y,z
-x,y,1/2-z
-x,-y,-z
x,-y,1/2+z
1/2+x,1/2+y,z
1/2-x,1/2+y,1/2-z
1/2-x,1/2-y,-z
1/2+x,1/2-y,1/2+z
loop_
_atom_site_type_symbol
_atom_site_label
_atom_site_fract_x
_atom_site_fract_y
_atom_site_fract_z
Si Si1 0.200039 0.164914 0.249752
Si Si2 0.417084 0.922410 0.672045
Si Si3 0.607416 0.539134 0.432786
Si Si4 0.373544 0.786456 0.561075
Si Si5 0.674068 0.374657 0.436471
Si Si6 0.151771 0.672634 0.750766
Si Si7 0.094023 0.550250 0.010040
Si Si8 0.500000 0.499101 0.250000
O O1 0.174259 0.100225 0.374500
O O2 0.289013 0.187750 0.174263
O O3 0.156509 0.243188 0.310513
O O4 0.178679 0.134039 0.105772
O O5 0.428064 0.836386 0.621111
O O6 0.374387 0.931973 0.852796
O O7 0.503366 0.954717 0.607823
O O8 0.375836 0.972138 0.576978
O O9 0.641343 0.454588 0.412330
O O10 0.549256 0.544980 0.335589
O O11 0.558852 0.547527 0.611871
O O12 0.377375 0.697260 0.573223
O O13 0.379414 0.813355 0.390530
O O14 0.760951 0.359089 0.322983
O O15 0.107587 0.614136 0.881491
#
# Coordination Sequence:
#
# PCOD9281012 Si02
#       8
#     8   8   8   8   8   8   8   4
#     4   9  19  38  61  83 116 149 193 232 286 338
#     4  10  21  38  56  81 115 150 188 231 282 339
#     4  11  20  42  58  86 113 158 190 240 287 340
#     4   9  19  38  60  86 112 149 191 240 279 341
#     4   9  19  38  61  83 116 149 193 232 286 338
#     4   9  19  38  60  86 112 149 191 240 279 341
#     4  10  21  38  56  81 115 150 188 231 282 339
#     4  10  24  38  60  82 120 146 200 238 280 342
#
# _framework density 20.921759999999999
#
# number of rings (size 3 to 8) (size 9 to 14) (size 15 to 20)
#    0.000    2.400    1.333    2.400    1.867    1.600 
#    9.600    1.333    0.000    0.000    0.000    0.000 
#    0.000    0.000    0.000    0.000    0.000    0.000 
#
# Total GULP energy -167202.479422 kJ/mol
# GULP energy per Si atom -5573.415981 kJ/mol
# Density = 2.087414 g / cm^3
# Si number density = 20.921760 Si / 1000 Ang^3
#
#
#
# Elastic Constant Matrix: (Units=GPa)
#
#
# Indices 1 2 3 4 5 6 
#
# 1 6.0244 2.1856 4.3945 0.0000 0.2071 0.0000
# 2 2.1856 119.7671 45.6238 0.0000 -11.9718 0.0000
# 3 4.3945 45.6238 111.6329 0.0000 -18.8436 0.0000
# 4 0.0000 0.0000 0.0000 17.4516 0.0000 -6.3826
# 5 0.2071 -11.9718 -18.8436 0.0000 18.1442 0.0000
# 6 0.0000 0.0000 0.0000 -6.3826 0.0000 21.4248
#
#
#
# Elastic Compliance Matrix: (Units=1/GPa)
#
#
# Indices 1 2 3 4 5 6 
#
# 1 0.172804 -0.001142 -0.008241 0.000000 -0.011285 0.000000
# 2 -0.001142 0.010017 -0.003554 0.000000 0.002931 0.000000
# 3 -0.008241 -0.003554 0.012556 0.000000 0.010789 0.000000
# 4 0.000000 0.000000 0.000000 0.064308 0.000000 0.019158
# 5 -0.011285 0.002931 0.010789 0.000000 0.068382 0.000000
# 6 0.000000 0.000000 0.000000 0.019158 0.000000 0.052382
#
#
# Mechanical properties :
#
#
# Convention : Reuss Voigt Hill
#
# Bulk Modulus (GPa) = 5.89958 37.98135 21.94047
# Shear Modulus (GPa) = 10.80322 23.75216 17.27769
#
# Velocity S-wave (km/s) = 2.27483 3.37305 2.87683
# Velocity P-wave (km/s) = 3.11861 5.77611 4.64161
#
# Compressibility (1/GPa) = 0.16950348
#
# Stress axis : x y z
#
# Youngs Moduli (GPa) = 5.78689 99.82675 79.64238
#
# Poissons Ratio (x) = 0.11404 0.65629
# Poissons Ratio (y) = 0.00661 0.28307
# Poissons Ratio (z) = 0.04769 0.35481
#
# Static dielectric constant tensor:
#      x y z
#    x 1.901500 0.000000 0.070900 
#    y 0.000000 1.787060 0.000000 
#    z 0.070900 0.000000 1.817650 
# 
# From -- ./inp_files/61872.got.cif
#   From: 2010.05.17/outbox.cif.g08.bks.cpg/sg15_31_cif.got.tgz:61872.got - 2010.06.03 18:47:42.
