data_PCOD9281332
_publ_section_title
;
Structure prediction by ZEFSAII (Michael W. Deem and Ramdas Pophale) SiO2 
 PCOD9281332
Probable space group: C 2/C
;
_chemical_formula_sum "Si O2"
_cell_formula_units_Z 40
_cell_length_a 19.916248
_cell_length_b 6.636128
_cell_length_c 15.146503
_cell_angle_alpha 90.000000
_cell_angle_beta 121.677058
_cell_angle_gamma 90.000000
_cell_volume 1703.629533
_symmetry_space_group_name_H-M "C 2/C"
_symmetry_group_IT_number 15
_symmetry_cell_setting 'monoclinic'
loop_
_space_group_symop_operation_xyz
x,y,z
-x,y,1/2-z
-x,-y,-z
x,-y,1/2+z
1/2+x,1/2+y,z
1/2-x,1/2+y,1/2-z
1/2-x,1/2-y,-z
1/2+x,1/2-y,1/2+z
loop_
_atom_site_type_symbol
_atom_site_label
_atom_site_fract_x
_atom_site_fract_y
_atom_site_fract_z
Si Si1 0.076438 0.032811 0.422984
Si Si2 0.190571 0.464653 0.363196
Si Si3 0.319760 0.710572 0.373819
Si Si4 0.824299 0.619403 0.448368
Si Si5 0.398661 0.621473 0.254301
O O1 0.099214 0.242388 0.486492
O O2 0.116493 0.028355 0.353099
O O3 0.983689 0.040574 0.342335
O O4 0.115421 0.863885 0.510195
O O5 0.232358 0.650426 0.345227
O O6 0.186411 0.492830 0.465081
O O7 0.254569 0.283399 0.392630
O O8 0.109888 0.362855 0.273134
O O9 0.342740 0.597585 0.299824
O O10 0.326535 0.951136 0.375549
#
# Coordination Sequence:
#
# PCOD9281332 Si02
#       5
#     8   8   8   8   8
#     4   9  21  43  57  82 124 158 189 249 295 337
#     4   9  20  37  55  85 120 149 187 249 290 342
#     4  11  21  36  63  87 113 157 202 236 293 359
#     4   9  19  38  59  79 115 155 193 237 299 342
#     4  10  21  38  61  85 121 155 196 244 294 344
#
# _framework density 23.479284
#
# number of rings (size 3 to 8) (size 9 to 14) (size 15 to 20)
#    0.000    2.400    0.000    2.400    2.800    0.800 
#    0.000   12.000    0.000    0.000    0.000    0.000 
#    0.000    0.000    0.000    0.000    0.000    0.000 
#
# Total GULP energy -111626.346745 kJ/mol
# GULP energy per Si atom -5581.317337 kJ/mol
# Density = 2.342584 g / cm^3
# Si number density = 23.479284 Si / 1000 Ang^3
#
#
#
# Elastic Constant Matrix: (Units=GPa)
#
#
# Indices 1 2 3 4 5 6 
#
# 1 29.2792 1.8238 6.8872 0.0000 -7.3630 0.0000
# 2 1.8238 62.2055 20.1282 0.0000 -2.2929 0.0000
# 3 6.8872 20.1282 91.7622 0.0000 7.3951 0.0000
# 4 0.0000 0.0000 0.0000 38.0924 0.0000 -2.2573
# 5 -7.3630 -2.2929 7.3951 0.0000 36.4813 0.0000
# 6 0.0000 0.0000 0.0000 -2.2573 0.0000 14.3386
#
#
#
# Elastic Compliance Matrix: (Units=1/GPa)
#
#
# Indices 1 2 3 4 5 6 
#
# 1 0.037023 0.000356 -0.003518 0.000000 0.008208 0.000000
# 2 0.000356 0.017436 -0.004011 0.000000 0.001981 0.000000
# 3 -0.003518 -0.004011 0.012320 0.000000 -0.003460 0.000000
# 4 0.000000 0.000000 0.000000 0.026499 0.000000 0.004172
# 5 0.008208 0.001981 -0.003460 0.000000 0.029894 0.000000
# 6 0.000000 0.000000 0.000000 0.004172 0.000000 0.070399
#
#
# Mechanical properties :
#
#
# Convention : Reuss Voigt Hill
#
# Bulk Modulus (GPa) = 19.07209 26.76947 22.92078
# Shear Modulus (GPa) = 22.18311 28.07630 25.12970
#
# Velocity S-wave (km/s) = 3.07709 3.46177 3.27508
# Velocity P-wave (km/s) = 4.55688 5.23494 4.90763
#
# Compressibility (1/GPa) = 0.05243265
#
# Stress axis : x y z
#
# Youngs Moduli (GPa) = 27.00991 57.35202 81.16606
#
# Poissons Ratio (x) = -0.02039 0.28556
# Poissons Ratio (y) = -0.00960 0.32555
# Poissons Ratio (z) = 0.09503 0.23004
#
# Static dielectric constant tensor:
#      x y z
#    x 1.915210 0.000000 0.005810 
#    y 0.000000 1.887310 0.000000 
#    z 0.005810 0.000000 1.944420 
# 
# From -- ./inp_files/212723.got.cif
#   From: 2010.05.17/outbox.cif.g08.bks.cpg/sg15_107_cif.got.tgz:212723.got - 2010.06.03 18:47:42.
