data_PCOD9281289
_publ_section_title
;
Structure prediction by ZEFSAII (Michael W. Deem and Ramdas Pophale) SiO2 
 PCOD9281289
Probable space group: C 2/C
;
_chemical_formula_sum "Si O2"
_cell_formula_units_Z 32
_cell_length_a 7.136462
_cell_length_b 29.530493
_cell_length_c 6.797511
_cell_angle_alpha 90.000000
_cell_angle_beta 118.069895
_cell_angle_gamma 90.000000
_cell_volume 1264.027112
_symmetry_space_group_name_H-M "C 2/C"
_symmetry_group_IT_number 15
_symmetry_cell_setting 'monoclinic'
loop_
_space_group_symop_operation_xyz
x,y,z
-x,y,1/2-z
-x,-y,-z
x,-y,1/2+z
1/2+x,1/2+y,z
1/2-x,1/2+y,1/2-z
1/2-x,1/2-y,-z
1/2+x,1/2-y,1/2+z
loop_
_atom_site_type_symbol
_atom_site_label
_atom_site_fract_x
_atom_site_fract_y
_atom_site_fract_z
Si Si1 0.000000 0.474009 0.750000
Si Si2 0.714219 0.851574 0.232198
Si Si3 0.283845 0.248626 0.775716
Si Si4 0.500000 0.823706 0.750000
Si Si5 0.777749 0.050299 0.728273
O O1 0.806191 0.508887 0.684770
O O2 0.919306 0.445766 0.524535
O O3 0.500000 0.853143 0.250000
O O4 0.809571 0.801582 0.318611
O O5 0.820421 0.899415 0.334527
O O6 0.658523 0.850063 0.971457
O O7 0.500000 0.252806 0.750000
O O8 0.137140 0.292506 0.666621
O O9 0.250000 0.250000 0.000000
O O10 0.000000 0.036447 0.750000
#
# Coordination Sequence:
#
# PCOD9281289 Si02
#       5
#     4   8   8   4   8
#     4  10  23  42  66  92 128 162 208 276 325 398
#     4  10  21  38  60  91 126 166 213 272 322 387
#     4   9  20  36  57  88 122 173 221 265 327 387
#     4  10  21  40  60  84 134 172 216 272 325 382
#     4  11  22  41  66  94 126 166 213 263 335 396
#
# _framework density 25.315912000000001
#
# number of rings (size 3 to 8) (size 9 to 14) (size 15 to 20)
#    0.000    2.000    1.250    1.500    1.750    9.000 
#    4.500    0.000    0.000    0.000    0.000    0.000 
#    0.000    0.000    0.000    0.000    0.000    0.000 
#
# Total GULP energy -89072.530363 kJ/mol
# GULP energy per Si atom -5567.033148 kJ/mol
# Density = 2.525829 g / cm^3
# Si number density = 25.315912 Si / 1000 Ang^3
#
#
#
# Elastic Constant Matrix: (Units=GPa)
#
#
# Indices 1 2 3 4 5 6 
#
# 1 185.0724 43.7436 -13.2407 0.0000 -5.2352 0.0000
# 2 43.7436 164.2243 -8.8576 0.0000 0.0969 0.0000
# 3 -13.2407 -8.8576 75.1565 0.0000 -22.4213 0.0000
# 4 0.0000 0.0000 0.0000 -17.7127 0.0000 -30.3730
# 5 -5.2352 0.0969 -22.4213 0.0000 28.1358 0.0000
# 6 0.0000 0.0000 0.0000 -30.3730 0.0000 -28.1878
#
#
#
# Elastic Compliance Matrix: (Units=1/GPa)
#
#
# Indices 1 2 3 4 5 6 
#
# 1 0.005937 -0.001498 0.001575 0.000000 0.002365 0.000000
# 2 -0.001498 0.006517 0.000544 0.000000 0.000132 0.000000
# 3 0.001575 0.000544 0.018017 0.000000 0.014649 0.000000
# 4 0.000000 0.000000 0.000000 0.066600 0.000000 -0.071763
# 5 0.002365 0.000132 0.014649 0.000000 0.047655 0.000000
# 6 0.000000 0.000000 0.000000 -0.071763 0.000000 0.041850
#
#
# Mechanical properties :
#
#
# Convention : Reuss Voigt Hill
#
# Bulk Modulus (GPa) = 31.53269 51.97152 41.75210
# Shear Modulus (GPa) = 25.52227 23.30093 24.41160
#
# Velocity S-wave (km/s) = 3.17858 3.03711 3.10865
# Velocity P-wave (km/s) = 5.09450 5.73345 5.42339
#
# Compressibility (1/GPa) = 0.03171312
#
# Stress axis : x y z
#
# Youngs Moduli (GPa) = 168.43841 153.43434 55.50207
#
# Poissons Ratio (x) = 0.22982 -0.08741
# Poissons Ratio (y) = 0.25229 -0.03017
# Poissons Ratio (z) = -0.26528 -0.08341
#
# Static dielectric constant tensor:
#      x y z
#    x 2.005160 0.000000 0.067840 
#    y 0.000000 2.045950 0.000000 
#    z 0.067840 0.000000 2.291390 
# 
# From -- ./inp_files/20312.got.cif
#   From: 2010.05.17/outbox.cif.g08.bks.cpg/sg15_11_cif.got.tgz:20312.got - 2010.06.03 18:47:42.
