data_PCOD9281141
_publ_section_title
;
Structure prediction by ZEFSAII (Michael W. Deem and Ramdas Pophale) SiO2 
 PCOD9281141
Probable space group: C 2/C
;
_chemical_formula_sum "Si O2"
_cell_formula_units_Z 60
_cell_length_a 6.514682
_cell_length_b 18.636489
_cell_length_c 28.510438
_cell_angle_alpha 90.000000
_cell_angle_beta 81.964173
_cell_angle_gamma 90.000000
_cell_volume 3427.486328
_symmetry_space_group_name_H-M "C 2/C"
_symmetry_group_IT_number 15
_symmetry_cell_setting 'monoclinic'
loop_
_space_group_symop_operation_xyz
x,y,z
-x,y,1/2-z
-x,-y,-z
x,-y,1/2+z
1/2+x,1/2+y,z
1/2-x,1/2+y,1/2-z
1/2-x,1/2-y,-z
1/2+x,1/2-y,1/2+z
loop_
_atom_site_type_symbol
_atom_site_label
_atom_site_fract_x
_atom_site_fract_y
_atom_site_fract_z
Si Si1 0.809222 0.682383 0.528322
Si Si2 0.647968 0.393224 0.701634
Si Si3 0.591146 0.249341 0.798014
Si Si4 0.906932 0.088227 0.563193
Si Si5 0.868197 0.569173 0.017562
Si Si6 0.981321 0.357586 0.116410
Si Si7 0.000000 0.678415 0.250000
Si Si8 0.295429 0.497269 0.886367
O O1 0.750000 0.750000 0.500000
O O2 0.601890 0.637660 0.544815
O O3 0.904069 0.693915 0.576781
O O4 0.983620 0.636511 0.495820
O O5 0.500000 0.414471 0.750000
O O6 0.538893 0.321222 0.684219
O O7 0.666358 0.455309 0.662896
O O8 0.866193 0.369054 0.717758
O O9 0.500000 0.229302 0.750000
O O10 0.560204 0.184747 0.834715
O O11 0.828820 0.273698 0.782466
O O12 0.812756 0.068599 0.515490
O O13 0.720675 0.125231 0.597839
O O14 0.999980 0.026169 0.593332
O O15 0.801413 0.557852 0.072935
O O16 0.000000 0.500000 0.000000
O O17 0.854124 0.433049 0.116424
#
# Coordination Sequence:
#
# PCOD9281141 Si02
#       8
#     8   8   8   8   8   8   4   8
#     4  10  23  37  56  88 119 153 198 244 290 346
#     4   9  21  40  58  89 114 147 200 241 293 356
#     4   9  20  39  59  83 111 156 197 239 298 360
#     4  10  21  38  59  77 126 155 187 246 289 340
#     4  11  20  39  58  85 117 157 201 231 287 364
#     4  10  22  38  54  87 121 149 203 238 294 359
#     4   8  18  40  64  74 118 148 184 254 294 342
#     4  11  22  36  60  89 115 158 196 240 299 351
#
# _framework density 17.50554
#
# number of rings (size 3 to 8) (size 9 to 14) (size 15 to 20)
#    0.000    2.400    4.000    0.400    0.000   11.733 
#    4.800    0.000    0.000    0.000    0.000    0.000 
#    0.000    0.000    0.000    0.000    0.000    0.000 
#
# Total GULP energy -167168.816574 kJ/mol
# GULP energy per Si atom -5572.293886 kJ/mol
# Density = 1.746570 g / cm^3
# Si number density = 17.505540 Si / 1000 Ang^3
#
#
#
# Elastic Constant Matrix: (Units=GPa)
#
#
# Indices 1 2 3 4 5 6 
#
# 1 121.0346 40.3649 53.1649 0.0000 1.9380 0.0000
# 2 40.3649 74.5803 70.4714 0.0000 9.4711 0.0000
# 3 53.1649 70.4714 131.9058 0.0000 -0.5093 0.0000
# 4 0.0000 0.0000 0.0000 50.7281 0.0000 6.6854
# 5 1.9380 9.4711 -0.5093 0.0000 12.7719 0.0000
# 6 0.0000 0.0000 0.0000 6.6854 0.0000 10.9193
#
#
#
# Elastic Compliance Matrix: (Units=1/GPa)
#
#
# Indices 1 2 3 4 5 6 
#
# 1 0.010457 -0.003661 -0.002255 0.000000 0.001038 0.000000
# 2 -0.003661 0.035183 -0.017423 0.000000 -0.026230 0.000000
# 3 -0.002255 -0.017423 0.017852 0.000000 0.013974 0.000000
# 4 0.000000 0.000000 0.000000 0.021443 0.000000 -0.013129
# 5 0.001038 -0.026230 0.013974 0.000000 0.098148 0.000000
# 6 0.000000 0.000000 0.000000 -0.013129 0.000000 0.099619
#
#
# Mechanical properties :
#
#
# Convention : Reuss Voigt Hill
#
# Bulk Modulus (GPa) = 59.46802 72.83590 66.15196
# Shear Modulus (GPa) = 14.92608 25.78514 20.35561
#
# Velocity S-wave (km/s) = 2.92318 3.84209 3.41370
# Velocity P-wave (km/s) = 6.74078 7.83453 7.30814
#
# Compressibility (1/GPa) = 0.01681576
#
# Stress axis : x y z
#
# Youngs Moduli (GPa) = 95.63176 28.42246 56.01555
#
# Poissons Ratio (x) = 0.10404 0.12631
# Poissons Ratio (y) = 0.35007 0.97595
# Poissons Ratio (z) = 0.21564 0.49520
#
# Static dielectric constant tensor:
#      x y z
#    x 1.601520 0.000000 0.031670 
#    y 0.000000 1.592880 0.000000 
#    z 0.031670 0.000000 1.596710 
# 
# From -- ./inp_files/305635.got.cif
#   From: 2010.05.17/outbox.cif.g08.bks.cpg/sg15_153_cif.got.tgz:305635.got - 2010.06.03 18:47:42.
