data_PCOD9281226
_publ_section_title
;
Structure prediction by ZEFSAII (Michael W. Deem and Ramdas Pophale) SiO2 
 PCOD9281226
Probable space group: C 2/C
;
_chemical_formula_sum "Si O2"
_cell_formula_units_Z 56
_cell_length_a 7.741031
_cell_length_b 22.043664
_cell_length_c 19.540396
_cell_angle_alpha 90.000000
_cell_angle_beta 54.730930
_cell_angle_gamma 90.000000
_cell_volume 2722.357981
_symmetry_space_group_name_H-M "C 2/C"
_symmetry_group_IT_number 15
_symmetry_cell_setting 'monoclinic'
loop_
_space_group_symop_operation_xyz
x,y,z
-x,y,1/2-z
-x,-y,-z
x,-y,1/2+z
1/2+x,1/2+y,z
1/2-x,1/2+y,1/2-z
1/2-x,1/2-y,-z
1/2+x,1/2-y,1/2+z
loop_
_atom_site_type_symbol
_atom_site_label
_atom_site_fract_x
_atom_site_fract_y
_atom_site_fract_z
Si Si1 0.570563 0.362912 0.010485
Si Si2 0.714840 0.359882 0.722108
Si Si3 0.533595 0.807391 0.413835
Si Si4 0.835058 0.571114 0.966569
Si Si5 0.721477 0.201132 0.164335
Si Si6 0.335676 0.247276 0.092256
Si Si7 0.527057 0.062668 0.070086
O O1 0.387199 0.402378 0.013068
O O2 0.705406 0.324506 0.924330
O O3 0.750590 0.405163 0.001593
O O4 0.461657 0.309578 0.080279
O O5 0.500000 0.392743 0.750000
O O6 0.643352 0.337049 0.812885
O O7 0.768552 0.297191 0.668464
O O8 0.910071 0.403364 0.659342
O O9 0.504251 0.877485 0.407034
O O10 0.745729 0.772764 0.347041
O O11 0.469068 0.792468 0.506983
O O12 0.362875 0.771801 0.405855
O O13 0.865409 0.565478 0.042384
O O14 0.903549 0.505075 0.925651
O O15 0.500000 0.187927 0.250000
#
# Coordination Sequence:
#
# PCOD9281226 Si02
#       7
#     8   8   8   8   8   8   8
#     4  10  21  39  60  86 116 151 202 247 285 346
#     4  12  21  35  56  86 118 149 194 244 294 355
#     4   9  17  35  55  81 115 149 188 237 290 350
#     4  10  21  38  60  83 114 154 198 239 284 343
#     4  11  21  33  55  87 117 148 187 246 307 341
#     4   9  18  32  58  83 108 150 189 242 297 333
#     4  11  22  36  59  88 113 154 198 240 285 344
#
# _framework density 20.570402000000001
#
# number of rings (size 3 to 8) (size 9 to 14) (size 15 to 20)
#    0.000    1.714    4.286    2.143    0.000    1.714 
#    0.000    0.714    0.000    8.571    0.000    0.000 
#    0.000    0.000    0.000    0.000    0.000    0.000 
#
# Total GULP energy -155889.001612 kJ/mol
# GULP energy per Si atom -5567.464343 kJ/mol
# Density = 2.052358 g / cm^3
# Si number density = 20.570402 Si / 1000 Ang^3
#
#
#
# Elastic Constant Matrix: (Units=GPa)
#
#
# Indices 1 2 3 4 5 6 
#
# 1 63.3449 20.7285 1.2294 0.0000 -12.9524 0.0000
# 2 20.7285 137.9297 17.7914 0.0000 -18.5308 0.0000
# 3 1.2294 17.7914 36.2775 0.0000 -5.9367 0.0000
# 4 0.0000 0.0000 0.0000 23.0561 0.0000 -1.8621
# 5 -12.9524 -18.5308 -5.9367 0.0000 24.0198 0.0000
# 6 0.0000 0.0000 0.0000 -1.8621 0.0000 13.1756
#
#
#
# Elastic Compliance Matrix: (Units=1/GPa)
#
#
# Indices 1 2 3 4 5 6 
#
# 1 0.018137 -0.001756 0.001694 0.000000 0.008844 0.000000
# 2 -0.001756 0.008600 -0.003364 0.000000 0.004857 0.000000
# 3 0.001694 -0.003364 0.030100 0.000000 0.005758 0.000000
# 4 0.000000 0.000000 0.000000 0.043873 0.000000 0.006201
# 5 0.008844 0.004857 0.005758 0.000000 0.051571 0.000000
# 6 0.000000 0.000000 0.000000 0.006201 0.000000 0.076774
#
#
# Mechanical properties :
#
#
# Convention : Reuss Voigt Hill
#
# Bulk Modulus (GPa) = 20.00581 35.22786 27.61683
# Shear Modulus (GPa) = 19.79661 25.23715 22.51688
#
# Velocity S-wave (km/s) = 3.10560 3.50647 3.31210
# Velocity P-wave (km/s) = 4.75461 5.79279 5.29918
#
# Compressibility (1/GPa) = 0.04998548
#
# Stress axis : x y z
#
# Youngs Moduli (GPa) = 55.13686 116.27472 33.22289
#
# Poissons Ratio (x) = 0.20417 -0.05627
# Poissons Ratio (y) = 0.09682 0.11175
# Poissons Ratio (z) = -0.09339 0.39109
#
# Static dielectric constant tensor:
#      x y z
#    x 2.177430 0.000000 0.056810 
#    y 0.000000 1.738820 0.000000 
#    z 0.056810 0.000000 1.699170 
# 
# From -- ./inp_files/233774.got.cif
#   From: 2010.05.17/outbox.cif.g08.bks.cpg/sg15_117_cif.got.tgz:233774.got - 2010.06.03 18:47:42.
