data_PCOD9281649
_publ_section_title
;
Structure prediction by ZEFSAII (Michael W. Deem and Ramdas Pophale) SiO2 
 PCOD9281649
Probable space group: C 2/C
;
_chemical_formula_sum "Si O2"
_cell_formula_units_Z 36
_cell_length_a 10.170480
_cell_length_b 8.332312
_cell_length_c 25.412318
_cell_angle_alpha 90.000000
_cell_angle_beta 41.614503
_cell_angle_gamma 90.000000
_cell_volume 1430.193688
_symmetry_space_group_name_H-M "C 2/C"
_symmetry_group_IT_number 15
_symmetry_cell_setting 'monoclinic'
loop_
_space_group_symop_operation_xyz
x,y,z
-x,y,1/2-z
-x,-y,-z
x,-y,1/2+z
1/2+x,1/2+y,z
1/2-x,1/2+y,1/2-z
1/2-x,1/2-y,-z
1/2+x,1/2-y,1/2+z
loop_
_atom_site_type_symbol
_atom_site_label
_atom_site_fract_x
_atom_site_fract_y
_atom_site_fract_z
Si Si1 0.596590 0.140016 0.076874
Si Si2 0.040492 0.664937 0.935632
Si Si3 0.500000 0.627277 0.250000
Si Si4 0.001263 0.817124 0.304733
Si Si5 0.824927 0.316794 0.397545
O O1 0.437400 0.239076 0.159049
O O2 0.681688 0.009677 0.093845
O O3 0.750000 0.250000 0.000000
O O4 0.384701 0.253150 0.019125
O O5 0.266321 0.663061 0.884554
O O6 0.990728 0.735280 0.891835
O O7 0.013967 0.519782 0.057893
O O8 0.596305 0.488156 0.260037
O O9 0.383979 0.740169 0.324991
O O10 0.000000 0.720544 0.250000
#
# Coordination Sequence:
#
# PCOD9281649 Si02
#       5
#     8   8   4   8   8
#     4  10  21  38  63  93 118 159 213 256 316 381
#     4   9  21  43  62  87 127 163 206 262 313 379
#     4  10  22  38  58  92 122 158 204 256 320 372
#     4  10  24  39  61  94 124 161 213 259 312 380
#     4   9  21  40  63  87 124 166 202 259 327 368
#
# _framework density 25.171413999999999
#
# number of rings (size 3 to 8) (size 9 to 14) (size 15 to 20)
#    2.000    0.444    0.000    1.333    1.556    6.222 
#    0.000    0.000    0.000    0.000    0.000    0.000 
#    0.000    0.000    0.000    0.000    0.000    0.000 
#
# Total GULP energy -100310.992474 kJ/mol
# GULP energy per Si atom -5572.832915 kJ/mol
# Density = 2.511412 g / cm^3
# Si number density = 25.171414 Si / 1000 Ang^3
#
#
#
# Elastic Constant Matrix: (Units=GPa)
#
#
# Indices 1 2 3 4 5 6 
#
# 1 73.1563 8.5834 14.1620 0.0000 2.2161 0.0000
# 2 8.5834 130.3421 84.9638 0.0000 10.6192 0.0000
# 3 14.1620 84.9638 213.8122 0.0000 12.9038 0.0000
# 4 0.0000 0.0000 0.0000 66.1097 0.0000 -1.7015
# 5 2.2161 10.6192 12.9038 0.0000 16.6415 0.0000
# 6 0.0000 0.0000 0.0000 -1.7015 0.0000 28.6832
#
#
#
# Elastic Compliance Matrix: (Units=1/GPa)
#
#
# Indices 1 2 3 4 5 6 
#
# 1 0.013882 -0.000364 -0.000710 0.000000 -0.001065 0.000000
# 2 -0.000364 0.010572 -0.003958 0.000000 -0.003629 0.000000
# 3 -0.000710 -0.003958 0.006440 0.000000 -0.002373 0.000000
# 4 0.000000 0.000000 0.000000 0.015149 0.000000 0.000899
# 5 -0.001065 -0.003629 -0.002373 0.000000 0.064388 0.000000
# 6 0.000000 0.000000 0.000000 0.000899 0.000000 0.034917
#
#
# Mechanical properties :
#
#
# Convention : Reuss Voigt Hill
#
# Bulk Modulus (GPa) = 48.01100 70.30322 59.15711
# Shear Modulus (GPa) = 30.79648 42.92697 36.86173
#
# Velocity S-wave (km/s) = 3.50161 4.13411 3.83094
# Velocity P-wave (km/s) = 5.95511 7.12589 6.56664
#
# Compressibility (1/GPa) = 0.02082856
#
# Stress axis : x y z
#
# Youngs Moduli (GPa) = 72.03626 94.59271 155.27873
#
# Poissons Ratio (x) = 0.03446 0.11031
# Poissons Ratio (y) = 0.02624 0.61456
# Poissons Ratio (z) = 0.05118 0.37438
#
# Static dielectric constant tensor:
#      x y z
#    x 2.181900 0.000000 0.056040 
#    y 0.000000 2.020760 0.000000 
#    z 0.056040 0.000000 2.003790 
# 
# From -- ./inp_files/272438.got.cif
#   From: 2010.05.17/outbox.cif.g08.bks.cpg/sg15_137_cif.got.tgz:272438.got - 2010.06.03 18:47:42.
