data_PCOD9281744
_publ_section_title
;
Structure prediction by ZEFSAII (Michael W. Deem and Ramdas Pophale) SiO2 
 PCOD9281744
Probable space group: C 2/C
;
_chemical_formula_sum "Si O2"
_cell_formula_units_Z 40
_cell_length_a 14.380934
_cell_length_b 11.533930
_cell_length_c 12.493381
_cell_angle_alpha 90.000000
_cell_angle_beta 82.279446
_cell_angle_gamma 90.000000
_cell_volume 2053.475794
_symmetry_space_group_name_H-M "C 2/C"
_symmetry_group_IT_number 15
_symmetry_cell_setting 'monoclinic'
loop_
_space_group_symop_operation_xyz
x,y,z
-x,y,1/2-z
-x,-y,-z
x,-y,1/2+z
1/2+x,1/2+y,z
1/2-x,1/2+y,1/2-z
1/2-x,1/2-y,-z
1/2+x,1/2-y,1/2+z
loop_
_atom_site_type_symbol
_atom_site_label
_atom_site_fract_x
_atom_site_fract_y
_atom_site_fract_z
Si Si1 0.100979 0.774115 0.294012
Si Si2 0.643413 0.514834 0.943077
Si Si3 0.481470 0.645960 0.379054
Si Si4 0.196958 0.664821 0.086239
Si Si5 0.494269 0.135583 0.016080
O O1 0.130600 0.889147 0.352693
O O2 0.180163 0.726058 0.202740
O O3 0.000000 0.795579 0.250000
O O4 0.081710 0.675900 0.385414
O O5 0.568444 0.413520 0.928356
O O6 0.745060 0.455090 0.923548
O O7 0.608981 0.576897 0.058745
O O8 0.500000 0.634219 0.250000
O O9 0.478669 0.779932 0.417142
O O10 0.094055 0.658889 0.053967
O O11 0.250000 0.750000 0.000000
O O12 0.500000 0.000000 0.000000
#
# Coordination Sequence:
#
# PCOD9281744 Si02
#       5
#     8   8   8   8   8
#     4   9  21  40  63  85 121 164 200 244 307 359
#     4  10  21  39  63  93 119 156 204 254 297 355
#     4  10  21  38  64  91 120 161 203 246 302 359
#     4  11  22  39  61  93 118 158 204 247 299 362
#     4  10  22  43  60  85 126 164 196 243 311 365
#
# _framework density 19.479167
#
# number of rings (size 3 to 8) (size 9 to 14) (size 15 to 20)
#    0.000    2.000    2.000    0.600    5.600    4.000 
#    3.600    2.000    0.000    0.000    0.000    0.000 
#    0.000    0.000    0.000    0.000    0.000    0.000 
#
# Total GULP energy -111536.607332 kJ/mol
# GULP energy per Si atom -5576.830367 kJ/mol
# Density = 1.943483 g / cm^3
# Si number density = 19.479167 Si / 1000 Ang^3
#
#
#
# Elastic Constant Matrix: (Units=GPa)
#
#
# Indices 1 2 3 4 5 6 
#
# 1 29.3007 16.3035 35.6344 0.0000 -19.7510 0.0000
# 2 16.3035 145.1419 75.4569 0.0000 -11.9638 0.0000
# 3 35.6344 75.4569 165.1932 0.0000 -20.9392 0.0000
# 4 0.0000 0.0000 0.0000 18.5192 0.0000 -2.0818
# 5 -19.7510 -11.9638 -20.9392 0.0000 27.1050 0.0000
# 6 0.0000 0.0000 0.0000 -2.0818 0.0000 39.4139
#
#
#
# Elastic Compliance Matrix: (Units=1/GPa)
#
#
# Indices 1 2 3 4 5 6 
#
# 1 0.082626 0.001099 -0.011786 0.000000 0.051588 0.000000
# 2 0.001099 0.009069 -0.004180 0.000000 0.001574 0.000000
# 3 -0.011786 -0.004180 0.010180 0.000000 -0.002570 0.000000
# 4 0.000000 0.000000 0.000000 0.054321 0.000000 0.002869
# 5 0.051588 0.001574 -0.002570 0.000000 0.073195 0.000000
# 6 0.000000 0.000000 0.000000 0.002869 0.000000 0.025523
#
#
# Mechanical properties :
#
#
# Convention : Reuss Voigt Hill
#
# Bulk Modulus (GPa) = 13.86203 66.04727 39.95465
# Shear Modulus (GPa) = 16.19715 31.15700 23.67708
#
# Velocity S-wave (km/s) = 2.88672 4.00372 3.49020
# Velocity P-wave (km/s) = 4.27114 7.43998 6.06613
#
# Compressibility (1/GPa) = 0.07213952
#
# Stress axis : x y z
#
# Youngs Moduli (GPa) = 12.10271 110.26141 98.23492
#
# Poissons Ratio (x) = -0.12114 1.15783
# Poissons Ratio (y) = -0.01330 0.41063
# Poissons Ratio (z) = 0.14265 0.46091
#
# Static dielectric constant tensor:
#      x y z
#    x 1.650150 0.000000 0.006940 
#    y 0.000000 1.711520 0.000000 
#    z 0.006940 0.000000 1.726490 
# 
# From -- ./inp_files/94659.got.cif
#   From: 2010.05.17/outbox.cif.g08.bks.cpg/sg15_48_cif.got.tgz:94659.got - 2010.06.03 18:47:42.
