data_PCOD9281111
_publ_section_title
;
Structure prediction by ZEFSAII (Michael W. Deem and Ramdas Pophale) SiO2 
 PCOD9281111
Probable space group: C 2/C
;
_chemical_formula_sum "Si O2"
_cell_formula_units_Z 56
_cell_length_a 25.284492
_cell_length_b 23.031005
_cell_length_c 5.281445
_cell_angle_alpha 90.000000
_cell_angle_beta 60.408957
_cell_angle_gamma 90.000000
_cell_volume 2674.394675
_symmetry_space_group_name_H-M "C 2/C"
_symmetry_group_IT_number 15
_symmetry_cell_setting 'monoclinic'
loop_
_space_group_symop_operation_xyz
x,y,z
-x,y,1/2-z
-x,-y,-z
x,-y,1/2+z
1/2+x,1/2+y,z
1/2-x,1/2+y,1/2-z
1/2-x,1/2-y,-z
1/2+x,1/2-y,1/2+z
loop_
_atom_site_type_symbol
_atom_site_label
_atom_site_fract_x
_atom_site_fract_y
_atom_site_fract_z
Si Si1 0.268733 0.980553 0.632074
Si Si2 0.936914 0.645658 0.030393
Si Si3 0.406906 0.027461 0.354709
Si Si4 0.827557 0.814782 0.296941
Si Si5 0.652074 0.788073 0.089192
Si Si6 0.238453 0.146363 0.031270
Si Si7 0.935721 0.769708 0.309237
O O1 0.265963 0.916157 0.529691
O O2 0.238990 0.018287 0.479433
O O3 0.335891 0.007095 0.527256
O O4 0.914852 0.594426 0.264794
O O5 0.946526 0.707394 0.146636
O O6 0.885610 0.659109 0.942433
O O7 0.000000 0.629093 0.750000
O O8 0.433250 0.010578 0.562536
O O9 0.793199 0.831751 0.635191
O O10 0.898372 0.811930 0.212860
O O11 0.819440 0.749295 0.206734
O O12 0.804766 0.852302 0.111414
O O13 0.606734 0.747046 0.352239
O O14 0.704561 0.811094 0.146658
O O15 0.000000 0.792673 0.250000
#
# Coordination Sequence:
#
# PCOD9281111 Si02
#       7
#     8   8   8   8   8   8   8
#     4  10  21  38  58  86 120 163 205 257 319 364
#     4  11  24  38  61  89 124 177 229 264 310 365
#     4  10  23  39  57  81 115 159 223 272 315 348
#     4  11  25  41  62  94 124 165 209 262 321 387
#     4  11  23  39  62  90 129 169 209 265 315 379
#     4  12  24  39  64  91 128 164 216 260 322 385
#     4  11  24  42  65  91 131 167 215 259 315 378
#
# _framework density 20.939316999999999
#
# number of rings (size 3 to 8) (size 9 to 14) (size 15 to 20)
#    0.000    1.143    2.857    3.429   10.000    0.571 
#    0.000    0.000    0.000    0.000    0.000    0.000 
#    0.000   11.429    0.000    0.000    0.000    0.000 
#
# Total GULP energy -156461.306114 kJ/mol
# GULP energy per Si atom -5587.903790 kJ/mol
# Density = 2.089166 g / cm^3
# Si number density = 20.939317 Si / 1000 Ang^3
#
#
#
# Elastic Constant Matrix: (Units=GPa)
#
#
# Indices 1 2 3 4 5 6 
#
# 1 134.3029 35.4427 44.1920 0.0000 9.9779 0.0000
# 2 35.4427 59.2796 21.3477 0.0000 -11.4600 0.0000
# 3 44.1920 21.3477 94.2678 0.0000 18.9995 0.0000
# 4 0.0000 0.0000 0.0000 31.5652 0.0000 6.8736
# 5 9.9779 -11.4600 18.9995 0.0000 31.8605 0.0000
# 6 0.0000 0.0000 0.0000 6.8736 0.0000 16.3159
#
#
#
# Elastic Compliance Matrix: (Units=1/GPa)
#
#
# Indices 1 2 3 4 5 6 
#
# 1 0.010135 -0.005789 -0.002706 0.000000 -0.003643 0.000000
# 2 -0.005789 0.025246 -0.005909 0.000000 0.014417 0.000000
# 3 -0.002706 -0.005909 0.015313 0.000000 -0.010409 0.000000
# 4 0.000000 0.000000 0.000000 0.034880 0.000000 -0.014694
# 5 -0.003643 0.014417 -0.010409 0.000000 0.043921 0.000000
# 6 0.000000 0.000000 0.000000 -0.014694 0.000000 0.067481
#
#
# Mechanical properties :
#
#
# Convention : Reuss Voigt Hill
#
# Bulk Modulus (GPa) = 45.69344 54.42389 50.05867
# Shear Modulus (GPa) = 21.45209 28.40619 24.92914
#
# Velocity S-wave (km/s) = 3.20424 3.68720 3.45417
# Velocity P-wave (km/s) = 5.96311 6.64642 6.31402
#
# Compressibility (1/GPa) = 0.02188498
#
# Stress axis : x y z
#
# Youngs Moduli (GPa) = 98.67188 39.61087 65.30532
#
# Poissons Ratio (x) = 0.22931 0.17671
# Poissons Ratio (y) = 0.57123 0.38589
# Poissons Ratio (z) = 0.26699 0.23406
#
# Static dielectric constant tensor:
#      x y z
#    x 1.810360 0.000000 0.003360 
#    y 0.000000 1.763900 0.000000 
#    z 0.003360 0.000000 1.888930 
# 
# From -- ./inp_files/16107.got.cif
#   From: 2010.05.17/outbox.cif.g08.bks.cpg/sg15_9_cif.got.tgz:16107.got - 2010.06.03 18:47:42.
