data_PCOD9281266
_publ_section_title
;
Structure prediction by ZEFSAII (Michael W. Deem and Ramdas Pophale) SiO2 
 PCOD9281266
Probable space group: C 2/C
;
_chemical_formula_sum "Si O2"
_cell_formula_units_Z 40
_cell_length_a 27.601308
_cell_length_b 6.323206
_cell_length_c 23.489838
_cell_angle_alpha 90.000000
_cell_angle_beta 150.083697
_cell_angle_gamma 90.000000
_cell_volume 2044.637534
_symmetry_space_group_name_H-M "C 2/C"
_symmetry_group_IT_number 15
_symmetry_cell_setting 'monoclinic'
loop_
_space_group_symop_operation_xyz
x,y,z
-x,y,1/2-z
-x,-y,-z
x,-y,1/2+z
1/2+x,1/2+y,z
1/2-x,1/2+y,1/2-z
1/2-x,1/2-y,-z
1/2+x,1/2-y,1/2+z
loop_
_atom_site_type_symbol
_atom_site_label
_atom_site_fract_x
_atom_site_fract_y
_atom_site_fract_z
Si Si1 0.761642 0.257979 0.830908
Si Si2 0.900984 0.661290 0.679557
Si Si3 0.756589 0.497690 0.939883
Si Si4 0.150926 0.623306 0.275606
Si Si5 0.397847 0.585950 0.874991
O O1 0.793013 0.383874 0.919325
O O2 0.675667 0.395282 0.715149
O O3 0.846330 0.219912 0.872206
O O4 0.717777 0.036283 0.807622
O O5 0.837867 0.524520 0.570526
O O6 0.835500 0.860650 0.631598
O O7 0.914548 0.518178 0.749455
O O8 0.000000 0.724535 0.750000
O O9 0.719670 0.727556 0.884197
O O10 0.094665 0.772520 0.174239
O O11 0.500000 0.500000 0.000000
#
# Coordination Sequence:
#
# PCOD9281266 Si02
#       5
#     8   8   8   8   8
#     4  10  21  40  59  87 124 158 205 257 306 368
#     4  10  21  38  60  89 120 157 206 253 305 368
#     4   9  21  38  60  85 120 159 200 256 307 359
#     4  10  21  39  60  87 123 160 203 252 312 361
#     4  11  23  39  62  90 123 164 206 252 309 371
#
# _framework density 19.563371
#
# number of rings (size 3 to 8) (size 9 to 14) (size 15 to 20)
#    0.000    2.000    2.000    0.600    0.000    8.000 
#    0.000    0.000    0.000    0.000    0.000    0.000 
#    0.000    0.000    0.000    0.000    0.000    0.000 
#
# Total GULP energy -111717.213885 kJ/mol
# GULP energy per Si atom -5585.860694 kJ/mol
# Density = 1.951884 g / cm^3
# Si number density = 19.563371 Si / 1000 Ang^3
#
#
#
# Elastic Constant Matrix: (Units=GPa)
#
#
# Indices 1 2 3 4 5 6 
#
# 1 115.8046 16.4774 51.9284 0.0000 0.7922 0.0000
# 2 16.4774 41.1465 6.7242 -0.0003 1.4145 0.0001
# 3 51.9284 6.7242 66.6732 -0.0001 -0.9723 0.0000
# 4 0.0000 -0.0003 -0.0001 3.9486 0.0000 -6.6122
# 5 0.7922 1.4145 -0.9723 0.0000 19.7579 0.0000
# 6 0.0000 0.0001 0.0000 -6.6122 0.0000 26.0064
#
#
#
# Elastic Compliance Matrix: (Units=1/GPa)
#
#
# Indices 1 2 3 4 5 6 
#
# 1 0.013856 -0.003819 -0.010418 -0.000001 -0.000795 0.000000
# 2 -0.003819 0.025834 0.000344 0.000003 -0.001679 0.000001
# 3 -0.010418 0.000344 0.023100 0.000001 0.001530 0.000000
# 4 -0.000001 0.000003 0.000001 0.441031 0.000000 0.112134
# 5 -0.000795 -0.001679 0.001530 0.000000 0.050840 0.000000
# 6 0.000000 0.000001 0.000000 0.112134 0.000000 0.066963
#
#
# Mechanical properties :
#
#
# Convention : Reuss Voigt Hill
#
# Bulk Modulus (GPa) = 28.56727 41.54270 35.05499
# Shear Modulus (GPa) = 7.56342 19.84219 13.70281
#
# Velocity S-wave (km/s) = 1.96838 3.18819 2.64944
# Velocity P-wave (km/s) = 4.44973 5.90201 5.22656
#
# Compressibility (1/GPa) = 0.03500509
#
# Stress axis : x y z
#
# Youngs Moduli (GPa) = 72.17329 38.70857 43.28990
#
# Poissons Ratio (x) = 0.14782 0.45099
# Poissons Ratio (y) = 0.27561 -0.01490
# Poissons Ratio (z) = 0.75189 -0.01333
#
# Static dielectric constant tensor:
#      x y z
#    x 1.687410 0.000000 -0.031540 
#    y 0.000000 1.685820 0.000000 
#    z -0.031540 0.000000 1.646570 
# 
# From -- ./inp_files/124942.got.cif
#   From: 2010.05.17/outbox.cif.g08.bks.cpg/sg15_63_cif.got.tgz:124942.got - 2010.06.03 18:47:42.
