data_PCOD9281367
_publ_section_title
;
Structure prediction by ZEFSAII (Michael W. Deem and Ramdas Pophale) SiO2 
 PCOD9281367
Probable space group: C 2/C
;
_chemical_formula_sum "Si O2"
_cell_formula_units_Z 48
_cell_length_a 13.752948
_cell_length_b 12.254402
_cell_length_c 24.463719
_cell_angle_alpha 90.000000
_cell_angle_beta 33.281016
_cell_angle_gamma 90.000000
_cell_volume 2262.463898
_symmetry_space_group_name_H-M "C 2/C"
_symmetry_group_IT_number 15
_symmetry_cell_setting 'monoclinic'
loop_
_space_group_symop_operation_xyz
x,y,z
-x,y,1/2-z
-x,-y,-z
x,-y,1/2+z
1/2+x,1/2+y,z
1/2-x,1/2+y,1/2-z
1/2-x,1/2-y,-z
1/2+x,1/2-y,1/2+z
loop_
_atom_site_type_symbol
_atom_site_label
_atom_site_fract_x
_atom_site_fract_y
_atom_site_fract_z
Si Si1 0.935931 0.015153 0.626135
Si Si2 0.118313 0.183608 0.102376
Si Si3 0.311388 0.809618 0.203028
Si Si4 0.351488 0.722225 0.007059
Si Si5 0.826587 0.638100 0.308024
Si Si6 0.555314 0.875650 0.984247
O O1 0.795843 0.084935 0.727588
O O2 0.062742 0.104262 0.540354
O O3 0.826410 0.947375 0.633153
O O4 0.048315 0.927732 0.607605
O O5 0.942268 0.259254 0.187636
O O6 0.250000 0.250000 0.000000
O O7 0.240890 0.149419 0.095763
O O8 0.177128 0.715920 0.243727
O O9 0.438627 0.837196 0.091655
O O10 0.217448 0.716420 0.120583
O O11 0.499098 0.807080 0.957546
O O12 0.250000 0.750000 0.000000
O O13 0.000000 0.579694 0.250000
O O14 0.500000 0.000000 0.000000
#
# Coordination Sequence:
#
# PCOD9281367 Si02
#       6
#     8   8   8   8   8   8
#     4  11  22  38  63  90 118 158 204 257 314 378
#     4   9  20  40  61  84 121 160 198 255 318 374
#     4   9  21  39  58  86 120 154 197 252 314 370
#     4  11  23  39  60  86 120 162 206 247 302 374
#     4  10  22  38  58  86 119 154 196 249 303 364
#     4  10  21  38  61  88 119 160 206 254 311 376
#
# _framework density 21.215807999999999
#
# number of rings (size 3 to 8) (size 9 to 14) (size 15 to 20)
#    0.000    2.000    0.000    3.500    0.000    9.333 
#    0.000    1.667    0.000    0.000    0.000    0.000 
#    0.000    0.000    0.000    0.000    0.000    0.000 
#
# Total GULP energy -133880.510722 kJ/mol
# GULP energy per Si atom -5578.354613 kJ/mol
# Density = 2.116752 g / cm^3
# Si number density = 21.215808 Si / 1000 Ang^3
#
#
#
# Elastic Constant Matrix: (Units=GPa)
#
#
# Indices 1 2 3 4 5 6 
#
# 1 204.6940 66.2351 33.4453 -0.0001 -37.7624 0.0000
# 2 66.2351 121.1826 6.2871 -0.0001 -18.6754 0.0000
# 3 33.4453 6.2871 34.8066 -0.0004 -8.8810 0.0000
# 4 -0.0001 -0.0001 -0.0004 44.5491 0.0000 -7.1970
# 5 -37.7624 -18.6754 -8.8810 0.0000 33.8625 0.0000
# 6 0.0000 0.0000 0.0000 -7.1970 0.0000 21.7428
#
#
#
# Elastic Compliance Matrix: (Units=1/GPa)
#
#
# Indices 1 2 3 4 5 6 
#
# 1 0.007829 -0.003137 -0.005541 0.000000 0.005548 0.000000
# 2 -0.003137 0.010280 0.001834 0.000000 0.002653 0.000000
# 3 -0.005541 0.001834 0.034729 0.000000 0.003941 0.000000
# 4 0.000000 0.000000 0.000000 0.023715 0.000000 0.007850
# 5 0.005548 0.002653 0.003941 0.000000 0.038214 0.000000
# 6 0.000000 0.000000 0.000000 0.007850 0.000000 0.048591
#
#
# Mechanical properties :
#
#
# Convention : Reuss Voigt Hill
#
# Bulk Modulus (GPa) = 25.54243 63.62425 44.58334
# Shear Modulus (GPa) = 26.30261 37.01193 31.65727
#
# Velocity S-wave (km/s) = 3.52485 4.18131 3.86703
# Velocity P-wave (km/s) = 5.35085 7.30515 6.40300
#
# Compressibility (1/GPa) = 0.03915055
#
# Stress axis : x y z
#
# Youngs Moduli (GPa) = 127.72847 97.27527 28.79477
#
# Poissons Ratio (x) = 0.30513 0.15955
# Poissons Ratio (y) = 0.40065 -0.05281
# Poissons Ratio (z) = 0.70772 -0.17840
#
# Static dielectric constant tensor:
#      x y z
#    x 2.384790 0.000000 -0.144160 
#    y 0.000000 1.747040 0.000000 
#    z -0.144160 0.000000 1.870260 
# 
# From -- ./inp_files/296036.got.cif
#   From: 2010.05.17/outbox.cif.g08.bks.cpg/sg15_149_cif.got.tgz:296036.got - 2010.06.03 18:47:42.
