data_PCOD9281692
_publ_section_title
;
Structure prediction by ZEFSAII (Michael W. Deem and Ramdas Pophale) SiO2 
 PCOD9281692
Probable space group: C 2/C
;
_chemical_formula_sum "Si O2"
_cell_formula_units_Z 60
_cell_length_a 18.789061
_cell_length_b 23.656688
_cell_length_c 14.646734
_cell_angle_alpha 90.000000
_cell_angle_beta 151.905780
_cell_angle_gamma 90.000000
_cell_volume 3065.840898
_symmetry_space_group_name_H-M "C 2/C"
_symmetry_group_IT_number 15
_symmetry_cell_setting 'monoclinic'
loop_
_space_group_symop_operation_xyz
x,y,z
-x,y,1/2-z
-x,-y,-z
x,-y,1/2+z
1/2+x,1/2+y,z
1/2-x,1/2+y,1/2-z
1/2-x,1/2-y,-z
1/2+x,1/2-y,1/2+z
loop_
_atom_site_type_symbol
_atom_site_label
_atom_site_fract_x
_atom_site_fract_y
_atom_site_fract_z
Si Si1 0.299973 0.449999 0.839880
Si Si2 0.678344 0.472286 0.432018
Si Si3 0.245368 0.665155 0.179502
Si Si4 0.336976 0.439800 0.274614
Si Si5 0.452308 0.759787 0.375626
Si Si6 0.000000 0.789076 0.750000
Si Si7 0.171150 0.411426 0.424228
Si Si8 0.731096 0.645513 0.642302
O O1 0.240892 0.390083 0.737422
O O2 0.261979 0.504308 0.734876
O O3 0.251645 0.460131 0.889789
O O4 0.482873 0.447719 0.036318
O O5 0.500000 0.468406 0.250000
O O6 0.722592 0.433129 0.396335
O O7 0.716172 0.535773 0.442271
O O8 0.404115 0.699329 0.363190
O O9 0.217809 0.638253 0.047451
O O10 0.116003 0.710881 0.057983
O O11 0.317556 0.390895 0.326741
O O12 0.413895 0.750863 0.224514
O O13 0.341197 0.804445 0.295187
O O14 0.900407 0.827540 0.569933
O O15 0.177964 0.391497 0.327847
O O16 0.000000 0.428953 0.250000
#
# Coordination Sequence:
#
# PCOD9281692 Si02
#       8
#     8   8   8   8   8   4   8   8
#     4  10  21  38  65  93 123 159 211 259 312 365
#     4  10  22  42  65  91 123 163 211 252 305 378
#     4  12  24  41  59  92 129 169 210 256 307 379
#     4  10  21  38  63  97 121 162 206 256 313 378
#     4  12  24  38  57  87 131 165 209 251 310 373
#     4  12  22  36  60  92 126 168 208 254 306 376
#     4  12  23  36  57  93 135 166 194 249 317 376
#     4  12  23  35  59  92 129 164 205 253 312 374
#
# _framework density 19.570485999999999
#
# number of rings (size 3 to 8) (size 9 to 14) (size 15 to 20)
#    0.000    0.800    6.667    2.000    0.933    0.000 
#    2.400    2.000    0.000    0.800    3.467    0.000 
#    0.000    0.000    0.000    0.000    0.000    0.000 
#
# Total GULP energy -167311.017806 kJ/mol
# GULP energy per Si atom -5577.033927 kJ/mol
# Density = 1.952594 g / cm^3
# Si number density = 19.570486 Si / 1000 Ang^3
#
#
#
# Elastic Constant Matrix: (Units=GPa)
#
#
# Indices 1 2 3 4 5 6 
#
# 1 126.9875 51.8109 35.5283 0.0000 -17.3864 0.0000
# 2 51.8109 100.9319 27.1506 0.0000 -6.2139 0.0000
# 3 35.5283 27.1506 28.0139 0.0000 -6.3243 0.0000
# 4 0.0000 0.0000 0.0000 30.0429 0.0000 0.8703
# 5 -17.3864 -6.2139 -6.3243 0.0000 19.4098 0.0000
# 6 0.0000 0.0000 0.0000 0.8703 0.0000 35.2479
#
#
#
# Elastic Compliance Matrix: (Units=1/GPa)
#
#
# Indices 1 2 3 4 5 6 
#
# 1 0.013694 -0.003181 -0.012677 0.000000 0.007117 0.000000
# 2 -0.003181 0.014141 -0.010029 0.000000 -0.001590 0.000000
# 3 -0.012677 -0.010029 0.062828 0.000000 0.005905 0.000000
# 4 0.000000 0.000000 0.000000 0.033310 0.000000 -0.000822
# 5 0.007117 -0.001590 0.005905 0.000000 0.059311 0.000000
# 6 0.000000 0.000000 0.000000 -0.000822 0.000000 0.028391
#
#
# Mechanical properties :
#
#
# Convention : Reuss Voigt Hill
#
# Bulk Modulus (GPa) = 25.71580 53.87922 39.79751
# Shear Modulus (GPa) = 18.08894 26.36968 22.22931
#
# Velocity S-wave (km/s) = 3.04352 3.67471 3.37391
# Velocity P-wave (km/s) = 5.05167 6.75242 5.96299
#
# Compressibility (1/GPa) = 0.03888660
#
# Stress axis : x y z
#
# Youngs Moduli (GPa) = 73.02458 70.71834 15.91646
#
# Poissons Ratio (x) = 0.22496 0.20178
# Poissons Ratio (y) = 0.23230 0.15963
# Poissons Ratio (z) = 0.92577 0.70927
#
# Static dielectric constant tensor:
#      x y z
#    x 1.710890 0.000000 0.026830 
#    y 0.000000 1.726160 0.000000 
#    z 0.026830 0.000000 1.729470 
# 
# From -- ./inp_files/164116.got.cif
#   From: 2010.05.17/outbox.cif.g08.bks.cpg/sg15_83_cif.got.tgz:164116.got - 2010.06.03 18:47:42.
