data_PCOD9281264
_publ_section_title
;
Structure prediction by ZEFSAII (Michael W. Deem and Ramdas Pophale) SiO2 
 PCOD9281264
Probable space group: C 2/C
;
_chemical_formula_sum "Si O2"
_cell_formula_units_Z 64
_cell_length_a 10.202164
_cell_length_b 28.399768
_cell_length_c 28.605539
_cell_angle_alpha 90.000000
_cell_angle_beta 153.546390
_cell_angle_gamma 90.000000
_cell_volume 3692.144493
_symmetry_space_group_name_H-M "C 2/C"
_symmetry_group_IT_number 15
_symmetry_cell_setting 'monoclinic'
loop_
_space_group_symop_operation_xyz
x,y,z
-x,y,1/2-z
-x,-y,-z
x,-y,1/2+z
1/2+x,1/2+y,z
1/2-x,1/2+y,1/2-z
1/2-x,1/2-y,-z
1/2+x,1/2-y,1/2+z
loop_
_atom_site_type_symbol
_atom_site_label
_atom_site_fract_x
_atom_site_fract_y
_atom_site_fract_z
Si Si1 0.789786 0.499991 0.560840
Si Si2 0.679010 0.570540 0.758771
Si Si3 0.321027 0.429462 0.741245
Si Si4 0.829287 0.000011 0.585605
Si Si5 0.863370 0.181808 0.758033
Si Si6 0.363503 0.681805 0.258082
Si Si7 0.695468 0.752502 0.427341
Si Si8 0.804677 0.252498 0.572704
O O1 0.500000 0.500000 0.500000
O O2 0.685094 0.499991 0.474209
O O3 0.005126 0.544959 0.637325
O O4 0.005079 0.455017 0.637309
O O5 0.500000 0.561633 0.750000
O O6 0.498835 0.544889 0.660480
O O7 0.686248 0.626220 0.753224
O O8 0.500000 0.438369 0.750000
O O9 0.501096 0.455140 0.839496
O O10 0.313979 0.373784 0.746868
O O11 0.500000 0.000000 0.500000
O O12 0.556216 0.209247 0.662793
O O13 0.000000 0.190720 0.750000
O O14 0.076163 0.204306 0.865261
O O15 0.500000 0.690711 0.250000
O O16 0.576331 0.704311 0.365310
O O17 0.056368 0.709251 0.162841
O O18 0.750000 0.750000 0.500000
O O19 0.000094 0.765095 0.500036
O O20 0.750000 0.250000 0.500000
#
# Coordination Sequence:
#
# PCOD9281264 Si02
#       8
#     8   8   8   8   8   8   8   8
#     4  11  23  39  59  87 125 151 187 241 294 340
#     4  10  21  38  60  89 116 150 201 239 278 348
#     4  10  21  38  60  89 116 150 201 239 278 348
#     4  11  19  37  63  86 111 157 191 236 287 337
#     4  10  22  38  60  88 117 152 198 244 286 345
#     4  10  22  38  60  88 117 152 198 244 286 345
#     4  11  22  39  59  85 117 154 192 241 295 343
#     4  11  22  39  59  85 117 154 192 241 295 343
#
# _framework density 17.334099999999999
#
# number of rings (size 3 to 8) (size 9 to 14) (size 15 to 20)
#    0.000    1.500    5.000    0.750    0.000    6.000 
#    0.000    2.500    0.000    0.000    0.000    0.000 
#    0.000    0.000    0.000    0.000    0.000    0.000 
#
# Total GULP energy -178644.282566 kJ/mol
# GULP energy per Si atom -5582.633830 kJ/mol
# Density = 1.729465 g / cm^3
# Si number density = 17.334100 Si / 1000 Ang^3
#
#
#
# Elastic Constant Matrix: (Units=GPa)
#
#
# Indices 1 2 3 4 5 6 
#
# 1 154.2250 60.7704 85.3140 -0.0029 4.9553 -0.0055
# 2 60.7704 136.1746 64.8678 0.0011 4.3913 0.0008
# 3 85.3140 64.8678 140.7049 0.0164 -5.4353 0.0018
# 4 -0.0029 0.0011 0.0164 7.9224 0.0004 -1.4818
# 5 4.9553 4.3913 -5.4353 0.0004 47.3201 -0.0034
# 6 -0.0055 0.0008 0.0018 -1.4818 -0.0034 20.0646
#
#
#
# Elastic Compliance Matrix: (Units=1/GPa)
#
#
# Indices 1 2 3 4 5 6 
#
# 1 0.010292 -0.001978 -0.005387 0.000016 -0.001513 0.000004
# 2 -0.001978 0.009881 -0.003398 0.000005 -0.001100 0.000000
# 3 -0.005387 -0.003398 0.012027 -0.000027 0.002261 -0.000004
# 4 0.000016 0.000005 -0.000027 0.127993 -0.000006 0.009452
# 5 -0.001513 -0.001100 0.002261 -0.000006 0.021653 0.000003
# 6 0.000004 0.000000 -0.000004 0.009452 0.000003 0.050537
#
#
# Mechanical properties :
#
#
# Convention : Reuss Voigt Hill
#
# Bulk Modulus (GPa) = 93.69082 94.77876 94.23479
# Shear Modulus (GPa) = 19.42000 29.73825 24.57912
#
# Velocity S-wave (km/s) = 3.35077 4.14646 3.76967
# Velocity P-wave (km/s) = 8.31490 8.81593 8.56908
#
# Compressibility (1/GPa) = 0.01067340
#
# Stress axis : x y z
#
# Youngs Moduli (GPa) = 97.16292 101.20912 83.14422
#
# Poissons Ratio (x) = 0.20020 0.44789
# Poissons Ratio (y) = 0.19220 0.28254
# Poissons Ratio (z) = 0.52340 0.34393
#
# Static dielectric constant tensor:
#      x y z
#    x 1.536020 0.000000 -0.018640 
#    y 0.000000 1.575180 0.000000 
#    z -0.018640 0.000000 1.574280 
# 
# From -- ./inp_files/240990.got.cif
#   From: 2010.05.17/outbox.cif.g08.bks.cpg/sg15_121_cif.got.tgz:240990.got - 2010.06.03 18:47:42.
