data_PCOD9281921
_publ_section_title
;
Structure prediction by ZEFSAII (Michael W. Deem and Ramdas Pophale) SiO2 
 PCOD9281921
Probable space group: C 2/C
;
_chemical_formula_sum "Si O2"
_cell_formula_units_Z 52
_cell_length_a 12.498791
_cell_length_b 23.971635
_cell_length_c 15.046959
_cell_angle_alpha 90.000000
_cell_angle_beta 145.578311
_cell_angle_gamma 90.000000
_cell_volume 2548.458033
_symmetry_space_group_name_H-M "C 2/C"
_symmetry_group_IT_number 15
_symmetry_cell_setting 'monoclinic'
loop_
_space_group_symop_operation_xyz
x,y,z
-x,y,1/2-z
-x,-y,-z
x,-y,1/2+z
1/2+x,1/2+y,z
1/2-x,1/2+y,1/2-z
1/2-x,1/2-y,-z
1/2+x,1/2-y,1/2+z
loop_
_atom_site_type_symbol
_atom_site_label
_atom_site_fract_x
_atom_site_fract_y
_atom_site_fract_z
Si Si1 0.283075 0.702054 0.123465
Si Si2 0.722061 0.826263 0.398619
Si Si3 0.603979 0.121546 0.131256
Si Si4 0.350789 0.917427 0.291852
Si Si5 0.715458 0.988355 0.480707
Si Si6 0.500000 0.910112 0.750000
Si Si7 0.129677 0.017183 0.215015
O O1 0.500000 0.710713 0.250000
O O2 0.190589 0.763963 0.053629
O O3 0.218692 0.673560 0.169461
O O4 0.249291 0.657712 0.020307
O O5 0.500000 0.818186 0.250000
O O6 0.742865 0.869785 0.333841
O O7 0.541108 0.126066 0.190225
O O8 0.746592 0.069433 0.230189
O O9 0.440728 0.107185 0.945674
O O10 0.527070 0.949970 0.363993
O O11 0.191834 0.963419 0.202505
O O12 0.658132 0.045875 0.393424
O O13 0.789933 0.996977 0.631734
O O14 0.908250 0.967977 0.565837
#
# Coordination Sequence:
#
# PCOD9281921 Si02
#       7
#     8   8   8   8   8   4   8
#     4  10  23  40  60  98 125 149 209 275 329 373
#     4  10  21  38  66  91 120 164 203 265 331 383
#     4  11  22  37  60  87 135 168 211 264 315 373
#     4  11  20  39  64  94 127 174 209 259 323 382
#     4  10  22  36  59  87 132 161 220 256 307 376
#     4  12  22  38  56  88 128 176 206 254 306 376
#     4  10  21  39  59  92 124 176 212 261 310 377
#
# _framework density 20.404495000000001
#
# number of rings (size 3 to 8) (size 9 to 14) (size 15 to 20)
#    0.000    1.538    4.615    0.923    5.385    1.846 
#    0.000    0.000    0.000    2.769    0.000    0.000 
#    0.000    0.000    0.000    0.000    0.000    0.000 
#
# Total GULP energy -144819.803396 kJ/mol
# GULP energy per Si atom -5569.992438 kJ/mol
# Density = 2.035805 g / cm^3
# Si number density = 20.404495 Si / 1000 Ang^3
#
#
#
# Elastic Constant Matrix: (Units=GPa)
#
#
# Indices 1 2 3 4 5 6 
#
# 1 129.5370 61.4443 47.4784 0.0000 -38.0677 0.0000
# 2 61.4443 95.3571 0.4966 0.0000 -17.5005 0.0000
# 3 47.4784 0.4966 33.0685 0.0000 -20.7668 0.0000
# 4 0.0000 0.0000 0.0000 25.8562 0.0000 -7.7632
# 5 -38.0677 -17.5005 -20.7668 0.0000 37.0930 0.0000
# 6 0.0000 0.0000 0.0000 -7.7632 0.0000 43.0240
#
#
#
# Elastic Compliance Matrix: (Units=1/GPa)
#
#
# Indices 1 2 3 4 5 6 
#
# 1 0.044761 -0.029548 -0.067440 0.000000 -0.005760 0.000000
# 2 -0.029548 0.031544 0.049742 0.000000 0.012406 0.000000
# 3 -0.067440 0.049742 0.150512 0.000000 0.038521 0.000000
# 4 0.000000 0.000000 0.000000 0.040891 0.000000 0.007378
# 5 -0.005760 0.012406 0.038521 0.000000 0.048467 0.000000
# 6 0.000000 0.000000 0.000000 0.007378 0.000000 0.024574
#
#
# Mechanical properties :
#
#
# Convention : Reuss Voigt Hill
#
# Bulk Modulus (GPa) = 7.55720 52.97792 30.26756
# Shear Modulus (GPa) = 10.43074 31.09754 20.76414
#
# Velocity S-wave (km/s) = 2.26342 3.90815 3.19349
# Velocity P-wave (km/s) = 3.24692 6.81066 5.33515
#
# Compressibility (1/GPa) = 0.13232410
#
# Stress axis : x y z
#
# Youngs Moduli (GPa) = 22.34069 31.70126 6.64398
#
# Poissons Ratio (x) = 0.93672 0.44807
# Poissons Ratio (y) = 0.66013 -0.33048
# Poissons Ratio (z) = 1.50666 -1.57687
#
# Static dielectric constant tensor:
#      x y z
#    x 1.752810 0.000000 0.004030 
#    y 0.000000 1.771170 0.000000 
#    z 0.004030 0.000000 1.780970 
# 
# From -- ./inp_files/148123.got.cif
#   From: 2010.05.17/outbox.cif.g08.bks.cpg/sg15_75_cif.got.tgz:148123.got - 2010.06.03 18:47:42.
