data_PCOD9281702
_publ_section_title
;
Structure prediction by ZEFSAII (Michael W. Deem and Ramdas Pophale) SiO2 
 PCOD9281702
Probable space group: C 2/C
;
_chemical_formula_sum "Si O2"
_cell_formula_units_Z 48
_cell_length_a 12.332343
_cell_length_b 10.141221
_cell_length_c 23.434853
_cell_angle_alpha 90.000000
_cell_angle_beta 134.644231
_cell_angle_gamma 90.000000
_cell_volume 2085.273791
_symmetry_space_group_name_H-M "C 2/C"
_symmetry_group_IT_number 15
_symmetry_cell_setting 'monoclinic'
loop_
_space_group_symop_operation_xyz
x,y,z
-x,y,1/2-z
-x,-y,-z
x,-y,1/2+z
1/2+x,1/2+y,z
1/2-x,1/2+y,1/2-z
1/2-x,1/2-y,-z
1/2+x,1/2-y,1/2+z
loop_
_atom_site_type_symbol
_atom_site_label
_atom_site_fract_x
_atom_site_fract_y
_atom_site_fract_z
Si Si1 0.166463 0.844164 0.710230
Si Si2 0.109952 0.962086 0.845718
Si Si3 0.784175 0.495514 0.609355
Si Si4 0.661490 0.243791 0.027996
Si Si5 0.384866 0.942864 0.275779
Si Si6 0.690695 0.218248 0.597668
O O1 0.137502 0.713618 0.736129
O O2 0.223533 0.768864 0.674331
O O3 0.280919 0.957066 0.773912
O O4 0.007565 0.924481 0.646378
O O5 0.201391 0.099014 0.881182
O O6 0.000000 0.961263 0.750000
O O7 0.233683 0.846714 0.893302
O O8 0.662505 0.606632 0.550597
O O9 0.836523 0.510268 0.694663
O O10 0.727918 0.349469 0.575362
O O11 0.944628 0.531195 0.639624
O O12 0.750000 0.250000 0.000000
O O13 0.489565 0.190084 0.966037
#
# Coordination Sequence:
#
# PCOD9281702 Si02
#       6
#     8   8   8   8   8   8
#     4  11  22  40  65 101 136 175 228 285 347 411
#     4  12  25  42  73 102 136 180 236 287 346 417
#     4  10  22  40  66  93 135 178 223 274 353 405
#     4  12  23  46  70  95 140 182 226 286 353 415
#     4  10  21  38  63  98 135 171 220 290 337 403
#     4  11  25  42  68  98 137 180 227 285 348 425
#
# _framework density 23.018560999999998
#
# number of rings (size 3 to 8) (size 9 to 14) (size 15 to 20)
#    0.000    1.000    3.333    3.000    7.000    0.000 
#    0.000    2.500    0.000    0.000    0.000    0.000 
#    0.000    0.000    0.000    0.000    0.000    0.000 
#
# Total GULP energy -133870.859576 kJ/mol
# GULP energy per Si atom -5577.952482 kJ/mol
# Density = 2.296617 g / cm^3
# Si number density = 23.018561 Si / 1000 Ang^3
#
#
#
# Elastic Constant Matrix: (Units=GPa)
#
#
# Indices 1 2 3 4 5 6 
#
# 1 59.3755 58.8954 8.4862 0.0000 25.9748 0.0000
# 2 58.8954 193.0335 40.0924 0.0000 32.6712 0.0000
# 3 8.4862 40.0924 53.0222 0.0000 16.6496 0.0000
# 4 0.0000 0.0000 0.0000 29.6688 0.0000 14.3430
# 5 25.9748 32.6712 16.6496 0.0000 25.5549 0.0000
# 6 0.0000 0.0000 0.0000 14.3430 0.0000 40.4588
#
#
#
# Elastic Compliance Matrix: (Units=1/GPa)
#
#
# Indices 1 2 3 4 5 6 
#
# 1 0.039657 -0.008174 0.011578 0.000000 -0.037402 0.000000
# 2 -0.008174 0.008684 -0.005507 0.000000 0.000795 0.000000
# 3 0.011578 -0.005507 0.028483 0.000000 -0.023285 0.000000
# 4 0.000000 0.000000 0.000000 0.040677 0.000000 -0.014420
# 5 -0.037402 0.000795 -0.023285 0.000000 0.091303 0.000000
# 6 0.000000 0.000000 0.000000 -0.014420 0.000000 0.029829
#
#
# Mechanical properties :
#
#
# Convention : Reuss Voigt Hill
#
# Bulk Modulus (GPa) = 13.77073 57.81990 35.79532
# Shear Modulus (GPa) = 18.72348 32.33365 25.52857
#
# Velocity S-wave (km/s) = 2.85513 3.75197 3.33384
# Velocity P-wave (km/s) = 4.10663 6.62895 5.51396
#
# Compressibility (1/GPa) = 0.07261777
#
# Stress axis : x y z
#
# Youngs Moduli (GPa) = 25.21607 115.15736 35.10861
#
# Poissons Ratio (x) = 0.94130 -0.40650
# Poissons Ratio (y) = 0.20612 0.19336
# Poissons Ratio (z) = -0.29196 0.63422
#
# Static dielectric constant tensor:
#      x y z
#    x 2.224300 0.000000 -0.046360 
#    y 0.000000 1.875340 0.000000 
#    z -0.046360 0.000000 1.858640 
# 
# From -- ./inp_files/295453.got.cif
#   From: 2010.05.17/outbox.cif.g08.bks.cpg/sg15_148_cif.got.tgz:295453.got - 2010.06.03 18:47:42.
