data_PCOD9281521
_publ_section_title
;
Structure prediction by ZEFSAII (Michael W. Deem and Ramdas Pophale) SiO2 
 PCOD9281521
Probable space group: C 2/C
;
_chemical_formula_sum "Si O2"
_cell_formula_units_Z 40
_cell_length_a 15.912601
_cell_length_b 22.165623
_cell_length_c 15.630097
_cell_angle_alpha 90.000000
_cell_angle_beta 160.946041
_cell_angle_gamma 90.000000
_cell_volume 1799.743945
_symmetry_space_group_name_H-M "C 2/C"
_symmetry_group_IT_number 15
_symmetry_cell_setting 'monoclinic'
loop_
_space_group_symop_operation_xyz
x,y,z
-x,y,1/2-z
-x,-y,-z
x,-y,1/2+z
1/2+x,1/2+y,z
1/2-x,1/2+y,1/2-z
1/2-x,1/2-y,-z
1/2+x,1/2-y,1/2+z
loop_
_atom_site_type_symbol
_atom_site_label
_atom_site_fract_x
_atom_site_fract_y
_atom_site_fract_z
Si Si1 0.766323 0.488785 0.959253
Si Si2 0.340976 0.792034 0.777140
Si Si3 0.000000 0.709589 0.750000
Si Si4 0.476485 0.872907 0.063973
Si Si5 0.500000 0.207269 0.250000
Si Si6 0.761066 0.961971 0.236545
O O1 0.500000 0.479806 0.750000
O O2 0.727978 0.543051 0.854909
O O3 0.000000 0.497884 0.250000
O O4 0.822423 0.428142 0.958924
O O5 0.429692 0.823980 0.772894
O O6 0.067155 0.758011 0.507798
O O7 0.338892 0.837051 0.855215
O O8 0.037849 0.670017 0.701722
O O9 0.750000 0.750000 0.500000
O O10 0.724438 0.902188 0.256373
O O11 0.750000 0.250000 0.500000
O O12 0.000000 0.000000 0.500000
O O13 0.500000 0.000000 0.000000
#
# Coordination Sequence:
#
# PCOD9281521 Si02
#       6
#     8   8   4   8   4   8
#     4  11  23  42  68  96 132 172 220 278 344 405
#     4  10  21  38  62  91 128 169 217 266 319 392
#     4  12  28  42  64 101 142 181 232 266 318 408
#     4  11  24  43  67  96 134 178 219 272 337 387
#     4   8  16  34  58  81 114 161 204 262 322 364
#     4  10  23  41  66  95 125 168 224 274 336 405
#
# _framework density 22.225383000000001
#
# number of rings (size 3 to 8) (size 9 to 14) (size 15 to 20)
#    0.000    1.600    1.000    3.600    1.400    6.400 
#    1.800    0.000    8.800    0.000    0.000    0.000 
#    0.000    0.000    0.000    0.000    0.000    0.000 
#
# Total GULP energy -111729.268362 kJ/mol
# GULP energy per Si atom -5586.463418 kJ/mol
# Density = 2.217480 g / cm^3
# Si number density = 22.225383 Si / 1000 Ang^3
#
#
#
# Elastic Constant Matrix: (Units=GPa)
#
#
# Indices 1 2 3 4 5 6 
#
# 1 192.7263 62.0781 45.7175 0.0001 -25.4466 0.0001
# 2 62.0781 67.6886 30.4326 0.0000 -3.0951 0.0001
# 3 45.7175 30.4326 144.2375 -0.0001 3.9641 0.0007
# 4 0.0001 0.0000 -0.0001 -3.3465 0.0000 8.5751
# 5 -25.4466 -3.0951 3.9641 0.0000 38.6548 0.0003
# 6 0.0001 0.0001 0.0007 8.5751 0.0003 68.6199
#
#
#
# Elastic Compliance Matrix: (Units=1/GPa)
#
#
# Indices 1 2 3 4 5 6 
#
# 1 0.008393 -0.006855 -0.001355 0.000000 0.005115 0.000000
# 2 -0.006855 0.022028 -0.002406 0.000000 -0.002502 0.000000
# 3 -0.001355 -0.002406 0.007922 0.000000 -0.001897 0.000000
# 4 0.000000 0.000000 0.000000 -0.226344 0.000000 0.028285
# 5 0.005115 -0.002502 -0.001897 0.000000 0.029232 0.000000
# 6 0.000000 0.000000 0.000000 0.028285 0.000000 0.011038
#
#
# Mechanical properties :
#
#
# Convention : Reuss Voigt Hill
#
# Bulk Modulus (GPa) = 58.43856 75.67874 67.05865
# Shear Modulus (GPa) = -41.39211 38.54725 -1.42243
#
# Velocity S-wave (km/s) = -4.32021 4.16911 -0.80087
# Velocity P-wave (km/s) = 1.21039 7.56966 5.42055
#
# Compressibility (1/GPa) = 0.01711199
#
# Stress axis : x y z
#
# Youngs Moduli (GPa) = 119.14079 45.39777 126.22765
#
# Poissons Ratio (x) = 0.31119 0.17100
# Poissons Ratio (y) = 0.81668 0.30372
# Poissons Ratio (z) = 0.16140 0.10923
#
# Static dielectric constant tensor:
#      x y z
#    x 1.896030 0.000000 -0.078190 
#    y 0.000000 1.886230 0.000000 
#    z -0.078190 0.000000 1.816250 
# 
# From -- ./inp_files/157285.got.cif
#   From: 2010.05.17/outbox.cif.g08.bks.cpg/sg15_79_cif.got.tgz:157285.got - 2010.06.03 18:47:42.
