data_PCOD9281846
_publ_section_title
;
Structure prediction by ZEFSAII (Michael W. Deem and Ramdas Pophale) SiO2 
 PCOD9281846
Probable space group: C 2/C
;
_chemical_formula_sum "Si O2"
_cell_formula_units_Z 44
_cell_length_a 9.046697
_cell_length_b 18.026676
_cell_length_c 12.024864
_cell_angle_alpha 90.000000
_cell_angle_beta 64.102367
_cell_angle_gamma 90.000000
_cell_volume 1764.101812
_symmetry_space_group_name_H-M "C 2/C"
_symmetry_group_IT_number 15
_symmetry_cell_setting 'monoclinic'
loop_
_space_group_symop_operation_xyz
x,y,z
-x,y,1/2-z
-x,-y,-z
x,-y,1/2+z
1/2+x,1/2+y,z
1/2-x,1/2+y,1/2-z
1/2-x,1/2-y,-z
1/2+x,1/2-y,1/2+z
loop_
_atom_site_type_symbol
_atom_site_label
_atom_site_fract_x
_atom_site_fract_y
_atom_site_fract_z
Si Si1 0.000000 0.032919 0.750000
Si Si2 0.384803 0.123125 0.683069
Si Si3 0.313879 0.040173 0.159373
Si Si4 0.521305 0.344461 0.394211
Si Si5 0.457175 0.188456 0.082770
Si Si6 0.373155 0.348283 0.893042
O O1 0.863210 0.984074 0.731676
O O2 0.076597 0.088224 0.631272
O O3 0.500000 0.138407 0.750000
O O4 0.407471 0.036748 0.638066
O O5 0.203225 0.140159 0.786729
O O6 0.432704 0.169972 0.559856
O O7 0.417824 0.111903 0.161533
O O8 0.234355 0.074660 0.072108
O O9 0.472505 0.260487 0.380593
O O10 0.532668 0.344340 0.522999
O O11 0.274558 0.207176 0.093467
O O12 0.500000 0.343589 0.750000
#
# Coordination Sequence:
#
# PCOD9281846 Si02
#       6
#     4   8   8   8   8   8
#     4  10  22  46  60  90 134 168 206 256 318 374
#     4  11  21  38  62  90 124 163 208 256 314 366
#     4   9  20  39  59  89 123 164 207 250 308 371
#     4  11  24  39  66  91 127 164 207 261 315 367
#     4  10  22  37  61  92 118 162 209 258 303 367
#     4  10  21  38  65  91 122 158 216 251 303 367
#
# _framework density 24.941872
#
# number of rings (size 3 to 8) (size 9 to 14) (size 15 to 20)
#    1.091    0.727    2.727    1.091    2.545    0.727 
#    4.909    3.636    0.000    0.000    0.000    0.000 
#    0.000    0.000    0.000    0.000    0.000    0.000 
#
# Total GULP energy -122480.672925 kJ/mol
# GULP energy per Si atom -5567.303315 kJ/mol
# Density = 2.488510 g / cm^3
# Si number density = 24.941872 Si / 1000 Ang^3
#
#
#
# Elastic Constant Matrix: (Units=GPa)
#
#
# Indices 1 2 3 4 5 6 
#
# 1 41.3629 -15.6860 33.0633 0.0000 -4.9085 0.0000
# 2 -15.6860 147.3341 24.6554 0.0000 2.8037 0.0000
# 3 33.0633 24.6554 117.0324 0.0000 7.3804 0.0000
# 4 0.0000 0.0000 0.0000 21.1109 0.0000 -1.2898
# 5 -4.9085 2.8037 7.3804 0.0000 41.6803 0.0000
# 6 0.0000 0.0000 0.0000 -1.2898 0.0000 15.5283
#
#
#
# Elastic Compliance Matrix: (Units=1/GPa)
#
#
# Indices 1 2 3 4 5 6 
#
# 1 0.036641 0.005786 -0.011952 0.000000 0.006042 0.000000
# 2 0.005786 0.007951 -0.003356 0.000000 0.000741 0.000000
# 3 -0.011952 -0.003356 0.012846 0.000000 -0.003456 0.000000
# 4 0.000000 0.000000 0.000000 0.047611 0.000000 0.003955
# 5 0.006042 0.000741 -0.003456 0.000000 0.025266 0.000000
# 6 0.000000 0.000000 0.000000 0.003955 0.000000 0.064727
#
#
# Mechanical properties :
#
#
# Convention : Reuss Voigt Hill
#
# Bulk Modulus (GPa) = 26.04561 43.31052 34.67807
# Shear Modulus (GPa) = 22.03774 33.24368 27.64071
#
# Velocity S-wave (km/s) = 2.97571 3.65478 3.33258
# Velocity P-wave (km/s) = 4.71928 5.93398 5.36115
#
# Compressibility (1/GPa) = 0.03839418
#
# Stress axis : x y z
#
# Youngs Moduli (GPa) = 27.29187 125.77229 77.84406
#
# Poissons Ratio (x) = -0.72772 0.93036
# Poissons Ratio (y) = -0.15791 0.26127
# Poissons Ratio (z) = 0.32618 0.42214
#
# Static dielectric constant tensor:
#      x y z
#    x 2.039630 0.000000 -0.047090 
#    y 0.000000 2.168250 0.000000 
#    z -0.047090 0.000000 1.953970 
# 
# From -- ./inp_files/87716.got.cif
#   From: 2010.05.17/outbox.cif.g08.bks.cpg/sg15_44_cif.got.tgz:87716.got - 2010.06.03 18:47:42.
