data_PCOD9281930
_publ_section_title
;
Structure prediction by ZEFSAII (Michael W. Deem and Ramdas Pophale) SiO2 
 PCOD9281930
Probable space group: C 2/C
;
_chemical_formula_sum "Si O2"
_cell_formula_units_Z 56
_cell_length_a 14.846306
_cell_length_b 17.057911
_cell_length_c 12.532971
_cell_angle_alpha 90.000000
_cell_angle_beta 64.525422
_cell_angle_gamma 90.000000
_cell_volume 2865.354720
_symmetry_space_group_name_H-M "C 2/C"
_symmetry_group_IT_number 15
_symmetry_cell_setting 'monoclinic'
loop_
_space_group_symop_operation_xyz
x,y,z
-x,y,1/2-z
-x,-y,-z
x,-y,1/2+z
1/2+x,1/2+y,z
1/2-x,1/2+y,1/2-z
1/2-x,1/2-y,-z
1/2+x,1/2-y,1/2+z
loop_
_atom_site_type_symbol
_atom_site_label
_atom_site_fract_x
_atom_site_fract_y
_atom_site_fract_z
Si Si1 0.396985 0.260837 0.365251
Si Si2 0.975515 0.393227 0.929779
Si Si3 0.436398 0.934440 0.389335
Si Si4 0.754219 0.162418 0.457077
Si Si5 0.306812 0.147270 0.257144
Si Si6 0.375503 0.408494 0.527954
Si Si7 0.546864 0.569936 0.110153
O O1 0.500000 0.276961 0.250000
O O2 0.416736 0.185444 0.430848
O O3 0.319209 0.228084 0.317362
O O4 0.371511 0.336875 0.446513
O O5 0.922757 0.473166 0.920856
O O6 0.081758 0.387260 0.813493
O O7 0.001819 0.400762 0.040907
O O8 0.500000 0.924493 0.250000
O O9 0.331249 0.890053 0.443696
O O10 0.750000 0.250000 0.500000
O O11 0.733034 0.160219 0.341401
O O12 0.862835 0.129686 0.425893
O O13 0.230148 0.091501 0.357720
O O14 0.405671 0.488875 0.455660
O O15 0.462596 0.398508 0.572081
O O16 0.500000 0.556817 0.250000
#
# Coordination Sequence:
#
# PCOD9281930 Si02
#       7
#     8   8   8   8   8   8   8
#     4  10  21  38  66  92 129 163 213 264 322 382
#     4   9  21  38  63  92 131 160 200 272 324 371
#     4  10  21  39  63  97 122 164 211 257 327 382
#     4  11  26  43  66  93 132 170 214 268 329 388
#     4  10  21  42  65  96 128 165 210 275 322 379
#     4  11  24  41  68  94 128 177 221 264 320 387
#     4  11  25  46  65  92 134 177 222 268 320 387
#
# _framework density 19.543827
#
# number of rings (size 3 to 8) (size 9 to 14) (size 15 to 20)
#    0.000    1.714    1.429    2.143   10.000    1.714 
#    0.000    0.000    0.000    0.000    0.000    0.000 
#    0.000    0.000    0.000    0.000    0.000    0.000 
#
# Total GULP energy -156491.953964 kJ/mol
# GULP energy per Si atom -5588.998356 kJ/mol
# Density = 1.949934 g / cm^3
# Si number density = 19.543827 Si / 1000 Ang^3
#
#
#
# Elastic Constant Matrix: (Units=GPa)
#
#
# Indices 1 2 3 4 5 6 
#
# 1 82.5467 31.3963 26.7754 0.0000 -7.2805 0.0000
# 2 31.3963 88.1961 30.2994 0.0000 -6.4540 0.0000
# 3 26.7754 30.2994 111.0529 0.0000 -4.8169 0.0000
# 4 0.0000 0.0000 0.0000 28.4652 0.0000 1.5193
# 5 -7.2805 -6.4540 -4.8169 0.0000 25.6759 0.0000
# 6 0.0000 0.0000 0.0000 1.5193 0.0000 21.7679
#
#
#
# Elastic Compliance Matrix: (Units=1/GPa)
#
#
# Indices 1 2 3 4 5 6 
#
# 1 0.014706 -0.004261 -0.002267 0.000000 0.002674 0.000000
# 2 -0.004261 0.013910 -0.002691 0.000000 0.001784 0.000000
# 3 -0.002267 -0.002691 0.010312 0.000000 0.000615 0.000000
# 4 0.000000 0.000000 0.000000 0.035262 0.000000 -0.002461
# 5 0.002674 0.001784 0.000615 0.000000 0.040269 0.000000
# 6 0.000000 0.000000 0.000000 -0.002461 0.000000 0.046111
#
#
# Mechanical properties :
#
#
# Convention : Reuss Voigt Hill
#
# Bulk Modulus (GPa) = 48.80107 50.97088 49.88597
# Shear Modulus (GPa) = 26.90527 28.07011 27.48769
#
# Velocity S-wave (km/s) = 3.71437 3.79392 3.75435
# Velocity P-wave (km/s) = 6.58936 6.73266 6.66139
#
# Compressibility (1/GPa) = 0.02049135
#
# Stress axis : x y z
#
# Youngs Moduli (GPa) = 67.99908 71.89124 96.97304
#
# Poissons Ratio (x) = 0.30630 0.21987
# Poissons Ratio (y) = 0.28971 0.26091
# Poissons Ratio (z) = 0.15417 0.19343
#
# Static dielectric constant tensor:
#      x y z
#    x 1.692120 0.000000 0.009800 
#    y 0.000000 1.647630 0.000000 
#    z 0.009800 0.000000 1.681300 
# 
# From -- ./inp_files/98679.got.cif
#   From: 2010.05.17/outbox.cif.g08.bks.cpg/sg15_50_cif.got.tgz:98679.got - 2010.06.03 18:47:42.
