data_PCOD9281288
_publ_section_title
;
Structure prediction by ZEFSAII (Michael W. Deem and Ramdas Pophale) SiO2 
 PCOD9281288
Probable space group: C 2/C
;
_chemical_formula_sum "Si O2"
_cell_formula_units_Z 48
_cell_length_a 8.980139
_cell_length_b 12.352303
_cell_length_c 17.499580
_cell_angle_alpha 90.000000
_cell_angle_beta 97.562498
_cell_angle_gamma 90.000000
_cell_volume 1924.263565
_symmetry_space_group_name_H-M "C 2/C"
_symmetry_group_IT_number 15
_symmetry_cell_setting 'monoclinic'
loop_
_space_group_symop_operation_xyz
x,y,z
-x,y,1/2-z
-x,-y,-z
x,-y,1/2+z
1/2+x,1/2+y,z
1/2-x,1/2+y,1/2-z
1/2-x,1/2-y,-z
1/2+x,1/2-y,1/2+z
loop_
_atom_site_type_symbol
_atom_site_label
_atom_site_fract_x
_atom_site_fract_y
_atom_site_fract_z
Si Si1 0.309593 0.002130 0.086337
Si Si2 0.782350 0.221647 0.219685
Si Si3 0.557467 0.582827 0.672722
Si Si4 0.003420 0.722241 0.622257
Si Si5 0.748868 0.382131 0.425819
Si Si6 0.918800 0.528167 0.315143
O O1 0.162327 0.994852 0.128899
O O2 0.398749 0.885336 0.096173
O O3 0.444929 0.076919 0.126529
O O4 0.264034 0.044176 0.001080
O O5 0.666433 0.319200 0.202021
O O6 0.887967 0.255305 0.296879
O O7 0.685595 0.116817 0.228388
O O8 0.868958 0.201369 0.144408
O O9 0.500000 0.535345 0.750000
O O10 0.421497 0.629537 0.612540
O O11 0.131839 0.718705 0.564776
O O12 0.821217 0.451904 0.361358
O O13 0.000000 0.467968 0.250000
#
# Coordination Sequence:
#
# PCOD9281288 Si02
#       6
#     8   8   8   8   8   8
#     4  10  23  41  64  93 128 167 206 258 320 380
#     4  10  21  38  60  91 124 159 208 266 309 365
#     4  11  20  38  67  94 121 167 211 255 318 378
#     4   9  19  38  63  85 120 168 209 242 316 372
#     4  11  22  41  67  91 126 167 211 259 313 381
#     4  11  23  39  61  94 124 158 216 267 304 359
#
# _framework density 24.944606
#
# number of rings (size 3 to 8) (size 9 to 14) (size 15 to 20)
#    0.000    1.667    1.667    4.000   11.667    0.000 
#    9.000    8.333    3.667    0.000    0.000    0.000 
#    0.000    0.000    0.000    0.000    0.000    0.000 
#
# Total GULP energy -133814.679673 kJ/mol
# GULP energy per Si atom -5575.611653 kJ/mol
# Density = 2.488783 g / cm^3
# Si number density = 24.944606 Si / 1000 Ang^3
#
#
#
# Elastic Constant Matrix: (Units=GPa)
#
#
# Indices 1 2 3 4 5 6 
#
# 1 135.4480 2.8102 14.7996 0.0000 -2.8702 0.0000
# 2 2.8102 37.8417 9.6885 0.0000 -8.6130 0.0000
# 3 14.7996 9.6885 48.9398 0.0000 8.4911 0.0000
# 4 0.0000 0.0000 0.0000 -0.3808 0.0000 -4.4217
# 5 -2.8702 -8.6130 8.4911 0.0000 38.4056 0.0000
# 6 0.0000 0.0000 0.0000 -4.4217 0.0000 26.3016
#
#
#
# Elastic Compliance Matrix: (Units=1/GPa)
#
#
# Indices 1 2 3 4 5 6 
#
# 1 0.007687 0.000380 -0.002615 0.000000 0.001238 0.000000
# 2 0.000380 0.030272 -0.007582 0.000000 0.008493 0.000000
# 3 -0.002615 -0.007582 0.023973 0.000000 -0.007196 0.000000
# 4 0.000000 0.000000 0.000000 -0.889579 0.000000 -0.149551
# 5 0.001238 0.008493 -0.007196 0.000000 0.029626 0.000000
# 6 0.000000 0.000000 0.000000 -0.149551 0.000000 0.012879
#
#
# Mechanical properties :
#
#
# Convention : Reuss Voigt Hill
#
# Bulk Modulus (GPa) = 23.64038 30.75847 27.19943
# Shear Modulus (GPa) = -6.65416 25.86069 9.60327
#
# Velocity S-wave (km/s) = -1.63504 3.22331 1.96423
# Velocity P-wave (km/s) = 2.43582 5.11962 4.00897
#
# Compressibility (1/GPa) = 0.04230050
#
# Stress axis : x y z
#
# Youngs Moduli (GPa) = 130.09094 33.03395 41.71301
#
# Poissons Ratio (x) = -0.01256 0.10906
# Poissons Ratio (y) = -0.04947 0.31625
# Poissons Ratio (z) = 0.34014 0.25045
#
# Static dielectric constant tensor:
#      x y z
#    x 2.035550 0.000000 -0.019220 
#    y 0.000000 2.109020 0.000000 
#    z -0.019220 0.000000 1.994310 
# 
# From -- ./inp_files/189848.got.cif
#   From: 2010.05.17/outbox.cif.g08.bks.cpg/sg15_95_cif.got.tgz:189848.got - 2010.06.03 18:47:42.
