data_PCOD9281867
_publ_section_title
;
Structure prediction by ZEFSAII (Michael W. Deem and Ramdas Pophale) SiO2 
 PCOD9281867
Probable space group: C 2/C
;
_chemical_formula_sum "Si O2"
_cell_formula_units_Z 40
_cell_length_a 15.096904
_cell_length_b 15.969497
_cell_length_c 8.274174
_cell_angle_alpha 90.000000
_cell_angle_beta 116.263006
_cell_angle_gamma 90.000000
_cell_volume 1788.899633
_symmetry_space_group_name_H-M "C 2/C"
_symmetry_group_IT_number 15
_symmetry_cell_setting 'monoclinic'
loop_
_space_group_symop_operation_xyz
x,y,z
-x,y,1/2-z
-x,-y,-z
x,-y,1/2+z
1/2+x,1/2+y,z
1/2-x,1/2+y,1/2-z
1/2-x,1/2-y,-z
1/2+x,1/2-y,1/2+z
loop_
_atom_site_type_symbol
_atom_site_label
_atom_site_fract_x
_atom_site_fract_y
_atom_site_fract_z
Si Si1 0.500000 0.041239 0.250000
Si Si2 0.457884 0.731895 0.386431
Si Si3 0.500000 0.360914 0.250000
Si Si4 0.576814 0.108592 0.014097
Si Si5 0.611561 0.493675 0.510969
Si Si6 0.204907 0.120230 0.347805
O O1 0.574436 0.094926 0.203809
O O2 0.559864 0.979922 0.415286
O O3 0.500000 0.697753 0.250000
O O4 0.502839 0.693059 0.587421
O O5 0.485930 0.828940 0.410239
O O6 0.346874 0.700863 0.274471
O O7 0.591997 0.423278 0.356599
O O8 0.681000 0.141177 0.036986
O O9 0.500000 0.500000 0.500000
O O10 0.654213 0.577752 0.464869
O O11 0.685923 0.452394 0.698487
#
# Coordination Sequence:
#
# PCOD9281867 Si02
#       6
#     4   8   4   8   8   8
#     4  10  23  46  71  86 132 176 220 294 337 390
#     4  11  24  42  63  98 138 179 214 280 344 397
#     4  10  21  38  65  94 134 178 208 272 347 390
#     4  11  23  46  66  96 129 174 230 277 340 408
#     4  11  19  38  64 101 134 170 216 281 338 390
#     4  11  23  37  68 100 129 175 225 269 340 408
#
# _framework density 22.360113999999999
#
# number of rings (size 3 to 8) (size 9 to 14) (size 15 to 20)
#    0.000    1.200    3.000    4.200    0.000    0.800 
#    0.000   11.000    0.000    0.000    0.000    0.000 
#    0.000    0.000    0.000    0.000    0.000    0.000 
#
# Total GULP energy -111487.828291 kJ/mol
# GULP energy per Si atom -5574.391415 kJ/mol
# Density = 2.230922 g / cm^3
# Si number density = 22.360114 Si / 1000 Ang^3
#
#
#
# Elastic Constant Matrix: (Units=GPa)
#
#
# Indices 1 2 3 4 5 6 
#
# 1 84.2958 28.5892 22.8189 0.0000 -7.8721 0.0000
# 2 28.5892 74.9598 3.3587 0.0000 -4.2138 0.0000
# 3 22.8189 3.3587 70.6496 0.0000 -21.9483 0.0000
# 4 0.0000 0.0000 0.0000 24.0785 0.0000 2.2121
# 5 -7.8721 -4.2138 -21.9483 0.0000 32.6068 0.0000
# 6 0.0000 0.0000 0.0000 2.2121 0.0000 14.0259
#
#
#
# Elastic Compliance Matrix: (Units=1/GPa)
#
#
# Indices 1 2 3 4 5 6 
#
# 1 0.014969 -0.005514 -0.004642 0.000000 -0.000223 0.000000
# 2 -0.005514 0.015470 0.001584 0.000000 0.001734 0.000000
# 3 -0.004642 0.001584 0.019338 0.000000 0.012100 0.000000
# 4 0.000000 0.000000 0.000000 0.042141 0.000000 -0.006646
# 5 -0.000223 0.001734 0.012100 0.000000 0.038984 0.000000
# 6 0.000000 0.000000 0.000000 -0.006646 0.000000 0.072345
#
#
# Mechanical properties :
#
#
# Convention : Reuss Voigt Hill
#
# Bulk Modulus (GPa) = 30.64342 37.71543 34.17942
# Shear Modulus (GPa) = 21.62008 25.81813 23.71910
#
# Velocity S-wave (km/s) = 3.11288 3.40170 3.26049
# Velocity P-wave (km/s) = 5.16278 5.68618 5.43079
#
# Compressibility (1/GPa) = 0.03263343
#
# Stress axis : x y z
#
# Youngs Moduli (GPa) = 66.80638 64.64197 51.71292
#
# Poissons Ratio (x) = 0.35640 0.24005
# Poissons Ratio (y) = 0.36834 -0.08192
# Poissons Ratio (z) = 0.31011 -0.10240
#
# Static dielectric constant tensor:
#      x y z
#    x 1.880830 0.000000 -0.056220 
#    y 0.000000 1.857600 0.000000 
#    z -0.056220 0.000000 1.887430 
# 
# From -- ./inp_files/39448.got.cif
#   From: 2010.05.17/outbox.cif.g08.bks.cpg/sg15_20_cif.got.tgz:39448.got - 2010.06.03 18:47:42.
