data_PCOD9281869
_publ_section_title
;
Structure prediction by ZEFSAII (Michael W. Deem and Ramdas Pophale) SiO2 
 PCOD9281869
Probable space group: C 2/C
;
_chemical_formula_sum "Si O2"
_cell_formula_units_Z 40
_cell_length_a 8.756061
_cell_length_b 23.214686
_cell_length_c 8.375390
_cell_angle_alpha 90.000000
_cell_angle_beta 90.620961
_cell_angle_gamma 90.000000
_cell_volume 1702.358898
_symmetry_space_group_name_H-M "C 2/C"
_symmetry_group_IT_number 15
_symmetry_cell_setting 'monoclinic'
loop_
_space_group_symop_operation_xyz
x,y,z
-x,y,1/2-z
-x,-y,-z
x,-y,1/2+z
1/2+x,1/2+y,z
1/2-x,1/2+y,1/2-z
1/2-x,1/2-y,-z
1/2+x,1/2-y,1/2+z
loop_
_atom_site_type_symbol
_atom_site_label
_atom_site_fract_x
_atom_site_fract_y
_atom_site_fract_z
Si Si1 0.483148 0.269251 0.061474
Si Si2 0.187032 0.659719 0.449127
Si Si3 0.392051 0.540753 0.893250
Si Si4 0.148190 0.143115 0.365010
Si Si5 0.108477 0.538496 0.395045
O O1 0.500000 0.271489 0.250000
O O2 0.447713 0.203695 0.013012
O O3 0.336314 0.309350 0.020459
O O4 0.614641 0.298768 0.960985
O O5 0.218493 0.654368 0.259351
O O6 0.164658 0.593781 0.495680
O O7 0.500000 0.561996 0.750000
O O8 0.251650 0.499917 0.838529
O O9 0.500000 0.500000 0.000000
O O10 0.334352 0.592258 0.006601
O O11 0.000000 0.129231 0.250000
O O12 0.000000 0.557957 0.250000
O O13 0.000000 0.500000 0.500000
#
# Coordination Sequence:
#
# PCOD9281869 Si02
#       5
#     8   8   8   8   8
#     4  10  21  38  65  95 121 163 224 276 323 390
#     4  10  22  43  63  88 132 173 209 268 341 399
#     4  12  23  40  68  98 130 174 228 274 320 393
#     4  10  21  39  63  92 127 168 219 277 331 386
#     4  12  26  44  65  96 135 175 214 267 339 398
#
# _framework density 23.496807
#
# number of rings (size 3 to 8) (size 9 to 14) (size 15 to 20)
#    0.000    1.200    0.000    7.800    0.000    2.400 
#    0.000    8.000    0.000    0.000    0.000    0.000 
#    0.000    0.000    0.000    0.000    0.000    0.000 
#
# Total GULP energy -111962.348592 kJ/mol
# GULP energy per Si atom -5598.117430 kJ/mol
# Density = 2.344333 g / cm^3
# Si number density = 23.496807 Si / 1000 Ang^3
#
#
#
# Elastic Constant Matrix: (Units=GPa)
#
#
# Indices 1 2 3 4 5 6 
#
# 1 72.8491 38.0337 5.4731 0.0000 -0.0719 0.0000
# 2 38.0337 158.7621 18.8601 0.0000 -12.9855 0.0000
# 3 5.4731 18.8601 55.4068 0.0000 -0.4348 0.0000
# 4 0.0000 0.0000 0.0000 12.3303 0.0000 27.3000
# 5 -0.0719 -12.9855 -0.4348 0.0000 34.1622 0.0000
# 6 0.0000 0.0000 0.0000 27.3000 0.0000 -0.0700
#
#
#
# Elastic Compliance Matrix: (Units=1/GPa)
#
#
# Indices 1 2 3 4 5 6 
#
# 1 0.015762 -0.003864 -0.000253 0.000000 -0.001439 0.000000
# 2 -0.003864 0.007726 -0.002225 0.000000 0.002900 0.000000
# 3 -0.000253 -0.002225 0.018826 0.000000 -0.000607 0.000000
# 4 0.000000 0.000000 0.000000 0.000094 0.000000 0.036588
# 5 -0.001439 0.002900 -0.000607 0.000000 0.030364 0.000000
# 6 0.000000 0.000000 0.000000 0.036588 0.000000 -0.016525
#
#
# Mechanical properties :
#
#
# Convention : Reuss Voigt Hill
#
# Bulk Modulus (GPa) = 33.75013 45.75020 39.75016
# Shear Modulus (GPa) = 63.44631 24.26124 43.85378
#
# Velocity S-wave (km/s) = 5.20199 3.21679 4.32484
# Velocity P-wave (km/s) = 7.10464 5.77149 6.47248
#
# Compressibility (1/GPa) = 0.02962952
#
# Stress axis : x y z
#
# Youngs Moduli (GPa) = 63.44487 129.43490 53.11772
#
# Poissons Ratio (x) = 0.50008 0.01344
# Poissons Ratio (y) = 0.24512 0.11821
# Poissons Ratio (z) = 0.01606 0.28805
#
# Static dielectric constant tensor:
#      x y z
#    x 1.970950 0.000000 0.087920 
#    y 0.000000 1.909340 0.000000 
#    z 0.087920 0.000000 1.968010 
# 
# From -- ./inp_files/23613.got.cif
#   From: 2010.05.17/outbox.cif.g08.bks.cpg/sg15_12_cif.got.tgz:23613.got - 2010.06.03 18:47:42.
