data_PCOD9281860
_publ_section_title
;
Structure prediction by ZEFSAII (Michael W. Deem and Ramdas Pophale) SiO2 
 PCOD9281860
Probable space group: C 2/C
;
_chemical_formula_sum "Si O2"
_cell_formula_units_Z 56
_cell_length_a 20.309372
_cell_length_b 11.496983
_cell_length_c 23.163227
_cell_angle_alpha 90.000000
_cell_angle_beta 31.117372
_cell_angle_gamma 90.000000
_cell_volume 2795.091347
_symmetry_space_group_name_H-M "C 2/C"
_symmetry_group_IT_number 15
_symmetry_cell_setting 'monoclinic'
loop_
_space_group_symop_operation_xyz
x,y,z
-x,y,1/2-z
-x,-y,-z
x,-y,1/2+z
1/2+x,1/2+y,z
1/2-x,1/2+y,1/2-z
1/2-x,1/2-y,-z
1/2+x,1/2-y,1/2+z
loop_
_atom_site_type_symbol
_atom_site_label
_atom_site_fract_x
_atom_site_fract_y
_atom_site_fract_z
Si Si1 0.630782 0.876702 0.632247
Si Si2 0.602545 0.875165 0.215331
Si Si3 0.495556 0.120067 0.923521
Si Si4 0.947017 0.080110 0.623225
Si Si5 0.185926 0.540763 0.875268
Si Si6 0.611221 0.637368 0.965143
Si Si7 0.368084 0.221034 0.488935
O O1 0.500000 0.816098 0.750000
O O2 0.628115 0.873179 0.565084
O O3 0.750692 0.804795 0.563276
O O4 0.629274 0.002254 0.662943
O O5 0.500000 0.811964 0.250000
O O6 0.531223 0.890758 0.329882
O O7 0.745617 0.831425 0.121472
O O8 0.603903 0.051913 0.878373
O O9 0.481953 0.255808 0.949674
O O10 0.366684 0.061759 0.044876
O O11 0.832653 0.034426 0.748439
O O12 0.892943 0.111773 0.600256
O O13 0.008208 0.197986 0.601869
O O14 0.054324 0.980495 0.535895
O O15 0.155178 0.657620 0.933631
#
# Coordination Sequence:
#
# PCOD9281860 Si02
#       7
#     8   8   8   8   8   8   8
#     4  10  21  38  65  93 131 173 219 264 329 407
#     4  11  23  44  68  93 130 183 221 272 333 409
#     4  11  25  42  66  96 131 176 228 270 338 399
#     4  11  23  41  68 101 134 168 222 285 346 391
#     4  11  23  39  64 101 130 169 220 284 332 398
#     4  11  24  44  66  98 132 178 225 278 339 405
#     4  11  21  40  64 100 129 172 218 279 337 391
#
# _framework density 20.035124
#
# number of rings (size 3 to 8) (size 9 to 14) (size 15 to 20)
#    0.000    1.143    4.286    2.571    2.000    0.571 
#    0.000    0.000    0.000    0.000    0.000    0.000 
#    0.000    0.000    0.000    0.000    0.000    0.000 
#
# Total GULP energy -156258.095196 kJ/mol
# GULP energy per Si atom -5580.646257 kJ/mol
# Density = 1.998952 g / cm^3
# Si number density = 20.035124 Si / 1000 Ang^3
#
#
#
# Elastic Constant Matrix: (Units=GPa)
#
#
# Indices 1 2 3 4 5 6 
#
# 1 84.5667 2.5993 34.4073 0.0001 -0.4870 0.0000
# 2 2.5993 54.1116 2.2763 0.0002 3.9940 -0.0001
# 3 34.4073 2.2763 94.0357 0.0004 -3.3063 -0.0003
# 4 0.0001 0.0002 0.0004 14.0724 -0.0001 13.3748
# 5 -0.4870 3.9940 -3.3063 -0.0001 31.3493 0.0001
# 6 0.0000 -0.0001 -0.0003 13.3748 0.0001 7.5011
#
#
#
# Elastic Compliance Matrix: (Units=1/GPa)
#
#
# Indices 1 2 3 4 5 6 
#
# 1 0.013907 -0.000434 -0.005087 0.000000 -0.000265 0.000000
# 2 -0.000434 0.018696 -0.000379 0.000001 -0.002429 -0.000001
# 3 -0.005087 -0.000379 0.012550 0.000001 0.001293 -0.000001
# 4 0.000000 0.000001 0.000001 -0.102295 -0.000001 0.182398
# 5 -0.000265 -0.002429 0.001293 -0.000001 0.032340 0.000001
# 6 0.000000 -0.000001 -0.000001 0.182398 0.000001 -0.191912
#
#
# Mechanical properties :
#
#
# Convention : Reuss Voigt Hill
#
# Bulk Modulus (GPa) = 29.98318 34.58663 32.28490
# Shear Modulus (GPa) = -25.80048 23.47996 -1.16026
#
# Velocity S-wave (km/s) = -3.59243 3.42707 -0.76182
# Velocity P-wave (km/s) = 1.48649 5.74110 3.92114
#
# Compressibility (1/GPa) = 0.03335204
#
# Stress axis : x y z
#
# Youngs Moduli (GPa) = 71.90825 53.48619 79.67954
#
# Poissons Ratio (x) = 0.02324 0.40534
# Poissons Ratio (y) = 0.03124 0.03020
# Poissons Ratio (z) = 0.36581 0.02027
#
# Static dielectric constant tensor:
#      x y z
#    x 1.744750 0.000000 -0.020460 
#    y 0.000000 1.695820 0.000000 
#    z -0.020460 0.000000 1.704400 
# 
# From -- ./inp_files/279971.got.cif
#   From: 2010.05.17/outbox.cif.g08.bks.cpg/sg15_140_cif.got.tgz:279971.got - 2010.06.03 18:47:42.
