data_PCOD9281900
_publ_section_title
;
Structure prediction by ZEFSAII (Michael W. Deem and Ramdas Pophale) SiO2 
 PCOD9281900
Probable space group: C 2/C
;
_chemical_formula_sum "Si O2"
_cell_formula_units_Z 60
_cell_length_a 12.052479
_cell_length_b 21.549153
_cell_length_c 14.068061
_cell_angle_alpha 90.000000
_cell_angle_beta 137.322268
_cell_angle_gamma 90.000000
_cell_volume 2476.793527
_symmetry_space_group_name_H-M "C 2/C"
_symmetry_group_IT_number 15
_symmetry_cell_setting 'monoclinic'
loop_
_space_group_symop_operation_xyz
x,y,z
-x,y,1/2-z
-x,-y,-z
x,-y,1/2+z
1/2+x,1/2+y,z
1/2-x,1/2+y,1/2-z
1/2-x,1/2-y,-z
1/2+x,1/2-y,1/2+z
loop_
_atom_site_type_symbol
_atom_site_label
_atom_site_fract_x
_atom_site_fract_y
_atom_site_fract_z
Si Si1 0.616709 0.513137 0.162211
Si Si2 0.618155 0.243161 0.041863
Si Si3 0.583036 0.380105 0.205121
Si Si4 0.006218 0.469270 0.606976
Si Si5 0.041230 0.670828 0.167373
Si Si6 0.623155 0.826510 0.215183
Si Si7 0.000000 0.437587 0.250000
Si Si8 0.923093 0.140776 0.399150
O O1 0.618435 0.454095 0.231690
O O2 0.802300 0.524428 0.244642
O O3 0.559299 0.581199 0.157298
O O4 0.500000 0.500000 0.000000
O O5 0.559603 0.186968 0.937921
O O6 0.538664 0.303280 0.944522
O O7 0.519024 0.225465 0.076637
O O8 0.798144 0.267894 0.180122
O O9 0.500000 0.359799 0.250000
O O10 0.747481 0.341859 0.286340
O O11 0.473174 0.372672 0.040818
O O12 0.962789 0.396723 0.590924
O O13 0.000000 0.500000 0.500000
O O14 0.916892 0.516347 0.621842
O O15 0.235550 0.660558 0.280454
O O16 0.000000 0.685736 0.250000
O O17 0.620474 0.889708 0.273588
#
# Coordination Sequence:
#
# PCOD9281900 Si02
#       8
#     8   8   8   8   8   8   4   8
#     4   9  19  41  64  91 133 175 220 280 347 409
#     4  11  23  45  65  95 136 183 236 282 337 425
#     4  10  21  38  66 100 134 174 228 284 359 422
#     4  11  23  43  70 106 138 174 234 292 355 415
#     4  11  23  37  64  98 137 178 226 289 354 413
#     4  11  25  44  72  98 136 187 236 288 346 413
#     4  12  24  48  76 102 142 188 234 302 344 420
#     4   9  21  39  60  89 134 177 222 285 338 411
#
# _framework density 24.224869000000002
#
# number of rings (size 3 to 8) (size 9 to 14) (size 15 to 20)
#    0.000    1.600    3.333    0.800    1.867    3.200 
#    2.400    0.000    1.467    0.000    0.000    0.000 
#    0.000    0.000    0.000    0.000    0.000    0.000 
#
# Total GULP energy -167421.837752 kJ/mol
# GULP energy per Si atom -5580.727925 kJ/mol
# Density = 2.416973 g / cm^3
# Si number density = 24.224869 Si / 1000 Ang^3
#
#
#
# Elastic Constant Matrix: (Units=GPa)
#
#
# Indices 1 2 3 4 5 6 
#
# 1 60.9425 4.3342 4.4899 0.0000 -18.8634 0.0000
# 2 4.3342 111.9475 23.0894 0.0000 -8.0508 0.0000
# 3 4.4899 23.0894 70.6942 0.0000 3.5282 0.0000
# 4 0.0000 0.0000 0.0000 21.3867 0.0000 8.5268
# 5 -18.8634 -8.0508 3.5282 0.0000 27.5521 0.0000
# 6 0.0000 0.0000 0.0000 8.5268 0.0000 16.2959
#
#
#
# Elastic Compliance Matrix: (Units=1/GPa)
#
#
# Indices 1 2 3 4 5 6 
#
# 1 0.021175 0.000742 -0.002336 0.000000 0.015014 0.000000
# 2 0.000742 0.009896 -0.003471 0.000000 0.003844 0.000000
# 3 -0.002336 -0.003471 0.015658 0.000000 -0.004619 0.000000
# 4 0.000000 0.000000 0.000000 0.059084 0.000000 -0.030916
# 5 0.015014 0.003844 -0.004619 0.000000 0.048288 0.000000
# 6 0.000000 0.000000 0.000000 -0.030916 0.000000 0.077542
#
#
# Mechanical properties :
#
#
# Convention : Reuss Voigt Hill
#
# Bulk Modulus (GPa) = 27.32382 34.15681 30.74031
# Shear Modulus (GPa) = 19.68693 27.15832 23.42262
#
# Velocity S-wave (km/s) = 2.85384 3.35190 3.11285
# Velocity P-wave (km/s) = 4.70775 5.39545 5.06329
#
# Compressibility (1/GPa) = 0.03659810
#
# Stress axis : x y z
#
# Youngs Moduli (GPa) = 47.22466 101.04642 63.86480
#
# Poissons Ratio (x) = -0.07495 0.14922
# Poissons Ratio (y) = -0.03503 0.22169
# Poissons Ratio (z) = 0.11034 0.35076
#
# Static dielectric constant tensor:
#      x y z
#    x 1.940940 0.000000 -0.021440 
#    y 0.000000 1.989580 0.000000 
#    z -0.021440 0.000000 1.997980 
# 
# From -- ./inp_files/156377.got.cif
#   From: 2010.05.17/outbox.cif.g08.bks.cpg/sg15_79_cif.got.tgz:156377.got - 2010.06.03 18:47:42.
