data_PCOD9281205
_publ_section_title
;
Structure prediction by ZEFSAII (Michael W. Deem and Ramdas Pophale) SiO2 
 PCOD9281205
Probable space group: C 2/C
;
_chemical_formula_sum "Si O2"
_cell_formula_units_Z 56
_cell_length_a 13.004907
_cell_length_b 25.656709
_cell_length_c 13.243403
_cell_angle_alpha 90.000000
_cell_angle_beta 35.121517
_cell_angle_gamma 90.000000
_cell_volume 2542.210893
_symmetry_space_group_name_H-M "C 2/C"
_symmetry_group_IT_number 15
_symmetry_cell_setting 'monoclinic'
loop_
_space_group_symop_operation_xyz
x,y,z
-x,y,1/2-z
-x,-y,-z
x,-y,1/2+z
1/2+x,1/2+y,z
1/2-x,1/2+y,1/2-z
1/2-x,1/2-y,-z
1/2+x,1/2-y,1/2+z
loop_
_atom_site_type_symbol
_atom_site_label
_atom_site_fract_x
_atom_site_fract_y
_atom_site_fract_z
Si Si1 0.542175 0.843694 0.014491
Si Si2 0.786495 0.504162 0.169229
Si Si3 0.781570 0.099453 0.153879
Si Si4 0.995650 0.732956 0.107164
Si Si5 0.686194 0.598254 0.848914
Si Si6 0.204199 0.087908 0.064304
Si Si7 0.727858 0.681451 0.479195
O O1 0.632803 0.875436 0.847497
O O2 0.543190 0.783718 0.976153
O O3 0.664277 0.865373 0.007021
O O4 0.340272 0.860955 0.198220
O O5 0.726409 0.539104 0.313349
O O6 0.700468 0.447829 0.254820
O O7 0.737132 0.537597 0.109593
O O8 0.000000 0.500000 0.000000
O O9 0.757293 0.121062 0.060509
O O10 0.982627 0.117748 0.018934
O O11 0.165758 0.698161 0.007701
O O12 0.837300 0.710796 0.302369
O O13 0.038726 0.791128 0.110305
O O14 0.729747 0.576692 0.925933
O O15 0.000000 0.103701 0.250000
#
# Coordination Sequence:
#
# PCOD9281205 Si02
#       7
#     8   8   8   8   8   8   8
#     4  10  21  38  59  92 117 159 208 255 294 375
#     4  11  22  41  60  90 124 157 213 260 305 372
#     4  10  21  38  60  90 123 160 210 252 305 372
#     4   9  19  37  61  91 129 157 205 249 314 379
#     4  12  22  40  65  85 124 166 205 252 319 361
#     4  11  22  41  63  86 119 168 209 251 315 370
#     4   9  19  37  62  91 126 166 195 253 320 369
#
# _framework density 22.02807
#
# number of rings (size 3 to 8) (size 9 to 14) (size 15 to 20)
#    0.000    1.714    5.714    0.857    2.000    0.000 
#    2.571    2.857    0.000    0.857    7.429    0.000 
#    0.000    0.000    0.000    0.000    0.000    0.000 
#
# Total GULP energy -156020.754691 kJ/mol
# GULP energy per Si atom -5572.169810 kJ/mol
# Density = 2.197793 g / cm^3
# Si number density = 22.028070 Si / 1000 Ang^3
#
#
#
# Elastic Constant Matrix: (Units=GPa)
#
#
# Indices 1 2 3 4 5 6 
#
# 1 63.8252 13.2137 11.2335 -0.0001 15.9390 0.0000
# 2 13.2137 16.9591 2.1116 0.0000 11.5752 0.0000
# 3 11.2335 2.1116 113.6075 -0.0001 -16.5616 0.0000
# 4 -0.0001 0.0000 -0.0001 12.7387 0.0001 7.9596
# 5 15.9390 11.5752 -16.5616 0.0001 26.5193 0.0000
# 6 0.0000 0.0000 0.0000 7.9596 0.0000 29.8986
#
#
#
# Elastic Compliance Matrix: (Units=1/GPa)
#
#
# Indices 1 2 3 4 5 6 
#
# 1 0.020749 -0.008141 -0.003521 0.000000 -0.011116 0.000000
# 2 -0.008141 0.093595 -0.006795 0.000000 -0.040203 0.000000
# 3 -0.003521 -0.006795 0.011021 0.000000 0.011965 0.000000
# 4 0.000000 0.000000 0.000000 0.094164 0.000000 -0.025068
# 5 -0.011116 -0.040203 0.011965 0.000000 0.069410 0.000000
# 6 0.000000 0.000000 0.000000 -0.025068 0.000000 0.040120
#
#
# Mechanical properties :
#
#
# Convention : Reuss Voigt Hill
#
# Bulk Modulus (GPa) = 11.30579 27.50105 19.40342
# Shear Modulus (GPa) = 12.64359 25.02018 18.83188
#
# Velocity S-wave (km/s) = 2.39838 3.37387 2.92705
# Velocity P-wave (km/s) = 3.57956 5.26203 4.50012
#
# Compressibility (1/GPa) = 0.08845029
#
# Stress axis : x y z
#
# Youngs Moduli (GPa) = 48.19522 10.68433 90.73650
#
# Poissons Ratio (x) = 0.08698 0.31947
# Poissons Ratio (y) = 0.39235 0.61660
# Poissons Ratio (z) = 0.16969 0.07261
#
# Static dielectric constant tensor:
#      x y z
#    x 1.841360 0.000000 -0.015240 
#    y 0.000000 1.872060 0.000000 
#    z -0.015240 0.000000 1.860210 
# 
# From -- ./inp_files/157207.got.cif
#   From: 2010.05.17/outbox.cif.g08.bks.cpg/sg15_79_cif.got.tgz:157207.got - 2010.06.03 18:47:42.
