data_PCOD9281964
_publ_section_title
;
Structure prediction by ZEFSAII (Michael W. Deem and Ramdas Pophale) SiO2 
 PCOD9281964
Probable space group: C 2/C
;
_chemical_formula_sum "Si O2"
_cell_formula_units_Z 48
_cell_length_a 16.689296
_cell_length_b 9.225197
_cell_length_c 16.818431
_cell_angle_alpha 90.000000
_cell_angle_beta 129.483765
_cell_angle_gamma 90.000000
_cell_volume 1998.511320
_symmetry_space_group_name_H-M "C 2/C"
_symmetry_group_IT_number 15
_symmetry_cell_setting 'monoclinic'
loop_
_space_group_symop_operation_xyz
x,y,z
-x,y,1/2-z
-x,-y,-z
x,-y,1/2+z
1/2+x,1/2+y,z
1/2-x,1/2+y,1/2-z
1/2-x,1/2-y,-z
1/2+x,1/2-y,1/2+z
loop_
_atom_site_type_symbol
_atom_site_label
_atom_site_fract_x
_atom_site_fract_y
_atom_site_fract_z
Si Si1 0.912421 0.379649 0.361682
Si Si2 0.754908 0.397777 0.552724
Si Si3 0.805605 0.195880 0.714848
Si Si4 0.385059 0.796273 0.918675
Si Si5 0.666246 0.183575 0.857334
Si Si6 0.105702 0.006049 0.355898
O O1 0.810871 0.295608 0.327000
O O2 0.892207 0.541264 0.384183
O O3 0.902462 0.368450 0.260645
O O4 0.014624 0.303810 0.461640
O O5 0.750000 0.250000 0.500000
O O6 0.810033 0.342583 0.666623
O O7 0.815317 0.547064 0.572499
O O8 0.636622 0.448681 0.462367
O O9 0.883121 0.195147 0.838106
O O10 0.816040 0.061397 0.660986
O O11 0.279622 0.741898 0.896789
O O12 0.613543 0.322866 0.861275
O O13 0.000000 0.954241 0.250000
#
# Coordination Sequence:
#
# PCOD9281964 Si02
#       6
#     8   8   8   8   8   8
#     4  10  21  38  66  97 125 166 209 274 331 375
#     4  10  23  43  64  86 128 176 212 266 317 382
#     4  10  21  43  61  95 130 166 217 269 321 383
#     4  10  21  38  67  96 127 167 207 277 326 382
#     4  11  22  43  63  96 130 163 221 269 324 387
#     4  11  25  41  63  93 128 177 217 263 317 390
#
# _framework density 24.017876999999999
#
# number of rings (size 3 to 8) (size 9 to 14) (size 15 to 20)
#    0.000    1.667    3.333    0.500    4.667    0.000 
#    0.000    5.000    0.000    0.000    0.000    0.000 
#    0.000    0.000    0.000    0.000    0.000    0.000 
#
# Total GULP energy -133657.514202 kJ/mol
# GULP energy per Si atom -5569.063092 kJ/mol
# Density = 2.396321 g / cm^3
# Si number density = 24.017877 Si / 1000 Ang^3
#
#
#
# Elastic Constant Matrix: (Units=GPa)
#
#
# Indices 1 2 3 4 5 6 
#
# 1 34.8777 10.4276 19.4230 0.0000 -0.8794 0.0000
# 2 10.4276 113.7871 42.0228 0.0000 -10.5033 0.0000
# 3 19.4230 42.0228 179.2635 0.0000 3.0044 0.0000
# 4 0.0000 0.0000 0.0000 37.8648 0.0000 -1.8365
# 5 -0.8794 -10.5033 3.0044 0.0000 25.1876 0.0000
# 6 0.0000 0.0000 0.0000 -1.8365 0.0000 12.6290
#
#
#
# Elastic Compliance Matrix: (Units=1/GPa)
#
#
# Indices 1 2 3 4 5 6 
#
# 1 0.030838 -0.001664 -0.002964 0.000000 0.000737 0.000000
# 2 -0.001664 0.010197 -0.002285 0.000000 0.004467 0.000000
# 3 -0.002964 -0.002285 0.006466 0.000000 -0.001828 0.000000
# 4 0.000000 0.000000 0.000000 0.026597 0.000000 0.003868
# 5 0.000737 0.004467 -0.001828 0.000000 0.041808 0.000000
# 6 0.000000 0.000000 0.000000 0.003868 0.000000 0.079745
#
#
# Mechanical properties :
#
#
# Convention : Reuss Voigt Hill
#
# Bulk Modulus (GPa) = 29.69440 52.40832 41.05136
# Shear Modulus (GPa) = 22.65503 32.20660 27.43082
#
# Velocity S-wave (km/s) = 3.07458 3.66586 3.38316
# Velocity P-wave (km/s) = 4.99944 6.30761 5.69124
#
# Compressibility (1/GPa) = 0.03367638
#
# Stress axis : x y z
#
# Youngs Moduli (GPa) = 32.42757 98.06844 154.66087
#
# Poissons Ratio (x) = 0.16314 0.45836
# Poissons Ratio (y) = 0.05394 0.35340
# Poissons Ratio (z) = 0.09610 0.22408
#
# Static dielectric constant tensor:
#      x y z
#    x 1.967070 0.000000 -0.035360 
#    y 0.000000 1.908070 0.000000 
#    z -0.035360 0.000000 2.014410 
# 
# From -- ./inp_files/180923.got.cif
#   From: 2010.05.17/outbox.cif.g08.bks.cpg/sg15_91_cif.got.tgz:180923.got - 2010.06.03 18:47:42.
