data_PCOD9281129
_publ_section_title
;
Structure prediction by ZEFSAII (Michael W. Deem and Ramdas Pophale) SiO2 
 PCOD9281129
Probable space group: C 2/C
;
_chemical_formula_sum "Si O2"
_cell_formula_units_Z 36
_cell_length_a 13.184192
_cell_length_b 12.333416
_cell_length_c 18.165160
_cell_angle_alpha 90.000000
_cell_angle_beta 31.199128
_cell_angle_gamma 90.000000
_cell_volume 1530.092255
_symmetry_space_group_name_H-M "C 2/C"
_symmetry_group_IT_number 15
_symmetry_cell_setting 'monoclinic'
loop_
_space_group_symop_operation_xyz
x,y,z
-x,y,1/2-z
-x,-y,-z
x,-y,1/2+z
1/2+x,1/2+y,z
1/2-x,1/2+y,1/2-z
1/2-x,1/2-y,-z
1/2+x,1/2-y,1/2+z
loop_
_atom_site_type_symbol
_atom_site_label
_atom_site_fract_x
_atom_site_fract_y
_atom_site_fract_z
Si Si1 0.819953 0.012073 0.006353
Si Si2 0.776923 0.328129 0.636953
Si Si3 0.275401 0.571355 0.189493
Si Si4 0.522911 0.862941 0.346440
Si Si5 0.000000 0.017532 0.750000
O O1 0.901838 0.071053 0.882364
O O2 0.996938 0.938937 0.929466
O O3 0.650276 0.929327 0.086468
O O4 0.757330 0.087287 0.113310
O O5 0.834865 0.349360 0.685793
O O6 0.623478 0.231156 0.737590
O O7 0.665492 0.437046 0.679945
O O8 0.941388 0.314107 0.473461
O O9 0.185491 0.453030 0.260513
#
# Coordination Sequence:
#
# PCOD9281129 Si02
#       5
#     8   8   8   8   4
#     4   9  20  36  59  91 126 167 213 257 324 374
#     4  10  23  36  61  95 134 160 215 265 328 374
#     4  10  21  38  58  91 137 171 209 263 325 388
#     4  11  23  39  65  98 130 171 211 269 325 386
#     4   8  18  32  52  88 124 154 200 262 316 372
#
# _framework density 23.527992000000001
#
# number of rings (size 3 to 8) (size 9 to 14) (size 15 to 20)
#    0.000    2.222    0.000    1.333   12.444    4.444 
#    0.000    0.000    0.000    1.333   28.889    0.000 
#    0.000    0.000    0.000    0.000    0.000    0.000 
#
# Total GULP energy -100531.913072 kJ/mol
# GULP energy per Si atom -5585.106282 kJ/mol
# Density = 2.347444 g / cm^3
# Si number density = 23.527992 Si / 1000 Ang^3
#
#
#
# Elastic Constant Matrix: (Units=GPa)
#
#
# Indices 1 2 3 4 5 6 
#
# 1 97.4908 39.6658 51.6411 0.0002 29.4754 -0.0001
# 2 39.6658 26.6951 27.0326 -0.0009 4.0584 0.0003
# 3 51.6411 27.0326 143.1849 -0.0013 36.6586 0.0012
# 4 0.0002 -0.0009 -0.0013 2.2141 0.0013 -3.6999
# 5 29.4754 4.0584 36.6586 0.0013 54.9780 -0.0003
# 6 -0.0001 0.0003 0.0012 -3.6999 -0.0003 12.3060
#
#
#
# Elastic Compliance Matrix: (Units=1/GPa)
#
#
# Indices 1 2 3 4 5 6 
#
# 1 0.035245 -0.050924 0.000938 -0.000025 -0.015763 -0.000007
# 2 -0.050924 0.120281 -0.010924 0.000060 0.025707 0.000017
# 3 0.000938 -0.010924 0.010407 0.000008 -0.006636 0.000001
# 4 -0.000025 0.000060 0.000008 0.907693 -0.000016 0.272909
# 5 -0.015763 0.025707 -0.006636 -0.000016 0.029167 -0.000004
# 6 -0.000007 0.000017 0.000001 0.272909 -0.000004 0.163314
#
#
# Mechanical properties :
#
#
# Convention : Reuss Voigt Hill
#
# Bulk Modulus (GPa) = 22.66860 56.00552 39.33706
# Shear Modulus (GPa) = 3.56473 23.83506 13.69990
#
# Velocity S-wave (km/s) = 1.23223 3.18630 2.41567
# Velocity P-wave (km/s) = 3.41763 6.11491 4.95340
#
# Compressibility (1/GPa) = 0.04411389
#
# Stress axis : x y z
#
# Youngs Moduli (GPa) = 28.37245 8.31387 96.09078
#
# Poissons Ratio (x) = 0.42338 -0.09015
# Poissons Ratio (y) = 1.44485 1.04966
# Poissons Ratio (z) = -0.02662 0.09082
#
# Static dielectric constant tensor:
#      x y z
#    x 1.972790 0.000000 0.071170 
#    y 0.000000 1.859020 0.000000 
#    z 0.071170 0.000000 1.975410 
# 
# From -- ./inp_files/197074.got.cif
#   From: 2010.05.17/outbox.cif.g08.bks.cpg/sg15_99_cif.got.tgz:197074.got - 2010.06.03 18:47:42.
