data_PCOD9281161
_publ_section_title
;
Structure prediction by ZEFSAII (Michael W. Deem and Ramdas Pophale) SiO2 
 PCOD9281161
Probable space group: C 2/C
;
_chemical_formula_sum "Si O2"
_cell_formula_units_Z 52
_cell_length_a 20.931186
_cell_length_b 23.831192
_cell_length_c 4.993497
_cell_angle_alpha 90.000000
_cell_angle_beta 85.035597
_cell_angle_gamma 90.000000
_cell_volume 2481.487796
_symmetry_space_group_name_H-M "C 2/C"
_symmetry_group_IT_number 15
_symmetry_cell_setting 'monoclinic'
loop_
_space_group_symop_operation_xyz
x,y,z
-x,y,1/2-z
-x,-y,-z
x,-y,1/2+z
1/2+x,1/2+y,z
1/2-x,1/2+y,1/2-z
1/2-x,1/2-y,-z
1/2+x,1/2-y,1/2+z
loop_
_atom_site_type_symbol
_atom_site_label
_atom_site_fract_x
_atom_site_fract_y
_atom_site_fract_z
Si Si1 0.173849 0.196586 0.984205
Si Si2 0.576426 0.532095 0.249143
Si Si3 0.676179 0.822292 0.108829
Si Si4 0.500000 0.957398 0.750000
Si Si5 0.248224 0.464965 0.520587
Si Si6 0.631787 0.108008 0.119890
Si Si7 0.852194 0.128340 0.984428
O O1 0.247885 0.187717 0.864047
O O2 0.131093 0.161370 0.791127
O O3 0.154828 0.261471 0.008207
O O4 0.170095 0.172236 0.283486
O O5 0.500000 0.530674 0.250000
O O6 0.599671 0.482954 0.443652
O O7 0.596410 0.589202 0.384463
O O8 0.639636 0.845233 0.384238
O O9 0.663583 0.866749 0.877143
O O10 0.438041 0.916858 0.795221
O O11 0.500000 0.000000 0.500000
O O12 0.259828 0.516500 0.319644
O O13 0.176193 0.443640 0.509801
O O14 0.294386 0.413773 0.439020
#
# Coordination Sequence:
#
# PCOD9281161 Si02
#       7
#     8   8   8   4   8   8   8
#     4  11  22  38  63  94 126 158 208 255 324 376
#     4  10  21  38  59  84 120 166 205 241 297 377
#     4  11  22  41  64  92 123 165 206 262 317 392
#     4  12  26  46  68  96 128 176 224 272 322 394
#     4  12  22  34  54  88 126 157 198 252 311 374
#     4  12  23  42  65  90 126 169 212 265 324 376
#     4  12  21  37  59  92 124 164 200 261 309 373
#
# _framework density 20.955169000000001
#
# number of rings (size 3 to 8) (size 9 to 14) (size 15 to 20)
#    0.000    0.615    3.077    6.462    0.000    2.462 
#    0.000    0.000    6.769    0.000    0.000    0.000 
#    0.000    0.000    0.000    0.000    0.000    0.000 
#
# Total GULP energy -145372.127398 kJ/mol
# GULP energy per Si atom -5591.235669 kJ/mol
# Density = 2.090747 g / cm^3
# Si number density = 20.955169 Si / 1000 Ang^3
#
#
#
# Elastic Constant Matrix: (Units=GPa)
#
#
# Indices 1 2 3 4 5 6 
#
# 1 73.2331 21.7281 22.5611 0.0000 -2.7667 0.0000
# 2 21.7281 86.6202 28.0133 0.0000 0.4244 0.0000
# 3 22.5611 28.0133 101.1640 0.0000 -3.9503 0.0000
# 4 0.0000 0.0000 0.0000 44.1053 0.0000 -3.2783
# 5 -2.7667 0.4244 -3.9503 0.0000 20.9976 0.0000
# 6 0.0000 0.0000 0.0000 -3.2783 0.0000 23.6580
#
#
#
# Elastic Compliance Matrix: (Units=1/GPa)
#
#
# Indices 1 2 3 4 5 6 
#
# 1 0.015400 -0.003054 -0.002526 0.000000 0.001616 0.000000
# 2 -0.003054 0.013304 -0.003051 0.000000 -0.001245 0.000000
# 3 -0.002526 -0.003051 0.011366 0.000000 0.001867 0.000000
# 4 0.000000 0.000000 0.000000 0.022909 0.000000 0.003175
# 5 0.001616 -0.001245 0.001867 0.000000 0.048214 0.000000
# 6 0.000000 0.000000 0.000000 0.003175 0.000000 0.042709
#
#
# Mechanical properties :
#
#
# Convention : Reuss Voigt Hill
#
# Bulk Modulus (GPa) = 43.84512 45.06915 44.45714
# Shear Modulus (GPa) = 27.96938 30.33317 29.15128
#
# Velocity S-wave (km/s) = 3.65735 3.80877 3.73383
# Velocity P-wave (km/s) = 6.22926 6.39503 6.31269
#
# Compressibility (1/GPa) = 0.02280755
#
# Stress axis : x y z
#
# Youngs Moduli (GPa) = 64.93372 75.16702 87.98097
#
# Poissons Ratio (x) = 0.22957 0.22221
# Poissons Ratio (y) = 0.19832 0.26847
# Poissons Ratio (z) = 0.16400 0.22937
#
# Static dielectric constant tensor:
#      x y z
#    x 1.759590 0.000000 -0.011160 
#    y 0.000000 1.756360 0.000000 
#    z -0.011160 0.000000 1.771210 
# 
# From -- ./inp_files/13361.got.cif
#   From: 2010.05.17/outbox.cif.g08.bks.cpg/sg15_7_cif.got.tgz:13361.got - 2010.06.03 18:47:42.
