data_PCOD9281513
_publ_section_title
;
Structure prediction by ZEFSAII (Michael W. Deem and Ramdas Pophale) SiO2 
 PCOD9281513
Probable space group: C 2/C
;
_chemical_formula_sum "Si O2"
_cell_formula_units_Z 64
_cell_length_a 14.950714
_cell_length_b 14.870770
_cell_length_c 17.353010
_cell_angle_alpha 90.000000
_cell_angle_beta 57.759805
_cell_angle_gamma 90.000000
_cell_volume 3263.230181
_symmetry_space_group_name_H-M "C 2/C"
_symmetry_group_IT_number 15
_symmetry_cell_setting 'monoclinic'
loop_
_space_group_symop_operation_xyz
x,y,z
-x,y,1/2-z
-x,-y,-z
x,-y,1/2+z
1/2+x,1/2+y,z
1/2-x,1/2+y,1/2-z
1/2-x,1/2-y,-z
1/2+x,1/2-y,1/2+z
loop_
_atom_site_type_symbol
_atom_site_label
_atom_site_fract_x
_atom_site_fract_y
_atom_site_fract_z
Si Si1 0.187594 0.773065 0.331529
Si Si2 0.030721 0.918930 0.646178
Si Si3 0.543756 0.080325 0.587200
Si Si4 0.897769 0.244810 0.152490
Si Si5 0.462395 0.898882 0.589966
Si Si6 0.019427 0.877157 0.331618
Si Si7 0.266970 0.349772 0.025570
Si Si8 0.139514 0.255768 0.507064
O O1 0.307249 0.749955 0.257573
O O2 0.121162 0.680455 0.354552
O O3 0.136426 0.841689 0.294811
O O4 0.182350 0.825707 0.415010
O O5 0.152448 0.902164 0.567379
O O6 0.000000 0.906790 0.750000
O O7 0.966756 0.843711 0.630075
O O8 0.996956 0.019260 0.640400
O O9 0.472282 0.168656 0.628948
O O10 0.566556 0.075321 0.484723
O O11 0.654687 0.098078 0.579289
O O12 0.476626 0.989454 0.633386
O O13 0.848567 0.243063 0.089815
O O14 0.576603 0.850097 0.542724
O O15 0.000000 0.865507 0.250000
O O16 0.939178 0.817580 0.419224
O O17 0.250000 0.250000 0.000000
O O18 0.250000 0.250000 0.500000
#
# Coordination Sequence:
#
# PCOD9281513 Si02
#       8
#     8   8   8   8   8   8   8   8
#     4  11  23  40  65  90 131 172 206 265 319 384
#     4  11  24  40  63  94 123 164 215 264 320 383
#     4  10  21  38  62  91 124 161 210 260 312 388
#     4  11  23  39  63  94 126 167 208 257 317 382
#     4   9  20  39  60  89 119 165 209 254 314 379
#     4  10  23  43  63  88 122 164 213 267 321 379
#     4  12  21  39  64  93 128 167 208 263 328 371
#     4  10  21  39  63  89 121 164 211 256 314 378
#
# _framework density 19.612469000000001
#
# number of rings (size 3 to 8) (size 9 to 14) (size 15 to 20)
#    0.000    1.500    2.500    3.000    1.750    3.000 
#    4.500    0.000   13.750    0.000    0.000    0.000 
#    0.000    0.000    0.000    0.000    0.000    0.000 
#
# Total GULP energy -178564.095231 kJ/mol
# GULP energy per Si atom -5580.127976 kJ/mol
# Density = 1.956783 g / cm^3
# Si number density = 19.612469 Si / 1000 Ang^3
#
#
#
# Elastic Constant Matrix: (Units=GPa)
#
#
# Indices 1 2 3 4 5 6 
#
# 1 94.3281 35.4957 6.8982 0.0000 -4.1146 0.0000
# 2 35.4957 108.8459 19.4361 0.0000 10.9514 0.0000
# 3 6.8982 19.4361 51.7428 0.0000 -10.8350 0.0000
# 4 0.0000 0.0000 0.0000 20.1146 0.0000 6.8732
# 5 -4.1146 10.9514 -10.8350 0.0000 24.5830 0.0000
# 6 0.0000 0.0000 0.0000 6.8732 0.0000 13.8361
#
#
#
# Elastic Compliance Matrix: (Units=1/GPa)
#
#
# Indices 1 2 3 4 5 6 
#
# 1 0.012513 -0.004749 0.001099 0.000000 0.004694 0.000000
# 2 -0.004749 0.012739 -0.006067 0.000000 -0.009144 0.000000
# 3 0.001099 -0.006067 0.024307 0.000000 0.013600 0.000000
# 4 0.000000 0.000000 0.000000 0.059879 0.000000 -0.029746
# 5 0.004694 -0.009144 0.013600 0.000000 0.051532 0.000000
# 6 0.000000 0.000000 0.000000 -0.029746 0.000000 0.087051
#
#
# Mechanical properties :
#
#
# Convention : Reuss Voigt Hill
#
# Bulk Modulus (GPa) = 33.19590 42.06409 37.63000
# Shear Modulus (GPa) = 18.01822 24.57919 21.29870
#
# Velocity S-wave (km/s) = 3.03432 3.54396 3.29899
# Velocity P-wave (km/s) = 5.40729 6.18388 5.80858
#
# Compressibility (1/GPa) = 0.03012420
#
# Stress axis : x y z
#
# Youngs Moduli (GPa) = 79.91839 78.49686 41.14104
#
# Poissons Ratio (x) = 0.37278 -0.04520
# Poissons Ratio (y) = 0.37953 0.24960
# Poissons Ratio (z) = -0.08780 0.47623
#
# Static dielectric constant tensor:
#      x y z
#    x 1.715760 0.000000 0.005260 
#    y 0.000000 1.683920 0.000000 
#    z 0.005260 0.000000 1.731530 
# 
# From -- ./inp_files/205398.got.cif
#   From: 2010.05.17/outbox.cif.g08.bks.cpg/sg15_103_cif.got.tgz:205398.got - 2010.06.03 18:47:42.
