data_PCOD9281165
_publ_section_title
;
Structure prediction by ZEFSAII (Michael W. Deem and Ramdas Pophale) SiO2 
 PCOD9281165
Probable space group: C 2/C
;
_chemical_formula_sum "Si O2"
_cell_formula_units_Z 48
_cell_length_a 10.750075
_cell_length_b 30.237888
_cell_length_c 9.309952
_cell_angle_alpha 90.000000
_cell_angle_beta 38.907686
_cell_angle_gamma 90.000000
_cell_volume 1900.713576
_symmetry_space_group_name_H-M "C 2/C"
_symmetry_group_IT_number 15
_symmetry_cell_setting 'monoclinic'
loop_
_space_group_symop_operation_xyz
x,y,z
-x,y,1/2-z
-x,-y,-z
x,-y,1/2+z
1/2+x,1/2+y,z
1/2-x,1/2+y,1/2-z
1/2-x,1/2-y,-z
1/2+x,1/2-y,1/2+z
loop_
_atom_site_type_symbol
_atom_site_label
_atom_site_fract_x
_atom_site_fract_y
_atom_site_fract_z
Si Si1 0.180345 0.963748 0.320015
Si Si2 0.753251 0.804003 0.871398
Si Si3 0.211333 0.611477 0.244243
Si Si4 0.738767 0.625063 0.632008
Si Si5 0.736177 0.534595 0.074458
Si Si6 0.213446 0.707369 0.731394
O O1 0.135906 0.913576 0.318199
O O2 0.313253 0.961116 0.342701
O O3 0.282020 0.985671 0.090400
O O4 0.000000 0.000000 0.500000
O O5 0.810986 0.849640 0.747813
O O6 0.795004 0.760190 0.739976
O O7 0.514096 0.805840 0.085713
O O8 0.813506 0.798585 0.984301
O O9 0.224625 0.568027 0.331395
O O10 0.974837 0.618625 0.442107
O O11 0.290651 0.616307 0.010191
O O12 0.699303 0.674599 0.727210
O O13 0.500000 0.540957 0.250000
#
# Coordination Sequence:
#
# PCOD9281165 Si02
#       6
#     8   8   8   8   8   8
#     4  10  21  38  59  85 118 156 196 249 305 367
#     4   9  18  35  57  87 123 159 207 257 304 369
#     4  10  21  38  60  91 120 160 208 255 308 370
#     4  10  21  38  62  86 123 163 204 257 308 370
#     4  10  21  38  59  85 118 157 195 254 303 367
#     4   9  18  35  58  86 121 163 203 254 311 365
#
# _framework density 25.253672000000002
#
# number of rings (size 3 to 8) (size 9 to 14) (size 15 to 20)
#    0.000    2.333    0.000    2.000    0.000    4.667 
#   12.000    0.000    0.000    0.000    0.000    0.000 
#    0.000    0.000    0.000    0.000    0.000    0.000 
#
# Total GULP energy -134040.025757 kJ/mol
# GULP energy per Si atom -5585.001073 kJ/mol
# Density = 2.519619 g / cm^3
# Si number density = 25.253672 Si / 1000 Ang^3
#
#
#
# Elastic Constant Matrix: (Units=GPa)
#
#
# Indices 1 2 3 4 5 6 
#
# 1 97.2732 38.6248 15.6099 0.0000 29.3147 0.0000
# 2 38.6248 177.4809 35.6209 0.0000 39.0469 0.0000
# 3 15.6099 35.6209 77.9105 0.0000 18.2934 0.0000
# 4 0.0000 0.0000 0.0000 7.3136 0.0000 -8.4916
# 5 29.3147 39.0469 18.2934 0.0000 45.4663 0.0000
# 6 0.0000 0.0000 0.0000 -8.4916 0.0000 36.9426
#
#
#
# Elastic Compliance Matrix: (Units=1/GPa)
#
#
# Indices 1 2 3 4 5 6 
#
# 1 0.012977 -0.001161 -0.000374 0.000000 -0.007220 0.000000
# 2 -0.001161 0.007333 -0.002007 0.000000 -0.004742 0.000000
# 3 -0.000374 -0.002007 0.014761 0.000000 -0.003974 0.000000
# 4 0.000000 0.000000 0.000000 0.186506 0.000000 0.042870
# 5 -0.007220 -0.004742 -0.003974 0.000000 0.032321 0.000000
# 6 0.000000 0.000000 0.000000 0.042870 0.000000 0.036923
#
#
# Mechanical properties :
#
#
# Convention : Reuss Voigt Hill
#
# Bulk Modulus (GPa) = 35.72999 59.15287 47.44143
# Shear Modulus (GPa) = 16.27427 35.46511 25.86969
#
# Velocity S-wave (km/s) = 2.54132 3.75154 3.20409
# Velocity P-wave (km/s) = 4.77391 6.49921 5.70219
#
# Compressibility (1/GPa) = 0.02798769
#
# Stress axis : x y z
#
# Youngs Moduli (GPa) = 77.05939 136.36971 67.74663
#
# Poissons Ratio (x) = 0.15828 0.02535
# Poissons Ratio (y) = 0.08944 0.13595
# Poissons Ratio (z) = 0.02883 0.27366
#
# Static dielectric constant tensor:
#      x y z
#    x 2.038520 0.000000 -0.147350 
#    y 0.000000 1.925280 0.000000 
#    z -0.147350 0.000000 2.282030 
# 
# From -- ./inp_files/33407.got.cif
#   From: 2010.05.17/outbox.cif.g08.bks.cpg/sg15_17_cif.got.tgz:33407.got - 2010.06.03 18:47:42.
