data_PCOD9281179
_publ_section_title
;
Structure prediction by ZEFSAII (Michael W. Deem and Ramdas Pophale) SiO2 
 PCOD9281179
Probable space group: C 2/C
;
_chemical_formula_sum "Si O2"
_cell_formula_units_Z 64
_cell_length_a 22.022099
_cell_length_b 9.052384
_cell_length_c 24.540234
_cell_angle_alpha 90.000000
_cell_angle_beta 143.755681
_cell_angle_gamma 90.000000
_cell_volume 2892.388391
_symmetry_space_group_name_H-M "C 2/C"
_symmetry_group_IT_number 15
_symmetry_cell_setting 'monoclinic'
loop_
_space_group_symop_operation_xyz
x,y,z
-x,y,1/2-z
-x,-y,-z
x,-y,1/2+z
1/2+x,1/2+y,z
1/2-x,1/2+y,1/2-z
1/2-x,1/2-y,-z
1/2+x,1/2-y,1/2+z
loop_
_atom_site_type_symbol
_atom_site_label
_atom_site_fract_x
_atom_site_fract_y
_atom_site_fract_z
Si Si1 0.471912 0.829820 0.621247
Si Si2 0.443031 0.168643 0.595079
Si Si3 0.617707 0.365311 0.849850
Si Si4 0.196863 0.650350 0.302416
Si Si5 0.326282 0.802562 0.218471
Si Si6 0.901771 0.690089 0.949843
Si Si7 0.166750 0.806640 0.396794
Si Si8 0.121978 0.652943 0.074102
O O1 0.592145 0.810245 0.694816
O O2 0.406876 0.805486 0.519448
O O3 0.438166 0.726127 0.646182
O O4 0.453087 0.000722 0.624455
O O5 0.388294 0.275355 0.598295
O O6 0.562520 0.215511 0.672573
O O7 0.384042 0.165276 0.495731
O O8 0.500000 0.403925 0.750000
O O9 0.655812 0.261497 0.829024
O O10 0.677878 0.518819 0.895625
O O11 0.201107 0.474188 0.305366
O O12 0.304520 0.716461 0.360758
O O13 0.176384 0.716564 0.347973
O O14 0.228736 0.717688 0.172103
O O15 0.885944 0.521244 0.918579
O O16 0.017067 0.732026 0.016456
O O17 0.250000 0.750000 0.500000
#
# Coordination Sequence:
#
# PCOD9281179 Si02
#       8
#     8   8   8   8   8   8   8   8
#     4  10  21  40  60  83 120 155 190 241 291 349
#     4   9  21  39  60  86 118 155 194 236 294 345
#     4  10  21  38  59  87 119 153 196 236 284 354
#     4  11  22  39  60  85 119 153 192 242 296 345
#     4  10  22  38  60  88 116 155 194 239 293 347
#     4  10  22  41  59  87 112 156 201 237 295 345
#     4  12  23  35  58  91 120 149 190 236 287 353
#     4  10  22  39  62  82 118 153 197 247 285 348
#
# _framework density 22.127044000000001
#
# number of rings (size 3 to 8) (size 9 to 14) (size 15 to 20)
#    0.000    1.750    1.250    2.625    3.500    5.000 
#    0.000    0.000    0.000    0.000    0.000    0.000 
#    0.000    0.000    0.000    0.000    0.000    0.000 
#
# Total GULP energy -178932.330251 kJ/mol
# GULP energy per Si atom -5591.635320 kJ/mol
# Density = 2.207668 g / cm^3
# Si number density = 22.127044 Si / 1000 Ang^3
#
#
#
# Elastic Constant Matrix: (Units=GPa)
#
#
# Indices 1 2 3 4 5 6 
#
# 1 38.9416 -1.4483 8.1773 0.0000 16.8906 0.0000
# 2 -1.4483 48.4249 33.4295 0.0000 7.2519 0.0000
# 3 8.1773 33.4295 109.0674 0.0000 26.5728 0.0000
# 4 0.0000 0.0000 0.0000 32.2534 0.0000 13.2773
# 5 16.8906 7.2519 26.5728 0.0000 39.0916 0.0000
# 6 0.0000 0.0000 0.0000 13.2773 0.0000 26.5683
#
#
#
# Elastic Compliance Matrix: (Units=1/GPa)
#
#
# Indices 1 2 3 4 5 6 
#
# 1 0.032058 0.002980 0.000231 0.000000 -0.014561 0.000000
# 2 0.002980 0.026486 -0.008187 0.000000 -0.000636 0.000000
# 3 0.000231 -0.008187 0.013561 0.000000 -0.007799 0.000000
# 4 0.000000 0.000000 0.000000 0.039035 0.000000 -0.019507
# 5 -0.014561 -0.000636 -0.007799 0.000000 0.037292 0.000000
# 6 0.000000 0.000000 0.000000 -0.019507 0.000000 0.047388
#
#
# Mechanical properties :
#
#
# Convention : Reuss Voigt Hill
#
# Bulk Modulus (GPa) = 16.08927 30.75007 23.41967
# Shear Modulus (GPa) = 22.07618 30.00100 26.03859
#
# Velocity S-wave (km/s) = 3.16207 3.68618 3.43414
# Velocity P-wave (km/s) = 4.54078 5.66079 5.13143
#
# Compressibility (1/GPa) = 0.06215321
#
# Stress axis : x y z
#
# Youngs Moduli (GPa) = 31.19385 37.75510 73.74261
#
# Poissons Ratio (x) = -0.11252 -0.01701
# Poissons Ratio (y) = -0.09296 0.60370
# Poissons Ratio (z) = -0.00720 0.30909
#
# Static dielectric constant tensor:
#      x y z
#    x 1.836510 0.000000 0.051120 
#    y 0.000000 1.755420 0.000000 
#    z 0.051120 0.000000 1.848950 
# 
# From -- ./inp_files/318649.got.cif
#   From: 2010.05.17/outbox.cif.g08.bks.cpg/sg15_160_cif.got.tgz:318649.got - 2010.06.03 18:47:42.
