data_PCOD9281087
_publ_section_title
;
Structure prediction by ZEFSAII (Michael W. Deem and Ramdas Pophale) SiO2 
 PCOD9281087
Probable space group: C 2/C
;
_chemical_formula_sum "Si O2"
_cell_formula_units_Z 48
_cell_length_a 19.883529
_cell_length_b 8.222362
_cell_length_c 13.971299
_cell_angle_alpha 90.000000
_cell_angle_beta 103.833390
_cell_angle_gamma 90.000000
_cell_volume 2217.909843
_symmetry_space_group_name_H-M "C 2/C"
_symmetry_group_IT_number 15
_symmetry_cell_setting 'monoclinic'
loop_
_space_group_symop_operation_xyz
x,y,z
-x,y,1/2-z
-x,-y,-z
x,-y,1/2+z
1/2+x,1/2+y,z
1/2-x,1/2+y,1/2-z
1/2-x,1/2-y,-z
1/2+x,1/2-y,1/2+z
loop_
_atom_site_type_symbol
_atom_site_label
_atom_site_fract_x
_atom_site_fract_y
_atom_site_fract_z
Si Si1 0.678259 0.882423 0.394869
Si Si2 0.578298 0.865977 0.932621
Si Si3 0.919033 0.039247 0.458312
Si Si4 0.927782 0.450246 0.868025
Si Si5 0.074617 0.795520 0.737261
Si Si6 0.816745 0.243193 0.902502
O O1 0.628816 0.737669 0.339737
O O2 0.747945 0.859921 0.356635
O O3 0.700823 0.859388 0.513359
O O4 0.632400 0.046905 0.380467
O O5 0.498738 0.854736 0.870617
O O6 0.599835 0.691513 0.980641
O O7 0.572936 0.990815 0.020987
O O8 0.904863 0.090595 0.343547
O O9 0.874192 0.881286 0.460204
O O10 0.000000 0.000000 0.500000
O O11 0.932283 0.616304 0.811501
O O12 0.857338 0.346728 0.836318
O O13 0.000000 0.847867 0.750000
#
# Coordination Sequence:
#
# PCOD9281087 Si02
#       6
#     8   8   8   8   8   8
#     4  10  21  38  59  82 114 151 199 238 284 353
#     4   9  17  33  57  80 105 147 188 222 276 355
#     4  11  21  35  59  86 118 151 187 239 302 349
#     4   9  17  33  56  78 105 146 191 220 276 351
#     4  11  21  35  58  84 111 151 199 242 280 341
#     4  10  21  38  58  83 115 154 185 239 303 348
#
# _framework density 21.641997
#
# number of rings (size 3 to 8) (size 9 to 14) (size 15 to 20)
#    0.000    2.000    3.333    1.000    0.000    2.000 
#    0.000    4.167    0.000    0.000    0.000    0.000 
#    0.000    0.000    0.000    0.000    0.000    0.000 
#
# Total GULP energy -133796.064582 kJ/mol
# GULP energy per Si atom -5574.836024 kJ/mol
# Density = 2.159274 g / cm^3
# Si number density = 21.641997 Si / 1000 Ang^3
#
#
#
# Elastic Constant Matrix: (Units=GPa)
#
#
# Indices 1 2 3 4 5 6 
#
# 1 79.1539 -5.5083 -9.5704 0.0000 -4.3827 0.0000
# 2 -5.5083 41.3993 -4.6012 0.0000 -14.8627 0.0000
# 3 -9.5704 -4.6012 60.6590 0.0000 -5.5627 0.0000
# 4 0.0000 0.0000 0.0000 14.5687 0.0000 -9.4842
# 5 -4.3827 -14.8627 -5.5627 0.0000 16.1113 0.0000
# 6 0.0000 0.0000 0.0000 -9.4842 0.0000 29.5648
#
#
#
# Elastic Compliance Matrix: (Units=1/GPa)
#
#
# Indices 1 2 3 4 5 6 
#
# 1 0.014105 0.006160 0.003682 0.000000 0.010791 0.000000
# 2 0.006160 0.041040 0.007963 0.000000 0.042284 0.000000
# 3 0.003682 0.007963 0.019039 0.000000 0.014921 0.000000
# 4 0.000000 0.000000 0.000000 0.086759 0.000000 0.027832
# 5 0.010791 0.042284 0.014921 0.000000 0.109162 0.000000
# 6 0.000000 0.000000 0.000000 0.027832 0.000000 0.042752
#
#
# Mechanical properties :
#
#
# Convention : Reuss Voigt Hill
#
# Bulk Modulus (GPa) = 9.10804 15.76139 12.43472
# Shear Modulus (GPa) = 15.93139 25.44175 20.68657
#
# Velocity S-wave (km/s) = 2.71612 3.43238 3.09504
# Velocity P-wave (km/s) = 3.74887 4.79655 4.30471
#
# Compressibility (1/GPa) = 0.10979306
#
# Stress axis : x y z
#
# Youngs Moduli (GPa) = 70.89691 24.36656 52.52426
#
# Poissons Ratio (x) = -0.15010 -0.19341
# Poissons Ratio (y) = -0.43672 -0.41823
# Poissons Ratio (z) = -0.26106 -0.19402
#
# Static dielectric constant tensor:
#      x y z
#    x 1.821010 0.000000 -0.000530 
#    y 0.000000 1.756880 0.000000 
#    z -0.000530 0.000000 1.839330 
# 
# From -- ./inp_files/159726.got.cif
#   From: 2010.05.17/outbox.cif.g08.bks.cpg/sg15_80_cif.got.tgz:159726.got - 2010.06.03 18:47:42.
