data_PCOD9281601
_publ_section_title
;
Structure prediction by ZEFSAII (Michael W. Deem and Ramdas Pophale) SiO2 
 PCOD9281601
Probable space group: C 2/C
;
_chemical_formula_sum "Si O2"
_cell_formula_units_Z 56
_cell_length_a 17.239815
_cell_length_b 5.150548
_cell_length_c 31.147559
_cell_angle_alpha 90.000000
_cell_angle_beta 110.975643
_cell_angle_gamma 90.000000
_cell_volume 2582.454152
_symmetry_space_group_name_H-M "C 2/C"
_symmetry_group_IT_number 15
_symmetry_cell_setting 'monoclinic'
loop_
_space_group_symop_operation_xyz
x,y,z
-x,y,1/2-z
-x,-y,-z
x,-y,1/2+z
1/2+x,1/2+y,z
1/2-x,1/2+y,1/2-z
1/2-x,1/2-y,-z
1/2+x,1/2-y,1/2+z
loop_
_atom_site_type_symbol
_atom_site_label
_atom_site_fract_x
_atom_site_fract_y
_atom_site_fract_z
Si Si1 0.429834 0.465657 0.020571
Si Si2 0.701079 0.136989 0.922568
Si Si3 0.551218 0.452647 0.879416
Si Si4 0.200327 0.399383 0.754695
Si Si5 0.819899 0.485227 0.990904
Si Si6 0.354041 0.843725 0.661990
Si Si7 0.977224 0.322269 0.291618
O O1 0.461395 0.423471 0.076111
O O2 0.374418 0.724075 0.007156
O O3 0.378429 0.221474 0.993661
O O4 0.500000 0.500000 0.000000
O O5 0.602856 0.194400 0.901368
O O6 0.715934 0.968526 0.968140
O O7 0.713181 0.002534 0.879705
O O8 0.751643 0.398028 0.942986
O O9 0.478138 0.371864 0.832590
O O10 0.614734 0.610155 0.861657
O O11 0.238837 0.152682 0.736660
O O12 0.187010 0.292086 0.800410
O O13 0.108341 0.514480 0.724702
O O14 0.440679 0.997205 0.687864
O O15 0.000000 0.188021 0.250000
#
# Coordination Sequence:
#
# PCOD9281601 Si02
#       7
#     8   8   8   8   8   8   8
#     4  11  23  41  59  92 131 176 210 267 321 385
#     4   9  20  36  62  95 118 160 218 272 311 367
#     4  10  21  38  70  90 129 163 234 264 315 396
#     4  11  27  46  65  97 139 167 209 280 349 397
#     4  10  21  38  63  88 128 163 212 266 319 372
#     4  10  21  41  69  93 126 174 226 269 317 413
#     4   9  22  42  69  96 120 179 220 270 328 406
#
# _framework density 21.684801
#
# number of rings (size 3 to 8) (size 9 to 14) (size 15 to 20)
#    0.000    2.000    1.429    0.429   10.000    2.286 
#    5.143    0.000    0.000    0.000    0.000    0.000 
#    0.000    0.000    0.000    0.000    0.000    0.000 
#
# Total GULP energy -155967.698744 kJ/mol
# GULP energy per Si atom -5570.274955 kJ/mol
# Density = 2.163545 g / cm^3
# Si number density = 21.684801 Si / 1000 Ang^3
#
#
#
# Elastic Constant Matrix: (Units=GPa)
#
#
# Indices 1 2 3 4 5 6 
#
# 1 92.5973 28.7541 52.5642 0.0000 -14.4077 0.0003
# 2 28.7541 75.5965 21.5963 -0.0001 1.9710 0.0007
# 3 52.5642 21.5963 123.8431 0.0001 -3.0772 0.0000
# 4 0.0000 -0.0001 0.0001 22.7308 -0.0001 0.9466
# 5 -14.4077 1.9710 -3.0772 -0.0001 26.5833 0.0000
# 6 0.0003 0.0007 0.0000 0.9466 0.0000 30.8557
#
#
#
# Elastic Compliance Matrix: (Units=1/GPa)
#
#
# Indices 1 2 3 4 5 6 
#
# 1 0.017315 -0.005037 -0.006246 0.000000 0.009035 0.000000
# 2 -0.005037 0.015433 -0.000651 0.000000 -0.003950 0.000000
# 3 -0.006246 -0.000651 0.010788 0.000000 -0.002088 0.000000
# 4 0.000000 0.000000 0.000000 0.044049 0.000000 -0.001351
# 5 0.009035 -0.003950 -0.002088 0.000000 0.042566 0.000000
# 6 0.000000 0.000000 0.000000 -0.001351 0.000000 0.032450
#
#
# Mechanical properties :
#
#
# Convention : Reuss Voigt Hill
#
# Bulk Modulus (GPa) = 50.84913 55.31845 53.08379
# Shear Modulus (GPa) = 25.90311 28.64212 27.27261
#
# Velocity S-wave (km/s) = 3.45994 3.63828 3.55023
# Velocity P-wave (km/s) = 6.28186 6.57381 6.42949
#
# Compressibility (1/GPa) = 0.01966602
#
# Stress axis : x y z
#
# Youngs Moduli (GPa) = 57.75226 64.79553 92.69814
#
# Poissons Ratio (x) = 0.32639 0.57903
# Poissons Ratio (y) = 0.29091 0.06039
# Poissons Ratio (z) = 0.36075 0.04221
#
# Static dielectric constant tensor:
#      x y z
#    x 1.945540 0.000000 0.019480 
#    y 0.000000 1.892110 0.000000 
#    z 0.019480 0.000000 1.903340 
# 
# From -- ./inp_files/314910.got.cif
#   From: 2010.05.17/outbox.cif.g08.bks.cpg/sg15_158_cif.got.tgz:314910.got - 2010.06.03 18:47:42.
