data_PCOD9281721
_publ_section_title
;
Structure prediction by ZEFSAII (Michael W. Deem and Ramdas Pophale) SiO2 
 PCOD9281721
Probable space group: C 2/C
;
_chemical_formula_sum "Si O2"
_cell_formula_units_Z 60
_cell_length_a 21.907792
_cell_length_b 8.934180
_cell_length_c 17.002860
_cell_angle_alpha 90.000000
_cell_angle_beta 76.517140
_cell_angle_gamma 90.000000
_cell_volume 3236.219511
_symmetry_space_group_name_H-M "C 2/C"
_symmetry_group_IT_number 15
_symmetry_cell_setting 'monoclinic'
loop_
_space_group_symop_operation_xyz
x,y,z
-x,y,1/2-z
-x,-y,-z
x,-y,1/2+z
1/2+x,1/2+y,z
1/2-x,1/2+y,1/2-z
1/2-x,1/2-y,-z
1/2+x,1/2-y,1/2+z
loop_
_atom_site_type_symbol
_atom_site_label
_atom_site_fract_x
_atom_site_fract_y
_atom_site_fract_z
Si Si1 0.700966 0.828550 0.457240
Si Si2 0.000000 0.069619 0.250000
Si Si3 0.184803 0.667565 0.502980
Si Si4 0.911395 0.897854 0.492336
Si Si5 0.237379 0.017159 0.707528
Si Si6 0.042551 0.123351 0.885880
Si Si7 0.374356 0.376384 0.862747
Si Si8 0.667915 0.759948 0.827350
O O1 0.750000 0.750000 0.500000
O O2 0.639978 0.724676 0.469304
O O3 0.731637 0.867265 0.363819
O O4 0.687163 0.989972 0.499371
O O5 0.980246 0.971241 0.181492
O O6 0.936861 0.151706 0.294418
O O7 0.250000 0.750000 0.500000
O O8 0.139797 0.730133 0.582763
O O9 0.169111 0.720984 0.420449
O O10 0.978412 0.824731 0.447878
O O11 0.924652 0.013034 0.559942
O O12 0.886258 0.992553 0.424330
O O13 0.203373 0.112127 0.785327
O O14 0.183810 0.926032 0.674906
O O15 0.292196 0.901787 0.716479
O O16 0.093579 0.239287 0.836097
#
# Coordination Sequence:
#
# PCOD9281721 Si02
#       8
#     8   4   8   8   8   8   8   8
#     4  11  22  37  64  97 121 160 212 254 303 372
#     4  10  22  36  64  88 116 162 210 246 298 370
#     4  11  21  39  62  89 126 163 199 255 312 364
#     4  10  21  38  65  90 117 161 212 243 303 363
#     4  11  24  37  60  92 127 163 196 257 313 360
#     4  10  21  38  64  87 120 164 203 258 292 372
#     4  11  19  39  62  90 120 159 205 248 306 365
#     4  11  23  39  58  90 124 161 205 251 310 363
#
# _framework density 18.540151000000002
#
# number of rings (size 3 to 8) (size 9 to 14) (size 15 to 20)
#    0.000    1.333    6.667    0.000    1.867    0.000 
#    0.000    2.667    2.933    0.800    0.000    0.000 
#    0.000    0.000    0.000    0.000    0.000    0.000 
#
# Total GULP energy -167295.596407 kJ/mol
# GULP energy per Si atom -5576.519880 kJ/mol
# Density = 1.849795 g / cm^3
# Si number density = 18.540151 Si / 1000 Ang^3
#
#
#
# Elastic Constant Matrix: (Units=GPa)
#
#
# Indices 1 2 3 4 5 6 
#
# 1 106.7427 45.9490 27.1263 0.0000 -28.7271 0.0000
# 2 45.9490 71.8766 39.9581 0.0000 -7.5910 0.0000
# 3 27.1263 39.9581 65.9955 0.0000 -27.3604 0.0000
# 4 0.0000 0.0000 0.0000 31.4684 0.0000 -5.2871
# 5 -28.7271 -7.5910 -27.3604 0.0000 31.7464 0.0000
# 6 0.0000 0.0000 0.0000 -5.2871 0.0000 38.1685
#
#
#
# Elastic Compliance Matrix: (Units=1/GPa)
#
#
# Indices 1 2 3 4 5 6 
#
# 1 0.020429 -0.017383 0.012554 0.000000 0.025150 0.000000
# 2 -0.017383 0.037656 -0.028696 0.000000 -0.031457 0.000000
# 3 0.012554 -0.028696 0.045483 0.000000 0.043698 0.000000
# 4 0.000000 0.000000 0.000000 0.032535 0.000000 0.004507
# 5 0.025150 -0.031457 0.043698 0.000000 0.084397 0.000000
# 6 0.000000 0.000000 0.000000 0.004507 0.000000 0.026824
#
#
# Mechanical properties :
#
#
# Convention : Reuss Voigt Hill
#
# Bulk Modulus (GPa) = 27.38309 52.29795 39.84052
# Shear Modulus (GPa) = 15.31177 29.04876 22.18027
#
# Velocity S-wave (km/s) = 2.87691 3.96258 3.46256
# Velocity P-wave (km/s) = 5.08303 7.01464 6.12546
#
# Compressibility (1/GPa) = 0.03651888
#
# Stress axis : x y z
#
# Youngs Moduli (GPa) = 48.94988 26.55626 21.98611
#
# Poissons Ratio (x) = 0.46163 -0.27602
# Poissons Ratio (y) = 0.85090 0.63091
# Poissons Ratio (z) = -0.61454 0.76206
#
# Static dielectric constant tensor:
#      x y z
#    x 1.664570 0.000000 -0.026630 
#    y 0.000000 1.628300 0.000000 
#    z -0.026630 0.000000 1.674280 
# 
# From -- ./inp_files/213884.got.cif
#   From: 2010.05.17/outbox.cif.g08.bks.cpg/sg15_107_cif.got.tgz:213884.got - 2010.06.03 18:47:42.
