data_PCOD9281318
_publ_section_title
;
Structure prediction by ZEFSAII (Michael W. Deem and Ramdas Pophale) SiO2 
 PCOD9281318
Probable space group: C 2/C
;
_chemical_formula_sum "Si O2"
_cell_formula_units_Z 56
_cell_length_a 11.786777
_cell_length_b 26.052241
_cell_length_c 9.740014
_cell_angle_alpha 90.000000
_cell_angle_beta 53.223154
_cell_angle_gamma 90.000000
_cell_volume 2395.619378
_symmetry_space_group_name_H-M "C 2/C"
_symmetry_group_IT_number 15
_symmetry_cell_setting 'monoclinic'
loop_
_space_group_symop_operation_xyz
x,y,z
-x,y,1/2-z
-x,-y,-z
x,-y,1/2+z
1/2+x,1/2+y,z
1/2-x,1/2+y,1/2-z
1/2-x,1/2-y,-z
1/2+x,1/2-y,1/2+z
loop_
_atom_site_type_symbol
_atom_site_label
_atom_site_fract_x
_atom_site_fract_y
_atom_site_fract_z
Si Si1 0.759406 0.407733 0.968619
Si Si2 0.098497 0.990905 0.557096
Si Si3 0.133411 0.195406 0.430268
Si Si4 0.470494 0.101241 0.073434
Si Si5 0.925825 0.720529 0.096936
Si Si6 0.209595 0.600137 0.562947
Si Si7 0.500000 0.184692 0.750000
Si Si8 0.000000 0.150606 0.250000
O O1 0.686053 0.352990 0.984101
O O2 0.867332 0.411256 0.017268
O O3 0.861221 0.420360 0.764886
O O4 0.651077 0.453445 0.063965
O O5 0.000000 0.968989 0.750000
O O6 0.228224 0.952951 0.425503
O O7 0.000000 0.000000 0.500000
O O8 0.033215 0.237140 0.572994
O O9 0.043952 0.175821 0.363809
O O10 0.268346 0.225334 0.268878
O O11 0.402644 0.088017 0.976820
O O12 0.465976 0.162343 0.104738
O O13 0.940386 0.717481 0.919753
O O14 0.129188 0.646423 0.700432
O O15 0.349909 0.624586 0.395251
#
# Coordination Sequence:
#
# PCOD9281318 Si02
#       8
#     8   8   8   8   8   8   4   4
#     4  10  21  42  66  89 128 175 222 279 339 404
#     4  12  26  44  69 104 141 180 232 285 347 420
#     4  11  23  39  64  94 130 180 221 284 340 414
#     4   9  20  43  65  87 128 170 221 281 335 409
#     4  10  22  39  58  98 129 171 228 274 342 407
#     4  11  22  40  67  96 131 176 219 282 352 406
#     4  10  21  38  60  98 136 164 222 289 328 422
#     4  12  19  38  64  88 130 174 210 279 360 398
#
# _framework density 23.376000000000001
#
# number of rings (size 3 to 8) (size 9 to 14) (size 15 to 20)
#    0.000    1.429    5.000    2.143    2.000    5.714 
#    2.571    0.000    0.000    0.857    0.000    0.000 
#    0.000    0.000    0.000    0.000    0.000    0.000 
#
# Total GULP energy -156295.909958 kJ/mol
# GULP energy per Si atom -5581.996784 kJ/mol
# Density = 2.332279 g / cm^3
# Si number density = 23.376000 Si / 1000 Ang^3
#
#
#
# Elastic Constant Matrix: (Units=GPa)
#
#
# Indices 1 2 3 4 5 6 
#
# 1 166.7259 40.3936 23.5056 0.0000 -14.0854 0.0000
# 2 40.3936 69.7463 15.7164 0.0000 -25.3180 0.0000
# 3 23.5056 15.7164 55.4027 0.0000 -2.2042 0.0000
# 4 0.0000 0.0000 0.0000 36.8484 0.0000 -22.2044
# 5 -14.0854 -25.3180 -2.2042 0.0000 22.7837 0.0000
# 6 0.0000 0.0000 0.0000 -22.2044 0.0000 10.4204
#
#
#
# Elastic Compliance Matrix: (Units=1/GPa)
#
#
# Indices 1 2 3 4 5 6 
#
# 1 0.007178 -0.003628 -0.002008 0.000000 0.000212 0.000000
# 2 -0.003628 0.027859 -0.005242 0.000000 0.028209 0.000000
# 3 -0.002008 -0.005242 0.020185 0.000000 -0.005113 0.000000
# 4 0.000000 0.000000 0.000000 -0.095548 0.000000 -0.203598
# 5 0.000212 0.028209 -0.005113 0.000000 0.074874 0.000000
# 6 0.000000 0.000000 0.000000 -0.203598 0.000000 -0.337872
#
#
# Mechanical properties :
#
#
# Convention : Reuss Voigt Hill
#
# Bulk Modulus (GPa) = 29.87916 50.12290 40.00103
# Shear Modulus (GPa) = -18.49020 28.16112 4.83546
#
# Velocity S-wave (km/s) = -2.81551 3.47465 1.43981
# Velocity P-wave (km/s) = 1.49676 6.13075 4.46242
#
# Compressibility (1/GPa) = 0.03346814
#
# Stress axis : x y z
#
# Youngs Moduli (GPa) = 139.31998 35.89443 49.54168
#
# Poissons Ratio (x) = 0.13021 0.09947
# Poissons Ratio (y) = 0.50539 0.25968
# Poissons Ratio (z) = 0.27973 0.18815
#
# Static dielectric constant tensor:
#      x y z
#    x 1.917260 0.000000 0.052720 
#    y 0.000000 1.984320 0.000000 
#    z 0.052720 0.000000 1.918690 
# 
# From -- ./inp_files/91745.got.cif
#   From: 2010.05.17/outbox.cif.g08.bks.cpg/sg15_46_cif.got.tgz:91745.got - 2010.06.03 18:47:42.
