data_PCOD9281279
_publ_section_title
;
Structure prediction by ZEFSAII (Michael W. Deem and Ramdas Pophale) SiO2 
 PCOD9281279
Probable space group: C 2/C
;
_chemical_formula_sum "Si O2"
_cell_formula_units_Z 64
_cell_length_a 16.656637
_cell_length_b 25.755633
_cell_length_c 13.407654
_cell_angle_alpha 90.000000
_cell_angle_beta 146.646133
_cell_angle_gamma 90.000000
_cell_volume 3162.450135
_symmetry_space_group_name_H-M "C 2/C"
_symmetry_group_IT_number 15
_symmetry_cell_setting 'monoclinic'
loop_
_space_group_symop_operation_xyz
x,y,z
-x,y,1/2-z
-x,-y,-z
x,-y,1/2+z
1/2+x,1/2+y,z
1/2-x,1/2+y,1/2-z
1/2-x,1/2-y,-z
1/2+x,1/2-y,1/2+z
loop_
_atom_site_type_symbol
_atom_site_label
_atom_site_fract_x
_atom_site_fract_y
_atom_site_fract_z
Si Si1 0.430553 0.870230 0.449475
Si Si2 0.879885 0.446752 0.212467
Si Si3 0.161548 0.294280 0.463066
Si Si4 0.876832 0.146633 0.538040
Si Si5 0.647416 0.218358 0.182661
Si Si6 0.873777 0.840495 0.344564
Si Si7 0.875239 0.432433 0.705728
Si Si8 0.845122 0.874070 0.542231
O O1 0.414560 0.901358 0.329108
O O2 0.490813 0.811420 0.516598
O O3 0.275262 0.868806 0.344099
O O4 0.557080 0.901499 0.632958
O O5 0.873876 0.507172 0.234336
O O6 0.000000 0.442786 0.250000
O O7 0.711583 0.432664 0.016550
O O8 0.250000 0.250000 0.500000
O O9 0.189168 0.288533 0.609445
O O10 0.228031 0.347160 0.492020
O O11 0.000000 0.290413 0.250000
O O12 0.761683 0.190786 0.378018
O O13 0.778084 0.097667 0.471560
O O14 0.000000 0.161193 0.750000
O O15 0.980391 0.135377 0.549938
O O16 0.629986 0.279397 0.185356
O O17 0.858626 0.847368 0.447963
O O18 0.000000 0.427045 0.750000
O O19 0.000000 0.868039 0.750000
#
# Coordination Sequence:
#
# PCOD9281279 Si02
#       8
#     8   8   8   8   8   8   8   8
#     4  10  21  38  60  90 122 160 205 258 303 373
#     4  10  21  39  63  90 120 159 206 261 311 378
#     4  12  23  36  61  94 130 176 207 238 297 374
#     4  11  25  42  62  88 119 161 217 271 315 366
#     4  11  23  38  62  91 130 172 207 245 303 371
#     4  11  22  38  60  87 127 162 203 251 307 372
#     4  10  22  43  67  85 111 156 212 268 328 371
#     4  11  22  37  57  93 134 165 199 245 307 379
#
# _framework density 20.237473000000001
#
# number of rings (size 3 to 8) (size 9 to 14) (size 15 to 20)
#    0.000    1.250    1.250    5.625    1.750    2.000 
#    0.000    5.625    0.000    0.000    0.000    0.000 
#    0.000    0.000    0.000    0.000    0.000    0.000 
#
# Total GULP energy -178243.150728 kJ/mol
# GULP energy per Si atom -5570.098460 kJ/mol
# Density = 2.019141 g / cm^3
# Si number density = 20.237473 Si / 1000 Ang^3
#
#
#
# Elastic Constant Matrix: (Units=GPa)
#
#
# Indices 1 2 3 4 5 6 
#
# 1 53.0531 22.9452 20.2889 0.0000 19.9967 0.0000
# 2 22.9452 98.2323 34.8777 0.0000 14.0357 0.0000
# 3 20.2889 34.8777 111.6291 0.0000 11.0252 0.0000
# 4 0.0000 0.0000 0.0000 17.9575 0.0000 9.3496
# 5 19.9967 14.0357 11.0252 0.0000 36.0148 0.0000
# 6 0.0000 0.0000 0.0000 9.3496 0.0000 20.5478
#
#
#
# Elastic Compliance Matrix: (Units=1/GPa)
#
#
# Indices 1 2 3 4 5 6 
#
# 1 0.025894 -0.003432 -0.002419 0.000000 -0.012299 0.000000
# 2 -0.003432 0.012342 -0.003037 0.000000 -0.001975 0.000000
# 3 -0.002419 -0.003037 0.010412 0.000000 -0.000660 0.000000
# 4 0.000000 0.000000 0.000000 0.072975 0.000000 -0.033205
# 5 -0.012299 -0.001975 -0.000660 0.000000 0.035567 0.000000
# 6 0.000000 0.000000 0.000000 -0.033205 0.000000 0.063776
#
#
# Mechanical properties :
#
#
# Convention : Reuss Voigt Hill
#
# Bulk Modulus (GPa) = 32.39265 46.57090 39.48178
# Shear Modulus (GPa) = 20.07751 27.22420 23.65085
#
# Velocity S-wave (km/s) = 3.15317 3.67173 3.42228
# Velocity P-wave (km/s) = 5.41273 6.40606 5.93023
#
# Compressibility (1/GPa) = 0.03087120
#
# Stress axis : x y z
#
# Youngs Moduli (GPa) = 38.61832 81.02280 96.04121
#
# Poissons Ratio (x) = 0.27808 0.23235
# Poissons Ratio (y) = 0.13254 0.29172
# Poissons Ratio (z) = 0.09343 0.24610
#
# Static dielectric constant tensor:
#      x y z
#    x 1.908740 0.000000 -0.021710 
#    y 0.000000 1.884730 0.000000 
#    z -0.021710 0.000000 1.784880 
# 
# From -- ./inp_files/164236.got.cif
#   From: 2010.05.17/outbox.cif.g08.bks.cpg/sg15_83_cif.got.tgz:164236.got - 2010.06.03 18:47:42.
