data_PCOD9281517
_publ_section_title
;
Structure prediction by ZEFSAII (Michael W. Deem and Ramdas Pophale) SiO2 
 PCOD9281517
Probable space group: C 2/C
;
_chemical_formula_sum "Si O2"
_cell_formula_units_Z 60
_cell_length_a 11.353097
_cell_length_b 30.980154
_cell_length_c 9.256004
_cell_angle_alpha 90.000000
_cell_angle_beta 79.076070
_cell_angle_gamma 90.000000
_cell_volume 3196.536836
_symmetry_space_group_name_H-M "C 2/C"
_symmetry_group_IT_number 15
_symmetry_cell_setting 'monoclinic'
loop_
_space_group_symop_operation_xyz
x,y,z
-x,y,1/2-z
-x,-y,-z
x,-y,1/2+z
1/2+x,1/2+y,z
1/2-x,1/2+y,1/2-z
1/2-x,1/2-y,-z
1/2+x,1/2-y,1/2+z
loop_
_atom_site_type_symbol
_atom_site_label
_atom_site_fract_x
_atom_site_fract_y
_atom_site_fract_z
Si Si1 0.634288 0.446104 0.755344
Si Si2 0.170028 0.728736 0.837291
Si Si3 0.000000 0.800100 0.750000
Si Si4 0.630577 0.796206 0.653047
Si Si5 0.862582 0.350964 0.335462
Si Si6 0.240230 0.988145 0.005888
Si Si7 0.235732 0.144644 0.162730
Si Si8 0.141460 0.445341 0.251151
O O1 0.500000 0.432928 0.750000
O O2 0.662897 0.485141 0.639551
O O3 0.714695 0.405355 0.696851
O O4 0.661138 0.459485 0.914321
O O5 0.295470 0.752412 0.834832
O O6 0.186361 0.695045 0.705608
O O7 0.071329 0.766340 0.836272
O O8 0.128788 0.700278 0.982114
O O9 0.891654 0.830292 0.836122
O O10 0.500000 0.794575 0.750000
O O11 0.706517 0.833507 0.710629
O O12 0.830496 0.351590 0.511219
O O13 0.812177 0.396243 0.283467
O O14 0.000000 0.350094 0.250000
O O15 0.328301 0.961469 0.093031
O O16 0.303733 0.021931 0.881311
O O17 0.000000 0.445029 0.250000
#
# Coordination Sequence:
#
# PCOD9281517 Si02
#       8
#     8   8   4   8   8   8   8   8
#     4  11  22  42  64  92 123 164 210 261 314 377
#     4  10  22  39  61  87 120 158 209 254 312 370
#     4  10  22  40  68  88 120 164 208 256 320 370
#     4  10  23  39  58  87 123 161 204 255 313 374
#     4  11  22  38  62  90 124 162 209 255 307 373
#     4  10  22  40  64  90 124 164 206 252 315 374
#     4  11  23  40  64  93 124 163 210 259 314 376
#     4  10  21  38  62  91 126 160 203 251 308 374
#
# _framework density 18.770313000000002
#
# number of rings (size 3 to 8) (size 9 to 14) (size 15 to 20)
#    0.000    1.600    2.667    1.600    3.733    1.067 
#    0.000    0.667    0.000    0.000    0.000    0.000 
#    0.000    0.000    0.000    0.000    0.000    0.000 
#
# Total GULP energy -167170.441770 kJ/mol
# GULP energy per Si atom -5572.348059 kJ/mol
# Density = 1.872759 g / cm^3
# Si number density = 18.770313 Si / 1000 Ang^3
#
#
#
# Elastic Constant Matrix: (Units=GPa)
#
#
# Indices 1 2 3 4 5 6 
#
# 1 59.6842 -6.6243 12.4766 0.0000 6.8976 0.0000
# 2 -6.6243 56.9806 14.2639 0.0000 16.8412 0.0000
# 3 12.4766 14.2639 82.4266 0.0000 21.4712 0.0000
# 4 0.0000 0.0000 0.0000 35.2210 0.0000 11.7726
# 5 6.8976 16.8412 21.4712 0.0000 25.8492 0.0000
# 6 0.0000 0.0000 0.0000 11.7726 0.0000 46.5528
#
#
#
# Elastic Compliance Matrix: (Units=1/GPa)
#
#
# Indices 1 2 3 4 5 6 
#
# 1 0.018370 0.004451 -0.001938 0.000000 -0.006192 0.000000
# 2 0.004451 0.022814 -0.000562 0.000000 -0.015585 0.000000
# 3 -0.001938 -0.000562 0.015687 0.000000 -0.012147 0.000000
# 4 0.000000 0.000000 0.000000 0.031014 0.000000 -0.007843
# 5 -0.006192 -0.015585 -0.012147 0.000000 0.060581 0.000000
# 6 0.000000 0.000000 0.000000 -0.007843 0.000000 0.023464
#
#
# Mechanical properties :
#
#
# Convention : Reuss Voigt Hill
#
# Bulk Modulus (GPa) = 16.45498 26.59152 21.52325
# Shear Modulus (GPa) = 26.55550 33.45627 30.00589
#
# Velocity S-wave (km/s) = 3.76541 4.22643 4.00256
# Velocity P-wave (km/s) = 5.26212 6.16559 5.73169
#
# Compressibility (1/GPa) = 0.06077186
#
# Stress axis : x y z
#
# Youngs Moduli (GPa) = 54.43804 43.83246 63.74860
#
# Poissons Ratio (x) = -0.19509 0.12353
# Poissons Ratio (y) = -0.24229 0.03583
# Poissons Ratio (z) = 0.10549 0.02464
#
# Static dielectric constant tensor:
#      x y z
#    x 1.666190 0.000000 0.036250 
#    y 0.000000 1.654420 0.000000 
#    z 0.036250 0.000000 1.802000 
# 
# From -- ./inp_files/35657.got.cif
#   From: 2010.05.17/outbox.cif.g08.bks.cpg/sg15_18_cif.got.tgz:35657.got - 2010.06.03 18:47:42.
