data_PCOD9281625
_publ_section_title
;
Structure prediction by ZEFSAII (Michael W. Deem and Ramdas Pophale) SiO2 
 PCOD9281625
Probable space group: C 2/C
;
_chemical_formula_sum "Si O2"
_cell_formula_units_Z 48
_cell_length_a 21.925704
_cell_length_b 11.638513
_cell_length_c 12.063082
_cell_angle_alpha 90.000000
_cell_angle_beta 125.103824
_cell_angle_gamma 90.000000
_cell_volume 2518.382743
_symmetry_space_group_name_H-M "C 2/C"
_symmetry_group_IT_number 15
_symmetry_cell_setting 'monoclinic'
loop_
_space_group_symop_operation_xyz
x,y,z
-x,y,1/2-z
-x,-y,-z
x,-y,1/2+z
1/2+x,1/2+y,z
1/2-x,1/2+y,1/2-z
1/2-x,1/2-y,-z
1/2+x,1/2-y,1/2+z
loop_
_atom_site_type_symbol
_atom_site_label
_atom_site_fract_x
_atom_site_fract_y
_atom_site_fract_z
Si Si1 0.156948 0.096811 0.090265
Si Si2 0.419291 0.941790 0.409312
Si Si3 0.681146 0.330970 0.067530
Si Si4 0.648891 0.252081 0.792032
Si Si5 0.825692 0.660123 0.241377
Si Si6 0.083420 0.714194 0.381534
O O1 0.145886 0.139354 0.205289
O O2 0.237245 0.147353 0.138882
O O3 0.161627 0.961677 0.075857
O O4 0.096740 0.162737 0.952648
O O5 0.411820 0.840958 0.310349
O O6 0.401819 0.880116 0.507591
O O7 0.500000 0.000000 0.500000
O O8 0.360520 0.039895 0.317399
O O9 0.770153 0.308810 0.142904
O O10 0.657573 0.251910 0.145379
O O11 0.644478 0.290791 0.913984
O O12 0.861990 0.695697 0.164043
O O13 0.000000 0.701356 0.250000
#
# Coordination Sequence:
#
# PCOD9281625 Si02
#       6
#     8   8   8   8   8   8
#     4  10  22  40  64  90 124 164 205 258 302 374
#     4  11  22  40  63  89 126 160 198 262 305 360
#     4  10  21  38  63  91 121 162 205 257 299 368
#     4   9  21  39  60  93 126 157 207 253 310 360
#     4  11  23  38  64  94 120 161 213 247 317 363
#     4  11  24  41  61  92 127 163 202 254 312 367
#
# _framework density 19.059850999999998
#
# number of rings (size 3 to 8) (size 9 to 14) (size 15 to 20)
#    0.000    1.667    3.333    0.500    4.667    1.333 
#    0.000    2.500    0.000    0.000    0.000    0.000 
#    0.000    0.000    0.000    0.000    0.000    0.000 
#
# Total GULP energy -134063.904692 kJ/mol
# GULP energy per Si atom -5585.996029 kJ/mol
# Density = 1.901647 g / cm^3
# Si number density = 19.059851 Si / 1000 Ang^3
#
#
#
# Elastic Constant Matrix: (Units=GPa)
#
#
# Indices 1 2 3 4 5 6 
#
# 1 35.9248 16.6775 19.2780 0.0000 -24.4797 0.0000
# 2 16.6775 139.1728 54.1485 0.0000 -35.3697 0.0000
# 3 19.2780 54.1485 111.9904 0.0000 -26.3699 0.0000
# 4 0.0000 0.0000 0.0000 25.3821 0.0000 7.3570
# 5 -24.4797 -35.3697 -26.3699 0.0000 33.5049 0.0000
# 6 0.0000 0.0000 0.0000 7.3570 0.0000 19.4401
#
#
#
# Elastic Compliance Matrix: (Units=1/GPa)
#
#
# Indices 1 2 3 4 5 6 
#
# 1 0.058318 0.005673 -0.001643 0.000000 0.047304 0.000000
# 2 0.005673 0.011162 -0.003220 0.000000 0.013394 0.000000
# 3 -0.001643 -0.003220 0.011889 0.000000 0.004758 0.000000
# 4 0.000000 0.000000 0.000000 0.044252 0.000000 -0.016747
# 5 0.047304 0.013394 0.004758 0.000000 0.082293 0.000000
# 6 0.000000 0.000000 0.000000 -0.016747 0.000000 0.057778
#
#
# Mechanical properties :
#
#
# Convention : Reuss Voigt Hill
#
# Bulk Modulus (GPa) = 12.04972 51.92178 31.98575
# Shear Modulus (GPa) = 17.13884 28.79770 22.96827
#
# Velocity S-wave (km/s) = 3.00194 3.89126 3.47516
# Velocity P-wave (km/s) = 4.28384 6.89128 5.73764
#
# Compressibility (1/GPa) = 0.08298950
#
# Stress axis : x y z
#
# Youngs Moduli (GPa) = 17.14736 89.58767 84.10920
#
# Poissons Ratio (x) = -0.50822 0.13821
# Poissons Ratio (y) = -0.09728 0.27081
# Poissons Ratio (z) = 0.02818 0.28845
#
# Static dielectric constant tensor:
#      x y z
#    x 1.653540 0.000000 0.022470 
#    y 0.000000 1.643610 0.000000 
#    z 0.022470 0.000000 1.664780 
# 
# From -- ./inp_files/110859.got.cif
#   From: 2010.05.17/outbox.cif.g08.bks.cpg/sg15_56_cif.got.tgz:110859.got - 2010.06.03 18:47:42.
