data_PCOD9281920
_publ_section_title
;
Structure prediction by ZEFSAII (Michael W. Deem and Ramdas Pophale) SiO2 
 PCOD9281920
Probable space group: C 2/C
;
_chemical_formula_sum "Si O2"
_cell_formula_units_Z 56
_cell_length_a 9.441540
_cell_length_b 22.631735
_cell_length_c 14.798374
_cell_angle_alpha 90.000000
_cell_angle_beta 64.865843
_cell_angle_gamma 90.000000
_cell_volume 2862.692908
_symmetry_space_group_name_H-M "C 2/C"
_symmetry_group_IT_number 15
_symmetry_cell_setting 'monoclinic'
loop_
_space_group_symop_operation_xyz
x,y,z
-x,y,1/2-z
-x,-y,-z
x,-y,1/2+z
1/2+x,1/2+y,z
1/2-x,1/2+y,1/2-z
1/2-x,1/2-y,-z
1/2+x,1/2-y,1/2+z
loop_
_atom_site_type_symbol
_atom_site_label
_atom_site_fract_x
_atom_site_fract_y
_atom_site_fract_z
Si Si1 0.339589 0.958084 0.351640
Si Si2 0.612630 0.764458 0.969605
Si Si3 0.319344 0.297471 0.552625
Si Si4 0.396056 0.089400 0.368791
Si Si5 0.174051 0.893918 0.239983
Si Si6 0.512131 0.107208 0.960414
Si Si7 0.663648 0.254080 0.257937
O O1 0.500000 0.955455 0.250000
O O2 0.211662 0.929047 0.321408
O O3 0.383236 0.923093 0.430975
O O4 0.311221 0.026947 0.377519
O O5 0.667366 0.776627 0.853203
O O6 0.750000 0.750000 0.000000
O O7 0.502755 0.706775 0.987050
O O8 0.519732 0.822414 0.027725
O O9 0.250000 0.250000 0.500000
O O10 0.225938 0.358238 0.576002
O O11 0.294430 0.272367 0.658876
O O12 0.500000 0.101382 0.250000
O O13 0.495634 0.084516 0.434315
O O14 0.315391 0.904870 0.129512
O O15 0.182551 0.824163 0.258798
O O16 0.000000 0.906516 0.250000
O O17 0.500000 0.243062 0.250000
#
# Coordination Sequence:
#
# PCOD9281920 Si02
#       7
#     8   8   8   8   8   8   8
#     4   9  21  39  64  91 120 161 203 254 304 358
#     4  12  25  37  59  93 128 155 200 256 309 358
#     4  12  21  39  63  90 120 159 205 244 302 368
#     4  11  22  39  66  92 121 161 209 251 300 369
#     4  10  21  38  66  91 120 155 207 251 299 362
#     4  11  20  41  62  90 122 163 205 249 300 373
#     4  11  20  36  62  88 118 159 196 246 300 362
#
# _framework density 19.562000999999999
#
# number of rings (size 3 to 8) (size 9 to 14) (size 15 to 20)
#    0.000    1.143    4.286    2.571    2.000    0.571 
#    0.000    0.714   12.571    0.000    0.000    0.000 
#    0.000    0.000    0.000    0.000    0.000    0.000 
#
# Total GULP energy -156313.991064 kJ/mol
# GULP energy per Si atom -5582.642538 kJ/mol
# Density = 1.951748 g / cm^3
# Si number density = 19.562001 Si / 1000 Ang^3
#
#
#
# Elastic Constant Matrix: (Units=GPa)
#
#
# Indices 1 2 3 4 5 6 
#
# 1 99.2834 32.2007 38.7973 0.0000 29.3809 0.0000
# 2 32.2007 97.7758 26.7349 0.0000 25.2507 0.0000
# 3 38.7973 26.7349 125.6860 0.0000 25.8079 0.0000
# 4 0.0000 0.0000 0.0000 30.0106 0.0000 4.7165
# 5 29.3809 25.2507 25.8079 0.0000 30.9227 0.0000
# 6 0.0000 0.0000 0.0000 4.7165 0.0000 25.1378
#
#
#
# Elastic Compliance Matrix: (Units=1/GPa)
#
#
# Indices 1 2 3 4 5 6 
#
# 1 0.014558 -0.001408 -0.001919 0.000000 -0.011081 0.000000
# 2 -0.001408 0.013149 -0.000522 0.000000 -0.008964 0.000000
# 3 -0.001919 -0.000522 0.009893 0.000000 -0.006007 0.000000
# 4 0.000000 0.000000 0.000000 0.034334 0.000000 -0.006442
# 5 -0.011081 -0.008964 -0.006007 0.000000 0.055200 0.000000
# 6 0.000000 0.000000 0.000000 -0.006442 0.000000 0.040989
#
#
# Mechanical properties :
#
#
# Convention : Reuss Voigt Hill
#
# Bulk Modulus (GPa) = 33.44233 57.57901 45.51067
# Shear Modulus (GPa) = 26.91239 32.21506 29.56373
#
# Velocity S-wave (km/s) = 3.71313 4.06250 3.89174
# Velocity P-wave (km/s) = 5.95951 7.17658 6.59618
#
# Compressibility (1/GPa) = 0.02990223
#
# Stress axis : x y z
#
# Youngs Moduli (GPa) = 68.69148 76.05309 101.07929
#
# Poissons Ratio (x) = 0.10709 0.19397
# Poissons Ratio (y) = 0.09672 0.05273
# Poissons Ratio (z) = 0.13182 0.03967
#
# Static dielectric constant tensor:
#      x y z
#    x 1.735320 0.000000 -0.072130 
#    y 0.000000 1.676210 0.000000 
#    z -0.072130 0.000000 1.771870 
# 
# From -- ./inp_files/137269.got.cif
#   From: 2010.05.17/outbox.cif.g08.bks.cpg/sg15_69_cif.got.tgz:137269.got - 2010.06.03 18:47:42.
