data_PCOD9281523
_publ_section_title
;
Structure prediction by ZEFSAII (Michael W. Deem and Ramdas Pophale) SiO2 
 PCOD9281523
Probable space group: C 2/C
;
_chemical_formula_sum "Si O2"
_cell_formula_units_Z 40
_cell_length_a 18.386017
_cell_length_b 24.107095
_cell_length_c 5.071077
_cell_angle_alpha 90.000000
_cell_angle_beta 130.498571
_cell_angle_gamma 90.000000
_cell_volume 1709.178841
_symmetry_space_group_name_H-M "C 2/C"
_symmetry_group_IT_number 15
_symmetry_cell_setting 'monoclinic'
loop_
_space_group_symop_operation_xyz
x,y,z
-x,y,1/2-z
-x,-y,-z
x,-y,1/2+z
1/2+x,1/2+y,z
1/2-x,1/2+y,1/2-z
1/2-x,1/2-y,-z
1/2+x,1/2-y,1/2+z
loop_
_atom_site_type_symbol
_atom_site_label
_atom_site_fract_x
_atom_site_fract_y
_atom_site_fract_z
Si Si1 0.500000 0.040264 0.250000
Si Si2 0.500000 0.297694 0.250000
Si Si3 0.291179 0.040524 0.830649
Si Si4 0.500000 0.770796 0.250000
Si Si5 0.839057 0.879984 0.771101
Si Si6 0.500000 0.537963 0.750000
Si Si7 0.785868 0.713879 0.332828
O O1 0.603614 0.068278 0.467458
O O2 0.500000 0.000000 0.500000
O O3 0.462300 0.261951 0.402970
O O4 0.579945 0.333818 0.589688
O O5 0.213490 0.087732 0.587656
O O6 0.283308 0.991743 0.589037
O O7 0.599913 0.797182 0.390336
O O8 0.763769 0.846319 0.767627
O O9 0.904980 0.925865 0.059798
O O10 0.500000 0.500000 0.500000
O O11 0.750000 0.750000 0.500000
O O12 0.750000 0.750000 0.000000
#
# Coordination Sequence:
#
# PCOD9281523 Si02
#       7
#     4   4   8   4   8   4   8
#     4   8  16  34  56  81 114 169 208 260 334 396
#     4  11  24  40  69  95 132 187 226 287 353 434
#     4  10  21  38  62  91 133 173 223 284 344 416
#     4  12  22  47  67  97 140 175 239 289 356 416
#     4  11  24  42  69 104 136 189 237 287 366 424
#     4  11  26  45  70 107 148 185 241 298 359 442
#     4  12  25  44  71 101 139 190 242 300 364 435
#
# _framework density 23.403051999999999
#
# number of rings (size 3 to 8) (size 9 to 14) (size 15 to 20)
#    0.000    1.200    4.000    1.200    0.000    8.000 
#    0.000    9.000    0.000    0.000    0.000    0.000 
#    0.000    0.000    0.000    0.000    0.000    0.000 
#
# Total GULP energy -111626.994976 kJ/mol
# GULP energy per Si atom -5581.349749 kJ/mol
# Density = 2.334979 g / cm^3
# Si number density = 23.403052 Si / 1000 Ang^3
#
#
#
# Elastic Constant Matrix: (Units=GPa)
#
#
# Indices 1 2 3 4 5 6 
#
# 1 118.9038 41.6631 57.3797 0.0000 12.7621 0.0000
# 2 41.6631 81.6842 39.6046 0.0000 9.2831 0.0000
# 3 57.3797 39.6046 114.5764 0.0000 17.6920 0.0000
# 4 0.0000 0.0000 0.0000 -16.9672 0.0000 -24.9114
# 5 12.7621 9.2831 17.6920 0.0000 77.0955 0.0000
# 6 0.0000 0.0000 0.0000 -24.9114 0.0000 -29.3332
#
#
#
# Elastic Compliance Matrix: (Units=1/GPa)
#
#
# Indices 1 2 3 4 5 6 
#
# 1 0.012041 -0.003844 -0.004629 0.000000 -0.000468 0.000000
# 2 -0.003844 0.015963 -0.003519 0.000000 -0.000478 0.000000
# 3 -0.004629 -0.003519 0.012522 0.000000 -0.001684 0.000000
# 4 0.000000 0.000000 0.000000 0.238730 0.000000 -0.202742
# 5 -0.000468 -0.000478 -0.001684 0.000000 0.013492 0.000000
# 6 0.000000 0.000000 0.000000 -0.202742 0.000000 0.138089
#
#
# Mechanical properties :
#
#
# Convention : Reuss Voigt Hill
#
# Bulk Modulus (GPa) = 60.44966 65.82878 63.13922
# Shear Modulus (GPa) = 10.86161 17.92681 14.39421
#
# Velocity S-wave (km/s) = 2.15666 2.77068 2.48273
# Velocity P-wave (km/s) = 5.66458 6.19878 5.93769
#
# Compressibility (1/GPa) = 0.01654269
#
# Stress axis : x y z
#
# Youngs Moduli (GPa) = 83.04788 62.64312 79.85626
#
# Poissons Ratio (x) = 0.24080 0.36967
# Poissons Ratio (y) = 0.31923 0.28102
# Poissons Ratio (z) = 0.38445 0.22044
#
# Static dielectric constant tensor:
#      x y z
#    x 2.036490 0.000000 0.175430 
#    y 0.000000 1.935930 0.000000 
#    z 0.175430 0.000000 1.998720 
# 
# From -- ./inp_files/14003.got.cif
#   From: 2010.05.17/outbox.cif.g08.bks.cpg/sg15_8_cif.got.tgz:14003.got - 2010.06.03 18:47:42.
