data_PCOD9281116
_publ_section_title
;
Structure prediction by ZEFSAII (Michael W. Deem and Ramdas Pophale) SiO2 
 PCOD9281116
Probable space group: C 2/C
;
_chemical_formula_sum "Si O2"
_cell_formula_units_Z 36
_cell_length_a 13.543444
_cell_length_b 25.153443
_cell_length_c 13.349105
_cell_angle_alpha 90.000000
_cell_angle_beta 21.677942
_cell_angle_gamma 90.000000
_cell_volume 1679.819802
_symmetry_space_group_name_H-M "C 2/C"
_symmetry_group_IT_number 15
_symmetry_cell_setting 'monoclinic'
loop_
_space_group_symop_operation_xyz
x,y,z
-x,y,1/2-z
-x,-y,-z
x,-y,1/2+z
1/2+x,1/2+y,z
1/2-x,1/2+y,1/2-z
1/2-x,1/2-y,-z
1/2+x,1/2-y,1/2+z
loop_
_atom_site_type_symbol
_atom_site_label
_atom_site_fract_x
_atom_site_fract_y
_atom_site_fract_z
Si Si1 0.500000 0.211936 0.250000
Si Si2 0.775503 0.936101 0.543512
Si Si3 0.728743 0.396212 0.730133
Si Si4 0.064487 0.712753 0.411239
Si Si5 0.677720 0.939579 0.176548
O O1 0.250000 0.250000 0.500000
O O2 0.537177 0.187732 0.324697
O O3 0.500000 0.920378 0.750000
O O4 0.829211 0.909180 0.599158
O O5 0.757178 0.999313 0.582374
O O6 0.000000 0.924609 0.250000
O O7 0.832743 0.336051 0.619794
O O8 0.973295 0.433104 0.461882
O O9 0.452799 0.408218 0.933352
O O10 0.784174 0.740173 0.702351
O O11 0.500000 0.921028 0.250000
#
# Coordination Sequence:
#
# PCOD9281116 Si02
#       5
#     4   8   8   8   8
#     4   8  16  32  52  76 112 154 184 224 290 356
#     4  11  23  40  62  96 132 158 195 252 308 379
#     4  12  23  39  67  91 122 167 208 250 304 373
#     4  10  21  38  58  87 123 160 199 249 301 358
#     4  11  23  42  63  89 122 163 211 258 307 358
#
# _framework density 21.430869999999999
#
# number of rings (size 3 to 8) (size 9 to 14) (size 15 to 20)
#    0.000    1.333    0.000    7.333    1.556    0.000 
#    8.000    0.000    0.000   13.333    0.000    0.000 
#    0.000    0.000    0.000    0.000    0.000    0.000 
#
# Total GULP energy -100585.252642 kJ/mol
# GULP energy per Si atom -5588.069591 kJ/mol
# Density = 2.138209 g / cm^3
# Si number density = 21.430870 Si / 1000 Ang^3
#
#
#
# Elastic Constant Matrix: (Units=GPa)
#
#
# Indices 1 2 3 4 5 6 
#
# 1 51.6082 28.1721 5.7252 0.3304 -19.7777 -0.3719
# 2 28.1721 46.0798 -5.4686 -0.1573 -17.8578 0.1738
# 3 5.7252 -5.4686 118.1156 -0.0228 -8.2802 -0.0295
# 4 0.3304 -0.1573 -0.0228 38.0354 -0.2438 -45.2629
# 5 -19.7777 -17.8578 -8.2802 -0.2438 49.7504 0.2714
# 6 -0.3719 0.1738 -0.0295 -45.2629 0.2714 70.4715
#
#
#
# Elastic Compliance Matrix: (Units=1/GPa)
#
#
# Indices 1 2 3 4 5 6 
#
# 1 0.031122 -0.016933 -0.001873 -0.000366 0.005981 -0.000053
# 2 -0.016933 0.034816 0.002871 0.000412 0.006245 0.000067
# 3 -0.001873 0.002871 0.008813 0.000088 0.001753 0.000037
# 4 -0.000366 0.000412 0.000088 0.111569 0.000173 0.071656
# 5 0.005981 0.006245 0.001753 0.000173 0.025012 0.000032
# 6 -0.000053 0.000067 0.000037 0.071656 0.000032 0.060213
#
#
# Mechanical properties :
#
#
# Convention : Reuss Voigt Hill
#
# Bulk Modulus (GPa) = 23.32105 30.29566 26.80836
# Shear Modulus (GPa) = 15.73768 44.14311 29.94039
#
# Velocity S-wave (km/s) = 2.71282 4.54342 3.74179
# Velocity P-wave (km/s) = 4.55172 6.45683 5.58609
#
# Compressibility (1/GPa) = 0.04287972
#
# Stress axis : x y z
#
# Youngs Moduli (GPa) = 32.13179 28.72259 113.47024
#
# Poissons Ratio (x) = 0.48635 0.21256
# Poissons Ratio (y) = 0.54408 -0.32573
# Poissons Ratio (z) = 0.06019 -0.08245
#
# Static dielectric constant tensor:
#      x y z
#    x 1.811610 -0.000100 0.022560 
#    y -0.000100 1.779740 0.000110 
#    z 0.022560 0.000110 1.746100 
# 
# From -- ./inp_files/4402.got.cif
#   From: 2010.05.17/outbox.cif.g08.bks.cpg/sg15_3_cif.got.tgz:4402.got - 2010.06.03 18:47:42.
