data_PCOD9281470
_publ_section_title
;
Structure prediction by ZEFSAII (Michael W. Deem and Ramdas Pophale) SiO2 
 PCOD9281470
Probable space group: C 2/C
;
_chemical_formula_sum "Si O2"
_cell_formula_units_Z 52
_cell_length_a 14.445058
_cell_length_b 32.618178
_cell_length_c 5.314384
_cell_angle_alpha 90.000000
_cell_angle_beta 81.551776
_cell_angle_gamma 90.000000
_cell_volume 2476.815457
_symmetry_space_group_name_H-M "C 2/C"
_symmetry_group_IT_number 15
_symmetry_cell_setting 'monoclinic'
loop_
_space_group_symop_operation_xyz
x,y,z
-x,y,1/2-z
-x,-y,-z
x,-y,1/2+z
1/2+x,1/2+y,z
1/2-x,1/2+y,1/2-z
1/2-x,1/2-y,-z
1/2+x,1/2-y,1/2+z
loop_
_atom_site_type_symbol
_atom_site_label
_atom_site_fract_x
_atom_site_fract_y
_atom_site_fract_z
Si Si1 0.281408 0.582127 0.871437
Si Si2 0.840096 0.652181 0.417448
Si Si3 0.000000 0.405682 0.750000
Si Si4 0.607180 0.601321 0.158095
Si Si5 0.818232 0.189035 0.379521
Si Si6 0.178311 0.729246 0.834305
Si Si7 0.392232 0.973679 0.078837
O O1 0.349486 0.580587 0.606672
O O2 0.210887 0.621104 0.869886
O O3 0.334561 0.589094 0.114688
O O4 0.212539 0.543737 0.905252
O O5 0.912842 0.624549 0.232517
O O6 0.755613 0.670411 0.289404
O O7 0.883954 0.692845 0.525605
O O8 0.038644 0.435973 0.519070
O O9 0.500000 0.590868 0.250000
O O10 0.616030 0.650328 0.096839
O O11 0.869108 0.230746 0.268003
O O12 0.749403 0.205642 0.621720
O O13 0.250000 0.750000 0.000000
O O14 0.403465 0.006436 0.848221
#
# Coordination Sequence:
#
# PCOD9281470 Si02
#       7
#     8   8   4   8   8   8   8
#     4  10  21  38  62  88 119 158 198 236 303 370
#     4   9  18  35  54  79 116 161 202 249 294 357
#     4  10  22  38  58  94 124 158 204 250 302 358
#     4  11  21  37  61  92 119 150 203 258 302 354
#     4   9  18  32  54  80 111 161 206 248 306 351
#     4   9  16  32  54  75 111 160 206 247 298 356
#     4  11  23  43  67  94 126 162 198 243 301 375
#
# _framework density 20.994703000000001
#
# number of rings (size 3 to 8) (size 9 to 14) (size 15 to 20)
#    0.000    2.154    1.538    1.846    0.000    0.000 
#    2.769    4.615    0.000    9.231    0.000    0.000 
#    0.000    0.000    0.000    0.000    0.000    0.000 
#
# Total GULP energy -144876.984545 kJ/mol
# GULP energy per Si atom -5572.191713 kJ/mol
# Density = 2.094692 g / cm^3
# Si number density = 20.994703 Si / 1000 Ang^3
#
#
#
# Elastic Constant Matrix: (Units=GPa)
#
#
# Indices 1 2 3 4 5 6 
#
# 1 51.8189 28.0016 19.9260 0.0000 -24.4696 0.0000
# 2 28.0016 91.8046 32.1209 0.0000 -11.8030 0.0000
# 3 19.9260 32.1209 102.1838 0.0000 -17.3582 0.0000
# 4 0.0000 0.0000 0.0000 5.8261 0.0000 -10.8200
# 5 -24.4696 -11.8030 -17.3582 0.0000 30.5905 0.0000
# 6 0.0000 0.0000 0.0000 -10.8200 0.0000 27.4408
#
#
#
# Elastic Compliance Matrix: (Units=1/GPa)
#
#
# Indices 1 2 3 4 5 6 
#
# 1 0.035345 -0.007442 -0.000263 0.000000 0.025252 0.000000
# 2 -0.007442 0.014028 -0.003376 0.000000 -0.002456 0.000000
# 3 -0.000263 -0.003376 0.011777 0.000000 0.005170 0.000000
# 4 0.000000 0.000000 0.000000 0.641125 0.000000 0.252797
# 5 0.025252 -0.002456 0.005170 0.000000 0.054875 0.000000
# 6 0.000000 0.000000 0.000000 0.252797 0.000000 0.136120
#
#
# Mechanical properties :
#
#
# Convention : Reuss Voigt Hill
#
# Bulk Modulus (GPa) = 25.64894 45.10048 35.37471
# Shear Modulus (GPa) = 5.38545 23.82208 14.60376
#
# Velocity S-wave (km/s) = 1.60334 3.37214 2.64027
# Velocity P-wave (km/s) = 3.95866 6.05725 5.11670
#
# Compressibility (1/GPa) = 0.03898796
#
# Stress axis : x y z
#
# Youngs Moduli (GPa) = 28.29252 71.28640 84.91201
#
# Poissons Ratio (x) = 0.53051 0.02236
# Poissons Ratio (y) = 0.21055 0.28663
# Poissons Ratio (z) = 0.00745 0.24063
#
# Static dielectric constant tensor:
#      x y z
#    x 1.765450 0.000000 0.055380 
#    y 0.000000 1.916280 0.000000 
#    z 0.055380 0.000000 1.869660 
# 
# From -- ./inp_files/9007.got.cif
#   From: 2010.05.17/outbox.cif.g08.bks.cpg/sg15_5_cif.got.tgz:9007.got - 2010.06.03 18:47:42.
