data_PCOD9281242
_publ_section_title
;
Structure prediction by ZEFSAII (Michael W. Deem and Ramdas Pophale) SiO2 
 PCOD9281242
Probable space group: C 2/C
;
_chemical_formula_sum "Si O2"
_cell_formula_units_Z 64
_cell_length_a 18.449150
_cell_length_b 10.589122
_cell_length_c 16.520710
_cell_angle_alpha 90.000000
_cell_angle_beta 96.644153
_cell_angle_gamma 90.000000
_cell_volume 3205.814707
_symmetry_space_group_name_H-M "C 2/C"
_symmetry_group_IT_number 15
_symmetry_cell_setting 'monoclinic'
loop_
_space_group_symop_operation_xyz
x,y,z
-x,y,1/2-z
-x,-y,-z
x,-y,1/2+z
1/2+x,1/2+y,z
1/2-x,1/2+y,1/2-z
1/2-x,1/2-y,-z
1/2+x,1/2-y,1/2+z
loop_
_atom_site_type_symbol
_atom_site_label
_atom_site_fract_x
_atom_site_fract_y
_atom_site_fract_z
Si Si1 0.565503 0.851563 0.570034
Si Si2 0.488036 0.413971 0.075206
Si Si3 0.794143 0.665533 0.157614
Si Si4 0.437232 0.593839 0.292411
Si Si5 0.801173 0.535474 0.325524
Si Si6 0.410024 0.051001 0.052666
Si Si7 0.154837 0.941856 0.348762
Si Si8 0.354125 0.781965 0.394781
O O1 0.531410 0.713853 0.563530
O O2 0.635946 0.871396 0.634770
O O3 0.493971 0.929841 0.589809
O O4 0.590524 0.913028 0.488128
O O5 0.524746 0.476950 0.157948
O O6 0.401983 0.412966 0.086388
O O7 0.500000 0.500000 0.000000
O O8 0.775639 0.587417 0.235851
O O9 0.851869 0.584572 0.113586
O O10 0.828628 0.802208 0.183931
O O11 0.721395 0.706430 0.099179
O O12 0.500000 0.663813 0.250000
O O13 0.381390 0.533958 0.221626
O O14 0.405201 0.683262 0.356602
O O15 0.732253 0.510071 0.376248
O O16 0.836591 0.395870 0.329813
O O17 0.389558 0.148844 0.976685
#
# Coordination Sequence:
#
# PCOD9281242 Si02
#       8
#     8   8   8   8   8   8   8   8
#     4  10  21  41  59  91 126 159 211 262 314 374
#     4  11  22  40  65  89 121 167 209 256 318 389
#     4  11  20  38  67  90 122 165 208 259 325 377
#     4  10  21  38  60  86 120 163 203 255 312 377
#     4  10  22  39  62  93 125 163 208 270 312 379
#     4  10  21  38  62  92 125 162 207 265 312 386
#     4  10  21  40  60  91 123 161 210 257 315 382
#     4  10  21  40  61  90 129 160 212 258 322 381
#
# _framework density 19.963723000000002
#
# number of rings (size 3 to 8) (size 9 to 14) (size 15 to 20)
#    0.000    1.750    2.500    1.875    0.000    0.500 
#   11.250    0.625    0.000    0.000    0.000    0.000 
#    0.000    0.000    0.000    0.000    0.000    0.000 
#
# Total GULP energy -178368.025260 kJ/mol
# GULP energy per Si atom -5574.000789 kJ/mol
# Density = 1.991828 g / cm^3
# Si number density = 19.963723 Si / 1000 Ang^3
#
#
#
# Elastic Constant Matrix: (Units=GPa)
#
#
# Indices 1 2 3 4 5 6 
#
# 1 138.1188 50.7970 37.8091 0.0000 -9.1708 0.0000
# 2 50.7970 74.2017 24.5474 0.0000 -15.3284 0.0000
# 3 37.8091 24.5474 44.1800 0.0000 -5.0378 0.0000
# 4 0.0000 0.0000 0.0000 25.0999 0.0000 -4.6696
# 5 -9.1708 -15.3284 -5.0378 0.0000 29.7423 0.0000
# 6 0.0000 0.0000 0.0000 -4.6696 0.0000 36.6327
#
#
#
# Elastic Compliance Matrix: (Units=1/GPa)
#
#
# Indices 1 2 3 4 5 6 
#
# 1 0.010984 -0.005514 -0.006397 0.000000 -0.000539 0.000000
# 2 -0.005514 0.020890 -0.005970 0.000000 0.008055 0.000000
# 3 -0.006397 -0.005970 0.031458 0.000000 0.000279 0.000000
# 4 0.000000 0.000000 0.000000 0.040809 0.000000 0.005202
# 5 -0.000539 0.008055 0.000279 0.000000 0.037655 0.000000
# 6 0.000000 0.000000 0.000000 0.005202 0.000000 0.027961
#
#
# Mechanical properties :
#
#
# Convention : Reuss Voigt Hill
#
# Bulk Modulus (GPa) = 36.27147 53.64527 44.95837
# Shear Modulus (GPa) = 23.28731 27.85144 25.56938
#
# Velocity S-wave (km/s) = 3.41908 3.73916 3.58270
# Velocity P-wave (km/s) = 5.81335 6.75066 6.29946
#
# Compressibility (1/GPa) = 0.02756988
#
# Stress axis : x y z
#
# Youngs Moduli (GPa) = 91.04516 47.86875 31.78806
#
# Poissons Ratio (x) = 0.26395 0.20336
# Poissons Ratio (y) = 0.50202 0.18977
# Poissons Ratio (z) = 0.58245 0.28577
#
# Static dielectric constant tensor:
#      x y z
#    x 1.764800 0.000000 0.030670 
#    y 0.000000 1.714780 0.000000 
#    z 0.030670 0.000000 1.702400 
# 
# From -- ./inp_files/210344.got.cif
#   From: 2010.05.17/outbox.cif.g08.bks.cpg/sg15_106_cif.got.tgz:210344.got - 2010.06.03 18:47:42.
