data_PCOD9281399
_publ_section_title
;
Structure prediction by ZEFSAII (Michael W. Deem and Ramdas Pophale) SiO2 
 PCOD9281399
Probable space group: C 2/C
;
_chemical_formula_sum "Si O2"
_cell_formula_units_Z 28
_cell_length_a 10.052893
_cell_length_b 24.775214
_cell_length_c 4.965610
_cell_angle_alpha 90.000000
_cell_angle_beta 98.123999
_cell_angle_gamma 90.000000
_cell_volume 1224.336300
_symmetry_space_group_name_H-M "C 2/C"
_symmetry_group_IT_number 15
_symmetry_cell_setting 'monoclinic'
loop_
_space_group_symop_operation_xyz
x,y,z
-x,y,1/2-z
-x,-y,-z
x,-y,1/2+z
1/2+x,1/2+y,z
1/2-x,1/2+y,1/2-z
1/2-x,1/2-y,-z
1/2+x,1/2-y,1/2+z
loop_
_atom_site_type_symbol
_atom_site_label
_atom_site_fract_x
_atom_site_fract_y
_atom_site_fract_z
Si Si1 0.500000 0.281157 0.750000
Si Si2 0.292611 0.644443 0.483935
Si Si3 0.368044 0.174906 0.562049
Si Si4 0.158022 0.026620 0.228191
O O1 0.584633 0.317991 0.573652
O O2 0.398585 0.238830 0.581121
O O3 0.253162 0.656325 0.778740
O O4 0.326651 0.583249 0.416199
O O5 0.167998 0.659610 0.251353
O O6 0.500000 0.150937 0.750000
O O7 0.000000 0.019225 0.250000
O O8 0.217077 0.018130 0.541616
#
# Coordination Sequence:
#
# PCOD9281399 Si02
#       4
#     4   8   8   8
#     4  10  24  38  62  96 118 166 192 256 288 374
#     4  12  21  42  62  90 124 160 196 252 302 352
#     4  10  25  37  61  87 130 160 203 235 293 363
#     4  10  21  38  61  91 118 149 198 254 306 350
#
# _framework density 22.869530999999998
#
# number of rings (size 3 to 8) (size 9 to 14) (size 15 to 20)
#    0.857    0.571    1.429    4.286    0.000    3.429 
#    0.000    0.000    0.000   17.143    0.000    0.000 
#    0.000    0.000    0.000    0.000    0.000    0.000 
#
# Total GULP energy -78180.403137 kJ/mol
# GULP energy per Si atom -5584.314510 kJ/mol
# Density = 2.281748 g / cm^3
# Si number density = 22.869531 Si / 1000 Ang^3
#
#
#
# Elastic Constant Matrix: (Units=GPa)
#
#
# Indices 1 2 3 4 5 6 
#
# 1 43.7289 -24.7774 14.4290 0.0000 -11.9898 0.0000
# 2 -24.7774 55.1280 50.0138 0.0000 -35.6206 0.0000
# 3 14.4290 50.0138 88.6262 0.0000 -3.3397 0.0000
# 4 0.0000 0.0000 0.0000 108.4962 0.0000 36.1580
# 5 -11.9898 -35.6206 -3.3397 0.0000 29.4667 0.0000
# 6 0.0000 0.0000 0.0000 36.1580 0.0000 18.4090
#
#
#
# Elastic Compliance Matrix: (Units=1/GPa)
#
#
# Indices 1 2 3 4 5 6 
#
# 1 0.004639 -0.017985 0.008683 0.000000 -0.018869 0.000000
# 2 -0.017985 -0.014408 0.010170 0.000000 -0.023582 0.000000
# 3 0.008683 0.010170 0.004747 0.000000 0.016365 0.000000
# 4 0.000000 0.000000 0.000000 0.026684 0.000000 -0.052410
# 5 -0.018869 -0.023582 0.016365 0.000000 -0.000393 0.000000
# 6 0.000000 0.000000 0.000000 -0.052410 0.000000 0.157263
#
#
# Mechanical properties :
#
#
# Convention : Reuss Voigt Hill
#
# Bulk Modulus (GPa) = -304.36616 29.64599 -137.36008
# Shear Modulus (GPa) = 28.45744 41.12890 34.79317
#
# Velocity S-wave (km/s) = 3.53135 4.24537 3.90471
# Velocity P-wave (km/s) = 10.80508 6.08458 6.31378
#
# Compressibility (1/GPa) = -0.00328552
#
# Stress axis : x y z
#
# Youngs Moduli (GPa) = 215.57384 -69.40799 210.65035
#
# Poissons Ratio (x) = -1.24830 -1.82909
# Poissons Ratio (y) = 3.87710 -2.14231
# Poissons Ratio (z) = -1.87184 0.70588
#
# Static dielectric constant tensor:
#      x y z
#    x 1.890940 0.000000 0.076010 
#    y 0.000000 1.844240 0.000000 
#    z 0.076010 0.000000 1.866450 
# 
# From -- ./inp_files/3889.got.cif
#   From: 2010.05.17/outbox.cif.g08.bks.cpg/sg15_2_cif.got.tgz:3889.got - 2010.06.03 18:47:42.
