data_PCOD9281709
_publ_section_title
;
Structure prediction by ZEFSAII (Michael W. Deem and Ramdas Pophale) SiO2 
 PCOD9281709
Probable space group: C 2/C
;
_chemical_formula_sum "Si O2"
_cell_formula_units_Z 48
_cell_length_a 9.455947
_cell_length_b 27.771699
_cell_length_c 18.656190
_cell_angle_alpha 90.000000
_cell_angle_beta 28.721353
_cell_angle_gamma 90.000000
_cell_volume 2354.340866
_symmetry_space_group_name_H-M "C 2/C"
_symmetry_group_IT_number 15
_symmetry_cell_setting 'monoclinic'
loop_
_space_group_symop_operation_xyz
x,y,z
-x,y,1/2-z
-x,-y,-z
x,-y,1/2+z
1/2+x,1/2+y,z
1/2-x,1/2+y,1/2-z
1/2-x,1/2-y,-z
1/2+x,1/2-y,1/2+z
loop_
_atom_site_type_symbol
_atom_site_label
_atom_site_fract_x
_atom_site_fract_y
_atom_site_fract_z
Si Si1 0.617643 0.460749 0.614714
Si Si2 0.277528 0.647523 0.677034
Si Si3 0.819644 0.306609 0.140625
Si Si4 0.848468 0.799605 0.602689
Si Si5 0.198255 0.054298 0.732428
Si Si6 0.406663 0.644974 0.372917
O O1 0.500000 0.459811 0.750000
O O2 0.455473 0.508559 0.659759
O O3 0.519517 0.408328 0.631275
O O4 0.970321 0.460497 0.441771
O O5 0.217645 0.692234 0.757222
O O6 0.531560 0.665160 0.511617
O O7 0.319195 0.600252 0.707290
O O8 0.000000 0.638767 0.750000
O O9 0.500000 0.315772 0.250000
O O10 0.941341 0.256400 0.056180
O O11 0.055886 0.348151 0.023608
O O12 0.500000 0.798687 0.750000
O O13 0.959607 0.818156 0.630062
O O14 0.000000 0.064057 0.750000
O O15 0.500000 0.651479 0.250000
#
# Coordination Sequence:
#
# PCOD9281709 Si02
#       6
#     8   8   8   8   8   8
#     4  10  21  38  64 100 130 169 230 273 323 387
#     4  12  25  44  67  94 139 175 220 272 339 401
#     4  11  25  43  68  96 128 178 226 270 332 392
#     4  11  27  42  64 101 134 176 221 272 338 398
#     4  11  22  41  67  97 130 176 224 276 329 387
#     4  11  24  42  67  96 135 171 228 274 326 391
#
# _framework density 20.387871000000001
#
# number of rings (size 3 to 8) (size 9 to 14) (size 15 to 20)
#    0.000    1.000    3.333    3.000    4.667    4.000 
#    0.000    4.167    0.000    0.000    0.000    0.000 
#    0.000    0.000    0.000    0.000    0.000    0.000 
#
# Total GULP energy -133848.651633 kJ/mol
# GULP energy per Si atom -5577.027151 kJ/mol
# Density = 2.034147 g / cm^3
# Si number density = 20.387871 Si / 1000 Ang^3
#
#
#
# Elastic Constant Matrix: (Units=GPa)
#
#
# Indices 1 2 3 4 5 6 
#
# 1 75.8845 23.5423 27.2200 -0.0133 2.2314 0.0177
# 2 23.5423 124.1076 39.6332 -0.0004 1.7981 0.0001
# 3 27.2200 39.6332 100.0158 -0.0350 10.4549 0.0461
# 4 -0.0133 -0.0004 -0.0350 94.6214 0.0200 -68.5356
# 5 2.2314 1.7981 10.4549 0.0200 23.6600 -0.0268
# 6 0.0177 0.0001 0.0461 -68.5356 -0.0268 114.0374
#
#
#
# Elastic Compliance Matrix: (Units=1/GPa)
#
#
# Indices 1 2 3 4 5 6 
#
# 1 0.014932 -0.001752 -0.003393 0.000000 0.000224 -0.000001
# 2 -0.001752 0.009451 -0.003366 -0.000001 0.000934 0.000002
# 3 -0.003393 -0.003366 0.012786 0.000002 -0.005074 -0.000005
# 4 0.000000 -0.000001 0.000002 0.018715 -0.000004 0.011248
# 5 0.000224 0.000934 -0.005074 -0.000004 0.044415 0.000010
# 6 -0.000001 0.000002 -0.000005 0.011248 0.000010 0.015529
#
#
# Mechanical properties :
#
#
# Convention : Reuss Voigt Hill
#
# Bulk Modulus (GPa) = 49.63521 53.42210 51.52866
# Shear Modulus (GPa) = 35.82504 60.43793 48.13148
#
# Velocity S-wave (km/s) = 4.19641 5.45054 4.86407
# Velocity P-wave (km/s) = 6.91940 8.11609 7.54152
#
# Compressibility (1/GPa) = 0.02014699
#
# Stress axis : x y z
#
# Youngs Moduli (GPa) = 66.97035 105.80553 78.20989
#
# Poissons Ratio (x) = 0.18539 0.26536
# Poissons Ratio (y) = 0.11735 0.26326
# Poissons Ratio (z) = 0.22723 0.35615
#
# Static dielectric constant tensor:
#      x y z
#    x 1.703330 0.000000 0.000630 
#    y 0.000000 1.777670 0.000000 
#    z 0.000630 0.000000 1.794670 
# 
# From -- ./inp_files/194153.got.cif
#   From: 2010.05.17/outbox.cif.g08.bks.cpg/sg15_98_cif.got.tgz:194153.got - 2010.06.03 18:47:42.
