data_PCOD9281095
_publ_section_title
;
Structure prediction by ZEFSAII (Michael W. Deem and Ramdas Pophale) SiO2 
 PCOD9281095
Probable space group: C 2/C
;
_chemical_formula_sum "Si O2"
_cell_formula_units_Z 48
_cell_length_a 9.076056
_cell_length_b 6.936562
_cell_length_c 28.597972
_cell_angle_alpha 90.000000
_cell_angle_beta 97.417535
_cell_angle_gamma 90.000000
_cell_volume 1785.365248
_symmetry_space_group_name_H-M "C 2/C"
_symmetry_group_IT_number 15
_symmetry_cell_setting 'monoclinic'
loop_
_space_group_symop_operation_xyz
x,y,z
-x,y,1/2-z
-x,-y,-z
x,-y,1/2+z
1/2+x,1/2+y,z
1/2-x,1/2+y,1/2-z
1/2-x,1/2-y,-z
1/2+x,1/2-y,1/2+z
loop_
_atom_site_type_symbol
_atom_site_label
_atom_site_fract_x
_atom_site_fract_y
_atom_site_fract_z
Si Si1 0.778404 0.578152 0.806813
Si Si2 0.658288 0.528007 0.704547
Si Si3 0.064770 0.228037 0.540175
Si Si4 0.097733 0.140541 0.876995
Si Si5 0.580074 0.941406 0.343330
Si Si6 0.424672 0.848443 0.058806
O O1 0.664594 0.543706 0.760448
O O2 0.734772 0.532756 0.858597
O O3 0.940357 0.490227 0.806990
O O4 0.812438 0.804208 0.803403
O O5 0.525982 0.593996 0.666622
O O6 0.800500 0.637105 0.687865
O O7 0.965646 0.114176 0.574187
O O8 0.240732 0.168895 0.550883
O O9 0.026589 0.219036 0.483600
O O10 0.015298 0.450594 0.551240
O O11 0.136304 0.367819 0.872669
O O12 0.540425 0.804004 0.385395
#
# Coordination Sequence:
#
# PCOD9281095 Si02
#       6
#     8   8   8   8   8   8
#     4  11  24  37  58  85 116 153 203 250 306 365
#     4  11  22  39  57  82 115 156 198 250 303 368
#     4   9  17  33  61  88 120 157 210 254 316 382
#     4  10  21  38  58  84 117 156 195 253 306 370
#     4  10  21  38  58  84 116 154 199 248 308 367
#     4   9  17  33  60  91 115 162 207 256 313 387
#
# _framework density 26.885254
#
# number of rings (size 3 to 8) (size 9 to 14) (size 15 to 20)
#    0.000    2.000    1.667    2.000    0.000    6.667 
#    0.000    0.833    0.000    1.000    0.000    0.000 
#    0.000    0.000    0.000    0.000    0.000    0.000 
#
# Total GULP energy -133845.226869 kJ/mol
# GULP energy per Si atom -5576.884453 kJ/mol
# Density = 2.682406 g / cm^3
# Si number density = 26.885254 Si / 1000 Ang^3
#
#
#
# Elastic Constant Matrix: (Units=GPa)
#
#
# Indices 1 2 3 4 5 6 
#
# 1 94.4019 0.1695 28.3780 0.0000 -7.0793 0.0000
# 2 0.1695 97.2500 44.9413 0.0000 -3.9542 0.0000
# 3 28.3780 44.9413 177.2220 0.0000 -23.6690 0.0000
# 4 0.0000 0.0000 0.0000 44.1947 0.0000 1.2771
# 5 -7.0793 -3.9542 -23.6690 0.0000 49.1966 0.0000
# 6 0.0000 0.0000 0.0000 1.2771 0.0000 24.9165
#
#
#
# Elastic Compliance Matrix: (Units=1/GPa)
#
#
# Indices 1 2 3 4 5 6 
#
# 1 0.011227 0.000901 -0.001924 0.000000 0.000762 0.000000
# 2 0.000901 0.011732 -0.003181 0.000000 -0.000458 0.000000
# 3 -0.001924 -0.003181 0.007145 0.000000 0.002905 0.000000
# 4 0.000000 0.000000 0.000000 0.022661 0.000000 -0.001161
# 5 0.000762 -0.000458 0.002905 0.000000 0.021797 0.000000
# 6 0.000000 0.000000 0.000000 -0.001161 0.000000 0.040194
#
#
# Mechanical properties :
#
#
# Convention : Reuss Voigt Hill
#
# Bulk Modulus (GPa) = 46.09067 57.31684 51.70375
# Shear Modulus (GPa) = 38.34454 43.35392 40.84923
#
# Velocity S-wave (km/s) = 3.78064 4.02002 3.90217
# Velocity P-wave (km/s) = 6.01983 6.55078 6.29091
#
# Compressibility (1/GPa) = 0.02169637
#
# Stress axis : x y z
#
# Youngs Moduli (GPa) = 89.07080 85.23409 139.95165
#
# Poissons Ratio (x) = -0.07677 0.26932
# Poissons Ratio (y) = -0.08023 0.44512
# Poissons Ratio (z) = 0.17141 0.27109
#
# Static dielectric constant tensor:
#      x y z
#    x 2.176400 0.000000 -0.046590 
#    y 0.000000 2.291650 0.000000 
#    z -0.046590 0.000000 2.024610 
# 
# From -- ./inp_files/306642.got.cif
#   From: 2010.05.17/outbox.cif.g08.bks.cpg/sg15_154_cif.got.tgz:306642.got - 2010.06.03 18:47:42.
