data_PCOD9281561
_publ_section_title
;
Structure prediction by ZEFSAII (Michael W. Deem and Ramdas Pophale) SiO2 
 PCOD9281561
Probable space group: C 2/C
;
_chemical_formula_sum "Si O2"
_cell_formula_units_Z 60
_cell_length_a 24.122375
_cell_length_b 8.393968
_cell_length_c 20.142197
_cell_angle_alpha 90.000000
_cell_angle_beta 35.438386
_cell_angle_gamma 90.000000
_cell_volume 2364.790967
_symmetry_space_group_name_H-M "C 2/C"
_symmetry_group_IT_number 15
_symmetry_cell_setting 'monoclinic'
loop_
_space_group_symop_operation_xyz
x,y,z
-x,y,1/2-z
-x,-y,-z
x,-y,1/2+z
1/2+x,1/2+y,z
1/2-x,1/2+y,1/2-z
1/2-x,1/2-y,-z
1/2+x,1/2-y,1/2+z
loop_
_atom_site_type_symbol
_atom_site_label
_atom_site_fract_x
_atom_site_fract_y
_atom_site_fract_z
Si Si1 0.000000 0.893960 0.750000
Si Si2 0.625356 0.180225 0.443429
Si Si3 0.161515 0.800799 0.794381
Si Si4 0.467834 0.898261 0.898446
Si Si5 0.209001 0.265262 0.396734
Si Si6 0.412712 0.366677 0.153703
Si Si7 0.879993 0.622071 0.796107
Si Si8 0.175529 0.058218 0.000332
O O1 0.061814 0.773915 0.735032
O O2 0.084614 0.991629 0.632875
O O3 0.732955 0.123690 0.321136
O O4 0.597004 0.287984 0.409063
O O5 0.637397 0.288680 0.496980
O O6 0.550518 0.040643 0.530261
O O7 0.166640 0.731337 0.863078
O O8 0.147578 0.665699 0.752980
O O9 0.086459 0.943612 0.856472
O O10 0.504876 0.730538 0.890305
O O11 0.548367 0.972826 0.772983
O O12 0.357822 0.864072 0.987570
O O13 0.316947 0.323200 0.287807
O O14 0.202821 0.082797 0.424129
O O15 0.778706 0.598430 0.931639
#
# Coordination Sequence:
#
# PCOD9281561 Si02
#       8
#     4   8   8   8   8   8   8   8
#     4  12  26  46  76  92 128 184 248 282 328 384
#     4  10  21  38  62  96 136 177 218 261 335 411
#     4  10  23  40  65 101 143 181 213 274 345 417
#     4  12  24  37  64  95 134 179 218 273 336 403
#     4  11  24  40  66 104 146 174 217 280 347 415
#     4  11  22  37  63  99 143 178 211 267 343 415
#     4  11  26  45  71  99 133 177 235 283 336 402
#     4  11  23  47  69  98 133 177 229 284 330 405
#
# _framework density 25.372223999999999
#
# number of rings (size 3 to 8) (size 9 to 14) (size 15 to 20)
#    0.000    1.067    5.333    0.800    5.600    0.533 
#    0.000    0.667    0.000    2.400    0.000    0.000 
#    0.000    0.000    0.000    0.000    0.000    0.000 
#
# Total GULP energy -167855.722952 kJ/mol
# GULP energy per Si atom -5595.190765 kJ/mol
# Density = 2.531448 g / cm^3
# Si number density = 25.372224 Si / 1000 Ang^3
#
#
#
# Elastic Constant Matrix: (Units=GPa)
#
#
# Indices 1 2 3 4 5 6 
#
# 1 41.1161 -1.0793 24.2128 -0.0009 -11.1288 0.0003
# 2 -1.0793 66.6859 24.4148 -0.0024 -4.3380 0.0028
# 3 24.2128 24.4148 182.1705 -0.0001 -36.1137 0.0003
# 4 -0.0009 -0.0024 -0.0001 48.6185 0.0015 -16.3621
# 5 -11.1288 -4.3380 -36.1137 0.0015 21.8827 -0.0010
# 6 0.0003 0.0028 0.0003 -16.3621 -0.0010 12.8070
#
#
#
# Elastic Compliance Matrix: (Units=1/GPa)
#
#
# Indices 1 2 3 4 5 6 
#
# 1 0.028644 0.001856 -0.001628 0.000000 0.012249 0.000000
# 2 0.001856 0.015894 -0.002326 -0.000001 0.000256 -0.000004
# 3 -0.001628 -0.002326 0.008564 0.000000 0.012844 0.000001
# 4 0.000000 -0.000001 0.000000 0.036082 -0.000001 0.046098
# 5 0.012249 0.000256 0.012844 -0.000001 0.073175 0.000004
# 6 0.000000 -0.000004 0.000001 0.046098 0.000004 0.136977
#
#
# Mechanical properties :
#
#
# Convention : Reuss Voigt Hill
#
# Bulk Modulus (GPa) = 20.44703 42.78546 31.61624
# Shear Modulus (GPa) = 15.63311 32.82326 24.22818
#
# Velocity S-wave (km/s) = 2.48493 3.60066 3.09351
# Velocity P-wave (km/s) = 4.03850 5.84689 5.02472
#
# Compressibility (1/GPa) = 0.04890687
#
# Stress axis : x y z
#
# Youngs Moduli (GPa) = 34.91124 62.91681 116.77262
#
# Poissons Ratio (x) = -0.11679 0.19006
# Poissons Ratio (y) = -0.06481 0.27163
# Poissons Ratio (z) = 0.05682 0.14635
#
# Static dielectric constant tensor:
#      x y z
#    x 1.983890 0.000000 0.000320 
#    y 0.000000 1.975430 0.000000 
#    z 0.000320 0.000000 2.080220 
# 
# From -- ./inp_files/283371.got.cif
#   From: 2010.05.17/outbox.cif.g08.bks.cpg/sg15_142_cif.got.tgz:283371.got - 2010.06.03 18:47:42.
