data_PCOD9281079
_publ_section_title
;
Structure prediction by ZEFSAII (Michael W. Deem and Ramdas Pophale) SiO2 
 PCOD9281079
Probable space group: C 2/C
;
_chemical_formula_sum "Si O2"
_cell_formula_units_Z 64
_cell_length_a 14.223436
_cell_length_b 9.489750
_cell_length_c 26.619856
_cell_angle_alpha 90.000000
_cell_angle_beta 87.711082
_cell_angle_gamma 90.000000
_cell_volume 3590.197590
_symmetry_space_group_name_H-M "C 2/C"
_symmetry_group_IT_number 15
_symmetry_cell_setting 'monoclinic'
loop_
_space_group_symop_operation_xyz
x,y,z
-x,y,1/2-z
-x,-y,-z
x,-y,1/2+z
1/2+x,1/2+y,z
1/2-x,1/2+y,1/2-z
1/2-x,1/2-y,-z
1/2+x,1/2-y,1/2+z
loop_
_atom_site_type_symbol
_atom_site_label
_atom_site_fract_x
_atom_site_fract_y
_atom_site_fract_z
Si Si1 0.398526 0.043022 0.609287
Si Si2 0.887504 0.770426 0.362793
Si Si3 0.225492 0.112247 0.968322
Si Si4 0.754129 0.438088 0.202380
Si Si5 0.270995 0.226487 0.804566
Si Si6 0.235981 0.866635 0.041413
Si Si7 0.885406 0.560471 0.882839
Si Si8 0.100099 0.209692 0.881728
O O1 0.342300 0.074693 0.662091
O O2 0.334889 0.103089 0.566344
O O3 0.506115 0.091091 0.606749
O O4 0.398480 0.874494 0.603998
O O5 0.831663 0.848366 0.319607
O O6 0.834950 0.817134 0.414480
O O7 0.882199 0.599528 0.360603
O O8 0.994939 0.820062 0.365928
O O9 0.316597 0.068660 0.932689
O O10 0.142416 0.131255 0.929309
O O11 0.250000 0.250000 0.000000
O O12 0.201012 0.000296 0.011349
O O13 0.728361 0.604907 0.205558
O O14 0.779040 0.366713 0.254545
O O15 0.347768 0.173288 0.843216
O O16 0.172438 0.191854 0.834342
O O17 0.250000 0.750000 0.000000
#
# Coordination Sequence:
#
# PCOD9281079 Si02
#       8
#     8   8   8   8   8   8   8   8
#     4   9  20  38  59  80 111 147 192 224 271 333
#     4  10  21  38  58  82 115 142 188 232 277 323
#     4  11  21  36  59  80 115 152 190 225 276 329
#     4  10  21  39  61  84 112 146 178 233 277 335
#     4  10  21  39  61  83 112 145 185 222 284 331
#     4  11  21  36  55  86 113 148 186 233 276 320
#     4  10  21  38  59  83 108 150 189 230 269 332
#     4   9  20  38  58  82 108 151 187 226 272 337
#
# _framework density 17.826317
#
# number of rings (size 3 to 8) (size 9 to 14) (size 15 to 20)
#    0.000    2.000    2.500    0.750    1.750    3.000 
#    2.250    5.000    0.000    0.000    0.000    0.000 
#    0.000    0.000    0.000    0.000    0.000    0.000 
#
# Total GULP energy -178481.154853 kJ/mol
# GULP energy per Si atom -5577.536089 kJ/mol
# Density = 1.778574 g / cm^3
# Si number density = 17.826317 Si / 1000 Ang^3
#
#
#
# Elastic Constant Matrix: (Units=GPa)
#
#
# Indices 1 2 3 4 5 6 
#
# 1 112.7709 -0.7083 11.7953 0.0000 6.7417 0.0000
# 2 -0.7083 47.4377 9.2669 0.0000 -1.4383 0.0000
# 3 11.7953 9.2669 69.2719 0.0000 6.5547 0.0000
# 4 0.0000 0.0000 0.0000 34.3801 0.0000 4.1282
# 5 6.7417 -1.4383 6.5547 0.0000 3.9702 0.0000
# 6 0.0000 0.0000 0.0000 4.1282 0.0000 23.3361
#
#
#
# Elastic Compliance Matrix: (Units=1/GPa)
#
#
# Indices 1 2 3 4 5 6 
#
# 1 0.009876 -0.000355 -0.000042 0.000000 -0.016829 0.000000
# 2 -0.000355 0.022435 -0.004464 0.000000 0.016100 0.000000
# 3 -0.000042 -0.004464 0.017998 0.000000 -0.031261 0.000000
# 4 0.000000 0.000000 0.000000 0.029718 0.000000 -0.005257
# 5 -0.016829 0.016100 -0.031261 0.000000 0.337893 0.000000
# 6 0.000000 0.000000 0.000000 -0.005257 0.000000 0.043782
#
#
# Mechanical properties :
#
#
# Convention : Reuss Voigt Hill
#
# Bulk Modulus (GPa) = 24.63801 30.02095 27.32948
# Shear Modulus (GPa) = 10.31028 26.27908 18.29468
#
# Velocity S-wave (km/s) = 2.40755 3.84366 3.20703
# Velocity P-wave (km/s) = 4.64538 6.04778 5.39237
#
# Compressibility (1/GPa) = 0.04058769
#
# Stress axis : x y z
#
# Youngs Moduli (GPa) = 101.25793 44.57275 55.56124
#
# Poissons Ratio (x) = 0.01581 0.00232
# Poissons Ratio (y) = 0.03591 0.24805
# Poissons Ratio (z) = 0.00422 0.19899
#
# Static dielectric constant tensor:
#      x y z
#    x 1.604600 0.000000 -0.006540 
#    y 0.000000 1.580470 0.000000 
#    z -0.006540 0.000000 1.624650 
# 
# From -- ./inp_files/273152.got.cif
#   From: 2010.05.17/outbox.cif.g08.bks.cpg/sg15_137_cif.got.tgz:273152.got - 2010.06.03 18:47:42.
