data_PCOD9281186
_publ_section_title
;
Structure prediction by ZEFSAII (Michael W. Deem and Ramdas Pophale) SiO2 
 PCOD9281186
Probable space group: C 2/C
;
_chemical_formula_sum "Si O2"
_cell_formula_units_Z 36
_cell_length_a 19.424582
_cell_length_b 4.986293
_cell_length_c 14.772066
_cell_angle_alpha 90.000000
_cell_angle_beta 65.164988
_cell_angle_gamma 90.000000
_cell_volume 1298.456473
_symmetry_space_group_name_H-M "C 2/C"
_symmetry_group_IT_number 15
_symmetry_cell_setting 'monoclinic'
loop_
_space_group_symop_operation_xyz
x,y,z
-x,y,1/2-z
-x,-y,-z
x,-y,1/2+z
1/2+x,1/2+y,z
1/2-x,1/2+y,1/2-z
1/2-x,1/2-y,-z
1/2+x,1/2-y,1/2+z
loop_
_atom_site_type_symbol
_atom_site_label
_atom_site_fract_x
_atom_site_fract_y
_atom_site_fract_z
Si Si1 0.941893 0.545011 0.647918
Si Si2 0.000000 0.013068 0.250000
Si Si3 0.908816 0.668812 0.457293
Si Si4 0.155896 0.872819 0.587206
Si Si5 0.722577 0.807136 0.215662
O O1 0.986361 0.785446 0.670121
O O2 0.926606 0.588663 0.550820
O O3 0.859175 0.546488 0.736093
O O4 0.003046 0.306446 0.632136
O O5 0.091896 0.962956 0.182157
O O6 0.870542 0.417518 0.430265
O O7 0.850518 0.915846 0.490270
O O8 0.227309 0.819881 0.612499
O O9 0.723860 0.544513 0.279055
#
# Coordination Sequence:
#
# PCOD9281186 Si02
#       5
#     8   4   8   8   8
#     4   9  21  39  62  90 120 156 201 252 310 356
#     4   8  18  34  58  84 114 150 194 252 300 354
#     4  10  21  38  63  91 119 149 198 266 313 349
#     4  10  21  38  59  88 119 156 202 249 307 355
#     4  11  24  42  62  87 125 171 209 242 292 374
#
# _framework density 27.725224999999998
#
# number of rings (size 3 to 8) (size 9 to 14) (size 15 to 20)
#    0.000    2.222    0.000    1.333    0.000   20.444 
#    0.000    6.667    0.000    0.000    0.000    0.000 
#    0.000    0.000    0.000    0.000    0.000    0.000 
#
# Total GULP energy -100341.669022 kJ/mol
# GULP energy per Si atom -5574.537168 kJ/mol
# Density = 2.766212 g / cm^3
# Si number density = 27.725225 Si / 1000 Ang^3
#
#
#
# Elastic Constant Matrix: (Units=GPa)
#
#
# Indices 1 2 3 4 5 6 
#
# 1 125.5056 68.4499 42.2698 -0.1334 25.0977 -0.0149
# 2 68.4499 173.3329 37.4360 -0.3465 46.0861 -0.0212
# 3 42.2698 37.4360 -151.0341 -0.2663 -16.3509 -0.0287
# 4 -0.1334 -0.3465 -0.2663 356.7853 -0.0468 85.8199
# 5 25.0977 46.0861 -16.3509 -0.0468 53.1823 -0.0047
# 6 -0.0149 -0.0212 -0.0287 85.8199 -0.0047 83.1186
#
#
#
# Elastic Compliance Matrix: (Units=1/GPa)
#
#
# Indices 1 2 3 4 5 6 
#
# 1 0.009699 -0.004076 0.001759 0.000001 -0.000504 0.000000
# 2 -0.004076 0.008359 0.001459 0.000009 -0.004872 -0.000008
# 3 0.001759 0.001459 -0.005362 -0.000003 -0.003743 0.000001
# 4 0.000001 0.000009 -0.000003 0.003729 -0.000006 -0.003850
# 5 -0.000504 -0.004872 -0.003743 -0.000006 0.022112 0.000005
# 6 0.000000 -0.000008 0.000001 -0.003850 0.000005 0.016006
#
#
# Mechanical properties :
#
#
# Convention : Reuss Voigt Hill
#
# Bulk Modulus (GPa) = 91.08156 49.34621 70.21388
# Shear Modulus (GPa) = 83.44325 98.59383 91.01854
#
# Velocity S-wave (km/s) = 5.49198 5.96978 5.73586
# Velocity P-wave (km/s) = 8.55211 8.08422 8.32146
#
# Compressibility (1/GPa) = 0.01097917
#
# Stress axis : x y z
#
# Youngs Moduli (GPa) = 103.10004 119.62833 -186.49504
#
# Poissons Ratio (x) = 0.48761 0.32801
# Poissons Ratio (y) = 0.42024 0.27202
# Poissons Ratio (z) = -0.18134 -0.17449
#
# Static dielectric constant tensor:
#      x y z
#    x 2.192480 0.000000 -0.155250 
#    y 0.000000 2.160480 0.000000 
#    z -0.155250 0.000000 2.496590 
# 
# From -- ./inp_files/165119.got.cif
#   From: 2010.05.17/outbox.cif.g08.bks.cpg/sg15_83_cif.got.tgz:165119.got - 2010.06.03 18:47:42.
