data_PCOD9281485
_publ_section_title
;
Structure prediction by ZEFSAII (Michael W. Deem and Ramdas Pophale) SiO2 
 PCOD9281485
Probable space group: C 2/C
;
_chemical_formula_sum "Si O2"
_cell_formula_units_Z 64
_cell_length_a 18.727524
_cell_length_b 19.010622
_cell_length_c 13.673977
_cell_angle_alpha 90.000000
_cell_angle_beta 135.636175
_cell_angle_gamma 90.000000
_cell_volume 3403.928826
_symmetry_space_group_name_H-M "C 2/C"
_symmetry_group_IT_number 15
_symmetry_cell_setting 'monoclinic'
loop_
_space_group_symop_operation_xyz
x,y,z
-x,y,1/2-z
-x,-y,-z
x,-y,1/2+z
1/2+x,1/2+y,z
1/2-x,1/2+y,1/2-z
1/2-x,1/2-y,-z
1/2+x,1/2-y,1/2+z
loop_
_atom_site_type_symbol
_atom_site_label
_atom_site_fract_x
_atom_site_fract_y
_atom_site_fract_z
Si Si1 0.084440 0.363145 0.906513
Si Si2 0.377152 0.359171 0.312039
Si Si3 0.793283 0.828467 0.030511
Si Si4 0.388517 0.646860 0.412130
Si Si5 0.080363 0.523234 0.943212
Si Si6 0.771047 0.004284 0.268983
Si Si7 0.822327 0.294625 0.305624
Si Si8 0.634498 0.925591 0.280237
O O1 0.050360 0.441711 0.898606
O O2 0.000000 0.330759 0.750000
O O3 0.191255 0.372699 0.953313
O O4 0.112286 0.321830 0.034355
O O5 0.374464 0.344760 0.194040
O O6 0.489482 0.353547 0.464362
O O7 0.328874 0.435951 0.283780
O O8 0.295421 0.304619 0.277412
O O9 0.750000 0.750000 0.000000
O O10 0.841512 0.839337 0.973272
O O11 0.345017 0.570804 0.342088
O O12 0.350737 0.714195 0.313585
O O13 0.116735 0.558872 0.876990
O O14 0.976461 0.559491 0.875878
O O15 0.173967 0.524008 0.108327
O O16 0.720933 0.977597 0.321663
O O17 0.838744 0.347598 0.231395
#
# Coordination Sequence:
#
# PCOD9281485 Si02
#       8
#     8   8   8   8   8   8   8   8
#     4  11  20  33  57  88 129 146 185 245 305 361
#     4  10  22  42  55  83 128 155 198 252 293 355
#     4  11  21  37  56  91 126 155 193 239 310 360
#     4  12  24  37  63  86 115 171 202 240 302 365
#     4  11  20  37  62  94 116 156 203 245 300 364
#     4  11  23  39  60  87 125 157 210 244 290 363
#     4  10  23  39  56  87 125 152 195 255 300 351
#     4  10  21  38  62  89 125 156 193 255 308 345
#
# _framework density 18.801803
#
# number of rings (size 3 to 8) (size 9 to 14) (size 15 to 20)
#    0.000    1.250    7.500    1.875    1.750    1.000 
#    0.000    0.625    0.000    1.500    0.000    0.000 
#    0.000    0.000    0.000    0.000    0.000    0.000 
#
# Total GULP energy -178576.294359 kJ/mol
# GULP energy per Si atom -5580.509199 kJ/mol
# Density = 1.875901 g / cm^3
# Si number density = 18.801803 Si / 1000 Ang^3
#
#
#
# Elastic Constant Matrix: (Units=GPa)
#
#
# Indices 1 2 3 4 5 6 
#
# 1 38.6145 11.5544 -4.0758 0.0000 1.4262 0.0000
# 2 11.5544 75.4130 15.3964 0.0000 7.2262 0.0000
# 3 -4.0758 15.3964 65.8428 0.0000 22.1101 0.0000
# 4 0.0000 0.0000 0.0000 14.8548 0.0000 -4.1965
# 5 1.4262 7.2262 22.1101 0.0000 26.5236 0.0000
# 6 0.0000 0.0000 0.0000 -4.1965 0.0000 16.0008
#
#
#
# Elastic Compliance Matrix: (Units=1/GPa)
#
#
# Indices 1 2 3 4 5 6 
#
# 1 0.027877 -0.004753 0.004035 0.000000 -0.003568 0.000000
# 2 -0.004753 0.014779 -0.003449 0.000000 -0.000895 0.000000
# 3 0.004035 -0.003449 0.022222 0.000000 -0.017801 0.000000
# 4 0.000000 0.000000 0.000000 0.072705 0.000000 0.019068
# 5 -0.003568 -0.000895 -0.017801 0.000000 0.052977 0.000000
# 6 0.000000 0.000000 0.000000 0.019068 0.000000 0.067498
#
#
# Mechanical properties :
#
#
# Convention : Reuss Voigt Hill
#
# Bulk Modulus (GPa) = 17.68578 25.06894 21.37736
# Shear Modulus (GPa) = 17.52913 21.94220 19.73566
#
# Velocity S-wave (km/s) = 3.05669 3.41988 3.24337
# Velocity P-wave (km/s) = 4.67810 5.38111 5.04187
#
# Compressibility (1/GPa) = 0.05654262
#
# Stress axis : x y z
#
# Youngs Moduli (GPa) = 35.87196 67.66547 45.00105
#
# Poissons Ratio (x) = 0.32162 -0.18158
# Poissons Ratio (y) = 0.17050 0.15522
# Poissons Ratio (z) = -0.14475 0.23340
#
# Static dielectric constant tensor:
#      x y z
#    x 1.692900 0.000000 -0.001180 
#    y 0.000000 1.714410 0.000000 
#    z -0.001180 0.000000 1.664840 
# 
# From -- ./inp_files/163276.got.cif
#   From: 2010.05.17/outbox.cif.g08.bks.cpg/sg15_82_cif.got.tgz:163276.got - 2010.06.03 18:47:42.
