data_PCOD9281595
_publ_section_title
;
Structure prediction by ZEFSAII (Michael W. Deem and Ramdas Pophale) SiO2 
 PCOD9281595
Probable space group: C 2/C
;
_chemical_formula_sum "Si O2"
_cell_formula_units_Z 52
_cell_length_a 31.166986
_cell_length_b 18.320662
_cell_length_c 14.939607
_cell_angle_alpha 90.000000
_cell_angle_beta 160.520191
_cell_angle_gamma 90.000000
_cell_volume 2844.709805
_symmetry_space_group_name_H-M "C 2/C"
_symmetry_group_IT_number 15
_symmetry_cell_setting 'monoclinic'
loop_
_space_group_symop_operation_xyz
x,y,z
-x,y,1/2-z
-x,-y,-z
x,-y,1/2+z
1/2+x,1/2+y,z
1/2-x,1/2+y,1/2-z
1/2-x,1/2-y,-z
1/2+x,1/2-y,1/2+z
loop_
_atom_site_type_symbol
_atom_site_label
_atom_site_fract_x
_atom_site_fract_y
_atom_site_fract_z
Si Si1 0.907047 0.065602 0.787148
Si Si2 0.152013 0.344095 0.291151
Si Si3 0.557833 0.694543 0.179301
Si Si4 0.278418 0.980550 0.952916
Si Si5 0.188229 0.996535 0.583496
Si Si6 0.500000 0.630115 0.250000
Si Si7 0.963186 0.438862 0.584002
O O1 0.874129 0.052519 0.617631
O O2 0.784736 0.043461 0.608571
O O3 0.979787 0.140242 0.958269
O O4 0.000000 0.000000 0.000000
O O5 0.288590 0.323055 0.514148
O O6 0.070834 0.277894 0.173423
O O7 0.200447 0.404903 0.455672
O O8 0.061094 0.382135 0.041010
O O9 0.491265 0.679310 0.144124
O O10 0.196944 0.967394 0.702092
O O11 0.418924 0.008692 0.204227
O O12 0.113755 0.073279 0.449427
O O13 0.332288 0.015452 0.836352
O O14 0.000000 0.401596 0.750000
#
# Coordination Sequence:
#
# PCOD9281595 Si02
#       7
#     8   8   8   8   8   4   8
#     4  12  19  37  62  94 119 157 207 267 297 362
#     4  11  22  43  58  90 124 170 193 255 315 387
#     4  11  24  38  64  86 128 161 205 247 330 363
#     4  11  21  37  67  88 120 162 209 256 310 364
#     4  11  21  34  64  94 118 148 220 257 302 358
#     4  12  18  38  62  90 114 160 200 264 294 374
#     4  10  21  38  63  88 118 163 204 253 308 380
#
# _framework density 18.279543
#
# number of rings (size 3 to 8) (size 9 to 14) (size 15 to 20)
#    0.000    0.923    7.692    0.462    0.000    0.000 
#    4.154    3.846    0.000    0.000    0.000    0.000 
#    0.000    0.000    0.000    0.000    0.000    0.000 
#
# Total GULP energy -144860.314844 kJ/mol
# GULP energy per Si atom -5571.550571 kJ/mol
# Density = 1.823794 g / cm^3
# Si number density = 18.279543 Si / 1000 Ang^3
#
#
#
# Elastic Constant Matrix: (Units=GPa)
#
#
# Indices 1 2 3 4 5 6 
#
# 1 96.8548 27.9457 24.5629 0.0000 -22.2036 0.0000
# 2 27.9457 67.5557 10.2609 0.0000 -16.2508 0.0000
# 3 24.5629 10.2609 68.0228 0.0000 -5.2766 0.0000
# 4 0.0000 0.0000 0.0000 26.4070 0.0000 -3.5783
# 5 -22.2036 -16.2508 -5.2766 0.0000 51.4512 0.0000
# 6 0.0000 0.0000 0.0000 -3.5783 0.0000 33.6954
#
#
#
# Elastic Compliance Matrix: (Units=1/GPa)
#
#
# Indices 1 2 3 4 5 6 
#
# 1 0.013409 -0.003956 -0.003925 0.000000 0.004135 0.000000
# 2 -0.003956 0.017473 -0.000919 0.000000 0.003717 0.000000
# 3 -0.003925 -0.000919 0.016232 0.000000 -0.000319 0.000000
# 4 0.000000 0.000000 0.000000 0.038422 0.000000 0.004080
# 5 0.004135 0.003717 -0.000319 0.000000 0.022362 0.000000
# 6 0.000000 0.000000 0.000000 0.004080 0.000000 0.030111
#
#
# Mechanical properties :
#
#
# Convention : Reuss Voigt Hill
#
# Bulk Modulus (GPa) = 33.88109 39.77471 36.82790
# Shear Modulus (GPa) = 30.22132 33.62165 31.92149
#
# Velocity S-wave (km/s) = 4.07047 4.29336 4.18340
# Velocity P-wave (km/s) = 6.37706 6.81056 6.59737
#
# Compressibility (1/GPa) = 0.02951499
#
# Stress axis : x y z
#
# Youngs Moduli (GPa) = 74.57449 57.23123 61.60697
#
# Poissons Ratio (x) = 0.22643 0.24178
# Poissons Ratio (y) = 0.29504 0.05660
# Poissons Ratio (z) = 0.29267 0.05258
#
# Static dielectric constant tensor:
#      x y z
#    x 1.711320 0.000000 0.018230 
#    y 0.000000 1.672890 0.000000 
#    z 0.018230 0.000000 1.664740 
# 
# From -- ./inp_files/182903.got.cif
#   From: 2010.05.17/outbox.cif.g08.bks.cpg/sg15_92_cif.got.tgz:182903.got - 2010.06.03 18:47:42.
