data_PCOD9281577
_publ_section_title
;
Structure prediction by ZEFSAII (Michael W. Deem and Ramdas Pophale) SiO2 
 PCOD9281577
Probable space group: C 2/C
;
_chemical_formula_sum "Si O2"
_cell_formula_units_Z 56
_cell_length_a 25.679314
_cell_length_b 10.761423
_cell_length_c 25.274116
_cell_angle_alpha 90.000000
_cell_angle_beta 18.994253
_cell_angle_gamma 90.000000
_cell_volume 2273.235764
_symmetry_space_group_name_H-M "C 2/C"
_symmetry_group_IT_number 15
_symmetry_cell_setting 'monoclinic'
loop_
_space_group_symop_operation_xyz
x,y,z
-x,y,1/2-z
-x,-y,-z
x,-y,1/2+z
1/2+x,1/2+y,z
1/2-x,1/2+y,1/2-z
1/2-x,1/2-y,-z
1/2+x,1/2-y,1/2+z
loop_
_atom_site_type_symbol
_atom_site_label
_atom_site_fract_x
_atom_site_fract_y
_atom_site_fract_z
Si Si1 0.500000 0.511067 0.750000
Si Si2 0.818561 0.838767 0.067107
Si Si3 0.405088 0.065023 0.543174
Si Si4 0.000000 0.441610 0.750000
Si Si5 0.163314 0.863989 0.779617
Si Si6 0.221420 0.354217 0.983326
Si Si7 0.730643 0.406021 0.939608
Si Si8 0.736729 0.188030 0.202295
O O1 0.392262 0.422455 0.815802
O O2 0.603420 0.587727 0.608915
O O3 0.708970 0.776163 0.217387
O O4 0.844567 0.726636 0.001127
O O5 0.743654 0.952793 0.106784
O O6 0.983994 0.884765 0.933115
O O7 0.554827 0.137257 0.372582
O O8 0.270543 0.168962 0.683395
O O9 0.500000 0.000000 0.500000
O O10 0.295150 0.954469 0.626390
O O11 0.892138 0.364374 0.813458
O O12 0.108188 0.535820 0.611858
O O13 0.182739 0.878295 0.824218
O O14 0.250000 0.250000 0.000000
O O15 0.688991 0.333423 0.926783
#
# Coordination Sequence:
#
# PCOD9281577 Si02
#       8
#     4   8   8   4   8   8   8   8
#     4  10  21  42  64 111 148 206 255 325 368 468
#     4  12  24  37  69 116 152 201 243 319 386 451
#     4  10  25  50  76 105 147 196 253 304 362 443
#     4  10  21  38  62  99 142 192 251 317 370 452
#     4  11  26  42  70 109 160 194 258 303 378 466
#     4  11  20  35  62  99 155 195 248 311 384 440
#     4  11  25  41  73 108 148 200 259 310 399 436
#     4  11  26  50  74 106 150 201 249 310 378 455
#
# _framework density 24.63449
#
# number of rings (size 3 to 8) (size 9 to 14) (size 15 to 20)
#    0.000    1.143    2.857    3.857   10.000    0.571 
#    0.000    0.000    0.000    2.571    3.714    0.000 
#    0.000    0.000    0.000    0.000    0.000    0.000 
#
# Total GULP energy -156462.398006 kJ/mol
# GULP energy per Si atom -5587.942786 kJ/mol
# Density = 2.457842 g / cm^3
# Si number density = 24.634490 Si / 1000 Ang^3
#
#
#
# Elastic Constant Matrix: (Units=GPa)
#
#
# Indices 1 2 3 4 5 6 
#
# 1 146.2158 28.7692 47.7130 0.0048 -1.1655 -0.0013
# 2 28.7692 76.6616 17.2727 0.0055 2.0960 -0.0005
# 3 47.7130 17.2727 72.8746 0.0058 -17.2635 -0.0014
# 4 0.0048 0.0055 0.0058 25.2092 -0.0007 0.3045
# 5 -1.1655 2.0960 -17.2635 -0.0007 41.0534 0.0004
# 6 -0.0013 -0.0005 -0.0014 0.3045 0.0004 41.2950
#
#
#
# Elastic Compliance Matrix: (Units=1/GPa)
#
#
# Indices 1 2 3 4 5 6 
#
# 1 0.009198 -0.002027 -0.006059 0.000000 -0.002183 0.000000
# 2 -0.002027 0.014426 -0.002533 -0.000002 -0.001859 0.000000
# 3 -0.006059 -0.002533 0.020302 -0.000003 0.008494 0.000000
# 4 0.000000 -0.000002 -0.000003 0.039672 0.000000 -0.000293
# 5 -0.002183 -0.001859 0.008494 0.000000 0.027963 0.000000
# 6 0.000000 0.000000 0.000000 -0.000293 0.000000 0.024218
#
#
# Mechanical properties :
#
#
# Convention : Reuss Voigt Hill
#
# Bulk Modulus (GPa) = 44.07412 53.69578 48.88495
# Shear Modulus (GPa) = 30.38061 34.97798 32.67929
#
# Velocity S-wave (km/s) = 3.51558 3.77222 3.64616
# Velocity P-wave (km/s) = 5.86593 6.38883 6.13296
#
# Compressibility (1/GPa) = 0.02268905
#
# Stress axis : x y z
#
# Youngs Moduli (GPa) = 108.72292 69.31709 49.25719
#
# Poissons Ratio (x) = 0.14050 0.29844
# Poissons Ratio (y) = 0.22037 0.12475
# Poissons Ratio (z) = 0.65873 0.17556
#
# Static dielectric constant tensor:
#      x y z
#    x 1.945440 0.000000 0.039960 
#    y 0.000000 1.981990 0.000000 
#    z 0.039960 0.000000 2.005020 
# 
# From -- ./inp_files/303274.got.cif
#   From: 2010.05.17/outbox.cif.g08.bks.cpg/sg15_152_cif.got.tgz:303274.got - 2010.06.03 18:47:42.
