data_PCOD9281074
_publ_section_title
;
Structure prediction by ZEFSAII (Michael W. Deem and Ramdas Pophale) SiO2 
 PCOD9281074
Probable space group: C 2/C
;
_chemical_formula_sum "Si O2"
_cell_formula_units_Z 40
_cell_length_a 29.004975
_cell_length_b 10.238207
_cell_length_c 15.898017
_cell_angle_alpha 90.000000
_cell_angle_beta 25.496226
_cell_angle_gamma 90.000000
_cell_volume 2032.187282
_symmetry_space_group_name_H-M "C 2/C"
_symmetry_group_IT_number 15
_symmetry_cell_setting 'monoclinic'
loop_
_space_group_symop_operation_xyz
x,y,z
-x,y,1/2-z
-x,-y,-z
x,-y,1/2+z
1/2+x,1/2+y,z
1/2-x,1/2+y,1/2-z
1/2-x,1/2-y,-z
1/2+x,1/2-y,1/2+z
loop_
_atom_site_type_symbol
_atom_site_label
_atom_site_fract_x
_atom_site_fract_y
_atom_site_fract_z
Si Si1 0.797874 0.480568 0.868857
Si Si2 0.051506 0.372204 0.252631
Si Si3 0.374139 0.514465 0.209652
Si Si4 0.660561 0.251760 0.321254
Si Si5 0.741494 0.237500 0.662690
O O1 0.892022 0.521895 0.779469
O O2 0.812356 0.342103 0.800997
O O3 0.686847 0.488291 0.102710
O O4 0.793553 0.592700 0.804587
O O5 0.000000 0.425357 0.250000
O O6 0.957641 0.293240 0.453771
O O7 0.147168 0.274812 0.067610
O O8 0.332376 0.402127 0.216279
O O9 0.342695 0.658642 0.232961
O O10 0.500000 0.500000 0.000000
O O11 0.738054 0.236677 0.273293
#
# Coordination Sequence:
#
# PCOD9281074 Si02
#       5
#     8   8   8   8   8
#     4  11  21  37  58  84 115 151 190 237 283 337
#     4   9  19  35  58  82 109 149 192 229 283 351
#     4  11  22  38  58  83 115 154 191 234 286 338
#     4  11  21  36  58  86 114 144 189 245 287 329
#     4  10  21  38  58  81 112 154 193 227 282 353
#
# _framework density 19.683225
#
# number of rings (size 3 to 8) (size 9 to 14) (size 15 to 20)
#    0.000    1.600    0.000    7.200    0.000    0.000 
#    0.000    3.000    0.000    0.000    0.000    0.000 
#    0.000    0.000    0.000    0.000    0.000    0.000 
#
# Total GULP energy -111730.900208 kJ/mol
# GULP energy per Si atom -5586.545010 kJ/mol
# Density = 1.963842 g / cm^3
# Si number density = 19.683225 Si / 1000 Ang^3
#
#
#
# Elastic Constant Matrix: (Units=GPa)
#
#
# Indices 1 2 3 4 5 6 
#
# 1 80.2391 0.1363 10.0695 0.0000 -1.8985 0.0000
# 2 0.1363 26.7682 4.3898 0.0000 2.7865 0.0000
# 3 10.0695 4.3898 49.1372 0.0000 -10.3794 0.0000
# 4 0.0000 0.0000 0.0000 13.7482 0.0000 11.7714
# 5 -1.8985 2.7865 -10.3794 0.0000 26.6961 0.0000
# 6 0.0000 0.0000 0.0000 11.7714 0.0000 8.8283
#
#
#
# Elastic Compliance Matrix: (Units=1/GPa)
#
#
# Indices 1 2 3 4 5 6 
#
# 1 0.012796 0.000396 -0.002695 0.000000 -0.000179 0.000000
# 2 0.000396 0.038752 -0.004784 0.000000 -0.005877 0.000000
# 3 -0.002695 -0.004784 0.023310 0.000000 0.009371 0.000000
# 4 0.000000 0.000000 0.000000 -0.513516 0.000000 0.684704
# 5 -0.000179 -0.005877 0.009371 0.000000 0.041703 0.000000
# 6 0.000000 0.000000 0.000000 0.684704 0.000000 -0.799689
#
#
# Mechanical properties :
#
#
# Convention : Reuss Voigt Hill
#
# Bulk Modulus (GPa) = 16.47724 20.59287 18.53505
# Shear Modulus (GPa) = -4.30202 19.29112 7.49455
#
# Velocity S-wave (km/s) = -1.47999 3.13402 1.95342
# Velocity P-wave (km/s) = 2.33856 4.85602 3.81116
#
# Compressibility (1/GPa) = 0.06068979
#
# Stress axis : x y z
#
# Youngs Moduli (GPa) = 78.14881 25.80505 42.89928
#
# Poissons Ratio (x) = -0.01021 0.11563
# Poissons Ratio (y) = -0.03091 0.20525
# Poissons Ratio (z) = 0.21065 0.12346
#
# Static dielectric constant tensor:
#      x y z
#    x 1.724990 0.000000 0.006590 
#    y 0.000000 1.659000 0.000000 
#    z 0.006590 0.000000 1.683910 
# 
# From -- ./inp_files/177289.got.cif
#   From: 2010.05.17/outbox.cif.g08.bks.cpg/sg15_89_cif.got.tgz:177289.got - 2010.06.03 18:47:42.
