data_PCOD9281287
_publ_section_title
;
Structure prediction by ZEFSAII (Michael W. Deem and Ramdas Pophale) SiO2 
 PCOD9281287
Probable space group: C 2/C
;
_chemical_formula_sum "Si O2"
_cell_formula_units_Z 48
_cell_length_a 10.952787
_cell_length_b 8.343744
_cell_length_c 29.306277
_cell_angle_alpha 90.000000
_cell_angle_beta 57.314620
_cell_angle_gamma 90.000000
_cell_volume 2254.120203
_symmetry_space_group_name_H-M "C 2/C"
_symmetry_group_IT_number 15
_symmetry_cell_setting 'monoclinic'
loop_
_space_group_symop_operation_xyz
x,y,z
-x,y,1/2-z
-x,-y,-z
x,-y,1/2+z
1/2+x,1/2+y,z
1/2-x,1/2+y,1/2-z
1/2-x,1/2-y,-z
1/2+x,1/2-y,1/2+z
loop_
_atom_site_type_symbol
_atom_site_label
_atom_site_fract_x
_atom_site_fract_y
_atom_site_fract_z
Si Si1 0.166455 0.848876 0.723396
Si Si2 0.627338 0.871365 0.901215
Si Si3 0.406618 0.353475 0.496901
Si Si4 0.835079 0.764962 0.279276
Si Si5 0.390313 0.764209 0.098986
Si Si6 0.808263 0.893013 0.956588
O O1 0.273100 0.805881 0.659844
O O2 0.243250 0.794509 0.754486
O O3 0.000000 0.790198 0.750000
O O4 0.159015 0.042138 0.725203
O O5 0.504951 0.751364 0.943441
O O6 0.727635 0.896448 0.925299
O O7 0.570123 0.049160 0.900408
O O8 0.500000 0.500000 0.500000
O O9 0.360557 0.259753 0.551402
O O10 0.290949 0.445241 0.489229
O O11 0.747904 0.724175 0.342701
O O12 0.000000 0.704103 0.250000
O O13 0.523566 0.650008 0.085562
O O14 0.750000 0.750000 0.000000
#
# Coordination Sequence:
#
# PCOD9281287 Si02
#       6
#     8   8   8   8   8   8
#     4  10  23  43  67  94 129 171 216 269 323 378
#     4  11  22  40  63  91 129 165 210 262 324 385
#     4  10  21  38  60  91 123 163 204 257 320 378
#     4  10  23  44  64  94 130 167 219 269 318 383
#     4  10  22  41  61  91 128 161 215 267 313 388
#     4  11  22  40  61  90 128 164 207 261 319 388
#
# _framework density 21.294339000000001
#
# number of rings (size 3 to 8) (size 9 to 14) (size 15 to 20)
#    0.000    1.667    3.333    1.500    0.000    8.000 
#    6.000    0.000    0.000    0.000    0.000    0.000 
#    0.000    0.000    0.000    0.000    0.000    0.000 
#
# Total GULP energy -134133.201347 kJ/mol
# GULP energy per Si atom -5588.883389 kJ/mol
# Density = 2.124587 g / cm^3
# Si number density = 21.294339 Si / 1000 Ang^3
#
#
#
# Elastic Constant Matrix: (Units=GPa)
#
#
# Indices 1 2 3 4 5 6 
#
# 1 101.0710 19.0073 43.7656 0.0000 -11.4067 0.0000
# 2 19.0073 46.9607 44.4718 0.0000 -15.4588 0.0000
# 3 43.7656 44.4718 169.6211 0.0000 -20.5313 0.0000
# 4 0.0000 0.0000 0.0000 21.5446 0.0000 8.7947
# 5 -11.4067 -15.4588 -20.5313 0.0000 32.4205 0.0000
# 6 0.0000 0.0000 0.0000 8.7947 0.0000 35.2171
#
#
#
# Elastic Compliance Matrix: (Units=1/GPa)
#
#
# Indices 1 2 3 4 5 6 
#
# 1 0.011417 -0.001959 -0.002230 0.000000 0.001670 0.000000
# 2 -0.001959 0.031675 -0.006557 0.000000 0.010261 0.000000
# 3 -0.002230 -0.006557 0.008357 0.000000 0.001381 0.000000
# 4 0.000000 0.000000 0.000000 0.051684 0.000000 -0.012907
# 5 0.001670 0.010261 0.001381 0.000000 0.037200 0.000000
# 6 0.000000 0.000000 0.000000 -0.012907 0.000000 0.031619
#
#
# Mechanical properties :
#
#
# Convention : Reuss Voigt Hill
#
# Bulk Modulus (GPa) = 33.38201 59.12693 46.25447
# Shear Modulus (GPa) = 24.57858 31.86364 28.22111
#
# Velocity S-wave (km/s) = 3.40108 3.87246 3.64440
# Velocity P-wave (km/s) = 5.57975 6.91530 6.28311
#
# Compressibility (1/GPa) = 0.02995626
#
# Stress axis : x y z
#
# Youngs Moduli (GPa) = 87.59195 31.57084 119.65775
#
# Poissons Ratio (x) = 0.06186 0.26681
# Poissons Ratio (y) = 0.17162 0.78459
# Poissons Ratio (z) = 0.19531 0.20701
#
# Static dielectric constant tensor:
#      x y z
#    x 1.801980 0.000000 -0.016160 
#    y 0.000000 1.681600 0.000000 
#    z -0.016160 0.000000 1.771790 
# 
# From -- ./inp_files/267631.got.cif
#   From: 2010.05.17/outbox.cif.g08.bks.cpg/sg15_134_cif.got.tgz:267631.got - 2010.06.03 18:47:42.
