data_PCOD9281997
_publ_section_title
;
Structure prediction by ZEFSAII (Michael W. Deem and Ramdas Pophale) SiO2 
 PCOD9281997
Probable space group: C 2/C
;
_chemical_formula_sum "Si O2"
_cell_formula_units_Z 40
_cell_length_a 7.879592
_cell_length_b 19.168722
_cell_length_c 14.731541
_cell_angle_alpha 90.000000
_cell_angle_beta 119.753943
_cell_angle_gamma 90.000000
_cell_volume 1931.733331
_symmetry_space_group_name_H-M "C 2/C"
_symmetry_group_IT_number 15
_symmetry_cell_setting 'monoclinic'
loop_
_space_group_symop_operation_xyz
x,y,z
-x,y,1/2-z
-x,-y,-z
x,-y,1/2+z
1/2+x,1/2+y,z
1/2-x,1/2+y,1/2-z
1/2-x,1/2-y,-z
1/2+x,1/2-y,1/2+z
loop_
_atom_site_type_symbol
_atom_site_label
_atom_site_fract_x
_atom_site_fract_y
_atom_site_fract_z
Si Si1 0.460505 0.584828 0.393799
Si Si2 0.282196 0.296268 0.738532
Si Si3 0.480394 0.422334 0.378359
Si Si4 0.777669 0.349955 0.318221
Si Si5 0.167125 0.678815 0.022073
O O1 0.304368 0.633092 0.301403
O O2 0.457283 0.505241 0.361185
O O3 0.453751 0.589060 0.500911
O O4 0.667464 0.620210 0.426297
O O5 0.500000 0.282744 0.750000
O O6 0.236875 0.231576 0.790902
O O7 0.126586 0.301806 0.616009
O O8 0.641540 0.387874 0.355890
O O9 0.277970 0.386331 0.292219
O O10 0.994254 0.350742 0.415423
O O11 0.250000 0.750000 0.000000
#
# Coordination Sequence:
#
# PCOD9281997 Si02
#       5
#     8   8   8   8   8
#     4  10  22  44  65  88 134 171 216 265 330 393
#     4  10  21  38  67  93 122 170 218 266 311 388
#     4  10  25  42  61  95 136 172 203 277 341 382
#     4  11  23  40  66  96 129 167 218 272 324 389
#     4  11  21  39  70  95 121 170 230 266 314 391
#
# _framework density 20.706792
#
# number of rings (size 3 to 8) (size 9 to 14) (size 15 to 20)
#    0.000    1.600    4.000    1.200    8.400    1.600 
#    3.600    0.000    0.000    0.000    0.000    0.000 
#    0.000    0.000    0.000    0.000    0.000    0.000 
#
# Total GULP energy -111633.387405 kJ/mol
# GULP energy per Si atom -5581.669370 kJ/mol
# Density = 2.065966 g / cm^3
# Si number density = 20.706792 Si / 1000 Ang^3
#
#
#
# Elastic Constant Matrix: (Units=GPa)
#
#
# Indices 1 2 3 4 5 6 
#
# 1 28.6619 24.4075 27.4664 0.0000 -0.5388 0.0000
# 2 24.4075 138.7082 71.7005 0.0000 -4.4043 0.0000
# 3 27.4664 71.7005 134.0818 0.0000 4.2596 0.0000
# 4 0.0000 0.0000 0.0000 49.2201 0.0000 2.1722
# 5 -0.5388 -4.4043 4.2596 0.0000 38.1645 0.0000
# 6 0.0000 0.0000 0.0000 2.1722 0.0000 30.2606
#
#
#
# Elastic Compliance Matrix: (Units=1/GPa)
#
#
# Indices 1 2 3 4 5 6 
#
# 1 0.045293 -0.004325 -0.006995 0.000000 0.000921 0.000000
# 2 -0.004325 0.010494 -0.004779 0.000000 0.001683 0.000000
# 3 -0.006995 -0.004779 0.011508 0.000000 -0.001935 0.000000
# 4 0.000000 0.000000 0.000000 0.020381 0.000000 -0.001463
# 5 0.000921 0.001683 -0.001935 0.000000 0.026626 0.000000
# 6 0.000000 0.000000 0.000000 -0.001463 0.000000 0.033151
#
#
# Mechanical properties :
#
#
# Convention : Reuss Voigt Hill
#
# Bulk Modulus (GPa) = 28.49221 60.95563 44.72392
# Shear Modulus (GPa) = 26.13003 35.38754 30.75878
#
# Velocity S-wave (km/s) = 3.55619 4.13847 3.85833
# Velocity P-wave (km/s) = 5.53639 7.23445 6.44162
#
# Compressibility (1/GPa) = 0.03509731
#
# Stress axis : x y z
#
# Youngs Moduli (GPa) = 22.07865 95.28861 86.89425
#
# Poissons Ratio (x) = 0.41212 0.60779
# Poissons Ratio (y) = 0.09549 0.41531
# Poissons Ratio (z) = 0.15443 0.45543
#
# Static dielectric constant tensor:
#      x y z
#    x 1.791150 0.000000 -0.015540 
#    y 0.000000 1.711680 0.000000 
#    z -0.015540 0.000000 1.819380 
# 
# From -- ./inp_files/134212.got.cif
#   From: 2010.05.17/outbox.cif.g08.bks.cpg/sg15_68_cif.got.tgz:134212.got - 2010.06.03 18:47:42.
