data_PCOD9281698
_publ_section_title
;
Structure prediction by ZEFSAII (Michael W. Deem and Ramdas Pophale) SiO2 
 PCOD9281698
Probable space group: C 2/C
;
_chemical_formula_sum "Si O2"
_cell_formula_units_Z 48
_cell_length_a 12.467449
_cell_length_b 12.720016
_cell_length_c 15.929823
_cell_angle_alpha 90.000000
_cell_angle_beta 120.497886
_cell_angle_gamma 90.000000
_cell_volume 2176.737379
_symmetry_space_group_name_H-M "C 2/C"
_symmetry_group_IT_number 15
_symmetry_cell_setting 'monoclinic'
loop_
_space_group_symop_operation_xyz
x,y,z
-x,y,1/2-z
-x,-y,-z
x,-y,1/2+z
1/2+x,1/2+y,z
1/2-x,1/2+y,1/2-z
1/2-x,1/2-y,-z
1/2+x,1/2-y,1/2+z
loop_
_atom_site_type_symbol
_atom_site_label
_atom_site_fract_x
_atom_site_fract_y
_atom_site_fract_z
Si Si1 0.000000 0.243090 0.750000
Si Si2 0.146176 0.653026 0.667571
Si Si3 0.623674 0.287295 0.131230
Si Si4 0.740931 0.457078 0.066020
Si Si5 0.765580 0.190898 0.419434
Si Si6 0.864083 0.551480 0.432455
Si Si7 0.000000 0.414643 0.250000
O O1 0.971186 0.187839 0.828895
O O2 0.871234 0.304349 0.679293
O O3 0.244873 0.701737 0.769686
O O4 0.137589 0.736142 0.590625
O O5 0.191531 0.539462 0.650813
O O6 0.022641 0.644829 0.672308
O O7 0.646209 0.369707 0.064324
O O8 0.614903 0.166024 0.098971
O O9 0.687436 0.573825 0.051112
O O10 0.866220 0.464942 0.175116
O O11 0.787012 0.440554 0.988378
O O12 0.750000 0.250000 0.500000
O O13 0.000000 0.500000 0.500000
#
# Coordination Sequence:
#
# PCOD9281698 Si02
#       7
#     4   8   8   8   8   8   4
#     4  10  23  42  63  90 126 177 226 265 320 410
#     4  10  23  38  63  97 129 166 218 268 332 387
#     4  10  25  39  66  95 134 167 218 280 334 382
#     4  11  22  40  66  98 133 166 222 277 335 385
#     4  11  22  40  66  93 125 172 223 268 329 402
#     4  12  22  40  71  99 124 170 232 276 319 398
#     4  10  21  38  63  98 124 173 214 271 324 386
#
# _framework density 22.051348999999998
#
# number of rings (size 3 to 8) (size 9 to 14) (size 15 to 20)
#    0.000    1.333    3.333    2.000    9.333    0.000 
#    0.000    1.667    3.667    0.000    0.000    0.000 
#    0.000    0.000    0.000    0.000    0.000    0.000 
#
# Total GULP energy -133708.105191 kJ/mol
# GULP energy per Si atom -5571.171050 kJ/mol
# Density = 2.200116 g / cm^3
# Si number density = 22.051349 Si / 1000 Ang^3
#
#
#
# Elastic Constant Matrix: (Units=GPa)
#
#
# Indices 1 2 3 4 5 6 
#
# 1 121.7980 72.6761 34.1979 0.0000 -53.9110 0.0000
# 2 72.6761 183.1089 52.4219 0.0000 -31.2551 0.0000
# 3 34.1979 52.4219 79.6534 0.0000 -24.6614 0.0000
# 4 0.0000 0.0000 0.0000 38.1205 0.0000 0.0507
# 5 -53.9110 -31.2551 -24.6614 0.0000 65.3218 0.0000
# 6 0.0000 0.0000 0.0000 0.0507 0.0000 5.3359
#
#
#
# Elastic Compliance Matrix: (Units=1/GPa)
#
#
# Indices 1 2 3 4 5 6 
#
# 1 0.015593 -0.004191 -0.000649 0.000000 0.010619 0.000000
# 2 -0.004191 0.008037 -0.003817 0.000000 -0.001054 0.000000
# 3 -0.000649 -0.003817 0.016548 0.000000 0.003886 0.000000
# 4 0.000000 0.000000 0.000000 0.026233 0.000000 -0.000249
# 5 0.010619 -0.001054 0.003886 0.000000 0.025036 0.000000
# 6 0.000000 0.000000 0.000000 -0.000249 0.000000 0.187413
#
#
# Mechanical properties :
#
#
# Convention : Reuss Voigt Hill
#
# Bulk Modulus (GPa) = 43.73288 78.12800 60.93044
# Shear Modulus (GPa) = 16.45847 36.77327 26.61587
#
# Velocity S-wave (km/s) = 2.73494 4.08808 3.47795
# Velocity P-wave (km/s) = 5.46338 7.60198 6.61962
#
# Compressibility (1/GPa) = 0.02286609
#
# Stress axis : x y z
#
# Youngs Moduli (GPa) = 64.12937 124.42044 60.43077
#
# Poissons Ratio (x) = 0.52140 0.03922
# Poissons Ratio (y) = 0.26874 0.23064
# Poissons Ratio (z) = 0.04162 0.47487
#
# Static dielectric constant tensor:
#      x y z
#    x 1.815150 0.000000 -0.007160 
#    y 0.000000 1.834500 0.000000 
#    z -0.007160 0.000000 1.919020 
# 
# From -- ./inp_files/196620.got.cif
#   From: 2010.05.17/outbox.cif.g08.bks.cpg/sg15_99_cif.got.tgz:196620.got - 2010.06.03 18:47:42.
