data_PCOD9281604
_publ_section_title
;
Structure prediction by ZEFSAII (Michael W. Deem and Ramdas Pophale) SiO2 
 PCOD9281604
Probable space group: C 2/C
;
_chemical_formula_sum "Si O2"
_cell_formula_units_Z 56
_cell_length_a 11.527646
_cell_length_b 15.948490
_cell_length_c 27.493602
_cell_angle_alpha 90.000000
_cell_angle_beta 31.668322
_cell_angle_gamma 90.000000
_cell_volume 2653.701771
_symmetry_space_group_name_H-M "C 2/C"
_symmetry_group_IT_number 15
_symmetry_cell_setting 'monoclinic'
loop_
_space_group_symop_operation_xyz
x,y,z
-x,y,1/2-z
-x,-y,-z
x,-y,1/2+z
1/2+x,1/2+y,z
1/2-x,1/2+y,1/2-z
1/2-x,1/2-y,-z
1/2+x,1/2-y,1/2+z
loop_
_atom_site_type_symbol
_atom_site_label
_atom_site_fract_x
_atom_site_fract_y
_atom_site_fract_z
Si Si1 0.052315 0.823408 0.477568
Si Si2 0.258396 0.752430 0.830703
Si Si3 0.189149 0.687078 0.288019
Si Si4 0.310582 0.656066 0.382414
Si Si5 0.595353 0.671544 0.570403
Si Si6 0.868485 0.376617 0.449589
Si Si7 0.017155 0.563674 0.063663
O O1 0.841550 0.793584 0.584737
O O2 0.989567 0.868458 0.449944
O O3 0.171529 0.738030 0.417352
O O4 0.223192 0.868008 0.452897
O O5 0.500000 0.711830 0.750000
O O6 0.299058 0.820702 0.774130
O O7 0.073506 0.687653 0.877819
O O8 0.435389 0.670817 0.219574
O O9 0.040718 0.619172 0.368247
O O10 0.098170 0.781082 0.331474
O O11 0.281787 0.649214 0.450723
O O12 0.182879 0.579648 0.402436
O O13 0.750000 0.750000 0.500000
O O14 0.756298 0.604635 0.538432
O O15 0.950798 0.469325 0.431592
#
# Coordination Sequence:
#
# PCOD9281604 Si02
#       7
#     8   8   8   8   8   8   8
#     4  11  20  42  65  85 125 170 213 257 322 388
#     4  11  22  37  65  93 123 160 220 266 306 387
#     4  11  21  39  64  93 118 168 224 263 311 385
#     4  11  20  40  64  90 124 167 213 261 313 391
#     4  10  21  38  63  89 118 165 219 260 310 383
#     4  11  24  41  59  95 133 170 200 266 348 383
#     4  11  24  39  62  94 133 165 209 269 336 381
#
# _framework density 21.102598
#
# number of rings (size 3 to 8) (size 9 to 14) (size 15 to 20)
#    0.000    1.143    5.714    3.429    2.000    1.714 
#    2.571    0.000    0.000    1.714    0.000    0.000 
#    0.000    0.000    0.000    0.000    0.000    0.000 
#
# Total GULP energy -156374.855004 kJ/mol
# GULP energy per Si atom -5584.816250 kJ/mol
# Density = 2.105457 g / cm^3
# Si number density = 21.102598 Si / 1000 Ang^3
#
#
#
# Elastic Constant Matrix: (Units=GPa)
#
#
# Indices 1 2 3 4 5 6 
#
# 1 81.2664 9.6622 20.2289 -0.0004 -16.0519 0.0013
# 2 9.6622 57.0533 22.5011 0.0013 -12.8324 -0.0003
# 3 20.2289 22.5011 109.0059 -0.0031 -20.4726 0.0043
# 4 -0.0004 0.0013 -0.0031 6.5251 0.0013 3.0565
# 5 -16.0519 -12.8324 -20.4726 0.0013 34.1528 -0.0008
# 6 0.0013 -0.0003 0.0043 3.0565 -0.0008 23.6494
#
#
#
# Elastic Compliance Matrix: (Units=1/GPa)
#
#
# Indices 1 2 3 4 5 6 
#
# 1 0.013797 -0.000554 -0.001428 -0.000001 0.005420 0.000000
# 2 -0.000554 0.020036 -0.003007 -0.000007 0.005466 0.000002
# 3 -0.001428 -0.003007 0.010954 0.000006 0.004766 -0.000003
# 4 -0.000001 -0.000007 0.000006 0.163130 -0.000006 -0.021083
# 5 0.005420 0.005466 0.004766 -0.000006 0.036738 0.000001
# 6 0.000000 0.000002 -0.000003 -0.021083 0.000001 0.045009
#
#
# Mechanical properties :
#
#
# Convention : Reuss Voigt Hill
#
# Bulk Modulus (GPa) = 28.72696 39.12332 33.92514
# Shear Modulus (GPa) = 16.06442 25.86103 20.96273
#
# Velocity S-wave (km/s) = 2.76208 3.50450 3.15520
# Velocity P-wave (km/s) = 4.88002 5.91229 5.42078
#
# Compressibility (1/GPa) = 0.03481051
#
# Stress axis : x y z
#
# Youngs Moduli (GPa) = 72.47836 49.90915 91.28675
#
# Poissons Ratio (x) = 0.02766 0.13036
# Poissons Ratio (y) = 0.04017 0.27446
# Poissons Ratio (z) = 0.10350 0.15005
#
# Static dielectric constant tensor:
#      x y z
#    x 1.878300 0.000000 -0.006630 
#    y 0.000000 1.726200 0.000000 
#    z -0.006630 0.000000 1.804290 
# 
# From -- ./inp_files/311321.got.cif
#   From: 2010.05.17/outbox.cif.g08.bks.cpg/sg15_156_cif.got.tgz:311321.got - 2010.06.03 18:47:42.
