data_PCOD9281351
_publ_section_title
;
Structure prediction by ZEFSAII (Michael W. Deem and Ramdas Pophale) SiO2 
 PCOD9281351
Probable space group: C 2/C
;
_chemical_formula_sum "Si O2"
_cell_formula_units_Z 32
_cell_length_a 26.082278
_cell_length_b 14.444058
_cell_length_c 9.374938
_cell_angle_alpha 90.000000
_cell_angle_beta 26.827991
_cell_angle_gamma 90.000000
_cell_volume 1593.975041
_symmetry_space_group_name_H-M "C 2/C"
_symmetry_group_IT_number 15
_symmetry_cell_setting 'monoclinic'
loop_
_space_group_symop_operation_xyz
x,y,z
-x,y,1/2-z
-x,-y,-z
x,-y,1/2+z
1/2+x,1/2+y,z
1/2-x,1/2+y,1/2-z
1/2-x,1/2-y,-z
1/2+x,1/2-y,1/2+z
loop_
_atom_site_type_symbol
_atom_site_label
_atom_site_fract_x
_atom_site_fract_y
_atom_site_fract_z
Si Si1 0.888641 0.440922 0.235343
Si Si2 0.527903 0.229778 0.347411
Si Si3 0.971643 0.906398 0.653607
Si Si4 0.210588 0.419959 0.325994
O O1 0.856828 0.448301 0.149151
O O2 0.790721 0.489637 0.569730
O O3 0.000000 0.500000 0.000000
O O4 0.925743 0.334703 0.162962
O O5 0.500000 0.249935 0.250000
O O6 0.536542 0.321658 0.417689
O O7 0.639348 0.164547 0.071166
O O8 0.000000 0.913361 0.750000
O O9 0.836783 0.890193 0.975329
O O10 0.000000 0.000000 0.500000
#
# Coordination Sequence:
#
# PCOD9281351 Si02
#       4
#     8   8   8   8
#     4   9  18  36  62  90 116 147 192 239 290 349
#     4   9  21  39  60  86 114 150 196 240 291 351
#     4  12  26  40  57  84 118 157 199 241 291 351
#     4  10  21  38  61  87 119 155 189 243 297 337
#
# _framework density 20.075596999999998
#
# number of rings (size 3 to 8) (size 9 to 14) (size 15 to 20)
#    0.000    2.000    0.000    4.500    0.000   11.000 
#    0.000    0.000    0.000    0.000    0.000    0.000 
#    0.000    0.000    0.000    0.000    0.000    0.000 
#
# Total GULP energy -89308.948417 kJ/mol
# GULP energy per Si atom -5581.809276 kJ/mol
# Density = 2.002990 g / cm^3
# Si number density = 20.075597 Si / 1000 Ang^3
#
#
#
# Elastic Constant Matrix: (Units=GPa)
#
#
# Indices 1 2 3 4 5 6 
#
# 1 100.4031 65.3514 22.4382 0.0000 11.0803 0.0000
# 2 65.3514 148.4323 40.6067 0.0000 29.8687 0.0000
# 3 22.4382 40.6067 83.8377 0.0000 -5.2068 0.0000
# 4 0.0000 0.0000 0.0000 32.2721 0.0000 12.8647
# 5 11.0803 29.8687 -5.2068 0.0000 21.4531 0.0000
# 6 0.0000 0.0000 0.0000 12.8647 0.0000 26.5445
#
#
#
# Elastic Compliance Matrix: (Units=1/GPa)
#
#
# Indices 1 2 3 4 5 6 
#
# 1 0.014039 -0.006275 -0.000635 0.000000 0.001332 0.000000
# 2 -0.006275 0.015445 -0.007042 0.000000 -0.019972 0.000000
# 3 -0.000635 -0.007042 0.016385 0.000000 0.014109 0.000000
# 4 0.000000 0.000000 0.000000 0.038406 0.000000 -0.018614
# 5 0.001332 -0.019972 0.014109 0.000000 0.077157 0.000000
# 6 0.000000 0.000000 0.000000 -0.018614 0.000000 0.046694
#
#
# Mechanical properties :
#
#
# Convention : Reuss Voigt Hill
#
# Bulk Modulus (GPa) = 55.66511 65.49620 60.58065
# Shear Modulus (GPa) = 20.65947 29.67241 25.16594
#
# Velocity S-wave (km/s) = 3.21141 3.84869 3.54440
# Velocity P-wave (km/s) = 6.44506 7.24193 6.85508
#
# Compressibility (1/GPa) = 0.01796457
#
# Stress axis : x y z
#
# Youngs Moduli (GPa) = 71.22767 64.74410 61.03229
#
# Poissons Ratio (x) = 0.40630 0.03877
# Poissons Ratio (y) = 0.44699 0.42978
# Poissons Ratio (z) = 0.04525 0.45592
#
# Static dielectric constant tensor:
#      x y z
#    x 1.719020 0.000000 -0.049210 
#    y 0.000000 1.712060 0.000000 
#    z -0.049210 0.000000 1.809760 
# 
# From -- ./inp_files/28035.got.cif
#   From: 2010.05.17/outbox.cif.g08.bks.cpg/sg15_15_cif.got.tgz:28035.got - 2010.06.03 18:47:42.
