data_PCOD9281476
_publ_section_title
;
Structure prediction by ZEFSAII (Michael W. Deem and Ramdas Pophale) SiO2 
 PCOD9281476
Probable space group: C 2/C
;
_chemical_formula_sum "Si O2"
_cell_formula_units_Z 56
_cell_length_a 11.483198
_cell_length_b 14.497077
_cell_length_c 16.442113
_cell_angle_alpha 90.000000
_cell_angle_beta 116.580084
_cell_angle_gamma 90.000000
_cell_volume 2447.873264
_symmetry_space_group_name_H-M "C 2/C"
_symmetry_group_IT_number 15
_symmetry_cell_setting 'monoclinic'
loop_
_space_group_symop_operation_xyz
x,y,z
-x,y,1/2-z
-x,-y,-z
x,-y,1/2+z
1/2+x,1/2+y,z
1/2-x,1/2+y,1/2-z
1/2-x,1/2-y,-z
1/2+x,1/2-y,1/2+z
loop_
_atom_site_type_symbol
_atom_site_label
_atom_site_fract_x
_atom_site_fract_y
_atom_site_fract_z
Si Si1 0.795879 0.473989 0.081441
Si Si2 0.316340 0.450283 0.803258
Si Si3 0.299954 0.734490 0.208587
Si Si4 0.134311 0.859495 0.257837
Si Si5 0.479448 0.635468 0.003082
Si Si6 0.950097 0.706116 0.607738
Si Si7 0.212689 0.147840 0.959083
O O1 0.798521 0.511362 0.174983
O O2 0.904801 0.399399 0.093219
O O3 0.655571 0.420423 0.035280
O O4 0.792926 0.563780 0.023619
O O5 0.276288 0.368339 0.731384
O O6 0.372664 0.534848 0.770529
O O7 0.425394 0.408814 0.898132
O O8 0.183120 0.799665 0.198016
O O9 0.419306 0.776394 0.299420
O O10 0.341236 0.741264 0.128439
O O11 0.224551 0.854243 0.365908
O O12 0.000000 0.821957 0.250000
O O13 0.460721 0.740843 0.026181
O O14 0.566204 0.629909 0.948614
O O15 0.250000 0.250000 0.000000
#
# Coordination Sequence:
#
# PCOD9281476 Si02
#       7
#     8   8   8   8   8   8   8
#     4  11  20  39  63  93 118 162 208 258 303 376
#     4  10  21  38  62  88 125 157 209 254 317 362
#     4  10  23  41  61  90 122 165 200 258 314 358
#     4  12  23  40  66  95 121 160 218 260 302 377
#     4  10  21  39  60  93 122 162 204 259 310 367
#     4  10  21  39  66  85 126 160 206 253 308 370
#     4  11  24  41  62  87 136 170 199 255 328 372
#
# _framework density 22.876999999999999
#
# number of rings (size 3 to 8) (size 9 to 14) (size 15 to 20)
#    0.000    1.429    1.429    6.429    6.000    0.000 
#    0.000    5.714    0.000    0.000    0.000    0.000 
#    0.000    0.000    0.000    0.000    0.000    0.000 
#
# Total GULP energy -156644.161205 kJ/mol
# GULP energy per Si atom -5594.434329 kJ/mol
# Density = 2.282493 g / cm^3
# Si number density = 22.877000 Si / 1000 Ang^3
#
#
#
# Elastic Constant Matrix: (Units=GPa)
#
#
# Indices 1 2 3 4 5 6 
#
# 1 51.9096 27.5497 -6.6524 0.0000 -15.4981 0.0000
# 2 27.5497 144.4163 12.8164 0.0000 2.7666 0.0000
# 3 -6.6524 12.8164 41.6564 0.0000 -19.9993 0.0000
# 4 0.0000 0.0000 0.0000 35.2157 0.0000 -7.5493
# 5 -15.4981 2.7666 -19.9993 0.0000 32.5954 0.0000
# 6 0.0000 0.0000 0.0000 -7.5493 0.0000 37.3039
#
#
#
# Elastic Compliance Matrix: (Units=1/GPa)
#
#
# Indices 1 2 3 4 5 6 
#
# 1 0.038846 -0.010447 0.026524 0.000000 0.035631 0.000000
# 2 -0.010447 0.010108 -0.010738 0.000000 -0.012414 0.000000
# 3 0.026524 -0.010738 0.053922 0.000000 0.046607 0.000000
# 4 0.000000 0.000000 0.000000 0.029684 0.000000 0.006007
# 5 0.035631 -0.012414 0.046607 0.000000 0.077270 0.000000
# 6 0.000000 0.000000 0.000000 0.006007 0.000000 0.028023
#
#
# Mechanical properties :
#
#
# Convention : Reuss Voigt Hill
#
# Bulk Modulus (GPa) = 8.80643 33.93440 21.37041
# Shear Modulus (GPa) = 18.86613 34.64090 26.75352
#
# Velocity S-wave (km/s) = 2.87483 3.89552 3.42343
# Velocity P-wave (km/s) = 3.85712 5.92445 4.99882
#
# Compressibility (1/GPa) = 0.11355344
#
# Stress axis : x y z
#
# Youngs Moduli (GPa) = 25.74291 98.93050 18.54547
#
# Poissons Ratio (x) = 1.03352 -0.49190
# Poissons Ratio (y) = 0.26893 0.19914
# Poissons Ratio (z) = -0.68281 1.06232
#
# Static dielectric constant tensor:
#      x y z
#    x 1.885120 0.000000 0.054380 
#    y 0.000000 1.833590 0.000000 
#    z 0.054380 0.000000 1.937620 
# 
# From -- ./inp_files/237611.got.cif
#   From: 2010.05.17/outbox.cif.g08.bks.cpg/sg15_119_cif.got.tgz:237611.got - 2010.06.03 18:47:42.
