data_PCOD9281261
_publ_section_title
;
Structure prediction by ZEFSAII (Michael W. Deem and Ramdas Pophale) SiO2 
 PCOD9281261
Probable space group: C 2/C
;
_chemical_formula_sum "Si O2"
_cell_formula_units_Z 56
_cell_length_a 23.103046
_cell_length_b 15.961918
_cell_length_c 8.441370
_cell_angle_alpha 90.000000
_cell_angle_beta 121.392639
_cell_angle_gamma 90.000000
_cell_volume 2657.239379
_symmetry_space_group_name_H-M "C 2/C"
_symmetry_group_IT_number 15
_symmetry_cell_setting 'monoclinic'
loop_
_space_group_symop_operation_xyz
x,y,z
-x,y,1/2-z
-x,-y,-z
x,-y,1/2+z
1/2+x,1/2+y,z
1/2-x,1/2+y,1/2-z
1/2-x,1/2-y,-z
1/2+x,1/2-y,1/2+z
loop_
_atom_site_type_symbol
_atom_site_label
_atom_site_fract_x
_atom_site_fract_y
_atom_site_fract_z
Si Si1 0.655234 0.026850 0.937715
Si Si2 0.000000 0.706388 0.250000
Si Si3 0.440939 0.066150 0.951945
Si Si4 0.134050 0.082647 0.871459
Si Si5 0.605397 0.737762 0.653162
Si Si6 0.716640 0.116122 0.299991
Si Si7 0.500000 0.699690 0.250000
Si Si8 0.936020 0.937204 0.892602
O O1 0.605262 0.083972 0.764276
O O2 0.685873 0.955582 0.870134
O O3 0.708681 0.080529 0.111325
O O4 0.607241 0.978084 0.990258
O O5 0.938375 0.751027 0.248515
O O6 0.028877 0.647707 0.428422
O O7 0.500000 0.000000 0.000000
O O8 0.122997 0.140329 0.699623
O O9 0.122190 0.989008 0.785263
O O10 0.205754 0.117448 0.037920
O O11 0.086770 0.086049 0.961602
O O12 0.669230 0.801159 0.744661
O O13 0.556347 0.749517 0.432166
O O14 0.538771 0.640975 0.176683
O O15 0.000000 0.000000 0.000000
#
# Coordination Sequence:
#
# PCOD9281261 Si02
#       8
#     8   4   8   8   8   8   4   8
#     4  10  21  38  60  88 127 171 230 265 306 377
#     4  12  22  37  61  90 128 174 216 268 334 373
#     4  11  18  34  57  89 119 163 215 275 312 359
#     4  12  24  44  73  97 137 174 220 279 351 412
#     4  12  26  42  63 101 139 183 218 281 342 411
#     4  11  24  44  63  98 138 188 227 269 330 413
#     4  12  26  43  71 102 142 166 224 294 354 393
#     4  12  22  45  75 109 125 164 229 297 347 405
#
# _framework density 21.074501999999999
#
# number of rings (size 3 to 8) (size 9 to 14) (size 15 to 20)
#    0.000    0.571    5.714    3.000    2.000    0.000 
#    0.000    0.714    0.000    0.000    0.000    0.000 
#    0.000    0.000    0.000    0.000    0.000    0.000 
#
# Total GULP energy -156324.278327 kJ/mol
# GULP energy per Si atom -5583.009940 kJ/mol
# Density = 2.102654 g / cm^3
# Si number density = 21.074502 Si / 1000 Ang^3
#
#
#
# Elastic Constant Matrix: (Units=GPa)
#
#
# Indices 1 2 3 4 5 6 
#
# 1 76.7209 18.5340 25.0224 0.0000 5.4356 0.0000
# 2 18.5340 54.2210 17.7790 0.0000 0.9825 0.0000
# 3 25.0224 17.7790 119.6634 0.0000 8.2591 0.0000
# 4 0.0000 0.0000 0.0000 46.5268 0.0000 -7.8331
# 5 5.4356 0.9825 8.2591 0.0000 36.2009 0.0000
# 6 0.0000 0.0000 0.0000 -7.8331 0.0000 18.5226
#
#
#
# Elastic Compliance Matrix: (Units=1/GPa)
#
#
# Indices 1 2 3 4 5 6 
#
# 1 0.014963 -0.004306 -0.002380 0.000000 -0.001587 0.000000
# 2 -0.004306 0.020627 -0.002205 0.000000 0.000590 0.000000
# 3 -0.002380 -0.002205 0.009300 0.000000 -0.001705 0.000000
# 4 0.000000 0.000000 0.000000 0.023141 0.000000 0.009786
# 5 -0.001587 0.000590 -0.001705 0.000000 0.028235 0.000000
# 6 0.000000 0.000000 0.000000 0.009786 0.000000 0.058126
#
#
# Mechanical properties :
#
#
# Convention : Reuss Voigt Hill
#
# Bulk Modulus (GPa) = 36.88797 41.47511 39.18154
# Shear Modulus (GPa) = 27.59253 32.86806 30.23029
#
# Velocity S-wave (km/s) = 3.62233 3.95348 3.79152
# Velocity P-wave (km/s) = 5.91917 6.36890 6.14815
#
# Compressibility (1/GPa) = 0.02710911
#
# Stress axis : x y z
#
# Youngs Moduli (GPa) = 66.83173 48.47983 107.53120
#
# Poissons Ratio (x) = 0.20874 0.25588
# Poissons Ratio (y) = 0.28775 0.23711
# Poissons Ratio (z) = 0.15903 0.10690
#
# Static dielectric constant tensor:
#      x y z
#    x 1.791020 0.000000 0.038560 
#    y 0.000000 1.735010 0.000000 
#    z 0.038560 0.000000 1.789600 
# 
# From -- ./inp_files/62032.got.cif
#   From: 2010.05.17/outbox.cif.g08.bks.cpg/sg15_32_cif.got.tgz:62032.got - 2010.06.03 18:47:42.
