data_PCOD9281169
_publ_section_title
;
Structure prediction by ZEFSAII (Michael W. Deem and Ramdas Pophale) SiO2 
 PCOD9281169
Probable space group: C 2/C
;
_chemical_formula_sum "Si O2"
_cell_formula_units_Z 48
_cell_length_a 6.965650
_cell_length_b 9.144847
_cell_length_c 29.032052
_cell_angle_alpha 90.000000
_cell_angle_beta 79.854889
_cell_angle_gamma 90.000000
_cell_volume 1820.421274
_symmetry_space_group_name_H-M "C 2/C"
_symmetry_group_IT_number 15
_symmetry_cell_setting 'monoclinic'
loop_
_space_group_symop_operation_xyz
x,y,z
-x,y,1/2-z
-x,-y,-z
x,-y,1/2+z
1/2+x,1/2+y,z
1/2-x,1/2+y,1/2-z
1/2-x,1/2-y,-z
1/2+x,1/2-y,1/2+z
loop_
_atom_site_type_symbol
_atom_site_label
_atom_site_fract_x
_atom_site_fract_y
_atom_site_fract_z
Si Si1 0.428027 0.878430 0.843129
Si Si2 0.066317 0.339756 0.198351
Si Si3 0.983147 0.097307 0.801876
Si Si4 0.557681 0.852633 0.559135
Si Si5 0.487540 0.390027 0.878353
Si Si6 0.491282 0.797168 0.039953
O O1 0.530661 0.005409 0.810389
O O2 0.383997 0.754627 0.807611
O O3 0.531208 0.828914 0.886083
O O4 0.218343 0.929129 0.872080
O O5 0.293608 0.367457 0.195731
O O6 0.000000 0.282389 0.250000
O O7 0.028946 0.242423 0.156264
O O8 0.000000 0.033595 0.750000
O O9 0.899323 0.017451 0.850721
O O10 0.462359 0.791441 0.516201
O O11 0.760607 0.754450 0.551868
O O12 0.544338 0.033815 0.553073
O O13 0.420759 0.327696 0.930043
#
# Coordination Sequence:
#
# PCOD9281169 Si02
#       6
#     8   8   8   8   8   8
#     4  10  21  38  59  86 118 156 204 251 316 374
#     4  11  22  37  59  82 112 154 202 252 309 375
#     4  11  24  39  56  85 119 155 203 258 311 377
#     4   9  17  33  60  93 120 166 209 263 320 393
#     4  10  21  38  59  86 117 159 200 255 312 377
#     4   9  17  33  61  90 125 160 214 260 322 390
#
# _framework density 26.367522000000001
#
# number of rings (size 3 to 8) (size 9 to 14) (size 15 to 20)
#    0.000    2.000    1.667    2.000    0.000    5.333 
#    0.000    0.833    0.000    1.000    0.000    0.000 
#    0.000    0.000    0.000    0.000    0.000    0.000 
#
# Total GULP energy -133712.330650 kJ/mol
# GULP energy per Si atom -5571.347110 kJ/mol
# Density = 2.630751 g / cm^3
# Si number density = 26.367522 Si / 1000 Ang^3
#
#
#
# Elastic Constant Matrix: (Units=GPa)
#
#
# Indices 1 2 3 4 5 6 
#
# 1 94.4229 -1.6310 28.3897 0.0000 3.8467 0.0000
# 2 -1.6310 107.5003 24.5175 0.0000 3.7485 0.0000
# 3 28.3897 24.5175 153.6181 0.0000 11.6616 0.0000
# 4 0.0000 0.0000 0.0000 64.0905 0.0000 5.3832
# 5 3.8467 3.7485 11.6616 0.0000 38.4676 0.0000
# 6 0.0000 0.0000 0.0000 5.3832 0.0000 21.7477
#
#
#
# Elastic Compliance Matrix: (Units=1/GPa)
#
#
# Indices 1 2 3 4 5 6 
#
# 1 0.011271 0.000680 -0.002150 0.000000 -0.000541 0.000000
# 2 0.000680 0.009704 -0.001635 0.000000 -0.000518 0.000000
# 3 -0.002150 -0.001635 0.007308 0.000000 -0.001841 0.000000
# 4 0.000000 0.000000 0.000000 0.015934 0.000000 -0.003944
# 5 -0.000541 -0.000518 -0.001841 0.000000 0.026659 0.000000
# 6 0.000000 0.000000 0.000000 -0.003944 0.000000 0.046958
#
#
# Mechanical properties :
#
#
# Convention : Reuss Voigt Hill
#
# Bulk Modulus (GPa) = 45.30632 50.89931 48.10282
# Shear Modulus (GPa) = 38.05140 45.14549 41.59845
#
# Velocity S-wave (km/s) = 3.80296 4.14232 3.97626
# Velocity P-wave (km/s) = 6.04179 6.49801 6.27405
#
# Compressibility (1/GPa) = 0.02207197
#
# Stress axis : x y z
#
# Youngs Moduli (GPa) = 88.72302 103.05456 136.84031
#
# Poissons Ratio (x) = -0.07011 0.29427
# Poissons Ratio (y) = -0.06036 0.22375
# Poissons Ratio (z) = 0.19079 0.16851
#
# Static dielectric constant tensor:
#      x y z
#    x 2.252180 0.000000 0.052180 
#    y 0.000000 2.221600 0.000000 
#    z 0.052180 0.000000 1.984140 
# 
# From -- ./inp_files/306650.got.cif
#   From: 2010.05.17/outbox.cif.g08.bks.cpg/sg15_154_cif.got.tgz:306650.got - 2010.06.03 18:47:42.
