data_PCOD9281845
_publ_section_title
;
Structure prediction by ZEFSAII (Michael W. Deem and Ramdas Pophale) SiO2 
 PCOD9281845
Probable space group: C 2/C
;
_chemical_formula_sum "Si O2"
_cell_formula_units_Z 56
_cell_length_a 30.449708
_cell_length_b 11.347202
_cell_length_c 15.546120
_cell_angle_alpha 90.000000
_cell_angle_beta 28.596529
_cell_angle_gamma 90.000000
_cell_volume 2570.997864
_symmetry_space_group_name_H-M "C 2/C"
_symmetry_group_IT_number 15
_symmetry_cell_setting 'monoclinic'
loop_
_space_group_symop_operation_xyz
x,y,z
-x,y,1/2-z
-x,-y,-z
x,-y,1/2+z
1/2+x,1/2+y,z
1/2-x,1/2+y,1/2-z
1/2-x,1/2-y,-z
1/2+x,1/2-y,1/2+z
loop_
_atom_site_type_symbol
_atom_site_label
_atom_site_fract_x
_atom_site_fract_y
_atom_site_fract_z
Si Si1 0.287345 0.119129 0.275853
Si Si2 0.180826 0.334144 0.444177
Si Si3 0.841683 0.768819 0.788044
Si Si4 0.821377 0.978188 0.682658
Si Si5 0.573529 0.072546 0.972388
Si Si6 0.386474 0.818269 0.759496
Si Si7 0.521455 0.617337 0.016624
O O1 0.261918 0.244706 0.278656
O O2 0.210005 0.042402 0.361890
O O3 0.299008 0.132724 0.358074
O O4 0.384724 0.057412 0.087613
O O5 0.233860 0.454288 0.373740
O O6 0.103390 0.358433 0.507442
O O7 0.138102 0.279735 0.602878
O O8 0.834792 0.862168 0.719358
O O9 0.872485 0.644342 0.694223
O O10 0.924937 0.820586 0.702863
O O11 0.750000 0.750000 0.000000
O O12 0.909072 0.063496 0.533716
O O13 0.467059 0.085793 0.134255
O O14 0.425837 0.711859 0.634442
O O15 0.500000 0.500000 0.000000
#
# Coordination Sequence:
#
# PCOD9281845 Si02
#       7
#     8   8   8   8   8   8   8
#     4  11  22  37  63  89 127 166 210 258 319 389
#     4  11  22  39  64  95 125 166 211 269 318 388
#     4  10  21  38  65  91 121 168 215 258 321 389
#     4  10  21  40  60  89 131 166 204 261 328 376
#     4  10  23  41  60  91 131 164 208 269 328 377
#     4  11  22  39  66  96 123 165 221 262 324 389
#     4   9  20  38  63  90 126 165 205 268 318 382
#
# _framework density 21.781426
#
# number of rings (size 3 to 8) (size 9 to 14) (size 15 to 20)
#    0.000    1.714    2.857    1.286    2.000    1.143 
#    0.000    0.000    0.000    9.429    0.000    0.000 
#    0.000    0.000    0.000    0.000    0.000    0.000 
#
# Total GULP energy -155998.016245 kJ/mol
# GULP energy per Si atom -5571.357723 kJ/mol
# Density = 2.173185 g / cm^3
# Si number density = 21.781426 Si / 1000 Ang^3
#
#
#
# Elastic Constant Matrix: (Units=GPa)
#
#
# Indices 1 2 3 4 5 6 
#
# 1 142.7369 17.9061 28.2695 0.0000 -19.4289 0.0000
# 2 17.9061 72.2240 14.9873 0.0000 -2.8958 0.0000
# 3 28.2695 14.9873 78.2720 0.0000 -9.3556 0.0000
# 4 0.0000 0.0000 0.0000 14.8332 0.0000 -11.6249
# 5 -19.4289 -2.8958 -9.3556 0.0000 20.9543 0.0000
# 6 0.0000 0.0000 0.0000 -11.6249 0.0000 38.7441
#
#
#
# Elastic Compliance Matrix: (Units=1/GPa)
#
#
# Indices 1 2 3 4 5 6 
#
# 1 0.008504 -0.001423 -0.001986 0.000000 0.006801 0.000000
# 2 -0.001423 0.014670 -0.002335 0.000000 -0.000335 0.000000
# 3 -0.001986 -0.002335 0.014453 0.000000 0.004289 0.000000
# 4 0.000000 0.000000 0.000000 0.088143 0.000000 0.026447
# 5 0.006801 -0.000335 0.004289 0.000000 0.055898 0.000000
# 6 0.000000 0.000000 0.000000 0.026447 0.000000 0.033746
#
#
# Mechanical properties :
#
#
# Convention : Reuss Voigt Hill
#
# Bulk Modulus (GPa) = 38.25836 46.17317 42.21577
# Shear Modulus (GPa) = 21.22123 30.37766 25.79945
#
# Velocity S-wave (km/s) = 3.12473 3.73856 3.44535
# Velocity P-wave (km/s) = 5.53366 6.31508 5.93724
#
# Compressibility (1/GPa) = 0.02613808
#
# Stress axis : x y z
#
# Youngs Moduli (GPa) = 117.59861 68.16724 69.19047
#
# Poissons Ratio (x) = 0.09703 0.13739
# Poissons Ratio (y) = 0.16740 0.16155
# Poissons Ratio (z) = 0.23352 0.15916
#
# Static dielectric constant tensor:
#      x y z
#    x 1.834890 0.000000 -0.013760 
#    y 0.000000 1.899210 0.000000 
#    z -0.013760 0.000000 1.787910 
# 
# From -- ./inp_files/181926.got.cif
#   From: 2010.05.17/outbox.cif.g08.bks.cpg/sg15_91_cif.got.tgz:181926.got - 2010.06.03 18:47:42.
