data_PCOD9281823
_publ_section_title
;
Structure prediction by ZEFSAII (Michael W. Deem and Ramdas Pophale) SiO2 
 PCOD9281823
Probable space group: C 2/C
;
_chemical_formula_sum "Si O2"
_cell_formula_units_Z 48
_cell_length_a 26.080555
_cell_length_b 12.161116
_cell_length_c 13.670252
_cell_angle_alpha 90.000000
_cell_angle_beta 151.223768
_cell_angle_gamma 90.000000
_cell_volume 2087.199434
_symmetry_space_group_name_H-M "C 2/C"
_symmetry_group_IT_number 15
_symmetry_cell_setting 'monoclinic'
loop_
_space_group_symop_operation_xyz
x,y,z
-x,y,1/2-z
-x,-y,-z
x,-y,1/2+z
1/2+x,1/2+y,z
1/2-x,1/2+y,1/2-z
1/2-x,1/2-y,-z
1/2+x,1/2-y,1/2+z
loop_
_atom_site_type_symbol
_atom_site_label
_atom_site_fract_x
_atom_site_fract_y
_atom_site_fract_z
Si Si1 0.907487 0.919098 0.812819
Si Si2 0.194001 0.498463 0.974121
Si Si3 0.863682 0.706189 0.229899
Si Si4 0.844512 0.746157 0.577637
Si Si5 0.055282 0.178599 0.934505
Si Si6 0.258339 0.311327 0.227469
O O1 0.932598 0.821672 0.779162
O O2 0.804297 0.980447 0.599479
O O3 0.873117 0.877182 0.862846
O O4 0.000000 0.000000 0.000000
O O5 0.236618 0.427598 0.138078
O O6 0.125994 0.418429 0.790648
O O7 0.137835 0.614857 0.904350
O O8 0.840792 0.735473 0.303784
O O9 0.961131 0.770671 0.343419
O O10 0.750000 0.750000 0.000000
O O11 0.750000 0.750000 0.500000
O O12 0.804470 0.806465 0.413459
O O13 0.000000 0.117721 0.750000
O O14 0.138441 0.262359 0.026584
#
# Coordination Sequence:
#
# PCOD9281823 Si02
#       6
#     8   8   8   8   8   8
#     4  11  24  42  69 100 139 174 235 291 349 414
#     4  10  21  40  68  98 135 184 227 286 352 415
#     4  10  21  38  65 100 135 177 235 285 348 419
#     4  10  22  43  66  99 138 185 230 283 355 414
#     4  12  22  41  70 100 133 174 237 284 342 424
#     4  11  22  42  72  99 139 188 233 288 352 422
#
# _framework density 22.997325
#
# number of rings (size 3 to 8) (size 9 to 14) (size 15 to 20)
#    0.000    1.333    6.667    2.000    0.000    4.000 
#    0.000    3.333   11.000    0.000    0.000    0.000 
#    0.000    0.000    0.000    0.000    0.000    0.000 
#
# Total GULP energy -133665.793540 kJ/mol
# GULP energy per Si atom -5569.408064 kJ/mol
# Density = 2.294498 g / cm^3
# Si number density = 22.997325 Si / 1000 Ang^3
#
#
#
# Elastic Constant Matrix: (Units=GPa)
#
#
# Indices 1 2 3 4 5 6 
#
# 1 119.4279 30.5698 32.9262 0.0000 -22.2774 0.0000
# 2 30.5698 142.9524 24.3598 0.0000 -20.0089 0.0000
# 3 32.9262 24.3598 66.7748 0.0000 -15.5075 0.0000
# 4 0.0000 0.0000 0.0000 36.9608 0.0000 -3.5143
# 5 -22.2774 -20.0089 -15.5075 0.0000 60.7632 0.0000
# 6 0.0000 0.0000 0.0000 -3.5143 0.0000 27.9309
#
#
#
# Elastic Compliance Matrix: (Units=1/GPa)
#
#
# Indices 1 2 3 4 5 6 
#
# 1 0.010230 -0.001167 -0.004079 0.000000 0.002325 0.000000
# 2 -0.001167 0.007798 -0.001884 0.000000 0.001659 0.000000
# 3 -0.004079 -0.001884 0.018265 0.000000 0.002546 0.000000
# 4 0.000000 0.000000 0.000000 0.027383 0.000000 0.003445
# 5 0.002325 0.001659 0.002546 0.000000 0.018506 0.000000
# 6 0.000000 0.000000 0.000000 0.003445 0.000000 0.036236
#
#
# Mechanical properties :
#
#
# Convention : Reuss Voigt Hill
#
# Bulk Modulus (GPa) = 45.38391 56.09631 50.74011
# Shear Modulus (GPa) = 35.70828 41.21759 38.46293
#
# Velocity S-wave (km/s) = 3.94472 4.23812 4.09405
# Velocity P-wave (km/s) = 6.36593 6.95661 6.66781
#
# Compressibility (1/GPa) = 0.02203424
#
# Stress axis : x y z
#
# Youngs Moduli (GPa) = 97.74919 128.23458 54.74840
#
# Poissons Ratio (x) = 0.14967 0.22330
# Poissons Ratio (y) = 0.11409 0.10314
# Poissons Ratio (z) = 0.39868 0.24159
#
# Static dielectric constant tensor:
#      x y z
#    x 1.943920 0.000000 -0.004550 
#    y 0.000000 2.045740 0.000000 
#    z -0.004550 0.000000 1.911720 
# 
# From -- ./inp_files/177901.got.cif
#   From: 2010.05.17/outbox.cif.g08.bks.cpg/sg15_89_cif.got.tgz:177901.got - 2010.06.03 18:47:42.
