data_PCOD9281224
_publ_section_title
;
Structure prediction by ZEFSAII (Michael W. Deem and Ramdas Pophale) SiO2 
 PCOD9281224
Probable space group: C 2/C
;
_chemical_formula_sum "Si O2"
_cell_formula_units_Z 48
_cell_length_a 16.454376
_cell_length_b 8.826725
_cell_length_c 20.977284
_cell_angle_alpha 90.000000
_cell_angle_beta 62.075950
_cell_angle_gamma 90.000000
_cell_volume 2691.973680
_symmetry_space_group_name_H-M "C 2/C"
_symmetry_group_IT_number 15
_symmetry_cell_setting 'monoclinic'
loop_
_space_group_symop_operation_xyz
x,y,z
-x,y,1/2-z
-x,-y,-z
x,-y,1/2+z
1/2+x,1/2+y,z
1/2-x,1/2+y,1/2-z
1/2-x,1/2-y,-z
1/2+x,1/2-y,1/2+z
loop_
_atom_site_type_symbol
_atom_site_label
_atom_site_fract_x
_atom_site_fract_y
_atom_site_fract_z
Si Si1 0.241729 0.977679 0.551068
Si Si2 0.546891 0.457049 0.667039
Si Si3 0.556664 0.920103 0.536035
Si Si4 0.435022 0.093411 0.832331
Si Si5 0.036525 0.093413 0.926240
Si Si6 0.772378 0.132096 0.584060
O O1 0.149947 0.023604 0.622044
O O2 0.334118 0.076221 0.520169
O O3 0.212085 0.956213 0.488233
O O4 0.268287 0.809531 0.566226
O O5 0.500000 0.501986 0.750000
O O6 0.552655 0.274090 0.662298
O O7 0.486861 0.508595 0.629801
O O8 0.547387 0.009130 0.606964
O O9 0.484788 0.246312 0.442955
O O10 0.500000 0.000000 0.500000
O O11 0.500000 0.044919 0.750000
O O12 0.327078 0.078447 0.855310
O O13 0.144870 0.111826 0.898031
O O14 0.000000 0.000000 0.000000
#
# Coordination Sequence:
#
# PCOD9281224 Si02
#       6
#     8   8   8   8   8   8
#     4   9  17  36  59  81 108 153 190 224 282 339
#     4  10  21  38  60  81 120 152 182 228 297 344
#     4  11  21  35  61  85 110 144 197 239 270 333
#     4   9  20  41  61  79 112 158 191 222 286 353
#     4  12  22  36  58  87 115 143 192 244 289 334
#     4   9  17  34  60  82 113 147 185 234 283 332
#
# _framework density 17.830784000000001
#
# number of rings (size 3 to 8) (size 9 to 14) (size 15 to 20)
#    0.000    2.000    3.333    2.000    0.000    1.333 
#    3.000    0.000    0.000    0.000    0.000    0.000 
#    0.000    0.000    0.000    0.000    0.000    0.000 
#
# Total GULP energy -133915.081281 kJ/mol
# GULP energy per Si atom -5579.795053 kJ/mol
# Density = 1.779020 g / cm^3
# Si number density = 17.830784 Si / 1000 Ang^3
#
#
#
# Elastic Constant Matrix: (Units=GPa)
#
#
# Indices 1 2 3 4 5 6 
#
# 1 173.4520 38.1775 90.2428 0.0000 -5.0099 0.0000
# 2 38.1775 31.6620 34.4451 0.0000 -2.2390 0.0000
# 3 90.2428 34.4451 150.4536 0.0000 -13.5379 0.0000
# 4 0.0000 0.0000 0.0000 19.2177 0.0000 8.0137
# 5 -5.0099 -2.2390 -13.5379 0.0000 32.3506 0.0000
# 6 0.0000 0.0000 0.0000 8.0137 0.0000 24.4064
#
#
#
# Elastic Compliance Matrix: (Units=1/GPa)
#
#
# Indices 1 2 3 4 5 6 
#
# 1 0.009414 -0.006909 -0.004132 0.000000 -0.000750 0.000000
# 2 -0.006909 0.047171 -0.006711 0.000000 -0.000613 0.000000
# 3 -0.004132 -0.006711 0.010976 0.000000 0.003489 0.000000
# 4 0.000000 0.000000 0.000000 0.060290 0.000000 -0.019796
# 5 -0.000750 -0.000613 0.003489 0.000000 0.032213 0.000000
# 6 0.000000 0.000000 0.000000 -0.019796 0.000000 0.047473
#
#
# Mechanical properties :
#
#
# Convention : Reuss Voigt Hill
#
# Bulk Modulus (GPa) = 31.19438 75.69984 53.44711
# Shear Modulus (GPa) = 19.70622 28.04174 23.87398
#
# Velocity S-wave (km/s) = 3.32803 3.96998 3.66309
# Velocity P-wave (km/s) = 5.68334 7.97252 6.92320
#
# Compressibility (1/GPa) = 0.03205706
#
# Stress axis : x y z
#
# Youngs Moduli (GPa) = 106.22087 21.19928 91.11196
#
# Poissons Ratio (x) = 0.14646 0.37652
# Poissons Ratio (y) = 0.73387 0.61143
# Poissons Ratio (z) = 0.43896 0.14226
#
# Static dielectric constant tensor:
#      x y z
#    x 1.605480 0.000000 -0.031890 
#    y 0.000000 1.612920 0.000000 
#    z -0.031890 0.000000 1.595950 
# 
# From -- ./inp_files/203482.got.cif
#   From: 2010.05.17/outbox.cif.g08.bks.cpg/sg15_102_cif.got.tgz:203482.got - 2010.06.03 18:47:42.
