data_PCOD9281546
_publ_section_title
;
Structure prediction by ZEFSAII (Michael W. Deem and Ramdas Pophale) SiO2 
 PCOD9281546
Probable space group: C 2/C
;
_chemical_formula_sum "Si O2"
_cell_formula_units_Z 40
_cell_length_a 13.040493
_cell_length_b 23.757203
_cell_length_c 8.486567
_cell_angle_alpha 90.000000
_cell_angle_beta 132.696827
_cell_angle_gamma 90.000000
_cell_volume 1932.326136
_symmetry_space_group_name_H-M "C 2/C"
_symmetry_group_IT_number 15
_symmetry_cell_setting 'monoclinic'
loop_
_space_group_symop_operation_xyz
x,y,z
-x,y,1/2-z
-x,-y,-z
x,-y,1/2+z
1/2+x,1/2+y,z
1/2-x,1/2+y,1/2-z
1/2-x,1/2-y,-z
1/2+x,1/2-y,1/2+z
loop_
_atom_site_type_symbol
_atom_site_label
_atom_site_fract_x
_atom_site_fract_y
_atom_site_fract_z
Si Si1 0.308679 0.240057 0.885939
Si Si2 0.525508 0.562597 0.962762
Si Si3 0.500000 0.842873 0.750000
Si Si4 0.347235 0.933236 0.786158
Si Si5 0.464307 0.680540 0.029692
Si Si6 0.000000 0.472257 0.250000
O O1 0.400404 0.292053 0.916973
O O2 0.175961 0.216929 0.650587
O O3 0.250000 0.250000 0.000000
O O4 0.424669 0.192540 0.036643
O O5 0.500000 0.563284 0.750000
O O6 0.500000 0.500000 0.000000
O O7 0.687903 0.571593 0.163401
O O8 0.444658 0.615864 0.952628
O O9 0.388869 0.881347 0.721604
O O10 0.386465 0.987374 0.718258
O O11 0.433906 0.937785 0.037951
O O12 0.500000 0.681179 0.250000
#
# Coordination Sequence:
#
# PCOD9281546 Si02
#       6
#     8   8   4   8   8   4
#     4  12  23  46  71  98 135 183 234 283 348 414
#     4  12  25  43  69  98 137 180 227 283 350 417
#     4  11  22  38  68  96 128 176 227 284 332 416
#     4  10  21  38  62  93 131 171 227 271 345 397
#     4  12  27  45  70 103 141 179 234 291 351 416
#     4   9  20  38  60  90 130 176 215 284 328 412
#
# _framework density 20.700438999999999
#
# number of rings (size 3 to 8) (size 9 to 14) (size 15 to 20)
#    0.000    0.800    2.000    6.000    0.000    4.800 
#    1.800    0.000    0.000    0.000    0.000    0.000 
#    0.000    0.000    0.000    0.000    0.000    0.000 
#
# Total GULP energy -111757.520125 kJ/mol
# GULP energy per Si atom -5587.876006 kJ/mol
# Density = 2.065332 g / cm^3
# Si number density = 20.700439 Si / 1000 Ang^3
#
#
#
# Elastic Constant Matrix: (Units=GPa)
#
#
# Indices 1 2 3 4 5 6 
#
# 1 52.8125 26.5752 4.1185 0.0000 -2.5641 0.0000
# 2 26.5752 112.0877 35.5032 0.0000 -2.1237 0.0000
# 3 4.1185 35.5032 99.3751 0.0000 -17.8664 0.0000
# 4 0.0000 0.0000 0.0000 21.2511 0.0000 -24.7473
# 5 -2.5641 -2.1237 -17.8664 0.0000 46.9187 0.0000
# 6 0.0000 0.0000 0.0000 -24.7473 0.0000 3.6963
#
#
#
# Elastic Compliance Matrix: (Units=1/GPa)
#
#
# Indices 1 2 3 4 5 6 
#
# 1 0.021688 -0.005539 0.001340 0.000000 0.001445 0.000000
# 2 -0.005539 0.011517 -0.004128 0.000000 -0.001353 0.000000
# 3 0.001340 -0.004128 0.012304 0.000000 0.004572 0.000000
# 4 0.000000 0.000000 0.000000 -0.006924 0.000000 -0.046354
# 5 0.001445 -0.001353 0.004572 0.000000 0.023072 0.000000
# 6 0.000000 0.000000 0.000000 -0.046354 0.000000 -0.039805
#
#
# Mechanical properties :
#
#
# Convention : Reuss Voigt Hill
#
# Bulk Modulus (GPa) = 34.65754 44.07436 39.36595
# Shear Modulus (GPa) = 103.89555 27.57845 65.73700
#
# Velocity S-wave (km/s) = 7.09218 3.65398 5.64139
# Velocity P-wave (km/s) = 9.15664 6.25618 7.84168
#
# Compressibility (1/GPa) = 0.02885375
#
# Stress axis : x y z
#
# Youngs Moduli (GPa) = 46.10887 86.82938 81.27297
#
# Poissons Ratio (x) = 0.48095 -0.10889
# Poissons Ratio (y) = 0.25540 0.33552
# Poissons Ratio (z) = -0.06178 0.35846
#
# Static dielectric constant tensor:
#      x y z
#    x 1.726780 0.000000 0.035340 
#    y 0.000000 1.807860 0.000000 
#    z 0.035340 0.000000 1.711990 
# 
# From -- ./inp_files/42466.got.cif
#   From: 2010.05.17/outbox.cif.g08.bks.cpg/sg15_22_cif.got.tgz:42466.got - 2010.06.03 18:47:42.
