data_PCOD9281024
_publ_section_title
;
Structure prediction by ZEFSAII (Michael W. Deem and Ramdas Pophale) SiO2 
 PCOD9281024
Probable space group: C 2/C
;
_chemical_formula_sum "Si O2"
_cell_formula_units_Z 48
_cell_length_a 14.340906
_cell_length_b 29.454651
_cell_length_c 5.613410
_cell_angle_alpha 90.000000
_cell_angle_beta 101.920810
_cell_angle_gamma 90.000000
_cell_volume 2320.004258
_symmetry_space_group_name_H-M "C 2/C"
_symmetry_group_IT_number 15
_symmetry_cell_setting 'monoclinic'
loop_
_space_group_symop_operation_xyz
x,y,z
-x,y,1/2-z
-x,-y,-z
x,-y,1/2+z
1/2+x,1/2+y,z
1/2-x,1/2+y,1/2-z
1/2-x,1/2-y,-z
1/2+x,1/2-y,1/2+z
loop_
_atom_site_type_symbol
_atom_site_label
_atom_site_fract_x
_atom_site_fract_y
_atom_site_fract_z
Si Si1 0.000000 0.642512 0.750000
Si Si2 0.346835 0.184869 0.981694
Si Si3 0.000000 0.153006 0.750000
Si Si4 0.890406 0.485257 0.873319
Si Si5 0.165250 0.389300 0.636611
Si Si6 0.904692 0.221519 0.332431
Si Si7 0.178230 0.147633 0.559695
O O1 0.050899 0.670673 0.571296
O O2 0.914494 0.613248 0.606907
O O3 0.348550 0.238759 0.938092
O O4 0.259280 0.163444 0.787705
O O5 0.341474 0.158780 0.228427
O O6 0.082333 0.129894 0.635933
O O7 0.940914 0.185303 0.542711
O O8 0.850734 0.514274 0.626581
O O9 0.868710 0.434932 0.753413
O O10 0.000000 0.500000 0.000000
O O11 0.270795 0.388635 0.584711
O O12 0.000000 0.239108 0.250000
O O13 0.847573 0.192735 0.105977
#
# Coordination Sequence:
#
# PCOD9281024 Si02
#       7
#     4   8   4   8   8   8   8
#     4  10  22  34  52  84 125 162 207 258 306 370
#     4  11  22  35  58  85 123 166 211 267 310 382
#     4  10  22  38  60  76 117 160 213 264 324 372
#     4  10  23  40  64  92 129 174 206 256 323 400
#     4  11  24  37  61  90 125 164 218 259 319 387
#     4  10  21  38  56  84 121 168 215 263 324 373
#     4  10  23  39  57  85 119 162 219 268 320 379
#
# _framework density 20.689616999999998
#
# number of rings (size 3 to 8) (size 9 to 14) (size 15 to 20)
#    0.000    1.667    0.833    3.000   11.667    4.000 
#    0.000    0.000    0.000    0.000    0.000    1.167 
#    0.000    0.000    0.000    0.000    0.000    0.000 
#
# Total GULP energy -133601.055735 kJ/mol
# GULP energy per Si atom -5566.710656 kJ/mol
# Density = 2.064253 g / cm^3
# Si number density = 20.689617 Si / 1000 Ang^3
#
#
#
# Elastic Constant Matrix: (Units=GPa)
#
#
# Indices 1 2 3 4 5 6 
#
# 1 128.7011 30.6404 9.4316 0.0000 -26.5251 0.0000
# 2 30.6404 50.9798 1.8450 0.0000 -3.4637 0.0000
# 3 9.4316 1.8450 72.4457 0.0000 -0.7330 0.0000
# 4 0.0000 0.0000 0.0000 27.6960 0.0000 -16.7652
# 5 -26.5251 -3.4637 -0.7330 0.0000 34.7588 0.0000
# 6 0.0000 0.0000 0.0000 -16.7652 0.0000 21.4398
#
#
#
# Elastic Compliance Matrix: (Units=1/GPa)
#
#
# Indices 1 2 3 4 5 6 
#
# 1 0.010856 -0.005961 -0.001184 0.000000 0.007665 0.000000
# 2 -0.005961 0.023039 0.000167 0.000000 -0.002250 0.000000
# 3 -0.001184 0.000167 0.013947 0.000000 -0.000593 0.000000
# 4 0.000000 0.000000 0.000000 0.068558 0.000000 0.053610
# 5 0.007665 -0.002250 -0.000593 0.000000 0.034382 0.000000
# 6 0.000000 0.000000 0.000000 0.053610 0.000000 0.088564
#
#
# Mechanical properties :
#
#
# Convention : Reuss Voigt Hill
#
# Bulk Modulus (GPa) = 29.51090 37.32897 33.41994
# Shear Modulus (GPa) = 18.89653 30.79289 24.84471
#
# Velocity S-wave (km/s) = 3.02542 3.86207 3.46906
# Velocity P-wave (km/s) = 5.14770 6.16190 5.67749
#
# Compressibility (1/GPa) = 0.03388578
#
# Stress axis : x y z
#
# Youngs Moduli (GPa) = 92.11821 43.40384 71.69824
#
# Poissons Ratio (x) = 0.25873 0.08488
# Poissons Ratio (y) = 0.54911 -0.01194
# Poissons Ratio (z) = 0.10906 -0.00723
#
# Static dielectric constant tensor:
#      x y z
#    x 1.800140 0.000000 -0.087130 
#    y 0.000000 1.836490 0.000000 
#    z -0.087130 0.000000 1.908430 
# 
# From -- ./inp_files/8828.got.cif
#   From: 2010.05.17/outbox.cif.g08.bks.cpg/sg15_5_cif.got.tgz:8828.got - 2010.06.03 18:47:42.
