data_PCOD9281859
_publ_section_title
;
Structure prediction by ZEFSAII (Michael W. Deem and Ramdas Pophale) SiO2 
 PCOD9281859
Probable space group: C 2/C
;
_chemical_formula_sum "Si O2"
_cell_formula_units_Z 52
_cell_length_a 8.563069
_cell_length_b 18.065753
_cell_length_c 21.141949
_cell_angle_alpha 90.000000
_cell_angle_beta 49.015444
_cell_angle_gamma 90.000000
_cell_volume 2468.949060
_symmetry_space_group_name_H-M "C 2/C"
_symmetry_group_IT_number 15
_symmetry_cell_setting 'monoclinic'
loop_
_space_group_symop_operation_xyz
x,y,z
-x,y,1/2-z
-x,-y,-z
x,-y,1/2+z
1/2+x,1/2+y,z
1/2-x,1/2+y,1/2-z
1/2-x,1/2-y,-z
1/2+x,1/2-y,1/2+z
loop_
_atom_site_type_symbol
_atom_site_label
_atom_site_fract_x
_atom_site_fract_y
_atom_site_fract_z
Si Si1 0.318433 0.028554 0.392705
Si Si2 0.172420 0.066799 0.627000
Si Si3 0.155071 0.667688 0.022163
Si Si4 0.000000 0.298280 0.250000
Si Si5 0.217168 0.790731 0.576617
Si Si6 0.901512 0.944885 0.935345
Si Si7 0.694180 0.074654 0.776901
O O1 0.351813 0.110080 0.416078
O O2 0.137289 0.032250 0.388791
O O3 0.224482 0.969886 0.468813
O O4 0.529762 0.991139 0.312906
O O5 0.195114 0.123561 0.564549
O O6 0.312002 0.094288 0.646994
O O7 0.932882 0.055317 0.706056
O O8 0.226887 0.986787 0.585425
O O9 0.932065 0.679868 0.049362
O O10 0.250000 0.750000 0.000000
O O11 0.106149 0.253191 0.164029
O O12 0.154018 0.355295 0.243647
O O13 0.250000 0.750000 0.500000
O O14 0.087581 0.861177 0.588718
#
# Coordination Sequence:
#
# PCOD9281859 Si02
#       7
#     8   8   8   4   8   8   8
#     4  10  21  38  65  93 127 175 220 275 330 405
#     4  10  22  39  64  91 123 169 217 273 330 403
#     4  11  22  39  63  95 132 174 223 273 341 412
#     4  12  26  42  64  96 132 172 226 284 344 418
#     4  12  25  42  66  94 135 182 224 282 348 413
#     4  10  21  39  61  92 127 166 222 266 332 408
#     4  11  22  40  62  90 126 167 219 275 336 393
#
# _framework density 21.061592000000001
#
# number of rings (size 3 to 8) (size 9 to 14) (size 15 to 20)
#    0.000    1.231    0.000    6.462    0.000    7.385 
#    0.000    0.000    0.000    1.846    0.000    0.000 
#    0.000    0.000    0.000    0.000    0.000    0.000 
#
# Total GULP energy -144889.968115 kJ/mol
# GULP energy per Si atom -5572.691081 kJ/mol
# Density = 2.101366 g / cm^3
# Si number density = 21.061592 Si / 1000 Ang^3
#
#
#
# Elastic Constant Matrix: (Units=GPa)
#
#
# Indices 1 2 3 4 5 6 
#
# 1 102.5153 35.1575 41.0898 0.0006 1.1752 0.0005
# 2 35.1575 125.5288 50.2451 0.0003 22.3971 0.0003
# 3 41.0898 50.2451 89.7546 0.0013 8.9269 0.0000
# 4 0.0006 0.0003 0.0013 -16.6992 -0.0007 12.0408
# 5 1.1752 22.3971 8.9269 -0.0007 42.2776 -0.0002
# 6 0.0005 0.0003 0.0000 12.0408 -0.0002 42.1610
#
#
#
# Elastic Compliance Matrix: (Units=1/GPa)
#
#
# Indices 1 2 3 4 5 6 
#
# 1 0.012268 -0.001822 -0.004758 0.000000 0.001629 0.000000
# 2 -0.001822 0.011371 -0.005043 0.000000 -0.004908 0.000000
# 3 -0.004758 -0.005043 0.016205 0.000001 -0.000618 0.000000
# 4 0.000000 0.000000 0.000001 -0.049657 -0.000001 0.014182
# 5 0.001629 -0.004908 -0.000618 -0.000001 0.026339 0.000000
# 6 0.000000 0.000000 0.000000 0.014182 0.000000 0.019668
#
#
# Mechanical properties :
#
#
# Convention : Reuss Voigt Hill
#
# Bulk Modulus (GPa) = 60.25422 63.42040 61.83731
# Shear Modulus (GPa) = 76.95561 26.30163 51.62862
#
# Velocity S-wave (km/s) = 6.05125 3.53766 4.95645
# Velocity P-wave (km/s) = 8.80308 6.84573 7.88537
#
# Compressibility (1/GPa) = 0.01659635
#
# Stress axis : x y z
#
# Youngs Moduli (GPa) = 81.51250 87.94295 61.71108
#
# Poissons Ratio (x) = 0.16023 0.29365
# Poissons Ratio (y) = 0.14852 0.31122
# Poissons Ratio (z) = 0.38787 0.44352
#
# Static dielectric constant tensor:
#      x y z
#    x 1.764610 0.000000 0.043070 
#    y 0.000000 1.852950 0.000000 
#    z 0.043070 0.000000 1.849660 
# 
# From -- ./inp_files/233014.got.cif
#   From: 2010.05.17/outbox.cif.g08.bks.cpg/sg15_117_cif.got.tgz:233014.got - 2010.06.03 18:47:42.
