data_PCOD9281690
_publ_section_title
;
Structure prediction by ZEFSAII (Michael W. Deem and Ramdas Pophale) SiO2 
 PCOD9281690
Probable space group: C 2/C
;
_chemical_formula_sum "Si O2"
_cell_formula_units_Z 40
_cell_length_a 12.014464
_cell_length_b 17.086359
_cell_length_c 9.244228
_cell_angle_alpha 90.000000
_cell_angle_beta 97.826246
_cell_angle_gamma 90.000000
_cell_volume 1880.011095
_symmetry_space_group_name_H-M "C 2/C"
_symmetry_group_IT_number 15
_symmetry_cell_setting 'monoclinic'
loop_
_space_group_symop_operation_xyz
x,y,z
-x,y,1/2-z
-x,-y,-z
x,-y,1/2+z
1/2+x,1/2+y,z
1/2-x,1/2+y,1/2-z
1/2-x,1/2-y,-z
1/2+x,1/2-y,1/2+z
loop_
_atom_site_type_symbol
_atom_site_label
_atom_site_fract_x
_atom_site_fract_y
_atom_site_fract_z
Si Si1 0.621623 0.448609 0.256445
Si Si2 0.220401 0.078543 0.090500
Si Si3 0.092202 0.784045 0.089359
Si Si4 0.330402 0.279393 0.722088
Si Si5 0.365520 0.799712 0.498754
O O1 0.500000 0.489373 0.250000
O O2 0.709631 0.500163 0.181525
O O3 0.661975 0.432963 0.425688
O O4 0.600383 0.368060 0.166647
O O5 0.158660 0.143656 0.177857
O O6 0.339496 0.117094 0.066519
O O7 0.198225 0.734517 0.166145
O O8 0.110824 0.790567 0.920323
O O9 0.972154 0.742820 0.085771
O O10 0.374445 0.206341 0.825952
O O11 0.250000 0.750000 0.500000
#
# Coordination Sequence:
#
# PCOD9281690 Si02
#       5
#     8   8   8   8   8
#     4  12  24  40  66  99 134 181 222 286 340 392
#     4  11  24  40  62  96 142 170 220 278 344 396
#     4  11  23  40  72 100 131 173 232 275 338 395
#     4  10  22  42  65  98 133 175 226 280 327 407
#     4  10  21  38  63  96 135 174 220 276 330 399
#
# _framework density 21.276471000000001
#
# number of rings (size 3 to 8) (size 9 to 14) (size 15 to 20)
#    0.000    1.200    2.000    4.800    2.800    3.200 
#    0.000    0.000    0.000   19.200    0.000    0.000 
#    0.000    0.000    0.000    0.000    0.000    0.000 
#
# Total GULP energy -111736.695723 kJ/mol
# GULP energy per Si atom -5586.834786 kJ/mol
# Density = 2.122805 g / cm^3
# Si number density = 21.276471 Si / 1000 Ang^3
#
#
#
# Elastic Constant Matrix: (Units=GPa)
#
#
# Indices 1 2 3 4 5 6 
#
# 1 109.7403 54.4693 44.8651 0.0000 5.5982 0.0000
# 2 54.4693 100.0411 63.4486 0.0000 -4.5292 0.0000
# 3 44.8651 63.4486 183.7895 0.0000 -14.5914 0.0000
# 4 0.0000 0.0000 0.0000 28.7656 0.0000 -17.8187
# 5 5.5982 -4.5292 -14.5914 0.0000 28.5522 0.0000
# 6 0.0000 0.0000 0.0000 -17.8187 0.0000 33.9610
#
#
#
# Elastic Compliance Matrix: (Units=1/GPa)
#
#
# Indices 1 2 3 4 5 6 
#
# 1 0.013081 -0.006498 -0.001288 0.000000 -0.004254 0.000000
# 2 -0.006498 0.016028 -0.003798 0.000000 0.001876 0.000000
# 3 -0.001288 -0.003798 0.007336 0.000000 0.003399 0.000000
# 4 0.000000 0.000000 0.000000 0.051503 0.000000 0.027022
# 5 -0.004254 0.001876 0.003399 0.000000 0.037892 0.000000
# 6 0.000000 0.000000 0.000000 0.027022 0.000000 0.043624
#
#
# Mechanical properties :
#
#
# Convention : Reuss Voigt Hill
#
# Bulk Modulus (GPa) = 75.31483 79.90409 77.60946
# Shear Modulus (GPa) = 25.37331 33.64161 29.50746
#
# Velocity S-wave (km/s) = 3.45708 3.98070 3.72810
# Velocity P-wave (km/s) = 7.17009 7.66581 7.42209
#
# Compressibility (1/GPa) = 0.01327760
#
# Stress axis : x y z
#
# Youngs Moduli (GPa) = 76.44535 62.39209 136.30784
#
# Poissons Ratio (x) = 0.40544 0.17551
# Poissons Ratio (y) = 0.49676 0.51769
# Poissons Ratio (z) = 0.09843 0.23696
#
# Static dielectric constant tensor:
#      x y z
#    x 1.805960 0.000000 -0.043540 
#    y 0.000000 1.816330 0.000000 
#    z -0.043540 0.000000 1.836790 
# 
# From -- ./inp_files/29328.got.cif
#   From: 2010.05.17/outbox.cif.g08.bks.cpg/sg15_15_cif.got.tgz:29328.got - 2010.06.03 18:47:42.
