data_PCOD9281206
_publ_section_title
;
Structure prediction by ZEFSAII (Michael W. Deem and Ramdas Pophale) SiO2 
 PCOD9281206
Probable space group: C 2/C
;
_chemical_formula_sum "Si O2"
_cell_formula_units_Z 48
_cell_length_a 10.761037
_cell_length_b 8.316599
_cell_length_c 24.821527
_cell_angle_alpha 90.000000
_cell_angle_beta 105.130590
_cell_angle_gamma 90.000000
_cell_volume 2144.399609
_symmetry_space_group_name_H-M "C 2/C"
_symmetry_group_IT_number 15
_symmetry_cell_setting 'monoclinic'
loop_
_space_group_symop_operation_xyz
x,y,z
-x,y,1/2-z
-x,-y,-z
x,-y,1/2+z
1/2+x,1/2+y,z
1/2-x,1/2+y,1/2-z
1/2-x,1/2-y,-z
1/2+x,1/2-y,1/2+z
loop_
_atom_site_type_symbol
_atom_site_label
_atom_site_fract_x
_atom_site_fract_y
_atom_site_fract_z
Si Si1 0.870897 0.833232 0.767000
Si Si2 0.907940 0.785392 0.287985
Si Si3 0.048635 0.756184 0.608436
Si Si4 0.468732 0.373044 0.409988
Si Si5 0.218994 0.382394 0.450649
Si Si6 0.891023 0.361184 0.494461
O O1 0.732445 0.795146 0.726219
O O2 0.879046 0.754027 0.826978
O O3 0.000000 0.780109 0.750000
O O4 0.882778 0.025163 0.774799
O O5 0.975133 0.781046 0.353923
O O6 0.000000 0.725164 0.250000
O O7 0.136713 0.697787 0.568883
O O8 0.919970 0.650327 0.591149
O O9 0.999649 0.939268 0.593653
O O10 0.323490 0.374219 0.415973
O O11 0.547614 0.280740 0.464075
O O12 0.250000 0.250000 0.500000
O O13 0.215798 0.549994 0.482485
O O14 0.000000 0.500000 0.500000
#
# Coordination Sequence:
#
# PCOD9281206 Si02
#       6
#     8   8   8   8   8   8
#     4  10  22  43  65  94 128 169 216 266 319 375
#     4  10  24  43  65  95 128 168 218 264 316 381
#     4  10  22  40  60  92 128 160 213 261 318 382
#     4  11  22  41  63  88 129 164 208 265 315 380
#     4  11  22  39  60  90 125 163 207 256 318 383
#     4  10  21  38  59  92 122 160 207 251 319 379
#
# _framework density 22.383887000000001
#
# number of rings (size 3 to 8) (size 9 to 14) (size 15 to 20)
#    0.000    1.667    3.333    1.500    0.000    6.667 
#    9.000    0.000    0.000    0.000    0.000    0.000 
#    0.000    0.000    0.000    0.000    0.000    0.000 
#
# Total GULP energy -134223.733583 kJ/mol
# GULP energy per Si atom -5592.655566 kJ/mol
# Density = 2.233294 g / cm^3
# Si number density = 22.383887 Si / 1000 Ang^3
#
#
#
# Elastic Constant Matrix: (Units=GPa)
#
#
# Indices 1 2 3 4 5 6 
#
# 1 81.1154 4.6712 -6.1012 0.0000 -14.2583 0.0000
# 2 4.6712 25.5509 5.9413 0.0000 1.7696 0.0000
# 3 -6.1012 5.9413 58.0818 0.0000 -17.0391 0.0000
# 4 0.0000 0.0000 0.0000 23.1042 0.0000 1.4107
# 5 -14.2583 1.7696 -17.0391 0.0000 36.8574 0.0000
# 6 0.0000 0.0000 0.0000 1.4107 0.0000 19.9562
#
#
#
# Elastic Compliance Matrix: (Units=1/GPa)
#
#
# Indices 1 2 3 4 5 6 
#
# 1 0.014213 -0.004089 0.004144 0.000000 0.007610 0.000000
# 2 -0.004089 0.041900 -0.006675 0.000000 -0.006679 0.000000
# 3 0.004144 -0.006675 0.021865 0.000000 0.012032 0.000000
# 4 0.000000 0.000000 0.000000 0.043470 0.000000 -0.003073
# 5 0.007610 -0.006679 0.012032 0.000000 0.035959 0.000000
# 6 0.000000 0.000000 0.000000 -0.003073 0.000000 0.050327
#
#
# Mechanical properties :
#
#
# Convention : Reuss Voigt Hill
#
# Bulk Modulus (GPa) = 15.44704 19.30784 17.37744
# Shear Modulus (GPa) = 20.61410 26.66601 23.64006
#
# Velocity S-wave (km/s) = 3.03798 3.45527 3.25332
# Velocity P-wave (km/s) = 4.38426 4.95611 4.67893
#
# Compressibility (1/GPa) = 0.06473732
#
# Stress axis : x y z
#
# Youngs Moduli (GPa) = 70.35810 23.86646 45.73553
#
# Poissons Ratio (x) = 0.09759 -0.18952
# Poissons Ratio (y) = 0.28770 0.30529
# Poissons Ratio (z) = -0.29156 0.15931
#
# Static dielectric constant tensor:
#      x y z
#    x 1.873570 0.000000 -0.003910 
#    y 0.000000 1.819280 0.000000 
#    z -0.003910 0.000000 1.854990 
# 
# From -- ./inp_files/267662.got.cif
#   From: 2010.05.17/outbox.cif.g08.bks.cpg/sg15_134_cif.got.tgz:267662.got - 2010.06.03 18:47:42.
