data_PCOD9281839
_publ_section_title
;
Structure prediction by ZEFSAII (Michael W. Deem and Ramdas Pophale) SiO2 
 PCOD9281839
Probable space group: C 2/C
;
_chemical_formula_sum "Si O2"
_cell_formula_units_Z 36
_cell_length_a 17.039598
_cell_length_b 7.049646
_cell_length_c 23.504664
_cell_angle_alpha 90.000000
_cell_angle_beta 30.953522
_cell_angle_gamma 90.000000
_cell_volume 1452.222554
_symmetry_space_group_name_H-M "C 2/C"
_symmetry_group_IT_number 15
_symmetry_cell_setting 'monoclinic'
loop_
_space_group_symop_operation_xyz
x,y,z
-x,y,1/2-z
-x,-y,-z
x,-y,1/2+z
1/2+x,1/2+y,z
1/2-x,1/2+y,1/2-z
1/2-x,1/2-y,-z
1/2+x,1/2-y,1/2+z
loop_
_atom_site_type_symbol
_atom_site_label
_atom_site_fract_x
_atom_site_fract_y
_atom_site_fract_z
Si Si1 0.755027 0.479318 0.997834
Si Si2 0.087086 0.041089 0.818637
Si Si3 0.770011 0.410865 0.811261
Si Si4 0.337871 0.959479 0.073171
Si Si5 0.000000 0.411198 0.250000
O O1 0.868486 0.561887 0.881234
O O2 0.750000 0.250000 0.000000
O O3 0.809798 0.231476 0.094053
O O4 0.806970 0.531317 0.029375
O O5 0.352202 0.482779 0.657768
O O6 0.206677 0.967179 0.697136
O O7 0.920694 0.970795 0.905870
O O8 0.866440 0.564788 0.783854
O O9 0.889365 0.268806 0.704412
O O10 0.500000 0.000000 0.000000
#
# Coordination Sequence:
#
# PCOD9281839 Si02
#       5
#     8   8   8   8   4
#     4  12  20  39  64  90 123 168 218 250 305 386
#     4  10  22  38  67  94 123 161 212 255 317 373
#     4  10  21  39  64  97 121 165 205 258 316 370
#     4  10  21  38  65  90 129 163 201 260 319 364
#     4  12  22  38  64  92 122 170 216 262 300 378
#
# _framework density 24.789587999999998
#
# number of rings (size 3 to 8) (size 9 to 14) (size 15 to 20)
#    1.333    0.000    4.444    2.000    0.000    0.889 
#    0.000    1.111    4.889    0.000    0.000    0.000 
#    0.000    0.000    0.000    0.000    0.000    0.000 
#
# Total GULP energy -100219.030251 kJ/mol
# GULP energy per Si atom -5567.723903 kJ/mol
# Density = 2.473317 g / cm^3
# Si number density = 24.789588 Si / 1000 Ang^3
#
#
#
# Elastic Constant Matrix: (Units=GPa)
#
#
# Indices 1 2 3 4 5 6 
#
# 1 255.8443 12.1801 110.0239 0.0001 -3.7009 -0.0001
# 2 12.1801 72.5915 -8.0328 0.0004 1.5199 -0.0008
# 3 110.0239 -8.0328 184.9039 0.0004 -16.9336 0.0000
# 4 0.0001 0.0004 0.0004 1.1828 -0.0001 -4.9396
# 5 -3.7009 1.5199 -16.9336 -0.0001 52.6500 0.0000
# 6 -0.0001 -0.0008 0.0000 -4.9396 0.0000 18.0367
#
#
#
# Elastic Compliance Matrix: (Units=1/GPa)
#
#
# Indices 1 2 3 4 5 6 
#
# 1 0.005387 -0.001257 -0.003320 -0.000007 -0.000653 -0.000002
# 2 -0.001257 0.014138 0.001357 0.000020 -0.000060 0.000006
# 3 -0.003320 0.001357 0.007643 0.000016 0.002186 0.000005
# 4 -0.000007 0.000020 0.000016 -5.885164 -0.000008 -1.611721
# 5 -0.000653 -0.000060 0.002186 -0.000008 0.019652 -0.000002
# 6 -0.000002 0.000006 0.000005 -1.611721 -0.000002 -0.385946
#
#
# Mechanical properties :
#
#
# Convention : Reuss Voigt Hill
#
# Bulk Modulus (GPa) = 48.24621 82.40914 65.32767
# Shear Modulus (GPa) = -0.80503 40.98513 20.09005
#
# Velocity S-wave (km/s) = -0.57048 4.07052 2.84988
# Velocity P-wave (km/s) = 4.36699 7.44364 6.10239
#
# Compressibility (1/GPa) = 0.02072702
#
# Stress axis : x y z
#
# Youngs Moduli (GPa) = 185.64463 70.73069 130.84538
#
# Poissons Ratio (x) = 0.08894 0.43436
# Poissons Ratio (y) = 0.23345 -0.17755
# Poissons Ratio (z) = 0.61627 -0.09598
#
# Static dielectric constant tensor:
#      x y z
#    x 1.862170 0.000000 0.026130 
#    y 0.000000 2.072350 0.000000 
#    z 0.026130 0.000000 1.989760 
# 
# From -- ./inp_files/300046.got.cif
#   From: 2010.05.17/outbox.cif.g08.bks.cpg/sg15_151_cif.got.tgz:300046.got - 2010.06.03 18:47:42.
