data_PCOD9281464
_publ_section_title
;
Structure prediction by ZEFSAII (Michael W. Deem and Ramdas Pophale) SiO2 
 PCOD9281464
Probable space group: C 2/C
;
_chemical_formula_sum "Si O2"
_cell_formula_units_Z 44
_cell_length_a 8.084603
_cell_length_b 21.957703
_cell_length_c 9.759916
_cell_angle_alpha 90.000000
_cell_angle_beta 79.161509
_cell_angle_gamma 90.000000
_cell_volume 1701.666444
_symmetry_space_group_name_H-M "C 2/C"
_symmetry_group_IT_number 15
_symmetry_cell_setting 'monoclinic'
loop_
_space_group_symop_operation_xyz
x,y,z
-x,y,1/2-z
-x,-y,-z
x,-y,1/2+z
1/2+x,1/2+y,z
1/2-x,1/2+y,1/2-z
1/2-x,1/2-y,-z
1/2+x,1/2-y,1/2+z
loop_
_atom_site_type_symbol
_atom_site_label
_atom_site_fract_x
_atom_site_fract_y
_atom_site_fract_z
Si Si1 0.337118 0.873624 0.680326
Si Si2 0.913986 0.673813 0.566907
Si Si3 0.596102 0.687788 0.406553
Si Si4 0.527044 0.413214 0.097563
Si Si5 0.000000 0.420389 0.250000
Si Si6 0.247511 0.485419 0.625332
O O1 0.500000 0.859269 0.750000
O O2 0.421874 0.858162 0.524469
O O3 0.184681 0.831050 0.751458
O O4 0.283629 0.940737 0.740108
O O5 0.750249 0.681888 0.495308
O O6 0.962931 0.743310 0.590603
O O7 0.875361 0.627693 0.696718
O O8 0.478115 0.634800 0.486196
O O9 0.500000 0.383251 0.250000
O O10 0.403733 0.470717 0.126433
O O11 0.700995 0.443545 0.011745
O O12 0.906637 0.468399 0.363927
#
# Coordination Sequence:
#
# PCOD9281464 Si02
#       6
#     8   8   8   8   4   8
#     4   9  18  37  60  86 117 164 204 260 302 365
#     4  10  22  37  64  90 123 161 214 263 316 369
#     4   9  20  41  61  88 116 166 221 252 303 387
#     4  10  21  38  62  87 121 169 203 256 305 379
#     4  12  24  38  60 100 128 162 202 276 322 364
#     4  10  22  37  57  92 130 155 213 247 321 377
#
# _framework density 25.857006999999999
#
# number of rings (size 3 to 8) (size 9 to 14) (size 15 to 20)
#    0.000    2.182    0.909    1.091    2.545    5.818 
#    0.000    3.636    4.000    0.000    0.000    0.000 
#    0.000    0.000    0.000    0.000    0.000    0.000 
#
# Total GULP energy -122843.026020 kJ/mol
# GULP energy per Si atom -5583.773910 kJ/mol
# Density = 2.579816 g / cm^3
# Si number density = 25.857007 Si / 1000 Ang^3
#
#
#
# Elastic Constant Matrix: (Units=GPa)
#
#
# Indices 1 2 3 4 5 6 
#
# 1 54.8314 22.4437 25.1505 0.0000 -11.4949 0.0000
# 2 22.4437 163.2851 82.3195 0.0000 -9.8729 0.0000
# 3 25.1505 82.3195 130.1771 0.0000 -14.0111 0.0000
# 4 0.0000 0.0000 0.0000 28.9870 0.0000 -0.8787
# 5 -11.4949 -9.8729 -14.0111 0.0000 35.3313 0.0000
# 6 0.0000 0.0000 0.0000 -0.8787 0.0000 36.3982
#
#
#
# Elastic Compliance Matrix: (Units=1/GPa)
#
#
# Indices 1 2 3 4 5 6 
#
# 1 0.021126 -0.001192 -0.002741 0.000000 0.005453 0.000000
# 2 -0.001192 0.009060 -0.005503 0.000000 -0.000039 0.000000
# 3 -0.002741 -0.005503 0.011939 0.000000 0.002305 0.000000
# 4 0.000000 0.000000 0.000000 0.034523 0.000000 0.000833
# 5 0.005453 -0.000039 0.002305 0.000000 0.030981 0.000000
# 6 0.000000 0.000000 0.000000 0.000833 0.000000 0.027494
#
#
# Mechanical properties :
#
#
# Convention : Reuss Voigt Hill
#
# Bulk Modulus (GPa) = 43.00439 67.56900 55.28670
# Shear Modulus (GPa) = 30.91230 34.70196 32.80713
#
# Velocity S-wave (km/s) = 3.46137 3.66740 3.56587
# Velocity P-wave (km/s) = 5.71336 6.64241 6.19533
#
# Compressibility (1/GPa) = 0.02325344
#
# Stress axis : x y z
#
# Youngs Moduli (GPa) = 47.33475 110.37282 83.75598
#
# Poissons Ratio (x) = 0.13161 0.22955
# Poissons Ratio (y) = 0.05644 0.46092
# Poissons Ratio (z) = 0.12973 0.60740
#
# Static dielectric constant tensor:
#      x y z
#    x 2.169600 0.000000 0.024140 
#    y 0.000000 1.984920 0.000000 
#    z 0.024140 0.000000 2.119950 
# 
# From -- ./inp_files/88731.got.cif
#   From: 2010.05.17/outbox.cif.g08.bks.cpg/sg15_45_cif.got.tgz:88731.got - 2010.06.03 18:47:42.
