data_PCOD9281838
_publ_section_title
;
Structure prediction by ZEFSAII (Michael W. Deem and Ramdas Pophale) SiO2 
 PCOD9281838
Probable space group: C 2/C
;
_chemical_formula_sum "Si O2"
_cell_formula_units_Z 48
_cell_length_a 7.910762
_cell_length_b 19.936687
_cell_length_c 27.761876
_cell_angle_alpha 90.000000
_cell_angle_beta 145.817093
_cell_angle_gamma 90.000000
_cell_volume 2459.971949
_symmetry_space_group_name_H-M "C 2/C"
_symmetry_group_IT_number 15
_symmetry_cell_setting 'monoclinic'
loop_
_space_group_symop_operation_xyz
x,y,z
-x,y,1/2-z
-x,-y,-z
x,-y,1/2+z
1/2+x,1/2+y,z
1/2-x,1/2+y,1/2-z
1/2-x,1/2-y,-z
1/2+x,1/2-y,1/2+z
loop_
_atom_site_type_symbol
_atom_site_label
_atom_site_fract_x
_atom_site_fract_y
_atom_site_fract_z
Si Si1 0.000000 0.937904 0.250000
Si Si2 0.993136 0.736649 0.190853
Si Si3 0.679575 0.483792 0.447255
Si Si4 0.436179 0.050953 0.377152
Si Si5 0.213159 0.597716 0.346649
Si Si6 0.328848 0.628824 0.804656
Si Si7 0.000000 0.164039 0.250000
O O1 0.186415 0.897329 0.254103
O O2 0.227721 0.985956 0.332522
O O3 0.966772 0.804419 0.153666
O O4 0.302093 0.705360 0.241614
O O5 0.000000 0.751258 0.250000
O O6 0.757493 0.675146 0.129668
O O7 0.505618 0.554188 0.406700
O O8 0.486430 0.428424 0.373595
O O9 0.000000 0.500000 0.500000
O O10 0.771732 0.454885 0.521121
O O11 0.536174 0.057138 0.345689
O O12 0.224273 0.115957 0.333325
O O13 0.000000 0.600074 0.250000
O O14 0.000000 0.642473 0.750000
#
# Coordination Sequence:
#
# PCOD9281838 Si02
#       7
#     4   8   8   8   8   8   4
#     4  11  20  38  62  94 119 166 210 262 315 382
#     4  10  21  39  67  90 124 168 224 253 317 387
#     4  12  24  38  61  98 134 162 209 271 325 377
#     4  10  21  38  65  90 127 161 211 259 326 376
#     4  10  22  41  66  92 122 172 217 262 312 389
#     4  12  24  41  65  96 129 166 214 268 321 382
#     4   9  20  40  66  92 117 170 212 264 311 392
#
# _framework density 19.512416999999999
#
# number of rings (size 3 to 8) (size 9 to 14) (size 15 to 20)
#    0.000    1.333    3.333    3.000    7.000    0.000 
#    0.000    4.167    3.667    0.000    0.000    0.000 
#    0.000    0.000    0.000    0.000    0.000    0.000 
#
# Total GULP energy -133798.677456 kJ/mol
# GULP energy per Si atom -5574.944894 kJ/mol
# Density = 1.946801 g / cm^3
# Si number density = 19.512417 Si / 1000 Ang^3
#
#
#
# Elastic Constant Matrix: (Units=GPa)
#
#
# Indices 1 2 3 4 5 6 
#
# 1 106.4441 42.0576 15.2163 -0.0030 -0.3915 -0.0133
# 2 42.0576 115.9962 27.4077 0.0022 11.8888 0.0015
# 3 15.2163 27.4077 60.6550 -0.0017 -4.9831 0.0097
# 4 -0.0030 0.0022 -0.0017 -1.2915 -0.0018 4.1935
# 5 -0.3915 11.8888 -4.9831 -0.0018 29.7500 -0.0021
# 6 -0.0133 0.0015 0.0097 4.1935 -0.0021 19.2175
#
#
#
# Elastic Compliance Matrix: (Units=1/GPa)
#
#
# Indices 1 2 3 4 5 6 
#
# 1 0.011097 -0.003986 -0.000852 -0.000003 0.001596 0.000009
# 2 -0.003986 0.011763 -0.004771 0.000021 -0.005552 -0.000007
# 3 -0.000852 -0.004771 0.019277 -0.000040 0.005124 -0.000001
# 4 -0.000003 0.000021 -0.000040 -0.453195 -0.000036 0.098892
# 5 0.001596 -0.005552 0.005124 -0.000036 0.036712 0.000011
# 6 0.000009 -0.000007 -0.000001 0.098892 0.000011 0.030457
#
#
# Mechanical properties :
#
#
# Convention : Reuss Voigt Hill
#
# Bulk Modulus (GPa) = 43.63140 50.27317 46.95228
# Shear Modulus (GPa) = -15.77128 22.76278 3.49575
#
# Velocity S-wave (km/s) = -2.84609 3.41923 1.33994
# Velocity P-wave (km/s) = 3.40721 6.43497 5.14868
#
# Compressibility (1/GPa) = 0.02291928
#
# Stress axis : x y z
#
# Youngs Moduli (GPa) = 90.11347 85.01506 51.87442
#
# Poissons Ratio (x) = 0.33886 0.04418
# Poissons Ratio (y) = 0.35919 0.24751
# Poissons Ratio (z) = 0.07675 0.40563
#
# Static dielectric constant tensor:
#      x y z
#    x 1.772860 0.000000 -0.112510 
#    y 0.000000 1.750860 0.000000 
#    z -0.112510 0.000000 1.992020 
# 
# From -- ./inp_files/308959.got.cif
#   From: 2010.05.17/outbox.cif.g08.bks.cpg/sg15_155_cif.got.tgz:308959.got - 2010.06.03 18:47:42.
