data_PCOD9281357
_publ_section_title
;
Structure prediction by ZEFSAII (Michael W. Deem and Ramdas Pophale) SiO2 
 PCOD9281357
Probable space group: C 2/C
;
_chemical_formula_sum "Si O2"
_cell_formula_units_Z 64
_cell_length_a 19.015106
_cell_length_b 17.385532
_cell_length_c 14.725190
_cell_angle_alpha 90.000000
_cell_angle_beta 33.990327
_cell_angle_gamma 90.000000
_cell_volume 2721.451335
_symmetry_space_group_name_H-M "C 2/C"
_symmetry_group_IT_number 15
_symmetry_cell_setting 'monoclinic'
loop_
_space_group_symop_operation_xyz
x,y,z
-x,y,1/2-z
-x,-y,-z
x,-y,1/2+z
1/2+x,1/2+y,z
1/2-x,1/2+y,1/2-z
1/2-x,1/2-y,-z
1/2+x,1/2-y,1/2+z
loop_
_atom_site_type_symbol
_atom_site_label
_atom_site_fract_x
_atom_site_fract_y
_atom_site_fract_z
Si Si1 0.502205 0.838909 0.530957
Si Si2 0.459775 0.314412 0.999587
Si Si3 0.261667 0.176548 0.418241
Si Si4 0.384976 0.092456 0.430176
Si Si5 0.867183 0.433625 0.527562
Si Si6 0.077964 0.969317 0.831585
Si Si7 0.504633 0.624658 0.643429
Si Si8 0.864495 0.267454 0.442503
O O1 0.534754 0.764941 0.436530
O O2 0.382887 0.817154 0.723099
O O3 0.616146 0.862780 0.473962
O O4 0.450485 0.908351 0.524418
O O5 0.432138 0.344497 0.131616
O O6 0.531350 0.382252 0.870227
O O7 0.353339 0.284587 0.045382
O O8 0.250000 0.250000 0.500000
O O9 0.273696 0.106914 0.479282
O O10 0.149474 0.150085 0.471099
O O11 0.500000 0.127210 0.250000
O O12 0.421171 0.006225 0.416503
O O13 0.725127 0.463682 0.696694
O O14 0.860009 0.356633 0.476188
O O15 0.036853 0.035521 0.805624
O O16 0.000000 0.000000 0.000000
O O17 0.500000 0.659829 0.750000
O O18 0.750000 0.250000 0.500000
O O19 0.000000 0.253026 0.250000
#
# Coordination Sequence:
#
# PCOD9281357 Si02
#       8
#     8   8   8   8   8   8   8   8
#     4  10  21  38  61  87 122 165 209 266 328 401
#     4  10  22  41  64  95 131 170 221 282 343 415
#     4  11  22  37  61  92 126 167 213 266 329 407
#     4  10  22  39  59  88 124 165 212 266 337 412
#     4  11  22  41  64  91 127 167 222 283 344 415
#     4  10  22  40  61  92 130 172 224 283 347 418
#     4  11  22  39  64  96 131 171 220 275 344 417
#     4  11  25  45  71 101 135 183 237 295 361 431
#
# _framework density 23.516864000000002
#
# number of rings (size 3 to 8) (size 9 to 14) (size 15 to 20)
#    0.000    1.500    0.000    5.250    0.000    5.500 
#    0.000   13.750    0.000    0.000    0.000    0.000 
#    0.000    0.000    0.000    0.000    0.000    0.000 
#
# Total GULP energy -178384.351151 kJ/mol
# GULP energy per Si atom -5574.510973 kJ/mol
# Density = 2.346334 g / cm^3
# Si number density = 23.516864 Si / 1000 Ang^3
#
#
#
# Elastic Constant Matrix: (Units=GPa)
#
#
# Indices 1 2 3 4 5 6 
#
# 1 172.2374 51.7297 27.0451 -0.0001 8.7682 0.0000
# 2 51.7297 114.2327 4.7017 0.0000 4.9185 0.0000
# 3 27.0451 4.7017 64.3345 -0.0001 -3.1947 0.0001
# 4 -0.0001 0.0000 -0.0001 27.2124 0.0001 14.7746
# 5 8.7682 4.9185 -3.1947 0.0001 29.5591 -0.0001
# 6 0.0000 0.0000 0.0001 14.7746 -0.0001 39.2410
#
#
#
# Elastic Compliance Matrix: (Units=1/GPa)
#
#
# Indices 1 2 3 4 5 6 
#
# 1 0.007298 -0.003099 -0.002939 0.000000 -0.001967 0.000000
# 2 -0.003099 0.010167 0.000524 0.000000 -0.000716 0.000000
# 3 -0.002939 0.000524 0.016871 0.000000 0.002608 0.000000
# 4 0.000000 0.000000 0.000000 0.046190 0.000000 -0.017391
# 5 -0.001967 -0.000716 0.002608 0.000000 0.034815 0.000000
# 6 0.000000 0.000000 0.000000 -0.017391 0.000000 0.032031
#
#
# Mechanical properties :
#
#
# Convention : Reuss Voigt Hill
#
# Bulk Modulus (GPa) = 42.90517 57.52863 50.21690
# Shear Modulus (GPa) = 30.08965 37.02439 33.55702
#
# Velocity S-wave (km/s) = 3.58088 3.97215 3.78158
# Velocity P-wave (km/s) = 5.94819 6.74930 6.36137
#
# Compressibility (1/GPa) = 0.02330722
#
# Stress axis : x y z
#
# Youngs Moduli (GPa) = 137.01478 98.35895 59.27480
#
# Poissons Ratio (x) = 0.30485 0.17423
# Poissons Ratio (y) = 0.42467 -0.03108
# Poissons Ratio (z) = 0.40273 -0.05158
#
# Static dielectric constant tensor:
#      x y z
#    x 1.956860 0.000000 -0.031600 
#    y 0.000000 2.014250 0.000000 
#    z -0.031600 0.000000 1.961380 
# 
# From -- ./inp_files/163257.got.cif
#   From: 2010.05.17/outbox.cif.g08.bks.cpg/sg15_82_cif.got.tgz:163257.got - 2010.06.03 18:47:42.
