data_PCOD9281768
_publ_section_title
;
Structure prediction by ZEFSAII (Michael W. Deem and Ramdas Pophale) SiO2 
 PCOD9281768
Probable space group: C 2/C
;
_chemical_formula_sum "Si O2"
_cell_formula_units_Z 56
_cell_length_a 12.570864
_cell_length_b 7.230805
_cell_length_c 24.727896
_cell_angle_alpha 90.000000
_cell_angle_beta 111.585485
_cell_angle_gamma 90.000000
_cell_volume 2090.071033
_symmetry_space_group_name_H-M "C 2/C"
_symmetry_group_IT_number 15
_symmetry_cell_setting 'monoclinic'
loop_
_space_group_symop_operation_xyz
x,y,z
-x,y,1/2-z
-x,-y,-z
x,-y,1/2+z
1/2+x,1/2+y,z
1/2-x,1/2+y,1/2-z
1/2-x,1/2-y,-z
1/2+x,1/2-y,1/2+z
loop_
_atom_site_type_symbol
_atom_site_label
_atom_site_fract_x
_atom_site_fract_y
_atom_site_fract_z
Si Si1 0.505623 0.820545 0.314552
Si Si2 0.053744 0.909298 0.205782
Si Si3 0.739699 0.082534 0.683002
Si Si4 0.649463 0.090243 0.069642
Si Si5 0.026855 0.788690 0.532938
Si Si6 0.616036 0.168413 0.373661
Si Si7 0.344389 0.453865 0.030883
O O1 0.500000 0.873064 0.250000
O O2 0.598782 0.951412 0.361197
O O3 0.515139 0.598588 0.316848
O O4 0.381930 0.856816 0.317273
O O5 0.000000 0.825488 0.250000
O O6 0.181554 0.950743 0.249239
O O7 0.012609 0.757193 0.156232
O O8 0.799687 0.237576 0.655268
O O9 0.721605 0.908831 0.638591
O O10 0.573716 0.904377 0.062147
O O11 0.735229 0.056312 0.035146
O O12 0.560038 0.240208 0.032540
O O13 0.132194 0.901067 0.527047
O O14 0.952421 0.908096 0.560146
O O15 0.651038 0.258833 0.436853
#
# Coordination Sequence:
#
# PCOD9281768 Si02
#       7
#     8   8   8   8   8   8   8
#     4  11  23  38  63  89 123 168 209 250 316 371
#     4   9  21  39  59  88 125 160 212 256 303 380
#     4  10  22  39  64  92 127 167 210 261 314 374
#     4  10  21  39  65  90 126 163 208 261 315 376
#     4  10  21  38  64  93 121 165 207 260 320 374
#     4  10  22  42  62  89 131 166 206 268 310 371
#     4  10  21  39  63  89 127 161 207 260 316 377
#
# _framework density 26.793346
#
# number of rings (size 3 to 8) (size 9 to 14) (size 15 to 20)
#    0.000    2.000    0.000    3.000    6.000    0.000 
#    0.000    0.000   44.000    0.000    0.000    0.000 
#    0.000    0.000    0.000    0.000    0.000    0.000 
#
# Total GULP energy -156473.845353 kJ/mol
# GULP energy per Si atom -5588.351620 kJ/mol
# Density = 2.673236 g / cm^3
# Si number density = 26.793346 Si / 1000 Ang^3
#
#
#
# Elastic Constant Matrix: (Units=GPa)
#
#
# Indices 1 2 3 4 5 6 
#
# 1 152.8994 13.2378 16.5652 0.0000 -11.3717 0.0000
# 2 13.2378 107.3393 2.4529 0.0000 -1.8648 0.0000
# 3 16.5652 2.4529 75.3335 0.0000 0.4507 0.0000
# 4 0.0000 0.0000 0.0000 20.3926 0.0000 -1.5937
# 5 -11.3717 -1.8648 0.4507 0.0000 35.5243 0.0000
# 6 0.0000 0.0000 0.0000 -1.5937 0.0000 32.9490
#
#
#
# Elastic Compliance Matrix: (Units=1/GPa)
#
#
# Indices 1 2 3 4 5 6 
#
# 1 0.006935 -0.000783 -0.001513 0.000000 0.002198 0.000000
# 2 -0.000783 0.009420 -0.000136 0.000000 0.000246 0.000000
# 3 -0.001513 -0.000136 0.013615 0.000000 -0.000664 0.000000
# 4 0.000000 0.000000 0.000000 0.049223 0.000000 0.002381
# 5 0.002198 0.000246 -0.000664 0.000000 0.028875 0.000000
# 6 0.000000 0.000000 0.000000 0.002381 0.000000 0.030465
#
#
# Mechanical properties :
#
#
# Convention : Reuss Voigt Hill
#
# Bulk Modulus (GPa) = 39.82779 44.45379 42.14079
# Shear Modulus (GPa) = 32.94540 37.99427 35.46983
#
# Velocity S-wave (km/s) = 3.51039 3.76978 3.64239
# Velocity P-wave (km/s) = 5.59710 5.96454 5.78374
#
# Compressibility (1/GPa) = 0.02510809
#
# Stress axis : x y z
#
# Youngs Moduli (GPa) = 144.18831 106.15549 73.44659
#
# Poissons Ratio (x) = 0.08307 0.11110
# Poissons Ratio (y) = 0.11284 0.01000
# Poissons Ratio (z) = 0.21811 0.01445
#
# Static dielectric constant tensor:
#      x y z
#    x 2.115760 0.000000 0.073550 
#    y 0.000000 2.048100 0.000000 
#    z 0.073550 0.000000 2.265780 
# 
# From -- ./inp_files/291644.got.cif
#   From: 2010.05.17/outbox.cif.g08.bks.cpg/sg15_146_cif.got.tgz:291644.got - 2010.06.03 18:47:42.
