data_PCOD9281902
_publ_section_title
;
Structure prediction by ZEFSAII (Michael W. Deem and Ramdas Pophale) SiO2 
 PCOD9281902
Probable space group: C 2/C
;
_chemical_formula_sum "Si O2"
_cell_formula_units_Z 36
_cell_length_a 15.783443
_cell_length_b 9.712907
_cell_length_c 9.975825
_cell_angle_alpha 90.000000
_cell_angle_beta 60.270404
_cell_angle_gamma 90.000000
_cell_volume 1328.028349
_symmetry_space_group_name_H-M "C 2/C"
_symmetry_group_IT_number 15
_symmetry_cell_setting 'monoclinic'
loop_
_space_group_symop_operation_xyz
x,y,z
-x,y,1/2-z
-x,-y,-z
x,-y,1/2+z
1/2+x,1/2+y,z
1/2-x,1/2+y,1/2-z
1/2-x,1/2-y,-z
1/2+x,1/2-y,1/2+z
loop_
_atom_site_type_symbol
_atom_site_label
_atom_site_fract_x
_atom_site_fract_y
_atom_site_fract_z
Si Si1 0.872629 0.065853 0.732659
Si Si2 0.096654 0.849060 0.007561
Si Si3 0.826323 0.728955 0.057020
Si Si4 0.500000 0.818971 0.250000
Si Si5 0.108776 0.554919 0.890246
O O1 0.850547 0.078768 0.907133
O O2 0.806896 0.164333 0.692070
O O3 0.982320 0.126929 0.627821
O O4 0.877978 0.920506 0.653471
O O5 0.119570 0.688633 0.974839
O O6 0.935284 0.760270 0.910385
O O7 0.750000 0.750000 0.000000
O O8 0.827185 0.575421 0.118400
O O9 0.411555 0.902340 0.248001
O O10 0.000000 0.500000 0.000000
#
# Coordination Sequence:
#
# PCOD9281902 Si02
#       5
#     8   8   8   4   8
#     4  10  22  38  65 100 143 184 240 299 360 431
#     4  10  21  38  66 101 137 190 244 292 366 439
#     4  11  25  44  68 107 143 186 241 310 359 435
#     4  10  22  42  76  98 142 192 244 290 374 426
#     4  10  21  39  72 102 135 188 242 297 362 439
#
# _framework density 27.107852999999999
#
# number of rings (size 3 to 8) (size 9 to 14) (size 15 to 20)
#    0.000    1.778    4.444    0.000    9.333    0.000 
#    4.000    1.111    0.000    0.000    0.000    0.000 
#    0.000    0.000    0.000    0.000    0.000    0.000 
#
# Total GULP energy -100812.737766 kJ/mol
# GULP energy per Si atom -5600.707654 kJ/mol
# Density = 2.704615 g / cm^3
# Si number density = 27.107853 Si / 1000 Ang^3
#
#
#
# Elastic Constant Matrix: (Units=GPa)
#
#
# Indices 1 2 3 4 5 6 
#
# 1 135.6743 23.9671 36.6351 0.0000 22.0452 0.0000
# 2 23.9671 167.4772 34.6826 0.0000 27.9123 0.0000
# 3 36.6351 34.6826 119.7718 0.0000 25.8874 0.0000
# 4 0.0000 0.0000 0.0000 36.7673 0.0000 16.8549
# 5 22.0452 27.9123 25.8874 0.0000 78.9480 0.0000
# 6 0.0000 0.0000 0.0000 16.8549 0.0000 28.4680
#
#
#
# Elastic Compliance Matrix: (Units=1/GPa)
#
#
# Indices 1 2 3 4 5 6 
#
# 1 0.008253 -0.000513 -0.002063 0.000000 -0.001447 0.000000
# 2 -0.000513 0.006622 -0.001384 0.000000 -0.001744 0.000000
# 3 -0.002063 -0.001384 0.009849 0.000000 -0.002164 0.000000
# 4 0.000000 0.000000 0.000000 0.037330 0.000000 -0.022102
# 5 -0.001447 -0.001744 -0.002164 0.000000 0.014397 0.000000
# 6 0.000000 0.000000 0.000000 -0.022102 0.000000 0.048213
#
#
# Mechanical properties :
#
#
# Convention : Reuss Voigt Hill
#
# Bulk Modulus (GPa) = 59.50811 68.16587 63.83699
# Shear Modulus (GPa) = 36.18365 50.67923 43.43144
#
# Velocity S-wave (km/s) = 3.65746 4.32851 4.00706
# Velocity P-wave (km/s) = 6.31158 7.08393 6.70888
#
# Compressibility (1/GPa) = 0.01680443
#
# Stress axis : x y z
#
# Youngs Moduli (GPa) = 121.16235 151.02185 101.53590
#
# Poissons Ratio (x) = 0.07743 0.20950
# Poissons Ratio (y) = 0.06212 0.14049
# Poissons Ratio (z) = 0.25000 0.20896
#
# Static dielectric constant tensor:
#      x y z
#    x 2.309960 0.000000 0.158200 
#    y 0.000000 2.168130 0.000000 
#    z 0.158200 0.000000 2.424550 
# 
# From -- ./inp_files/102466.got.cif
#   From: 2010.05.17/outbox.cif.g08.bks.cpg/sg15_52_cif.got.tgz:102466.got - 2010.06.03 18:47:42.
