data_PCOD9281176
_publ_section_title
;
Structure prediction by ZEFSAII (Michael W. Deem and Ramdas Pophale) SiO2 
 PCOD9281176
Probable space group: C 2/C
;
_chemical_formula_sum "Si O2"
_cell_formula_units_Z 56
_cell_length_a 28.127537
_cell_length_b 11.836493
_cell_length_c 13.446103
_cell_angle_alpha 90.000000
_cell_angle_beta 138.746530
_cell_angle_gamma 90.000000
_cell_volume 2951.850974
_symmetry_space_group_name_H-M "C 2/C"
_symmetry_group_IT_number 15
_symmetry_cell_setting 'monoclinic'
loop_
_space_group_symop_operation_xyz
x,y,z
-x,y,1/2-z
-x,-y,-z
x,-y,1/2+z
1/2+x,1/2+y,z
1/2-x,1/2+y,1/2-z
1/2-x,1/2-y,-z
1/2+x,1/2-y,1/2+z
loop_
_atom_site_type_symbol
_atom_site_label
_atom_site_fract_x
_atom_site_fract_y
_atom_site_fract_z
Si Si1 0.466425 0.601598 0.592770
Si Si2 0.403948 0.333031 0.329192
Si Si3 0.925358 0.155199 0.080433
Si Si4 0.773166 0.839300 0.451390
Si Si5 0.765990 0.004955 0.613371
Si Si6 0.818394 0.801375 0.827109
Si Si7 0.682200 0.212687 0.458877
O O1 0.500000 0.645704 0.750000
O O2 0.531050 0.596355 0.616056
O O3 0.433701 0.479149 0.569263
O O4 0.403031 0.675385 0.443654
O O5 0.419071 0.287499 0.462731
O O6 0.335620 0.415471 0.234215
O O7 0.384651 0.238295 0.217479
O O8 0.000000 0.188553 0.250000
O O9 0.853765 0.173472 0.033876
O O10 0.750000 0.750000 0.500000
O O11 0.768213 0.954784 0.505133
O O12 0.716729 0.811020 0.275361
O O13 0.775099 0.905283 0.708521
O O14 0.696231 0.084037 0.512948
O O15 0.815391 0.790980 0.940574
O O16 0.750000 0.250000 0.500000
#
# Coordination Sequence:
#
# PCOD9281176 Si02
#       7
#     8   8   8   8   8   8   8
#     4  11  21  35  59  89 124 155 193 252 315 369
#     4  11  21  36  57  92 124 152 200 250 313 373
#     4  11  23  36  60  90 123 159 197 252 321 371
#     4  10  23  39  58  89 123 162 205 252 307 362
#     4  10  21  38  59  86 124 156 202 248 304 361
#     4  11  22  37  58  88 119 160 204 245 307 362
#     4  10  22  34  56  85 118 158 200 248 297 360
#
# _framework density 18.971146999999998
#
# number of rings (size 3 to 8) (size 9 to 14) (size 15 to 20)
#    0.000    1.429    2.857    3.857    6.000    0.000 
#    0.000    0.000    0.000    0.857   14.857    0.000 
#    0.000    0.000    0.000    0.000    0.000    0.000 
#
# Total GULP energy -156083.673892 kJ/mol
# GULP energy per Si atom -5574.416925 kJ/mol
# Density = 1.892797 g / cm^3
# Si number density = 18.971147 Si / 1000 Ang^3
#
#
#
# Elastic Constant Matrix: (Units=GPa)
#
#
# Indices 1 2 3 4 5 6 
#
# 1 93.4061 15.3601 37.2248 0.0000 -8.6873 0.0000
# 2 15.3601 42.8126 51.1118 0.0000 -3.6825 0.0000
# 3 37.2248 51.1118 152.0378 0.0000 -7.4468 0.0000
# 4 0.0000 0.0000 0.0000 19.4005 0.0000 0.1744
# 5 -8.6873 -3.6825 -7.4468 0.0000 31.1165 0.0000
# 6 0.0000 0.0000 0.0000 0.1744 0.0000 20.2417
#
#
#
# Elastic Compliance Matrix: (Units=1/GPa)
#
#
# Indices 1 2 3 4 5 6 
#
# 1 0.012121 -0.001224 -0.002426 0.000000 0.002659 0.000000
# 2 -0.001224 0.039209 -0.012821 0.000000 0.001230 0.000000
# 3 -0.002426 -0.012821 0.011509 0.000000 0.000560 0.000000
# 4 0.000000 0.000000 0.000000 0.051549 0.000000 -0.000444
# 5 0.002659 0.001230 0.000560 0.000000 0.033159 0.000000
# 6 0.000000 0.000000 0.000000 -0.000444 0.000000 0.049407
#
#
# Mechanical properties :
#
#
# Convention : Reuss Voigt Hill
#
# Bulk Modulus (GPa) = 33.44806 55.07221 44.26013
# Shear Modulus (GPa) = 20.84524 26.45574 23.65049
#
# Velocity S-wave (km/s) = 3.31839 3.73839 3.53463
# Velocity P-wave (km/s) = 5.68785 6.90844 6.32764
#
# Compressibility (1/GPa) = 0.02989710
#
# Stress axis : x y z
#
# Youngs Moduli (GPa) = 82.49924 25.50414 86.88813
#
# Poissons Ratio (x) = 0.03121 0.21081
# Poissons Ratio (y) = 0.10095 1.11403
# Poissons Ratio (z) = 0.20016 0.32700
#
# Static dielectric constant tensor:
#      x y z
#    x 1.693310 0.000000 -0.038610 
#    y 0.000000 1.712640 0.000000 
#    z -0.038610 0.000000 1.747790 
# 
# From -- ./inp_files/122693.got.cif
#   From: 2010.05.17/outbox.cif.g08.bks.cpg/sg15_62_cif.got.tgz:122693.got - 2010.06.03 18:47:42.
