data_PCOD9281590
_publ_section_title
;
Structure prediction by ZEFSAII (Michael W. Deem and Ramdas Pophale) SiO2 
 PCOD9281590
Probable space group: C 2/C
;
_chemical_formula_sum "Si O2"
_cell_formula_units_Z 32
_cell_length_a 7.735345
_cell_length_b 34.767981
_cell_length_c 5.666442
_cell_angle_alpha 90.000000
_cell_angle_beta 63.678000
_cell_angle_gamma 90.000000
_cell_volume 1365.937637
_symmetry_space_group_name_H-M "C 2/C"
_symmetry_group_IT_number 15
_symmetry_cell_setting 'monoclinic'
loop_
_space_group_symop_operation_xyz
x,y,z
-x,y,1/2-z
-x,-y,-z
x,-y,1/2+z
1/2+x,1/2+y,z
1/2-x,1/2+y,1/2-z
1/2-x,1/2-y,-z
1/2+x,1/2-y,1/2+z
loop_
_atom_site_type_symbol
_atom_site_label
_atom_site_fract_x
_atom_site_fract_y
_atom_site_fract_z
Si Si1 0.500000 0.353510 0.750000
Si Si2 0.705615 0.205251 0.507429
Si Si3 0.766791 0.981780 0.415348
Si Si4 0.500000 0.165271 0.250000
Si Si5 0.788577 0.106429 0.989362
O O1 0.622521 0.323027 0.518193
O O2 0.342388 0.381282 0.724982
O O3 0.500000 0.198420 0.750000
O O4 0.750000 0.250000 0.500000
O O5 0.660026 0.192493 0.267810
O O6 0.724606 0.936888 0.482962
O O7 0.000000 0.985319 0.250000
O O8 0.702620 0.003249 0.695775
O O9 0.378298 0.135677 0.485028
O O10 0.000000 0.111110 0.750000
#
# Coordination Sequence:
#
# PCOD9281590 Si02
#       5
#     4   8   8   4   8
#     4  10  22  38  58  88 118 162 208 250 322 374
#     4  11  22  41  61  88 120 156 203 260 309 379
#     4   9  19  34  60  94 128 170 218 266 321 384
#     4  10  24  42  60  92 122 160 212 254 318 378
#     4  10  21  38  63  85 124 165 206 260 314 380
#
# _framework density 23.427130999999999
#
# number of rings (size 3 to 8) (size 9 to 14) (size 15 to 20)
#    0.000    2.000    1.250    1.500    8.750    1.000 
#    2.250    1.250    0.000    0.000    0.000    0.000 
#    0.000    0.000    0.000    0.000    0.000    0.000 
#
# Total GULP energy -89178.956114 kJ/mol
# GULP energy per Si atom -5573.684757 kJ/mol
# Density = 2.337381 g / cm^3
# Si number density = 23.427131 Si / 1000 Ang^3
#
#
#
# Elastic Constant Matrix: (Units=GPa)
#
#
# Indices 1 2 3 4 5 6 
#
# 1 102.4113 60.3588 22.6003 0.0000 -10.5937 0.0000
# 2 60.3588 215.0352 81.3867 0.0000 11.6231 0.0000
# 3 22.6003 81.3867 88.7360 0.0000 -9.3210 0.0000
# 4 0.0000 0.0000 0.0000 28.4319 0.0000 -5.8350
# 5 -10.5937 11.6231 -9.3210 0.0000 35.1776 0.0000
# 6 0.0000 0.0000 0.0000 -5.8350 0.0000 20.1502
#
#
#
# Elastic Compliance Matrix: (Units=1/GPa)
#
#
# Indices 1 2 3 4 5 6 
#
# 1 0.012613 -0.004366 0.001381 0.000000 0.005607 0.000000
# 2 -0.004366 0.009294 -0.008098 0.000000 -0.006532 0.000000
# 3 0.001381 -0.008098 0.019205 0.000000 0.008180 0.000000
# 4 0.000000 0.000000 0.000000 0.037394 0.000000 0.010828
# 5 0.005607 -0.006532 0.008180 0.000000 0.034441 0.000000
# 6 0.000000 0.000000 0.000000 0.010828 0.000000 0.052763
#
#
# Mechanical properties :
#
#
# Convention : Reuss Voigt Hill
#
# Bulk Modulus (GPa) = 52.78501 81.65269 67.21885
# Shear Modulus (GPa) = 25.74769 32.87437 29.31103
#
# Velocity S-wave (km/s) = 3.31880 3.75008 3.54101
# Velocity P-wave (km/s) = 6.10462 7.32669 6.74339
#
# Compressibility (1/GPa) = 0.01894477
#
# Stress axis : x y z
#
# Youngs Moduli (GPa) = 79.28265 107.59526 52.07097
#
# Poissons Ratio (x) = 0.46978 -0.07191
# Poissons Ratio (y) = 0.34616 0.42169
# Poissons Ratio (z) = -0.10950 0.87135
#
# Static dielectric constant tensor:
#      x y z
#    x 1.994050 0.000000 0.069000 
#    y 0.000000 1.804700 0.000000 
#    z 0.069000 0.000000 2.068010 
# 
# From -- ./inp_files/2599.got.cif
#   From: 2010.05.17/outbox.cif.g08.bks.cpg/sg15_2_cif.got.tgz:2599.got - 2010.06.03 18:47:42.
