data_PCOD9281149
_publ_section_title
;
Structure prediction by ZEFSAII (Michael W. Deem and Ramdas Pophale) SiO2 
 PCOD9281149
Probable space group: C 2/C
;
_chemical_formula_sum "Si O2"
_cell_formula_units_Z 48
_cell_length_a 8.897435
_cell_length_b 24.229566
_cell_length_c 10.911842
_cell_angle_alpha 90.000000
_cell_angle_beta 92.026667
_cell_angle_gamma 90.000000
_cell_volume 2350.914211
_symmetry_space_group_name_H-M "C 2/C"
_symmetry_group_IT_number 15
_symmetry_cell_setting 'monoclinic'
loop_
_space_group_symop_operation_xyz
x,y,z
-x,y,1/2-z
-x,-y,-z
x,-y,1/2+z
1/2+x,1/2+y,z
1/2-x,1/2+y,1/2-z
1/2-x,1/2-y,-z
1/2+x,1/2-y,1/2+z
loop_
_atom_site_type_symbol
_atom_site_label
_atom_site_fract_x
_atom_site_fract_y
_atom_site_fract_z
Si Si1 0.837207 0.428184 0.027728
Si Si2 0.609140 0.044707 0.367497
Si Si3 0.769952 0.773114 0.820943
Si Si4 0.173743 0.884029 0.786501
Si Si5 0.290506 0.816829 0.135396
Si Si6 0.004271 0.241793 0.529314
O O1 0.723147 0.410797 0.916045
O O2 0.001559 0.429581 0.968360
O O3 0.815211 0.489389 0.078922
O O4 0.822083 0.381321 0.129774
O O5 0.500000 0.029472 0.250000
O O6 0.727214 0.087549 0.316522
O O7 0.784419 0.819171 0.716938
O O8 0.811510 0.714045 0.764643
O O9 0.605484 0.769520 0.874541
O O10 0.890742 0.786376 0.929443
O O11 0.000000 0.890733 0.750000
O O12 0.120366 0.801004 0.091545
O O13 0.399062 0.787104 0.040387
#
# Coordination Sequence:
#
# PCOD9281149 Si02
#       6
#     8   8   8   8   8   8
#     4  10  21  38  59  83 111 147 194 241 286 341
#     4   9  21  40  60  82 110 150 196 237 285 345
#     4  11  22  37  56  84 118 153 188 229 288 348
#     4  11  21  37  60  83 113 151 192 238 289 346
#     4  11  20  35  59  84 113 148 188 237 283 335
#     4  10  22  36  53  83 118 151 189 228 283 348
#
# _framework density 20.417590000000001
#
# number of rings (size 3 to 8) (size 9 to 14) (size 15 to 20)
#    0.000    1.667    0.000    6.000    0.000    4.667 
#    0.000    6.667    0.000    0.000    0.000    0.000 
#    0.000    0.000    0.000    0.000    0.000    0.000 
#
# Total GULP energy -134207.797454 kJ/mol
# GULP energy per Si atom -5591.991561 kJ/mol
# Density = 2.037112 g / cm^3
# Si number density = 20.417590 Si / 1000 Ang^3
#
#
#
# Elastic Constant Matrix: (Units=GPa)
#
#
# Indices 1 2 3 4 5 6 
#
# 1 98.3477 30.8130 22.3456 0.0000 1.6300 0.0000
# 2 30.8130 79.7949 10.7203 0.0000 4.8691 0.0000
# 3 22.3456 10.7203 46.1289 0.0000 7.1304 0.0000
# 4 0.0000 0.0000 0.0000 38.8512 0.0000 -5.3236
# 5 1.6300 4.8691 7.1304 0.0000 24.4093 0.0000
# 6 0.0000 0.0000 0.0000 -5.3236 0.0000 20.2766
#
#
#
# Elastic Compliance Matrix: (Units=1/GPa)
#
#
# Indices 1 2 3 4 5 6 
#
# 1 0.012711 -0.004279 -0.005408 0.000000 0.001584 0.000000
# 2 -0.004279 0.014451 -0.000926 0.000000 -0.002326 0.000000
# 3 -0.005408 -0.000926 0.025584 0.000000 -0.006928 0.000000
# 4 0.000000 0.000000 0.000000 0.026700 0.000000 0.007010
# 5 0.001584 -0.002326 -0.006928 0.000000 0.043350 0.000000
# 6 0.000000 0.000000 0.000000 0.007010 0.000000 0.051158
#
#
# Mechanical properties :
#
#
# Convention : Reuss Voigt Hill
#
# Bulk Modulus (GPa) = 31.72535 39.11437 35.41986
# Shear Modulus (GPa) = 24.30889 27.40027 25.85458
#
# Velocity S-wave (km/s) = 3.45423 3.66730 3.56236
# Velocity P-wave (km/s) = 5.61079 6.09351 5.85712
#
# Compressibility (1/GPa) = 0.03152054
#
# Stress axis : x y z
#
# Youngs Moduli (GPa) = 78.67206 69.20099 39.08663
#
# Poissons Ratio (x) = 0.29608 0.21138
# Poissons Ratio (y) = 0.33660 0.03620
# Poissons Ratio (z) = 0.42546 0.06409
#
# Static dielectric constant tensor:
#      x y z
#    x 1.716300 0.000000 0.018360 
#    y 0.000000 1.699330 0.000000 
#    z 0.018360 0.000000 1.767440 
# 
# From -- ./inp_files/79271.got.cif
#   From: 2010.05.17/outbox.cif.g08.bks.cpg/sg15_40_cif.got.tgz:79271.got - 2010.06.03 18:47:42.
