data_PCOD9281955
_publ_section_title
;
Structure prediction by ZEFSAII (Michael W. Deem and Ramdas Pophale) SiO2 
 PCOD9281955
Probable space group: C 2/C
;
_chemical_formula_sum "Si O2"
_cell_formula_units_Z 36
_cell_length_a 10.420917
_cell_length_b 9.870912
_cell_length_c 24.051747
_cell_angle_alpha 90.000000
_cell_angle_beta 148.085699
_cell_angle_gamma 90.000000
_cell_volume 1307.911210
_symmetry_space_group_name_H-M "C 2/C"
_symmetry_group_IT_number 15
_symmetry_cell_setting 'monoclinic'
loop_
_space_group_symop_operation_xyz
x,y,z
-x,y,1/2-z
-x,-y,-z
x,-y,1/2+z
1/2+x,1/2+y,z
1/2-x,1/2+y,1/2-z
1/2-x,1/2-y,-z
1/2+x,1/2-y,1/2+z
loop_
_atom_site_type_symbol
_atom_site_label
_atom_site_fract_x
_atom_site_fract_y
_atom_site_fract_z
Si Si1 0.321036 0.708697 0.963076
Si Si2 0.188205 0.583817 0.607132
Si Si3 0.044417 0.852651 0.153469
Si Si4 0.608535 0.941602 0.910871
Si Si5 0.000000 0.309196 0.250000
O O1 0.253735 0.552421 0.928309
O O2 0.161285 0.773870 0.854459
O O3 0.250000 0.750000 0.000000
O O4 0.595169 0.760518 0.062210
O O5 0.450718 0.579929 0.675917
O O6 0.000000 0.500000 0.500000
O O7 0.090702 0.532300 0.630092
O O8 0.036059 0.690888 0.161420
O O9 0.293856 0.881928 0.212362
O O10 0.824392 0.890230 0.030827
#
# Coordination Sequence:
#
# PCOD9281955 Si02
#       5
#     8   8   8   8   4
#     4  10  22  42  67  96 133 171 225 276 339 406
#     4   9  18  38  68  92 124 180 219 268 340 409
#     4  10  21  38  66  95 132 172 228 276 345 404
#     4   9  19  41  67  91 125 182 219 277 345 412
#     4  12  24  40  60 100 132 170 224 280 338 402
#
# _framework density 27.524804
#
# number of rings (size 3 to 8) (size 9 to 14) (size 15 to 20)
#    0.000    2.222    0.000    4.000    0.000    3.556 
#   16.000    3.333    0.000    0.000    0.000    0.000 
#    0.000    0.000    0.000    0.000    0.000    0.000 
#
# Total GULP energy -100418.444690 kJ/mol
# GULP energy per Si atom -5578.802483 kJ/mol
# Density = 2.746216 g / cm^3
# Si number density = 27.524804 Si / 1000 Ang^3
#
#
#
# Elastic Constant Matrix: (Units=GPa)
#
#
# Indices 1 2 3 4 5 6 
#
# 1 222.8250 31.8968 68.8085 0.0000 35.6724 0.0000
# 2 31.8968 138.5113 4.6094 0.0000 24.2537 0.0000
# 3 68.8085 4.6094 115.2921 0.0000 44.3006 -0.0001
# 4 0.0000 0.0000 0.0000 -21.4570 0.0000 -12.4595
# 5 35.6724 24.2537 44.3006 0.0000 78.3907 0.0000
# 6 0.0000 0.0000 -0.0001 -12.4595 0.0000 17.4852
#
#
#
# Elastic Compliance Matrix: (Units=1/GPa)
#
#
# Indices 1 2 3 4 5 6 
#
# 1 0.005706 -0.001130 -0.003189 0.000000 -0.000444 0.000000
# 2 -0.001130 0.007911 0.001406 0.000000 -0.002728 0.000000
# 3 -0.003189 0.001406 0.012940 0.000000 -0.006297 0.000000
# 4 0.000000 0.000000 0.000000 -0.032965 0.000000 -0.023490
# 5 -0.000444 -0.002728 -0.006297 0.000000 0.017361 0.000000
# 6 0.000000 0.000000 0.000000 -0.023490 0.000000 0.040453
#
#
# Mechanical properties :
#
#
# Convention : Reuss Voigt Hill
#
# Bulk Modulus (GPa) = 48.23699 76.36196 62.29948
# Shear Modulus (GPa) = 77.95222 39.63803 58.79513
#
# Velocity S-wave (km/s) = 5.32749 3.79896 4.62679
# Velocity P-wave (km/s) = 7.44351 6.85901 7.15723
#
# Compressibility (1/GPa) = 0.02073098
#
# Stress axis : x y z
#
# Youngs Moduli (GPa) = 175.26756 126.41048 77.27814
#
# Poissons Ratio (x) = 0.14284 0.24646
# Poissons Ratio (y) = 0.19804 -0.10868
# Poissons Ratio (z) = 0.55897 -0.17778
#
# Static dielectric constant tensor:
#      x y z
#    x 2.168990 0.000000 -0.059810 
#    y 0.000000 2.323510 0.000000 
#    z -0.059810 0.000000 2.185360 
# 
# From -- ./inp_files/310694.got.cif
#   From: 2010.05.17/outbox.cif.g08.bks.cpg/sg15_156_cif.got.tgz:310694.got - 2010.06.03 18:47:42.
