data_PCOD9281004
_publ_section_title
;
Structure prediction by ZEFSAII (Michael W. Deem and Ramdas Pophale) SiO2 
 PCOD9281004
Probable space group: C 2/C
;
_chemical_formula_sum "Si O2"
_cell_formula_units_Z 64
_cell_length_a 14.145007
_cell_length_b 18.331073
_cell_length_c 13.800574
_cell_angle_alpha 90.000000
_cell_angle_beta 56.477268
_cell_angle_gamma 90.000000
_cell_volume 2983.188512
_symmetry_space_group_name_H-M "C 2/C"
_symmetry_group_IT_number 15
_symmetry_cell_setting 'monoclinic'
loop_
_space_group_symop_operation_xyz
x,y,z
-x,y,1/2-z
-x,-y,-z
x,-y,1/2+z
1/2+x,1/2+y,z
1/2-x,1/2+y,1/2-z
1/2-x,1/2-y,-z
1/2+x,1/2-y,1/2+z
loop_
_atom_site_type_symbol
_atom_site_label
_atom_site_fract_x
_atom_site_fract_y
_atom_site_fract_z
Si Si1 0.515244 0.496176 0.106340
Si Si2 0.884202 0.205930 0.260103
Si Si3 0.727348 0.409281 0.548559
Si Si4 0.711945 0.862427 0.191355
Si Si5 0.371905 0.340528 0.414897
Si Si6 0.249024 0.354022 0.673759
Si Si7 0.606568 0.281571 0.307573
Si Si8 0.749172 0.997396 0.785767
O O1 0.604331 0.557489 0.088851
O O2 0.571189 0.419674 0.104722
O O3 0.386718 0.499156 0.216911
O O4 0.500000 0.500000 0.000000
O O5 0.792435 0.165894 0.381571
O O6 0.866528 0.291798 0.254572
O O7 0.864041 0.167103 0.168073
O O8 0.000000 0.193752 0.250000
O O9 0.793378 0.395382 0.412485
O O10 0.786009 0.465249 0.590408
O O11 0.836655 0.826592 0.137925
O O12 0.700291 0.926507 0.276343
O O13 0.270109 0.339513 0.548820
O O14 0.471994 0.284826 0.387424
O O15 0.350832 0.322391 0.315047
O O16 0.156125 0.299036 0.768973
O O17 0.225063 0.436751 0.716816
#
# Coordination Sequence:
#
# PCOD9281004 Si02
#       8
#     8   8   8   8   8   8   8   8
#     4  12  19  31  55  85 116 141 172 227 293 344
#     4  10  23  37  57  82 113 153 194 235 282 340
#     4  11  21  34  56  86 117 145 181 232 295 347
#     4  11  21  38  56  84 115 149 188 241 284 343
#     4  11  20  35  57  83 118 152 184 231 290 345
#     4  10  21  38  55  85 114 150 189 239 284 340
#     4  10  22  34  55  84 116 149 189 229 285 349
#     4  11  21  34  54  83 112 143 184 230 287 346
#
# _framework density 21.453555000000001
#
# number of rings (size 3 to 8) (size 9 to 14) (size 15 to 20)
#    0.000    1.250    3.750    3.375    3.500    0.000 
#    0.000    0.000    2.750    0.750    0.000    0.000 
#    0.000    0.000    0.000    0.000    0.000    0.000 
#
# Total GULP energy -178770.433545 kJ/mol
# GULP energy per Si atom -5586.576048 kJ/mol
# Density = 2.140473 g / cm^3
# Si number density = 21.453555 Si / 1000 Ang^3
#
#
#
# Elastic Constant Matrix: (Units=GPa)
#
#
# Indices 1 2 3 4 5 6 
#
# 1 22.0699 14.2175 -0.7412 0.0000 11.7463 0.0000
# 2 14.2175 132.7034 3.2090 0.0000 0.0141 0.0000
# 3 -0.7412 3.2090 42.3963 0.0000 22.8166 0.0000
# 4 0.0000 0.0000 0.0000 21.8504 0.0000 9.5946
# 5 11.7463 0.0141 22.8166 0.0000 23.3960 0.0000
# 6 0.0000 0.0000 0.0000 9.5946 0.0000 33.4679
#
#
#
# Elastic Compliance Matrix: (Units=1/GPa)
#
#
# Indices 1 2 3 4 5 6 
#
# 1 0.146706 -0.017917 0.091665 0.000000 -0.163040 0.000000
# 2 -0.017917 0.009753 -0.012395 0.000000 0.021077 0.000000
# 3 0.091665 -0.012395 0.107105 0.000000 -0.150466 0.000000
# 4 0.000000 0.000000 0.000000 0.052357 0.000000 -0.015010
# 5 -0.163040 0.021077 -0.150466 0.000000 0.271326 0.000000
# 6 0.000000 0.000000 0.000000 -0.015010 0.000000 0.034182
#
#
# Mechanical properties :
#
#
# Convention : Reuss Voigt Hill
#
# Bulk Modulus (GPa) = 2.58887 25.61558 14.10222
# Shear Modulus (GPa) = 7.96840 27.77514 17.87177
#
# Velocity S-wave (km/s) = 1.92933 3.60205 2.88938
# Velocity P-wave (km/s) = 2.48444 5.40977 4.20940
#
# Compressibility (1/GPa) = 0.38626910
#
# Stress axis : x y z
#
# Youngs Moduli (GPa) = 6.81634 102.53589 9.33667
#
# Poissons Ratio (x) = 1.83714 -0.85584
# Poissons Ratio (y) = 0.12213 0.11573
# Poissons Ratio (z) = -0.62482 1.27091
#
# Static dielectric constant tensor:
#      x y z
#    x 1.783100 0.000000 0.022490 
#    y 0.000000 1.796150 0.000000 
#    z 0.022490 0.000000 1.804610 
# 
# From -- ./inp_files/155179.got.cif
#   From: 2010.05.17/outbox.cif.g08.bks.cpg/sg15_78_cif.got.tgz:155179.got - 2010.06.03 18:47:42.
