data_PCOD9281033
_publ_section_title
;
Structure prediction by ZEFSAII (Michael W. Deem and Ramdas Pophale) SiO2 
 PCOD9281033
Probable space group: C 2/C
;
_chemical_formula_sum "Si O2"
_cell_formula_units_Z 56
_cell_length_a 23.029828
_cell_length_b 23.631557
_cell_length_c 5.393598
_cell_angle_alpha 90.000000
_cell_angle_beta 77.355495
_cell_angle_gamma 90.000000
_cell_volume 2864.170321
_symmetry_space_group_name_H-M "C 2/C"
_symmetry_group_IT_number 15
_symmetry_cell_setting 'monoclinic'
loop_
_space_group_symop_operation_xyz
x,y,z
-x,y,1/2-z
-x,-y,-z
x,-y,1/2+z
1/2+x,1/2+y,z
1/2-x,1/2+y,1/2-z
1/2-x,1/2-y,-z
1/2+x,1/2-y,1/2+z
loop_
_atom_site_type_symbol
_atom_site_label
_atom_site_fract_x
_atom_site_fract_y
_atom_site_fract_z
Si Si1 0.441075 0.187074 0.200919
Si Si2 0.201607 0.683996 0.640547
Si Si3 0.771420 0.839688 0.578184
Si Si4 0.000000 0.770882 0.750000
Si Si5 0.115973 0.222936 0.378360
Si Si6 0.267510 0.033095 0.284586
Si Si7 0.000000 0.536328 0.750000
Si Si8 0.376802 0.091508 0.987415
O O1 0.500000 0.156571 0.250000
O O2 0.410039 0.229226 0.417626
O O3 0.394837 0.141456 0.155811
O O4 0.468022 0.228272 0.969049
O O5 0.240226 0.684490 0.355087
O O6 0.157187 0.737324 0.667001
O O7 0.165443 0.624267 0.667807
O O8 0.239805 0.682825 0.857952
O O9 0.839900 0.820257 0.528809
O O10 0.762049 0.906887 0.619522
O O11 0.056338 0.803371 0.813713
O O12 0.338238 0.046056 0.176510
O O13 0.252305 0.991978 0.527570
O O14 0.061623 0.571021 0.685919
O O15 0.000000 0.500000 0.500000
#
# Coordination Sequence:
#
# PCOD9281033 Si02
#       8
#     8   8   8   4   8   8   4   8
#     4  10  22  38  59  88 127 165 203 242 305 376
#     4  11  23  38  62  92 122 164 201 253 308 371
#     4  11  25  40  64  91 120 162 206 256 310 366
#     4  10  21  38  56  92 126 168 192 243 298 368
#     4  11  22  37  62  90 130 157 202 245 308 383
#     4  11  23  43  61  84 117 156 208 262 310 347
#     4  12  29  42  58  86 116 168 232 281 296 332
#     4  11  23  41  62  83 120 168 213 259 312 351
#
# _framework density 19.551911
#
# number of rings (size 3 to 8) (size 9 to 14) (size 15 to 20)
#    0.000    1.143    1.429    5.571    5.000    2.286 
#    0.000    0.000    0.000    0.000    0.000    1.000 
#    0.000    0.000    0.000    0.000    0.000    0.000 
#
# Total GULP energy -156390.162665 kJ/mol
# GULP energy per Si atom -5585.362952 kJ/mol
# Density = 1.950741 g / cm^3
# Si number density = 19.551911 Si / 1000 Ang^3
#
#
#
# Elastic Constant Matrix: (Units=GPa)
#
#
# Indices 1 2 3 4 5 6 
#
# 1 138.0346 26.7855 37.2640 0.0000 16.8770 0.0000
# 2 26.7855 46.7631 19.3061 0.0000 -1.0465 0.0000
# 3 37.2640 19.3061 83.6760 0.0000 17.0997 0.0000
# 4 0.0000 0.0000 0.0000 26.4167 0.0000 -5.7365
# 5 16.8770 -1.0465 17.0997 0.0000 20.4633 0.0000
# 6 0.0000 0.0000 0.0000 -5.7365 0.0000 32.9740
#
#
#
# Elastic Compliance Matrix: (Units=1/GPa)
#
#
# Indices 1 2 3 4 5 6 
#
# 1 0.009463 -0.004845 -0.001749 0.000000 -0.006590 0.000000
# 2 -0.004845 0.026967 -0.006226 0.000000 0.010578 0.000000
# 3 -0.001749 -0.006226 0.016807 0.000000 -0.012920 0.000000
# 4 0.000000 0.000000 0.000000 0.039341 0.000000 0.006844
# 5 -0.006590 0.010578 -0.012920 0.000000 0.065640 0.000000
# 6 0.000000 0.000000 0.000000 0.006844 0.000000 0.031518
#
#
# Mechanical properties :
#
#
# Convention : Reuss Voigt Hill
#
# Bulk Modulus (GPa) = 36.23824 48.35386 42.29605
# Shear Modulus (GPa) = 22.26430 28.31200 25.28815
#
# Velocity S-wave (km/s) = 3.37816 3.80944 3.60027
# Velocity P-wave (km/s) = 5.81297 6.64333 6.24197
#
# Compressibility (1/GPa) = 0.02759516
#
# Stress axis : x y z
#
# Youngs Moduli (GPa) = 105.67613 37.08262 59.50064
#
# Poissons Ratio (x) = 0.17968 0.10409
# Poissons Ratio (y) = 0.51205 0.37043
# Poissons Ratio (z) = 0.18487 0.23086
#
# Static dielectric constant tensor:
#      x y z
#    x 1.723040 0.000000 0.085480 
#    y 0.000000 1.705740 0.000000 
#    z 0.085480 0.000000 1.678360 
# 
# From -- ./inp_files/13901.got.cif
#   From: 2010.05.17/outbox.cif.g08.bks.cpg/sg15_7_cif.got.tgz:13901.got - 2010.06.03 18:47:42.
