data_PCOD9281371
_publ_section_title
;
Structure prediction by ZEFSAII (Michael W. Deem and Ramdas Pophale) SiO2 
 PCOD9281371
Probable space group: C 2/C
;
_chemical_formula_sum "Si O2"
_cell_formula_units_Z 48
_cell_length_a 17.275655
_cell_length_b 21.188425
_cell_length_c 7.751010
_cell_angle_alpha 90.000000
_cell_angle_beta 50.966768
_cell_angle_gamma 90.000000
_cell_volume 2203.890378
_symmetry_space_group_name_H-M "C 2/C"
_symmetry_group_IT_number 15
_symmetry_cell_setting 'monoclinic'
loop_
_space_group_symop_operation_xyz
x,y,z
-x,y,1/2-z
-x,-y,-z
x,-y,1/2+z
1/2+x,1/2+y,z
1/2-x,1/2+y,1/2-z
1/2-x,1/2-y,-z
1/2+x,1/2-y,1/2+z
loop_
_atom_site_type_symbol
_atom_site_label
_atom_site_fract_x
_atom_site_fract_y
_atom_site_fract_z
Si Si1 0.104596 0.526452 0.514022
Si Si2 0.980600 0.927844 0.479793
Si Si3 0.851369 0.597858 0.403860
Si Si4 0.168563 0.284124 0.735488
Si Si5 0.235620 0.122014 0.114675
Si Si6 0.841803 0.150380 0.644956
O O1 0.123944 0.555142 0.297893
O O2 0.112644 0.450314 0.500569
O O3 0.192359 0.561380 0.494598
O O4 0.000000 0.543421 0.750000
O O5 0.870042 0.903609 0.671642
O O6 0.000000 0.917407 0.250000
O O7 0.060793 0.891356 0.481859
O O8 0.000000 0.000000 0.500000
O O9 0.893759 0.666569 0.292944
O O10 0.737092 0.617885 0.608951
O O11 0.250000 0.250000 0.500000
O O12 0.217781 0.326730 0.817905
O O13 0.119353 0.221528 0.878435
O O14 0.217062 0.150031 0.952130
#
# Coordination Sequence:
#
# PCOD9281371 Si02
#       6
#     8   8   8   8   8   8
#     4  11  22  39  61  90 123 163 212 268 323 384
#     4  12  24  41  66  99 132 170 217 274 338 401
#     4  10  21  38  61  88 123 162 207 263 320 381
#     4   9  20  40  62  89 127 170 212 262 321 388
#     4  11  23  41  65  94 127 170 216 268 326 392
#     4  11  22  41  65  94 130 169 213 267 329 398
#
# _framework density 21.779668000000001
#
# number of rings (size 3 to 8) (size 9 to 14) (size 15 to 20)
#    0.000    1.333    0.000    7.500    0.000    1.333 
#    0.000   14.167    0.000    2.000    0.000    0.000 
#    0.000    0.000    0.000    0.000    0.000    0.000 
#
# Total GULP energy -133856.947044 kJ/mol
# GULP energy per Si atom -5577.372794 kJ/mol
# Density = 2.173010 g / cm^3
# Si number density = 21.779668 Si / 1000 Ang^3
#
#
#
# Elastic Constant Matrix: (Units=GPa)
#
#
# Indices 1 2 3 4 5 6 
#
# 1 67.3544 40.3891 28.3873 0.0000 -7.0546 0.0000
# 2 40.3891 172.2515 37.7325 0.0000 -5.6598 0.0000
# 3 28.3873 37.7325 110.3054 0.0000 -5.1338 0.0000
# 4 0.0000 0.0000 0.0000 32.4598 0.0000 11.1200
# 5 -7.0546 -5.6598 -5.1338 0.0000 41.1900 0.0000
# 6 0.0000 0.0000 0.0000 11.1200 0.0000 34.8702
#
#
#
# Elastic Compliance Matrix: (Units=1/GPa)
#
#
# Indices 1 2 3 4 5 6 
#
# 1 0.018679 -0.003541 -0.003490 0.000000 0.002278 0.000000
# 2 -0.003541 0.006961 -0.001462 0.000000 0.000168 0.000000
# 3 -0.003490 -0.001462 0.010488 0.000000 0.000508 0.000000
# 4 0.000000 0.000000 0.000000 0.034586 0.000000 -0.011029
# 5 0.002278 0.000168 0.000508 0.000000 0.024754 0.000000
# 6 0.000000 0.000000 0.000000 -0.011029 0.000000 0.032195
#
#
# Mechanical properties :
#
#
# Convention : Reuss Voigt Hill
#
# Bulk Modulus (GPa) = 52.23890 62.54766 57.39328
# Shear Modulus (GPa) = 33.10587 37.93084 35.51836
#
# Velocity S-wave (km/s) = 3.90299 4.17774 4.04270
# Velocity P-wave (km/s) = 6.65946 7.21471 6.94264
#
# Compressibility (1/GPa) = 0.01914282
#
# Stress axis : x y z
#
# Youngs Moduli (GPa) = 53.53487 143.64731 95.34884
#
# Poissons Ratio (x) = 0.50859 0.33277
# Poissons Ratio (y) = 0.18954 0.13943
# Poissons Ratio (z) = 0.18684 0.21006
#
# Static dielectric constant tensor:
#      x y z
#    x 1.577240 0.000000 0.406090 
#    y 0.000000 1.815300 0.000000 
#    z 0.406090 0.000000 1.416300 
# 
# From -- ./inp_files/50035.got.cif
#   From: 2010.05.17/outbox.cif.g08.bks.cpg/sg15_26_cif.got.tgz:50035.got - 2010.06.03 18:47:42.
