data_PCOD9281694
_publ_section_title
;
Structure prediction by ZEFSAII (Michael W. Deem and Ramdas Pophale) SiO2 
 PCOD9281694
Probable space group: C 2/C
;
_chemical_formula_sum "Si O2"
_cell_formula_units_Z 40
_cell_length_a 16.232132
_cell_length_b 14.567140
_cell_length_c 13.333888
_cell_angle_alpha 90.000000
_cell_angle_beta 37.205625
_cell_angle_gamma 90.000000
_cell_volume 1906.471581
_symmetry_space_group_name_H-M "C 2/C"
_symmetry_group_IT_number 15
_symmetry_cell_setting 'monoclinic'
loop_
_space_group_symop_operation_xyz
x,y,z
-x,y,1/2-z
-x,-y,-z
x,-y,1/2+z
1/2+x,1/2+y,z
1/2-x,1/2+y,1/2-z
1/2-x,1/2-y,-z
1/2+x,1/2-y,1/2+z
loop_
_atom_site_type_symbol
_atom_site_label
_atom_site_fract_x
_atom_site_fract_y
_atom_site_fract_z
Si Si1 0.838176 0.589020 0.722560
Si Si2 0.334553 0.574763 0.415778
Si Si3 0.755291 0.253247 0.821934
Si Si4 0.647744 0.098807 0.416068
Si Si5 0.651106 0.373184 0.089624
O O1 0.821418 0.675236 0.664882
O O2 0.815614 0.493640 0.682967
O O3 0.995192 0.585555 0.606430
O O4 0.728222 0.604704 0.917025
O O5 0.500000 0.587799 0.250000
O O6 0.260487 0.618434 0.391586
O O7 0.273803 0.469266 0.470222
O O8 0.851683 0.313999 0.658752
O O9 0.823965 0.200069 0.847886
O O10 0.665256 0.328071 0.967693
O O11 0.500000 0.405716 0.250000
#
# Coordination Sequence:
#
# PCOD9281694 Si02
#       5
#     8   8   8   8   8
#     4  11  24  43  67  98 134 173 216 269 327 389
#     4  11  24  43  67  95 132 172 215 272 326 388
#     4  11  22  41  66  96 130 173 216 271 320 392
#     4  11  24  43  67  98 134 173 216 269 327 389
#     4  10  21  38  63  97 126 164 219 273 325 382
#
# _framework density 20.981168
#
# number of rings (size 3 to 8) (size 9 to 14) (size 15 to 20)
#    0.000    1.200    4.000    1.800    0.000    4.800 
#    0.000    0.000    0.000    0.000    0.000    0.000 
#    0.000    0.000    0.000    0.000    0.000    0.000 
#
# Total GULP energy -111440.076068 kJ/mol
# GULP energy per Si atom -5572.003803 kJ/mol
# Density = 2.093341 g / cm^3
# Si number density = 20.981168 Si / 1000 Ang^3
#
#
#
# Elastic Constant Matrix: (Units=GPa)
#
#
# Indices 1 2 3 4 5 6 
#
# 1 91.9534 9.7318 61.9079 0.0000 4.7941 0.0000
# 2 9.7318 66.6180 7.4239 0.0000 10.0545 0.0000
# 3 61.9079 7.4239 124.3128 0.0000 2.2954 0.0000
# 4 0.0000 0.0000 0.0000 30.6517 0.0000 14.5763
# 5 4.7941 10.0545 2.2954 0.0000 25.2389 0.0000
# 6 0.0000 0.0000 0.0000 14.5763 0.0000 28.8515
#
#
#
# Elastic Compliance Matrix: (Units=1/GPa)
#
#
# Indices 1 2 3 4 5 6 
#
# 1 0.016596 -0.001225 -0.008156 0.000000 -0.001923 0.000000
# 2 -0.001225 0.016149 -0.000240 0.000000 -0.006179 0.000000
# 3 -0.008156 -0.000240 0.012110 0.000000 0.000544 0.000000
# 4 0.000000 0.000000 0.000000 0.042941 0.000000 -0.021695
# 5 -0.001923 -0.006179 0.000544 0.000000 0.042399 0.000000
# 6 0.000000 0.000000 0.000000 -0.021695 0.000000 0.045621
#
#
# Mechanical properties :
#
#
# Convention : Reuss Voigt Hill
#
# Bulk Modulus (GPa) = 39.04356 49.00127 44.02241
# Shear Modulus (GPa) = 24.55825 30.53648 27.54737
#
# Velocity S-wave (km/s) = 3.42495 3.81914 3.62741
# Velocity P-wave (km/s) = 5.85574 6.54625 6.21060
#
# Compressibility (1/GPa) = 0.02561242
#
# Stress axis : x y z
#
# Youngs Moduli (GPa) = 60.25469 61.92231 82.57398
#
# Poissons Ratio (x) = 0.07588 0.67349
# Poissons Ratio (y) = 0.07383 0.01983
# Poissons Ratio (z) = 0.49145 0.01487
#
# Static dielectric constant tensor:
#      x y z
#    x 1.749050 0.000000 -0.001100 
#    y 0.000000 1.868540 0.000000 
#    z -0.001100 0.000000 1.773910 
# 
# From -- ./inp_files/96677.got.cif
#   From: 2010.05.17/outbox.cif.g08.bks.cpg/sg15_49_cif.got.tgz:96677.got - 2010.06.03 18:47:42.
