data_PCOD9281445
_publ_section_title
;
Structure prediction by ZEFSAII (Michael W. Deem and Ramdas Pophale) SiO2 
 PCOD9281445
Probable space group: C 2/C
;
_chemical_formula_sum "Si O2"
_cell_formula_units_Z 56
_cell_length_a 16.392344
_cell_length_b 8.370497
_cell_length_c 22.086906
_cell_angle_alpha 90.000000
_cell_angle_beta 64.862422
_cell_angle_gamma 90.000000
_cell_volume 2743.564009
_symmetry_space_group_name_H-M "C 2/C"
_symmetry_group_IT_number 15
_symmetry_cell_setting 'monoclinic'
loop_
_space_group_symop_operation_xyz
x,y,z
-x,y,1/2-z
-x,-y,-z
x,-y,1/2+z
1/2+x,1/2+y,z
1/2-x,1/2+y,1/2-z
1/2-x,1/2-y,-z
1/2+x,1/2-y,1/2+z
loop_
_atom_site_type_symbol
_atom_site_label
_atom_site_fract_x
_atom_site_fract_y
_atom_site_fract_z
Si Si1 0.558639 0.860022 0.447223
Si Si2 0.880285 0.785514 0.964541
Si Si3 0.485318 0.260504 0.154937
Si Si4 0.855001 0.254886 0.336681
Si Si5 0.500000 0.505107 0.250000
Si Si6 0.000000 0.502264 0.750000
Si Si7 0.159622 0.654215 0.391473
Si Si8 0.847087 0.834787 0.476615
O O1 0.487882 0.754060 0.431710
O O2 0.606827 0.743845 0.479137
O O3 0.500000 0.000000 0.500000
O O4 0.634186 0.967861 0.390699
O O5 0.846464 0.717120 0.911472
O O6 0.852260 0.971925 0.978158
O O7 0.845885 0.695446 0.035288
O O8 0.458550 0.397007 0.210417
O O9 0.417404 0.249064 0.120396
O O10 0.586004 0.288968 0.099124
O O11 0.485927 0.101400 0.194451
O O12 0.909422 0.396895 0.288522
O O13 0.758310 0.208862 0.340812
O O14 0.923048 0.108404 0.305582
O O15 0.750000 0.750000 0.500000
#
# Coordination Sequence:
#
# PCOD9281445 Si02
#       8
#     8   8   8   8   4   4   8   8
#     4  10  21  38  61  97 128 161 197 260 343 380
#     4  11  22  40  67  97 133 164 210 270 339 384
#     4  11  23  46  62  89 133 168 216 265 321 391
#     4  11  23  42  66  96 123 168 224 260 318 394
#     4  10  24  44  64  82 126 180 208 262 308 380
#     4  10  26  42  68  86 126 186 216 262 320 386
#     4  11  24  40  69  97 130 160 214 278 332 385
#     4  12  24  38  66  96 131 169 213 270 334 388
#
# _framework density 20.411408000000002
#
# number of rings (size 3 to 8) (size 9 to 14) (size 15 to 20)
#    0.000    1.143    4.286    2.571    4.000    1.143 
#    0.000    0.000    0.000    0.000    0.000    0.000 
#    0.000    0.000    0.000    0.000    0.000    0.000 
#
# Total GULP energy -156309.403110 kJ/mol
# GULP energy per Si atom -5582.478683 kJ/mol
# Density = 2.036495 g / cm^3
# Si number density = 20.411408 Si / 1000 Ang^3
#
#
#
# Elastic Constant Matrix: (Units=GPa)
#
#
# Indices 1 2 3 4 5 6 
#
# 1 119.8279 25.3096 23.0440 0.0000 -19.1714 0.0000
# 2 25.3096 84.3933 12.1705 0.0000 -15.3422 0.0001
# 3 23.0440 12.1705 58.1331 0.0000 -4.2266 0.0000
# 4 0.0000 0.0000 0.0000 18.0219 0.0000 22.1939
# 5 -19.1714 -15.3422 -4.2266 0.0000 25.4633 0.0000
# 6 0.0000 0.0001 0.0000 22.1939 0.0000 57.8674
#
#
#
# Elastic Compliance Matrix: (Units=1/GPa)
#
#
# Indices 1 2 3 4 5 6 
#
# 1 0.010304 -0.001462 -0.003319 0.000000 0.006327 0.000000
# 2 -0.001462 0.013806 -0.001808 0.000000 0.006918 0.000000
# 3 -0.003319 -0.001808 0.018863 0.000000 -0.000457 0.000000
# 4 0.000000 0.000000 0.000000 0.105154 0.000000 -0.040330
# 5 0.006327 0.006918 -0.000457 0.000000 0.048128 0.000000
# 6 0.000000 0.000000 0.000000 -0.040330 0.000000 0.032749
#
#
# Mechanical properties :
#
#
# Convention : Reuss Voigt Hill
#
# Bulk Modulus (GPa) = 33.56094 42.60029 38.08061
# Shear Modulus (GPa) = 19.83243 33.72587 26.77915
#
# Velocity S-wave (km/s) = 3.12049 4.06927 3.62604
# Velocity P-wave (km/s) = 5.42782 6.55703 6.01897
#
# Compressibility (1/GPa) = 0.02979654
#
# Stress axis : x y z
#
# Youngs Moduli (GPa) = 97.04545 72.43238 53.01462
#
# Poissons Ratio (x) = 0.10586 0.17594
# Poissons Ratio (y) = 0.14184 0.09585
# Poissons Ratio (z) = 0.32207 0.13096
#
# Static dielectric constant tensor:
#      x y z
#    x 1.722120 0.000000 -0.018300 
#    y 0.000000 1.753790 0.000000 
#    z -0.018300 0.000000 1.729230 
# 
# From -- ./inp_files/272701.got.cif
#   From: 2010.05.17/outbox.cif.g08.bks.cpg/sg15_137_cif.got.tgz:272701.got - 2010.06.03 18:47:42.
