data_PCOD9281553
_publ_section_title
;
Structure prediction by ZEFSAII (Michael W. Deem and Ramdas Pophale) SiO2 
 PCOD9281553
Probable space group: C 2/C
;
_chemical_formula_sum "Si O2"
_cell_formula_units_Z 48
_cell_length_a 12.479813
_cell_length_b 20.539421
_cell_length_c 15.357052
_cell_angle_alpha 90.000000
_cell_angle_beta 36.150771
_cell_angle_gamma 90.000000
_cell_volume 2322.156235
_symmetry_space_group_name_H-M "C 2/C"
_symmetry_group_IT_number 15
_symmetry_cell_setting 'monoclinic'
loop_
_space_group_symop_operation_xyz
x,y,z
-x,y,1/2-z
-x,-y,-z
x,-y,1/2+z
1/2+x,1/2+y,z
1/2-x,1/2+y,1/2-z
1/2-x,1/2-y,-z
1/2+x,1/2-y,1/2+z
loop_
_atom_site_type_symbol
_atom_site_label
_atom_site_fract_x
_atom_site_fract_y
_atom_site_fract_z
Si Si1 0.426326 0.693854 0.137543
Si Si2 0.676832 0.177048 0.689587
Si Si3 0.831115 0.566374 0.182142
Si Si4 0.305984 0.922955 0.160091
Si Si5 0.824610 0.804934 0.511847
Si Si6 0.500000 0.625533 0.750000
Si Si7 0.500000 0.095074 0.250000
O O1 0.366526 0.750858 0.242335
O O2 0.309068 0.627205 0.225984
O O3 0.380373 0.718436 0.069833
O O4 0.642230 0.680293 0.989471
O O5 0.500000 0.157465 0.750000
O O6 0.708280 0.126436 0.748769
O O7 0.744591 0.495650 0.226551
O O8 0.939585 0.559616 0.202284
O O9 0.984152 0.577578 0.008223
O O10 0.185567 0.910095 0.152341
O O11 0.750000 0.750000 0.500000
O O12 0.670730 0.858646 0.621033
O O13 0.982443 0.833960 0.349839
#
# Coordination Sequence:
#
# PCOD9281553 Si02
#       7
#     8   8   8   8   8   4   4
#     4  11  25  44  67 101 135 175 227 278 334 403
#     4  12  26  46  70  99 137 182 227 278 334 406
#     4  10  24  45  67  97 138 178 225 277 337 404
#     4  11  24  46  68  99 135 180 224 279 339 396
#     4  11  22  35  64  97 131 168 208 274 336 396
#     4  12  21  42  64 100 131 164 226 270 338 398
#     4  10  21  38  62  94 131 172 212 270 332 400
#
# _framework density 20.670444
#
# number of rings (size 3 to 8) (size 9 to 14) (size 15 to 20)
#    0.000    1.000    3.333    3.000    5.833    0.667 
#    7.500    0.000    0.000    0.000    0.000    0.000 
#    0.000    0.000    0.000    0.000    0.000    0.000 
#
# Total GULP energy -133870.783782 kJ/mol
# GULP energy per Si atom -5577.949324 kJ/mol
# Density = 2.062340 g / cm^3
# Si number density = 20.670444 Si / 1000 Ang^3
#
#
#
# Elastic Constant Matrix: (Units=GPa)
#
#
# Indices 1 2 3 4 5 6 
#
# 1 95.1885 22.6696 0.9228 -0.0036 -12.1118 -0.0002
# 2 22.6696 86.1184 26.3667 -0.0034 -1.1560 -0.0031
# 3 0.9228 26.3667 81.1413 -0.0139 -10.2626 -0.0097
# 4 -0.0036 -0.0034 -0.0139 21.9116 -0.0001 4.2459
# 5 -12.1118 -1.1560 -10.2626 -0.0001 31.4331 0.0033
# 6 -0.0002 -0.0031 -0.0097 4.2459 0.0033 7.9093
#
#
#
# Elastic Compliance Matrix: (Units=1/GPa)
#
#
# Indices 1 2 3 4 5 6 
#
# 1 0.011987 -0.003599 0.001669 0.000003 0.005031 -0.000003
# 2 -0.003599 0.014002 -0.004818 -0.000002 -0.002445 0.000001
# 3 0.001669 -0.004818 0.014530 0.000007 0.005210 0.000010
# 4 0.000003 -0.000002 0.000007 0.050936 0.000006 -0.027344
# 5 0.005031 -0.002445 0.005210 0.000006 0.035363 -0.000013
# 6 -0.000003 0.000001 0.000010 -0.027344 -0.000013 0.141112
#
#
# Mechanical properties :
#
#
# Convention : Reuss Voigt Hill
#
# Bulk Modulus (GPa) = 37.00560 40.26294 38.63427
# Shear Modulus (GPa) = 17.21571 26.41673 21.81622
#
# Velocity S-wave (km/s) = 2.88907 3.57878 3.25226
# Velocity P-wave (km/s) = 5.39171 6.04961 5.73011
#
# Compressibility (1/GPa) = 0.02702293
#
# Stress axis : x y z
#
# Youngs Moduli (GPa) = 83.42659 71.42032 68.82426
#
# Poissons Ratio (x) = 0.25704 -0.11490
# Poissons Ratio (y) = 0.30025 0.33160
# Poissons Ratio (z) = -0.13928 0.34411
#
# Static dielectric constant tensor:
#      x y z
#    x 1.707700 -0.001830 0.018260 
#    y -0.001830 66.832920 0.005060 
#    z 0.018260 0.005060 1.741020 
# 
# From -- ./inp_files/39684.got.cif
#   From: 2010.05.17/outbox.cif.g08.bks.cpg/sg15_20_cif.got.tgz:39684.got - 2010.06.03 18:47:42.
