data_PCOD9281090
_publ_section_title
;
Structure prediction by ZEFSAII (Michael W. Deem and Ramdas Pophale) SiO2 
 PCOD9281090
Probable space group: C 2/C
;
_chemical_formula_sum "Si O2"
_cell_formula_units_Z 48
_cell_length_a 9.710846
_cell_length_b 9.757479
_cell_length_c 27.765377
_cell_angle_alpha 90.000000
_cell_angle_beta 98.146321
_cell_angle_gamma 90.000000
_cell_volume 2604.316274
_symmetry_space_group_name_H-M "C 2/C"
_symmetry_group_IT_number 15
_symmetry_cell_setting 'monoclinic'
loop_
_space_group_symop_operation_xyz
x,y,z
-x,y,1/2-z
-x,-y,-z
x,-y,1/2+z
1/2+x,1/2+y,z
1/2-x,1/2+y,1/2-z
1/2-x,1/2-y,-z
1/2+x,1/2-y,1/2+z
loop_
_atom_site_type_symbol
_atom_site_label
_atom_site_fract_x
_atom_site_fract_y
_atom_site_fract_z
Si Si1 0.397860 0.528583 0.630920
Si Si2 0.436596 0.745095 0.195939
Si Si3 0.351914 0.857165 0.058407
Si Si4 0.631901 0.559550 0.479506
Si Si5 0.906758 0.546307 0.861679
Si Si6 0.158698 0.225552 0.640971
O O1 0.435368 0.385263 0.659425
O O2 0.362175 0.501088 0.573421
O O3 0.254636 0.590371 0.644252
O O4 0.529651 0.626018 0.640640
O O5 0.500000 0.705099 0.250000
O O6 0.522205 0.872990 0.178766
O O7 0.274696 0.787837 0.188360
O O8 0.386234 0.721993 0.029616
O O9 0.492004 0.913698 0.089120
O O10 0.243688 0.812928 0.095947
O O11 0.268819 0.958485 0.018968
O O12 0.500000 0.500000 0.500000
O O13 0.895423 0.381607 0.860888
#
# Coordination Sequence:
#
# PCOD9281090 Si02
#       6
#     8   8   8   8   8   8
#     4  11  22  40  62  92 121 157 201 248 296 358
#     4  10  23  44  65  83 116 158 196 249 312 360
#     4  10  21  38  58  83 124 164 198 239 288 350
#     4  11  20  36  62  87 123 167 203 236 295 351
#     4  10  21  40  60  88 120 154 200 247 297 353
#     4  10  21  39  61  88 121 152 196 251 293 354
#
# _framework density 18.430941000000001
#
# number of rings (size 3 to 8) (size 9 to 14) (size 15 to 20)
#    0.000    1.667    6.667    0.000    0.000    7.333 
#    0.000    2.500    0.000    0.000    0.000    0.000 
#    0.000    0.000    0.000    0.000    0.000    0.000 
#
# Total GULP energy -133799.677469 kJ/mol
# GULP energy per Si atom -5574.986561 kJ/mol
# Density = 1.838899 g / cm^3
# Si number density = 18.430941 Si / 1000 Ang^3
#
#
#
# Elastic Constant Matrix: (Units=GPa)
#
#
# Indices 1 2 3 4 5 6 
#
# 1 141.4499 72.1782 34.9847 0.0000 16.6814 0.0000
# 2 72.1782 69.9128 20.5408 0.0000 1.1856 0.0000
# 3 34.9847 20.5408 77.2993 0.0000 24.9052 0.0000
# 4 0.0000 0.0000 0.0000 8.9457 0.0000 1.0432
# 5 16.6814 1.1856 24.9052 0.0000 22.7010 0.0000
# 6 0.0000 0.0000 0.0000 1.0432 0.0000 42.4205
#
#
#
# Elastic Compliance Matrix: (Units=1/GPa)
#
#
# Indices 1 2 3 4 5 6 
#
# 1 0.017793 -0.018488 0.001178 0.000000 -0.013401 0.000000
# 2 -0.018488 0.035225 -0.007389 0.000000 0.019853 0.000000
# 3 0.001178 -0.007389 0.022461 0.000000 -0.025122 0.000000
# 4 0.000000 0.000000 0.000000 0.112107 0.000000 -0.002757
# 5 -0.013401 0.019853 -0.025122 0.000000 0.080422 0.000000
# 6 0.000000 0.000000 0.000000 -0.002757 0.000000 0.023641
#
#
# Mechanical properties :
#
#
# Convention : Reuss Voigt Hill
#
# Bulk Modulus (GPa) = 38.34347 60.45213 49.39780
# Shear Modulus (GPa) = 14.29628 25.54402 19.92015
#
# Velocity S-wave (km/s) = 2.78810 3.72685 3.29112
# Velocity P-wave (km/s) = 5.58692 7.16866 6.42664
#
# Compressibility (1/GPa) = 0.02608006
#
# Stress axis : x y z
#
# Youngs Moduli (GPa) = 56.20272 28.38893 44.52132
#
# Poissons Ratio (x) = 0.52486 -0.05244
# Poissons Ratio (y) = 1.03908 0.32898
# Poissons Ratio (z) = -0.06620 0.20977
#
# Static dielectric constant tensor:
#      x y z
#    x 1.640430 0.000000 -0.007660 
#    y 0.000000 1.631330 0.000000 
#    z -0.007660 0.000000 1.678560 
# 
# From -- ./inp_files/306696.got.cif
#   From: 2010.05.17/outbox.cif.g08.bks.cpg/sg15_154_cif.got.tgz:306696.got - 2010.06.03 18:47:42.
