data_PCOD9281827
_publ_section_title
;
Structure prediction by ZEFSAII (Michael W. Deem and Ramdas Pophale) SiO2 
 PCOD9281827
Probable space group: C 2/C
;
_chemical_formula_sum "Si O2"
_cell_formula_units_Z 32
_cell_length_a 18.099196
_cell_length_b 6.754169
_cell_length_c 28.304493
_cell_angle_alpha 90.000000
_cell_angle_beta 18.088547
_cell_angle_gamma 90.000000
_cell_volume 1074.308964
_symmetry_space_group_name_H-M "C 2/C"
_symmetry_group_IT_number 15
_symmetry_cell_setting 'monoclinic'
loop_
_space_group_symop_operation_xyz
x,y,z
-x,y,1/2-z
-x,-y,-z
x,-y,1/2+z
1/2+x,1/2+y,z
1/2-x,1/2+y,1/2-z
1/2-x,1/2-y,-z
1/2+x,1/2-y,1/2+z
loop_
_atom_site_type_symbol
_atom_site_label
_atom_site_fract_x
_atom_site_fract_y
_atom_site_fract_z
Si Si1 0.996489 0.002563 0.824298
Si Si2 0.478587 0.371568 0.585822
Si Si3 0.708614 0.121690 0.692697
Si Si4 0.600337 0.917962 0.498923
O O1 0.997792 0.988367 0.879814
O O2 0.982876 0.760904 0.822515
O O3 0.226320 0.057997 0.652332
O O4 0.782324 0.121450 0.930948
O O5 0.227034 0.427422 0.713300
O O6 0.606100 0.233108 0.390893
O O7 0.500553 0.135328 0.573263
O O8 0.820244 0.069430 0.574597
#
# Coordination Sequence:
#
# PCOD9281827 Si02
#       4
#     8   8   8   8
#     4  10  21  38  65  87 122 165 197 250 313 353
#     4  10  21  39  59  90 120 159 205 249 303 361
#     4  10  23  39  62  91 124 157 206 252 299 371
#     4  10  22  42  58  91 127 155 203 256 298 366
#
# _framework density 29.78659
#
# number of rings (size 3 to 8) (size 9 to 14) (size 15 to 20)
#    0.000    2.000    0.000    3.750    7.000    1.000 
#    0.000   17.500    0.000    0.000    0.000    0.000 
#    0.000    0.000    0.000    0.000    0.000    0.000 
#
# Total GULP energy -89571.910148 kJ/mol
# GULP energy per Si atom -5598.244384 kJ/mol
# Density = 2.971879 g / cm^3
# Si number density = 29.786590 Si / 1000 Ang^3
#
#
#
# Elastic Constant Matrix: (Units=GPa)
#
#
# Indices 1 2 3 4 5 6 
#
# 1 226.6304 38.7810 70.5716 -0.0461 44.9364 0.3156
# 2 38.7810 118.3999 46.3497 0.0556 0.6881 0.3010
# 3 70.5716 46.3497 144.6097 -0.0869 12.0013 -0.0577
# 4 -0.0461 0.0556 -0.0869 57.9967 -0.0147 2.5517
# 5 44.9364 0.6881 12.0013 -0.0147 59.8857 0.0052
# 6 0.3156 0.3010 -0.0577 2.5517 0.0052 59.9160
#
#
#
# Elastic Compliance Matrix: (Units=1/GPa)
#
#
# Indices 1 2 3 4 5 6 
#
# 1 0.006134 -0.001083 -0.002304 0.000003 -0.004129 -0.000029
# 2 -0.001083 0.009865 -0.002737 -0.000012 0.001248 -0.000046
# 3 -0.002304 -0.002737 0.008919 0.000013 -0.000027 0.000034
# 4 0.000003 -0.000012 0.000013 0.017275 0.000000 -0.000736
# 5 -0.004129 0.001248 -0.000027 0.000000 0.019788 0.000014
# 6 -0.000029 -0.000046 0.000034 -0.000736 0.000014 0.016722
#
#
# Mechanical properties :
#
#
# Convention : Reuss Voigt Hill
#
# Bulk Modulus (GPa) = 78.92453 89.00498 83.96475
# Shear Modulus (GPa) = 52.53617 57.82219 55.17918
#
# Velocity S-wave (km/s) = 4.20426 4.41070 4.30872
# Velocity P-wave (km/s) = 7.07968 7.47561 7.28034
#
# Compressibility (1/GPa) = 0.01267033
#
# Stress axis : x y z
#
# Youngs Moduli (GPa) = 163.03097 101.36820 112.12221
#
# Poissons Ratio (x) = 0.10981 0.25828
# Poissons Ratio (y) = 0.17660 0.30686
# Poissons Ratio (z) = 0.37555 0.27743
#
# Static dielectric constant tensor:
#      x y z
#    x 2.348150 0.000720 -0.042540 
#    y 0.000720 2.461060 -0.000710 
#    z -0.042540 -0.000710 2.369240 
# 
# From -- ./inp_files/46584.got.cif
#   From: 2010.05.17/outbox.cif.g08.bks.cpg/sg15_24_cif.got.tgz:46584.got - 2010.06.03 18:47:42.
