data_PCOD9281678
_publ_section_title
;
Structure prediction by ZEFSAII (Michael W. Deem and Ramdas Pophale) SiO2 
 PCOD9281678
Probable space group: C 2/C
;
_chemical_formula_sum "Si O2"
_cell_formula_units_Z 44
_cell_length_a 19.526014
_cell_length_b 11.895602
_cell_length_c 10.027714
_cell_angle_alpha 90.000000
_cell_angle_beta 74.337618
_cell_angle_gamma 90.000000
_cell_volume 2242.690054
_symmetry_space_group_name_H-M "C 2/C"
_symmetry_group_IT_number 15
_symmetry_cell_setting 'monoclinic'
loop_
_space_group_symop_operation_xyz
x,y,z
-x,y,1/2-z
-x,-y,-z
x,-y,1/2+z
1/2+x,1/2+y,z
1/2-x,1/2+y,1/2-z
1/2-x,1/2-y,-z
1/2+x,1/2-y,1/2+z
loop_
_atom_site_type_symbol
_atom_site_label
_atom_site_fract_x
_atom_site_fract_y
_atom_site_fract_z
Si Si1 0.168609 0.930179 0.444574
Si Si2 0.299074 0.081299 0.468316
Si Si3 0.046279 0.521851 0.604671
Si Si4 0.376322 0.384847 0.740537
Si Si5 0.000000 0.740907 0.750000
Si Si6 0.740389 0.260903 0.226335
O O1 0.125208 0.919789 0.603729
O O2 0.189617 0.813133 0.364464
O O3 0.242539 0.989607 0.448769
O O4 0.131429 0.010884 0.355680
O O5 0.376025 0.028858 0.446648
O O6 0.299416 0.177963 0.355177
O O7 0.270623 0.137297 0.619471
O O8 0.000000 0.470864 0.750000
O O9 0.000000 0.500000 0.500000
O O10 0.048023 0.654503 0.639015
O O11 0.448338 0.314402 0.685819
O O12 0.307359 0.306527 0.750511
#
# Coordination Sequence:
#
# PCOD9281678 Si02
#       6
#     8   8   8   8   4   8
#     4  11  22  39  63  95 119 161 208 258 307 364
#     4  10  21  38  64  91 129 158 201 265 306 358
#     4  10  23  39  61  89 123 163 200 248 309 364
#     4  11  23  40  63  88 124 161 211 247 314 365
#     4  10  24  42  62  86 126 166 204 256 298 374
#     4  10  21  38  63  96 122 158 201 262 309 361
#
# _framework density 19.619297
#
# number of rings (size 3 to 8) (size 9 to 14) (size 15 to 20)
#    0.545    1.091    1.818    2.727    2.545    2.182 
#    0.000    0.000    2.000    0.000    0.000    0.000 
#    0.000    0.000    0.000    0.000    0.000    0.000 
#
# Total GULP energy -122877.124771 kJ/mol
# GULP energy per Si atom -5585.323853 kJ/mol
# Density = 1.957464 g / cm^3
# Si number density = 19.619297 Si / 1000 Ang^3
#
#
#
# Elastic Constant Matrix: (Units=GPa)
#
#
# Indices 1 2 3 4 5 6 
#
# 1 93.0686 29.5761 11.0280 0.0000 4.1881 0.0000
# 2 29.5761 43.6026 12.5029 0.0000 1.5865 0.0000
# 3 11.0280 12.5029 99.7092 0.0000 10.7030 0.0000
# 4 0.0000 0.0000 0.0000 28.7584 0.0000 -2.6881
# 5 4.1881 1.5865 10.7030 0.0000 17.1449 0.0000
# 6 0.0000 0.0000 0.0000 -2.6881 0.0000 30.4771
#
#
#
# Elastic Compliance Matrix: (Units=1/GPa)
#
#
# Indices 1 2 3 4 5 6 
#
# 1 0.013805 -0.009245 -0.000104 0.000000 -0.002452 0.000000
# 2 -0.009245 0.029983 -0.002874 0.000000 0.001278 0.000000
# 3 -0.000104 -0.002874 0.011115 0.000000 -0.006647 0.000000
# 4 0.000000 0.000000 0.000000 0.035062 0.000000 0.003092
# 5 -0.002452 0.001278 -0.006647 0.000000 0.062957 0.000000
# 6 0.000000 0.000000 0.000000 0.003092 0.000000 0.033084
#
#
# Mechanical properties :
#
#
# Convention : Reuss Voigt Hill
#
# Bulk Modulus (GPa) = 32.83505 38.06602 35.45054
# Shear Modulus (GPa) = 22.66488 27.49430 25.07959
#
# Velocity S-wave (km/s) = 3.40256 3.74758 3.57923
# Velocity P-wave (km/s) = 5.67530 6.17821 5.93208
#
# Compressibility (1/GPa) = 0.03045526
#
# Stress axis : x y z
#
# Youngs Moduli (GPa) = 72.43492 33.35196 89.97138
#
# Poissons Ratio (x) = 0.30835 0.00940
# Poissons Ratio (y) = 0.66968 0.25861
# Poissons Ratio (z) = 0.00757 0.09587
#
# Static dielectric constant tensor:
#      x y z
#    x 1.644430 0.000000 -0.009480 
#    y 0.000000 1.706470 0.000000 
#    z -0.009480 0.000000 1.696210 
# 
# From -- ./inp_files/54411.got.cif
#   From: 2010.05.17/outbox.cif.g08.bks.cpg/sg15_28_cif.got.tgz:54411.got - 2010.06.03 18:47:42.
