data_PCOD9281352
_publ_section_title
;
Structure prediction by ZEFSAII (Michael W. Deem and Ramdas Pophale) SiO2 
 PCOD9281352
Probable space group: C 2/C
;
_chemical_formula_sum "Si O2"
_cell_formula_units_Z 32
_cell_length_a 20.379336
_cell_length_b 9.498988
_cell_length_c 8.138731
_cell_angle_alpha 90.000000
_cell_angle_beta 51.541093
_cell_angle_gamma 90.000000
_cell_volume 1233.718318
_symmetry_space_group_name_H-M "C 2/C"
_symmetry_group_IT_number 15
_symmetry_cell_setting 'monoclinic'
loop_
_space_group_symop_operation_xyz
x,y,z
-x,y,1/2-z
-x,-y,-z
x,-y,1/2+z
1/2+x,1/2+y,z
1/2-x,1/2+y,1/2-z
1/2-x,1/2-y,-z
1/2+x,1/2-y,1/2+z
loop_
_atom_site_type_symbol
_atom_site_label
_atom_site_fract_x
_atom_site_fract_y
_atom_site_fract_z
Si Si1 0.000000 0.424908 0.750000
Si Si2 0.074183 0.327434 0.930043
Si Si3 0.809761 0.035385 0.482415
Si Si4 0.759846 0.215325 0.240435
Si Si5 0.000000 0.102829 0.250000
O O1 0.931499 0.339608 0.755558
O O2 0.047743 0.525978 0.551661
O O3 0.159511 0.293831 0.886474
O O4 0.008366 0.207313 0.081804
O O5 0.798709 0.119099 0.327296
O O6 0.739988 0.120461 0.703965
O O7 0.909004 0.032880 0.374686
O O8 0.786318 0.871034 0.535865
#
# Coordination Sequence:
#
# PCOD9281352 Si02
#       5
#     4   8   8   8   4
#     4   9  16  26  52  81 114 149 194 243 288 339
#     4   9  17  32  53  84 116 149 192 244 292 341
#     4  10  22  40  62  87 119 157 197 244 294 350
#     4  10  21  38  61  87 119 155 197 243 294 349
#     4   9  20  38  56  79 118 157 190 237 296 351
#
# _framework density 25.937850000000001
#
# number of rings (size 3 to 8) (size 9 to 14) (size 15 to 20)
#    0.000    2.500    0.000    1.500    0.000    8.000 
#    0.000    5.000    0.000    7.500    0.000    0.000 
#    0.000    0.000    0.000    0.000    0.000    0.000 
#
# Total GULP energy -89176.470022 kJ/mol
# GULP energy per Si atom -5573.529376 kJ/mol
# Density = 2.587881 g / cm^3
# Si number density = 25.937850 Si / 1000 Ang^3
#
#
#
# Elastic Constant Matrix: (Units=GPa)
#
#
# Indices 1 2 3 4 5 6 
#
# 1 91.8436 27.7195 18.9305 0.0000 -1.9147 0.0000
# 2 27.7195 120.6792 33.4075 0.0000 -15.0265 0.0000
# 3 18.9305 33.4075 34.9551 0.0000 -17.4036 0.0000
# 4 0.0000 0.0000 0.0000 37.2554 0.0000 1.1962
# 5 -1.9147 -15.0265 -17.4036 0.0000 37.3172 0.0000
# 6 0.0000 0.0000 0.0000 1.1962 0.0000 41.5311
#
#
#
# Elastic Compliance Matrix: (Units=1/GPa)
#
#
# Indices 1 2 3 4 5 6 
#
# 1 0.012712 -0.001320 -0.007245 0.000000 -0.003258 0.000000
# 2 -0.001320 0.011416 -0.010342 0.000000 -0.000294 0.000000
# 3 -0.007245 -0.010342 0.052302 0.000000 0.019856 0.000000
# 4 0.000000 0.000000 0.000000 0.026867 0.000000 -0.000774
# 5 -0.003258 -0.000294 0.019856 0.000000 0.035772 0.000000
# 6 0.000000 0.000000 0.000000 -0.000774 0.000000 0.024101
#
#
# Mechanical properties :
#
#
# Convention : Reuss Voigt Hill
#
# Bulk Modulus (GPa) = 25.89629 45.28809 35.59219
# Shear Modulus (GPa) = 23.38037 34.38211 28.88124
#
# Velocity S-wave (km/s) = 3.00559 3.64477 3.34050
# Velocity P-wave (km/s) = 4.69579 5.93385 5.35075
#
# Compressibility (1/GPa) = 0.03861557
#
# Stress axis : x y z
#
# Youngs Moduli (GPa) = 78.66693 87.59632 19.11979
#
# Poissons Ratio (x) = 0.11562 0.13852
# Poissons Ratio (y) = 0.10383 0.19774
# Poissons Ratio (z) = 0.56994 0.90594
#
# Static dielectric constant tensor:
#      x y z
#    x 1.963070 0.000000 0.036720 
#    y 0.000000 2.085640 0.000000 
#    z 0.036720 0.000000 2.003050 
# 
# From -- ./inp_files/36587.got.cif
#   From: 2010.05.17/outbox.cif.g08.bks.cpg/sg15_19_cif.got.tgz:36587.got - 2010.06.03 18:47:42.
