data_PCOD9281235
_publ_section_title
;
Structure prediction by ZEFSAII (Michael W. Deem and Ramdas Pophale) SiO2 
 PCOD9281235
Probable space group: C 2/C
;
_chemical_formula_sum "Si O2"
_cell_formula_units_Z 64
_cell_length_a 14.221904
_cell_length_b 9.714201
_cell_length_c 21.599117
_cell_angle_alpha 90.000000
_cell_angle_beta 114.201671
_cell_angle_gamma 90.000000
_cell_volume 2721.743325
_symmetry_space_group_name_H-M "C 2/C"
_symmetry_group_IT_number 15
_symmetry_cell_setting 'monoclinic'
loop_
_space_group_symop_operation_xyz
x,y,z
-x,y,1/2-z
-x,-y,-z
x,-y,1/2+z
1/2+x,1/2+y,z
1/2-x,1/2+y,1/2-z
1/2-x,1/2-y,-z
1/2+x,1/2-y,1/2+z
loop_
_atom_site_type_symbol
_atom_site_label
_atom_site_fract_x
_atom_site_fract_y
_atom_site_fract_z
Si Si1 0.426114 0.130654 0.986323
Si Si2 0.681172 0.746649 0.354849
Si Si3 0.944265 0.117862 0.571143
Si Si4 0.975605 0.262257 0.372392
Si Si5 0.788976 0.063893 0.633750
Si Si6 0.595509 0.975058 0.235505
Si Si7 0.763354 0.168375 0.312017
Si Si8 0.658637 0.463490 0.070275
O O1 0.465651 0.235082 0.943096
O O2 0.309456 0.088635 0.938144
O O3 0.431749 0.221645 0.049277
O O4 0.500000 0.000000 0.000000
O O5 0.584882 0.727722 0.374843
O O6 0.711959 0.593262 0.344852
O O7 0.643158 0.848457 0.289414
O O8 0.772115 0.827296 0.414196
O O9 0.893726 0.093658 0.624110
O O10 0.061638 0.074123 0.588342
O O11 0.879851 0.024393 0.504797
O O12 0.948257 0.414010 0.339566
O O13 0.881230 0.171677 0.321635
O O14 0.772182 0.177211 0.682515
O O15 0.500000 0.029163 0.250000
O O16 0.680468 0.089798 0.249707
O O17 0.771918 0.080873 0.378049
#
# Coordination Sequence:
#
# PCOD9281235 Si02
#       8
#     8   8   8   8   8   8   8   8
#     4  11  24  38  57  91 128 160 203 256 308 371
#     4  10  22  39  62  90 120 161 205 250 308 366
#     4  11  22  37  58  88 126 166 207 250 303 366
#     4  10  21  40  63  89 118 159 204 251 303 370
#     4  11  23  37  59  91 126 158 204 252 310 365
#     4   9  21  42  65  86 116 159 208 251 310 370
#     4  10  21  41  62  90 122 158 199 260 306 360
#     4  10  21  38  60  85 126 162 210 242 302 369
#
# _framework density 23.514341000000002
#
# number of rings (size 3 to 8) (size 9 to 14) (size 15 to 20)
#    0.000    1.750    2.500    1.875    3.500    4.500 
#    0.000    5.625    0.000    0.000    0.000    0.000 
#    0.000    0.000    0.000    0.000    0.000    0.000 
#
# Total GULP energy -178996.507334 kJ/mol
# GULP energy per Si atom -5593.640854 kJ/mol
# Density = 2.346082 g / cm^3
# Si number density = 23.514341 Si / 1000 Ang^3
#
#
#
# Elastic Constant Matrix: (Units=GPa)
#
#
# Indices 1 2 3 4 5 6 
#
# 1 128.0471 56.9501 17.5349 0.0000 2.8903 0.0000
# 2 56.9501 140.0826 11.5797 0.0000 13.5722 0.0000
# 3 17.5349 11.5797 20.1917 0.0000 0.4792 0.0000
# 4 0.0000 0.0000 0.0000 31.0754 0.0000 18.5396
# 5 2.8903 13.5722 0.4792 0.0000 24.0186 0.0000
# 6 0.0000 0.0000 0.0000 18.5396 0.0000 39.6138
#
#
#
# Elastic Compliance Matrix: (Units=1/GPa)
#
#
# Indices 1 2 3 4 5 6 
#
# 1 0.010403 -0.003756 -0.006904 0.000000 0.001008 0.000000
# 2 -0.003756 0.009288 -0.001952 0.000000 -0.004757 0.000000
# 3 -0.006904 -0.001952 0.056621 0.000000 0.000804 0.000000
# 4 0.000000 0.000000 0.000000 0.044645 0.000000 -0.020894
# 5 0.001008 -0.004757 0.000804 0.000000 0.044185 0.000000
# 6 0.000000 0.000000 0.000000 -0.020894 0.000000 0.035023
#
#
# Mechanical properties :
#
#
# Convention : Reuss Voigt Hill
#
# Bulk Modulus (GPa) = 19.57394 51.16120 35.36757
# Shear Modulus (GPa) = 20.62552 32.42532 26.52542
#
# Velocity S-wave (km/s) = 2.96488 3.71746 3.36229
# Velocity P-wave (km/s) = 4.47917 6.34277 5.49062
#
# Compressibility (1/GPa) = 0.05108833
#
# Stress axis : x y z
#
# Youngs Moduli (GPa) = 96.12671 107.66570 17.66132
#
# Poissons Ratio (x) = 0.40442 0.12193
# Poissons Ratio (y) = 0.36108 0.03447
# Poissons Ratio (z) = 0.66365 0.21012
#
# Static dielectric constant tensor:
#      x y z
#    x 1.878210 0.000000 -0.002950 
#    y 0.000000 1.914770 0.000000 
#    z -0.002950 0.000000 1.908090 
# 
# From -- ./inp_files/295213.got.cif
#   From: 2010.05.17/outbox.cif.g08.bks.cpg/sg15_148_cif.got.tgz:295213.got - 2010.06.03 18:47:42.
