data_PCOD9281884
_publ_section_title
;
Structure prediction by ZEFSAII (Michael W. Deem and Ramdas Pophale) SiO2 
 PCOD9281884
Probable space group: C 2/C
;
_chemical_formula_sum "Si O2"
_cell_formula_units_Z 48
_cell_length_a 12.388427
_cell_length_b 21.978763
_cell_length_c 8.642922
_cell_angle_alpha 90.000000
_cell_angle_beta 52.546997
_cell_angle_gamma 90.000000
_cell_volume 1868.184541
_symmetry_space_group_name_H-M "C 2/C"
_symmetry_group_IT_number 15
_symmetry_cell_setting 'monoclinic'
loop_
_space_group_symop_operation_xyz
x,y,z
-x,y,1/2-z
-x,-y,-z
x,-y,1/2+z
1/2+x,1/2+y,z
1/2-x,1/2+y,1/2-z
1/2-x,1/2-y,-z
1/2+x,1/2-y,1/2+z
loop_
_atom_site_type_symbol
_atom_site_label
_atom_site_fract_x
_atom_site_fract_y
_atom_site_fract_z
Si Si1 0.641633 0.820791 0.128868
Si Si2 0.598491 0.614696 0.799135
Si Si3 0.658541 0.017261 0.337699
Si Si4 0.682056 0.257650 0.301247
Si Si5 0.311097 0.433299 0.980631
Si Si6 0.340786 0.137909 0.364240
O O1 0.500000 0.856113 0.250000
O O2 0.680444 0.790385 0.257359
O O3 0.762846 0.865846 0.980110
O O4 0.627101 0.771508 0.007863
O O5 0.500000 0.591778 0.750000
O O6 0.583197 0.687622 0.837706
O O7 0.574562 0.581303 0.986651
O O8 0.749172 0.615471 0.588119
O O9 0.780803 0.024406 0.358963
O O10 0.664371 0.082724 0.251568
O O11 0.500000 0.000000 0.500000
O O12 0.702817 0.964159 0.186744
O O13 0.708883 0.202515 0.160873
O O14 0.500000 0.147640 0.250000
#
# Coordination Sequence:
#
# PCOD9281884 Si02
#       6
#     8   8   8   8   8   8
#     4  10  21  38  65  96 138 178 227 285 352 420
#     4  11  26  46  68  99 145 188 233 287 347 422
#     4  12  23  41  70 105 139 177 232 297 352 411
#     4  10  23  39  63 100 134 184 233 285 351 423
#     4  11  23  42  65  98 135 182 231 287 352 414
#     4  12  25  42  69 105 138 183 233 293 352 410
#
# _framework density 25.693391999999999
#
# number of rings (size 3 to 8) (size 9 to 14) (size 15 to 20)
#    0.000    1.000    1.667    5.500    7.000    0.000 
#    0.000    4.167    0.000    0.000    0.000    0.000 
#    0.000    0.000    0.000    0.000    0.000    0.000 
#
# Total GULP energy -133813.390081 kJ/mol
# GULP energy per Si atom -5575.557920 kJ/mol
# Density = 2.563491 g / cm^3
# Si number density = 25.693392 Si / 1000 Ang^3
#
#
#
# Elastic Constant Matrix: (Units=GPa)
#
#
# Indices 1 2 3 4 5 6 
#
# 1 114.7825 9.1286 24.6515 0.0000 13.8997 0.0000
# 2 9.1286 87.0977 10.9422 0.0000 12.7234 0.0000
# 3 24.6515 10.9422 38.8330 0.0000 11.9138 0.0000
# 4 0.0000 0.0000 0.0000 45.3461 0.0000 12.6279
# 5 13.8997 12.7234 11.9138 0.0000 34.4242 0.0000
# 6 0.0000 0.0000 0.0000 12.6279 0.0000 29.7923
#
#
#
# Elastic Compliance Matrix: (Units=1/GPa)
#
#
# Indices 1 2 3 4 5 6 
#
# 1 0.010222 -0.000032 -0.005837 0.000000 -0.002095 0.000000
# 2 -0.000032 0.012321 -0.002303 0.000000 -0.003744 0.000000
# 3 -0.005837 -0.002303 0.032581 0.000000 -0.008068 0.000000
# 4 0.000000 0.000000 0.000000 0.025004 0.000000 -0.010598
# 5 -0.002095 -0.003744 -0.008068 0.000000 0.034071 0.000000
# 6 0.000000 0.000000 0.000000 -0.010598 0.000000 0.038058
#
#
# Mechanical properties :
#
#
# Convention : Reuss Voigt Hill
#
# Bulk Modulus (GPa) = 25.78653 36.68422 31.23537
# Shear Modulus (GPa) = 27.54403 34.97858 31.26130
#
# Velocity S-wave (km/s) = 3.27774 3.69370 3.49192
# Velocity P-wave (km/s) = 4.93789 5.70087 5.33304
#
# Compressibility (1/GPa) = 0.03877994
#
# Stress axis : x y z
#
# Youngs Moduli (GPa) = 97.82773 81.16264 30.69294
#
# Poissons Ratio (x) = 0.00259 0.17916
# Poissons Ratio (y) = 0.00312 0.07068
# Poissons Ratio (z) = 0.57104 0.18690
#
# Static dielectric constant tensor:
#      x y z
#    x 2.324910 0.000000 -0.089090 
#    y 0.000000 2.065430 0.000000 
#    z -0.089090 0.000000 2.107150 
# 
# From -- ./inp_files/32513.got.cif
#   From: 2010.05.17/outbox.cif.g08.bks.cpg/sg15_17_cif.got.tgz:32513.got - 2010.06.03 18:47:42.
