data_PCOD9281432
_publ_section_title
;
Structure prediction by ZEFSAII (Michael W. Deem and Ramdas Pophale) SiO2 
 PCOD9281432
Probable space group: C 2/C
;
_chemical_formula_sum "Si O2"
_cell_formula_units_Z 36
_cell_length_a 19.173072
_cell_length_b 4.898950
_cell_length_c 25.561924
_cell_angle_alpha 90.000000
_cell_angle_beta 145.212711
_cell_angle_gamma 90.000000
_cell_volume 1369.833515
_symmetry_space_group_name_H-M "C 2/C"
_symmetry_group_IT_number 15
_symmetry_cell_setting 'monoclinic'
loop_
_space_group_symop_operation_xyz
x,y,z
-x,y,1/2-z
-x,-y,-z
x,-y,1/2+z
1/2+x,1/2+y,z
1/2-x,1/2+y,1/2-z
1/2-x,1/2-y,-z
1/2+x,1/2-y,1/2+z
loop_
_atom_site_type_symbol
_atom_site_label
_atom_site_fract_x
_atom_site_fract_y
_atom_site_fract_z
Si Si1 0.832293 0.748119 0.978050
Si Si2 0.975755 0.138086 0.136765
Si Si3 0.903211 0.528395 0.363981
Si Si4 0.750000 0.250000 0.000000
Si Si5 0.804966 0.820126 0.200834
O O1 0.854254 0.980085 0.036694
O O2 0.774278 0.469452 0.963026
O O3 0.971957 0.686913 0.047011
O O4 0.747804 0.849761 0.879305
O O5 0.068901 0.979723 0.229779
O O6 0.890853 0.361864 0.110172
O O7 0.050523 0.243942 0.132764
O O8 0.834988 0.657007 0.272143
O O9 0.809425 0.509597 0.353192
#
# Coordination Sequence:
#
# PCOD9281432 Si02
#       5
#     8   8   8   4   8
#     4  10  23  39  65  90 128 176 221 277 342 389
#     4  10  22  41  62  91 133 171 220 287 322 409
#     4  10  21  38  61  94 132 166 220 278 330 408
#     4  10  22  44  62  90 126 170 224 278 326 404
#     4  11  21  39  62  95 129 173 218 273 339 403
#
# _framework density 26.280563999999998
#
# number of rings (size 3 to 8) (size 9 to 14) (size 15 to 20)
#    0.000    1.778    2.222    1.333    0.000    5.333 
#    0.000    4.444    0.000    0.000    0.000    0.000 
#    0.000    0.000    0.000    0.000    0.000    0.000 
#
# Total GULP energy -100244.311785 kJ/mol
# GULP energy per Si atom -5569.128433 kJ/mol
# Density = 2.622075 g / cm^3
# Si number density = 26.280564 Si / 1000 Ang^3
#
#
#
# Elastic Constant Matrix: (Units=GPa)
#
#
# Indices 1 2 3 4 5 6 
#
# 1 92.4327 8.1742 62.8501 -0.0013 35.1025 0.0002
# 2 8.1742 67.5263 28.2505 -0.0011 3.0296 0.0000
# 3 62.8501 28.2505 197.2173 -0.0018 16.7024 0.0055
# 4 -0.0013 -0.0011 -0.0018 33.0015 0.0011 6.4003
# 5 35.1025 3.0296 16.7024 0.0011 40.0054 0.0005
# 6 0.0002 0.0000 0.0055 6.4003 0.0005 41.7781
#
#
#
# Elastic Compliance Matrix: (Units=1/GPa)
#
#
# Indices 1 2 3 4 5 6 
#
# 1 0.020245 0.000421 -0.005188 0.000001 -0.015629 0.000001
# 2 0.000421 0.015764 -0.002343 0.000000 -0.000585 0.000000
# 3 -0.005188 -0.002343 0.006903 0.000000 0.001848 -0.000001
# 4 0.000001 0.000000 0.000000 0.031230 -0.000002 -0.004784
# 5 -0.015629 -0.000585 0.001848 -0.000002 0.037983 0.000000
# 6 0.000001 0.000000 -0.000001 -0.004784 0.000000 0.024669
#
#
# Mechanical properties :
#
#
# Convention : Reuss Voigt Hill
#
# Bulk Modulus (GPa) = 34.85261 61.74731 48.29996
# Shear Modulus (GPa) = 31.13746 40.15044 35.64395
#
# Velocity S-wave (km/s) = 3.44584 3.91290 3.68677
# Velocity P-wave (km/s) = 5.39651 6.63030 6.04496
#
# Compressibility (1/GPa) = 0.02869226
#
# Stress axis : x y z
#
# Youngs Moduli (GPa) = 49.39553 63.43373 144.86231
#
# Poissons Ratio (x) = -0.02672 0.75160
# Poissons Ratio (y) = -0.02080 0.33939
# Poissons Ratio (z) = 0.25628 0.14862
#
# Static dielectric constant tensor:
#      x y z
#    x 2.150280 0.000000 0.017300 
#    y 0.000000 2.297820 0.000000 
#    z 0.017300 0.000000 2.083010 
# 
# From -- ./inp_files/115697.got.cif
#   From: 2010.05.17/outbox.cif.g08.bks.cpg/sg15_58_cif.got.tgz:115697.got - 2010.06.03 18:47:42.
