data_PCOD9281314
_publ_section_title
;
Structure prediction by ZEFSAII (Michael W. Deem and Ramdas Pophale) SiO2 
 PCOD9281314
Probable space group: C 2/C
;
_chemical_formula_sum "Si O2"
_cell_formula_units_Z 52
_cell_length_a 4.994529
_cell_length_b 29.552592
_cell_length_c 17.080272
_cell_angle_alpha 90.000000
_cell_angle_beta 120.156136
_cell_angle_gamma 90.000000
_cell_volume 2179.867470
_symmetry_space_group_name_H-M "C 2/C"
_symmetry_group_IT_number 15
_symmetry_cell_setting 'monoclinic'
loop_
_space_group_symop_operation_xyz
x,y,z
-x,y,1/2-z
-x,-y,-z
x,-y,1/2+z
1/2+x,1/2+y,z
1/2-x,1/2+y,1/2-z
1/2-x,1/2-y,-z
1/2+x,1/2-y,1/2+z
loop_
_atom_site_type_symbol
_atom_site_label
_atom_site_fract_x
_atom_site_fract_y
_atom_site_fract_z
Si Si1 0.452378 0.878354 0.149488
Si Si2 0.849336 0.068022 0.495025
Si Si3 0.425326 0.492370 0.615499
Si Si4 0.461949 0.837726 0.574561
Si Si5 0.000000 0.361490 0.750000
Si Si6 0.687941 0.698174 0.510777
Si Si7 0.500000 0.425632 0.750000
Si Si8 0.500000 0.440751 0.250000
O O1 0.500000 0.872887 0.250000
O O2 0.752563 0.907917 0.173565
O O3 0.161489 0.907660 0.074778
O O4 0.415248 0.829672 0.102212
O O5 0.624167 0.109979 0.449804
O O6 0.924019 0.039607 0.427732
O O7 0.738902 0.030137 0.539939
O O8 0.302343 0.458252 0.663638
O O9 0.630252 0.525911 0.701588
O O10 0.494578 0.831445 0.671629
O O11 0.752829 0.826310 0.563960
O O12 0.156633 0.809372 0.506857
O O13 0.287362 0.394727 0.773617
O O14 0.750000 0.750000 0.500000
#
# Coordination Sequence:
#
# PCOD9281314 Si02
#       8
#     8   8   8   8   4   8   4   4
#     4  11  24  43  69  95 140 184 234 292 362 424
#     4  10  21  42  62  98 134 196 233 287 345 408
#     4  10  21  38  60  95 138 183 249 281 330 397
#     4  11  24  47  73 101 140 182 220 289 355 427
#     4  12  24  44  67  98 137 182 237 267 354 404
#     4  11  26  49  77 105 136 174 229 290 364 440
#     4  11  24  40  60  94 135 184 235 294 320 388
#     4  11  22  40  61 100 136 192 236 293 342 402
#
# _framework density 23.854662000000001
#
# number of rings (size 3 to 8) (size 9 to 14) (size 15 to 20)
#    0.000    1.231    3.077    2.308    4.308    3.077 
#    2.769    0.000    0.000    0.000    0.000    0.000 
#    0.000    0.000    0.000    0.000    0.000    0.000 
#
# Total GULP energy -145194.756454 kJ/mol
# GULP energy per Si atom -5584.413710 kJ/mol
# Density = 2.380037 g / cm^3
# Si number density = 23.854662 Si / 1000 Ang^3
#
#
#
# Elastic Constant Matrix: (Units=GPa)
#
#
# Indices 1 2 3 4 5 6 
#
# 1 63.1440 24.4623 20.4817 0.0000 -8.0925 0.0000
# 2 24.4623 146.9575 39.3512 0.0000 3.1086 0.0000
# 3 20.4817 39.3512 111.4322 0.0000 -20.9052 0.0000
# 4 0.0000 0.0000 0.0000 30.2870 0.0000 -7.2449
# 5 -8.0925 3.1086 -20.9052 0.0000 38.8797 0.0000
# 6 0.0000 0.0000 0.0000 -7.2449 0.0000 18.4595
#
#
#
# Elastic Compliance Matrix: (Units=1/GPa)
#
#
# Indices 1 2 3 4 5 6 
#
# 1 0.017785 -0.002533 -0.001826 0.000000 0.002923 0.000000
# 2 -0.002533 0.008058 -0.002892 0.000000 -0.002726 0.000000
# 3 -0.001826 -0.002892 0.011459 0.000000 0.006012 0.000000
# 4 0.000000 0.000000 0.000000 0.036438 0.000000 0.014301
# 5 0.002923 -0.002726 0.006012 0.000000 0.029779 0.000000
# 6 0.000000 0.000000 0.000000 0.014301 0.000000 0.059786
#
#
# Mechanical properties :
#
#
# Convention : Reuss Voigt Hill
#
# Bulk Modulus (GPa) = 43.85907 54.45823 49.15865
# Shear Modulus (GPa) = 26.96759 33.34112 30.15436
#
# Velocity S-wave (km/s) = 3.36593 3.74261 3.55926
# Velocity P-wave (km/s) = 5.79067 6.44631 6.12727
#
# Compressibility (1/GPa) = 0.02280030
#
# Stress axis : x y z
#
# Youngs Moduli (GPa) = 56.22678 124.09508 87.26931
#
# Poissons Ratio (x) = 0.31437 0.15936
# Poissons Ratio (y) = 0.14244 0.25235
# Poissons Ratio (z) = 0.10267 0.35883
#
# Static dielectric constant tensor:
#      x y z
#    x 1.948250 0.000000 0.015840 
#    y 0.000000 1.878260 0.000000 
#    z 0.015840 0.000000 2.023930 
# 
# From -- ./inp_files/186336.got.cif
#   From: 2010.05.17/outbox.cif.g08.bks.cpg/sg15_94_cif.got.tgz:186336.got - 2010.06.03 18:47:42.
