data_PCOD9281417
_publ_section_title
;
Structure prediction by ZEFSAII (Michael W. Deem and Ramdas Pophale) SiO2 
 PCOD9281417
Probable space group: C 2/C
;
_chemical_formula_sum "Si O2"
_cell_formula_units_Z 60
_cell_length_a 23.454205
_cell_length_b 8.944692
_cell_length_c 24.511343
_cell_angle_alpha 90.000000
_cell_angle_beta 37.439273
_cell_angle_gamma 90.000000
_cell_volume 3126.077968
_symmetry_space_group_name_H-M "C 2/C"
_symmetry_group_IT_number 15
_symmetry_cell_setting 'monoclinic'
loop_
_space_group_symop_operation_xyz
x,y,z
-x,y,1/2-z
-x,-y,-z
x,-y,1/2+z
1/2+x,1/2+y,z
1/2-x,1/2+y,1/2-z
1/2-x,1/2-y,-z
1/2+x,1/2-y,1/2+z
loop_
_atom_site_type_symbol
_atom_site_label
_atom_site_fract_x
_atom_site_fract_y
_atom_site_fract_z
Si Si1 0.790647 0.736369 0.029377
Si Si2 0.741883 0.550473 0.623111
Si Si3 0.430021 0.509158 0.440737
Si Si4 0.799255 0.138121 0.128238
Si Si5 0.354544 0.699654 0.901239
Si Si6 0.865030 0.875454 0.702131
Si Si7 0.642442 0.093791 0.720167
Si Si8 0.000000 0.444890 0.750000
O O1 0.801243 0.567541 0.042443
O O2 0.713237 0.818011 0.126051
O O3 0.750000 0.750000 0.000000
O O4 0.885024 0.830415 0.961464
O O5 0.791698 0.698172 0.607469
O O6 0.661187 0.604991 0.642311
O O7 0.703647 0.461803 0.704335
O O8 0.377540 0.448930 0.534133
O O9 0.402223 0.399868 0.411992
O O10 0.538940 0.531555 0.368413
O O11 0.825271 0.136985 0.171700
O O12 0.700820 0.051395 0.194757
O O13 0.419967 0.839817 0.837307
O O14 0.250000 0.750000 0.000000
O O15 0.879213 0.709153 0.715248
O O16 0.551321 0.044127 0.756327
#
# Coordination Sequence:
#
# PCOD9281417 Si02
#       8
#     8   8   8   8   8   8   8   4
#     4  10  21  38  61  92 128 161 197 260 332 388
#     4  11  22  40  67  93 122 174 212 256 328 385
#     4  11  23  39  66  94 125 167 212 267 330 377
#     4  11  22  46  63  87 128 176 217 255 322 387
#     4  12  22  40  65  99 135 164 212 277 336 386
#     4  11  25  41  62  93 128 168 219 268 305 390
#     4  10  24  39  62  91 125 169 205 265 323 378
#     4  12  24  38  66 100 130 160 218 268 330 396
#
# _framework density 19.193379
#
# number of rings (size 3 to 8) (size 9 to 14) (size 15 to 20)
#    0.000    1.067    4.000    2.800    1.867    0.000 
#    0.000    0.667    0.000    0.000    0.000    0.000 
#    0.000    0.000    0.000    0.000    0.000    0.000 
#
# Total GULP energy -167678.192430 kJ/mol
# GULP energy per Si atom -5589.273081 kJ/mol
# Density = 1.914969 g / cm^3
# Si number density = 19.193379 Si / 1000 Ang^3
#
#
#
# Elastic Constant Matrix: (Units=GPa)
#
#
# Indices 1 2 3 4 5 6 
#
# 1 140.1557 48.8389 33.6323 -0.0001 27.7091 0.0003
# 2 48.8389 108.4119 17.6729 0.0000 7.1627 0.0001
# 3 33.6323 17.6729 50.5632 0.0000 9.9257 0.0000
# 4 -0.0001 0.0000 0.0000 19.5283 0.0000 8.6661
# 5 27.7091 7.1627 9.9257 0.0000 36.1904 0.0000
# 6 0.0003 0.0001 0.0000 8.6661 0.0000 25.2013
#
#
#
# Elastic Compliance Matrix: (Units=1/GPa)
#
#
# Indices 1 2 3 4 5 6 
#
# 1 0.010767 -0.003680 -0.004650 0.000000 -0.006240 0.000000
# 2 -0.003680 0.011077 -0.001635 0.000000 0.001074 0.000000
# 3 -0.004650 -0.001635 0.023970 0.000000 -0.002690 0.000000
# 4 0.000000 0.000000 0.000000 0.060429 0.000000 -0.020780
# 5 -0.006240 0.001074 -0.002690 0.000000 0.032934 0.000000
# 6 0.000000 0.000000 0.000000 -0.020780 0.000000 0.046826
#
#
# Mechanical properties :
#
#
# Convention : Reuss Voigt Hill
#
# Bulk Modulus (GPa) = 38.63431 55.49099 47.06265
# Shear Modulus (GPa) = 23.30321 29.44978 26.37649
#
# Velocity S-wave (km/s) = 3.48821 3.92136 3.71111
# Velocity P-wave (km/s) = 6.03293 7.03399 6.55260
#
# Compressibility (1/GPa) = 0.02588373
#
# Stress axis : x y z
#
# Youngs Moduli (GPa) = 92.87784 90.27325 41.71898
#
# Poissons Ratio (x) = 0.33221 0.19401
# Poissons Ratio (y) = 0.34179 0.06820
# Poissons Ratio (z) = 0.43192 0.14757
#
# Static dielectric constant tensor:
#      x y z
#    x 1.629110 0.000000 -0.000550 
#    y 0.000000 1.681610 0.000000 
#    z -0.000550 0.000000 1.671710 
# 
# From -- ./inp_files/281670.got.cif
#   From: 2010.05.17/outbox.cif.g08.bks.cpg/sg15_141_cif.got.tgz:281670.got - 2010.06.03 18:47:42.
