data_PCOD9281093
_publ_section_title
;
Structure prediction by ZEFSAII (Michael W. Deem and Ramdas Pophale) SiO2 
 PCOD9281093
Probable space group: C 2/C
;
_chemical_formula_sum "Si O2"
_cell_formula_units_Z 64
_cell_length_a 9.551723
_cell_length_b 14.275662
_cell_length_c 30.559948
_cell_angle_alpha 90.000000
_cell_angle_beta 118.492259
_cell_angle_gamma 90.000000
_cell_volume 3662.359269
_symmetry_space_group_name_H-M "C 2/C"
_symmetry_group_IT_number 15
_symmetry_cell_setting 'monoclinic'
loop_
_space_group_symop_operation_xyz
x,y,z
-x,y,1/2-z
-x,-y,-z
x,-y,1/2+z
1/2+x,1/2+y,z
1/2-x,1/2+y,1/2-z
1/2-x,1/2-y,-z
1/2+x,1/2-y,1/2+z
loop_
_atom_site_type_symbol
_atom_site_label
_atom_site_fract_x
_atom_site_fract_y
_atom_site_fract_z
Si Si1 0.634327 0.900486 0.875377
Si Si2 0.631727 0.882816 0.359736
Si Si3 0.470107 0.394612 0.875527
Si Si4 0.916112 0.227609 0.282154
Si Si5 0.247362 0.738739 0.051709
Si Si6 0.947897 0.249240 0.791552
Si Si7 0.911512 0.730215 0.050057
Si Si8 0.972596 0.889388 0.367648
O O1 0.815933 0.888224 0.884559
O O2 0.520053 0.837717 0.827929
O O3 0.613913 0.857061 0.920692
O O4 0.590748 0.009862 0.864445
O O5 0.499206 0.819557 0.315990
O O6 0.689820 0.830118 0.412475
O O7 0.784654 0.883938 0.350625
O O8 0.422200 0.348968 0.821788
O O9 0.622927 0.339539 0.916200
O O10 0.516013 0.502811 0.877170
O O11 0.740573 0.248784 0.239567
O O12 0.000000 0.195961 0.250000
O O13 0.069557 0.717768 0.043663
O O14 0.250000 0.750000 0.000000
O O15 0.004400 0.157533 0.825833
O O16 0.000000 0.250659 0.750000
O O17 0.944690 0.821796 0.084817
O O18 0.750000 0.750000 0.000000
#
# Coordination Sequence:
#
# PCOD9281093 Si02
#       8
#     8   8   8   8   8   8   8   8
#     4  10  21  38  59  82 113 144 191 230 274 332
#     4   9  20  38  59  81 106 153 189 222 271 338
#     4  10  21  38  58  84 110 148 187 234 273 326
#     4  11  21  36  59  80 115 152 190 225 276 329
#     4  10  21  39  61  84 112 144 185 229 281 336
#     4  11  21  36  55  86 113 148 186 233 276 320
#     4  10  21  39  61  83 112 149 179 229 284 336
#     4   9  20  38  58  80 113 145 189 226 273 334
#
# _framework density 17.475073999999999
#
# number of rings (size 3 to 8) (size 9 to 14) (size 15 to 20)
#    0.000    2.000    2.500    0.750    1.750    3.000 
#    2.250    5.000    0.000    0.000    0.000    0.000 
#    0.000    0.000    0.000    0.000    0.000    0.000 
#
# Total GULP energy -178439.813312 kJ/mol
# GULP energy per Si atom -5576.244166 kJ/mol
# Density = 1.743530 g / cm^3
# Si number density = 17.475074 Si / 1000 Ang^3
#
#
#
# Elastic Constant Matrix: (Units=GPa)
#
#
# Indices 1 2 3 4 5 6 
#
# 1 68.4866 16.6652 32.4710 0.0000 -2.0353 0.0000
# 2 16.6652 112.3184 17.6680 0.0000 1.7747 0.0000
# 3 32.4710 17.6680 72.1444 0.0000 -0.9477 0.0000
# 4 0.0000 0.0000 0.0000 4.9165 0.0000 1.0900
# 5 -2.0353 1.7747 -0.9477 0.0000 37.4766 0.0000
# 6 0.0000 0.0000 0.0000 1.0900 0.0000 25.8234
#
#
#
# Elastic Compliance Matrix: (Units=1/GPa)
#
#
# Indices 1 2 3 4 5 6 
#
# 1 0.018838 -0.001536 -0.008091 0.000000 0.000891 0.000000
# 2 -0.001536 0.009395 -0.001617 0.000000 -0.000569 0.000000
# 3 -0.008091 -0.001617 0.017900 0.000000 0.000090 0.000000
# 4 0.000000 0.000000 0.000000 0.205318 0.000000 -0.008667
# 5 0.000891 -0.000569 0.000090 0.000000 0.026761 0.000000
# 6 0.000000 0.000000 0.000000 -0.008667 0.000000 0.039090
#
#
# Mechanical properties :
#
#
# Convention : Reuss Voigt Hill
#
# Bulk Modulus (GPa) = 42.29311 42.95087 42.62199
# Shear Modulus (GPa) = 14.38144 26.05297 20.21721
#
# Velocity S-wave (km/s) = 2.87186 3.86536 3.40504
# Velocity P-wave (km/s) = 5.93728 6.67481 6.31682
#
# Compressibility (1/GPa) = 0.02364452
#
# Stress axis : x y z
#
# Youngs Moduli (GPa) = 53.08519 106.44497 55.86711
#
# Poissons Ratio (x) = 0.16355 0.45200
# Poissons Ratio (y) = 0.08156 0.09032
# Poissons Ratio (z) = 0.42949 0.17208
#
# Static dielectric constant tensor:
#      x y z
#    x 1.573460 0.000000 -0.007190 
#    y 0.000000 1.580950 0.000000 
#    z -0.007190 0.000000 1.574840 
# 
# From -- ./inp_files/307999.got.cif
#   From: 2010.05.17/outbox.cif.g08.bks.cpg/sg15_154_cif.got.tgz:307999.got - 2010.06.03 18:47:42.
