data_PCOD9281102
_publ_section_title
;
Structure prediction by ZEFSAII (Michael W. Deem and Ramdas Pophale) SiO2 
 PCOD9281102
Probable space group: C 2/C
;
_chemical_formula_sum "Si O2"
_cell_formula_units_Z 32
_cell_length_a 9.424427
_cell_length_b 28.684305
_cell_length_c 11.158321
_cell_angle_alpha 90.000000
_cell_angle_beta 27.485209
_cell_angle_gamma 90.000000
_cell_volume 1392.157273
_symmetry_space_group_name_H-M "C 2/C"
_symmetry_group_IT_number 15
_symmetry_cell_setting 'monoclinic'
loop_
_space_group_symop_operation_xyz
x,y,z
-x,y,1/2-z
-x,-y,-z
x,-y,1/2+z
1/2+x,1/2+y,z
1/2-x,1/2+y,1/2-z
1/2-x,1/2-y,-z
1/2+x,1/2-y,1/2+z
loop_
_atom_site_type_symbol
_atom_site_label
_atom_site_fract_x
_atom_site_fract_y
_atom_site_fract_z
Si Si1 0.864114 0.326581 0.733117
Si Si2 0.171922 0.198050 0.016871
Si Si3 0.861983 0.112268 0.729495
Si Si4 0.159016 0.478333 0.261880
O O1 0.595281 0.295884 0.878816
O O2 0.000000 0.303552 0.750000
O O3 0.133442 0.345924 0.445042
O O4 0.660478 0.369785 0.934549
O O5 0.000000 0.170447 0.250000
O O6 0.500000 0.175334 0.750000
O O7 0.250000 0.250000 0.000000
O O8 0.690085 0.075888 0.775009
O O9 0.000000 0.091350 0.750000
O O10 0.000000 0.484813 0.250000
O O11 0.000000 0.500000 0.500000
O O12 0.500000 0.500000 0.000000
#
# Coordination Sequence:
#
# PCOD9281102 Si02
#       4
#     8   8   8   8
#     4  10  21  38  61  87 119 158 204 254 309 372
#     4  10  21  38  58  85 118 154 193 246 308 367
#     4  10  21  38  61  90 121 159 206 259 311 368
#     4  12  25  42  64  92 127 169 212 261 316 377
#
# _framework density 22.985907999999998
#
# number of rings (size 3 to 8) (size 9 to 14) (size 15 to 20)
#    0.000    1.500    0.000    5.250    0.000    5.000 
#    0.000    5.000    0.000    0.000    0.000    0.000 
#    0.000    0.000    0.000    0.000    0.000    0.000 
#
# Total GULP energy -89226.359250 kJ/mol
# GULP energy per Si atom -5576.647453 kJ/mol
# Density = 2.293359 g / cm^3
# Si number density = 22.985908 Si / 1000 Ang^3
#
#
#
# Elastic Constant Matrix: (Units=GPa)
#
#
# Indices 1 2 3 4 5 6 
#
# 1 215.6054 38.6311 59.7677 0.0000 -41.1338 0.0000
# 2 38.6311 24.5248 -0.5955 0.0000 -6.4754 0.0000
# 3 59.7677 -0.5955 185.1873 0.0000 -3.3172 0.0000
# 4 0.0000 0.0000 0.0000 21.6774 0.0000 -2.4347
# 5 -41.1338 -6.4754 -3.3172 0.0000 45.7358 0.0000
# 6 0.0000 0.0000 0.0000 -2.4347 0.0000 76.2235
#
#
#
# Elastic Compliance Matrix: (Units=1/GPa)
#
#
# Indices 1 2 3 4 5 6 
#
# 1 0.008722 -0.012244 -0.002748 0.000000 0.005911 0.000000
# 2 -0.012244 0.059559 0.004102 0.000000 -0.002282 0.000000
# 3 -0.002748 0.004102 0.006274 0.000000 -0.001436 0.000000
# 4 0.000000 0.000000 0.000000 0.046297 0.000000 0.001479
# 5 0.005911 -0.002282 -0.001436 0.000000 0.026754 0.000000
# 6 0.000000 0.000000 0.000000 0.001479 0.000000 0.013167
#
#
# Mechanical properties :
#
#
# Convention : Reuss Voigt Hill
#
# Bulk Modulus (GPa) = 18.94847 68.99158 43.97003
# Shear Modulus (GPa) = 24.98206 50.56161 37.77184
#
# Velocity S-wave (km/s) = 3.30031 4.69516 4.05811
# Velocity P-wave (km/s) = 4.77327 7.71185 6.41314
#
# Compressibility (1/GPa) = 0.05277470
#
# Stress axis : x y z
#
# Youngs Moduli (GPa) = 114.65909 16.79013 159.37791
#
# Poissons Ratio (x) = 0.20558 0.43802
# Poissons Ratio (y) = 1.40389 -0.65382
# Poissons Ratio (z) = 0.31512 -0.06888
#
# Static dielectric constant tensor:
#      x y z
#    x 1.936400 0.000000 0.019580 
#    y 0.000000 1.811330 0.000000 
#    z 0.019580 0.000000 2.099630 
# 
# From -- ./inp_files/2356.got.cif
#   From: 2010.05.17/outbox.cif.g08.bks.cpg/sg15_2_cif.got.tgz:2356.got - 2010.06.03 18:47:42.
