data_PCOD9281775
_publ_section_title
;
Structure prediction by ZEFSAII (Michael W. Deem and Ramdas Pophale) SiO2 
 PCOD9281775
Probable space group: C 2/C
;
_chemical_formula_sum "Si O2"
_cell_formula_units_Z 40
_cell_length_a 9.000787
_cell_length_b 21.120104
_cell_length_c 10.183128
_cell_angle_alpha 90.000000
_cell_angle_beta 73.490605
_cell_angle_gamma 90.000000
_cell_volume 1855.981331
_symmetry_space_group_name_H-M "C 2/C"
_symmetry_group_IT_number 15
_symmetry_cell_setting 'monoclinic'
loop_
_space_group_symop_operation_xyz
x,y,z
-x,y,1/2-z
-x,-y,-z
x,-y,1/2+z
1/2+x,1/2+y,z
1/2-x,1/2+y,1/2-z
1/2-x,1/2-y,-z
1/2+x,1/2-y,1/2+z
loop_
_atom_site_type_symbol
_atom_site_label
_atom_site_fract_x
_atom_site_fract_y
_atom_site_fract_z
Si Si1 0.069123 0.741713 0.520613
Si Si2 0.799061 0.182574 0.047924
Si Si3 0.645300 0.444567 0.060860
Si Si4 0.500000 0.196089 0.250000
Si Si5 0.000000 0.365093 0.250000
Si Si6 0.285330 0.536537 0.672275
O O1 0.250000 0.750000 0.500000
O O2 0.049158 0.733696 0.368502
O O3 0.007585 0.682094 0.621760
O O4 0.959006 0.801618 0.581256
O O5 0.657038 0.160663 0.173359
O O6 0.750000 0.250000 0.000000
O O7 0.815339 0.129169 0.935261
O O8 0.692321 0.480610 0.180845
O O9 0.459637 0.442329 0.087267
O O10 0.735463 0.477291 0.918823
O O11 0.849371 0.410877 0.299957
#
# Coordination Sequence:
#
# PCOD9281775 Si02
#       6
#     8   8   8   4   4   8
#     4  11  23  40  63  95 131 168 213 266 326 392
#     4  10  21  38  64  93 125 164 208 263 324 384
#     4  10  22  43  65  89 123 168 215 259 317 382
#     4  10  22  37  58  90 124 163 206 252 314 380
#     4  12  24  41  64  96 132 169 212 266 328 384
#     4  10  23  41  65  90 122 167 214 262 314 379
#
# _framework density 21.551940999999999
#
# number of rings (size 3 to 8) (size 9 to 14) (size 15 to 20)
#    0.000    1.600    0.000    4.800    0.000   12.800 
#    0.000    8.000    0.000    0.000    0.000    0.000 
#    0.000    0.000    0.000    0.000    0.000    0.000 
#
# Total GULP energy -111393.414015 kJ/mol
# GULP energy per Si atom -5569.670701 kJ/mol
# Density = 2.150289 g / cm^3
# Si number density = 21.551941 Si / 1000 Ang^3
#
#
#
# Elastic Constant Matrix: (Units=GPa)
#
#
# Indices 1 2 3 4 5 6 
#
# 1 129.6738 25.1143 61.4260 0.0000 -5.6807 0.0000
# 2 25.1143 94.2685 60.6471 0.0000 3.1096 0.0000
# 3 61.4260 60.6471 96.6581 0.0000 1.5245 0.0000
# 4 0.0000 0.0000 0.0000 27.8676 0.0000 -0.1494
# 5 -5.6807 3.1096 1.5245 0.0000 32.5023 0.0000
# 6 0.0000 0.0000 0.0000 -0.1494 0.0000 21.9984
#
#
#
# Elastic Compliance Matrix: (Units=1/GPa)
#
#
# Indices 1 2 3 4 5 6 
#
# 1 0.011592 0.002685 -0.009085 0.000000 0.002195 0.000000
# 2 0.002685 0.018455 -0.013275 0.000000 -0.000674 0.000000
# 3 -0.009085 -0.013275 0.024472 0.000000 -0.001466 0.000000
# 4 0.000000 0.000000 0.000000 0.035885 0.000000 0.000244
# 5 0.002195 -0.000674 -0.001466 0.000000 0.031284 0.000000
# 6 0.000000 0.000000 0.000000 0.000244 0.000000 0.045459
#
#
# Mechanical properties :
#
#
# Convention : Reuss Voigt Hill
#
# Bulk Modulus (GPa) = 65.93242 68.33057 67.13149
# Shear Modulus (GPa) = 23.63447 28.03454 25.83450
#
# Velocity S-wave (km/s) = 3.31513 3.61056 3.46599
# Velocity P-wave (km/s) = 6.73143 7.01109 6.87269
#
# Compressibility (1/GPa) = 0.01516705
#
# Stress axis : x y z
#
# Youngs Moduli (GPa) = 86.26892 54.18452 40.86313
#
# Poissons Ratio (x) = -0.14546 0.37126
# Poissons Ratio (y) = -0.23159 0.54246
# Poissons Ratio (z) = 0.78379 0.71930
#
# Static dielectric constant tensor:
#      x y z
#    x 1.877970 0.000000 -0.037300 
#    y 0.000000 1.823580 0.000000 
#    z -0.037300 0.000000 1.699420 
# 
# From -- ./inp_files/23513.got.cif
#   From: 2010.05.17/outbox.cif.g08.bks.cpg/sg15_12_cif.got.tgz:23513.got - 2010.06.03 18:47:42.
