data_PCOD9281774
_publ_section_title
;
Structure prediction by ZEFSAII (Michael W. Deem and Ramdas Pophale) SiO2 
 PCOD9281774
Probable space group: C 2/C
;
_chemical_formula_sum "Si O2"
_cell_formula_units_Z 56
_cell_length_a 24.918582
_cell_length_b 18.218441
_cell_length_c 18.485217
_cell_angle_alpha 90.000000
_cell_angle_beta 18.403114
_cell_angle_gamma 90.000000
_cell_volume 2649.320538
_symmetry_space_group_name_H-M "C 2/C"
_symmetry_group_IT_number 15
_symmetry_cell_setting 'monoclinic'
loop_
_space_group_symop_operation_xyz
x,y,z
-x,y,1/2-z
-x,-y,-z
x,-y,1/2+z
1/2+x,1/2+y,z
1/2-x,1/2+y,1/2-z
1/2-x,1/2-y,-z
1/2+x,1/2-y,1/2+z
loop_
_atom_site_type_symbol
_atom_site_label
_atom_site_fract_x
_atom_site_fract_y
_atom_site_fract_z
Si Si1 0.212328 0.042738 0.751319
Si Si2 0.259769 0.387666 0.732021
Si Si3 0.650101 0.200422 0.501658
Si Si4 0.080380 0.400470 0.809866
Si Si5 0.943917 0.768970 0.147262
Si Si6 0.700758 0.887202 0.508012
Si Si7 0.459572 0.684293 0.466958
O O1 0.410201 0.052181 0.521855
O O2 0.218633 0.062929 0.658170
O O3 0.158101 0.961044 0.840057
O O4 0.106471 0.103191 0.931052
O O5 0.138703 0.357288 0.950291
O O6 0.168062 0.406134 0.774959
O O7 0.398487 0.323865 0.541948
O O8 0.629493 0.278762 0.487749
O O9 0.836018 0.190352 0.299050
O O10 0.500000 0.190786 0.750000
O O11 0.027202 0.314584 0.867901
O O12 0.209604 0.416029 0.578559
O O13 0.787140 0.808090 0.387152
O O14 0.914394 0.771608 0.098525
O O15 0.500000 0.883002 0.750000
#
# Coordination Sequence:
#
# PCOD9281774 Si02
#       7
#     8   8   8   8   8   8   8
#     4  10  22  42  62  90 130 171 209 251 324 384
#     4  11  24  39  66  92 128 170 209 262 317 386
#     4  11  23  40  65  95 120 167 219 275 315 370
#     4  11  21  39  64  94 128 164 214 259 318 374
#     4  10  21  38  64  93 125 163 209 258 311 372
#     4   9  21  36  62  92 126 164 203 259 310 374
#     4  10  21  40  65  90 126 167 215 265 316 377
#
# _framework density 21.137495999999999
#
# number of rings (size 3 to 8) (size 9 to 14) (size 15 to 20)
#    0.000    1.714    1.429    3.000    4.000    7.429 
#    0.000    0.000    6.286    0.000    0.000    0.000 
#    0.000    0.000    0.000    0.000    0.000    0.000 
#
# Total GULP energy -156515.651146 kJ/mol
# GULP energy per Si atom -5589.844684 kJ/mol
# Density = 2.108939 g / cm^3
# Si number density = 21.137496 Si / 1000 Ang^3
#
#
#
# Elastic Constant Matrix: (Units=GPa)
#
#
# Indices 1 2 3 4 5 6 
#
# 1 67.2542 29.8846 30.9592 0.0034 15.3905 -0.0010
# 2 29.8846 88.1878 40.3067 -0.0017 10.8786 -0.0021
# 3 30.9592 40.3067 135.9219 0.0025 10.9300 -0.0029
# 4 0.0034 -0.0017 0.0025 24.6388 0.0000 -8.8487
# 5 15.3905 10.8786 10.9300 0.0000 21.8140 -0.0002
# 6 -0.0010 -0.0021 -0.0029 -8.8487 -0.0002 21.9476
#
#
#
# Elastic Compliance Matrix: (Units=1/GPa)
#
#
# Indices 1 2 3 4 5 6 
#
# 1 0.020505 -0.004466 -0.002461 -0.000003 -0.011007 -0.000001
# 2 -0.004466 0.014588 -0.003102 0.000003 -0.002570 0.000002
# 3 -0.002461 -0.003102 0.008934 -0.000001 -0.001193 0.000001
# 4 -0.000003 0.000003 -0.000001 0.047458 0.000002 0.019134
# 5 -0.011007 -0.002570 -0.001193 0.000002 0.055487 0.000000
# 6 -0.000001 0.000002 0.000001 0.019134 0.000000 0.053277
#
#
# Mechanical properties :
#
#
# Convention : Reuss Voigt Hill
#
# Bulk Modulus (GPa) = 41.72211 54.85165 48.28688
# Shear Modulus (GPa) = 21.90136 26.36097 24.13116
#
# Velocity S-wave (km/s) = 3.22240 3.53529 3.38246
# Velocity P-wave (km/s) = 5.79883 6.53227 6.17645
#
# Compressibility (1/GPa) = 0.02396811
#
# Stress axis : x y z
#
# Youngs Moduli (GPa) = 48.76818 68.55124 111.93809
#
# Poissons Ratio (x) = 0.30616 0.27548
# Poissons Ratio (y) = 0.21780 0.34723
# Poissons Ratio (z) = 0.12002 0.21264
#
# Static dielectric constant tensor:
#      x y z
#    x 1.795220 0.000000 -0.016300 
#    y 0.000000 1.770220 0.000000 
#    z -0.016300 0.000000 1.767540 
# 
# From -- ./inp_files/222929.got.cif
#   From: 2010.05.17/outbox.cif.g08.bks.cpg/sg15_112_cif.got.tgz:222929.got - 2010.06.03 18:47:42.
