data_PCOD9281700
_publ_section_title
;
Structure prediction by ZEFSAII (Michael W. Deem and Ramdas Pophale) SiO2 
 PCOD9281700
Probable space group: C 2/C
;
_chemical_formula_sum "Si O2"
_cell_formula_units_Z 32
_cell_length_a 13.359927
_cell_length_b 17.548667
_cell_length_c 10.515623
_cell_angle_alpha 90.000000
_cell_angle_beta 31.713473
_cell_angle_gamma 90.000000
_cell_volume 1295.978586
_symmetry_space_group_name_H-M "C 2/C"
_symmetry_group_IT_number 15
_symmetry_cell_setting 'monoclinic'
loop_
_space_group_symop_operation_xyz
x,y,z
-x,y,1/2-z
-x,-y,-z
x,-y,1/2+z
1/2+x,1/2+y,z
1/2-x,1/2+y,1/2-z
1/2-x,1/2-y,-z
1/2+x,1/2-y,1/2+z
loop_
_atom_site_type_symbol
_atom_site_label
_atom_site_fract_x
_atom_site_fract_y
_atom_site_fract_z
Si Si1 0.000000 0.675471 0.750000
Si Si2 0.477701 0.825598 0.922317
Si Si3 0.500000 0.570724 0.250000
Si Si4 0.189347 0.819042 0.760617
Si Si5 0.334654 0.944275 0.226421
O O1 0.908838 0.617598 0.748344
O O2 0.155355 0.720338 0.502153
O O3 0.500000 0.816298 0.750000
O O4 0.675552 0.853244 0.774482
O O5 0.429084 0.745192 0.040228
O O6 0.310948 0.887401 0.132068
O O7 0.411284 0.622392 0.229196
O O8 0.343965 0.524009 0.501089
O O9 0.500000 0.000000 0.000000
#
# Coordination Sequence:
#
# PCOD9281700 Si02
#       5
#     4   8   4   8   8
#     4   8  20  39  62  90 126 163 224 276 314 385
#     4  11  23  38  62  95 140 176 210 276 338 400
#     4  10  22  43  70 100 126 167 234 280 320 401
#     4  10  21  38  63  98 128 168 222 276 340 377
#     4  10  22  40  66  92 128 179 221 268 327 385
#
# _framework density 24.691766000000001
#
# number of rings (size 3 to 8) (size 9 to 14) (size 15 to 20)
#    0.000    2.000    0.000    2.250    1.750   17.000 
#    0.000   11.250   22.000    0.000    0.000    0.000 
#    0.000    0.000    0.000    0.000    0.000    0.000 
#
# Total GULP energy -89068.442638 kJ/mol
# GULP energy per Si atom -5566.777665 kJ/mol
# Density = 2.463557 g / cm^3
# Si number density = 24.691766 Si / 1000 Ang^3
#
#
#
# Elastic Constant Matrix: (Units=GPa)
#
#
# Indices 1 2 3 4 5 6 
#
# 1 141.5080 20.7307 58.3217 0.0051 31.0932 0.0004
# 2 20.7307 74.0381 64.4797 0.0030 18.7540 0.0003
# 3 58.3217 64.4797 201.7618 0.0138 53.4025 -0.0038
# 4 0.0051 0.0030 0.0138 -90.8148 0.0063 56.1419
# 5 31.0932 18.7540 53.4025 0.0063 41.2779 -0.0044
# 6 0.0004 0.0003 -0.0038 56.1419 -0.0044 -20.2171
#
#
#
# Elastic Compliance Matrix: (Units=1/GPa)
#
#
# Indices 1 2 3 4 5 6 
#
# 1 0.008651 -0.000181 -0.001125 -0.000001 -0.004979 -0.000002
# 2 -0.000181 0.018756 -0.005661 -0.000001 -0.001061 -0.000001
# 3 -0.001125 -0.005661 0.009407 -0.000001 -0.008750 -0.000002
# 4 -0.000001 -0.000001 -0.000001 0.015364 0.000005 0.042664
# 5 -0.004979 -0.001061 -0.008750 0.000005 0.039779 0.000006
# 6 -0.000002 -0.000001 -0.000002 0.042664 0.000006 0.069013
#
#
# Mechanical properties :
#
#
# Convention : Reuss Voigt Hill
#
# Bulk Modulus (GPa) = 43.70742 78.26359 60.98550
# Shear Modulus (GPa) = 27.39266 4.30092 15.84679
#
# Velocity S-wave (km/s) = 3.33436 1.32122 2.53609
# Velocity P-wave (km/s) = 5.70645 5.83888 5.77304
#
# Compressibility (1/GPa) = 0.02287941
#
# Stress axis : x y z
#
# Youngs Moduli (GPa) = 115.59509 53.31571 106.30739
#
# Poissons Ratio (x) = 0.00968 0.11958
# Poissons Ratio (y) = 0.02098 0.60178
# Poissons Ratio (z) = 0.13003 0.30181
#
# Static dielectric constant tensor:
#      x y z
#    x 2.123510 0.000000 -0.038450 
#    y 0.000000 2.036110 0.000010 
#    z -0.038450 0.000010 2.253300 
# 
# From -- ./inp_files/88681.got.cif
#   From: 2010.05.17/outbox.cif.g08.bks.cpg/sg15_45_cif.got.tgz:88681.got - 2010.06.03 18:47:42.
