data_PCOD9281386
_publ_section_title
;
Structure prediction by ZEFSAII (Michael W. Deem and Ramdas Pophale) SiO2 
 PCOD9281386
Probable space group: C 2/C
;
_chemical_formula_sum "Si O2"
_cell_formula_units_Z 56
_cell_length_a 9.237695
_cell_length_b 11.472111
_cell_length_c 27.511771
_cell_angle_alpha 90.000000
_cell_angle_beta 113.709988
_cell_angle_gamma 90.000000
_cell_volume 2669.486561
_symmetry_space_group_name_H-M "C 2/C"
_symmetry_group_IT_number 15
_symmetry_cell_setting 'monoclinic'
loop_
_space_group_symop_operation_xyz
x,y,z
-x,y,1/2-z
-x,-y,-z
x,-y,1/2+z
1/2+x,1/2+y,z
1/2-x,1/2+y,1/2-z
1/2-x,1/2-y,-z
1/2+x,1/2-y,1/2+z
loop_
_atom_site_type_symbol
_atom_site_label
_atom_site_fract_x
_atom_site_fract_y
_atom_site_fract_z
Si Si1 0.529709 0.112911 0.656104
Si Si2 0.713214 0.914515 0.465649
Si Si3 0.000000 0.742291 0.750000
Si Si4 0.745130 0.938700 0.736028
Si Si5 0.199314 0.694567 0.327077
Si Si6 0.794497 0.333482 0.562462
Si Si7 0.500000 0.369430 0.250000
Si Si8 0.481920 0.774442 0.986290
O O1 0.403758 0.103456 0.596123
O O2 0.470624 0.161484 0.699655
O O3 0.652488 0.216484 0.657990
O O4 0.615087 0.990108 0.681312
O O5 0.618318 0.875630 0.501093
O O6 0.868353 0.836325 0.478845
O O7 0.753656 0.049741 0.472354
O O8 0.848410 0.827612 0.733299
O O9 0.694606 0.899777 0.783195
O O10 0.864953 0.047952 0.752806
O O11 0.198304 0.641318 0.379811
O O12 0.055320 0.783119 0.299658
O O13 0.651380 0.243225 0.535291
O O14 0.960558 0.294421 0.561127
#
# Coordination Sequence:
#
# PCOD9281386 Si02
#       8
#     8   8   4   8   8   8   4   8
#     4  10  21  38  61  90 122 158 204 249 306 365
#     4  11  23  41  67  91 122 165 206 256 315 367
#     4   9  20  37  54  84 126 157 196 247 298 368
#     4   9  20  37  56  82 124 161 197 246 298 368
#     4  10  21  38  61  90 122 158 204 249 306 365
#     4  11  23  41  67  91 122 165 206 256 315 367
#     4   9  20  37  54  84 126 157 196 247 298 368
#     4  10  24  46  62  90 130 158 212 266 302 370
#
# _framework density 20.977817000000002
#
# number of rings (size 3 to 8) (size 9 to 14) (size 15 to 20)
#    0.000    2.000    1.429    0.857    4.000    2.286 
#    2.571    0.000    0.000    0.000    0.000    0.000 
#    0.000    0.000    0.000    0.000    0.000    0.000 
#
# Total GULP energy -156253.367529 kJ/mol
# GULP energy per Si atom -5580.477412 kJ/mol
# Density = 2.093007 g / cm^3
# Si number density = 20.977817 Si / 1000 Ang^3
#
#
#
# Elastic Constant Matrix: (Units=GPa)
#
#
# Indices 1 2 3 4 5 6 
#
# 1 93.4558 15.7370 37.7966 0.0000 -18.4325 0.0000
# 2 15.7370 59.2490 -2.8475 0.0000 -5.4862 0.0000
# 3 37.7966 -2.8475 46.9317 0.0000 -5.6015 0.0000
# 4 0.0000 0.0000 0.0000 15.8933 0.0000 -6.5555
# 5 -18.4325 -5.4862 -5.6015 0.0000 27.8715 0.0000
# 6 0.0000 0.0000 0.0000 -6.5555 0.0000 13.2476
#
#
#
# Elastic Compliance Matrix: (Units=1/GPa)
#
#
# Indices 1 2 3 4 5 6 
#
# 1 0.019240 -0.005007 -0.014751 0.000000 0.008774 0.000000
# 2 -0.005007 0.018595 0.005330 0.000000 0.001420 0.000000
# 3 -0.014751 0.005330 0.033270 0.000000 -0.002020 0.000000
# 4 0.000000 0.000000 0.000000 0.079056 0.000000 0.039120
# 5 0.008774 0.001420 -0.002020 0.000000 0.041555 0.000000
# 6 0.000000 0.000000 0.000000 0.039120 0.000000 0.094844
#
#
# Mechanical properties :
#
#
# Convention : Reuss Voigt Hill
#
# Bulk Modulus (GPa) = 23.66930 33.44537 28.55733
# Shear Modulus (GPa) = 15.17458 21.33251 18.25354
#
# Velocity S-wave (km/s) = 2.69246 3.19236 2.95301
# Velocity P-wave (km/s) = 4.57966 5.43747 5.02689
#
# Compressibility (1/GPa) = 0.04224883
#
# Stress axis : x y z
#
# Youngs Moduli (GPa) = 51.97574 53.77661 30.05717
#
# Poissons Ratio (x) = 0.26925 0.44338
# Poissons Ratio (y) = 0.26023 -0.16020
# Poissons Ratio (z) = 0.76671 -0.28663
#
# Static dielectric constant tensor:
#      x y z
#    x 1.790500 0.000000 0.006120 
#    y 0.000000 1.755130 0.000000 
#    z 0.006120 0.000000 1.744580 
# 
# From -- ./inp_files/288113.got.cif
#   From: 2010.05.17/outbox.cif.g08.bks.cpg/sg15_145_cif.got.tgz:288113.got - 2010.06.03 18:47:42.
