data_PCOD9281782
_publ_section_title
;
Structure prediction by ZEFSAII (Michael W. Deem and Ramdas Pophale) SiO2 
 PCOD9281782
Probable space group: C 2/C
;
_chemical_formula_sum "Si O2"
_cell_formula_units_Z 44
_cell_length_a 8.230529
_cell_length_b 19.929980
_cell_length_c 15.407106
_cell_angle_alpha 90.000000
_cell_angle_beta 55.117391
_cell_angle_gamma 90.000000
_cell_volume 2073.203320
_symmetry_space_group_name_H-M "C 2/C"
_symmetry_group_IT_number 15
_symmetry_cell_setting 'monoclinic'
loop_
_space_group_symop_operation_xyz
x,y,z
-x,y,1/2-z
-x,-y,-z
x,-y,1/2+z
1/2+x,1/2+y,z
1/2-x,1/2+y,1/2-z
1/2-x,1/2-y,-z
1/2+x,1/2-y,1/2+z
loop_
_atom_site_type_symbol
_atom_site_label
_atom_site_fract_x
_atom_site_fract_y
_atom_site_fract_z
Si Si1 0.045949 0.623854 0.080313
Si Si2 0.448440 0.555575 0.945446
Si Si3 0.570662 0.783441 0.406686
Si Si4 0.834761 0.937566 0.866524
Si Si5 0.309327 0.657538 0.545082
Si Si6 0.500000 0.226085 0.250000
O O1 0.991829 0.678141 0.168763
O O2 0.874761 0.569296 0.117502
O O3 0.251340 0.590257 0.040882
O O4 0.079244 0.662141 0.980110
O O5 0.394508 0.512682 0.876978
O O6 0.618868 0.612038 0.896304
O O7 0.500000 0.500000 0.000000
O O8 0.464532 0.717482 0.479921
O O9 0.410762 0.811181 0.385868
O O10 0.794565 0.766992 0.312003
O O11 0.000000 0.911067 0.750000
O O12 0.821936 0.890412 0.955719
#
# Coordination Sequence:
#
# PCOD9281782 Si02
#       6
#     8   8   8   8   8   4
#     4  11  23  39  65  90 127 163 206 260 313 371
#     4  10  21  39  64  85 123 167 203 254 312 363
#     4  10  21  39  64  91 125 160 204 259 316 373
#     4  10  21  38  64  94 122 163 215 250 301 376
#     4   9  19  39  63  89 125 166 196 254 322 371
#     4  12  22  36  66  96 124 164 220 256 308 388
#
# _framework density 21.223196000000002
#
# number of rings (size 3 to 8) (size 9 to 14) (size 15 to 20)
#    0.000    1.818    1.818    2.182    2.545    0.000 
#    1.636    0.000    4.000    0.000    0.000    0.000 
#    0.000    0.000    0.000    0.000    0.000    0.000 
#
# Total GULP energy -122835.315045 kJ/mol
# GULP energy per Si atom -5583.423411 kJ/mol
# Density = 2.117489 g / cm^3
# Si number density = 21.223196 Si / 1000 Ang^3
#
#
#
# Elastic Constant Matrix: (Units=GPa)
#
#
# Indices 1 2 3 4 5 6 
#
# 1 141.8339 68.4636 51.9622 0.0000 -45.4345 0.0000
# 2 68.4636 99.4552 25.4837 0.0000 -21.5079 0.0000
# 3 51.9622 25.4837 69.3140 0.0000 -18.0815 0.0000
# 4 0.0000 0.0000 0.0000 14.7966 0.0000 0.9300
# 5 -45.4345 -21.5079 -18.0815 0.0000 23.1148 0.0000
# 6 0.0000 0.0000 0.0000 0.9300 0.0000 46.1340
#
#
#
# Elastic Compliance Matrix: (Units=1/GPa)
#
#
# Indices 1 2 3 4 5 6 
#
# 1 0.024691 -0.007466 -0.006177 0.000000 0.036753 0.000000
# 2 -0.007466 0.015064 -0.000142 0.000000 -0.000769 0.000000
# 3 -0.006177 -0.000142 0.019987 0.000000 0.003360 0.000000
# 4 0.000000 0.000000 0.000000 0.067669 0.000000 -0.001364
# 5 0.036753 -0.000769 0.003360 0.000000 0.117417 0.000000
# 6 0.000000 0.000000 0.000000 -0.001364 0.000000 0.021703
#
#
# Mechanical properties :
#
#
# Convention : Reuss Voigt Hill
#
# Bulk Modulus (GPa) = 31.08378 66.93581 49.00979
# Shear Modulus (GPa) = 16.40279 27.78865 22.09572
#
# Velocity S-wave (km/s) = 2.78307 3.62242 3.23013
# Velocity P-wave (km/s) = 5.00052 7.00738 6.08723
#
# Compressibility (1/GPa) = 0.03217112
#
# Stress axis : x y z
#
# Youngs Moduli (GPa) = 40.50091 66.38223 50.03282
#
# Poissons Ratio (x) = 0.49560 0.30907
# Poissons Ratio (y) = 0.30237 0.00712
# Poissons Ratio (z) = 0.25019 0.00944
#
# Static dielectric constant tensor:
#      x y z
#    x 1.819850 0.000000 -0.023470 
#    y 0.000000 1.778850 0.000000 
#    z -0.023470 0.000000 1.780920 
# 
# From -- ./inp_files/135825.got.cif
#   From: 2010.05.17/outbox.cif.g08.bks.cpg/sg15_68_cif.got.tgz:135825.got - 2010.06.03 18:47:42.
