data_PCOD9281696
_publ_section_title
;
Structure prediction by ZEFSAII (Michael W. Deem and Ramdas Pophale) SiO2 
 PCOD9281696
Probable space group: C 2/C
;
_chemical_formula_sum "Si O2"
_cell_formula_units_Z 56
_cell_length_a 29.861677
_cell_length_b 11.484554
_cell_length_c 8.919184
_cell_angle_alpha 90.000000
_cell_angle_beta 68.632187
_cell_angle_gamma 90.000000
_cell_volume 2848.555604
_symmetry_space_group_name_H-M "C 2/C"
_symmetry_group_IT_number 15
_symmetry_cell_setting 'monoclinic'
loop_
_space_group_symop_operation_xyz
x,y,z
-x,y,1/2-z
-x,-y,-z
x,-y,1/2+z
1/2+x,1/2+y,z
1/2-x,1/2+y,1/2-z
1/2-x,1/2-y,-z
1/2+x,1/2-y,1/2+z
loop_
_atom_site_type_symbol
_atom_site_label
_atom_site_fract_x
_atom_site_fract_y
_atom_site_fract_z
Si Si1 0.626015 0.346087 0.996636
Si Si2 0.647700 0.888855 0.991978
Si Si3 0.443917 0.832377 0.850248
Si Si4 0.333905 0.516381 0.302218
Si Si5 0.441169 0.022183 0.067057
Si Si6 0.290743 0.658095 0.613169
Si Si7 0.678853 0.871748 0.297269
O O1 0.625432 0.415616 0.841303
O O2 0.658092 0.232191 0.924786
O O3 0.577172 0.294745 0.120271
O O4 0.646952 0.429068 0.096843
O O5 0.591259 0.896745 0.006888
O O6 0.677063 0.774083 0.900714
O O7 0.672237 0.004806 0.891238
O O8 0.654244 0.885767 0.163521
O O9 0.500000 0.826036 0.750000
O O10 0.426810 0.920721 0.741382
O O11 0.428834 0.893554 0.024031
O O12 0.302844 0.609617 0.432521
O O13 0.305829 0.440071 0.215141
O O14 0.500000 0.000000 0.000000
O O15 0.233817 0.665119 0.699492
#
# Coordination Sequence:
#
# PCOD9281696 Si02
#       7
#     8   8   8   8   8   8   8
#     4  11  23  43  62  90 123 167 219 265 329 384
#     4  12  24  40  63  96 133 173 219 272 337 388
#     4  10  21  39  63  93 130 159 206 267 328 394
#     4  10  24  42  64  85 128 174 221 268 316 385
#     4  10  21  38  63  97 132 167 208 270 342 395
#     4  11  24  42  61  94 132 179 224 265 327 381
#     4  12  26  38  63  94 134 169 219 272 321 400
#
# _framework density 19.659085999999999
#
# number of rings (size 3 to 8) (size 9 to 14) (size 15 to 20)
#    0.000    1.143    2.857    3.000    6.000    0.571 
#    0.000    0.714    0.000    0.000    0.000    0.000 
#    0.000    0.000    0.000    0.000    0.000    0.000 
#
# Total GULP energy -155934.600396 kJ/mol
# GULP energy per Si atom -5569.092871 kJ/mol
# Density = 1.961434 g / cm^3
# Si number density = 19.659086 Si / 1000 Ang^3
#
#
#
# Elastic Constant Matrix: (Units=GPa)
#
#
# Indices 1 2 3 4 5 6 
#
# 1 83.3983 45.0201 31.6803 0.0000 -6.0694 0.0000
# 2 45.0201 121.4190 46.0077 0.0000 -2.0381 0.0000
# 3 31.6803 46.0077 104.3961 0.0000 3.5052 0.0000
# 4 0.0000 0.0000 0.0000 47.8849 0.0000 1.9479
# 5 -6.0694 -2.0381 3.5052 0.0000 17.7432 0.0000
# 6 0.0000 0.0000 0.0000 1.9479 0.0000 25.3178
#
#
#
# Elastic Compliance Matrix: (Units=1/GPa)
#
#
# Indices 1 2 3 4 5 6 
#
# 1 0.016086 -0.004743 -0.002977 0.000000 0.005546 0.000000
# 2 -0.004743 0.011357 -0.003579 0.000000 0.000389 0.000000
# 3 -0.002977 -0.003579 0.012188 0.000000 -0.003837 0.000000
# 4 0.000000 0.000000 0.000000 0.020949 0.000000 -0.001612
# 5 0.005546 0.000389 -0.003837 0.000000 0.059060 0.000000
# 6 0.000000 0.000000 0.000000 -0.001612 0.000000 0.039622
#
#
# Mechanical properties :
#
#
# Convention : Reuss Voigt Hill
#
# Bulk Modulus (GPa) = 58.71015 61.62552 60.16784
# Shear Modulus (GPa) = 26.66127 30.62286 28.64206
#
# Velocity S-wave (km/s) = 3.68663 3.95105 3.82113
# Velocity P-wave (km/s) = 6.93186 7.22700 7.08096
#
# Compressibility (1/GPa) = 0.01703283
#
# Stress axis : x y z
#
# Youngs Moduli (GPa) = 62.16726 88.04977 82.04473
#
# Poissons Ratio (x) = 0.41762 0.24427
# Poissons Ratio (y) = 0.29486 0.29363
# Poissons Ratio (z) = 0.18509 0.31512
#
# Static dielectric constant tensor:
#      x y z
#    x 1.783210 0.000000 -0.030140 
#    y 0.000000 1.693290 0.000000 
#    z -0.030140 0.000000 1.733050 
# 
# From -- ./inp_files/65446.got.cif
#   From: 2010.05.17/outbox.cif.g08.bks.cpg/sg15_33_cif.got.tgz:65446.got - 2010.06.03 18:47:42.
