data_PCOD9281534
_publ_section_title
;
Structure prediction by ZEFSAII (Michael W. Deem and Ramdas Pophale) SiO2 
 PCOD9281534
Probable space group: C 2/C
;
_chemical_formula_sum "Si O2"
_cell_formula_units_Z 48
_cell_length_a 8.139840
_cell_length_b 21.388369
_cell_length_c 18.465884
_cell_angle_alpha 90.000000
_cell_angle_beta 135.838720
_cell_angle_gamma 90.000000
_cell_volume 2239.738268
_symmetry_space_group_name_H-M "C 2/C"
_symmetry_group_IT_number 15
_symmetry_cell_setting 'monoclinic'
loop_
_space_group_symop_operation_xyz
x,y,z
-x,y,1/2-z
-x,-y,-z
x,-y,1/2+z
1/2+x,1/2+y,z
1/2-x,1/2+y,1/2-z
1/2-x,1/2-y,-z
1/2+x,1/2-y,1/2+z
loop_
_atom_site_type_symbol
_atom_site_label
_atom_site_fract_x
_atom_site_fract_y
_atom_site_fract_z
Si Si1 0.575807 0.808110 0.944888
Si Si2 0.894933 0.173097 0.134677
Si Si3 0.338003 0.890496 0.266472
Si Si4 0.902392 0.071804 0.550802
Si Si5 0.701563 0.745053 0.761122
Si Si6 0.769752 0.931544 0.488544
O O1 0.370906 0.802540 0.939405
O O2 0.439048 0.798935 0.826294
O O3 0.750000 0.750000 0.000000
O O4 0.717886 0.871844 0.996732
O O5 0.000000 0.169335 0.250000
O O6 0.060180 0.219839 0.141278
O O7 0.875898 0.107529 0.088342
O O8 0.500000 0.909485 0.250000
O O9 0.285914 0.816303 0.244937
O O10 0.505182 0.907503 0.386669
O O11 0.087967 0.923859 0.175759
O O12 0.060514 0.079710 0.527659
O O13 0.777048 0.005079 0.506612
O O14 0.500000 0.719706 0.750000
#
# Coordination Sequence:
#
# PCOD9281534 Si02
#       6
#     8   8   8   8   8   8
#     4  11  22  39  64  90 128 168 208 264 320 375
#     4  10  24  42  63  95 130 170 212 267 325 377
#     4  10  21  38  62  92 129 166 213 268 319 386
#     4  10  22  42  65  95 130 171 217 262 320 388
#     4  11  23  39  63  95 126 167 217 267 324 385
#     4  10  23  41  66  95 128 176 216 262 321 386
#
# _framework density 21.431073999999999
#
# number of rings (size 3 to 8) (size 9 to 14) (size 15 to 20)
#    0.000    1.667    1.667    2.500    4.667    4.000 
#    0.000    5.833    0.000    0.000    0.000    0.000 
#    0.000    0.000    0.000    0.000    0.000    0.000 
#
# Total GULP energy -133924.259322 kJ/mol
# GULP energy per Si atom -5580.177472 kJ/mol
# Density = 2.138230 g / cm^3
# Si number density = 21.431074 Si / 1000 Ang^3
#
#
#
# Elastic Constant Matrix: (Units=GPa)
#
#
# Indices 1 2 3 4 5 6 
#
# 1 63.8998 29.3521 32.6425 0.0000 27.3160 0.0000
# 2 29.3521 81.4688 52.6540 0.0000 20.0949 0.0000
# 3 32.6425 52.6540 105.6787 0.0000 21.3750 0.0000
# 4 0.0000 0.0000 0.0000 33.9494 0.0000 0.9392
# 5 27.3160 20.0949 21.3750 0.0000 33.9069 0.0000
# 6 0.0000 0.0000 0.0000 0.9392 0.0000 22.5998
#
#
#
# Elastic Compliance Matrix: (Units=1/GPa)
#
#
# Indices 1 2 3 4 5 6 
#
# 1 0.025967 -0.003220 -0.002947 0.000000 -0.017153 0.000000
# 2 -0.003220 0.019549 -0.007939 0.000000 -0.003987 0.000000
# 3 -0.002947 -0.007939 0.014782 0.000000 -0.002239 0.000000
# 4 0.000000 0.000000 0.000000 0.029490 0.000000 -0.001226
# 5 -0.017153 -0.003987 -0.002239 0.000000 0.047086 0.000000
# 6 0.000000 0.000000 0.000000 -0.001226 0.000000 0.044299
#
#
# Mechanical properties :
#
#
# Convention : Reuss Voigt Hill
#
# Bulk Modulus (GPa) = 31.16711 53.37165 42.26938
# Shear Modulus (GPa) = 22.71907 27.18446 24.95177
#
# Velocity S-wave (km/s) = 3.25945 3.56541 3.41586
# Velocity P-wave (km/s) = 5.36096 6.47360 5.94337
#
# Compressibility (1/GPa) = 0.03208510
#
# Stress axis : x y z
#
# Youngs Moduli (GPa) = 38.51106 51.15233 67.65179
#
# Poissons Ratio (x) = 0.16470 0.19937
# Poissons Ratio (y) = 0.12400 0.53712
# Poissons Ratio (z) = 0.11349 0.40612
#
# Static dielectric constant tensor:
#      x y z
#    x 1.849310 0.000000 -0.009160 
#    y 0.000000 1.702610 0.000000 
#    z -0.009160 0.000000 1.911340 
# 
# From -- ./inp_files/233973.got.cif
#   From: 2010.05.17/outbox.cif.g08.bks.cpg/sg15_117_cif.got.tgz:233973.got - 2010.06.03 18:47:42.
