data_PCOD9281943
_publ_section_title
;
Structure prediction by ZEFSAII (Michael W. Deem and Ramdas Pophale) SiO2 
 PCOD9281943
Probable space group: C 2/C
;
_chemical_formula_sum "Si O2"
_cell_formula_units_Z 48
_cell_length_a 9.631248
_cell_length_b 16.778509
_cell_length_c 14.806718
_cell_angle_alpha 90.000000
_cell_angle_beta 110.046654
_cell_angle_gamma 90.000000
_cell_volume 2247.769005
_symmetry_space_group_name_H-M "C 2/C"
_symmetry_group_IT_number 15
_symmetry_cell_setting 'monoclinic'
loop_
_space_group_symop_operation_xyz
x,y,z
-x,y,1/2-z
-x,-y,-z
x,-y,1/2+z
1/2+x,1/2+y,z
1/2-x,1/2+y,1/2-z
1/2-x,1/2-y,-z
1/2+x,1/2-y,1/2+z
loop_
_atom_site_type_symbol
_atom_site_label
_atom_site_fract_x
_atom_site_fract_y
_atom_site_fract_z
Si Si1 0.802872 0.265204 0.111103
Si Si2 0.661005 0.788402 0.750735
Si Si3 0.653985 0.942770 0.323645
Si Si4 0.646658 0.392928 0.807673
Si Si5 0.176845 0.504976 0.522120
Si Si6 0.324436 0.620674 0.690413
O O1 0.905648 0.190581 0.158899
O O2 0.867923 0.352220 0.142387
O O3 0.750000 0.250000 0.000000
O O4 0.833070 0.250462 0.849420
O O5 0.500000 0.807985 0.750000
O O6 0.759411 0.866624 0.758567
O O7 0.725398 0.713570 0.820053
O O8 0.500000 0.973617 0.250000
O O9 0.704572 0.992886 0.421714
O O10 0.757138 0.928737 0.259924
O O11 0.500000 0.440311 0.750000
O O12 0.749262 0.434102 0.903681
O O13 0.258868 0.580428 0.585812
O O14 0.000000 0.500000 0.500000
O O15 0.500000 0.624157 0.750000
#
# Coordination Sequence:
#
# PCOD9281943 Si02
#       6
#     8   8   8   8   8   8
#     4   9  17  33  62  91 117 157 213 260 302 365
#     4   8  18  37  63  88 123 161 202 253 317 364
#     4  11  20  38  64  88 120 169 210 251 313 369
#     4  10  21  38  66  94 123 160 211 264 303 368
#     4  12  24  39  62  96 126 163 214 257 310 382
#     4  10  22  40  63  89 129 166 203 262 317 370
#
# _framework density 21.354509
#
# number of rings (size 3 to 8) (size 9 to 14) (size 15 to 20)
#    1.000    1.000    3.333    1.000    0.000    0.667 
#    3.000    0.000    0.000    3.000    0.000    0.000 
#    0.000    0.000    0.000    0.000    0.000    0.000 
#
# Total GULP energy -133683.602911 kJ/mol
# GULP energy per Si atom -5570.150121 kJ/mol
# Density = 2.130590 g / cm^3
# Si number density = 21.354509 Si / 1000 Ang^3
#
#
#
# Elastic Constant Matrix: (Units=GPa)
#
#
# Indices 1 2 3 4 5 6 
#
# 1 94.4330 2.6645 40.8206 0.0000 6.9483 0.0000
# 2 2.6645 64.0040 37.6440 0.0000 3.5149 0.0000
# 3 40.8206 37.6440 128.5653 0.0000 20.6518 0.0000
# 4 0.0000 0.0000 0.0000 27.0065 0.0000 -2.7649
# 5 6.9483 3.5149 20.6518 0.0000 28.9191 0.0000
# 6 0.0000 0.0000 0.0000 -2.7649 0.0000 16.6069
#
#
#
# Elastic Compliance Matrix: (Units=1/GPa)
#
#
# Indices 1 2 3 4 5 6 
#
# 1 0.012524 0.002197 -0.004624 0.000000 0.000026 0.000000
# 2 0.002197 0.019349 -0.006665 0.000000 0.001880 0.000000
# 3 -0.004624 -0.006665 0.012300 0.000000 -0.006863 0.000000
# 4 0.000000 0.000000 0.000000 0.037670 0.000000 0.006272
# 5 0.000026 0.001880 -0.006863 0.000000 0.039245 0.000000
# 6 0.000000 0.000000 0.000000 0.006272 0.000000 0.061260
#
#
# Mechanical properties :
#
#
# Convention : Reuss Voigt Hill
#
# Bulk Modulus (GPa) = 38.47695 49.91784 44.19740
# Shear Modulus (GPa) = 23.90088 28.23139 26.06614
#
# Velocity S-wave (km/s) = 3.34914 3.63992 3.49755
# Velocity P-wave (km/s) = 5.74569 6.41030 6.08707
#
# Compressibility (1/GPa) = 0.02598958
#
# Stress axis : x y z
#
# Youngs Moduli (GPa) = 79.84379 51.68138 81.29939
#
# Poissons Ratio (x) = -0.11353 0.37593
# Poissons Ratio (y) = -0.17540 0.54186
# Poissons Ratio (z) = 0.36920 0.34446
#
# Static dielectric constant tensor:
#      x y z
#    x 1.790720 0.000000 -0.036740 
#    y 0.000000 1.889940 0.000000 
#    z -0.036740 0.000000 1.701060 
# 
# From -- ./inp_files/136185.got.cif
#   From: 2010.05.17/outbox.cif.g08.bks.cpg/sg15_69_cif.got.tgz:136185.got - 2010.06.03 18:47:42.
