data_PCOD9281606
_publ_section_title
;
Structure prediction by ZEFSAII (Michael W. Deem and Ramdas Pophale) SiO2 
 PCOD9281606
Probable space group: C 2/C
;
_chemical_formula_sum "Si O2"
_cell_formula_units_Z 40
_cell_length_a 14.151261
_cell_length_b 6.823695
_cell_length_c 17.826783
_cell_angle_alpha 90.000000
_cell_angle_beta 84.812678
_cell_angle_gamma 90.000000
_cell_volume 1714.373281
_symmetry_space_group_name_H-M "C 2/C"
_symmetry_group_IT_number 15
_symmetry_cell_setting 'monoclinic'
loop_
_space_group_symop_operation_xyz
x,y,z
-x,y,1/2-z
-x,-y,-z
x,-y,1/2+z
1/2+x,1/2+y,z
1/2-x,1/2+y,1/2-z
1/2-x,1/2-y,-z
1/2+x,1/2-y,1/2+z
loop_
_atom_site_type_symbol
_atom_site_label
_atom_site_fract_x
_atom_site_fract_y
_atom_site_fract_z
Si Si1 0.651177 0.678577 0.542442
Si Si2 0.617806 0.346500 0.657937
Si Si3 0.417304 0.387631 0.610854
Si Si4 0.797660 0.428123 0.829431
Si Si5 0.093563 0.196864 0.779864
O O1 0.750000 0.750000 0.500000
O O2 0.654856 0.469378 0.583631
O O3 0.580988 0.661504 0.477000
O O4 0.635962 0.829724 0.611431
O O5 0.507517 0.293329 0.646341
O O6 0.614167 0.501996 0.727079
O O7 0.681139 0.156814 0.666576
O O8 0.308498 0.352888 0.644818
O O9 0.424465 0.617257 0.635787
O O10 0.826571 0.351359 0.745606
O O11 0.000000 0.284715 0.750000
#
# Coordination Sequence:
#
# PCOD9281606 Si02
#       5
#     8   8   8   8   8
#     4   9  20  40  60  91 127 156 205 257 304 379
#     4  10  21  40  61  86 125 162 200 258 311 363
#     4  10  21  38  63  89 121 160 202 259 309 363
#     4  10  22  39  61  88 120 163 206 251 315 381
#     4   9  21  40  55  84 122 151 206 261 299 371
#
# _framework density 23.332141
#
# number of rings (size 3 to 8) (size 9 to 14) (size 15 to 20)
#    0.000    2.400    0.000    0.600    2.800    6.400 
#    0.000   14.000    0.000    0.000    0.000    0.000 
#    0.000    0.000    0.000    0.000    0.000    0.000 
#
# Total GULP energy -111487.359551 kJ/mol
# GULP energy per Si atom -5574.367978 kJ/mol
# Density = 2.327904 g / cm^3
# Si number density = 23.332141 Si / 1000 Ang^3
#
#
#
# Elastic Constant Matrix: (Units=GPa)
#
#
# Indices 1 2 3 4 5 6 
#
# 1 83.0121 19.8863 20.8368 0.0000 -6.0023 0.0000
# 2 19.8863 76.0256 22.2399 0.0000 5.8270 0.0000
# 3 20.8368 22.2399 84.4691 0.0000 11.3929 0.0000
# 4 0.0000 0.0000 0.0000 28.3449 0.0000 -6.6380
# 5 -6.0023 5.8270 11.3929 0.0000 34.3963 0.0000
# 6 0.0000 0.0000 0.0000 -6.6380 0.0000 14.5668
#
#
#
# Elastic Compliance Matrix: (Units=1/GPa)
#
#
# Indices 1 2 3 4 5 6 
#
# 1 0.013846 -0.003001 -0.003161 0.000000 0.003972 0.000000
# 2 -0.003001 0.014951 -0.002914 0.000000 -0.002091 0.000000
# 3 -0.003161 -0.002914 0.014020 0.000000 -0.004702 0.000000
# 4 0.000000 0.000000 0.000000 0.039494 0.000000 0.017997
# 5 0.003972 -0.002091 -0.004702 0.000000 0.031678 0.000000
# 6 0.000000 0.000000 0.000000 0.017997 0.000000 0.076851
#
#
# Mechanical properties :
#
#
# Convention : Reuss Voigt Hill
#
# Bulk Modulus (GPa) = 40.54465 41.04808 40.79637
# Shear Modulus (GPa) = 23.01873 27.49785 25.25829
#
# Velocity S-wave (km/s) = 3.14437 3.43671 3.29379
# Velocity P-wave (km/s) = 5.53152 5.77747 5.65583
#
# Compressibility (1/GPa) = 0.02466416
#
# Stress axis : x y z
#
# Youngs Moduli (GPa) = 72.22264 66.88370 71.32789
#
# Poissons Ratio (x) = 0.20075 0.22546
# Poissons Ratio (y) = 0.21678 0.20785
# Poissons Ratio (z) = 0.22829 0.19490
#
# Static dielectric constant tensor:
#      x y z
#    x 1.985060 0.000000 0.019000 
#    y 0.000000 1.852420 0.000000 
#    z 0.019000 0.000000 1.939840 
# 
# From -- ./inp_files/246261.got.cif
#   From: 2010.05.17/outbox.cif.g08.bks.cpg/sg15_124_cif.got.tgz:246261.got - 2010.06.03 18:47:42.
