data_PCOD9281147
_publ_section_title
;
Structure prediction by ZEFSAII (Michael W. Deem and Ramdas Pophale) SiO2 
 PCOD9281147
Probable space group: C 2/C
;
_chemical_formula_sum "Si O2"
_cell_formula_units_Z 52
_cell_length_a 21.228313
_cell_length_b 23.720813
_cell_length_c 5.221572
_cell_angle_alpha 90.000000
_cell_angle_beta 77.882146
_cell_angle_gamma 90.000000
_cell_volume 2570.750187
_symmetry_space_group_name_H-M "C 2/C"
_symmetry_group_IT_number 15
_symmetry_cell_setting 'monoclinic'
loop_
_space_group_symop_operation_xyz
x,y,z
-x,y,1/2-z
-x,-y,-z
x,-y,1/2+z
1/2+x,1/2+y,z
1/2-x,1/2+y,1/2-z
1/2-x,1/2-y,-z
1/2+x,1/2-y,1/2+z
loop_
_atom_site_type_symbol
_atom_site_label
_atom_site_fract_x
_atom_site_fract_y
_atom_site_fract_z
Si Si1 0.170591 0.190048 0.063275
Si Si2 0.571572 0.476586 0.985662
Si Si3 0.676430 0.823628 0.078557
Si Si4 0.500000 0.959573 0.750000
Si Si5 0.254604 0.464285 0.423114
Si Si6 0.631850 0.110234 0.110111
Si Si7 0.865620 0.128203 0.896828
O O1 0.245624 0.171846 0.963000
O O2 0.130196 0.159426 0.876035
O O3 0.165086 0.257200 0.046811
O O4 0.148248 0.170791 0.361805
O O5 0.602509 0.515034 0.181237
O O6 0.500000 0.500000 0.000000
O O7 0.576065 0.413169 0.077992
O O8 0.642033 0.847056 0.362899
O O9 0.651438 0.858303 0.855605
O O10 0.437439 0.919148 0.811768
O O11 0.500000 0.000000 0.500000
O O12 0.261847 0.488414 0.133577
O O13 0.183918 0.438521 0.516201
O O14 0.305607 0.414932 0.433091
#
# Coordination Sequence:
#
# PCOD9281147 Si02
#       7
#     8   8   8   4   8   8   8
#     4  11  22  38  63  95 128 160 209 257 330 378
#     4  10  21  38  59  82 117 164 212 248 300 367
#     4  11  22  41  64  93 127 166 202 267 323 381
#     4  12  26  46  68  94 126 178 218 258 312 394
#     4  12  22  34  54  88 125 157 196 257 307 369
#     4  12  23  42  65  91 127 169 211 256 323 378
#     4  12  21  37  59  93 126 163 207 255 318 376
#
# _framework density 20.227557999999998
#
# number of rings (size 3 to 8) (size 9 to 14) (size 15 to 20)
#    0.000    0.615    3.077    6.462    0.000    2.462 
#    0.000    0.000    0.000   18.462    0.000    0.000 
#    0.000    0.000    0.000    0.000    0.000    0.000 
#
# Total GULP energy -145418.280250 kJ/mol
# GULP energy per Si atom -5593.010779 kJ/mol
# Density = 2.018152 g / cm^3
# Si number density = 20.227558 Si / 1000 Ang^3
#
#
#
# Elastic Constant Matrix: (Units=GPa)
#
#
# Indices 1 2 3 4 5 6 
#
# 1 108.9220 46.8115 31.3640 0.0000 -9.6876 0.0000
# 2 46.8115 92.5013 43.6381 0.0000 8.1993 0.0000
# 3 31.3640 43.6381 125.9507 0.0000 13.1554 0.0000
# 4 0.0000 0.0000 0.0000 43.4669 0.0000 -4.5911
# 5 -9.6876 8.1993 13.1554 0.0000 23.8412 0.0000
# 6 0.0000 0.0000 0.0000 -4.5911 0.0000 29.5101
#
#
#
# Elastic Compliance Matrix: (Units=1/GPa)
#
#
# Indices 1 2 3 4 5 6 
#
# 1 0.013372 -0.006625 -0.001953 0.000000 0.008789 0.000000
# 2 -0.006625 0.016305 -0.003324 0.000000 -0.006465 0.000000
# 3 -0.001953 -0.003324 0.010124 0.000000 -0.005237 0.000000
# 4 0.000000 0.000000 0.000000 0.023390 0.000000 0.003639
# 5 0.008789 -0.006465 -0.005237 0.000000 0.050629 0.000000
# 6 0.000000 0.000000 0.000000 0.003639 0.000000 0.034453
#
#
# Mechanical properties :
#
#
# Convention : Reuss Voigt Hill
#
# Bulk Modulus (GPa) = 62.50824 63.44458 62.97641
# Shear Modulus (GPa) = 28.18342 33.06766 30.62554
#
# Velocity S-wave (km/s) = 3.73677 4.04763 3.89530
# Velocity P-wave (km/s) = 7.04184 7.29917 7.17166
#
# Compressibility (1/GPa) = 0.01599789
#
# Stress axis : x y z
#
# Youngs Moduli (GPa) = 74.78237 61.33247 98.77054
#
# Poissons Ratio (x) = 0.40633 0.19285
# Poissons Ratio (y) = 0.49544 0.32831
# Poissons Ratio (z) = 0.14602 0.20387
#
# Static dielectric constant tensor:
#      x y z
#    x 1.790100 0.000000 -0.045950 
#    y 0.000000 1.699820 0.000000 
#    z -0.045950 0.000000 1.775370 
# 
# From -- ./inp_files/13360.got.cif
#   From: 2010.05.17/outbox.cif.g08.bks.cpg/sg15_7_cif.got.tgz:13360.got - 2010.06.03 18:47:42.
