data_PCOD9281729
_publ_section_title
;
Structure prediction by ZEFSAII (Michael W. Deem and Ramdas Pophale) SiO2 
 PCOD9281729
Probable space group: C 2/C
;
_chemical_formula_sum "Si O2"
_cell_formula_units_Z 52
_cell_length_a 20.887013
_cell_length_b 14.541374
_cell_length_c 12.192197
_cell_angle_alpha 90.000000
_cell_angle_beta 33.668718
_cell_angle_gamma 90.000000
_cell_volume 2052.954076
_symmetry_space_group_name_H-M "C 2/C"
_symmetry_group_IT_number 15
_symmetry_cell_setting 'monoclinic'
loop_
_space_group_symop_operation_xyz
x,y,z
-x,y,1/2-z
-x,-y,-z
x,-y,1/2+z
1/2+x,1/2+y,z
1/2-x,1/2+y,1/2-z
1/2-x,1/2-y,-z
1/2+x,1/2-y,1/2+z
loop_
_atom_site_type_symbol
_atom_site_label
_atom_site_fract_x
_atom_site_fract_y
_atom_site_fract_z
Si Si1 0.564172 0.300623 0.823879
Si Si2 0.857896 0.114789 0.737014
Si Si3 0.193136 0.254297 0.332105
Si Si4 0.175479 0.497056 0.068087
Si Si5 0.000000 0.344609 0.250000
Si Si6 0.500000 0.844409 0.750000
Si Si7 0.000000 0.059772 0.250000
Si Si8 0.189954 0.928264 0.949952
O O1 0.669051 0.252681 0.737134
O O2 0.490647 0.221137 0.868692
O O3 0.583294 0.374556 0.700648
O O4 0.485957 0.360319 0.018556
O O5 0.782648 0.177338 0.761749
O O6 0.845438 0.128222 0.886706
O O7 0.791312 0.016701 0.831768
O O8 0.225868 0.151288 0.319311
O O9 0.070085 0.284651 0.561796
O O10 0.093667 0.586651 0.169520
O O11 0.107126 0.410237 0.123712
O O12 0.212068 0.503244 0.143384
O O13 0.083300 0.991428 0.065922
#
# Coordination Sequence:
#
# PCOD9281729 Si02
#       8
#     8   8   8   8   4   4   4   8
#     4  11  25  40  63  87 128 162 213 248 305 373
#     4   9  21  40  63  99 118 156 207 259 307 365
#     4  11  21  36  64  97 120 160 200 259 311 363
#     4   8  20  39  65  88 122 162 203 251 309 369
#     4  10  22  48  62  84 128 176 200 252 314 364
#     4   9  17  35  65  92 126 150 203 259 317 353
#     4  11  25  43  55  84 124 178 197 251 303 363
#     4  10  21  38  64  88 127 154 204 260 310 361
#
# _framework density 25.329353999999999
#
# number of rings (size 3 to 8) (size 9 to 14) (size 15 to 20)
#    0.923    1.231    0.000    2.769    2.154    4.923 
#    2.769   10.000    0.000    0.000    0.000    0.000 
#    0.000    0.000    0.000    0.000    0.000    0.000 
#
# Total GULP energy -145142.141662 kJ/mol
# GULP energy per Si atom -5582.390064 kJ/mol
# Density = 2.527170 g / cm^3
# Si number density = 25.329354 Si / 1000 Ang^3
#
#
#
# Elastic Constant Matrix: (Units=GPa)
#
#
# Indices 1 2 3 4 5 6 
#
# 1 104.6082 62.8701 -1.3504 0.0000 12.4186 0.0000
# 2 62.8701 119.0427 18.9263 0.0000 1.0276 0.0000
# 3 -1.3504 18.9263 49.6248 0.0000 -0.0682 0.0000
# 4 0.0000 0.0000 0.0000 8.3949 0.0000 2.3130
# 5 12.4186 1.0276 -0.0682 0.0000 27.6416 0.0000
# 6 0.0000 0.0000 0.0000 2.3130 0.0000 50.4024
#
#
#
# Elastic Compliance Matrix: (Units=1/GPa)
#
#
# Indices 1 2 3 4 5 6 
#
# 1 0.015726 -0.008851 0.003794 0.000000 -0.006727 0.000000
# 2 -0.008851 0.013927 -0.005548 0.000000 0.003445 0.000000
# 3 0.003794 -0.005548 0.022368 0.000000 -0.001443 0.000000
# 4 0.000000 0.000000 0.000000 0.120646 0.000000 -0.005536
# 5 -0.006727 0.003445 -0.001443 0.000000 0.039068 0.000000
# 6 0.000000 0.000000 0.000000 -0.005536 0.000000 0.020094
#
#
# Mechanical properties :
#
#
# Convention : Reuss Voigt Hill
#
# Bulk Modulus (GPa) = 32.45346 48.24087 40.34717
# Shear Modulus (GPa) = 18.98904 30.14307 24.56605
#
# Velocity S-wave (km/s) = 2.74101 3.45345 3.11764
# Velocity P-wave (km/s) = 4.78099 5.91511 5.37803
#
# Compressibility (1/GPa) = 0.03081336
#
# Stress axis : x y z
#
# Youngs Moduli (GPa) = 63.58713 71.80292 44.70604
#
# Poissons Ratio (x) = 0.63551 -0.16963
# Poissons Ratio (y) = 0.56280 0.24802
# Poissons Ratio (z) = -0.24127 0.39834
#
# Static dielectric constant tensor:
#      x y z
#    x 2.096230 0.000000 0.006240 
#    y 0.000000 1.948040 0.000000 
#    z 0.006240 0.000000 2.065500 
# 
# From -- ./inp_files/112684.got.cif
#   From: 2010.05.17/outbox.cif.g08.bks.cpg/sg15_57_cif.got.tgz:112684.got - 2010.06.03 18:47:42.
