data_PCOD9281784
_publ_section_title
;
Structure prediction by ZEFSAII (Michael W. Deem and Ramdas Pophale) SiO2 
 PCOD9281784
Probable space group: C 2/C
;
_chemical_formula_sum "Si O2"
_cell_formula_units_Z 40
_cell_length_a 25.869232
_cell_length_b 7.856983
_cell_length_c 18.419395
_cell_angle_alpha 90.000000
_cell_angle_beta 146.930368
_cell_angle_gamma 90.000000
_cell_volume 2042.843693
_symmetry_space_group_name_H-M "C 2/C"
_symmetry_group_IT_number 15
_symmetry_cell_setting 'monoclinic'
loop_
_space_group_symop_operation_xyz
x,y,z
-x,y,1/2-z
-x,-y,-z
x,-y,1/2+z
1/2+x,1/2+y,z
1/2-x,1/2+y,1/2-z
1/2-x,1/2-y,-z
1/2+x,1/2-y,1/2+z
loop_
_atom_site_type_symbol
_atom_site_label
_atom_site_fract_x
_atom_site_fract_y
_atom_site_fract_z
Si Si1 0.901847 0.992968 0.609936
Si Si2 0.602693 0.020542 0.081032
Si Si3 0.773178 0.788777 0.342982
Si Si4 0.265752 0.418106 0.568563
Si Si5 0.086112 0.385372 0.900025
O O1 0.917635 0.181976 0.598591
O O2 0.000000 0.907204 0.750000
O O3 0.841253 0.891883 0.478845
O O4 0.848927 0.010850 0.624557
O O5 0.657687 0.202773 0.135816
O O6 0.686308 0.900896 0.211460
O O7 0.500000 0.000000 0.000000
O O8 0.583020 0.964783 0.975582
O O9 0.724659 0.645510 0.337596
O O10 0.250000 0.250000 0.500000
O O11 0.178547 0.546058 0.468477
O O12 0.000000 0.444931 0.750000
#
# Coordination Sequence:
#
# PCOD9281784 Si02
#       5
#     8   8   8   8   8
#     4  10  21  38  64  94 127 164 213 270 324 384
#     4  11  25  43  67  94 133 176 213 272 331 386
#     4  10  23  42  62  94 130 167 223 263 326 401
#     4   9  20  35  62  87 124 161 205 267 314 378
#     4  10  22  40  62  94 124 166 218 260 327 388
#
# _framework density 19.580549999999999
#
# number of rings (size 3 to 8) (size 9 to 14) (size 15 to 20)
#    0.000    2.000    0.000    1.800    8.400    5.600 
#   14.400    2.000    0.000    0.000    0.000    0.000 
#    0.000    0.000    0.000    0.000    0.000    0.000 
#
# Total GULP energy -111394.468733 kJ/mol
# GULP energy per Si atom -5569.723437 kJ/mol
# Density = 1.953598 g / cm^3
# Si number density = 19.580550 Si / 1000 Ang^3
#
#
#
# Elastic Constant Matrix: (Units=GPa)
#
#
# Indices 1 2 3 4 5 6 
#
# 1 116.8112 10.9176 61.3589 0.0000 32.3410 0.0000
# 2 10.9176 52.4535 36.7200 0.0000 2.9753 0.0000
# 3 61.3589 36.7200 168.6036 0.0000 11.0476 0.0000
# 4 0.0000 0.0000 0.0000 28.9586 0.0000 1.8592
# 5 32.3410 2.9753 11.0476 0.0000 29.3291 0.0000
# 6 0.0000 0.0000 0.0000 1.8592 0.0000 37.2089
#
#
#
# Elastic Compliance Matrix: (Units=1/GPa)
#
#
# Indices 1 2 3 4 5 6 
#
# 1 0.015097 0.001022 -0.004736 0.000000 -0.014967 0.000000
# 2 0.001022 0.022569 -0.005192 0.000000 -0.001461 0.000000
# 3 -0.004736 -0.005192 0.008621 0.000000 0.002502 0.000000
# 4 0.000000 0.000000 0.000000 0.034643 0.000000 -0.001731
# 5 -0.014967 -0.001461 0.002502 0.000000 0.049806 0.000000
# 6 0.000000 0.000000 0.000000 -0.001731 0.000000 0.026962
#
#
# Mechanical properties :
#
#
# Convention : Reuss Voigt Hill
#
# Bulk Modulus (GPa) = 35.11672 61.76234 48.43953
# Shear Modulus (GPa) = 27.02691 34.35744 30.69218
#
# Velocity S-wave (km/s) = 3.71926 4.19342 3.96344
# Velocity P-wave (km/s) = 6.03467 7.42008 6.76295
#
# Compressibility (1/GPa) = 0.02847647
#
# Stress axis : x y z
#
# Youngs Moduli (GPa) = 66.23884 44.30868 115.99085
#
# Poissons Ratio (x) = -0.04529 0.54934
# Poissons Ratio (y) = -0.06771 0.60217
# Poissons Ratio (z) = 0.31371 0.23003
#
# Static dielectric constant tensor:
#      x y z
#    x 1.676060 0.000000 0.010530 
#    y 0.000000 1.711260 0.000000 
#    z 0.010530 0.000000 1.679130 
# 
# From -- ./inp_files/109552.got.cif
#   From: 2010.05.17/outbox.cif.g08.bks.cpg/sg15_55_cif.got.tgz:109552.got - 2010.06.03 18:47:42.
