data_PCOD9281610
_publ_section_title
;
Structure prediction by ZEFSAII (Michael W. Deem and Ramdas Pophale) SiO2 
 PCOD9281610
Probable space group: C 2/C
;
_chemical_formula_sum "Si O2"
_cell_formula_units_Z 56
_cell_length_a 9.382865
_cell_length_b 15.086575
_cell_length_c 24.764947
_cell_angle_alpha 90.000000
_cell_angle_beta 131.572636
_cell_angle_gamma 90.000000
_cell_volume 2622.599307
_symmetry_space_group_name_H-M "C 2/C"
_symmetry_group_IT_number 15
_symmetry_cell_setting 'monoclinic'
loop_
_space_group_symop_operation_xyz
x,y,z
-x,y,1/2-z
-x,-y,-z
x,-y,1/2+z
1/2+x,1/2+y,z
1/2-x,1/2+y,1/2-z
1/2-x,1/2-y,-z
1/2+x,1/2-y,1/2+z
loop_
_atom_site_type_symbol
_atom_site_label
_atom_site_fract_x
_atom_site_fract_y
_atom_site_fract_z
Si Si1 0.901881 0.314437 0.462280
Si Si2 0.531594 0.953175 0.322412
Si Si3 0.583370 0.516889 0.078987
Si Si4 0.653083 0.236202 0.834986
Si Si5 0.789665 0.929966 0.171935
Si Si6 0.533899 0.674541 0.940181
Si Si7 0.795372 0.907875 0.587751
O O1 0.797741 0.342875 0.380539
O O2 0.744012 0.331476 0.468979
O O3 0.960103 0.213852 0.496516
O O4 0.086048 0.377715 0.514654
O O5 0.500000 0.953469 0.250000
O O6 0.691414 0.028612 0.371018
O O7 0.616438 0.855291 0.358142
O O8 0.347544 0.961045 0.313553
O O9 0.554311 0.419958 0.097597
O O10 0.444567 0.577496 0.077561
O O11 0.500000 0.500000 0.000000
O O12 0.500000 0.235041 0.750000
O O13 0.623979 0.323887 0.860768
O O14 0.875458 0.238200 0.873212
O O15 0.000000 0.916231 0.250000
O O16 0.788302 0.007396 0.125857
#
# Coordination Sequence:
#
# PCOD9281610 Si02
#       7
#     8   8   8   8   8   8   8
#     4  10  21  38  63  89 123 160 211 252 306 365
#     4  10  23  41  60  85 123 166 202 249 313 378
#     4  11  22  37  63  89 124 160 200 256 311 367
#     4   9  20  38  63  85 122 165 205 247 314 371
#     4  12  24  37  65  94 123 159 211 263 312 370
#     4   9  20  38  60  89 121 165 200 255 303 373
#     4  11  22  39  64  95 122 160 211 259 310 368
#
# _framework density 21.352861999999998
#
# number of rings (size 3 to 8) (size 9 to 14) (size 15 to 20)
#    0.000    1.714    1.429    2.571    6.000    1.143 
#    0.000    4.286    0.000    0.857    0.000    0.000 
#    0.000    0.000    0.000    0.000    0.000    0.000 
#
# Total GULP energy -155883.528850 kJ/mol
# GULP energy per Si atom -5567.268888 kJ/mol
# Density = 2.130426 g / cm^3
# Si number density = 21.352862 Si / 1000 Ang^3
#
#
#
# Elastic Constant Matrix: (Units=GPa)
#
#
# Indices 1 2 3 4 5 6 
#
# 1 155.1498 24.0085 62.9161 0.0000 16.1106 0.0000
# 2 24.0085 28.7825 9.9607 0.0000 5.7704 0.0000
# 3 62.9161 9.9607 121.9675 0.0000 22.2786 0.0000
# 4 0.0000 0.0000 0.0000 29.3027 0.0000 2.3367
# 5 16.1106 5.7704 22.2786 0.0000 33.6436 0.0000
# 6 0.0000 0.0000 0.0000 2.3367 0.0000 25.5561
#
#
#
# Elastic Compliance Matrix: (Units=1/GPa)
#
#
# Indices 1 2 3 4 5 6 
#
# 1 0.009105 -0.006056 -0.004090 0.000000 -0.000613 0.000000
# 2 -0.006056 0.040470 0.000634 0.000000 -0.004461 0.000000
# 3 -0.004090 0.000634 0.011284 0.000000 -0.005622 0.000000
# 4 0.000000 0.000000 0.000000 0.034377 0.000000 -0.003143
# 5 -0.000613 -0.004461 -0.005622 0.000000 0.034505 0.000000
# 6 0.000000 0.000000 0.000000 -0.003143 0.000000 0.039417
#
#
# Mechanical properties :
#
#
# Convention : Reuss Voigt Hill
#
# Bulk Modulus (GPa) = 23.90418 55.51894 39.71156
# Shear Modulus (GPa) = 24.73684 31.63479 28.18581
#
# Velocity S-wave (km/s) = 3.40734 3.85323 3.63712
# Velocity P-wave (km/s) = 5.16711 6.77154 6.02299
#
# Compressibility (1/GPa) = 0.04183368
#
# Stress axis : x y z
#
# Youngs Moduli (GPa) = 109.83206 24.70961 88.62122
#
# Poissons Ratio (x) = 0.14965 0.36247
# Poissons Ratio (y) = 0.66518 -0.05617
# Poissons Ratio (z) = 0.44923 -0.01566
#
# Static dielectric constant tensor:
#      x y z
#    x 1.858730 0.000000 0.016090 
#    y 0.000000 1.772230 0.000000 
#    z 0.016090 0.000000 1.839010 
# 
# From -- ./inp_files/265593.got.cif
#   From: 2010.05.17/outbox.cif.g08.bks.cpg/sg15_133_cif.got.tgz:265593.got - 2010.06.03 18:47:42.
