data_PCOD9281195
_publ_section_title
;
Structure prediction by ZEFSAII (Michael W. Deem and Ramdas Pophale) SiO2 
 PCOD9281195
Probable space group: C 2/C
;
_chemical_formula_sum "Si O2"
_cell_formula_units_Z 64
_cell_length_a 17.098105
_cell_length_b 23.430098
_cell_length_c 15.116504
_cell_angle_alpha 90.000000
_cell_angle_beta 27.910681
_cell_angle_gamma 90.000000
_cell_volume 2834.699577
_symmetry_space_group_name_H-M "C 2/C"
_symmetry_group_IT_number 15
_symmetry_cell_setting 'monoclinic'
loop_
_space_group_symop_operation_xyz
x,y,z
-x,y,1/2-z
-x,-y,-z
x,-y,1/2+z
1/2+x,1/2+y,z
1/2-x,1/2+y,1/2-z
1/2-x,1/2-y,-z
1/2+x,1/2-y,1/2+z
loop_
_atom_site_type_symbol
_atom_site_label
_atom_site_fract_x
_atom_site_fract_y
_atom_site_fract_z
Si Si1 0.024776 0.219227 0.531798
Si Si2 0.186691 0.433263 0.729187
Si Si3 0.675762 0.650468 0.632224
Si Si4 0.358453 0.814603 0.796632
Si Si5 0.178752 0.534076 0.936654
Si Si6 0.698424 0.569828 0.065963
Si Si7 0.331672 0.456559 0.088162
Si Si8 0.141941 0.870252 0.784662
O O1 0.879625 0.181596 0.722169
O O2 0.980026 0.283700 0.604816
O O3 0.184973 0.204817 0.428434
O O4 0.072201 0.190448 0.390165
O O5 0.147060 0.382496 0.702633
O O6 0.339110 0.475869 0.554327
O O7 0.224882 0.398562 0.780964
O O8 0.017339 0.468456 0.889702
O O9 0.500000 0.645614 0.750000
O O10 0.819001 0.690016 0.441191
O O11 0.755127 0.590319 0.579312
O O12 0.226575 0.480822 0.950196
O O13 0.259272 0.536813 0.758647
O O14 0.500000 0.558021 0.250000
O O15 0.707484 0.625858 0.118810
O O16 0.765811 0.571077 0.898327
O O17 0.492141 0.416607 0.938125
#
# Coordination Sequence:
#
# PCOD9281195 Si02
#       8
#     8   8   8   8   8   8   8   8
#     4  10  21  39  61  86 121 168 207 262 307 377
#     4  11  24  39  58  94 128 170 205 264 316 377
#     4  10  21  38  59  89 124 168 210 255 307 380
#     4  10  23  38  60  88 126 160 220 251 312 373
#     4  12  23  39  61  89 137 165 209 258 320 376
#     4  10  23  36  61  94 120 169 214 257 305 382
#     4  11  22  39  65  87 126 172 206 250 319 381
#     4  10  21  41  62  86 126 167 216 256 313 379
#
# _framework density 22.577348000000001
#
# number of rings (size 3 to 8) (size 9 to 14) (size 15 to 20)
#    0.000    1.500    2.500    2.250    3.500    2.000 
#    0.000    0.000    0.000    0.000    0.000   42.875 
#    0.000    0.000    0.000    0.000    0.000    0.000 
#
# Total GULP energy -178143.773554 kJ/mol
# GULP energy per Si atom -5566.992924 kJ/mol
# Density = 2.252596 g / cm^3
# Si number density = 22.577348 Si / 1000 Ang^3
#
#
#
# Elastic Constant Matrix: (Units=GPa)
#
#
# Indices 1 2 3 4 5 6 
#
# 1 115.7008 24.4639 35.3407 0.0112 31.4096 -0.0476
# 2 24.4639 83.2917 9.6184 0.0251 15.1052 -0.0667
# 3 35.3407 9.6184 43.0572 -0.0387 10.0554 0.0263
# 4 0.0112 0.0251 -0.0387 20.7254 0.0001 2.7750
# 5 31.4096 15.1052 10.0554 0.0001 33.4633 0.0258
# 6 -0.0476 -0.0667 0.0263 2.7750 0.0258 32.9793
#
#
#
# Elastic Compliance Matrix: (Units=1/GPa)
#
#
# Indices 1 2 3 4 5 6 
#
# 1 0.014532 -0.001341 -0.009232 -0.000028 -0.010261 0.000036
# 2 -0.001341 0.013311 -0.000821 -0.000021 -0.004503 0.000031
# 3 -0.009232 -0.000821 0.031055 0.000070 -0.000296 -0.000045
# 4 -0.000028 -0.000021 0.000070 0.048800 0.000018 -0.004106
# 5 -0.010261 -0.004503 -0.000296 0.000018 0.041636 -0.000058
# 6 0.000036 0.000031 -0.000045 -0.004106 -0.000058 0.030668
#
#
# Mechanical properties :
#
#
# Convention : Reuss Voigt Hill
#
# Bulk Modulus (GPa) = 27.69330 42.32174 35.00752
# Shear Modulus (GPa) = 23.27457 28.94205 26.10831
#
# Velocity S-wave (km/s) = 3.21422 3.58426 3.40427
# Velocity P-wave (km/s) = 5.10564 5.99292 5.56698
#
# Compressibility (1/GPa) = 0.03610981
#
# Stress axis : x y z
#
# Youngs Moduli (GPa) = 68.81411 75.12328 32.20114
#
# Poissons Ratio (x) = 0.10077 0.29727
# Poissons Ratio (y) = 0.09230 0.02644
# Poissons Ratio (z) = 0.63527 0.06168
#
# Static dielectric constant tensor:
#      x y z
#    x 1.938100 0.000040 0.081610 
#    y 0.000040 1.954160 0.000120 
#    z 0.081610 0.000120 2.040940 
# 
# From -- ./inp_files/164227.got.cif
#   From: 2010.05.17/outbox.cif.g08.bks.cpg/sg15_83_cif.got.tgz:164227.got - 2010.06.03 18:47:42.
