data_PCOD9281806
_publ_section_title
;
Structure prediction by ZEFSAII (Michael W. Deem and Ramdas Pophale) SiO2 
 PCOD9281806
Probable space group: C 2/C
;
_chemical_formula_sum "Si O2"
_cell_formula_units_Z 52
_cell_length_a 6.973091
_cell_length_b 12.817150
_cell_length_c 23.619575
_cell_angle_alpha 90.000000
_cell_angle_beta 124.074384
_cell_angle_gamma 90.000000
_cell_volume 1748.566917
_symmetry_space_group_name_H-M "C 2/C"
_symmetry_group_IT_number 15
_symmetry_cell_setting 'monoclinic'
loop_
_space_group_symop_operation_xyz
x,y,z
-x,y,1/2-z
-x,-y,-z
x,-y,1/2+z
1/2+x,1/2+y,z
1/2-x,1/2+y,1/2-z
1/2-x,1/2-y,-z
1/2+x,1/2-y,1/2+z
loop_
_atom_site_type_symbol
_atom_site_label
_atom_site_fract_x
_atom_site_fract_y
_atom_site_fract_z
Si Si1 0.703042 0.334809 0.597779
Si Si2 0.000000 0.500000 0.000000
Si Si3 0.500000 0.858586 0.250000
Si Si4 0.177846 0.829293 0.719719
Si Si5 0.766553 0.294694 0.925837
Si Si6 0.215151 0.889488 0.394975
Si Si7 0.500000 0.487445 0.250000
Si Si8 0.320810 0.934071 0.100245
O O1 0.797009 0.333834 0.678755
O O2 0.434881 0.303387 0.559913
O O3 0.815682 0.229271 0.593219
O O4 0.736007 0.449034 0.580276
O O5 0.038896 0.620690 0.032807
O O6 0.286381 0.474746 0.056835
O O7 0.308161 0.779273 0.244997
O O8 0.411877 0.920001 0.180294
O O9 0.901869 0.825582 0.655001
O O10 0.196035 0.933836 0.758584
O O11 0.823655 0.172434 0.928961
O O12 0.483479 0.923192 0.418194
O O13 0.080142 0.921621 0.316731
#
# Coordination Sequence:
#
# PCOD9281806 Si02
#       8
#     8   4   4   8   8   8   4   8
#     4   9  20  40  59  99 128 163 213 273 323 400
#     4  12  22  46  68  84 132 182 218 278 344 388
#     4   9  16  33  58  94 128 161 217 250 332 408
#     4   8  17  36  60  84 126 161 199 262 321 381
#     4   8  19  40  61  89 115 169 214 260 327 391
#     4  11  24  41  63  95 129 173 221 270 336 394
#     4  11  20  39  60  92 130 159 211 268 326 394
#     4  10  21  38  64  97 125 176 216 270 334 399
#
# _framework density 29.73864
#
# number of rings (size 3 to 8) (size 9 to 14) (size 15 to 20)
#    0.923    1.538    3.077    0.000    2.154    3.077 
#    0.000    7.692    0.000    0.000    0.000    0.000 
#    0.000    0.000    0.000    0.000    0.000    0.000 
#
# Total GULP energy -145096.813291 kJ/mol
# GULP energy per Si atom -5580.646665 kJ/mol
# Density = 2.967095 g / cm^3
# Si number density = 29.738640 Si / 1000 Ang^3
#
#
#
# Elastic Constant Matrix: (Units=GPa)
#
#
# Indices 1 2 3 4 5 6 
#
# 1 105.5661 60.6306 4.4507 0.0000 -15.7793 0.0000
# 2 60.6306 325.7982 62.9397 0.0000 6.5431 0.0000
# 3 4.4507 62.9397 148.4262 0.0000 -8.0491 0.0000
# 4 0.0000 0.0000 0.0000 37.1636 0.0000 14.3136
# 5 -15.7793 6.5431 -8.0491 0.0000 31.1768 0.0000
# 6 0.0000 0.0000 0.0000 14.3136 0.0000 45.0020
#
#
#
# Elastic Compliance Matrix: (Units=1/GPa)
#
#
# Indices 1 2 3 4 5 6 
#
# 1 0.011929 -0.002571 0.001105 0.000000 0.006862 0.000000
# 2 -0.002571 0.003934 -0.001731 0.000000 -0.002574 0.000000
# 3 0.001105 -0.001731 0.007594 0.000000 0.002883 0.000000
# 4 0.000000 0.000000 0.000000 0.030665 0.000000 -0.009753
# 5 0.006862 -0.002574 0.002883 0.000000 0.036833 0.000000
# 6 0.000000 0.000000 0.000000 -0.009753 0.000000 0.025323
#
#
# Mechanical properties :
#
#
# Convention : Reuss Voigt Hill
#
# Bulk Modulus (GPa) = 58.60692 92.87025 75.73859
# Shear Modulus (GPa) = 38.95316 52.78645 45.86980
#
# Velocity S-wave (km/s) = 3.62311 4.21766 3.93164
# Velocity P-wave (km/s) = 6.10350 7.41720 6.79218
#
# Compressibility (1/GPa) = 0.01706283
#
# Stress axis : x y z
#
# Youngs Moduli (GPa) = 83.83245 254.20138 131.67521
#
# Poissons Ratio (x) = 0.65358 -0.14546
# Poissons Ratio (y) = 0.21554 0.22788
# Poissons Ratio (z) = -0.09261 0.43993
#
# Static dielectric constant tensor:
#      x y z
#    x 2.330800 0.000000 0.269100 
#    y 0.000000 1.815150 0.000000 
#    z 0.269100 0.000000 2.126900 
# 
# From -- ./inp_files/310855.got.cif
#   From: 2010.05.17/outbox.cif.g08.bks.cpg/sg15_156_cif.got.tgz:310855.got - 2010.06.03 18:47:42.
