data_PCOD9281193
_publ_section_title
;
Structure prediction by ZEFSAII (Michael W. Deem and Ramdas Pophale) SiO2 
 PCOD9281193
Probable space group: C 2/C
;
_chemical_formula_sum "Si O2"
_cell_formula_units_Z 60
_cell_length_a 9.448455
_cell_length_b 24.305158
_cell_length_c 20.476576
_cell_angle_alpha 90.000000
_cell_angle_beta 37.665072
_cell_angle_gamma 90.000000
_cell_volume 2873.356340
_symmetry_space_group_name_H-M "C 2/C"
_symmetry_group_IT_number 15
_symmetry_cell_setting 'monoclinic'
loop_
_space_group_symop_operation_xyz
x,y,z
-x,y,1/2-z
-x,-y,-z
x,-y,1/2+z
1/2+x,1/2+y,z
1/2-x,1/2+y,1/2-z
1/2-x,1/2-y,-z
1/2+x,1/2-y,1/2+z
loop_
_atom_site_type_symbol
_atom_site_label
_atom_site_fract_x
_atom_site_fract_y
_atom_site_fract_z
Si Si1 0.608716 0.080321 0.914097
Si Si2 0.171356 0.226625 0.959153
Si Si3 0.467666 0.445855 0.553147
Si Si4 0.563843 0.167625 0.412644
Si Si5 0.063329 0.618640 0.653937
Si Si6 0.823167 0.986613 0.903315
Si Si7 0.197018 0.340196 0.625470
Si Si8 0.000000 0.894425 0.750000
O O1 0.619560 0.106192 0.837595
O O2 0.813613 0.046263 0.874639
O O3 0.530643 0.128059 0.993782
O O4 0.421701 0.029594 0.973765
O O5 0.130299 0.275313 0.922676
O O6 0.366541 0.182585 0.867661
O O7 0.250000 0.250000 0.000000
O O8 0.927596 0.194724 0.055050
O O9 0.500000 0.500000 0.500000
O O10 0.699471 0.410032 0.457062
O O11 0.466996 0.471354 0.625681
O O12 0.262084 0.404825 0.610264
O O13 0.384160 0.170633 0.418987
O O14 0.801901 0.144244 0.293092
O O15 0.000000 0.599279 0.750000
O O16 0.845739 0.937388 0.844914
O O17 0.000000 0.326192 0.750000
#
# Coordination Sequence:
#
# PCOD9281193 Si02
#       8
#     8   8   8   8   8   8   8   4
#     4   9  18  36  59  85 122 172 208 264 325 395
#     4  11  24  43  69  91 131 177 224 282 343 405
#     4  10  21  38  59  88 131 172 209 262 333 396
#     4  11  22  40  65  92 132 172 224 271 342 390
#     4  10  22  38  60  94 126 168 225 275 335 396
#     4   9  18  34  57  85 123 158 213 254 317 390
#     4  11  25  41  65  99 135 169 225 283 335 399
#     4  10  22  34  64  98 118 162 220 268 320 400
#
# _framework density 20.881502999999999
#
# number of rings (size 3 to 8) (size 9 to 14) (size 15 to 20)
#    0.000    1.867    1.333    2.000    4.667    2.667 
#    0.000    0.000    1.467    0.000    0.000    0.000 
#    0.000    0.000    0.000    0.000    0.000    0.000 
#
# Total GULP energy -167025.887537 kJ/mol
# GULP energy per Si atom -5567.529585 kJ/mol
# Density = 2.083398 g / cm^3
# Si number density = 20.881503 Si / 1000 Ang^3
#
#
#
# Elastic Constant Matrix: (Units=GPa)
#
#
# Indices 1 2 3 4 5 6 
#
# 1 119.9661 61.3336 18.4615 -0.0057 14.1898 -0.0033
# 2 61.3336 132.9975 17.3353 -0.0001 3.3371 -0.0001
# 3 18.4615 17.3353 42.5993 0.0377 7.6954 0.0214
# 4 -0.0057 -0.0001 0.0377 -637.8995 -0.0072 -364.6754
# 5 14.1898 3.3371 7.6954 -0.0072 26.1174 -0.0043
# 6 -0.0033 -0.0001 0.0214 -364.6754 -0.0043 -166.4842
#
#
#
# Elastic Compliance Matrix: (Units=1/GPa)
#
#
# Indices 1 2 3 4 5 6 
#
# 1 0.011866 -0.005062 -0.002149 0.000000 -0.005167 0.000000
# 2 -0.005062 0.010100 -0.002302 0.000000 0.002138 0.000000
# 3 -0.002149 -0.002302 0.026489 0.000002 -0.006343 0.000000
# 4 0.000000 0.000000 0.000002 0.006215 -0.000001 -0.013613
# 5 -0.005167 0.002138 -0.006343 -0.000001 0.042692 0.000000
# 6 0.000000 0.000000 0.000000 -0.013613 0.000000 0.023813
#
#
# Mechanical properties :
#
#
# Convention : Reuss Voigt Hill
#
# Bulk Modulus (GPa) = 33.98242 54.42485 44.20363
# Shear Modulus (GPa) = 33.33115 -142.42443 -54.54664
#
# Velocity S-wave (km/s) = 3.99959 -8.26765 -5.11651
# Velocity P-wave (km/s) = 6.13500 8.06341 3.70002
#
# Compressibility (1/GPa) = 0.02942698
#
# Stress axis : x y z
#
# Youngs Moduli (GPa) = 84.27701 99.01056 37.75199
#
# Poissons Ratio (x) = 0.50122 0.08112
# Poissons Ratio (y) = 0.42663 0.08692
# Poissons Ratio (z) = 0.18110 0.22797
#
# Static dielectric constant tensor:
#      x y z
#    x 1.840110 0.000000 -0.099710 
#    y 0.000000 1.733430 0.000000 
#    z -0.099710 0.000000 1.821110 
# 
# From -- ./inp_files/234546.got.cif
#   From: 2010.05.17/outbox.cif.g08.bks.cpg/sg15_118_cif.got.tgz:234546.got - 2010.06.03 18:47:42.
