data_PCOD9281819
_publ_section_title
;
Structure prediction by ZEFSAII (Michael W. Deem and Ramdas Pophale) SiO2 
 PCOD9281819
Probable space group: C 2/C
;
_chemical_formula_sum "Si O2"
_cell_formula_units_Z 44
_cell_length_a 11.146813
_cell_length_b 22.863026
_cell_length_c 9.438722
_cell_angle_alpha 90.000000
_cell_angle_beta 115.901560
_cell_angle_gamma 90.000000
_cell_volume 2163.819061
_symmetry_space_group_name_H-M "C 2/C"
_symmetry_group_IT_number 15
_symmetry_cell_setting 'monoclinic'
loop_
_space_group_symop_operation_xyz
x,y,z
-x,y,1/2-z
-x,-y,-z
x,-y,1/2+z
1/2+x,1/2+y,z
1/2-x,1/2+y,1/2-z
1/2-x,1/2-y,-z
1/2+x,1/2-y,1/2+z
loop_
_atom_site_type_symbol
_atom_site_label
_atom_site_fract_x
_atom_site_fract_y
_atom_site_fract_z
Si Si1 0.160859 0.030982 0.340177
Si Si2 0.136881 0.681467 0.375639
Si Si3 0.778780 0.283023 0.285772
Si Si4 0.390394 0.624310 0.964513
Si Si5 0.166996 0.074666 0.033180
Si Si6 0.000000 0.213736 0.250000
O O1 0.189635 0.082295 0.468832
O O2 0.203775 0.045864 0.203721
O O3 0.000000 0.030617 0.250000
O O4 0.204890 0.969581 0.427977
O O5 0.127429 0.702484 0.532181
O O6 0.173918 0.736209 0.294659
O O7 0.256755 0.635573 0.435125
O O8 0.000000 0.654729 0.250000
O O9 0.702917 0.339679 0.188719
O O10 0.871079 0.252722 0.216378
O O11 0.507573 0.586880 0.950690
O O12 0.467576 0.671600 0.101650
#
# Coordination Sequence:
#
# PCOD9281819 Si02
#       6
#     8   8   8   8   8   4
#     4  10  21  38  64  99 125 161 215 274 322 373
#     4  11  25  44  60  91 133 171 216 263 323 386
#     4  11  25  38  67  94 127 174 214 260 323 398
#     4  11  20  38  65  96 129 162 212 270 326 373
#     4  11  23  41  66  94 131 168 214 273 322 377
#     4  12  20  42  58  98 134 168 204 266 324 386
#
# _framework density 20.334416999999998
#
# number of rings (size 3 to 8) (size 9 to 14) (size 15 to 20)
#    0.000    1.091    4.545    3.818    7.636    1.455 
#    0.000    0.909    2.000    0.000    0.000    0.000 
#    0.000    0.000    0.000    0.000    0.000    0.000 
#
# Total GULP energy -123007.077012 kJ/mol
# GULP energy per Si atom -5591.230773 kJ/mol
# Density = 2.028814 g / cm^3
# Si number density = 20.334417 Si / 1000 Ang^3
#
#
#
# Elastic Constant Matrix: (Units=GPa)
#
#
# Indices 1 2 3 4 5 6 
#
# 1 14.8492 3.8925 12.1495 0.0000 0.3455 0.0000
# 2 3.8925 87.2823 35.9508 0.0000 -6.6532 0.0000
# 3 12.1495 35.9508 63.8895 0.0000 -0.0876 0.0000
# 4 0.0000 0.0000 0.0000 53.0848 0.0000 -0.3581
# 5 0.3455 -6.6532 -0.0876 0.0000 20.8207 0.0000
# 6 0.0000 0.0000 0.0000 -0.3581 0.0000 10.3121
#
#
#
# Elastic Compliance Matrix: (Units=1/GPa)
#
#
# Indices 1 2 3 4 5 6 
#
# 1 0.080585 0.003510 -0.017300 0.000000 -0.000289 0.000000
# 2 0.003510 0.015547 -0.009409 0.000000 0.004870 0.000000
# 3 -0.017300 -0.009409 0.024233 0.000000 -0.002618 0.000000
# 4 0.000000 0.000000 0.000000 0.018842 0.000000 0.000654
# 5 -0.000289 0.004870 -0.002618 0.000000 0.049579 0.000000
# 6 0.000000 0.000000 0.000000 0.000654 0.000000 0.096996
#
#
# Mechanical properties :
#
#
# Convention : Reuss Voigt Hill
#
# Bulk Modulus (GPa) = 13.51965 30.00072 21.76019
# Shear Modulus (GPa) = 14.01205 24.44542 19.22873
#
# Velocity S-wave (km/s) = 2.62788 3.47099 3.07844
# Velocity P-wave (km/s) = 3.98381 5.55423 4.83323
#
# Compressibility (1/GPa) = 0.07396642
#
# Stress axis : x y z
#
# Youngs Moduli (GPa) = 12.40933 64.31942 41.26636
#
# Poissons Ratio (x) = -0.22574 0.71389
# Poissons Ratio (y) = -0.04355 0.38829
# Poissons Ratio (z) = 0.21468 0.60520
#
# Static dielectric constant tensor:
#      x y z
#    x 1.690000 0.000000 -0.013390 
#    y 0.000000 1.728150 0.000000 
#    z -0.013390 0.000000 1.738710 
# 
# From -- ./inp_files/30747.got.cif
#   From: 2010.05.17/outbox.cif.g08.bks.cpg/sg15_16_cif.got.tgz:30747.got - 2010.06.03 18:47:42.
