data_PCOD9281645
_publ_section_title
;
Structure prediction by ZEFSAII (Michael W. Deem and Ramdas Pophale) SiO2 
 PCOD9281645
Probable space group: C 2/C
;
_chemical_formula_sum "Si O2"
_cell_formula_units_Z 60
_cell_length_a 9.640816
_cell_length_b 11.716358
_cell_length_c 28.621169
_cell_angle_alpha 90.000000
_cell_angle_beta 67.246570
_cell_angle_gamma 90.000000
_cell_volume 2981.319137
_symmetry_space_group_name_H-M "C 2/C"
_symmetry_group_IT_number 15
_symmetry_cell_setting 'monoclinic'
loop_
_space_group_symop_operation_xyz
x,y,z
-x,y,1/2-z
-x,-y,-z
x,-y,1/2+z
1/2+x,1/2+y,z
1/2-x,1/2+y,1/2-z
1/2-x,1/2-y,-z
1/2+x,1/2-y,1/2+z
loop_
_atom_site_type_symbol
_atom_site_label
_atom_site_fract_x
_atom_site_fract_y
_atom_site_fract_z
Si Si1 0.814294 0.114627 0.416137
Si Si2 0.713951 0.533060 0.978812
Si Si3 0.942262 0.211687 0.565314
Si Si4 0.269588 0.997613 0.667611
Si Si5 0.237264 0.713879 0.065837
Si Si6 0.500000 0.625404 0.750000
Si Si7 0.954923 0.729114 0.163559
Si Si8 0.511672 0.166605 0.912151
O O1 0.828385 0.042270 0.461421
O O2 0.651404 0.176850 0.437698
O O3 0.814198 0.039914 0.369596
O O4 0.933678 0.218695 0.401928
O O5 0.605155 0.612756 0.962647
O O6 0.715717 0.410290 0.955952
O O7 0.878849 0.589009 0.950054
O O8 0.899314 0.195968 0.625826
O O9 0.118129 0.235840 0.544588
O O10 0.356008 0.885975 0.675691
O O11 0.392741 0.092606 0.637045
O O12 0.143623 0.049160 0.717497
O O13 0.374091 0.793270 0.062584
O O14 0.126850 0.701706 0.125765
O O15 0.542875 0.703647 0.788736
#
# Coordination Sequence:
#
# PCOD9281645 Si02
#       8
#     8   8   8   8   8   4   8   8
#     4  10  23  39  63  99 133 170 218 248 308 397
#     4  11  21  40  64  92 138 179 203 252 311 377
#     4   8  18  39  60  86 134 163 206 263 303 367
#     4  11  23  45  67  90 127 167 206 276 326 368
#     4  10  21  38  63  92 128 166 217 252 304 378
#     4  12  24  44  70  92 118 160 220 274 334 372
#     4   9  21  44  61  94 123 157 212 269 312 387
#     4  11  21  39  66  92 128 176 210 250 320 370
#
# _framework density 20.125318
#
# number of rings (size 3 to 8) (size 9 to 14) (size 15 to 20)
#    0.800    1.067    2.667    1.600    0.000    6.933 
#    2.400    7.333    0.000    0.000    0.000    0.000 
#    0.000    0.000    0.000    0.000    0.000    0.000 
#
# Total GULP energy -167690.586655 kJ/mol
# GULP energy per Si atom -5589.686222 kJ/mol
# Density = 2.007951 g / cm^3
# Si number density = 20.125318 Si / 1000 Ang^3
#
#
#
# Elastic Constant Matrix: (Units=GPa)
#
#
# Indices 1 2 3 4 5 6 
#
# 1 125.5715 36.4779 38.0434 0.0000 -7.6718 0.0000
# 2 36.4779 78.7144 50.5500 0.0000 -6.9734 0.0000
# 3 38.0434 50.5500 121.3521 0.0000 -3.7052 0.0000
# 4 0.0000 0.0000 0.0000 29.8282 0.0000 4.2637
# 5 -7.6718 -6.9734 -3.7052 0.0000 32.2707 0.0000
# 6 0.0000 0.0000 0.0000 4.2637 0.0000 27.3645
#
#
#
# Elastic Compliance Matrix: (Units=1/GPa)
#
#
# Indices 1 2 3 4 5 6 
#
# 1 0.009469 -0.003260 -0.001569 0.000000 0.001367 0.000000
# 2 -0.003260 0.018746 -0.006710 0.000000 0.002505 0.000000
# 3 -0.001569 -0.006710 0.011512 0.000000 -0.000501 0.000000
# 4 0.000000 0.000000 0.000000 0.034289 0.000000 -0.005343
# 5 0.001367 0.002505 -0.000501 0.000000 0.031797 0.000000
# 6 0.000000 0.000000 0.000000 -0.005343 0.000000 0.037376
#
#
# Mechanical properties :
#
#
# Convention : Reuss Voigt Hill
#
# Bulk Modulus (GPa) = 60.06148 63.97563 62.01855
# Shear Modulus (GPa) = 29.10062 31.26379 30.18220
#
# Velocity S-wave (km/s) = 3.80672 3.94567 3.87681
# Velocity P-wave (km/s) = 7.01641 7.25364 7.13601
#
# Compressibility (1/GPa) = 0.01664961
#
# Stress axis : x y z
#
# Youngs Moduli (GPa) = 105.60390 53.34445 86.86316
#
# Poissons Ratio (x) = 0.17388 0.13630
# Poissons Ratio (y) = 0.34422 0.58289
# Poissons Ratio (z) = 0.16570 0.35797
#
# Static dielectric constant tensor:
#      x y z
#    x 1.733170 0.000000 -0.008140 
#    y 0.000000 1.721100 0.000000 
#    z -0.008140 0.000000 1.716800 
# 
# From -- ./inp_files/292256.got.cif
#   From: 2010.05.17/outbox.cif.g08.bks.cpg/sg15_147_cif.got.tgz:292256.got - 2010.06.03 18:47:42.
