data_PCOD9281184
_publ_section_title
;
Structure prediction by ZEFSAII (Michael W. Deem and Ramdas Pophale) SiO2 
 PCOD9281184
Probable space group: C 2/C
;
_chemical_formula_sum "Si O2"
_cell_formula_units_Z 48
_cell_length_a 8.767428
_cell_length_b 17.971470
_cell_length_c 11.669068
_cell_angle_alpha 90.000000
_cell_angle_beta 79.983166
_cell_angle_gamma 90.000000
_cell_volume 1810.593352
_symmetry_space_group_name_H-M "C 2/C"
_symmetry_group_IT_number 15
_symmetry_cell_setting 'monoclinic'
loop_
_space_group_symop_operation_xyz
x,y,z
-x,y,1/2-z
-x,-y,-z
x,-y,1/2+z
1/2+x,1/2+y,z
1/2-x,1/2+y,1/2-z
1/2-x,1/2-y,-z
1/2+x,1/2-y,1/2+z
loop_
_atom_site_type_symbol
_atom_site_label
_atom_site_fract_x
_atom_site_fract_y
_atom_site_fract_z
Si Si1 0.663096 0.591380 0.083181
Si Si2 0.179349 0.783821 0.189894
Si Si3 0.614930 0.251770 0.608644
Si Si4 0.532469 0.904101 0.111732
Si Si5 0.178046 0.619013 0.194919
Si Si6 0.776247 0.063375 0.952459
O O1 0.551511 0.664168 0.096929
O O2 0.743542 0.610822 0.192674
O O3 0.613485 0.505565 0.094699
O O4 0.794317 0.590084 0.964553
O O5 0.297109 0.773265 0.284868
O O6 0.190630 0.701017 0.136843
O O7 0.187116 0.859363 0.115696
O O8 0.000000 0.784787 0.250000
O O9 0.750000 0.250000 0.500000
O O10 0.501741 0.184484 0.594091
O O11 0.500000 0.917899 0.250000
O O12 0.398928 0.950433 0.068546
O O13 0.000000 0.603381 0.250000
O O14 0.256338 0.567528 0.090966
#
# Coordination Sequence:
#
# PCOD9281184 Si02
#       6
#     8   8   8   8   8   8
#     4  10  23  37  58  91 132 159 193 263 332 362
#     4  10  22  41  60  85 122 170 212 249 305 382
#     4   9  20  40  59  83 121 166 198 244 318 378
#     4  11  21  36  63  93 121 156 210 254 312 379
#     4  10  21  38  59  87 125 156 200 256 312 365
#     4  12  23  36  64  96 121 160 211 263 309 376
#
# _framework density 26.510646000000001
#
# number of rings (size 3 to 8) (size 9 to 14) (size 15 to 20)
#    0.000    1.667    3.333    1.000    4.667    0.000 
#    0.000    0.833    0.000    5.000    0.000    0.000 
#    0.000    0.000    0.000    0.000    0.000    0.000 
#
# Total GULP energy -133936.405333 kJ/mol
# GULP energy per Si atom -5580.683556 kJ/mol
# Density = 2.645031 g / cm^3
# Si number density = 26.510646 Si / 1000 Ang^3
#
#
#
# Elastic Constant Matrix: (Units=GPa)
#
#
# Indices 1 2 3 4 5 6 
#
# 1 54.0796 25.5804 3.2200 0.0000 3.0939 0.0000
# 2 25.5804 212.8385 42.4638 0.0000 -15.5549 0.0000
# 3 3.2200 42.4638 121.7916 0.0000 -8.7055 0.0000
# 4 0.0000 0.0000 0.0000 31.5087 0.0000 -4.7077
# 5 3.0939 -15.5549 -8.7055 0.0000 19.3751 0.0000
# 6 0.0000 0.0000 0.0000 -4.7077 0.0000 20.0408
#
#
#
# Elastic Compliance Matrix: (Units=1/GPa)
#
#
# Indices 1 2 3 4 5 6 
#
# 1 0.020140 -0.002833 0.000065 0.000000 -0.005461 0.000000
# 2 -0.002833 0.005671 -0.001596 0.000000 0.004288 0.000000
# 3 0.000065 -0.001596 0.008961 0.000000 0.002735 0.000000
# 4 0.000000 0.000000 0.000000 0.032892 0.000000 0.007726
# 5 -0.005461 0.004288 0.002735 0.000000 0.057156 0.000000
# 6 0.000000 0.000000 0.000000 0.007726 0.000000 0.051713
#
#
# Mechanical properties :
#
#
# Convention : Reuss Voigt Hill
#
# Bulk Modulus (GPa) = 38.39635 59.02645 48.71140
# Shear Modulus (GPa) = 25.78118 35.34797 30.56457
#
# Velocity S-wave (km/s) = 3.12185 3.65547 3.39915
# Velocity P-wave (km/s) = 5.24494 6.33483 5.81548
#
# Compressibility (1/GPa) = 0.02604414
#
# Stress axis : x y z
#
# Youngs Moduli (GPa) = 49.65328 176.34915 111.59619
#
# Poissons Ratio (x) = 0.49952 -0.00723
# Poissons Ratio (y) = 0.14065 0.17808
# Poissons Ratio (z) = -0.00322 0.28140
#
# Static dielectric constant tensor:
#      x y z
#    x 2.073010 0.000000 0.008150 
#    y 0.000000 2.154330 0.000000 
#    z 0.008150 0.000000 2.024320 
# 
# From -- ./inp_files/87281.got.cif
#   From: 2010.05.17/outbox.cif.g08.bks.cpg/sg15_44_cif.got.tgz:87281.got - 2010.06.03 18:47:42.
