data_PCOD9281766
_publ_section_title
;
Structure prediction by ZEFSAII (Michael W. Deem and Ramdas Pophale) SiO2 
 PCOD9281766
Probable space group: C 2/C
;
_chemical_formula_sum "Si O2"
_cell_formula_units_Z 60
_cell_length_a 15.944203
_cell_length_b 9.354203
_cell_length_c 24.724143
_cell_angle_alpha 90.000000
_cell_angle_beta 126.996526
_cell_angle_gamma 90.000000
_cell_volume 2945.095015
_symmetry_space_group_name_H-M "C 2/C"
_symmetry_group_IT_number 15
_symmetry_cell_setting 'monoclinic'
loop_
_space_group_symop_operation_xyz
x,y,z
-x,y,1/2-z
-x,-y,-z
x,-y,1/2+z
1/2+x,1/2+y,z
1/2-x,1/2+y,1/2-z
1/2-x,1/2-y,-z
1/2+x,1/2-y,1/2+z
loop_
_atom_site_type_symbol
_atom_site_label
_atom_site_fract_x
_atom_site_fract_y
_atom_site_fract_z
Si Si1 0.090153 0.957100 0.121952
Si Si2 0.638522 0.265733 0.587747
Si Si3 0.373442 0.025543 0.831119
Si Si4 0.639736 0.563907 0.258467
Si Si5 0.834764 0.622086 0.698892
Si Si6 0.500000 0.676655 0.750000
Si Si7 0.551899 0.820191 0.943367
Si Si8 0.640149 0.126435 0.369992
O O1 0.079076 0.084864 0.074685
O O2 0.089686 0.035024 0.180163
O O3 0.207532 0.890087 0.158154
O O4 0.003067 0.834563 0.085632
O O5 0.636175 0.175982 0.641852
O O6 0.590456 0.176850 0.519743
O O7 0.756881 0.307152 0.617722
O O8 0.383095 0.046261 0.770750
O O9 0.263771 0.946987 0.798018
O O10 0.465429 0.937147 0.894203
O O11 0.624878 0.715581 0.281861
O O12 0.595237 0.430192 0.274388
O O13 0.864270 0.532850 0.656843
O O14 0.460606 0.781271 0.687702
O O15 0.643273 0.854254 0.935506
#
# Coordination Sequence:
#
# PCOD9281766 Si02
#       8
#     8   8   8   8   8   4   8   8
#     4  10  21  38  64  93 118 163 213 253 311 361
#     4  11  23  42  62  89 131 168 209 253 300 378
#     4  11  22  38  63  92 119 160 211 255 316 360
#     4  11  21  38  62  90 124 156 202 269 316 365
#     4  10  22  39  63  90 127 154 199 271 314 365
#     4  12  22  36  64  86 122 160 200 262 314 376
#     4  12  23  40  64  91 126 171 210 250 302 381
#     4  11  24  40  62  95 122 162 208 254 318 370
#
# _framework density 20.372855999999999
#
# number of rings (size 3 to 8) (size 9 to 14) (size 15 to 20)
#    0.000    1.067    5.333    2.000    0.000    1.600 
#    0.000    0.000    0.000    0.800    0.000    0.000 
#    0.000    0.000    0.000    0.000    0.000    0.000 
#
# Total GULP energy -167530.653622 kJ/mol
# GULP energy per Si atom -5584.355121 kJ/mol
# Density = 2.032649 g / cm^3
# Si number density = 20.372856 Si / 1000 Ang^3
#
#
#
# Elastic Constant Matrix: (Units=GPa)
#
#
# Indices 1 2 3 4 5 6 
#
# 1 52.9301 20.9129 -7.5553 0.0000 -11.7076 0.0000
# 2 20.9129 77.1991 -3.8307 0.0000 -2.6667 0.0000
# 3 -7.5553 -3.8307 37.1614 0.0000 -10.4456 0.0000
# 4 0.0000 0.0000 0.0000 25.3972 0.0000 5.4736
# 5 -11.7076 -2.6667 -10.4456 0.0000 24.0328 0.0000
# 6 0.0000 0.0000 0.0000 5.4736 0.0000 32.5442
#
#
#
# Elastic Compliance Matrix: (Units=1/GPa)
#
#
# Indices 1 2 3 4 5 6 
#
# 1 0.026164 -0.006075 0.009212 0.000000 0.016075 0.000000
# 2 -0.006075 0.014544 -0.000130 0.000000 -0.001402 0.000000
# 3 0.009212 -0.000130 0.034205 0.000000 0.019340 0.000000
# 4 0.000000 0.000000 0.000000 0.040855 0.000000 -0.006871
# 5 0.016075 -0.001402 0.019340 0.000000 0.057691 0.000000
# 6 0.000000 0.000000 0.000000 -0.006871 0.000000 0.031883
#
#
# Mechanical properties :
#
#
# Convention : Reuss Voigt Hill
#
# Bulk Modulus (GPa) = 12.35692 20.70493 16.53092
# Shear Modulus (GPa) = 22.09399 26.91242 24.50320
#
# Velocity S-wave (km/s) = 3.29672 3.63849 3.47181
# Velocity P-wave (km/s) = 4.53538 5.27604 4.91967
#
# Compressibility (1/GPa) = 0.08092633
#
# Stress axis : x y z
#
# Youngs Moduli (GPa) = 38.22080 68.75501 29.23520
#
# Poissons Ratio (x) = 0.41770 -0.26931
# Poissons Ratio (y) = 0.23220 0.00380
# Poissons Ratio (z) = -0.35208 0.00894
#
# Static dielectric constant tensor:
#      x y z
#    x 1.750780 0.000000 -0.003190 
#    y 0.000000 1.726600 0.000000 
#    z -0.003190 0.000000 1.708560 
# 
# From -- ./inp_files/247400.got.cif
#   From: 2010.05.17/outbox.cif.g08.bks.cpg/sg15_124_cif.got.tgz:247400.got - 2010.06.03 18:47:42.
