data_PCOD9281735
_publ_section_title
;
Structure prediction by ZEFSAII (Michael W. Deem and Ramdas Pophale) SiO2 
 PCOD9281735
Probable space group: C 2/C
;
_chemical_formula_sum "Si O2"
_cell_formula_units_Z 64
_cell_length_a 16.928682
_cell_length_b 14.532961
_cell_length_c 18.831715
_cell_angle_alpha 90.000000
_cell_angle_beta 41.160331
_cell_angle_gamma 90.000000
_cell_volume 3049.327929
_symmetry_space_group_name_H-M "C 2/C"
_symmetry_group_IT_number 15
_symmetry_cell_setting 'monoclinic'
loop_
_space_group_symop_operation_xyz
x,y,z
-x,y,1/2-z
-x,-y,-z
x,-y,1/2+z
1/2+x,1/2+y,z
1/2-x,1/2+y,1/2-z
1/2-x,1/2-y,-z
1/2+x,1/2-y,1/2+z
loop_
_atom_site_type_symbol
_atom_site_label
_atom_site_fract_x
_atom_site_fract_y
_atom_site_fract_z
Si Si1 0.724960 0.146864 0.305408
Si Si2 0.865600 0.921649 0.059891
Si Si3 0.625990 0.312527 0.671553
Si Si4 0.683414 0.945553 0.302700
Si Si5 0.948737 0.323682 0.989981
Si Si6 0.518205 0.038846 0.159860
Si Si7 0.874475 0.870219 0.569358
Si Si8 0.811775 0.631841 0.937488
O O1 0.828716 0.197803 0.279087
O O2 0.591612 0.183752 0.409003
O O3 0.764716 0.150184 0.196453
O O4 0.719351 0.036591 0.323133
O O5 0.800253 0.911579 0.180641
O O6 0.789514 0.867682 0.054221
O O7 0.856485 0.030309 0.046030
O O8 0.002446 0.889572 0.970079
O O9 0.500000 0.364191 0.750000
O O10 0.740916 0.359592 0.558309
O O11 0.609900 0.220480 0.635432
O O12 0.617716 0.872979 0.398392
O O13 0.592446 0.984536 0.303454
O O14 0.939525 0.389059 0.927750
O O15 0.897656 0.222297 0.010686
O O16 0.500000 0.082906 0.250000
O O17 0.612576 0.959311 0.112847
#
# Coordination Sequence:
#
# PCOD9281735 Si02
#       8
#     8   8   8   8   8   8   8   8
#     4  10  21  40  59  86 124 154 201 256 299 358
#     4  10  21  40  60  84 122 162 195 251 308 364
#     4  11  23  34  56  91 123 158 197 245 306 369
#     4  10  21  38  64  89 119 162 204 249 304 359
#     4  11  23  38  65  92 118 157 211 258 292 357
#     4  11  21  38  61  89 124 158 201 250 311 360
#     4  10  23  38  61  88 113 158 211 249 299 354
#     4  11  22  37  57  85 124 161 195 237 314 374
#
# _framework density 20.988230999999999
#
# number of rings (size 3 to 8) (size 9 to 14) (size 15 to 20)
#    0.000    1.500    1.250    4.875    3.500    2.000 
#    0.000    0.625    0.000    0.000    0.000    0.000 
#    0.000    0.000    0.000    0.000    0.000    0.000 
#
# Total GULP energy -178652.149499 kJ/mol
# GULP energy per Si atom -5582.879672 kJ/mol
# Density = 2.094046 g / cm^3
# Si number density = 20.988231 Si / 1000 Ang^3
#
#
#
# Elastic Constant Matrix: (Units=GPa)
#
#
# Indices 1 2 3 4 5 6 
#
# 1 48.8253 3.4087 6.1939 0.0000 5.3728 0.0000
# 2 3.4087 62.8876 21.5860 0.0000 5.1717 0.0000
# 3 6.1939 21.5860 76.6649 0.0000 -4.5069 0.0000
# 4 0.0000 0.0000 0.0000 -8.1605 0.0000 -7.4909
# 5 5.3728 5.1717 -4.5069 0.0000 30.7042 0.0000
# 6 0.0000 0.0000 0.0000 -7.4909 0.0000 19.2692
#
#
#
# Elastic Compliance Matrix: (Units=1/GPa)
#
#
# Indices 1 2 3 4 5 6 
#
# 1 0.021169 -0.000172 -0.001894 0.000000 -0.003953 0.000000
# 2 -0.000172 0.018037 -0.005287 0.000000 -0.003784 0.000000
# 3 -0.001894 -0.005287 0.014886 0.000000 0.003407 0.000000
# 4 0.000000 0.000000 0.000000 -0.090313 0.000000 -0.035109
# 5 -0.003953 -0.003784 0.003407 0.000000 0.034398 0.000000
# 6 0.000000 0.000000 0.000000 -0.035109 0.000000 0.038248
#
#
# Mechanical properties :
#
#
# Convention : Reuss Voigt Hill
#
# Bulk Modulus (GPa) = 25.39084 27.86168 26.62626
# Shear Modulus (GPa) = 77.81089 18.84185 48.32637
#
# Velocity S-wave (km/s) = 6.09541 2.99947 4.80369
# Velocity P-wave (km/s) = 7.85256 5.02986 6.59402
#
# Compressibility (1/GPa) = 0.03938427
#
# Stress axis : x y z
#
# Youngs Moduli (GPa) = 47.23997 55.44269 67.17845
#
# Poissons Ratio (x) = 0.00954 0.12725
# Poissons Ratio (y) = 0.00813 0.35517
# Poissons Ratio (z) = 0.08948 0.29313
#
# Static dielectric constant tensor:
#      x y z
#    x 1.747090 0.000000 0.009070 
#    y 0.000000 1.785790 0.000000 
#    z 0.009070 0.000000 1.803580 
# 
# From -- ./inp_files/211384.got.cif
#   From: 2010.05.17/outbox.cif.g08.bks.cpg/sg15_106_cif.got.tgz:211384.got - 2010.06.03 18:47:42.
