data_PCOD9281767
_publ_section_title
;
Structure prediction by ZEFSAII (Michael W. Deem and Ramdas Pophale) SiO2 
 PCOD9281767
Probable space group: C 2/C
;
_chemical_formula_sum "Si O2"
_cell_formula_units_Z 44
_cell_length_a 14.350013
_cell_length_b 6.495603
_cell_length_c 21.315837
_cell_angle_alpha 90.000000
_cell_angle_beta 72.844063
_cell_angle_gamma 90.000000
_cell_volume 1898.485771
_symmetry_space_group_name_H-M "C 2/C"
_symmetry_group_IT_number 15
_symmetry_cell_setting 'monoclinic'
loop_
_space_group_symop_operation_xyz
x,y,z
-x,y,1/2-z
-x,-y,-z
x,-y,1/2+z
1/2+x,1/2+y,z
1/2-x,1/2+y,1/2-z
1/2-x,1/2-y,-z
1/2+x,1/2-y,1/2+z
loop_
_atom_site_type_symbol
_atom_site_label
_atom_site_fract_x
_atom_site_fract_y
_atom_site_fract_z
Si Si1 0.875897 0.673553 0.211360
Si Si2 0.324696 0.522586 0.309155
Si Si3 0.983499 0.298454 0.463238
Si Si4 0.376797 0.461522 0.093356
Si Si5 0.802001 0.273665 0.423422
Si Si6 0.000000 0.657410 0.750000
O O1 0.771575 0.578503 0.211830
O O2 0.902746 0.837944 0.151477
O O3 0.954132 0.496782 0.207546
O O4 0.862253 0.805341 0.277449
O O5 0.298151 0.557551 0.387012
O O6 0.409650 0.692627 0.283709
O O7 0.929029 0.150150 0.524217
O O8 0.910332 0.334347 0.420452
O O9 0.000000 0.500000 0.500000
O O10 0.080593 0.189928 0.417694
O O11 0.261527 0.432910 0.104894
O O12 0.750000 0.250000 0.500000
#
# Coordination Sequence:
#
# PCOD9281767 Si02
#       6
#     8   8   8   8   8   4
#     4  11  24  45  66  98 136 175 219 280 331 399
#     4  11  24  45  68  99 138 172 229 274 335 407
#     4  10  21  38  64  93 120 168 212 262 316 387
#     4   9  22  41  60  90 130 159 213 266 317 387
#     4   9  21  43  63  89 128 170 211 271 326 379
#     4  12  26  40  70  98 128 184 216 270 344 388
#
# _framework density 23.176364
#
# number of rings (size 3 to 8) (size 9 to 14) (size 15 to 20)
#    0.000    1.818    1.818    0.545    7.636    0.727 
#    3.273    0.000    0.000    0.000    0.000    0.000 
#    0.000    0.000    0.000    0.000    0.000    0.000 
#
# Total GULP energy -122967.557535 kJ/mol
# GULP energy per Si atom -5589.434433 kJ/mol
# Density = 2.312361 g / cm^3
# Si number density = 23.176364 Si / 1000 Ang^3
#
#
#
# Elastic Constant Matrix: (Units=GPa)
#
#
# Indices 1 2 3 4 5 6 
#
# 1 130.7107 44.8426 17.2237 0.0000 19.0810 -0.0001
# 2 44.8426 65.7150 8.5606 0.0000 -0.9446 -0.0001
# 3 17.2237 8.5606 84.1044 0.0000 0.4419 0.0000
# 4 0.0000 0.0000 0.0000 40.0509 0.0000 -15.2681
# 5 19.0810 -0.9446 0.4419 0.0000 30.1954 0.0000
# 6 -0.0001 -0.0001 0.0000 -15.2681 0.0000 29.5782
#
#
#
# Elastic Compliance Matrix: (Units=1/GPa)
#
#
# Indices 1 2 3 4 5 6 
#
# 1 0.011661 -0.007865 -0.001548 0.000000 -0.007592 0.000000
# 2 -0.007865 0.020734 -0.000529 0.000000 0.005626 0.000000
# 3 -0.001548 -0.000529 0.012257 0.000000 0.000782 0.000000
# 4 0.000000 0.000000 0.000000 0.031085 0.000000 0.016046
# 5 -0.007592 0.005626 0.000782 0.000000 0.038080 0.000000
# 6 0.000000 0.000000 0.000000 0.016046 0.000000 0.042092
#
#
# Mechanical properties :
#
#
# Convention : Reuss Voigt Hill
#
# Bulk Modulus (GPa) = 40.37469 46.86490 43.61979
# Shear Modulus (GPa) = 27.16697 33.95843 30.56270
#
# Velocity S-wave (km/s) = 3.42743 3.83197 3.63533
# Velocity P-wave (km/s) = 5.75513 6.31217 6.04008
#
# Compressibility (1/GPa) = 0.02476799
#
# Stress axis : x y z
#
# Youngs Moduli (GPa) = 85.75752 48.23066 81.58811
#
# Poissons Ratio (x) = 0.37932 0.12627
# Poissons Ratio (y) = 0.67445 0.04319
# Poissons Ratio (z) = 0.13272 0.02553
#
# Static dielectric constant tensor:
#      x y z
#    x 1.903440 0.000000 -0.043010 
#    y 0.000000 1.824530 0.000000 
#    z -0.043010 0.000000 1.933980 
# 
# From -- ./inp_files/271867.got.cif
#   From: 2010.05.17/outbox.cif.g08.bks.cpg/sg15_136_cif.got.tgz:271867.got - 2010.06.03 18:47:42.
