data_PCOD9281307
_publ_section_title
;
Structure prediction by ZEFSAII (Michael W. Deem and Ramdas Pophale) SiO2 
 PCOD9281307
Probable space group: C 2/C
;
_chemical_formula_sum "Si O2"
_cell_formula_units_Z 52
_cell_length_a 23.064679
_cell_length_b 14.206983
_cell_length_c 9.394870
_cell_angle_alpha 90.000000
_cell_angle_beta 56.334460
_cell_angle_gamma 90.000000
_cell_volume 2562.202881
_symmetry_space_group_name_H-M "C 2/C"
_symmetry_group_IT_number 15
_symmetry_cell_setting 'monoclinic'
loop_
_space_group_symop_operation_xyz
x,y,z
-x,y,1/2-z
-x,-y,-z
x,-y,1/2+z
1/2+x,1/2+y,z
1/2-x,1/2+y,1/2-z
1/2-x,1/2-y,-z
1/2+x,1/2-y,1/2+z
loop_
_atom_site_type_symbol
_atom_site_label
_atom_site_fract_x
_atom_site_fract_y
_atom_site_fract_z
Si Si1 0.944719 0.239703 0.420040
Si Si2 0.654421 0.248968 0.207094
Si Si3 0.644296 0.445646 0.057643
Si Si4 0.677232 0.198001 0.594917
Si Si5 0.500000 0.557478 0.250000
Si Si6 0.708792 0.837496 0.360019
Si Si7 0.263064 0.458165 0.838843
O O1 0.911290 0.277372 0.608043
O O2 0.879579 0.236099 0.400978
O O3 0.980409 0.137256 0.396259
O O4 0.000000 0.296744 0.250000
O O5 0.641272 0.348983 0.149444
O O6 0.723811 0.268364 0.208506
O O7 0.669603 0.175782 0.062498
O O8 0.568393 0.493398 0.159493
O O9 0.693935 0.516473 0.077758
O O10 0.681513 0.423526 0.855775
O O11 0.750000 0.250000 0.500000
O O12 0.663816 0.180324 0.780280
O O13 0.697554 0.106401 0.473188
O O14 0.736369 0.942965 0.314568
#
# Coordination Sequence:
#
# PCOD9281307 Si02
#       7
#     8   8   8   8   4   8   8
#     4  10  24  40  61  89 127 170 207 255 321 379
#     4  10  21  39  59  87 129 166 207 259 313 375
#     4  11  22  38  59  93 130 168 206 252 325 375
#     4  12  21  39  66  91 123 168 222 262 314 375
#     4  10  22  42  56  90 138 168 200 246 318 406
#     4  10  21  38  60  94 120 160 213 269 317 360
#     4  11  23  37  63  98 123 158 216 271 314 370
#
# _framework density 20.295034000000001
#
# number of rings (size 3 to 8) (size 9 to 14) (size 15 to 20)
#    0.462    0.923    3.077    3.692    4.308    2.462 
#    2.769    0.000    0.000    3.692    0.000    0.000 
#    0.000    0.000    0.000    0.000    0.000    0.000 
#
# Total GULP energy -144857.836218 kJ/mol
# GULP energy per Si atom -5571.455239 kJ/mol
# Density = 2.024884 g / cm^3
# Si number density = 20.295034 Si / 1000 Ang^3
#
#
#
# Elastic Constant Matrix: (Units=GPa)
#
#
# Indices 1 2 3 4 5 6 
#
# 1 23.7936 7.6542 28.7086 0.0000 -2.6106 0.0000
# 2 7.6542 36.9045 10.3398 0.0000 1.0733 0.0000
# 3 28.7086 10.3398 166.9046 0.0000 -1.1363 0.0000
# 4 0.0000 0.0000 0.0000 28.5380 0.0000 -5.5026
# 5 -2.6106 1.0733 -1.1363 0.0000 30.8384 0.0000
# 6 0.0000 0.0000 0.0000 -5.5026 0.0000 13.5263
#
#
#
# Elastic Compliance Matrix: (Units=1/GPa)
#
#
# Indices 1 2 3 4 5 6 
#
# 1 0.056548 -0.009313 -0.009117 0.000000 0.004775 0.000000
# 2 -0.009313 0.029142 -0.000216 0.000000 -0.001811 0.000000
# 3 -0.009117 -0.000216 0.007570 0.000000 -0.000485 0.000000
# 4 0.000000 0.000000 0.000000 0.038023 0.000000 0.015468
# 5 0.004775 -0.001811 -0.000485 0.000000 0.032876 0.000000
# 6 0.000000 0.000000 0.000000 0.015468 0.000000 0.080223
#
#
# Mechanical properties :
#
#
# Convention : Reuss Voigt Hill
#
# Bulk Modulus (GPa) = 17.86737 35.66755 26.76746
# Shear Modulus (GPa) = 16.64832 26.64055 21.64444
#
# Velocity S-wave (km/s) = 2.86722 3.62700 3.26926
# Velocity P-wave (km/s) = 4.44794 5.92898 5.24104
#
# Compressibility (1/GPa) = 0.05596796
#
# Stress axis : x y z
#
# Youngs Moduli (GPa) = 17.68395 34.31518 132.10527
#
# Poissons Ratio (x) = 0.31957 1.20443
# Poissons Ratio (y) = 0.16469 0.02851
# Poissons Ratio (z) = 0.16123 0.00740
#
# Static dielectric constant tensor:
#      x y z
#    x 1.675280 0.000000 0.096080 
#    y 0.000000 1.789180 0.000000 
#    z 0.096080 0.000000 1.703030 
# 
# From -- ./inp_files/66110.got.cif
#   From: 2010.05.17/outbox.cif.g08.bks.cpg/sg15_34_cif.got.tgz:66110.got - 2010.06.03 18:47:42.
