data_PCOD9281571
_publ_section_title
;
Structure prediction by ZEFSAII (Michael W. Deem and Ramdas Pophale) SiO2 
 PCOD9281571
Probable space group: C 2/C
;
_chemical_formula_sum "Si O2"
_cell_formula_units_Z 56
_cell_length_a 16.942508
_cell_length_b 17.958616
_cell_length_c 15.501412
_cell_angle_alpha 90.000000
_cell_angle_beta 33.602452
_cell_angle_gamma 90.000000
_cell_volume 2610.251285
_symmetry_space_group_name_H-M "C 2/C"
_symmetry_group_IT_number 15
_symmetry_cell_setting 'monoclinic'
loop_
_space_group_symop_operation_xyz
x,y,z
-x,y,1/2-z
-x,-y,-z
x,-y,1/2+z
1/2+x,1/2+y,z
1/2-x,1/2+y,1/2-z
1/2-x,1/2-y,-z
1/2+x,1/2-y,1/2+z
loop_
_atom_site_type_symbol
_atom_site_label
_atom_site_fract_x
_atom_site_fract_y
_atom_site_fract_z
Si Si1 0.170562 0.785982 0.882572
Si Si2 0.105703 0.580159 0.313423
Si Si3 0.350327 0.342563 0.138820
Si Si4 0.240693 0.462080 0.524261
Si Si5 0.963209 0.924271 0.879001
Si Si6 0.120578 0.323298 0.568545
Si Si7 0.736859 0.503637 0.687894
O O1 0.271246 0.857392 0.791268
O O2 0.235398 0.722942 0.759404
O O3 0.180586 0.746940 0.966260
O O4 0.006271 0.808288 0.018045
O O5 0.141897 0.527132 0.359721
O O6 0.962272 0.627122 0.429528
O O7 0.127644 0.534802 0.204343
O O8 0.315896 0.415677 0.229005
O O9 0.364490 0.372675 0.028026
O O10 0.382142 0.498416 0.432859
O O11 0.241517 0.375989 0.497329
O O12 0.213003 0.499404 0.457245
O O13 0.000000 0.893284 0.750000
O O14 0.101012 0.947924 0.808659
O O15 0.000000 0.308325 0.750000
#
# Coordination Sequence:
#
# PCOD9281571 Si02
#       7
#     8   8   8   8   8   8   8
#     4  12  24  40  65  96 138 179 215 271 340 414
#     4  11  22  40  65  93 137 174 223 280 331 399
#     4  12  23  42  66  99 131 177 225 271 340 396
#     4  10  21  38  62  98 128 169 221 277 335 385
#     4  10  21  39  68  96 124 170 233 289 314 390
#     4  10  23  40  59  96 140 176 213 268 346 411
#     4  11  21  39  68  96 126 172 232 278 327 392
#
# _framework density 21.453873000000002
#
# number of rings (size 3 to 8) (size 9 to 14) (size 15 to 20)
#    0.000    1.143    5.714    1.286    0.000    4.000 
#    0.000    0.714    0.000    0.000    0.000    0.000 
#    0.000    0.000    0.000    0.000    0.000    0.000 
#
# Total GULP energy -156328.932615 kJ/mol
# GULP energy per Si atom -5583.176165 kJ/mol
# Density = 2.140504 g / cm^3
# Si number density = 21.453873 Si / 1000 Ang^3
#
#
#
# Elastic Constant Matrix: (Units=GPa)
#
#
# Indices 1 2 3 4 5 6 
#
# 1 106.7509 50.4310 40.0268 -0.0001 12.5514 0.0000
# 2 50.4310 81.0706 43.0934 0.0000 1.6521 0.0000
# 3 40.0268 43.0934 106.9913 0.0000 13.6240 0.0002
# 4 -0.0001 0.0000 0.0000 23.1226 0.0002 2.3554
# 5 12.5514 1.6521 13.6240 0.0002 36.0554 -0.0002
# 6 0.0000 0.0000 0.0002 2.3554 -0.0002 37.0180
#
#
#
# Elastic Compliance Matrix: (Units=1/GPa)
#
#
# Indices 1 2 3 4 5 6 
#
# 1 0.014156 -0.007861 -0.001626 0.000000 -0.003953 0.000000
# 2 -0.007861 0.020167 -0.005686 0.000000 0.003961 0.000000
# 3 -0.001626 -0.005686 0.012754 0.000000 -0.003992 0.000000
# 4 0.000000 0.000000 0.000000 0.043530 0.000000 -0.002770
# 5 -0.003953 0.003961 -0.003992 0.000000 0.030438 0.000000
# 6 0.000000 0.000000 0.000000 -0.002770 0.000000 0.027190
#
#
# Mechanical properties :
#
#
# Convention : Reuss Voigt Hill
#
# Bulk Modulus (GPa) = 59.77487 62.43504 61.10496
# Shear Modulus (GPa) = 27.15074 29.98999 28.57036
#
# Velocity S-wave (km/s) = 3.56130 3.74288 3.65322
# Velocity P-wave (km/s) = 6.69575 6.91694 6.80724
#
# Compressibility (1/GPa) = 0.01672944
#
# Stress axis : x y z
#
# Youngs Moduli (GPa) = 70.64276 49.58707 78.40901
#
# Poissons Ratio (x) = 0.38979 0.12752
# Poissons Ratio (y) = 0.55530 0.44585
# Poissons Ratio (z) = 0.11489 0.28196
#
# Static dielectric constant tensor:
#      x y z
#    x 1.809540 0.000000 0.002460 
#    y 0.000000 1.785180 0.000000 
#    z 0.002460 0.000000 1.851000 
# 
# From -- ./inp_files/163066.got.cif
#   From: 2010.05.17/outbox.cif.g08.bks.cpg/sg15_82_cif.got.tgz:163066.got - 2010.06.03 18:47:42.
