data_PCOD9281569
_publ_section_title
;
Structure prediction by ZEFSAII (Michael W. Deem and Ramdas Pophale) SiO2 
 PCOD9281569
Probable space group: C 2/C
;
_chemical_formula_sum "Si O2"
_cell_formula_units_Z 56
_cell_length_a 10.743576
_cell_length_b 18.837658
_cell_length_c 11.642972
_cell_angle_alpha 90.000000
_cell_angle_beta 66.761504
_cell_angle_gamma 90.000000
_cell_volume 2165.179499
_symmetry_space_group_name_H-M "C 2/C"
_symmetry_group_IT_number 15
_symmetry_cell_setting 'monoclinic'
loop_
_space_group_symop_operation_xyz
x,y,z
-x,y,1/2-z
-x,-y,-z
x,-y,1/2+z
1/2+x,1/2+y,z
1/2-x,1/2+y,1/2-z
1/2-x,1/2-y,-z
1/2+x,1/2-y,1/2+z
loop_
_atom_site_type_symbol
_atom_site_label
_atom_site_fract_x
_atom_site_fract_y
_atom_site_fract_z
Si Si1 0.351479 0.484250 0.345781
Si Si2 0.538618 0.292380 0.607273
Si Si3 0.785987 0.154718 0.783577
Si Si4 0.030398 0.642765 0.541976
Si Si5 0.285031 0.590313 0.544322
Si Si6 0.119673 0.565265 0.279775
Si Si7 0.246039 0.701547 0.118788
O O1 0.500000 0.506559 0.250000
O O2 0.346254 0.399075 0.354281
O O3 0.323087 0.514356 0.482595
O O4 0.236368 0.516017 0.298530
O O5 0.500000 0.270526 0.750000
O O6 0.587855 0.222754 0.523488
O O7 0.644112 0.355937 0.571234
O O8 0.400381 0.313826 0.596201
O O9 0.624434 0.148765 0.863400
O O10 0.830680 0.118195 0.649620
O O11 0.818674 0.237336 0.775695
O O12 0.125526 0.600794 0.594182
O O13 0.051046 0.604419 0.413898
O O14 0.174060 0.627650 0.175217
O O15 0.000000 0.528927 0.250000
O O16 0.250000 0.750000 0.000000
#
# Coordination Sequence:
#
# PCOD9281569 Si02
#       7
#     8   8   8   8   8   8   8
#     4  11  27  47  68  97 133 177 228 281 341 409
#     4  11  20  37  65  96 131 170 221 276 329 399
#     4  11  25  42  65  97 136 178 223 276 335 403
#     4  10  21  38  62  97 134 171 220 273 332 396
#     4  11  22  39  66  94 129 175 224 274 330 400
#     4  11  23  42  70  98 134 178 222 277 341 404
#     4  11  24  42  67 101 140 176 221 280 341 402
#
# _framework density 25.863906
#
# number of rings (size 3 to 8) (size 9 to 14) (size 15 to 20)
#    0.000    1.143    0.000    8.143    0.000    8.000 
#    0.000    0.000    0.000    0.000    0.000    0.000 
#    0.000    0.000    0.000    0.000    0.000    0.000 
#
# Total GULP energy -156680.797402 kJ/mol
# GULP energy per Si atom -5595.742764 kJ/mol
# Density = 2.580504 g / cm^3
# Si number density = 25.863906 Si / 1000 Ang^3
#
#
#
# Elastic Constant Matrix: (Units=GPa)
#
#
# Indices 1 2 3 4 5 6 
#
# 1 112.5804 20.1763 9.6298 0.0000 2.2391 0.0000
# 2 20.1763 117.4750 16.2385 0.0000 -14.5677 0.0000
# 3 9.6298 16.2385 68.3162 0.0000 10.1540 0.0000
# 4 0.0000 0.0000 0.0000 27.4306 0.0000 -0.7867
# 5 2.2391 -14.5677 10.1540 0.0000 27.1852 0.0000
# 6 0.0000 0.0000 0.0000 -0.7867 0.0000 24.5963
#
#
#
# Elastic Compliance Matrix: (Units=1/GPa)
#
#
# Indices 1 2 3 4 5 6 
#
# 1 0.009269 -0.001668 -0.000703 0.000000 -0.001395 0.000000
# 2 -0.001668 0.010067 -0.003155 0.000000 0.006711 0.000000
# 3 -0.000703 -0.003155 0.016654 0.000000 -0.007853 0.000000
# 4 0.000000 0.000000 0.000000 0.036489 0.000000 0.001167
# 5 -0.001395 0.006711 -0.007853 0.000000 0.043429 0.000000
# 6 0.000000 0.000000 0.000000 0.001167 0.000000 0.040694
#
#
# Mechanical properties :
#
#
# Convention : Reuss Voigt Hill
#
# Bulk Modulus (GPa) = 40.09812 43.38453 41.74133
# Shear Modulus (GPa) = 28.41437 32.66423 30.53930
#
# Velocity S-wave (km/s) = 3.31813 3.55762 3.43996
# Velocity P-wave (km/s) = 5.49701 5.80398 5.65258
#
# Compressibility (1/GPa) = 0.02493882
#
# Stress axis : x y z
#
# Youngs Moduli (GPa) = 107.88302 99.33247 60.04504
#
# Poissons Ratio (x) = 0.16567 0.04220
# Poissons Ratio (y) = 0.17993 0.18946
# Poissons Ratio (z) = 0.07583 0.31342
#
# Static dielectric constant tensor:
#      x y z
#    x 2.043910 0.000000 0.044710 
#    y 0.000000 2.040390 0.000000 
#    z 0.044710 0.000000 2.107730 
# 
# From -- ./inp_files/89548.got.cif
#   From: 2010.05.17/outbox.cif.g08.bks.cpg/sg15_45_cif.got.tgz:89548.got - 2010.06.03 18:47:42.
