data_PCOD9281807
_publ_section_title
;
Structure prediction by ZEFSAII (Michael W. Deem and Ramdas Pophale) SiO2 
 PCOD9281807
Probable space group: C 2/C
;
_chemical_formula_sum "Si O2"
_cell_formula_units_Z 48
_cell_length_a 12.372757
_cell_length_b 19.971626
_cell_length_c 10.460265
_cell_angle_alpha 90.000000
_cell_angle_beta 52.573341
_cell_angle_gamma 90.000000
_cell_volume 2052.651654
_symmetry_space_group_name_H-M "C 2/C"
_symmetry_group_IT_number 15
_symmetry_cell_setting 'monoclinic'
loop_
_space_group_symop_operation_xyz
x,y,z
-x,y,1/2-z
-x,-y,-z
x,-y,1/2+z
1/2+x,1/2+y,z
1/2-x,1/2+y,1/2-z
1/2-x,1/2-y,-z
1/2+x,1/2-y,1/2+z
loop_
_atom_site_type_symbol
_atom_site_label
_atom_site_fract_x
_atom_site_fract_y
_atom_site_fract_z
Si Si1 0.294193 0.824067 0.028088
Si Si2 0.926379 0.460163 0.936925
Si Si3 0.363868 0.500438 0.264096
Si Si4 0.335997 0.691665 0.376838
Si Si5 0.352050 0.636380 0.621498
Si Si6 0.150421 0.864671 0.886914
O O1 0.274078 0.990668 0.056347
O O2 0.239415 0.824006 0.211849
O O3 0.250000 0.750000 0.000000
O O4 0.219387 0.867595 0.972792
O O5 0.364087 0.435235 0.673164
O O6 0.922512 0.377360 0.952587
O O7 0.000000 0.474817 0.750000
O O8 0.000000 0.500000 0.000000
O O9 0.500000 0.500884 0.250000
O O10 0.364013 0.436459 0.172049
O O11 0.500000 0.702799 0.250000
O O12 0.250000 0.750000 0.500000
O O13 0.315659 0.634348 0.498600
O O14 0.718815 0.677080 0.224361
O O15 0.502749 0.667178 0.518048
#
# Coordination Sequence:
#
# PCOD9281807 Si02
#       6
#     8   8   8   8   8   8
#     4  11  24  43  69  99 139 194 243 291 365 461
#     4  11  26  48  72 108 153 195 241 311 393 456
#     4  11  23  43  73 104 136 185 245 304 363 443
#     4  10  22  41  63  91 131 174 223 280 345 420
#     4  10  21  38  64  97 130 171 227 297 356 416
#     4  11  22  39  66  99 132 171 232 301 351 414
#
# _framework density 23.384385999999999
#
# number of rings (size 3 to 8) (size 9 to 14) (size 15 to 20)
#    0.000    1.333    0.000    6.500    0.000    9.333 
#    0.000   12.500    0.000    1.000    0.000    0.000 
#    0.000    0.000    0.000    0.000    0.000    0.000 
#
# Total GULP energy -133700.982285 kJ/mol
# GULP energy per Si atom -5570.874262 kJ/mol
# Density = 2.333116 g / cm^3
# Si number density = 23.384386 Si / 1000 Ang^3
#
#
#
# Elastic Constant Matrix: (Units=GPa)
#
#
# Indices 1 2 3 4 5 6 
#
# 1 80.9610 26.9444 40.3421 0.0000 0.4447 0.0000
# 2 26.9444 114.9382 23.7299 0.0000 -6.1144 0.0000
# 3 40.3421 23.7299 178.9035 0.0000 9.6716 0.0000
# 4 0.0000 0.0000 0.0000 34.4161 0.0000 12.1143
# 5 0.4447 -6.1144 9.6716 0.0000 18.4556 0.0000
# 6 0.0000 0.0000 0.0000 12.1143 0.0000 39.2934
#
#
#
# Elastic Compliance Matrix: (Units=1/GPa)
#
#
# Indices 1 2 3 4 5 6 
#
# 1 0.014774 -0.002836 -0.002969 0.000000 0.000260 0.000000
# 2 -0.002836 0.009741 -0.000855 0.000000 0.003744 0.000000
# 3 -0.002969 -0.000855 0.006570 0.000000 -0.003655 0.000000
# 4 0.000000 0.000000 0.000000 0.032593 0.000000 -0.010049
# 5 0.000260 0.003744 -0.003655 0.000000 0.057333 0.000000
# 6 0.000000 0.000000 0.000000 -0.010049 0.000000 0.028548
#
#
# Mechanical properties :
#
#
# Convention : Reuss Voigt Hill
#
# Bulk Modulus (GPa) = 56.29458 61.87060 59.08259
# Shear Modulus (GPa) = 29.62066 37.35211 33.48639
#
# Velocity S-wave (km/s) = 3.56291 4.00097 3.78828
# Velocity P-wave (km/s) = 6.40716 6.91804 6.66749
#
# Compressibility (1/GPa) = 0.01776370
#
# Stress axis : x y z
#
# Youngs Moduli (GPa) = 67.68761 102.66004 152.20423
#
# Poissons Ratio (x) = 0.29119 0.45194
# Poissons Ratio (y) = 0.19199 0.13010
# Poissons Ratio (z) = 0.20098 0.08775
#
# Static dielectric constant tensor:
#      x y z
#    x 1.919880 0.000000 -0.011560 
#    y 0.000000 2.009190 0.000000 
#    z -0.011560 0.000000 1.944510 
# 
# From -- ./inp_files/90643.got.cif
#   From: 2010.05.17/outbox.cif.g08.bks.cpg/sg15_46_cif.got.tgz:90643.got - 2010.06.03 18:47:42.
