data_PCOD9281708
_publ_section_title
;
Structure prediction by ZEFSAII (Michael W. Deem and Ramdas Pophale) SiO2 
 PCOD9281708
Probable space group: C 2/C
;
_chemical_formula_sum "Si O2"
_cell_formula_units_Z 60
_cell_length_a 8.879331
_cell_length_b 15.375264
_cell_length_c 28.498007
_cell_angle_alpha 90.000000
_cell_angle_beta 141.197660
_cell_angle_gamma 90.000000
_cell_volume 2437.992738
_symmetry_space_group_name_H-M "C 2/C"
_symmetry_group_IT_number 15
_symmetry_cell_setting 'monoclinic'
loop_
_space_group_symop_operation_xyz
x,y,z
-x,y,1/2-z
-x,-y,-z
x,-y,1/2+z
1/2+x,1/2+y,z
1/2-x,1/2+y,1/2-z
1/2-x,1/2-y,-z
1/2+x,1/2-y,1/2+z
loop_
_atom_site_type_symbol
_atom_site_label
_atom_site_fract_x
_atom_site_fract_y
_atom_site_fract_z
Si Si1 0.400712 0.885256 0.383038
Si Si2 0.500000 0.476912 0.750000
Si Si3 0.799983 0.834973 0.981629
Si Si4 0.688486 0.178208 0.181621
Si Si5 0.261470 0.526099 0.815533
Si Si6 0.552321 0.666213 0.707580
Si Si7 0.192619 0.312159 0.371876
Si Si8 0.736470 0.010183 0.025006
O O1 0.640773 0.919818 0.464924
O O2 0.216418 0.966360 0.326128
O O3 0.002867 0.026457 0.388052
O O4 0.228782 0.834242 0.377800
O O5 0.664602 0.404119 0.764179
O O6 0.589326 0.846160 0.893200
O O7 0.750000 0.750000 0.000000
O O8 0.775714 0.919825 0.007894
O O9 0.077057 0.819970 0.037968
O O10 0.690878 0.255348 0.218769
O O11 0.779998 0.225857 0.154846
O O12 0.331279 0.578140 0.784926
O O13 0.216641 0.605751 0.841847
O O14 0.000000 0.481012 0.750000
O O15 0.500000 0.676099 0.750000
O O16 0.975046 0.667869 0.854627
O O17 0.500000 0.000000 0.000000
#
# Coordination Sequence:
#
# PCOD9281708 Si02
#       8
#     8   4   8   8   8   8   8   8
#     4  12  24  42  68 106 136 180 236 296 346 414
#     4  12  26  40  70  98 142 180 230 292 356 404
#     4   9  19  41  67  96 130 179 230 274 341 425
#     4  10  23  44  71  98 136 186 231 283 354 427
#     4  10  21  38  64 100 129 179 229 281 335 425
#     4  11  23  40  73  97 137 184 239 282 347 429
#     4   9  22  40  74  97 129 182 235 274 344 437
#     4  11  22  40  66 101 141 177 230 290 353 412
#
# _framework density 24.610409000000001
#
# number of rings (size 3 to 8) (size 9 to 14) (size 15 to 20)
#    0.000    1.600    3.333    1.600    5.600    2.133 
#    0.000    0.667    8.800    0.000    0.000    0.000 
#    0.000    0.000    0.000    0.000    0.000    0.000 
#
# Total GULP energy -167199.877785 kJ/mol
# GULP energy per Si atom -5573.329260 kJ/mol
# Density = 2.455439 g / cm^3
# Si number density = 24.610409 Si / 1000 Ang^3
#
#
#
# Elastic Constant Matrix: (Units=GPa)
#
#
# Indices 1 2 3 4 5 6 
#
# 1 136.0814 19.2855 48.6936 0.0000 30.2615 0.0000
# 2 19.2855 55.9974 20.9735 0.0000 11.8550 0.0000
# 3 48.6936 20.9735 166.6683 0.0000 33.8618 0.0000
# 4 0.0000 0.0000 0.0000 37.4644 0.0000 10.1983
# 5 30.2615 11.8550 33.8618 0.0000 45.5835 0.0000
# 6 0.0000 0.0000 0.0000 10.1983 0.0000 22.9210
#
#
#
# Elastic Compliance Matrix: (Units=1/GPa)
#
#
# Indices 1 2 3 4 5 6 
#
# 1 0.009131 -0.001613 -0.001553 0.000000 -0.004489 0.000000
# 2 -0.001613 0.019565 -0.001383 0.000000 -0.002990 0.000000
# 3 -0.001553 -0.001383 0.007473 0.000000 -0.004161 0.000000
# 4 0.000000 0.000000 0.000000 0.030370 0.000000 -0.013513
# 5 -0.004489 -0.002990 -0.004161 0.000000 0.028786 0.000000
# 6 0.000000 0.000000 0.000000 -0.013513 0.000000 0.049640
#
#
# Mechanical properties :
#
#
# Convention : Reuss Voigt Hill
#
# Bulk Modulus (GPa) = 36.94037 59.62802 48.28420
# Shear Modulus (GPa) = 30.65856 39.18009 34.91933
#
# Velocity S-wave (km/s) = 3.53336 3.99433 3.77089
# Velocity P-wave (km/s) = 5.62928 6.74939 6.21462
#
# Compressibility (1/GPa) = 0.02707065
#
# Stress axis : x y z
#
# Youngs Moduli (GPa) = 109.51768 51.11297 133.81509
#
# Poissons Ratio (x) = 0.08244 0.20778
# Poissons Ratio (y) = 0.17663 0.18511
# Poissons Ratio (z) = 0.17005 0.07071
#
# Static dielectric constant tensor:
#      x y z
#    x 2.023160 0.000000 0.022080 
#    y 0.000000 1.958540 0.000000 
#    z 0.022080 0.000000 2.227900 
# 
# From -- ./inp_files/308931.got.cif
#   From: 2010.05.17/outbox.cif.g08.bks.cpg/sg15_155_cif.got.tgz:308931.got - 2010.06.03 18:47:42.
