data_PCOD9281526
_publ_section_title
;
Structure prediction by ZEFSAII (Michael W. Deem and Ramdas Pophale) SiO2 
 PCOD9281526
Probable space group: C 2/C
;
_chemical_formula_sum "Si O2"
_cell_formula_units_Z 40
_cell_length_a 12.676731
_cell_length_b 6.388198
_cell_length_c 22.382675
_cell_angle_alpha 90.000000
_cell_angle_beta 78.219400
_cell_angle_gamma 90.000000
_cell_volume 1774.402686
_symmetry_space_group_name_H-M "C 2/C"
_symmetry_group_IT_number 15
_symmetry_cell_setting 'monoclinic'
loop_
_space_group_symop_operation_xyz
x,y,z
-x,y,1/2-z
-x,-y,-z
x,-y,1/2+z
1/2+x,1/2+y,z
1/2-x,1/2+y,1/2-z
1/2-x,1/2-y,-z
1/2+x,1/2-y,1/2+z
loop_
_atom_site_type_symbol
_atom_site_label
_atom_site_fract_x
_atom_site_fract_y
_atom_site_fract_z
Si Si1 0.891807 0.004647 0.751517
Si Si2 0.581295 0.924283 0.041675
Si Si3 0.284783 0.544545 0.442206
Si Si4 0.226024 0.207824 0.834862
Si Si5 0.877640 0.332441 0.856901
O O1 0.873259 0.107057 0.689116
O O2 0.907811 0.190679 0.797404
O O3 0.000000 0.870693 0.750000
O O4 0.789209 0.866784 0.783176
O O5 0.608859 0.679603 0.051638
O O6 0.545958 0.036496 0.107273
O O7 0.701904 0.988406 0.005593
O O8 0.500000 0.000000 0.000000
O O9 0.218790 0.673585 0.398825
O O10 0.320790 0.333494 0.407073
O O11 0.299967 0.009943 0.840845
#
# Coordination Sequence:
#
# PCOD9281526 Si02
#       5
#     8   8   8   8   8
#     4  11  23  39  62  88 119 164 206 253 313 366
#     4  10  21  38  62  92 121 157 204 247 298 370
#     4   9  21  40  60  87 124 159 196 251 307 352
#     4  10  21  42  59  88 125 157 206 259 303 365
#     4  10  21  41  61  86 124 160 200 253 308 359
#
# _framework density 22.542798000000001
#
# number of rings (size 3 to 8) (size 9 to 14) (size 15 to 20)
#    0.000    2.000    2.000    0.600    2.800    1.600 
#   10.800    0.000    0.000    0.000    0.000    0.000 
#    0.000    0.000    0.000    0.000    0.000    0.000 
#
# Total GULP energy -111471.698574 kJ/mol
# GULP energy per Si atom -5573.584929 kJ/mol
# Density = 2.249149 g / cm^3
# Si number density = 22.542798 Si / 1000 Ang^3
#
#
#
# Elastic Constant Matrix: (Units=GPa)
#
#
# Indices 1 2 3 4 5 6 
#
# 1 60.6905 17.4745 8.5429 0.0000 40.3217 0.0000
# 2 17.4745 92.6374 32.1592 0.0000 10.5332 0.0000
# 3 8.5429 32.1592 82.9163 0.0000 30.0156 0.0000
# 4 0.0000 0.0000 0.0000 23.3882 0.0000 4.6783
# 5 40.3217 10.5332 30.0156 0.0000 50.0498 0.0000
# 6 0.0000 0.0000 0.0000 4.6783 0.0000 12.7711
#
#
#
# Elastic Compliance Matrix: (Units=1/GPa)
#
#
# Indices 1 2 3 4 5 6 
#
# 1 0.046404 -0.008810 0.014686 0.000000 -0.044337 0.000000
# 2 -0.008810 0.014152 -0.007756 0.000000 0.008771 0.000000
# 3 0.014686 -0.007756 0.022030 0.000000 -0.023411 0.000000
# 4 0.000000 0.000000 0.000000 0.046137 0.000000 -0.016901
# 5 -0.044337 0.008771 -0.023411 0.000000 0.067894 0.000000
# 6 0.000000 0.000000 0.000000 -0.016901 0.000000 0.084493
#
#
# Mechanical properties :
#
#
# Convention : Reuss Voigt Hill
#
# Bulk Modulus (GPa) = 12.68630 39.17749 25.93190
# Shear Modulus (GPa) = 16.06964 29.11299 22.59131
#
# Velocity S-wave (km/s) = 2.67282 3.59758 3.16911
# Velocity P-wave (km/s) = 3.89425 5.88843 4.99194
#
# Compressibility (1/GPa) = 0.07882518
#
# Stress axis : x y z
#
# Youngs Moduli (GPa) = 21.55009 70.66155 45.39210
#
# Poissons Ratio (x) = 0.62254 -0.66663
# Poissons Ratio (y) = 0.18986 0.35207
# Poissons Ratio (z) = -0.31649 0.54807
#
# Static dielectric constant tensor:
#      x y z
#    x 1.904280 0.000000 -0.008140 
#    y 0.000000 1.844910 0.000000 
#    z -0.008140 0.000000 1.846850 
# 
# From -- ./inp_files/271637.got.cif
#   From: 2010.05.17/outbox.cif.g08.bks.cpg/sg15_136_cif.got.tgz:271637.got - 2010.06.03 18:47:42.
