data_PCOD9281322
_publ_section_title
;
Structure prediction by ZEFSAII (Michael W. Deem and Ramdas Pophale) SiO2 
 PCOD9281322
Probable space group: C 2/C
;
_chemical_formula_sum "Si O2"
_cell_formula_units_Z 56
_cell_length_a 16.165223
_cell_length_b 23.255189
_cell_length_c 8.540014
_cell_angle_alpha 90.000000
_cell_angle_beta 93.033337
_cell_angle_gamma 90.000000
_cell_volume 3205.909407
_symmetry_space_group_name_H-M "C 2/C"
_symmetry_group_IT_number 15
_symmetry_cell_setting 'monoclinic'
loop_
_space_group_symop_operation_xyz
x,y,z
-x,y,1/2-z
-x,-y,-z
x,-y,1/2+z
1/2+x,1/2+y,z
1/2-x,1/2+y,1/2-z
1/2-x,1/2-y,-z
1/2+x,1/2-y,1/2+z
loop_
_atom_site_type_symbol
_atom_site_label
_atom_site_fract_x
_atom_site_fract_y
_atom_site_fract_z
Si Si1 0.805596 0.502845 0.295237
Si Si2 0.277906 0.797999 0.631814
Si Si3 0.572212 0.754304 0.635635
Si Si4 0.724291 0.916709 0.455065
Si Si5 0.537919 0.131644 0.929240
Si Si6 0.624444 0.083864 0.441000
Si Si7 0.692198 0.303281 0.942265
O O1 0.755017 0.462760 0.174233
O O2 0.755577 0.550491 0.383353
O O3 0.870482 0.542547 0.208599
O O4 0.844280 0.457956 0.419148
O O5 0.250000 0.750000 0.500000
O O6 0.352469 0.771384 0.741749
O O7 0.317293 0.858696 0.571296
O O8 0.206057 0.808930 0.756081
O O9 0.500000 0.738473 0.750000
O O10 0.551978 0.809581 0.526047
O O11 0.603163 0.708752 0.509569
O O12 0.625564 0.902085 0.431681
O O13 0.770690 0.857442 0.463734
O O14 0.500000 0.139610 0.750000
O O15 0.467974 0.100578 0.023850
O O16 0.750000 0.250000 0.000000
#
# Coordination Sequence:
#
# PCOD9281322 Si02
#       7
#     8   8   8   8   8   8   8
#     4  10  23  35  55  78 121 161 205 238 276 347
#     4  11  23  37  61  86 114 156 198 251 301 350
#     4  11  23  39  58  87 117 153 195 251 306 350
#     4  11  21  39  52  84 113 157 203 242 288 341
#     4  12  23  34  57  79 121 167 201 240 283 338
#     4  11  22  37  53  82 122 158 207 233 286 342
#     4  10  21  38  61  78 115 149 198 248 302 343
#
# _framework density 17.467742999999999
#
# number of rings (size 3 to 8) (size 9 to 14) (size 15 to 20)
#    0.000    1.143    7.143    0.000    6.000    3.429 
#    0.000    0.000    0.000    0.000    0.000    1.000 
#    0.000    0.000    0.000    0.000    0.000    0.000 
#
# Total GULP energy -155934.180959 kJ/mol
# GULP energy per Si atom -5569.077891 kJ/mol
# Density = 1.742799 g / cm^3
# Si number density = 17.467743 Si / 1000 Ang^3
#
#
#
# Elastic Constant Matrix: (Units=GPa)
#
#
# Indices 1 2 3 4 5 6 
#
# 1 43.2170 29.2596 29.7862 0.0000 -18.0228 0.0000
# 2 29.2596 102.0607 29.4081 0.0000 -6.4822 0.0000
# 3 29.7862 29.4081 91.4476 0.0000 -9.9482 0.0000
# 4 0.0000 0.0000 0.0000 31.5435 0.0000 -0.8156
# 5 -18.0228 -6.4822 -9.9482 0.0000 21.0028 0.0000
# 6 0.0000 0.0000 0.0000 -0.8156 0.0000 22.3750
#
#
#
# Elastic Compliance Matrix: (Units=1/GPa)
#
#
# Indices 1 2 3 4 5 6 
#
# 1 0.051773 -0.009698 -0.009739 0.000000 0.036821 0.000000
# 2 -0.009698 0.012679 -0.001474 0.000000 -0.005107 0.000000
# 3 -0.009739 -0.001474 0.014363 0.000000 -0.002009 0.000000
# 4 0.000000 0.000000 0.000000 0.031732 0.000000 0.001157
# 5 0.036821 -0.005107 -0.002009 0.000000 0.076681 0.000000
# 6 0.000000 0.000000 0.000000 0.001157 0.000000 0.044735
#
#
# Mechanical properties :
#
#
# Convention : Reuss Voigt Hill
#
# Bulk Modulus (GPa) = 27.03261 45.95923 36.49592
# Shear Modulus (GPa) = 17.47547 24.86902 21.17224
#
# Velocity S-wave (km/s) = 3.16641 3.77730 3.48527
# Velocity P-wave (km/s) = 5.37378 6.73736 6.09383
#
# Compressibility (1/GPa) = 0.03699236
#
# Stress axis : x y z
#
# Youngs Moduli (GPa) = 19.31526 78.87229 69.62374
#
# Poissons Ratio (x) = 0.76488 0.67807
# Poissons Ratio (y) = 0.18731 0.10263
# Poissons Ratio (z) = 0.18811 0.11627
#
# Static dielectric constant tensor:
#      x y z
#    x 1.597720 0.000000 -0.034820 
#    y 0.000000 1.611150 0.000000 
#    z -0.034820 0.000000 1.714260 
# 
# From -- ./inp_files/49736.got.cif
#   From: 2010.05.17/outbox.cif.g08.bks.cpg/sg15_25_cif.got.tgz:49736.got - 2010.06.03 18:47:42.
