data_PCOD9281473
_publ_section_title
;
Structure prediction by ZEFSAII (Michael W. Deem and Ramdas Pophale) SiO2 
 PCOD9281473
Probable space group: C 2/C
;
_chemical_formula_sum "Si O2"
_cell_formula_units_Z 44
_cell_length_a 20.638350
_cell_length_b 15.046494
_cell_length_c 14.352165
_cell_angle_alpha 90.000000
_cell_angle_beta 155.223054
_cell_angle_gamma 90.000000
_cell_volume 1867.805619
_symmetry_space_group_name_H-M "C 2/C"
_symmetry_group_IT_number 15
_symmetry_cell_setting 'monoclinic'
loop_
_space_group_symop_operation_xyz
x,y,z
-x,y,1/2-z
-x,-y,-z
x,-y,1/2+z
1/2+x,1/2+y,z
1/2-x,1/2+y,1/2-z
1/2-x,1/2-y,-z
1/2+x,1/2-y,1/2+z
loop_
_atom_site_type_symbol
_atom_site_label
_atom_site_fract_x
_atom_site_fract_y
_atom_site_fract_z
Si Si1 0.046554 0.522878 0.910628
Si Si2 0.797484 0.566332 0.210307
Si Si3 0.038471 0.248228 0.592697
Si Si4 0.000000 0.976616 0.750000
Si Si5 0.089884 0.200054 0.277123
Si Si6 0.148673 0.323326 0.003743
O O1 0.000000 0.560979 0.750000
O O2 0.899988 0.507711 0.788195
O O3 0.171164 0.568845 0.138568
O O4 0.117094 0.426021 0.982368
O O5 0.869524 0.658901 0.271984
O O6 0.624990 0.539226 0.961903
O O7 0.176529 0.182861 0.804439
O O8 0.990626 0.225556 0.424977
O O9 0.879470 0.262954 0.441471
O O10 0.081482 0.907308 0.783464
O O11 0.250000 0.250000 0.500000
O O12 0.000000 0.233410 0.250000
O O13 0.000000 0.292962 0.750000
#
# Coordination Sequence:
#
# PCOD9281473 Si02
#       6
#     8   8   8   4   8   8
#     4   9  20  40  63  85 122 168 213 251 326 384
#     4  10  22  39  65  90 129 168 207 267 323 381
#     4  11  22  39  64  93 126 166 217 262 318 380
#     4  10  24  44  64  92 140 162 214 270 328 372
#     4  10  23  40  67  93 127 171 215 261 316 385
#     4  10  21  38  62  88 122 166 210 262 314 386
#
# _framework density 23.557054000000001
#
# number of rings (size 3 to 8) (size 9 to 14) (size 15 to 20)
#    0.545    1.455    0.000    2.727    8.909    0.727 
#    3.273    0.909    0.000    0.000    0.000    0.000 
#    0.000    0.000    0.000    0.000    0.000    0.000 
#
# Total GULP energy -122727.180357 kJ/mol
# GULP energy per Si atom -5578.508198 kJ/mol
# Density = 2.350344 g / cm^3
# Si number density = 23.557054 Si / 1000 Ang^3
#
#
#
# Elastic Constant Matrix: (Units=GPa)
#
#
# Indices 1 2 3 4 5 6 
#
# 1 53.9302 -8.1329 11.5407 0.0000 -14.0833 0.0000
# 2 -8.1329 54.0040 19.7683 0.0000 0.6762 0.0000
# 3 11.5407 19.7683 134.9693 0.0000 -7.5879 0.0000
# 4 0.0000 0.0000 0.0000 20.2893 0.0000 9.7797
# 5 -14.0833 0.6762 -7.5879 0.0000 45.6089 0.0000
# 6 0.0000 0.0000 0.0000 9.7797 0.0000 18.7710
#
#
#
# Elastic Compliance Matrix: (Units=1/GPa)
#
#
# Indices 1 2 3 4 5 6 
#
# 1 0.021161 0.003852 -0.002028 0.000000 0.006140 0.000000
# 2 0.003852 0.020295 -0.003283 0.000000 0.000343 0.000000
# 3 -0.002028 -0.003283 0.008107 0.000000 0.000771 0.000000
# 4 0.000000 0.000000 0.000000 0.065815 0.000000 -0.034290
# 5 0.006140 0.000343 0.000771 0.000000 0.023945 0.000000
# 6 0.000000 0.000000 0.000000 -0.034290 0.000000 0.071139
#
#
# Mechanical properties :
#
#
# Convention : Reuss Voigt Hill
#
# Bulk Modulus (GPa) = 21.43859 32.13951 26.78905
# Shear Modulus (GPa) = 21.84109 31.58233 26.71171
#
# Velocity S-wave (km/s) = 3.04823 3.66549 3.37102
# Velocity P-wave (km/s) = 4.63782 5.62026 5.15251
#
# Compressibility (1/GPa) = 0.04664485
#
# Stress axis : x y z
#
# Youngs Moduli (GPa) = 47.25716 49.27412 123.35518
#
# Poissons Ratio (x) = -0.18983 0.25022
# Poissons Ratio (y) = -0.18206 0.40493
# Poissons Ratio (z) = 0.09586 0.16175
#
# Static dielectric constant tensor:
#      x y z
#    x 1.992130 0.000000 0.006800 
#    y 0.000000 1.907460 0.000000 
#    z 0.006800 0.000000 1.885100 
# 
# From -- ./inp_files/145430.got.cif
#   From: 2010.05.17/outbox.cif.g08.bks.cpg/sg15_73_cif.got.tgz:145430.got - 2010.06.03 18:47:42.
