data_PCOD9281190
_publ_section_title
;
Structure prediction by ZEFSAII (Michael W. Deem and Ramdas Pophale) SiO2 
 PCOD9281190
Probable space group: C 2/C
;
_chemical_formula_sum "Si O2"
_cell_formula_units_Z 56
_cell_length_a 26.137455
_cell_length_b 19.812232
_cell_length_c 9.229490
_cell_angle_alpha 90.000000
_cell_angle_beta 142.515153
_cell_angle_gamma 90.000000
_cell_volume 2908.518349
_symmetry_space_group_name_H-M "C 2/C"
_symmetry_group_IT_number 15
_symmetry_cell_setting 'monoclinic'
loop_
_space_group_symop_operation_xyz
x,y,z
-x,y,1/2-z
-x,-y,-z
x,-y,1/2+z
1/2+x,1/2+y,z
1/2-x,1/2+y,1/2-z
1/2-x,1/2-y,-z
1/2+x,1/2-y,1/2+z
loop_
_atom_site_type_symbol
_atom_site_label
_atom_site_fract_x
_atom_site_fract_y
_atom_site_fract_z
Si Si1 0.416794 0.670727 0.645235
Si Si2 0.824118 0.490555 0.594735
Si Si3 0.342801 0.226291 0.747534
Si Si4 0.971608 0.203346 0.350352
Si Si5 0.554572 0.451772 0.727337
Si Si6 0.291108 0.548162 0.402365
Si Si7 0.902853 0.414129 0.499953
O O1 0.500000 0.642806 0.750000
O O2 0.377598 0.725492 0.451725
O O3 0.351136 0.612356 0.529237
O O4 0.449106 0.705519 0.864043
O O5 0.767531 0.541538 0.370706
O O6 0.763804 0.453560 0.575041
O O7 0.864140 0.442435 0.562854
O O8 0.890472 0.529767 0.845848
O O9 0.250000 0.250000 0.500000
O O10 0.403727 0.242245 0.748862
O O11 0.353336 0.150786 0.829127
O O12 0.937166 0.126715 0.296941
O O13 0.000000 0.211368 0.250000
O O14 0.500000 0.451038 0.750000
O O15 0.500000 0.500000 0.500000
O O16 0.645868 0.484187 0.952881
O O17 0.000000 0.397893 0.750000
#
# Coordination Sequence:
#
# PCOD9281190 Si02
#       7
#     8   8   8   8   8   8   8
#     4  10  21  38  59  88 127 173 210 249 306 395
#     4  10  25  38  65  95 124 157 215 281 319 378
#     4  11  25  43  68  91 128 169 212 267 326 391
#     4  10  23  39  59  92 130 168 217 249 307 386
#     4  11  21  32  56  93 131 182 203 246 299 381
#     4  11  21  35  57  93 135 163 210 259 321 360
#     4  11  23  48  69  92 119 166 215 270 336 379
#
# _framework density 19.253789000000001
#
# number of rings (size 3 to 8) (size 9 to 14) (size 15 to 20)
#    0.000    1.429    1.429    3.857   12.000    0.000 
#    0.000   10.714    0.000    0.000    0.000    0.000 
#    0.000    0.000    0.000    0.000    0.000    0.000 
#
# Total GULP energy -156420.745862 kJ/mol
# GULP energy per Si atom -5586.455209 kJ/mol
# Density = 1.920997 g / cm^3
# Si number density = 19.253789 Si / 1000 Ang^3
#
#
#
# Elastic Constant Matrix: (Units=GPa)
#
#
# Indices 1 2 3 4 5 6 
#
# 1 103.0869 43.0003 49.7766 0.0000 -21.7351 0.0000
# 2 43.0003 78.4310 12.6344 0.0000 -1.1386 0.0000
# 3 49.7766 12.6344 98.1786 0.0000 -6.4321 0.0000
# 4 0.0000 0.0000 0.0000 30.7959 0.0000 1.3856
# 5 -21.7351 -1.1386 -6.4321 0.0000 33.0406 0.0000
# 6 0.0000 0.0000 0.0000 1.3856 0.0000 20.4241
#
#
#
# Elastic Compliance Matrix: (Units=1/GPa)
#
#
# Indices 1 2 3 4 5 6 
#
# 1 0.019953 -0.009461 -0.008164 0.000000 0.011210 0.000000
# 2 -0.009461 0.017507 0.002204 0.000000 -0.005192 0.000000
# 3 -0.008164 0.002204 0.013871 0.000000 -0.002594 0.000000
# 4 0.000000 0.000000 0.000000 0.032571 0.000000 -0.002210
# 5 0.011210 -0.005192 -0.002594 0.000000 0.036956 0.000000
# 6 0.000000 0.000000 0.000000 -0.002210 0.000000 0.049112
#
#
# Mechanical properties :
#
#
# Convention : Reuss Voigt Hill
#
# Bulk Modulus (GPa) = 48.80980 54.50211 51.65595
# Shear Modulus (GPa) = 24.07982 28.47114 26.27548
#
# Velocity S-wave (km/s) = 3.54029 3.84960 3.69818
# Velocity P-wave (km/s) = 6.48979 6.93742 6.71734
#
# Compressibility (1/GPa) = 0.02048769
#
# Stress axis : x y z
#
# Youngs Moduli (GPa) = 50.11807 57.12018 72.09207
#
# Poissons Ratio (x) = 0.54044 0.58857
# Poissons Ratio (y) = 0.47419 -0.15888
# Poissons Ratio (z) = 0.40917 -0.12589
#
# Static dielectric constant tensor:
#      x y z
#    x 1.661640 0.000000 0.001270 
#    y 0.000000 1.681130 0.000000 
#    z 0.001270 0.000000 1.689150 
# 
# From -- ./inp_files/67200.got.cif
#   From: 2010.05.17/outbox.cif.g08.bks.cpg/sg15_34_cif.got.tgz:67200.got - 2010.06.03 18:47:42.
