data_PCOD9281714
_publ_section_title
;
Structure prediction by ZEFSAII (Michael W. Deem and Ramdas Pophale) SiO2 
 PCOD9281714
Probable space group: C 2/C
;
_chemical_formula_sum "Si O2"
_cell_formula_units_Z 56
_cell_length_a 7.269928
_cell_length_b 23.190162
_cell_length_c 18.380209
_cell_angle_alpha 90.000000
_cell_angle_beta 61.149288
_cell_angle_gamma 90.000000
_cell_volume 2714.119204
_symmetry_space_group_name_H-M "C 2/C"
_symmetry_group_IT_number 15
_symmetry_cell_setting 'monoclinic'
loop_
_space_group_symop_operation_xyz
x,y,z
-x,y,1/2-z
-x,-y,-z
x,-y,1/2+z
1/2+x,1/2+y,z
1/2-x,1/2+y,1/2-z
1/2-x,1/2-y,-z
1/2+x,1/2-y,1/2+z
loop_
_atom_site_type_symbol
_atom_site_label
_atom_site_fract_x
_atom_site_fract_y
_atom_site_fract_z
Si Si1 0.807011 0.156161 0.993913
Si Si2 0.832705 0.122068 0.332876
Si Si3 0.483290 0.794252 0.651563
Si Si4 0.998084 0.431915 0.993848
Si Si5 0.528741 0.154202 0.865631
Si Si6 0.330049 0.670334 0.681157
Si Si7 0.936297 0.787414 0.610030
O O1 0.606622 0.198348 0.049251
O O2 0.960692 0.177104 0.029436
O O3 0.696350 0.093776 0.016974
O O4 0.937095 0.158778 0.894725
O O5 0.651189 0.148614 0.317031
O O6 0.716184 0.084649 0.414219
O O7 0.000000 0.091431 0.250000
O O8 0.944271 0.176056 0.351957
O O9 0.334231 0.739652 0.681084
O O10 0.317697 0.788881 0.833752
O O11 0.981529 0.394247 0.070751
O O12 0.000000 0.500000 0.000000
O O13 0.741376 0.151246 0.776118
O O14 0.336882 0.147708 0.845684
O O15 0.507314 0.219887 0.900573
#
# Coordination Sequence:
#
# PCOD9281714 Si02
#       7
#     8   8   8   8   8   8   8
#     4   9  22  38  64  93 130 172 211 265 322 396
#     4  11  22  40  66  98 131 171 215 267 331 398
#     4   9  20  34  60  96 144 163 199 252 329 415
#     4  11  26  49  64  86 128 181 230 276 327 375
#     4  11  24  36  67  97 138 176 206 278 322 401
#     4  11  20  38  59 108 134 164 219 257 342 390
#     4  10  21  38  64 105 134 173 198 265 345 391
#
# _framework density 20.632845
#
# number of rings (size 3 to 8) (size 9 to 14) (size 15 to 20)
#    0.857    0.857    1.429    3.000    4.000    5.143 
#    2.571    2.857    3.143    0.000    0.000    0.000 
#    0.000    0.000    0.000    0.000    0.000    0.000 
#
# Total GULP energy -156074.638933 kJ/mol
# GULP energy per Si atom -5574.094248 kJ/mol
# Density = 2.058588 g / cm^3
# Si number density = 20.632845 Si / 1000 Ang^3
#
#
#
# Elastic Constant Matrix: (Units=GPa)
#
#
# Indices 1 2 3 4 5 6 
#
# 1 63.0078 33.3100 34.6837 0.0000 9.8590 0.0000
# 2 33.3100 127.9142 63.6442 0.0000 2.8904 0.0000
# 3 34.6837 63.6442 174.3965 0.0000 -20.0264 0.0000
# 4 0.0000 0.0000 0.0000 8.7878 0.0000 -3.6110
# 5 9.8590 2.8904 -20.0264 0.0000 35.8266 0.0000
# 6 0.0000 0.0000 0.0000 -3.6110 0.0000 13.1962
#
#
#
# Elastic Compliance Matrix: (Units=1/GPa)
#
#
# Indices 1 2 3 4 5 6 
#
# 1 0.020949 -0.003391 -0.003804 0.000000 -0.007618 0.000000
# 2 -0.003391 0.010393 -0.003321 0.000000 -0.001762 0.000000
# 3 -0.003804 -0.003321 0.008392 0.000000 0.006006 0.000000
# 4 0.000000 0.000000 0.000000 0.128211 0.000000 0.035084
# 5 -0.007618 -0.001762 0.006006 0.000000 0.033508 0.000000
# 6 0.000000 0.000000 0.000000 0.035084 0.000000 0.085380
#
#
# Mechanical properties :
#
#
# Convention : Reuss Voigt Hill
#
# Bulk Modulus (GPa) = 53.46473 69.84383 61.65428
# Shear Modulus (GPa) = 15.91863 27.14081 21.52972
#
# Velocity S-wave (km/s) = 2.78064 3.63080 3.23378
# Velocity P-wave (km/s) = 6.02312 7.17644 6.62492
#
# Compressibility (1/GPa) = 0.01870392
#
# Stress axis : x y z
#
# Youngs Moduli (GPa) = 47.73406 96.22113 119.16068
#
# Poissons Ratio (x) = 0.32626 0.45326
# Poissons Ratio (y) = 0.16185 0.39569
# Poissons Ratio (z) = 0.18157 0.31952
#
# Static dielectric constant tensor:
#      x y z
#    x 1.775270 0.000000 0.012160 
#    y 0.000000 1.676010 0.000000 
#    z 0.012160 0.000000 1.875180 
# 
# From -- ./inp_files/193189.got.cif
#   From: 2010.05.17/outbox.cif.g08.bks.cpg/sg15_97_cif.got.tgz:193189.got - 2010.06.03 18:47:42.
