data_PCOD9281188
_publ_section_title
;
Structure prediction by ZEFSAII (Michael W. Deem and Ramdas Pophale) SiO2 
 PCOD9281188
Probable space group: C 2/C
;
_chemical_formula_sum "Si O2"
_cell_formula_units_Z 40
_cell_length_a 15.634280
_cell_length_b 11.922694
_cell_length_c 18.925982
_cell_angle_alpha 90.000000
_cell_angle_beta 36.273144
_cell_angle_gamma 90.000000
_cell_volume 2087.203645
_symmetry_space_group_name_H-M "C 2/C"
_symmetry_group_IT_number 15
_symmetry_cell_setting 'monoclinic'
loop_
_space_group_symop_operation_xyz
x,y,z
-x,y,1/2-z
-x,-y,-z
x,-y,1/2+z
1/2+x,1/2+y,z
1/2-x,1/2+y,1/2-z
1/2-x,1/2-y,-z
1/2+x,1/2-y,1/2+z
loop_
_atom_site_type_symbol
_atom_site_label
_atom_site_fract_x
_atom_site_fract_y
_atom_site_fract_z
Si Si1 0.733665 0.539573 0.849952
Si Si2 0.556485 0.659167 0.433370
Si Si3 0.828777 0.720218 0.875929
Si Si4 0.617346 0.428690 0.735376
Si Si5 0.126175 0.579371 0.887372
O O1 0.685876 0.412135 0.881293
O O2 0.788812 0.593765 0.884451
O O3 0.849293 0.560852 0.712345
O O4 0.589322 0.614622 0.932529
O O5 0.550989 0.614564 0.354822
O O6 0.586391 0.790023 0.421528
O O7 0.783629 0.822204 0.854052
O O8 0.000000 0.725165 0.750000
O O9 0.750000 0.750000 0.000000
O O10 0.500000 0.449841 0.750000
O O11 0.722681 0.533992 0.679369
O O12 0.000000 0.500000 0.000000
#
# Coordination Sequence:
#
# PCOD9281188 Si02
#       5
#     8   8   8   8   8
#     4  10  21  38  59  88 123 162 209 257 317 376
#     4  10  21  40  61  87 127 162 205 262 316 376
#     4  11  22  36  62  91 128 158 211 265 314 366
#     4  10  21  38  62  92 127 164 205 257 318 368
#     4  11  23  36  63  92 123 166 214 256 309 385
#
# _framework density 19.164397999999998
#
# number of rings (size 3 to 8) (size 9 to 14) (size 15 to 20)
#    0.000    1.600    2.000    3.600    5.600    0.000 
#    0.000    1.000    0.000   16.800    0.000    0.000 
#    0.000    0.000    0.000    0.000    0.000    0.000 
#
# Total GULP energy -111360.613369 kJ/mol
# GULP energy per Si atom -5568.030668 kJ/mol
# Density = 1.912078 g / cm^3
# Si number density = 19.164398 Si / 1000 Ang^3
#
#
#
# Elastic Constant Matrix: (Units=GPa)
#
#
# Indices 1 2 3 4 5 6 
#
# 1 75.3019 37.3151 28.4647 0.0000 3.9603 0.0000
# 2 37.3151 161.1234 65.2448 0.0000 -8.1965 0.0000
# 3 28.4647 65.2448 138.9601 -0.0001 19.2913 0.0000
# 4 0.0000 0.0000 -0.0001 29.6875 0.0000 -2.6632
# 5 3.9603 -8.1965 19.2913 0.0000 28.7067 0.0000
# 6 0.0000 0.0000 0.0000 -2.6632 0.0000 35.1199
#
#
#
# Elastic Compliance Matrix: (Units=1/GPa)
#
#
# Indices 1 2 3 4 5 6 
#
# 1 0.015468 -0.003112 -0.001420 0.000000 -0.002068 0.000000
# 2 -0.003112 0.009026 -0.004431 0.000000 0.005984 0.000000
# 3 -0.001420 -0.004431 0.010716 0.000000 -0.008271 0.000000
# 4 0.000000 0.000000 0.000000 0.033915 0.000000 0.002572
# 5 -0.002068 0.005984 -0.008271 0.000000 0.042387 0.000000
# 6 0.000000 0.000000 0.000000 0.002572 0.000000 0.028669
#
#
# Mechanical properties :
#
#
# Convention : Reuss Voigt Hill
#
# Bulk Modulus (GPa) = 57.86175 70.82607 64.34391
# Shear Modulus (GPa) = 30.51231 34.99353 32.75292
#
# Velocity S-wave (km/s) = 3.99449 4.27777 4.13855
# Velocity P-wave (km/s) = 7.17861 7.83814 7.51561
#
# Compressibility (1/GPa) = 0.01728258
#
# Stress axis : x y z
#
# Youngs Moduli (GPa) = 64.65063 110.79094 93.31975
#
# Poissons Ratio (x) = 0.34483 0.13251
# Poissons Ratio (y) = 0.20122 0.41351
# Poissons Ratio (z) = 0.09180 0.49093
#
# Static dielectric constant tensor:
#      x y z
#    x 1.773880 0.000000 0.007750 
#    y 0.000000 1.690820 0.000000 
#    z 0.007750 0.000000 1.490100 
# 
# From -- ./inp_files/122525.got.cif
#   From: 2010.05.17/outbox.cif.g08.bks.cpg/sg15_62_cif.got.tgz:122525.got - 2010.06.03 18:47:42.
