data_PCOD9281607
_publ_section_title
;
Structure prediction by ZEFSAII (Michael W. Deem and Ramdas Pophale) SiO2 
 PCOD9281607
Probable space group: C 2/C
;
_chemical_formula_sum "Si O2"
_cell_formula_units_Z 44
_cell_length_a 5.312998
_cell_length_b 25.866602
_cell_length_c 17.080437
_cell_angle_alpha 90.000000
_cell_angle_beta 130.439212
_cell_angle_gamma 90.000000
_cell_volume 1786.556003
_symmetry_space_group_name_H-M "C 2/C"
_symmetry_group_IT_number 15
_symmetry_cell_setting 'monoclinic'
loop_
_space_group_symop_operation_xyz
x,y,z
-x,y,1/2-z
-x,-y,-z
x,-y,1/2+z
1/2+x,1/2+y,z
1/2-x,1/2+y,1/2-z
1/2-x,1/2-y,-z
1/2+x,1/2-y,1/2+z
loop_
_atom_site_type_symbol
_atom_site_label
_atom_site_fract_x
_atom_site_fract_y
_atom_site_fract_z
Si Si1 0.883400 0.599156 0.637306
Si Si2 0.372516 0.331396 0.532683
Si Si3 0.000000 0.160204 0.750000
Si Si4 0.757674 0.520236 0.127176
Si Si5 0.240201 0.239543 0.905657
Si Si6 0.256488 0.577372 0.126170
O O1 0.604907 0.634605 0.541834
O O2 0.790727 0.539558 0.610821
O O3 0.000000 0.607938 0.750000
O O4 0.219191 0.619989 0.664362
O O5 0.693342 0.296714 0.615688
O O6 0.271636 0.368760 0.583152
O O7 0.069767 0.293083 0.454035
O O8 0.956406 0.202898 0.811568
O O9 0.410792 0.537146 0.094436
O O10 0.000000 0.526427 0.250000
O O11 0.915281 0.555876 0.091816
O O12 0.250000 0.250000 0.000000
O O13 0.500000 0.580718 0.250000
#
# Coordination Sequence:
#
# PCOD9281607 Si02
#       6
#     8   8   4   8   8   8
#     4  10  21  38  63  89 121 164 205 262 313 381
#     4  10  23  39  61  90 123 164 212 262 323 372
#     4  10  22  38  64  88 114 162 210 252 332 366
#     4   9  21  38  63  92 132 165 212 254 311 375
#     4  10  22  41  60  89 123 158 213 270 310 380
#     4  10  22  41  61  97 129 170 206 259 314 381
#
# _framework density 24.628391000000001
#
# number of rings (size 3 to 8) (size 9 to 14) (size 15 to 20)
#    0.000    2.182    0.000    1.091    8.909    2.909 
#    1.636    1.818    0.000    0.000    0.000    0.000 
#    0.000    0.000    0.000    0.000    0.000    0.000 
#
# Total GULP energy -122695.875508 kJ/mol
# GULP energy per Si atom -5577.085250 kJ/mol
# Density = 2.457234 g / cm^3
# Si number density = 24.628391 Si / 1000 Ang^3
#
#
#
# Elastic Constant Matrix: (Units=GPa)
#
#
# Indices 1 2 3 4 5 6 
#
# 1 63.7011 48.8256 37.6960 0.0000 -15.3394 0.0000
# 2 48.8256 174.6366 44.9311 0.0000 -11.9628 0.0000
# 3 37.6960 44.9311 99.7911 0.0000 -19.8493 0.0000
# 4 0.0000 0.0000 0.0000 33.0902 0.0000 -15.8286
# 5 -15.3394 -11.9628 -19.8493 0.0000 39.2400 0.0000
# 6 0.0000 0.0000 0.0000 -15.8286 0.0000 31.6307
#
#
#
# Elastic Compliance Matrix: (Units=1/GPa)
#
#
# Indices 1 2 3 4 5 6 
#
# 1 0.024148 -0.004885 -0.005939 0.000000 0.004947 0.000000
# 2 -0.004885 0.007475 -0.001609 0.000000 -0.000444 0.000000
# 3 -0.005939 -0.001609 0.013820 0.000000 0.004179 0.000000
# 4 0.000000 0.000000 0.000000 0.039731 0.000000 0.019882
# 5 0.004947 -0.000444 0.004179 0.000000 0.029396 0.000000
# 6 0.000000 0.000000 0.000000 0.019882 0.000000 0.041564
#
#
# Mechanical properties :
#
#
# Convention : Reuss Voigt Hill
#
# Bulk Modulus (GPa) = 48.59437 66.78159 57.68798
# Shear Modulus (GPa) = 26.61586 34.57057 30.59321
#
# Velocity S-wave (km/s) = 3.29096 3.75065 3.52830
# Velocity P-wave (km/s) = 5.84931 6.77724 6.33030
#
# Compressibility (1/GPa) = 0.02057852
#
# Stress axis : x y z
#
# Youngs Moduli (GPa) = 41.41201 133.77278 72.35960
#
# Poissons Ratio (x) = 0.65342 0.42971
# Poissons Ratio (y) = 0.20228 0.11643
# Poissons Ratio (z) = 0.24593 0.21525
#
# Static dielectric constant tensor:
#      x y z
#    x 2.037840 0.000000 -0.000880 
#    y 0.000000 1.966000 0.000000 
#    z -0.000880 0.000000 2.024860 
# 
# From -- ./inp_files/129811.got.cif
#   From: 2010.05.17/outbox.cif.g08.bks.cpg/sg15_65_cif.got.tgz:129811.got - 2010.06.03 18:47:42.
