data_PCOD9281409
_publ_section_title
;
Structure prediction by ZEFSAII (Michael W. Deem and Ramdas Pophale) SiO2 
 PCOD9281409
Probable space group: C 2/C
;
_chemical_formula_sum "Si O2"
_cell_formula_units_Z 64
_cell_length_a 22.194552
_cell_length_b 20.959967
_cell_length_c 19.379718
_cell_angle_alpha 90.000000
_cell_angle_beta 19.783010
_cell_angle_gamma 90.000000
_cell_volume 3051.338407
_symmetry_space_group_name_H-M "C 2/C"
_symmetry_group_IT_number 15
_symmetry_cell_setting 'monoclinic'
loop_
_space_group_symop_operation_xyz
x,y,z
-x,y,1/2-z
-x,-y,-z
x,-y,1/2+z
1/2+x,1/2+y,z
1/2-x,1/2+y,1/2-z
1/2-x,1/2-y,-z
1/2+x,1/2-y,1/2+z
loop_
_atom_site_type_symbol
_atom_site_label
_atom_site_fract_x
_atom_site_fract_y
_atom_site_fract_z
Si Si1 0.397703 0.607391 0.431638
Si Si2 0.512349 0.107177 0.318073
Si Si3 0.484100 0.954342 0.185844
Si Si4 0.814553 0.141637 0.738986
Si Si5 0.875081 0.971293 0.076623
Si Si6 0.530874 0.283731 0.547344
Si Si7 0.705307 0.608106 0.377676
Si Si8 0.657567 0.847659 0.911809
O O1 0.500000 0.607595 0.250000
O O2 0.208800 0.573132 0.626463
O O3 0.483131 0.562187 0.398576
O O4 0.390526 0.677277 0.472767
O O5 0.500000 0.120606 0.250000
O O6 0.352919 0.142586 0.530225
O O7 0.701805 0.123919 0.149808
O O8 0.488333 0.030174 0.352643
O O9 0.500000 0.940894 0.250000
O O10 0.614164 0.911724 0.999333
O O11 0.776759 0.085160 0.723470
O O12 0.855438 0.201354 0.644782
O O13 0.998051 0.126010 0.584214
O O14 0.775120 0.031999 0.154494
O O15 0.000000 0.000000 0.000000
O O16 0.517933 0.208938 0.573706
O O17 0.341053 0.315914 0.738752
O O18 0.819769 0.638601 0.193125
#
# Coordination Sequence:
#
# PCOD9281409 Si02
#       8
#     8   8   8   8   8   8   8   8
#     4  11  22  38  61  87 127 169 204 249 307 366
#     4  11  24  39  61  96 127 162 205 254 316 379
#     4  11  24  39  56  91 130 165 202 249 304 368
#     4   9  21  38  61  88 126 155 208 257 305 374
#     4   9  18  35  57  86 117 158 204 249 305 359
#     4  10  23  41  62  95 114 163 209 257 305 358
#     4  10  21  38  61  92 118 165 200 260 315 361
#     4  11  23  40  65  88 123 156 213 256 302 370
#
# _framework density 20.974402000000001
#
# number of rings (size 3 to 8) (size 9 to 14) (size 15 to 20)
#    0.000    1.750    1.250    3.000    5.250    8.000 
#    0.000    2.500    0.000    0.750    0.000    0.000 
#    0.000    0.000    0.000    0.000    0.000    0.000 
#
# Total GULP energy -178610.889049 kJ/mol
# GULP energy per Si atom -5581.590283 kJ/mol
# Density = 2.092666 g / cm^3
# Si number density = 20.974402 Si / 1000 Ang^3
#
#
#
# Elastic Constant Matrix: (Units=GPa)
#
#
# Indices 1 2 3 4 5 6 
#
# 1 124.7584 3.4091 40.1938 0.0103 1.0010 0.0043
# 2 3.4091 34.3315 6.8844 0.0318 3.6367 -0.0157
# 3 40.1938 6.8844 86.3601 -0.0051 4.6909 -0.0060
# 4 0.0103 0.0318 -0.0051 21.3701 -0.0077 -1.3567
# 5 1.0010 3.6367 4.6909 -0.0077 31.2305 0.0024
# 6 0.0043 -0.0157 -0.0060 -1.3567 0.0024 5.3620
#
#
#
# Elastic Compliance Matrix: (Units=1/GPa)
#
#
# Indices 1 2 3 4 5 6 
#
# 1 0.009434 -0.000093 -0.004403 -0.000006 0.000370 -0.000014
# 2 -0.000093 0.029906 -0.002169 -0.000041 -0.003154 0.000076
# 3 -0.004403 -0.002169 0.013894 0.000009 -0.001693 0.000016
# 4 -0.000006 -0.000041 0.000009 0.047558 0.000014 0.012033
# 5 0.000370 -0.003154 -0.001693 0.000014 0.032630 -0.000022
# 6 -0.000014 0.000076 0.000016 0.012033 -0.000022 0.189541
#
#
# Mechanical properties :
#
#
# Convention : Reuss Voigt Hill
#
# Bulk Modulus (GPa) = 25.06134 38.49163 31.77648
# Shear Modulus (GPa) = 14.30226 24.59006 19.44616
#
# Velocity S-wave (km/s) = 2.61414 3.42772 3.04820
# Velocity P-wave (km/s) = 4.59196 5.83586 5.25088
#
# Compressibility (1/GPa) = 0.03990210
#
# Stress axis : x y z
#
# Youngs Moduli (GPa) = 106.00304 33.43789 71.97496
#
# Poissons Ratio (x) = 0.00311 0.31693
# Poissons Ratio (y) = 0.00985 0.15615
# Poissons Ratio (z) = 0.46676 0.07254
#
# Static dielectric constant tensor:
#      x y z
#    x 1.894590 0.000260 -0.083110 
#    y 0.000260 1.774610 -0.000080 
#    z -0.083110 -0.000080 1.776820 
# 
# From -- ./inp_files/216965.got.cif
#   From: 2010.05.17/outbox.cif.g08.bks.cpg/sg15_109_cif.got.tgz:216965.got - 2010.06.03 18:47:42.
