data_PCOD9281650
_publ_section_title
;
Structure prediction by ZEFSAII (Michael W. Deem and Ramdas Pophale) SiO2 
 PCOD9281650
Probable space group: C 2/C
;
_chemical_formula_sum "Si O2"
_cell_formula_units_Z 52
_cell_length_a 16.036066
_cell_length_b 9.289007
_cell_length_c 20.981810
_cell_angle_alpha 90.000000
_cell_angle_beta 57.272065
_cell_angle_gamma 90.000000
_cell_volume 2629.261306
_symmetry_space_group_name_H-M "C 2/C"
_symmetry_group_IT_number 15
_symmetry_cell_setting 'monoclinic'
loop_
_space_group_symop_operation_xyz
x,y,z
-x,y,1/2-z
-x,-y,-z
x,-y,1/2+z
1/2+x,1/2+y,z
1/2-x,1/2+y,1/2-z
1/2-x,1/2-y,-z
1/2+x,1/2-y,1/2+z
loop_
_atom_site_type_symbol
_atom_site_label
_atom_site_fract_x
_atom_site_fract_y
_atom_site_fract_z
Si Si1 0.024465 0.774974 0.665336
Si Si2 0.665208 0.784134 0.344740
Si Si3 0.494407 0.596935 0.642645
Si Si4 0.228669 0.020729 0.783422
Si Si5 0.828501 0.449564 0.365743
Si Si6 0.000000 0.670061 0.250000
Si Si7 0.323298 0.672554 0.019273
O O1 0.120777 0.676378 0.615136
O O2 0.000000 0.746331 0.750000
O O3 0.938094 0.727250 0.651599
O O4 0.035849 0.946610 0.654153
O O5 0.723251 0.928106 0.301961
O O6 0.732157 0.650016 0.292442
O O7 0.658166 0.760205 0.423094
O O8 0.385944 0.559231 0.662141
O O9 0.478403 0.721855 0.700890
O O10 0.572630 0.644708 0.557554
O O11 0.288424 0.101946 0.814000
O O12 0.911745 0.568618 0.312377
O O13 0.735972 0.528225 0.436754
O O14 0.250000 0.750000 0.000000
#
# Coordination Sequence:
#
# PCOD9281650 Si02
#       7
#     8   8   8   8   8   4   8
#     4  11  21  39  65  96 125 157 211 271 307 360
#     4  10  22  39  66  92 127 159 210 263 307 365
#     4  11  24  38  64  90 126 164 213 255 311 373
#     4  10  21  38  63  93 118 163 209 253 305 367
#     4  11  22  40  68  89 124 164 206 259 315 364
#     4  12  20  38  68  92 112 172 218 250 300 374
#     4  11  24  43  61  91 130 167 206 260 314 372
#
# _framework density 19.777418000000001
#
# number of rings (size 3 to 8) (size 9 to 14) (size 15 to 20)
#    0.000    1.231    4.615    1.846    0.000    6.154 
#    0.000    0.769    0.000    0.000    0.000    0.000 
#    0.000    0.000    0.000    0.000    0.000    0.000 
#
# Total GULP energy -145113.905890 kJ/mol
# GULP energy per Si atom -5581.304073 kJ/mol
# Density = 1.973240 g / cm^3
# Si number density = 19.777418 Si / 1000 Ang^3
#
#
#
# Elastic Constant Matrix: (Units=GPa)
#
#
# Indices 1 2 3 4 5 6 
#
# 1 93.6095 21.7713 11.1124 0.0000 17.4840 0.0000
# 2 21.7713 57.8542 8.9392 0.0000 5.2050 0.0000
# 3 11.1124 8.9392 60.7753 0.0000 13.4508 0.0000
# 4 0.0000 0.0000 0.0000 27.5550 0.0000 -0.2400
# 5 17.4840 5.2050 13.4508 0.0000 26.4971 0.0000
# 6 0.0000 0.0000 0.0000 -0.2400 0.0000 33.6528
#
#
#
# Elastic Compliance Matrix: (Units=1/GPa)
#
#
# Indices 1 2 3 4 5 6 
#
# 1 0.013131 -0.004231 -0.000051 0.000000 -0.007808 0.000000
# 2 -0.004231 0.019190 -0.002064 0.000000 0.000070 0.000000
# 3 -0.000051 -0.002064 0.018780 0.000000 -0.009094 0.000000
# 4 0.000000 0.000000 0.000000 0.036293 0.000000 0.000259
# 5 -0.007808 0.000070 -0.009094 0.000000 0.047495 0.000000
# 6 0.000000 0.000000 0.000000 0.000259 0.000000 0.029717
#
#
# Mechanical properties :
#
#
# Convention : Reuss Voigt Hill
#
# Bulk Modulus (GPa) = 26.03620 32.87609 29.45615
# Shear Modulus (GPa) = 26.30188 28.90205 27.60196
#
# Velocity S-wave (km/s) = 3.65073 3.82693 3.73987
# Velocity P-wave (km/s) = 5.56450 6.01551 5.79439
#
# Compressibility (1/GPa) = 0.03840806
#
# Stress axis : x y z
#
# Youngs Moduli (GPa) = 76.15556 52.11129 53.24900
#
# Poissons Ratio (x) = 0.22049 0.00269
# Poissons Ratio (y) = 0.32222 0.10993
# Poissons Ratio (z) = 0.00385 0.10758
#
# Static dielectric constant tensor:
#      x y z
#    x 1.729400 0.000000 0.009080 
#    y 0.000000 1.718800 0.000000 
#    z 0.009080 0.000000 1.700650 
# 
# From -- ./inp_files/247778.got.cif
#   From: 2010.05.17/outbox.cif.g08.bks.cpg/sg15_124_cif.got.tgz:247778.got - 2010.06.03 18:47:42.
