data_PCOD9281990
_publ_section_title
;
Structure prediction by ZEFSAII (Michael W. Deem and Ramdas Pophale) SiO2 
 PCOD9281990
Probable space group: C 2/C
;
_chemical_formula_sum "Si O2"
_cell_formula_units_Z 56
_cell_length_a 14.191718
_cell_length_b 8.446418
_cell_length_c 20.797193
_cell_angle_alpha 90.000000
_cell_angle_beta 81.883857
_cell_angle_gamma 90.000000
_cell_volume 2467.973008
_symmetry_space_group_name_H-M "C 2/C"
_symmetry_group_IT_number 15
_symmetry_cell_setting 'monoclinic'
loop_
_space_group_symop_operation_xyz
x,y,z
-x,y,1/2-z
-x,-y,-z
x,-y,1/2+z
1/2+x,1/2+y,z
1/2-x,1/2+y,1/2-z
1/2-x,1/2-y,-z
1/2+x,1/2-y,1/2+z
loop_
_atom_site_type_symbol
_atom_site_label
_atom_site_fract_x
_atom_site_fract_y
_atom_site_fract_z
Si Si1 0.270395 0.991529 0.150036
Si Si2 0.866290 0.923619 0.952341
Si Si3 0.963366 0.443265 0.572667
Si Si4 0.055214 0.891249 0.802103
Si Si5 0.231772 0.297951 0.227232
Si Si6 0.897791 0.363027 0.370084
Si Si7 0.577590 0.572435 0.921074
O O1 0.371626 0.957874 0.106532
O O2 0.232075 0.885582 0.212660
O O3 0.195593 0.000837 0.098732
O O4 0.287293 0.161174 0.183802
O O5 0.859280 0.737201 0.935156
O O6 0.847554 0.962739 0.028897
O O7 0.975628 0.983032 0.938318
O O8 0.940474 0.258594 0.572621
O O9 0.000000 0.500000 0.500000
O O10 0.047849 0.482072 0.613516
O O11 0.101919 0.009895 0.848484
O O12 0.000000 0.979233 0.750000
O O13 0.140549 0.791967 0.765414
O O14 0.977006 0.763511 0.835684
O O15 0.182131 0.398008 0.174917
#
# Coordination Sequence:
#
# PCOD9281990 Si02
#       7
#     8   8   8   8   8   8   8
#     4  11  25  41  65  96 133 166 217 271 324 385
#     4   9  20  42  63  88 126 174 216 260 317 388
#     4  12  24  41  65  97 130 166 219 270 315 383
#     4   9  18  38  65  88 121 170 209 257 320 391
#     4  10  22  41  63  92 134 167 212 268 335 379
#     4   9  18  40  64  86 122 176 205 255 327 387
#     4  10  21  38  67  91 125 169 223 258 319 388
#
# _framework density 22.690684999999998
#
# number of rings (size 3 to 8) (size 9 to 14) (size 15 to 20)
#    0.000    2.000    2.857    0.857    2.000    1.714 
#    2.571    2.857    0.000    0.000    0.000    0.000 
#    0.000    0.000    0.000    0.000    0.000    0.000 
#
# Total GULP energy -156091.510180 kJ/mol
# GULP energy per Si atom -5574.696792 kJ/mol
# Density = 2.263904 g / cm^3
# Si number density = 22.690685 Si / 1000 Ang^3
#
#
#
# Elastic Constant Matrix: (Units=GPa)
#
#
# Indices 1 2 3 4 5 6 
#
# 1 53.4263 -0.1396 43.5239 0.0000 24.2035 0.0000
# 2 -0.1396 31.5585 35.9548 0.0000 24.8433 0.0000
# 3 43.5239 35.9548 166.1673 0.0000 46.6451 0.0000
# 4 0.0000 0.0000 0.0000 23.6259 0.0000 9.9453
# 5 24.2035 24.8433 46.6451 0.0000 45.8718 0.0000
# 6 0.0000 0.0000 0.0000 9.9453 0.0000 25.6525
#
#
#
# Elastic Compliance Matrix: (Units=1/GPa)
#
#
# Indices 1 2 3 4 5 6 
#
# 1 0.040646 0.035453 -0.009667 0.000000 -0.030817 0.000000
# 2 0.035453 0.089263 -0.013686 0.000000 -0.053133 0.000000
# 3 -0.009667 -0.013686 0.011194 0.000000 0.001129 0.000000
# 4 0.000000 0.000000 0.000000 0.050581 0.000000 -0.019610
# 5 -0.030817 -0.053133 0.001129 0.000000 0.065687 0.000000
# 6 0.000000 0.000000 0.000000 -0.019610 0.000000 0.046585
#
#
# Mechanical properties :
#
#
# Convention : Reuss Voigt Hill
#
# Bulk Modulus (GPa) = 6.04948 45.53672 25.79310
# Shear Modulus (GPa) = 14.93175 30.48423 22.70799
#
# Velocity S-wave (km/s) = 2.56804 3.66931 3.16692
# Velocity P-wave (km/s) = 3.38600 6.16959 4.97639
#
# Compressibility (1/GPa) = 0.16530360
#
# Stress axis : x y z
#
# Youngs Moduli (GPa) = 24.60266 11.20289 89.33161
#
# Poissons Ratio (x) = -0.39717 0.86355
# Poissons Ratio (y) = -0.87223 1.22255
# Poissons Ratio (z) = 0.23783 0.15332
#
# Static dielectric constant tensor:
#      x y z
#    x 1.873930 0.000000 -0.056030 
#    y 0.000000 1.849350 0.000000 
#    z -0.056030 0.000000 2.034750 
# 
# From -- ./inp_files/242792.got.cif
#   From: 2010.05.17/outbox.cif.g08.bks.cpg/sg15_122_cif.got.tgz:242792.got - 2010.06.03 18:47:42.
