data_PCOD9281890
_publ_section_title
;
Structure prediction by ZEFSAII (Michael W. Deem and Ramdas Pophale) SiO2 
 PCOD9281890
Probable space group: C 2/C
;
_chemical_formula_sum "Si O2"
_cell_formula_units_Z 48
_cell_length_a 5.186778
_cell_length_b 29.484804
_cell_length_c 15.834927
_cell_angle_alpha 90.000000
_cell_angle_beta 58.426477
_cell_angle_gamma 90.000000
_cell_volume 2063.173518
_symmetry_space_group_name_H-M "C 2/C"
_symmetry_group_IT_number 15
_symmetry_cell_setting 'monoclinic'
loop_
_space_group_symop_operation_xyz
x,y,z
-x,y,1/2-z
-x,-y,-z
x,-y,1/2+z
1/2+x,1/2+y,z
1/2-x,1/2+y,1/2-z
1/2-x,1/2-y,-z
1/2+x,1/2-y,1/2+z
loop_
_atom_site_type_symbol
_atom_site_label
_atom_site_fract_x
_atom_site_fract_y
_atom_site_fract_z
Si Si1 0.657867 0.793317 0.927762
Si Si2 0.450070 0.305749 0.057213
Si Si3 0.355998 0.486963 0.434733
Si Si4 0.079242 0.618083 0.359609
Si Si5 0.433992 0.422153 0.640034
Si Si6 0.145808 0.104571 0.816758
O O1 0.713781 0.741679 0.890889
O O2 0.649866 0.829125 0.853156
O O3 0.875171 0.806992 0.968803
O O4 0.305600 0.797830 0.016439
O O5 0.359632 0.350773 0.122650
O O6 0.500000 0.500000 0.500000
O O7 0.531059 0.524980 0.349796
O O8 0.451927 0.437706 0.386406
O O9 0.000000 0.500000 0.500000
O O10 0.230610 0.597660 0.416830
O O11 0.253962 0.598688 0.249339
O O12 0.747706 0.597732 0.407449
O O13 0.500000 0.090731 0.750000
O O14 0.000000 0.115418 0.750000
#
# Coordination Sequence:
#
# PCOD9281890 Si02
#       6
#     8   8   8   8   8   8
#     4  10  21  41  72 101 138 175 226 290 339 399
#     4  10  23  43  68 102 135 183 230 277 340 414
#     4  12  28  46  71 102 131 182 236 290 344 416
#     4  10  21  38  65  97 133 171 209 282 340 396
#     4  10  23  39  61  98 133 171 212 280 342 399
#     4  12  28  49  71 100 143 194 233 288 353 431
#
# _framework density 23.265131
#
# number of rings (size 3 to 8) (size 9 to 14) (size 15 to 20)
#    0.000    1.333    0.000    4.000   11.667    0.000 
#    6.000    0.000    0.000    0.000    0.000    0.000 
#    0.000    0.000    0.000    0.000    0.000    0.000 
#
# Total GULP energy -133883.799569 kJ/mol
# GULP energy per Si atom -5578.491649 kJ/mol
# Density = 2.321218 g / cm^3
# Si number density = 23.265131 Si / 1000 Ang^3
#
#
#
# Elastic Constant Matrix: (Units=GPa)
#
#
# Indices 1 2 3 4 5 6 
#
# 1 206.5275 40.0976 24.9566 0.0000 3.4408 0.0000
# 2 40.0976 227.7437 71.5385 0.0000 5.5508 0.0000
# 3 24.9566 71.5385 74.5209 0.0000 3.0510 0.0000
# 4 0.0000 0.0000 0.0000 26.4720 0.0000 -7.6359
# 5 3.4408 5.5508 3.0510 0.0000 27.1264 0.0000
# 6 0.0000 0.0000 0.0000 -7.6359 0.0000 20.6598
#
#
#
# Elastic Compliance Matrix: (Units=1/GPa)
#
#
# Indices 1 2 3 4 5 6 
#
# 1 0.005093 -0.000510 -0.001199 0.000000 -0.000407 0.000000
# 2 -0.000510 0.006348 -0.005900 0.000000 -0.000571 0.000000
# 3 -0.001199 -0.005900 0.019518 0.000000 -0.000836 0.000000
# 4 0.000000 0.000000 0.000000 0.042284 0.000000 0.015628
# 5 -0.000407 -0.000571 -0.000836 0.000000 0.037127 0.000000
# 6 0.000000 0.000000 0.000000 0.015628 0.000000 0.054179
#
#
# Mechanical properties :
#
#
# Convention : Reuss Voigt Hill
#
# Bulk Modulus (GPa) = 63.52778 86.88640 75.20709
# Shear Modulus (GPa) = 27.02508 39.66493 33.34500
#
# Velocity S-wave (km/s) = 3.41194 4.13353 3.78995
# Velocity P-wave (km/s) = 6.54882 7.75943 7.17969
#
# Compressibility (1/GPa) = 0.01574115
#
# Stress axis : x y z
#
# Youngs Moduli (GPa) = 196.36013 157.53575 51.23385
#
# Poissons Ratio (x) = 0.08035 0.06144
# Poissons Ratio (y) = 0.10015 0.30226
# Poissons Ratio (z) = 0.23548 0.92939
#
# Static dielectric constant tensor:
#      x y z
#    x 2.102280 0.000000 0.029740 
#    y 0.000000 1.987680 0.000000 
#    z 0.029740 0.000000 1.793690 
# 
# From -- ./inp_files/185745.got.cif
#   From: 2010.05.17/outbox.cif.g08.bks.cpg/sg15_93_cif.got.tgz:185745.got - 2010.06.03 18:47:42.
