data_PCOD9281137
_publ_section_title
;
Structure prediction by ZEFSAII (Michael W. Deem and Ramdas Pophale) SiO2 
 PCOD9281137
Probable space group: C 2/C
;
_chemical_formula_sum "Si O2"
_cell_formula_units_Z 48
_cell_length_a 16.928694
_cell_length_b 12.068149
_cell_length_c 11.600610
_cell_angle_alpha 90.000000
_cell_angle_beta 96.382602
_cell_angle_gamma 90.000000
_cell_volume 2355.291634
_symmetry_space_group_name_H-M "C 2/C"
_symmetry_group_IT_number 15
_symmetry_cell_setting 'monoclinic'
loop_
_space_group_symop_operation_xyz
x,y,z
-x,y,1/2-z
-x,-y,-z
x,-y,1/2+z
1/2+x,1/2+y,z
1/2-x,1/2+y,1/2-z
1/2-x,1/2-y,-z
1/2+x,1/2-y,1/2+z
loop_
_atom_site_type_symbol
_atom_site_label
_atom_site_fract_x
_atom_site_fract_y
_atom_site_fract_z
Si Si1 0.078242 0.035394 0.583736
Si Si2 0.726533 0.651429 0.621334
Si Si3 0.508909 0.237444 0.124549
Si Si4 0.657164 0.121911 0.049801
Si Si5 0.359028 0.684632 0.451413
Si Si6 0.264874 0.106329 0.875082
O O1 0.155285 0.093652 0.536185
O O2 0.049397 0.141243 0.651654
O O3 0.109370 0.914379 0.624667
O O4 0.000000 0.000000 0.500000
O O5 0.708447 0.781747 0.621391
O O6 0.810653 0.629634 0.575548
O O7 0.721080 0.598314 0.745997
O O8 0.500000 0.186952 0.250000
O O9 0.567686 0.160454 0.059412
O O10 0.428747 0.262939 0.041886
O O11 0.681297 0.001004 0.096078
O O12 0.318361 0.783615 0.377043
O O13 0.295592 0.630702 0.530048
#
# Coordination Sequence:
#
# PCOD9281137 Si02
#       6
#     8   8   8   8   8   8
#     4   9  18  36  61  87 123 156 204 270 305 365
#     4  10  21  38  59  90 124 166 211 257 327 371
#     4  10  21  40  63  88 122 169 209 261 327 373
#     4  10  22  39  60  88 125 163 212 262 309 386
#     4  10  21  38  58  96 125 157 218 259 308 381
#     4  11  23  37  65  90 126 170 204 264 315 385
#
# _framework density 20.379640999999999
#
# number of rings (size 3 to 8) (size 9 to 14) (size 15 to 20)
#    0.000    2.000    1.667    2.000    2.333    2.000 
#    0.000    0.833    0.000    0.000    0.000    0.000 
#    0.000    0.000    0.000    0.000    0.000    0.000 
#
# Total GULP energy -133604.289298 kJ/mol
# GULP energy per Si atom -5566.845387 kJ/mol
# Density = 2.033326 g / cm^3
# Si number density = 20.379641 Si / 1000 Ang^3
#
#
#
# Elastic Constant Matrix: (Units=GPa)
#
#
# Indices 1 2 3 4 5 6 
#
# 1 94.9869 40.2258 2.4173 0.0000 0.6303 0.0000
# 2 40.2258 125.0750 9.2083 0.0000 3.8633 0.0000
# 3 2.4173 9.2083 18.7782 0.0000 2.3716 0.0000
# 4 0.0000 0.0000 0.0000 12.4309 0.0000 -0.4717
# 5 0.6303 3.8633 2.3716 0.0000 20.4408 0.0000
# 6 0.0000 0.0000 0.0000 -0.4717 0.0000 32.9982
#
#
#
# Elastic Compliance Matrix: (Units=1/GPa)
#
#
# Indices 1 2 3 4 5 6 
#
# 1 0.012192 -0.003956 0.000328 0.000000 0.000334 0.000000
# 2 -0.003956 0.009603 -0.004045 0.000000 -0.001224 0.000000
# 3 0.000328 -0.004045 0.055919 0.000000 -0.005734 0.000000
# 4 0.000000 0.000000 0.000000 0.080488 0.000000 0.001151
# 5 0.000334 -0.001224 -0.005734 0.000000 0.049808 0.000000
# 6 0.000000 0.000000 0.000000 0.001151 0.000000 0.030321
#
#
# Mechanical properties :
#
#
# Convention : Reuss Voigt Hill
#
# Bulk Modulus (GPa) = 16.03374 38.06030 27.04702
# Shear Modulus (GPa) = 18.21713 25.63990 21.92852
#
# Velocity S-wave (km/s) = 2.99304 3.55084 3.28380
# Velocity P-wave (km/s) = 4.45298 5.96049 5.26101
#
# Compressibility (1/GPa) = 0.06236848
#
# Stress axis : x y z
#
# Youngs Moduli (GPa) = 82.01835 104.13384 17.88309
#
# Poissons Ratio (x) = 0.41192 -0.00587
# Poissons Ratio (y) = 0.32444 0.07234
# Poissons Ratio (z) = -0.02691 0.42125
#
# Static dielectric constant tensor:
#      x y z
#    x 1.780990 0.000000 -0.019270 
#    y 0.000000 1.723990 0.000000 
#    z -0.019270 0.000000 1.707220 
# 
# From -- ./inp_files/103754.got.cif
#   From: 2010.05.17/outbox.cif.g08.bks.cpg/sg15_52_cif.got.tgz:103754.got - 2010.06.03 18:47:42.
