data_PCOD9281568
_publ_section_title
;
Structure prediction by ZEFSAII (Michael W. Deem and Ramdas Pophale) SiO2 
 PCOD9281568
Probable space group: C 2/C
;
_chemical_formula_sum "Si O2"
_cell_formula_units_Z 52
_cell_length_a 18.687911
_cell_length_b 12.334525
_cell_length_c 10.603285
_cell_angle_alpha 90.000000
_cell_angle_beta 60.173620
_cell_angle_gamma 90.000000
_cell_volume 2120.368776
_symmetry_space_group_name_H-M "C 2/C"
_symmetry_group_IT_number 15
_symmetry_cell_setting 'monoclinic'
loop_
_space_group_symop_operation_xyz
x,y,z
-x,y,1/2-z
-x,-y,-z
x,-y,1/2+z
1/2+x,1/2+y,z
1/2-x,1/2+y,1/2-z
1/2-x,1/2-y,-z
1/2+x,1/2-y,1/2+z
loop_
_atom_site_type_symbol
_atom_site_label
_atom_site_fract_x
_atom_site_fract_y
_atom_site_fract_z
Si Si1 0.577237 0.381077 0.601424
Si Si2 0.161736 0.250033 0.514538
Si Si3 0.762755 0.051691 0.631712
Si Si4 0.018942 0.335106 0.018721
Si Si5 0.651670 0.757757 0.255077
Si Si6 0.834733 0.503392 0.038893
Si Si7 0.500000 0.777024 0.750000
O O1 0.500000 0.425308 0.750000
O O2 0.639827 0.457826 0.472922
O O3 0.545340 0.286273 0.536686
O O4 0.633422 0.318244 0.655043
O O5 0.250000 0.250000 0.500000
O O6 0.155806 0.196268 0.383768
O O7 0.145855 0.377483 0.502451
O O8 0.084278 0.210052 0.661282
O O9 0.736894 0.177282 0.677077
O O10 0.716675 0.030198 0.540754
O O11 0.721129 0.990511 0.785974
O O12 0.084800 0.421812 0.012121
O O13 0.015920 0.339325 0.868911
O O14 0.927770 0.340260 0.163403
#
# Coordination Sequence:
#
# PCOD9281568 Si02
#       7
#     8   8   8   8   8   8   4
#     4  10  21  40  66  89 124 166 223 267 314 385
#     4  10  23  39  58  90 134 169 218 262 328 398
#     4  11  23  39  62  97 124 170 216 261 328 391
#     4  10  21  38  62  97 133 166 208 265 334 390
#     4   9  20  37  63  97 120 170 210 259 322 390
#     4  11  24  39  64  95 136 171 211 272 330 394
#     4  10  22  36  60  94 126 176 198 270 338 388
#
# _framework density 24.524035000000001
#
# number of rings (size 3 to 8) (size 9 to 14) (size 15 to 20)
#    0.000    1.846    1.538    1.385    4.308    8.000 
#    0.000    0.769    1.692    0.000    0.000    0.000 
#    0.000    0.000    0.000    0.000    0.000    0.000 
#
# Total GULP energy -145239.855360 kJ/mol
# GULP energy per Si atom -5586.148283 kJ/mol
# Density = 2.446822 g / cm^3
# Si number density = 24.524035 Si / 1000 Ang^3
#
#
#
# Elastic Constant Matrix: (Units=GPa)
#
#
# Indices 1 2 3 4 5 6 
#
# 1 106.9671 14.7988 59.7905 0.0000 -2.8084 0.0000
# 2 14.7988 55.5803 26.3239 0.0000 -9.3642 0.0000
# 3 59.7905 26.3239 162.7051 0.0000 -13.8962 0.0000
# 4 0.0000 0.0000 0.0000 28.3272 0.0000 -11.3650
# 5 -2.8084 -9.3642 -13.8962 0.0000 55.1776 0.0000
# 6 0.0000 0.0000 0.0000 -11.3650 0.0000 4.7453
#
#
#
# Elastic Compliance Matrix: (Units=1/GPa)
#
#
# Indices 1 2 3 4 5 6 
#
# 1 0.011861 -0.001278 -0.004209 0.000000 -0.000673 0.000000
# 2 -0.001278 0.019985 -0.002534 0.000000 0.002688 0.000000
# 3 -0.004209 -0.002534 0.008225 0.000000 0.001427 0.000000
# 4 0.000000 0.000000 0.000000 0.902529 0.000000 2.161559
# 5 -0.000673 0.002688 0.001427 0.000000 0.018905 0.000000
# 6 0.000000 0.000000 0.000000 2.161559 0.000000 5.387678
#
#
# Mechanical properties :
#
#
# Convention : Reuss Voigt Hill
#
# Bulk Modulus (GPa) = 41.61786 58.56432 50.09109
# Shear Modulus (GPa) = 0.78453 32.60598 16.69525
#
# Velocity S-wave (km/s) = 0.56621 3.65026 2.61199
# Velocity P-wave (km/s) = 4.17547 6.45740 5.43749
#
# Compressibility (1/GPa) = 0.02402814
#
# Stress axis : x y z
#
# Youngs Moduli (GPa) = 84.31280 50.03639 121.58364
#
# Poissons Ratio (x) = 0.06394 0.51178
# Poissons Ratio (y) = 0.10774 0.30812
# Poissons Ratio (z) = 0.35489 0.12680
#
# Static dielectric constant tensor:
#      x y z
#    x 2.009240 0.000000 -0.052400 
#    y 0.000000 2.031750 0.000000 
#    z -0.052400 0.000000 2.083050 
# 
# From -- ./inp_files/105224.got.cif
#   From: 2010.05.17/outbox.cif.g08.bks.cpg/sg15_53_cif.got.tgz:105224.got - 2010.06.03 18:47:42.
