data_PCOD9281302
_publ_section_title
;
Structure prediction by ZEFSAII (Michael W. Deem and Ramdas Pophale) SiO2 
 PCOD9281302
Probable space group: C 2/C
;
_chemical_formula_sum "Si O2"
_cell_formula_units_Z 64
_cell_length_a 17.956018
_cell_length_b 11.852226
_cell_length_c 20.453968
_cell_angle_alpha 90.000000
_cell_angle_beta 44.398547
_cell_angle_gamma 90.000000
_cell_volume 3045.547663
_symmetry_space_group_name_H-M "C 2/C"
_symmetry_group_IT_number 15
_symmetry_cell_setting 'monoclinic'
loop_
_space_group_symop_operation_xyz
x,y,z
-x,y,1/2-z
-x,-y,-z
x,-y,1/2+z
1/2+x,1/2+y,z
1/2-x,1/2+y,1/2-z
1/2-x,1/2-y,-z
1/2+x,1/2-y,1/2+z
loop_
_atom_site_type_symbol
_atom_site_label
_atom_site_fract_x
_atom_site_fract_y
_atom_site_fract_z
Si Si1 0.101455 0.424294 0.458347
Si Si2 0.630068 0.253345 0.552778
Si Si3 0.774561 0.039722 0.261254
Si Si4 0.420520 0.009439 0.885743
Si Si5 0.336509 0.005056 0.799187
Si Si6 0.478693 0.331713 0.483422
Si Si7 0.990865 0.964515 0.899331
Si Si8 0.295440 0.272477 0.136816
O O1 0.193501 0.455077 0.348845
O O2 0.125532 0.464406 0.517275
O O3 0.073210 0.291312 0.478413
O O4 0.000000 0.500000 0.500000
O O5 0.750000 0.250000 0.500000
O O6 0.572464 0.145759 0.618266
O O7 0.578100 0.374736 0.597305
O O8 0.642667 0.236119 0.467467
O O9 0.895416 0.010694 0.202677
O O10 0.754932 0.164530 0.299874
O O11 0.744753 0.045981 0.202839
O O12 0.349452 0.975453 0.867663
O O13 0.544807 0.977294 0.801466
O O14 0.293380 0.134365 0.823580
O O15 0.479753 0.395822 0.552320
O O16 0.433356 0.421579 0.459410
O O17 0.604158 0.318938 0.385440
#
# Coordination Sequence:
#
# PCOD9281302 Si02
#       8
#     8   8   8   8   8   8   8   8
#     4  12  21  39  64  92 134 175 231 280 328 402
#     4  11  21  40  65  92 131 172 215 274 343 407
#     4  12  23  37  64  98 130 169 229 277 329 390
#     4  11  22  39  59  95 131 170 219 275 343 399
#     4  11  23  36  60  95 128 168 217 274 338 396
#     4  10  21  38  60  92 132 171 220 275 332 390
#     4  10  23  38  61  95 130 171 221 280 335 398
#     4  11  20  36  61  93 128 168 216 274 324 400
#
# _framework density 21.014282000000001
#
# number of rings (size 3 to 8) (size 9 to 14) (size 15 to 20)
#    0.000    1.000    6.250    1.500    1.750    0.000 
#    0.000    0.000    0.000    4.500    3.250    0.000 
#    0.000    0.000    0.000    0.000    0.000    0.000 
#
# Total GULP energy -178502.656766 kJ/mol
# GULP energy per Si atom -5578.208024 kJ/mol
# Density = 2.096645 g / cm^3
# Si number density = 21.014282 Si / 1000 Ang^3
#
#
#
# Elastic Constant Matrix: (Units=GPa)
#
#
# Indices 1 2 3 4 5 6 
#
# 1 87.0095 19.7372 25.1911 0.0000 -2.1508 0.0000
# 2 19.7372 88.1851 18.4223 0.0000 -5.9280 0.0000
# 3 25.1911 18.4223 60.7916 0.0000 -6.0865 0.0000
# 4 0.0000 0.0000 0.0000 30.0334 0.0000 -5.2441
# 5 -2.1508 -5.9280 -6.0865 0.0000 33.6474 0.0000
# 6 0.0000 0.0000 0.0000 -5.2441 0.0000 28.1287
#
#
#
# Elastic Compliance Matrix: (Units=1/GPa)
#
#
# Indices 1 2 3 4 5 6 
#
# 1 0.013375 -0.001979 -0.004982 0.000000 -0.000395 0.000000
# 2 -0.001979 0.012474 -0.002803 0.000000 0.001564 0.000000
# 3 -0.004982 -0.002803 0.019638 0.000000 0.002740 0.000000
# 4 0.000000 0.000000 0.000000 0.034417 0.000000 0.006416
# 5 -0.000395 0.001564 0.002740 0.000000 0.030466 0.000000
# 6 0.000000 0.000000 0.000000 0.006416 0.000000 0.036747
#
#
# Mechanical properties :
#
#
# Convention : Reuss Voigt Hill
#
# Bulk Modulus (GPa) = 38.52506 40.29861 39.41184
# Shear Modulus (GPa) = 28.52304 29.87093 29.19699
#
# Velocity S-wave (km/s) = 3.68817 3.77431 3.73149
# Velocity P-wave (km/s) = 6.04230 6.18161 6.11236
#
# Compressibility (1/GPa) = 0.02595713
#
# Stress axis : x y z
#
# Youngs Moduli (GPa) = 74.76859 80.16983 50.92193
#
# Poissons Ratio (x) = 0.15868 0.25369
# Poissons Ratio (y) = 0.14799 0.14275
# Poissons Ratio (z) = 0.37250 0.22473
#
# Static dielectric constant tensor:
#      x y z
#    x 3.663730 0.000000 1.418360 
#    y 0.000000 1.814950 0.000000 
#    z 1.418360 0.000000 2.893620 
# 
# From -- ./inp_files/248605.got.cif
#   From: 2010.05.17/outbox.cif.g08.bks.cpg/sg15_125_cif.got.tgz:248605.got - 2010.06.03 18:47:42.
