data_PCOD9281999
_publ_section_title
;
Structure prediction by ZEFSAII (Michael W. Deem and Ramdas Pophale) SiO2 
 PCOD9281999
Probable space group: C 2/C
;
_chemical_formula_sum "Si O2"
_cell_formula_units_Z 56
_cell_length_a 8.509886
_cell_length_b 23.121578
_cell_length_c 14.730236
_cell_angle_alpha 90.000000
_cell_angle_beta 109.767994
_cell_angle_gamma 90.000000
_cell_volume 2727.550341
_symmetry_space_group_name_H-M "C 2/C"
_symmetry_group_IT_number 15
_symmetry_cell_setting 'monoclinic'
loop_
_space_group_symop_operation_xyz
x,y,z
-x,y,1/2-z
-x,-y,-z
x,-y,1/2+z
1/2+x,1/2+y,z
1/2-x,1/2+y,1/2-z
1/2-x,1/2-y,-z
1/2+x,1/2-y,1/2+z
loop_
_atom_site_type_symbol
_atom_site_label
_atom_site_fract_x
_atom_site_fract_y
_atom_site_fract_z
Si Si1 0.769033 0.902595 0.626588
Si Si2 0.592926 0.280329 0.862561
Si Si3 0.309559 0.069062 0.193356
Si Si4 0.997865 0.993984 0.391891
Si Si5 0.399548 0.868205 0.528624
Si Si6 0.086529 0.863863 0.361257
Si Si7 0.974601 0.244528 0.954076
O O1 0.876707 0.848616 0.613487
O O2 0.746170 0.893192 0.730607
O O3 0.581179 0.897789 0.550866
O O4 0.864046 0.961980 0.622585
O O5 0.500000 0.271483 0.750000
O O6 0.777617 0.252621 0.896673
O O7 0.500896 0.255948 0.932688
O O8 0.500000 0.052147 0.250000
O O9 0.308674 0.100190 0.095509
O O10 0.183738 0.016144 0.171847
O O11 0.023043 0.928214 0.369640
O O12 0.000000 0.000000 0.500000
O O13 0.285719 0.869137 0.416781
O O14 0.434769 0.801982 0.564053
O O15 0.000000 0.846586 0.250000
O O16 0.034907 0.814678 0.422587
#
# Coordination Sequence:
#
# PCOD9281999 Si02
#       7
#     8   8   8   8   8   8   8
#     4  10  22  40  70  95 124 164 223 277 320 379
#     4  10  21  38  67  94 120 171 218 269 326 383
#     4  10  21  41  67  99 125 164 224 275 319 376
#     4  12  23  43  66  94 135 174 213 266 327 393
#     4  10  23  44  66  96 128 167 220 279 322 385
#     4  12  26  41  62  93 134 177 209 260 341 397
#     4  10  24  42  61  94 133 166 219 265 328 403
#
# _framework density 20.531243
#
# number of rings (size 3 to 8) (size 9 to 14) (size 15 to 20)
#    0.000    1.429    1.429    3.429    4.000    3.429 
#    2.571    0.714    0.000    0.000    0.000    0.000 
#    0.000    0.000    0.000    0.000    0.000    0.000 
#
# Total GULP energy -156406.916161 kJ/mol
# GULP energy per Si atom -5585.961291 kJ/mol
# Density = 2.048451 g / cm^3
# Si number density = 20.531243 Si / 1000 Ang^3
#
#
#
# Elastic Constant Matrix: (Units=GPa)
#
#
# Indices 1 2 3 4 5 6 
#
# 1 77.1204 47.3409 35.5621 0.0000 6.6380 0.0000
# 2 47.3409 108.4000 -2.3630 0.0000 7.0229 0.0000
# 3 35.5621 -2.3630 123.4029 0.0000 9.2652 0.0000
# 4 0.0000 0.0000 0.0000 23.7306 0.0000 4.9736
# 5 6.6380 7.0229 9.2652 0.0000 21.6535 0.0000
# 6 0.0000 0.0000 0.0000 4.9736 0.0000 21.2168
#
#
#
# Elastic Compliance Matrix: (Units=1/GPa)
#
#
# Indices 1 2 3 4 5 6 
#
# 1 0.021949 -0.009672 -0.006448 0.000000 -0.000833 0.000000
# 2 -0.009672 0.013707 0.003266 0.000000 -0.002878 0.000000
# 3 -0.006448 0.003266 0.010286 0.000000 -0.003484 0.000000
# 4 0.000000 0.000000 0.000000 0.044317 0.000000 -0.010389
# 5 -0.000833 -0.002878 -0.003484 0.000000 0.048861 0.000000
# 6 0.000000 0.000000 0.000000 -0.010389 0.000000 0.049568
#
#
# Mechanical properties :
#
#
# Convention : Reuss Voigt Hill
#
# Bulk Modulus (GPa) = 49.42422 52.22260 50.82341
# Shear Modulus (GPa) = 22.61003 28.54575 25.57789
#
# Velocity S-wave (km/s) = 3.32211 3.73279 3.53342
# Velocity P-wave (km/s) = 6.23219 6.63847 6.43853
#
# Compressibility (1/GPa) = 0.02023300
#
# Stress axis : x y z
#
# Youngs Moduli (GPa) = 45.55982 72.95606 97.22131
#
# Poissons Ratio (x) = 0.70566 0.62688
# Poissons Ratio (y) = 0.44067 -0.31752
# Poissons Ratio (z) = 0.29377 -0.23827
#
# Static dielectric constant tensor:
#      x y z
#    x 1.730740 0.000000 0.016530 
#    y 0.000000 1.710760 0.000000 
#    z 0.016530 0.000000 1.779060 
# 
# From -- ./inp_files/137976.got.cif
#   From: 2010.05.17/outbox.cif.g08.bks.cpg/sg15_69_cif.got.tgz:137976.got - 2010.06.03 18:47:42.
