data_PCOD9281452
_publ_section_title
;
Structure prediction by ZEFSAII (Michael W. Deem and Ramdas Pophale) SiO2 
 PCOD9281452
Probable space group: C 2/C
;
_chemical_formula_sum "Si O2"
_cell_formula_units_Z 44
_cell_length_a 8.957507
_cell_length_b 24.160543
_cell_length_c 9.368112
_cell_angle_alpha 90.000000
_cell_angle_beta 119.814372
_cell_angle_gamma 90.000000
_cell_volume 1759.081131
_symmetry_space_group_name_H-M "C 2/C"
_symmetry_group_IT_number 15
_symmetry_cell_setting 'monoclinic'
loop_
_space_group_symop_operation_xyz
x,y,z
-x,y,1/2-z
-x,-y,-z
x,-y,1/2+z
1/2+x,1/2+y,z
1/2-x,1/2+y,1/2-z
1/2-x,1/2-y,-z
1/2+x,1/2-y,1/2+z
loop_
_atom_site_type_symbol
_atom_site_label
_atom_site_fract_x
_atom_site_fract_y
_atom_site_fract_z
Si Si1 0.865113 0.014529 0.565678
Si Si2 0.456234 0.649100 0.031010
Si Si3 0.237930 0.428362 0.742515
Si Si4 0.309475 0.756432 0.319092
Si Si5 0.115580 0.672963 0.031848
Si Si6 0.000000 0.818340 0.250000
O O1 0.724289 0.045639 0.396376
O O2 0.000000 0.037091 0.750000
O O3 0.760793 0.970477 0.618352
O O4 0.000000 0.000000 0.500000
O O5 0.578249 0.603084 0.154299
O O6 0.562372 0.705058 0.107123
O O7 0.266058 0.652884 0.999354
O O8 0.451628 0.645106 0.860317
O O9 0.107603 0.378004 0.640290
O O10 0.438766 0.808552 0.375372
O O11 0.162055 0.778592 0.355345
O O12 0.189762 0.729441 0.138982
#
# Coordination Sequence:
#
# PCOD9281452 Si02
#       6
#     8   8   8   8   8   4
#     4   9  16  31  59  90 133 170 221 287 346 399
#     4  11  23  38  61  97 142 183 230 271 339 414
#     4  10  21  38  62 102 137 179 229 289 347 416
#     4  11  23  42  63  96 139 190 225 280 333 409
#     4  11  23  40  68  95 143 189 232 271 334 423
#     4  12  26  38  62  98 146 180 234 282 340 408
#
# _framework density 25.013057
#
# number of rings (size 3 to 8) (size 9 to 14) (size 15 to 20)
#    0.000    1.455    1.818    6.545    3.818    0.000 
#    0.000    0.000    0.000    0.000    0.000    7.636 
#    0.000    2.909    0.000    0.000    0.000    0.000 
#
# Total GULP energy -122482.810855 kJ/mol
# GULP energy per Si atom -5567.400493 kJ/mol
# Density = 2.495613 g / cm^3
# Si number density = 25.013057 Si / 1000 Ang^3
#
#
#
# Elastic Constant Matrix: (Units=GPa)
#
#
# Indices 1 2 3 4 5 6 
#
# 1 99.2563 34.8253 33.0835 0.0000 -3.4454 0.0000
# 2 34.8253 131.5190 76.2078 0.0000 2.6579 0.0000
# 3 33.0835 76.2078 169.0254 0.0000 -14.3428 0.0000
# 4 0.0000 0.0000 0.0000 39.4220 0.0000 -2.0352
# 5 -3.4454 2.6579 -14.3428 0.0000 35.4236 0.0000
# 6 0.0000 0.0000 0.0000 -2.0352 0.0000 16.1380
#
#
#
# Elastic Compliance Matrix: (Units=1/GPa)
#
#
# Indices 1 2 3 4 5 6 
#
# 1 0.011298 -0.002395 -0.001059 0.000000 0.000850 0.000000
# 2 -0.002395 0.011064 -0.004774 0.000000 -0.002996 0.000000
# 3 -0.001059 -0.004774 0.008593 0.000000 0.003734 0.000000
# 4 0.000000 0.000000 0.000000 0.025533 0.000000 0.003220
# 5 0.000850 -0.002996 0.003734 0.000000 0.030049 0.000000
# 6 0.000000 0.000000 0.000000 0.003220 0.000000 0.062372
#
#
# Mechanical properties :
#
#
# Convention : Reuss Voigt Hill
#
# Bulk Modulus (GPa) = 68.97285 76.44822 72.71054
# Shear Modulus (GPa) = 29.37745 35.24233 32.30989
#
# Velocity S-wave (km/s) = 3.43079 3.75768 3.59795
# Velocity P-wave (km/s) = 6.58243 7.03254 6.81120
#
# Compressibility (1/GPa) = 0.01449846
#
# Stress axis : x y z
#
# Youngs Moduli (GPa) = 88.51263 90.37948 116.37375
#
# Poissons Ratio (x) = 0.21644 0.12330
# Poissons Ratio (y) = 0.21197 0.55558
# Poissons Ratio (z) = 0.09378 0.43148
#
# Static dielectric constant tensor:
#      x y z
#    x 1.963390 0.000000 -0.045730 
#    y 0.000000 2.100330 0.000000 
#    z -0.045730 0.000000 2.166390 
# 
# From -- ./inp_files/33140.got.cif
#   From: 2010.05.17/outbox.cif.g08.bks.cpg/sg15_17_cif.got.tgz:33140.got - 2010.06.03 18:47:42.
