data_PCOD9281500
_publ_section_title
;
Structure prediction by ZEFSAII (Michael W. Deem and Ramdas Pophale) SiO2 
 PCOD9281500
Probable space group: C 2/C
;
_chemical_formula_sum "Si O2"
_cell_formula_units_Z 40
_cell_length_a 5.269326
_cell_length_b 16.277737
_cell_length_c 20.683220
_cell_angle_alpha 90.000000
_cell_angle_beta 87.328785
_cell_angle_gamma 90.000000
_cell_volume 1772.128019
_symmetry_space_group_name_H-M "C 2/C"
_symmetry_group_IT_number 15
_symmetry_cell_setting 'monoclinic'
loop_
_space_group_symop_operation_xyz
x,y,z
-x,y,1/2-z
-x,-y,-z
x,-y,1/2+z
1/2+x,1/2+y,z
1/2-x,1/2+y,1/2-z
1/2-x,1/2-y,-z
1/2+x,1/2-y,1/2+z
loop_
_atom_site_type_symbol
_atom_site_label
_atom_site_fract_x
_atom_site_fract_y
_atom_site_fract_z
Si Si1 0.553917 0.199720 0.314445
Si Si2 0.052519 0.697905 0.818218
Si Si3 0.506469 0.471163 0.426351
Si Si4 0.999315 0.564312 0.417106
Si Si5 0.317562 0.832996 0.039958
O O1 0.500000 0.148850 0.250000
O O2 0.343582 0.271418 0.311528
O O3 0.488626 0.146475 0.376330
O O4 0.840767 0.230759 0.314809
O O5 0.029639 0.673786 0.894429
O O6 0.000000 0.649813 0.750000
O O7 0.500000 0.500000 0.500000
O O8 0.771168 0.504833 0.398202
O O9 0.443881 0.375461 0.432466
O O10 0.263805 0.518731 0.400381
O O11 0.954637 0.600116 0.490714
O O12 0.250000 0.750000 0.000000
#
# Coordination Sequence:
#
# PCOD9281500 Si02
#       5
#     8   8   8   8   8
#     4  10  21  38  62  90 123 163 209 254 311 372
#     4  10  22  39  59  92 129 158 200 267 316 361
#     4  10  23  40  57  89 131 160 193 265 314 359
#     4  11  22  41  62  88 127 162 205 257 313 363
#     4  11  22  39  66  97 120 163 216 248 312 376
#
# _framework density 22.571729999999999
#
# number of rings (size 3 to 8) (size 9 to 14) (size 15 to 20)
#    0.000    1.600    2.000    3.600    2.800    5.600 
#    0.000    1.000    0.000    2.400    0.000    0.000 
#    0.000    0.000    0.000    0.000    0.000    0.000 
#
# Total GULP energy -111368.134223 kJ/mol
# GULP energy per Si atom -5568.406711 kJ/mol
# Density = 2.252036 g / cm^3
# Si number density = 22.571730 Si / 1000 Ang^3
#
#
#
# Elastic Constant Matrix: (Units=GPa)
#
#
# Indices 1 2 3 4 5 6 
#
# 1 145.1872 35.3755 26.9183 0.0000 11.0600 0.0000
# 2 35.3755 75.8605 29.1950 0.0000 12.1712 0.0000
# 3 26.9183 29.1950 150.1015 0.0000 11.1487 0.0000
# 4 0.0000 0.0000 0.0000 1.5194 0.0000 0.8041
# 5 11.0600 12.1712 11.1487 0.0000 25.4927 0.0000
# 6 0.0000 0.0000 0.0000 0.8041 0.0000 24.9369
#
#
#
# Elastic Compliance Matrix: (Units=1/GPa)
#
#
# Indices 1 2 3 4 5 6 
#
# 1 0.007909 -0.003165 -0.000682 0.000000 -0.001622 0.000000
# 2 -0.003165 0.016390 -0.002213 0.000000 -0.005484 0.000000
# 3 -0.000682 -0.002213 0.007353 0.000000 -0.001863 0.000000
# 4 0.000000 0.000000 0.000000 0.669580 0.000000 -0.021591
# 5 -0.001622 -0.005484 -0.001863 0.000000 0.043364 0.000000
# 6 0.000000 0.000000 0.000000 -0.021591 0.000000 0.040797
#
#
# Mechanical properties :
#
#
# Convention : Reuss Voigt Hill
#
# Bulk Modulus (GPa) = 51.20060 61.56966 56.38513
# Shear Modulus (GPa) = 6.21872 29.03383 17.62627
#
# Velocity S-wave (km/s) = 1.66165 3.59038 2.79749
# Velocity P-wave (km/s) = 5.13947 6.67266 5.95561
#
# Compressibility (1/GPa) = 0.01953102
#
# Stress axis : x y z
#
# Youngs Moduli (GPa) = 126.43921 61.01405 135.99334
#
# Poissons Ratio (x) = 0.19313 0.09278
# Poissons Ratio (y) = 0.40023 0.30093
# Poissons Ratio (z) = 0.08626 0.13501
#
# Static dielectric constant tensor:
#      x y z
#    x 1.895790 0.000000 -0.045490 
#    y 0.000000 1.925510 0.000000 
#    z -0.045490 0.000000 2.053990 
# 
# From -- ./inp_files/184382.got.cif
#   From: 2010.05.17/outbox.cif.g08.bks.cpg/sg15_93_cif.got.tgz:184382.got - 2010.06.03 18:47:42.
