data_PCOD9281462
_publ_section_title
;
Structure prediction by ZEFSAII (Michael W. Deem and Ramdas Pophale) SiO2 
 PCOD9281462
Probable space group: C 2/C
;
_chemical_formula_sum "Si O2"
_cell_formula_units_Z 56
_cell_length_a 9.232669
_cell_length_b 27.636479
_cell_length_c 14.416490
_cell_angle_alpha 90.000000
_cell_angle_beta 47.841666
_cell_angle_gamma 90.000000
_cell_volume 2726.838029
_symmetry_space_group_name_H-M "C 2/C"
_symmetry_group_IT_number 15
_symmetry_cell_setting 'monoclinic'
loop_
_space_group_symop_operation_xyz
x,y,z
-x,y,1/2-z
-x,-y,-z
x,-y,1/2+z
1/2+x,1/2+y,z
1/2-x,1/2+y,1/2-z
1/2-x,1/2-y,-z
1/2+x,1/2-y,1/2+z
loop_
_atom_site_type_symbol
_atom_site_label
_atom_site_fract_x
_atom_site_fract_y
_atom_site_fract_z
Si Si1 0.448666 0.948181 0.980568
Si Si2 0.969531 0.640749 0.918518
Si Si3 0.200579 0.128873 0.867441
Si Si4 0.432947 0.550836 0.987224
Si Si5 0.437005 0.303887 0.381741
Si Si6 0.185894 0.608242 0.236642
Si Si7 0.531878 0.801636 0.906802
O O1 0.245122 0.950852 0.010023
O O2 0.624198 0.932102 0.837475
O O3 0.455015 0.904239 0.051747
O O4 0.500000 0.000000 0.000000
O O5 0.786447 0.626508 0.933275
O O6 0.138199 0.650174 0.771582
O O7 0.922481 0.686005 0.005350
O O8 0.020317 0.163595 0.927684
O O9 0.126430 0.076728 0.865216
O O10 0.360667 0.586138 0.101849
O O11 0.500000 0.500000 0.000000
O O12 0.500000 0.318248 0.250000
O O13 0.531564 0.251260 0.361602
O O14 0.203916 0.310045 0.491985
O O15 0.000000 0.611170 0.250000
O O16 0.172290 0.660805 0.291523
#
# Coordination Sequence:
#
# PCOD9281462 Si02
#       7
#     8   8   8   8   8   8   8
#     4  10  21  38  62  87 119 163 203 254 317 379
#     4  10  22  41  60  86 125 167 205 257 322 362
#     4  11  23  39  62  88 127 163 210 264 304 381
#     4  11  24  40  62  94 124 163 217 261 316 385
#     4  11  21  36  66  99 123 161 215 259 316 383
#     4   9  19  38  60  84 123 160 196 254 319 366
#     4  10  21  39  64  93 126 160 209 261 319 385
#
# _framework density 20.536605000000002
#
# number of rings (size 3 to 8) (size 9 to 14) (size 15 to 20)
#    0.000    1.714    1.429    3.857    2.000    1.714 
#    0.000    5.714    0.000    0.000    0.000    0.000 
#    0.000    0.000    0.000    0.000    0.000    0.000 
#
# Total GULP energy -155960.356756 kJ/mol
# GULP energy per Si atom -5570.012741 kJ/mol
# Density = 2.048986 g / cm^3
# Si number density = 20.536605 Si / 1000 Ang^3
#
#
#
# Elastic Constant Matrix: (Units=GPa)
#
#
# Indices 1 2 3 4 5 6 
#
# 1 122.7799 41.2821 16.0655 0.0000 12.8271 0.0000
# 2 41.2821 81.0261 11.3094 0.0000 10.0901 0.0000
# 3 16.0655 11.3094 57.3572 0.0000 12.7498 0.0000
# 4 0.0000 0.0000 0.0000 17.3620 0.0000 3.6024
# 5 12.8271 10.0901 12.7498 0.0000 22.9279 0.0000
# 6 0.0000 0.0000 0.0000 3.6024 0.0000 30.1060
#
#
#
# Elastic Compliance Matrix: (Units=1/GPa)
#
#
# Indices 1 2 3 4 5 6 
#
# 1 0.010180 -0.004642 -0.001283 0.000000 -0.002939 0.000000
# 2 -0.004642 0.015285 -0.000908 0.000000 -0.003625 0.000000
# 3 -0.001283 -0.000908 0.020225 0.000000 -0.010129 0.000000
# 4 0.000000 0.000000 0.000000 0.059063 0.000000 -0.007067
# 5 -0.002939 -0.003625 -0.010129 0.000000 0.052487 0.000000
# 6 0.000000 0.000000 0.000000 -0.007067 0.000000 0.034062
#
#
# Mechanical properties :
#
#
# Convention : Reuss Voigt Hill
#
# Bulk Modulus (GPa) = 31.22591 44.27524 37.75057
# Shear Modulus (GPa) = 23.18661 26.91292 25.04977
#
# Velocity S-wave (km/s) = 3.36376 3.62399 3.49630
# Velocity P-wave (km/s) = 5.50677 6.25436 5.89244
#
# Compressibility (1/GPa) = 0.03202469
#
# Stress axis : x y z
#
# Youngs Moduli (GPa) = 98.22943 65.42485 49.44486
#
# Poissons Ratio (x) = 0.30368 0.06343
# Poissons Ratio (y) = 0.45595 0.04489
# Poissons Ratio (z) = 0.12601 0.05940
#
# Static dielectric constant tensor:
#      x y z
#    x 1.756330 0.000000 -0.003820 
#    y 0.000000 1.819340 0.000000 
#    z -0.003820 0.000000 1.856790 
# 
# From -- ./inp_files/139441.got.cif
#   From: 2010.05.17/outbox.cif.g08.bks.cpg/sg15_70_cif.got.tgz:139441.got - 2010.06.03 18:47:42.
