data_PCOD9281383
_publ_section_title
;
Structure prediction by ZEFSAII (Michael W. Deem and Ramdas Pophale) SiO2 
 PCOD9281383
Probable space group: C 2/C
;
_chemical_formula_sum "Si O2"
_cell_formula_units_Z 44
_cell_length_a 18.781564
_cell_length_b 17.169149
_cell_length_c 16.582719
_cell_angle_alpha 90.000000
_cell_angle_beta 156.700029
_cell_angle_gamma 90.000000
_cell_volume 2115.106335
_symmetry_space_group_name_H-M "C 2/C"
_symmetry_group_IT_number 15
_symmetry_cell_setting 'monoclinic'
loop_
_space_group_symop_operation_xyz
x,y,z
-x,y,1/2-z
-x,-y,-z
x,-y,1/2+z
1/2+x,1/2+y,z
1/2-x,1/2+y,1/2-z
1/2-x,1/2-y,-z
1/2+x,1/2-y,1/2+z
loop_
_atom_site_type_symbol
_atom_site_label
_atom_site_fract_x
_atom_site_fract_y
_atom_site_fract_z
Si Si1 0.662051 0.159981 0.754715
Si Si2 0.696078 0.460439 0.710173
Si Si3 0.229280 0.666971 0.089227
Si Si4 0.193072 0.943220 0.972554
Si Si5 0.024788 0.592672 0.450364
Si Si6 0.000000 0.432728 0.750000
O O1 0.741180 0.243210 0.859743
O O2 0.480741 0.150105 0.617722
O O3 0.603335 0.150102 0.600750
O O4 0.784855 0.089423 0.914178
O O5 0.500000 0.500000 0.500000
O O6 0.672309 0.384970 0.741533
O O7 0.820933 0.430797 0.765062
O O8 0.839937 0.518671 0.902431
O O9 0.287274 0.633790 0.063513
O O10 0.000000 0.976555 0.750000
O O11 0.337899 0.007766 0.100765
O O12 0.028973 0.616083 0.361598
#
# Coordination Sequence:
#
# PCOD9281383 Si02
#       6
#     8   8   8   8   8   4
#     4  11  23  40  58  90 130 164 201 247 313 375
#     4  10  21  38  61  90 116 155 204 254 309 364
#     4  11  22  38  59  92 124 164 199 245 310 378
#     4  12  23  37  60  94 127 162 194 251 314 378
#     4  10  23  39  61  86 122 162 207 258 296 362
#     4  12  22  42  60  90 126 158 218 254 306 360
#
# _framework density 20.802734999999998
#
# number of rings (size 3 to 8) (size 9 to 14) (size 15 to 20)
#    0.000    1.091    3.636    3.818    7.636    0.000 
#    0.000    0.000    0.000    4.364    0.000    0.000 
#    0.000    0.000    0.000    0.000    0.000    0.000 
#
# Total GULP energy -122882.354540 kJ/mol
# GULP energy per Si atom -5585.561570 kJ/mol
# Density = 2.075539 g / cm^3
# Si number density = 20.802735 Si / 1000 Ang^3
#
#
#
# Elastic Constant Matrix: (Units=GPa)
#
#
# Indices 1 2 3 4 5 6 
#
# 1 114.2856 -1.4250 38.0288 -0.0006 -21.9381 -0.0005
# 2 -1.4250 36.9898 7.0148 0.0004 -2.3712 0.0004
# 3 38.0288 7.0148 114.0306 0.0003 15.3616 0.0001
# 4 -0.0006 0.0004 0.0003 23.5872 -0.0004 -6.1098
# 5 -21.9381 -2.3712 15.3616 -0.0004 39.4941 -0.0003
# 6 -0.0005 0.0004 0.0001 -6.1098 -0.0003 18.7685
#
#
#
# Elastic Compliance Matrix: (Units=1/GPa)
#
#
# Indices 1 2 3 4 5 6 
#
# 1 0.012347 0.002098 -0.005475 0.000001 0.009114 0.000001
# 2 0.002098 0.027932 -0.002956 -0.000001 0.003992 -0.000001
# 3 -0.005475 -0.002956 0.011831 0.000000 -0.007820 0.000000
# 4 0.000001 -0.000001 0.000000 0.046300 0.000001 0.015072
# 5 0.009114 0.003992 -0.007820 0.000001 0.033664 0.000001
# 6 0.000001 -0.000001 0.000000 0.015072 0.000001 0.058187
#
#
# Mechanical properties :
#
#
# Convention : Reuss Voigt Hill
#
# Bulk Modulus (GPa) = 25.35164 39.17147 32.26155
# Shear Modulus (GPa) = 23.14015 31.14911 27.14463
#
# Velocity S-wave (km/s) = 3.33883 3.87377 3.61620
# Velocity P-wave (km/s) = 5.20354 6.23530 5.74264
#
# Compressibility (1/GPa) = 0.03944518
#
# Stress axis : x y z
#
# Youngs Moduli (GPa) = 80.98841 35.80155 84.52583
#
# Poissons Ratio (x) = -0.07512 0.46275
# Poissons Ratio (y) = -0.16993 0.24984
# Poissons Ratio (z) = 0.44339 0.10582
#
# Static dielectric constant tensor:
#      x y z
#    x 1.806140 0.000000 -0.025130 
#    y 0.000000 1.739670 0.000000 
#    z -0.025130 0.000000 1.808460 
# 
# From -- ./inp_files/156263.got.cif
#   From: 2010.05.17/outbox.cif.g08.bks.cpg/sg15_79_cif.got.tgz:156263.got - 2010.06.03 18:47:42.
