data_PCOD9281555
_publ_section_title
;
Structure prediction by ZEFSAII (Michael W. Deem and Ramdas Pophale) SiO2 
 PCOD9281555
Probable space group: C 2/C
;
_chemical_formula_sum "Si O2"
_cell_formula_units_Z 56
_cell_length_a 20.674944
_cell_length_b 13.684481
_cell_length_c 13.955398
_cell_angle_alpha 90.000000
_cell_angle_beta 141.959608
_cell_angle_gamma 90.000000
_cell_volume 2433.035628
_symmetry_space_group_name_H-M "C 2/C"
_symmetry_group_IT_number 15
_symmetry_cell_setting 'monoclinic'
loop_
_space_group_symop_operation_xyz
x,y,z
-x,y,1/2-z
-x,-y,-z
x,-y,1/2+z
1/2+x,1/2+y,z
1/2-x,1/2+y,1/2-z
1/2-x,1/2-y,-z
1/2+x,1/2-y,1/2+z
loop_
_atom_site_type_symbol
_atom_site_label
_atom_site_fract_x
_atom_site_fract_y
_atom_site_fract_z
Si Si1 0.794453 0.069318 0.231003
Si Si2 0.191359 0.300537 0.213598
Si Si3 0.585205 0.620421 0.591537
Si Si4 0.058631 0.333105 0.230825
Si Si5 0.584379 0.914571 0.588851
Si Si6 0.011169 0.722391 0.149160
Si Si7 0.579104 0.381955 0.771015
O O1 0.804856 0.184175 0.263892
O O2 0.687249 0.043190 0.158528
O O3 0.814294 0.067483 0.138928
O O4 0.881791 0.993033 0.366723
O O5 0.304604 0.331786 0.310718
O O6 0.155183 0.353946 0.270482
O O7 0.100103 0.310205 0.027578
O O8 0.545845 0.673977 0.642454
O O9 0.495974 0.632951 0.408398
O O10 0.096276 0.230485 0.322631
O O11 0.000000 0.389323 0.250000
O O12 0.965023 0.336186 0.043067
O O13 0.592427 0.857705 0.699118
O O14 0.500000 0.000000 0.500000
O O15 0.000000 0.724643 0.250000
O O16 0.500000 0.435269 0.750000
#
# Coordination Sequence:
#
# PCOD9281555 Si02
#       7
#     8   8   8   8   8   8   8
#     4  11  21  38  65  89 127 172 212 262 326 390
#     4  10  21  41  62  94 124 165 217 259 327 383
#     4  12  22  42  63  90 128 171 209 269 325 385
#     4   9  18  36  63  87 120 159 197 255 317 379
#     4  11  22  42  62  92 128 165 215 267 321 381
#     4  11  24  43  66  90 128 174 215 272 319 386
#     4  10  21  38  62  95 127 157 208 261 322 387
#
# _framework density 23.016514000000001
#
# number of rings (size 3 to 8) (size 9 to 14) (size 15 to 20)
#    0.000    1.429    5.714    2.143    0.000    2.857 
#    0.000    5.714    0.000    0.000    0.000    0.000 
#    0.000    0.000    0.000    0.000    0.000    0.000 
#
# Total GULP energy -155880.590483 kJ/mol
# GULP energy per Si atom -5567.163946 kJ/mol
# Density = 2.296413 g / cm^3
# Si number density = 23.016514 Si / 1000 Ang^3
#
#
#
# Elastic Constant Matrix: (Units=GPa)
#
#
# Indices 1 2 3 4 5 6 
#
# 1 230.0659 22.9441 51.8745 0.0000 -1.7916 0.0000
# 2 22.9441 80.0914 9.4720 0.0000 1.4868 0.0000
# 3 51.8745 9.4720 43.9741 0.0000 1.3016 0.0000
# 4 0.0000 0.0000 0.0000 16.2584 0.0000 13.9432
# 5 -1.7916 1.4868 1.3016 0.0000 45.5285 0.0000
# 6 0.0000 0.0000 0.0000 13.9432 0.0000 33.7618
#
#
#
# Elastic Compliance Matrix: (Units=1/GPa)
#
#
# Indices 1 2 3 4 5 6 
#
# 1 0.005994 -0.000911 -0.006889 0.000000 0.000463 0.000000
# 2 -0.000911 0.012956 -0.001704 0.000000 -0.000410 0.000000
# 3 -0.006889 -0.001704 0.031267 0.000000 -0.001109 0.000000
# 4 0.000000 0.000000 0.000000 0.095237 0.000000 -0.039332
# 5 0.000463 -0.000410 -0.001109 0.000000 0.022028 0.000000
# 6 0.000000 0.000000 0.000000 -0.039332 0.000000 0.045863
#
#
# Mechanical properties :
#
#
# Convention : Reuss Voigt Hill
#
# Bulk Modulus (GPa) = 32.04112 58.07918 45.06015
# Shear Modulus (GPa) = 20.59693 37.09914 28.84804
#
# Velocity S-wave (km/s) = 2.99469 4.01914 3.54413
# Velocity P-wave (km/s) = 5.09006 6.84299 6.03056
#
# Compressibility (1/GPa) = 0.03120989
#
# Stress axis : x y z
#
# Youngs Moduli (GPa) = 166.82570 77.18515 31.98284
#
# Poissons Ratio (x) = 0.07032 0.22032
# Poissons Ratio (y) = 0.15200 0.05449
# Poissons Ratio (z) = 1.14921 0.13150
#
# Static dielectric constant tensor:
#      x y z
#    x 2.036850 0.000000 0.016700 
#    y 0.000000 2.021260 0.000000 
#    z 0.016700 0.000000 1.848710 
# 
# From -- ./inp_files/162321.got.cif
#   From: 2010.05.17/outbox.cif.g08.bks.cpg/sg15_82_cif.got.tgz:162321.got - 2010.06.03 18:47:42.
