data_PCOD9281160
_publ_section_title
;
Structure prediction by ZEFSAII (Michael W. Deem and Ramdas Pophale) SiO2 
 PCOD9281160
Probable space group: C 2/C
;
_chemical_formula_sum "Si O2"
_cell_formula_units_Z 56
_cell_length_a 18.602643
_cell_length_b 8.859556
_cell_length_c 13.065805
_cell_angle_alpha 90.000000
_cell_angle_beta 70.370490
_cell_angle_gamma 90.000000
_cell_volume 2028.245200
_symmetry_space_group_name_H-M "C 2/C"
_symmetry_group_IT_number 15
_symmetry_cell_setting 'monoclinic'
loop_
_space_group_symop_operation_xyz
x,y,z
-x,y,1/2-z
-x,-y,-z
x,-y,1/2+z
1/2+x,1/2+y,z
1/2-x,1/2+y,1/2-z
1/2-x,1/2-y,-z
1/2+x,1/2-y,1/2+z
loop_
_atom_site_type_symbol
_atom_site_label
_atom_site_fract_x
_atom_site_fract_y
_atom_site_fract_z
Si Si1 0.966661 0.495026 0.399885
Si Si2 0.533537 0.337310 0.618660
Si Si3 0.468857 0.666844 0.923530
Si Si4 0.755589 0.639953 0.904504
Si Si5 0.636698 0.035600 0.799297
Si Si6 0.234373 0.392836 0.439946
Si Si7 0.145330 0.818360 0.283862
O O1 0.926832 0.329355 0.411533
O O2 0.939288 0.669562 0.396010
O O3 0.049561 0.471332 0.306368
O O4 0.000000 0.500000 0.500000
O O5 0.500000 0.340158 0.750000
O O6 0.569238 0.506320 0.587703
O O7 0.477505 0.331452 0.544147
O O8 0.554764 0.659164 0.834553
O O9 0.819429 0.659499 0.788341
O O10 0.678987 0.627284 0.876049
O O11 0.750000 0.750000 0.000000
O O12 0.777247 0.498352 0.958825
O O13 0.661681 0.081463 0.901282
O O14 0.663529 0.861760 0.772532
O O15 0.250000 0.250000 0.500000
O O16 0.305781 0.402756 0.326585
#
# Coordination Sequence:
#
# PCOD9281160 Si02
#       7
#     8   8   8   8   8   8   8
#     4   9  20  41  62  86 117 159 200 252 313 360
#     4  10  21  39  62  89 120 155 203 252 304 366
#     4   9  21  40  60  86 125 155 198 256 303 356
#     4  11  22  36  58  87 118 155 197 242 294 359
#     4  10  21  39  60  84 124 156 196 256 297 359
#     4  11  22  37  56  86 117 155 198 241 295 361
#     4  10  21  38  59  84 120 162 193 244 304 356
#
# _framework density 27.610074999999998
#
# number of rings (size 3 to 8) (size 9 to 14) (size 15 to 20)
#    0.000    2.000    2.857    0.000    0.000    5.143 
#    2.571    2.857    0.000    0.000    0.000    0.000 
#    0.000    0.000    0.000    0.000    0.000    0.000 
#
# Total GULP energy -156345.975270 kJ/mol
# GULP energy per Si atom -5583.784831 kJ/mol
# Density = 2.754723 g / cm^3
# Si number density = 27.610075 Si / 1000 Ang^3
#
#
#
# Elastic Constant Matrix: (Units=GPa)
#
#
# Indices 1 2 3 4 5 6 
#
# 1 127.7868 33.6261 38.4438 0.0000 14.4625 0.0000
# 2 33.6261 183.6333 28.7829 0.0000 20.4619 0.0000
# 3 38.4438 28.7829 141.8627 0.0000 18.5454 0.0000
# 4 0.0000 0.0000 0.0000 49.3214 0.0000 1.5236
# 5 14.4625 20.4619 18.5454 0.0000 56.1256 0.0000
# 6 0.0000 0.0000 0.0000 1.5236 0.0000 22.6590
#
#
#
# Elastic Compliance Matrix: (Units=1/GPa)
#
#
# Indices 1 2 3 4 5 6 
#
# 1 0.008875 -0.001177 -0.002010 0.000000 -0.001194 0.000000
# 2 -0.001177 0.005950 -0.000673 0.000000 -0.001643 0.000000
# 3 -0.002010 -0.000673 0.007975 0.000000 -0.001872 0.000000
# 4 0.000000 0.000000 0.000000 0.020317 0.000000 -0.001366
# 5 -0.001194 -0.001643 -0.001872 0.000000 0.019342 0.000000
# 6 0.000000 0.000000 0.000000 -0.001366 0.000000 0.044224
#
#
# Mechanical properties :
#
#
# Convention : Reuss Voigt Hill
#
# Bulk Modulus (GPa) = 66.31866 72.77650 69.54758
# Shear Modulus (GPa) = 41.86486 49.11652 45.49069
#
# Velocity S-wave (km/s) = 3.89818 4.22232 4.06348
# Velocity P-wave (km/s) = 6.65830 7.08424 6.87457
#
# Compressibility (1/GPa) = 0.01507871
#
# Stress axis : x y z
#
# Youngs Moduli (GPa) = 112.67441 168.07183 125.38975
#
# Poissons Ratio (x) = 0.19784 0.25206
# Poissons Ratio (y) = 0.13263 0.08443
# Poissons Ratio (z) = 0.22650 0.11317
#
# Static dielectric constant tensor:
#      x y z
#    x 2.154460 0.000000 -0.114970 
#    y 0.000000 9.091130 0.000000 
#    z -0.114970 0.000000 2.287680 
# 
# From -- ./inp_files/121854.got.cif
#   From: 2010.05.17/outbox.cif.g08.bks.cpg/sg15_61_cif.got.tgz:121854.got - 2010.06.03 18:47:42.
