data_PCOD9281877
_publ_section_title
;
Structure prediction by ZEFSAII (Michael W. Deem and Ramdas Pophale) SiO2 
 PCOD9281877
Probable space group: C 2/C
;
_chemical_formula_sum "Si O2"
_cell_formula_units_Z 56
_cell_length_a 8.578334
_cell_length_b 24.079825
_cell_length_c 14.073014
_cell_angle_alpha 90.000000
_cell_angle_beta 61.509376
_cell_angle_gamma 90.000000
_cell_volume 2554.938687
_symmetry_space_group_name_H-M "C 2/C"
_symmetry_group_IT_number 15
_symmetry_cell_setting 'monoclinic'
loop_
_space_group_symop_operation_xyz
x,y,z
-x,y,1/2-z
-x,-y,-z
x,-y,1/2+z
1/2+x,1/2+y,z
1/2-x,1/2+y,1/2-z
1/2-x,1/2-y,-z
1/2+x,1/2-y,1/2+z
loop_
_atom_site_type_symbol
_atom_site_label
_atom_site_fract_x
_atom_site_fract_y
_atom_site_fract_z
Si Si1 0.072898 0.592517 0.900890
Si Si2 0.694583 0.249084 0.634319
Si Si3 0.271421 0.126417 0.102713
Si Si4 0.630614 0.348710 0.302390
Si Si5 0.029751 0.955114 0.865167
Si Si6 0.112280 0.474919 0.812301
Si Si7 0.861396 0.932250 0.469741
O O1 0.189157 0.623193 0.788206
O O2 0.035440 0.528318 0.888425
O O3 0.201539 0.590540 0.954750
O O4 0.892453 0.624842 0.973266
O O5 0.500000 0.240909 0.750000
O O6 0.750000 0.250000 0.500000
O O7 0.744577 0.312150 0.646616
O O8 0.820979 0.203808 0.647201
O O9 0.376594 0.084581 0.141205
O O10 0.086545 0.095794 0.136453
O O11 0.500000 0.335712 0.250000
O O12 0.529689 0.395768 0.391355
O O13 0.175900 0.986390 0.759457
O O14 0.150314 0.930718 0.914367
O O15 0.896690 0.003016 0.937416
O O16 0.000000 0.472587 0.750000
#
# Coordination Sequence:
#
# PCOD9281877 Si02
#       7
#     8   8   8   8   8   8   8
#     4  11  23  43  65  99 136 180 240 292 363 444
#     4  12  27  50  76 107 145 195 254 313 369 443
#     4  12  26  42  66  97 142 186 230 299 370 436
#     4  10  23  45  73 103 135 192 248 307 363 442
#     4  11  22  38  62  95 134 177 219 288 365 440
#     4  12  25  38  61  97 137 180 229 285 363 440
#     4  10  21  38  65  95 133 173 228 292 364 427
#
# _framework density 21.918334999999999
#
# number of rings (size 3 to 8) (size 9 to 14) (size 15 to 20)
#    0.000    0.857    2.857    4.286    4.000    2.286 
#    0.000    7.857    0.000    0.000    0.000    0.000 
#    0.000    0.000    0.000    0.000    0.000    0.000 
#
# Total GULP energy -156152.576278 kJ/mol
# GULP energy per Si atom -5576.877724 kJ/mol
# Density = 2.186845 g / cm^3
# Si number density = 21.918335 Si / 1000 Ang^3
#
#
#
# Elastic Constant Matrix: (Units=GPa)
#
#
# Indices 1 2 3 4 5 6 
#
# 1 60.4202 38.4598 40.9904 0.0000 -5.4493 0.0000
# 2 38.4598 147.4687 25.2118 0.0000 6.7846 0.0000
# 3 40.9904 25.2118 91.1320 0.0000 -14.2137 0.0000
# 4 0.0000 0.0000 0.0000 32.9601 0.0000 1.8197
# 5 -5.4493 6.7846 -14.2137 0.0000 42.5127 0.0000
# 6 0.0000 0.0000 0.0000 1.8197 0.0000 25.9764
#
#
#
# Elastic Compliance Matrix: (Units=1/GPa)
#
#
# Indices 1 2 3 4 5 6 
#
# 1 0.027236 -0.005317 -0.010659 0.000000 0.000776 0.000000
# 2 -0.005317 0.008303 -0.000231 0.000000 -0.002084 0.000000
# 3 -0.010659 -0.000231 0.016483 0.000000 0.004182 0.000000
# 4 0.000000 0.000000 0.000000 0.030458 0.000000 -0.002134
# 5 0.000776 -0.002084 0.004182 0.000000 0.025352 0.000000
# 6 0.000000 0.000000 0.000000 -0.002134 0.000000 0.038646
#
#
# Mechanical properties :
#
#
# Convention : Reuss Voigt Hill
#
# Bulk Modulus (GPa) = 50.99323 56.48278 53.73800
# Shear Modulus (GPa) = 26.96480 33.24710 30.10595
#
# Velocity S-wave (km/s) = 3.51128 3.89892 3.71017
# Velocity P-wave (km/s) = 6.30511 6.78928 6.55167
#
# Compressibility (1/GPa) = 0.01961045
#
# Stress axis : x y z
#
# Youngs Moduli (GPa) = 36.71604 120.43892 60.66752
#
# Poissons Ratio (x) = 0.64033 0.64663
# Poissons Ratio (y) = 0.19520 0.01399
# Poissons Ratio (z) = 0.39134 0.02778
#
# Static dielectric constant tensor:
#      x y z
#    x 1.810610 0.000000 0.010760 
#    y 0.000000 1.725600 0.000000 
#    z 0.010760 0.000000 2.031910 
# 
# From -- ./inp_files/137690.got.cif
#   From: 2010.05.17/outbox.cif.g08.bks.cpg/sg15_69_cif.got.tgz:137690.got - 2010.06.03 18:47:42.
