data_PCOD9281039
_publ_section_title
;
Structure prediction by ZEFSAII (Michael W. Deem and Ramdas Pophale) SiO2 
 PCOD9281039
Probable space group: C 2/C
;
_chemical_formula_sum "Si O2"
_cell_formula_units_Z 48
_cell_length_a 12.308728
_cell_length_b 22.164632
_cell_length_c 9.912040
_cell_angle_alpha 90.000000
_cell_angle_beta 77.201297
_cell_angle_gamma 90.000000
_cell_volume 2636.999921
_symmetry_space_group_name_H-M "C 2/C"
_symmetry_group_IT_number 15
_symmetry_cell_setting 'monoclinic'
loop_
_space_group_symop_operation_xyz
x,y,z
-x,y,1/2-z
-x,-y,-z
x,-y,1/2+z
1/2+x,1/2+y,z
1/2-x,1/2+y,1/2-z
1/2-x,1/2-y,-z
1/2+x,1/2-y,1/2+z
loop_
_atom_site_type_symbol
_atom_site_label
_atom_site_fract_x
_atom_site_fract_y
_atom_site_fract_z
Si Si1 0.132550 0.746443 0.105723
Si Si2 0.399931 0.733431 0.575489
Si Si3 0.274147 0.851457 0.509852
Si Si4 0.920237 0.388982 0.932961
Si Si5 0.835197 0.441015 0.705266
Si Si6 0.376065 0.074220 0.733907
O O1 0.139257 0.769687 0.257191
O O2 0.090982 0.677390 0.124481
O O3 0.032328 0.776374 0.048438
O O4 0.250000 0.750000 0.000000
O O5 0.363411 0.799426 0.528686
O O6 0.334983 0.684829 0.504712
O O7 0.258271 0.897545 0.638114
O O8 0.317757 0.890370 0.371010
O O9 0.836358 0.427331 0.863923
O O10 0.040761 0.420629 0.881474
O O11 0.890113 0.385644 0.097235
O O12 0.820157 0.512268 0.698665
O O13 0.500000 0.056942 0.750000
#
# Coordination Sequence:
#
# PCOD9281039 Si02
#       6
#     8   8   8   8   8   8
#     4  11  20  37  60  85 111 158 197 239 297 358
#     4  10  21  38  57  81 125 155 189 242 300 352
#     4  11  21  35  54  82 119 157 182 242 303 347
#     4  11  19  32  48  80 115 149 191 240 290 350
#     4  11  19  33  52  75 120 158 182 242 309 336
#     4  12  20  29  51  86 116 152 203 236 288 365
#
# _framework density 18.202503
#
# number of rings (size 3 to 8) (size 9 to 14) (size 15 to 20)
#    0.000    1.000    6.667    3.500    0.000    0.000 
#    0.000    2.500    0.000    0.000    0.000   21.000 
#    0.000    0.000    0.000    0.000    0.000    0.000 
#
# Total GULP energy -133886.094018 kJ/mol
# GULP energy per Si atom -5578.587251 kJ/mol
# Density = 1.816107 g / cm^3
# Si number density = 18.202503 Si / 1000 Ang^3
#
#
#
# Elastic Constant Matrix: (Units=GPa)
#
#
# Indices 1 2 3 4 5 6 
#
# 1 94.0836 28.1153 39.0778 0.0000 3.4235 0.0000
# 2 28.1153 79.3121 13.6696 0.0000 9.6939 0.0000
# 3 39.0778 13.6696 83.8554 0.0000 13.8116 0.0000
# 4 0.0000 0.0000 0.0000 26.3602 0.0000 10.8493
# 5 3.4235 9.6939 13.8116 0.0000 27.6328 0.0000
# 6 0.0000 0.0000 0.0000 10.8493 0.0000 18.6994
#
#
#
# Elastic Compliance Matrix: (Units=1/GPa)
#
#
# Indices 1 2 3 4 5 6 
#
# 1 0.014561 -0.004399 -0.006566 0.000000 0.003021 0.000000
# 2 -0.004399 0.014680 0.000453 0.000000 -0.004831 0.000000
# 3 -0.006566 0.000453 0.016132 0.000000 -0.007408 0.000000
# 4 0.000000 0.000000 0.000000 0.049837 0.000000 -0.028915
# 5 0.003021 -0.004831 -0.007408 0.000000 0.041212 0.000000
# 6 0.000000 0.000000 0.000000 -0.028915 0.000000 0.070254
#
#
# Mechanical properties :
#
#
# Convention : Reuss Voigt Hill
#
# Bulk Modulus (GPa) = 41.07161 46.55294 43.81227
# Shear Modulus (GPa) = 21.20292 26.29771 23.75031
#
# Velocity S-wave (km/s) = 3.41667 3.80508 3.61610
# Velocity P-wave (km/s) = 6.17880 6.70339 6.44643
#
# Compressibility (1/GPa) = 0.02434772
#
# Stress axis : x y z
#
# Youngs Moduli (GPa) = 68.67782 68.11815 61.99038
#
# Poissons Ratio (x) = 0.29967 0.40703
# Poissons Ratio (y) = 0.30213 -0.02807
# Poissons Ratio (z) = 0.45094 -0.03084
#
# Static dielectric constant tensor:
#      x y z
#    x 1.638180 0.000000 0.020690 
#    y 0.000000 1.654810 0.000000 
#    z 0.020690 0.000000 1.653790 
# 
# From -- ./inp_files/88480.got.cif
#   From: 2010.05.17/outbox.cif.g08.bks.cpg/sg15_45_cif.got.tgz:88480.got - 2010.06.03 18:47:42.
