data_PCOD9281092
_publ_section_title
;
Structure prediction by ZEFSAII (Michael W. Deem and Ramdas Pophale) SiO2 
 PCOD9281092
Probable space group: C 2/C
;
_chemical_formula_sum "Si O2"
_cell_formula_units_Z 40
_cell_length_a 8.507933
_cell_length_b 15.717868
_cell_length_c 16.873730
_cell_angle_alpha 90.000000
_cell_angle_beta 139.017873
_cell_angle_gamma 90.000000
_cell_volume 1479.843590
_symmetry_space_group_name_H-M "C 2/C"
_symmetry_group_IT_number 15
_symmetry_cell_setting 'monoclinic'
loop_
_space_group_symop_operation_xyz
x,y,z
-x,y,1/2-z
-x,-y,-z
x,-y,1/2+z
1/2+x,1/2+y,z
1/2-x,1/2+y,1/2-z
1/2-x,1/2-y,-z
1/2+x,1/2-y,1/2+z
loop_
_atom_site_type_symbol
_atom_site_label
_atom_site_fract_x
_atom_site_fract_y
_atom_site_fract_z
Si Si1 0.513832 0.653190 0.164116
Si Si2 0.152627 0.581331 0.577459
Si Si3 0.389773 0.144494 0.614986
Si Si4 0.023310 0.868688 0.110331
Si Si5 0.971068 0.326356 0.619795
O O1 0.500000 0.623476 0.250000
O O2 0.322194 0.621535 0.028290
O O3 0.793262 0.635577 0.251061
O O4 0.451965 0.755079 0.142250
O O5 0.116555 0.603994 0.655057
O O6 0.000000 0.500000 0.500000
O O7 0.410436 0.571029 0.634315
O O8 0.031412 0.655781 0.476593
O O9 0.260450 0.120024 0.648368
O O10 0.007492 0.774120 0.142654
O O11 0.792068 0.861462 0.960744
#
# Coordination Sequence:
#
# PCOD9281092 Si02
#       5
#     8   8   8   8   8
#     4  11  18  34  62  91 116 148 201 258 300 355
#     4  10  21  38  58  83 126 160 196 248 306 367
#     4  11  21  34  62  86 114 166 194 245 315 342
#     4   9  19  37  57  89 113 148 207 249 287 364
#     4   9  18  36  57  85 125 139 195 263 283 353
#
# _framework density 27.029883000000002
#
# number of rings (size 3 to 8) (size 9 to 14) (size 15 to 20)
#    1.200    0.800    4.000    1.200    0.000    1.600 
#    0.000    0.000    8.800    0.000    0.000    0.000 
#    0.000    0.000    0.000    0.000    0.000    0.000 
#
# Total GULP energy -111605.137541 kJ/mol
# GULP energy per Si atom -5580.256877 kJ/mol
# Density = 2.696836 g / cm^3
# Si number density = 27.029883 Si / 1000 Ang^3
#
#
#
# Elastic Constant Matrix: (Units=GPa)
#
#
# Indices 1 2 3 4 5 6 
#
# 1 241.1442 54.6301 53.8911 0.0001 29.5845 0.0000
# 2 54.6301 59.8995 -11.5035 0.0001 -3.1654 0.0000
# 3 53.8911 -11.5035 88.6570 0.0003 34.7665 0.0001
# 4 0.0001 0.0001 0.0003 25.1773 0.0001 2.7890
# 5 29.5845 -3.1654 34.7665 0.0001 86.3696 0.0001
# 6 0.0000 0.0000 0.0001 2.7890 0.0001 23.6512
#
#
#
# Elastic Compliance Matrix: (Units=1/GPa)
#
#
# Indices 1 2 3 4 5 6 
#
# 1 0.007008 -0.007378 -0.004952 0.000000 -0.000678 0.000000
# 2 -0.007378 0.024897 0.007560 0.000000 0.000397 0.000000
# 3 -0.004952 0.007560 0.017214 0.000000 -0.004956 0.000000
# 4 0.000000 0.000000 0.000000 0.040244 0.000000 -0.004746
# 5 -0.000678 0.000397 -0.004956 0.000000 0.013820 0.000000
# 6 0.000000 0.000000 0.000000 -0.004746 0.000000 0.042841
#
#
# Mechanical properties :
#
#
# Convention : Reuss Voigt Hill
#
# Bulk Modulus (GPa) = 25.26628 64.85957 45.06292
# Shear Modulus (GPa) = 29.62855 46.55181 38.09018
#
# Velocity S-wave (km/s) = 3.31439 4.15448 3.75799
# Velocity P-wave (km/s) = 4.90049 6.86007 5.96135
#
# Compressibility (1/GPa) = 0.03957845
#
# Stress axis : x y z
#
# Youngs Moduli (GPa) = 142.69057 40.16586 58.09342
#
# Poissons Ratio (x) = 0.29636 0.28765
# Poissons Ratio (y) = 1.05283 -0.43918
# Poissons Ratio (z) = 0.70654 -0.30365
#
# Static dielectric constant tensor:
#      x y z
#    x 2.339150 0.000000 0.032790 
#    y 0.000000 2.082040 0.000000 
#    z 0.032790 0.000000 2.332830 
# 
# From -- ./inp_files/233659.got.cif
#   From: 2010.05.17/outbox.cif.g08.bks.cpg/sg15_117_cif.got.tgz:233659.got - 2010.06.03 18:47:42.
