data_PCOD9281974
_publ_section_title
;
Structure prediction by ZEFSAII (Michael W. Deem and Ramdas Pophale) SiO2 
 PCOD9281974
Probable space group: C 2/C
;
_chemical_formula_sum "Si O2"
_cell_formula_units_Z 40
_cell_length_a 9.186598
_cell_length_b 23.584034
_cell_length_c 8.932888
_cell_angle_alpha 90.000000
_cell_angle_beta 100.329897
_cell_angle_gamma 90.000000
_cell_volume 1904.003777
_symmetry_space_group_name_H-M "C 2/C"
_symmetry_group_IT_number 15
_symmetry_cell_setting 'monoclinic'
loop_
_space_group_symop_operation_xyz
x,y,z
-x,y,1/2-z
-x,-y,-z
x,-y,1/2+z
1/2+x,1/2+y,z
1/2-x,1/2+y,1/2-z
1/2-x,1/2-y,-z
1/2+x,1/2-y,1/2+z
loop_
_atom_site_type_symbol
_atom_site_label
_atom_site_fract_x
_atom_site_fract_y
_atom_site_fract_z
Si Si1 0.736732 0.530881 0.269520
Si Si2 0.248108 0.075898 0.589046
Si Si3 0.000000 0.619526 0.250000
Si Si4 0.000000 0.350860 0.250000
Si Si5 0.693889 0.186567 0.517172
Si Si6 0.539267 0.378755 0.589724
O O1 0.730689 0.534123 0.446045
O O2 0.749709 0.465675 0.229573
O O3 0.869307 0.575344 0.263221
O O4 0.604357 0.560120 0.152353
O O5 0.399922 0.110119 0.623640
O O6 0.108702 0.116479 0.535734
O O7 0.064796 0.661893 0.386668
O O8 0.878313 0.319180 0.330619
O O9 0.750000 0.250000 0.500000
O O10 0.836445 0.150137 0.489916
O O11 0.500000 0.352709 0.750000
#
# Coordination Sequence:
#
# PCOD9281974 Si02
#       6
#     8   8   4   4   8   8
#     4  10  21  38  66  98 138 184 220 269 334 405
#     4  11  23  40  66 100 144 179 223 273 333 412
#     4  10  21  44  66  96 134 178 229 274 336 414
#     4  12  27  44  66 106 134 172 231 288 336 406
#     4  11  26  47  73  97 131 180 230 292 349 390
#     4   9  22  44  66  98 137 181 231 278 329 402
#
# _framework density 21.008362999999999
#
# number of rings (size 3 to 8) (size 9 to 14) (size 15 to 20)
#    0.000    1.600    2.000    1.200    7.000    4.000 
#    0.000    2.000    0.000    0.000    0.000    0.000 
#    0.000    0.000    0.000    0.000    0.000    0.000 
#
# Total GULP energy -111374.657009 kJ/mol
# GULP energy per Si atom -5568.732850 kJ/mol
# Density = 2.096055 g / cm^3
# Si number density = 21.008363 Si / 1000 Ang^3
#
#
#
# Elastic Constant Matrix: (Units=GPa)
#
#
# Indices 1 2 3 4 5 6 
#
# 1 130.9159 55.5468 61.0744 0.0000 2.4936 0.0000
# 2 55.5468 68.8067 35.3615 0.0000 -8.5621 0.0000
# 3 61.0744 35.3615 84.8312 0.0000 -7.8914 0.0000
# 4 0.0000 0.0000 0.0000 14.6602 0.0000 -19.8040
# 5 2.4936 -8.5621 -7.8914 0.0000 50.3011 0.0000
# 6 0.0000 0.0000 0.0000 -19.8040 0.0000 3.3259
#
#
#
# Elastic Compliance Matrix: (Units=1/GPa)
#
#
# Indices 1 2 3 4 5 6 
#
# 1 0.014774 -0.008548 -0.007385 0.000000 -0.003346 0.000000
# 2 -0.008548 0.023636 -0.003333 0.000000 0.003924 0.000000
# 3 -0.007385 -0.003333 0.018749 0.000000 0.002740 0.000000
# 4 0.000000 0.000000 0.000000 -0.009684 0.000000 -0.057664
# 5 -0.003346 0.003924 0.002740 0.000000 0.021144 0.000000
# 6 0.000000 0.000000 0.000000 -0.057664 0.000000 -0.042686
#
#
# Mechanical properties :
#
#
# Convention : Reuss Voigt Hill
#
# Bulk Modulus (GPa) = 53.68587 65.39102 59.53844
# Shear Modulus (GPa) = 70.74787 22.49552 46.62169
#
# Velocity S-wave (km/s) = 5.80940 3.27584 4.71595
# Velocity P-wave (km/s) = 8.40291 6.74551 7.61941
#
# Compressibility (1/GPa) = 0.01862687
#
# Stress axis : x y z
#
# Youngs Moduli (GPa) = 67.68503 42.30907 53.33604
#
# Poissons Ratio (x) = 0.36167 0.39387
# Poissons Ratio (y) = 0.57859 0.17777
# Poissons Ratio (z) = 0.49984 0.14102
#
# Static dielectric constant tensor:
#      x y z
#    x 1.922110 0.000000 -0.048340 
#    y 0.000000 1.727450 0.000000 
#    z -0.048340 0.000000 1.806580 
# 
# From -- ./inp_files/23784.got.cif
#   From: 2010.05.17/outbox.cif.g08.bks.cpg/sg15_12_cif.got.tgz:23784.got - 2010.06.03 18:47:42.
