data_PCOD9281356
_publ_section_title
;
Structure prediction by ZEFSAII (Michael W. Deem and Ramdas Pophale) SiO2 
 PCOD9281356
Probable space group: C 2/C
;
_chemical_formula_sum "Si O2"
_cell_formula_units_Z 64
_cell_length_a 28.240417
_cell_length_b 7.851423
_cell_length_c 13.886121
_cell_angle_alpha 90.000000
_cell_angle_beta 105.366468
_cell_angle_gamma 90.000000
_cell_volume 2968.864444
_symmetry_space_group_name_H-M "C 2/C"
_symmetry_group_IT_number 15
_symmetry_cell_setting 'monoclinic'
loop_
_space_group_symop_operation_xyz
x,y,z
-x,y,1/2-z
-x,-y,-z
x,-y,1/2+z
1/2+x,1/2+y,z
1/2-x,1/2+y,1/2-z
1/2-x,1/2-y,-z
1/2+x,1/2-y,1/2+z
loop_
_atom_site_type_symbol
_atom_site_label
_atom_site_fract_x
_atom_site_fract_y
_atom_site_fract_z
Si Si1 0.977601 0.121930 0.340735
Si Si2 0.290083 0.892782 0.492098
Si Si3 0.384954 0.204304 0.758184
Si Si4 0.596012 0.088491 0.101050
Si Si5 0.400360 0.951181 0.594640
Si Si6 0.700782 0.883459 0.685135
Si Si7 0.278383 0.867062 0.145658
Si Si8 0.993183 0.245770 0.566895
O O1 0.919627 0.133858 0.286101
O O2 0.986931 0.223600 0.446777
O O3 0.000000 0.182577 0.250000
O O4 0.997497 0.936106 0.378358
O O5 0.250000 0.750000 0.500000
O O6 0.346762 0.861030 0.557143
O O7 0.293258 0.951580 0.382540
O O8 0.275530 0.070899 0.535571
O O9 0.329104 0.231206 0.696882
O O10 0.391689 0.105182 0.862184
O O11 0.403914 0.056806 0.694926
O O12 0.644784 0.180680 0.163951
O O13 0.543186 0.147383 0.106967
O O14 0.598527 0.095453 0.987582
O O15 0.446466 0.833188 0.592382
O O16 0.733631 0.736085 0.661724
O O17 0.717513 0.953715 0.796027
#
# Coordination Sequence:
#
# PCOD9281356 Si02
#       8
#     8   8   8   8   8   8   8   8
#     4  11  25  42  58  92 126 156 200 259 311 357
#     4  10  21  40  61  89 122 159 206 253 304 365
#     4  10  22  38  63  85 121 159 208 249 299 367
#     4  10  21  38  62  88 112 161 206 241 300 368
#     4  10  21  39  66  89 118 164 210 246 300 379
#     4  10  21  38  61  87 122 154 204 253 304 367
#     4  10  21  39  59  92 119 159 206 252 306 366
#     4  11  24  42  61  89 128 156 204 252 309 370
#
# _framework density 21.557064
#
# number of rings (size 3 to 8) (size 9 to 14) (size 15 to 20)
#    0.000    1.750    1.250    2.250    3.500    1.000 
#    6.750    0.000    0.000    0.000    0.000    0.000 
#    0.000    0.000    0.000    0.000    0.000    0.000 
#
# Total GULP energy -178368.395111 kJ/mol
# GULP energy per Si atom -5574.012347 kJ/mol
# Density = 2.150800 g / cm^3
# Si number density = 21.557064 Si / 1000 Ang^3
#
#
#
# Elastic Constant Matrix: (Units=GPa)
#
#
# Indices 1 2 3 4 5 6 
#
# 1 159.6182 50.1941 8.3493 0.0000 16.0939 0.0000
# 2 50.1941 33.2858 8.6383 0.0000 17.3156 0.0000
# 3 8.3493 8.6383 67.9974 0.0000 -9.4033 0.0000
# 4 0.0000 0.0000 0.0000 9.3430 0.0000 -9.2535
# 5 16.0939 17.3156 -9.4033 0.0000 33.1166 0.0000
# 6 0.0000 0.0000 0.0000 -9.2535 0.0000 39.1521
#
#
#
# Elastic Compliance Matrix: (Units=1/GPa)
#
#
# Indices 1 2 3 4 5 6 
#
# 1 0.012841 -0.023440 0.002324 0.000000 0.006675 0.000000
# 2 -0.023440 0.089474 -0.013930 0.000000 -0.039347 0.000000
# 3 0.002324 -0.013930 0.017738 0.000000 0.011190 0.000000
# 4 0.000000 0.000000 0.000000 0.139743 0.000000 0.033028
# 5 0.006675 -0.039347 0.011190 0.000000 0.050703 0.000000
# 6 0.000000 0.000000 0.000000 0.033028 0.000000 0.033347
#
#
# Mechanical properties :
#
#
# Convention : Reuss Voigt Hill
#
# Bulk Modulus (GPa) = 20.01527 43.91830 31.96679
# Shear Modulus (GPa) = 11.61191 29.23699 20.42445
#
# Velocity S-wave (km/s) = 2.32342 3.68674 3.08142
# Velocity P-wave (km/s) = 4.06235 6.20806 5.24608
#
# Compressibility (1/GPa) = 0.04996185
#
# Stress axis : x y z
#
# Youngs Moduli (GPa) = 77.87276 11.17646 56.37563
#
# Poissons Ratio (x) = 0.26198 -0.13103
# Poissons Ratio (y) = 1.82537 0.78529
# Poissons Ratio (z) = -0.18099 0.15568
#
# Static dielectric constant tensor:
#      x y z
#    x 1.814980 0.000000 0.008680 
#    y 0.000000 1.766910 0.000000 
#    z 0.008680 0.000000 1.811430 
# 
# From -- ./inp_files/176631.got.cif
#   From: 2010.05.17/outbox.cif.g08.bks.cpg/sg15_89_cif.got.tgz:176631.got - 2010.06.03 18:47:42.
