data_PCOD9281742
_publ_section_title
;
Structure prediction by ZEFSAII (Michael W. Deem and Ramdas Pophale) SiO2 
 PCOD9281742
Probable space group: C 2/C
;
_chemical_formula_sum "Si O2"
_cell_formula_units_Z 48
_cell_length_a 21.945998
_cell_length_b 22.665182
_cell_length_c 13.771173
_cell_angle_alpha 90.000000
_cell_angle_beta 158.586544
_cell_angle_gamma 90.000000
_cell_volume 2500.874405
_symmetry_space_group_name_H-M "C 2/C"
_symmetry_group_IT_number 15
_symmetry_cell_setting 'monoclinic'
loop_
_space_group_symop_operation_xyz
x,y,z
-x,y,1/2-z
-x,-y,-z
x,-y,1/2+z
1/2+x,1/2+y,z
1/2-x,1/2+y,1/2-z
1/2-x,1/2-y,-z
1/2+x,1/2-y,1/2+z
loop_
_atom_site_type_symbol
_atom_site_label
_atom_site_fract_x
_atom_site_fract_y
_atom_site_fract_z
Si Si1 0.189603 0.056502 0.506334
Si Si2 0.550585 0.247721 0.218339
Si Si3 0.702261 0.065014 0.254320
Si Si4 0.000000 0.859158 0.250000
Si Si5 0.071317 0.635645 0.554245
Si Si6 0.690134 0.476097 0.791917
Si Si7 0.000000 0.566570 0.250000
O O1 0.203387 0.059624 0.411411
O O2 0.000000 0.040555 0.250000
O O3 0.300816 0.001670 0.710281
O O4 0.243689 0.115141 0.643620
O O5 0.500000 0.223232 0.250000
O O6 0.750000 0.250000 0.500000
O O7 0.489046 0.315077 0.141238
O O8 0.468735 0.204428 0.018709
O O9 0.840339 0.100146 0.520593
O O10 0.537779 0.103321 0.024943
O O11 0.763661 0.060327 0.235329
O O12 0.017975 0.604548 0.374385
O O13 0.500000 0.500000 0.500000
O O14 0.832363 0.526912 0.008401
#
# Coordination Sequence:
#
# PCOD9281742 Si02
#       7
#     8   8   8   4   8   8   4
#     4  12  23  39  57  94 130 167 210 253 330 389
#     4  10  21  39  61  93 118 158 215 272 319 370
#     4  12  21  37  61  90 126 171 204 262 314 387
#     4  10  21  38  64  90 120 161 216 262 318 372
#     4  12  22  38  63  89 128 165 211 272 315 380
#     4  12  23  36  56  87 132 171 208 248 319 398
#     4  12  21  34  56  90 120 161 208 246 314 380
#
# _framework density 19.193287000000002
#
# number of rings (size 3 to 8) (size 9 to 14) (size 15 to 20)
#    0.500    0.000    8.333    1.500    0.000    0.000 
#    3.000    0.000    0.000    1.000    2.167    0.000 
#    0.000    0.000    0.000    0.000    0.000    0.000 
#
# Total GULP energy -133876.279033 kJ/mol
# GULP energy per Si atom -5578.178293 kJ/mol
# Density = 1.914960 g / cm^3
# Si number density = 19.193287 Si / 1000 Ang^3
#
#
#
# Elastic Constant Matrix: (Units=GPa)
#
#
# Indices 1 2 3 4 5 6 
#
# 1 115.2682 15.8561 10.3114 0.0000 -7.6929 0.0000
# 2 15.8561 78.9925 20.9064 0.0000 -9.2707 0.0000
# 3 10.3114 20.9064 68.4225 0.0000 2.0912 0.0000
# 4 0.0000 0.0000 0.0000 34.7850 0.0000 -4.0358
# 5 -7.6929 -9.2707 2.0912 0.0000 33.7391 0.0000
# 6 0.0000 0.0000 0.0000 -4.0358 0.0000 4.2257
#
#
#
# Elastic Compliance Matrix: (Units=1/GPa)
#
#
# Indices 1 2 3 4 5 6 
#
# 1 0.009068 -0.001347 -0.001009 0.000000 0.001760 0.000000
# 2 -0.001347 0.014550 -0.004364 0.000000 0.003961 0.000000
# 3 -0.001009 -0.004364 0.016175 0.000000 -0.002432 0.000000
# 4 0.000000 0.000000 0.000000 0.032331 0.000000 0.030878
# 5 0.001760 0.003961 -0.002432 0.000000 0.031280 0.000000
# 6 0.000000 0.000000 0.000000 0.030878 0.000000 0.266140
#
#
# Mechanical properties :
#
#
# Convention : Reuss Voigt Hill
#
# Bulk Modulus (GPa) = 37.94484 39.64789 38.79636
# Shear Modulus (GPa) = 12.76270 28.92391 20.84330
#
# Velocity S-wave (km/s) = 2.58147 3.88620 3.29898
# Velocity P-wave (km/s) = 5.35706 6.39052 5.89647
#
# Compressibility (1/GPa) = 0.02635405
#
# Stress axis : x y z
#
# Youngs Moduli (GPa) = 110.27308 68.73061 61.82467
#
# Poissons Ratio (x) = 0.09256 0.06238
# Poissons Ratio (y) = 0.14850 0.26979
# Poissons Ratio (z) = 0.11126 0.29992
#
# Static dielectric constant tensor:
#      x y z
#    x 1.690980 0.000000 0.019470 
#    y 0.000000 1.672870 0.000000 
#    z 0.019470 0.000000 1.707360 
# 
# From -- ./inp_files/174685.got.cif
#   From: 2010.05.17/outbox.cif.g08.bks.cpg/sg15_88_cif.got.tgz:174685.got - 2010.06.03 18:47:42.
