data_PCOD9281863
_publ_section_title
;
Structure prediction by ZEFSAII (Michael W. Deem and Ramdas Pophale) SiO2 
 PCOD9281863
Probable space group: C 2/C
;
_chemical_formula_sum "Si O2"
_cell_formula_units_Z 64
_cell_length_a 11.145016
_cell_length_b 15.100210
_cell_length_c 27.729519
_cell_angle_alpha 90.000000
_cell_angle_beta 142.503653
_cell_angle_gamma 90.000000
_cell_volume 2840.645636
_symmetry_space_group_name_H-M "C 2/C"
_symmetry_group_IT_number 15
_symmetry_cell_setting 'monoclinic'
loop_
_space_group_symop_operation_xyz
x,y,z
-x,y,1/2-z
-x,-y,-z
x,-y,1/2+z
1/2+x,1/2+y,z
1/2-x,1/2+y,1/2-z
1/2-x,1/2-y,-z
1/2+x,1/2-y,1/2+z
loop_
_atom_site_type_symbol
_atom_site_label
_atom_site_fract_x
_atom_site_fract_y
_atom_site_fract_z
Si Si1 0.732921 0.182505 0.251560
Si Si2 0.359483 0.089097 0.106251
Si Si3 0.619110 0.287915 0.837741
Si Si4 0.030352 0.585818 0.816760
Si Si5 0.100054 0.135057 0.694803
Si Si6 0.266172 0.538955 0.538153
Si Si7 0.736169 0.256046 0.359436
Si Si8 0.559046 0.128379 0.000087
O O1 0.593154 0.105803 0.188945
O O2 0.673762 0.268275 0.199566
O O3 0.698097 0.214396 0.295000
O O4 0.961812 0.164922 0.322543
O O5 0.271833 0.173773 0.106012
O O6 0.331988 0.991828 0.119605
O O7 0.290203 0.085389 0.029653
O O8 0.500000 0.302949 0.750000
O O9 0.622843 0.183466 0.849425
O O10 0.825495 0.329599 0.917661
O O11 0.814677 0.592861 0.774746
O O12 0.000000 0.568633 0.750000
O O13 0.985122 0.068965 0.622912
O O14 0.928205 0.169895 0.676836
O O15 0.204760 0.436170 0.517416
O O16 0.121298 0.575291 0.533513
O O17 0.950166 0.300869 0.431470
#
# Coordination Sequence:
#
# PCOD9281863 Si02
#       8
#     8   8   8   8   8   8   8   8
#     4  10  21  38  65  94 123 170 220 262 326 389
#     4  11  22  39  62  92 124 168 214 265 329 395
#     4  10  22  40  63  93 125 172 216 264 326 384
#     4  10  22  39  61  91 129 160 211 272 321 390
#     4   9  20  39  62  88 121 168 212 267 322 387
#     4  10  23  41  63  95 126 167 216 272 331 382
#     4  10  22  41  66  94 126 172 219 266 331 397
#     4  10  23  43  62  93 132 166 218 275 325 389
#
# _framework density 22.530090000000001
#
# number of rings (size 3 to 8) (size 9 to 14) (size 15 to 20)
#    0.000    2.000    0.000    3.000    5.250    9.000 
#    2.250    1.250    0.000    0.000    0.000    0.000 
#    0.000    0.000    0.000    0.000    0.000    0.000 
#
# Total GULP energy -178259.510612 kJ/mol
# GULP energy per Si atom -5570.609707 kJ/mol
# Density = 2.247881 g / cm^3
# Si number density = 22.530090 Si / 1000 Ang^3
#
#
#
# Elastic Constant Matrix: (Units=GPa)
#
#
# Indices 1 2 3 4 5 6 
#
# 1 44.5779 5.2715 7.4356 0.0000 -0.6279 0.0000
# 2 5.2715 75.8255 25.0817 0.0000 -2.7395 0.0000
# 3 7.4356 25.0817 57.5329 0.0000 -1.5963 0.0000
# 4 0.0000 0.0000 0.0000 5.4554 0.0000 15.3659
# 5 -0.6279 -2.7395 -1.5963 0.0000 29.7381 0.0000
# 6 0.0000 0.0000 0.0000 15.3659 0.0000 -16.5688
#
#
#
# Elastic Compliance Matrix: (Units=1/GPa)
#
#
# Indices 1 2 3 4 5 6 
#
# 1 0.022963 -0.000710 -0.002651 0.000000 0.000277 0.000000
# 2 -0.000710 0.015466 -0.006621 0.000000 0.001054 0.000000
# 3 -0.002651 -0.006621 0.020623 0.000000 0.000441 0.000000
# 4 0.000000 0.000000 0.000000 0.050747 0.000000 0.047062
# 5 0.000277 0.001054 0.000441 0.000000 0.033754 0.000000
# 6 0.000000 0.000000 0.000000 0.047062 0.000000 -0.016709
#
#
# Mechanical properties :
#
#
# Convention : Reuss Voigt Hill
#
# Bulk Modulus (GPa) = 25.58339 28.16820 26.87579
# Shear Modulus (GPa) = 31.28218 13.06812 22.17515
#
# Velocity S-wave (km/s) = 3.73025 2.41099 3.14067
# Velocity P-wave (km/s) = 5.47109 4.50335 5.01064
#
# Compressibility (1/GPa) = 0.03908787
#
# Stress axis : x y z
#
# Youngs Moduli (GPa) = 43.54909 64.65859 48.48999
#
# Poissons Ratio (x) = 0.04588 0.12853
# Poissons Ratio (y) = 0.03090 0.32107
# Poissons Ratio (z) = 0.11543 0.42813
#
# Static dielectric constant tensor:
#      x y z
#    x 1.955720 0.000000 0.000350 
#    y 0.000000 1.870400 0.000000 
#    z 0.000350 0.000000 1.835270 
# 
# From -- ./inp_files/293083.got.cif
#   From: 2010.05.17/outbox.cif.g08.bks.cpg/sg15_147_cif.got.tgz:293083.got - 2010.06.03 18:47:42.
