data_PCOD9281984
_publ_section_title
;
Structure prediction by ZEFSAII (Michael W. Deem and Ramdas Pophale) SiO2 
 PCOD9281984
Probable space group: C 2/C
;
_chemical_formula_sum "Si O2"
_cell_formula_units_Z 64
_cell_length_a 13.471667
_cell_length_b 30.552152
_cell_length_c 19.473509
_cell_angle_alpha 90.000000
_cell_angle_beta 25.469406
_cell_angle_gamma 90.000000
_cell_volume 3446.713550
_symmetry_space_group_name_H-M "C 2/C"
_symmetry_group_IT_number 15
_symmetry_cell_setting 'monoclinic'
loop_
_space_group_symop_operation_xyz
x,y,z
-x,y,1/2-z
-x,-y,-z
x,-y,1/2+z
1/2+x,1/2+y,z
1/2-x,1/2+y,1/2-z
1/2-x,1/2-y,-z
1/2+x,1/2-y,1/2+z
loop_
_atom_site_type_symbol
_atom_site_label
_atom_site_fract_x
_atom_site_fract_y
_atom_site_fract_z
Si Si1 0.516417 0.223893 0.157781
Si Si2 0.236035 0.766157 0.432218
Si Si3 0.364606 0.797008 0.145076
Si Si4 0.317341 0.442856 0.419203
Si Si5 0.729883 0.154256 0.925415
Si Si6 0.967716 0.933835 0.064009
Si Si7 0.777508 0.651765 0.841746
Si Si8 0.382873 0.010345 0.249659
O O1 0.500000 0.214474 0.250000
O O2 0.320339 0.257772 0.253282
O O3 0.750000 0.250000 0.000000
O O4 0.568469 0.180935 0.079290
O O5 0.500000 0.769868 0.250000
O O6 0.250000 0.750000 0.500000
O O7 0.135213 0.813878 0.478085
O O8 0.099887 0.728083 0.480293
O O9 0.349716 0.836441 0.101507
O O10 0.343883 0.818538 0.233322
O O11 0.500000 0.461284 0.250000
O O12 0.236005 0.396056 0.441617
O O13 0.444636 0.432769 0.412127
O O14 0.094772 0.472962 0.571276
O O15 0.000000 0.169728 0.750000
O O16 0.870630 0.888625 0.093861
O O17 0.761020 0.969068 0.187358
O O18 0.189206 0.952137 0.883562
O O19 0.000000 0.638107 0.750000
O O20 0.500000 0.999868 0.250000
#
# Coordination Sequence:
#
# PCOD9281984 Si02
#       8
#     8   8   8   8   8   8   8   8
#     4  12  23  36  56  85 116 155 201 249 297 364
#     4  11  23  41  57  82 116 161 213 253 297 354
#     4  12  22  39  59  78 122 163 198 253 311 343
#     4  10  22  39  60  90 127 157 192 247 307 374
#     4  11  22  38  56  86 123 155 198 246 299 367
#     4  10  21  38  67  88 119 158 195 256 302 361
#     4  11  22  37  62  87 113 159 210 249 298 361
#     4   9  20  41  63  93 121 150 198 245 306 370
#
# _framework density 18.568413
#
# number of rings (size 3 to 8) (size 9 to 14) (size 15 to 20)
#    0.000    1.250    5.000    2.625    0.000    3.000 
#    0.000    0.000    0.000    0.750    0.000    0.000 
#    0.000    0.000    0.000    0.000    0.000    0.000 
#
# Total GULP energy -178244.079650 kJ/mol
# GULP energy per Si atom -5570.127489 kJ/mol
# Density = 1.852615 g / cm^3
# Si number density = 18.568413 Si / 1000 Ang^3
#
#
#
# Elastic Constant Matrix: (Units=GPa)
#
#
# Indices 1 2 3 4 5 6 
#
# 1 98.4298 45.0865 43.4941 -0.1324 1.8951 0.0549
# 2 45.0865 93.8707 47.1130 -0.0996 -3.9196 0.0211
# 3 43.4941 47.1130 97.3584 -0.0533 9.1728 -0.0041
# 4 -0.1324 -0.0996 -0.0533 24.3012 0.0274 -3.2645
# 5 1.8951 -3.9196 9.1728 0.0274 36.3396 -0.0319
# 6 0.0549 0.0211 -0.0041 -3.2645 -0.0319 31.7072
#
#
#
# Elastic Compliance Matrix: (Units=1/GPa)
#
#
# Indices 1 2 3 4 5 6 
#
# 1 0.014113 -0.004804 -0.003956 0.000046 -0.000255 -0.000017
# 2 -0.004804 0.016106 -0.005977 0.000023 0.003497 0.000003
# 3 -0.003956 -0.005977 0.015337 -0.000007 -0.004310 0.000008
# 4 0.000046 0.000023 -0.000007 0.041728 -0.000026 0.004296
# 5 -0.000255 0.003497 -0.004310 -0.000026 0.028997 0.000024
# 6 -0.000017 0.000003 0.000008 0.004296 0.000024 0.031981
#
#
# Mechanical properties :
#
#
# Convention : Reuss Voigt Hill
#
# Bulk Modulus (GPa) = 62.18124 62.33844 62.25984
# Shear Modulus (GPa) = 27.30792 28.73396 28.02094
#
# Velocity S-wave (km/s) = 3.83909 3.93805 3.88888
# Velocity P-wave (km/s) = 7.29464 7.37040 7.33262
#
# Compressibility (1/GPa) = 0.01608202
#
# Stress axis : x y z
#
# Youngs Moduli (GPa) = 70.85664 62.08796 65.20006
#
# Poissons Ratio (x) = 0.29824 0.25795
# Poissons Ratio (y) = 0.34036 0.38973
# Poissons Ratio (z) = 0.28033 0.37113
#
# Static dielectric constant tensor:
#      x y z
#    x 1.437190 0.001580 -0.014520 
#    y 0.001580 1.701900 -0.000050 
#    z -0.014520 -0.000050 1.679000 
# 
# From -- ./inp_files/201468.got.cif
#   From: 2010.05.17/outbox.cif.g08.bks.cpg/sg15_101_cif.got.tgz:201468.got - 2010.06.03 18:47:42.
