data_PCOD9281455
_publ_section_title
;
Structure prediction by ZEFSAII (Michael W. Deem and Ramdas Pophale) SiO2 
 PCOD9281455
Probable space group: C 2/C
;
_chemical_formula_sum "Si O2"
_cell_formula_units_Z 40
_cell_length_a 13.591720
_cell_length_b 13.024021
_cell_length_c 21.674522
_cell_angle_alpha 90.000000
_cell_angle_beta 155.759104
_cell_angle_gamma 90.000000
_cell_volume 1575.289764
_symmetry_space_group_name_H-M "C 2/C"
_symmetry_group_IT_number 15
_symmetry_cell_setting 'monoclinic'
loop_
_space_group_symop_operation_xyz
x,y,z
-x,y,1/2-z
-x,-y,-z
x,-y,1/2+z
1/2+x,1/2+y,z
1/2-x,1/2+y,1/2-z
1/2-x,1/2-y,-z
1/2+x,1/2-y,1/2+z
loop_
_atom_site_type_symbol
_atom_site_label
_atom_site_fract_x
_atom_site_fract_y
_atom_site_fract_z
Si Si1 0.669250 0.050983 0.166968
Si Si2 0.050569 0.870985 0.978492
Si Si3 0.523197 0.845424 0.460232
Si Si4 0.484605 0.369963 0.311541
Si Si5 0.748947 0.590228 0.077531
O O1 0.807037 0.098342 0.302721
O O2 0.566943 0.126889 0.057204
O O3 0.881918 0.986752 0.254431
O O4 0.477759 0.958806 0.071471
O O5 0.968874 0.871653 0.003285
O O6 0.156460 0.759732 0.020760
O O7 0.223552 0.966635 0.064900
O O8 0.246156 0.812785 0.292976
O O9 0.500000 0.339922 0.250000
O O10 0.705486 0.366752 0.484109
O O11 0.000000 0.618929 0.250000
#
# Coordination Sequence:
#
# PCOD9281455 Si02
#       5
#     8   8   8   8   8
#     4   8  19  36  58  86 112 161 192 247 292 353
#     4  10  21  38  62  83 126 155 202 247 297 364
#     4   9  19  35  60  87 110 161 200 238 301 350
#     4   9  19  37  57  85 117 152 196 242 298 355
#     4  10  23  38  58  91 122 161 193 251 305 345
#
# _framework density 25.392154999999999
#
# number of rings (size 3 to 8) (size 9 to 14) (size 15 to 20)
#    1.200    1.600    0.000    0.000    5.600    0.800 
#    0.000    3.000    0.000    6.000    0.000    0.000 
#    0.000    0.000    0.000    0.000    0.000    0.000 
#
# Total GULP energy -111517.500481 kJ/mol
# GULP energy per Si atom -5575.875024 kJ/mol
# Density = 2.533436 g / cm^3
# Si number density = 25.392155 Si / 1000 Ang^3
#
#
#
# Elastic Constant Matrix: (Units=GPa)
#
#
# Indices 1 2 3 4 5 6 
#
# 1 61.4995 15.1827 23.2925 0.0006 -19.9505 -0.0007
# 2 15.1827 192.1926 21.0821 0.0032 -19.2628 0.0011
# 3 23.2925 21.0821 153.3803 0.0076 -29.4042 0.0040
# 4 0.0006 0.0032 0.0076 -4.5281 0.0008 7.1875
# 5 -19.9505 -19.2628 -29.4042 0.0008 32.8968 -0.0003
# 6 -0.0007 0.0011 0.0040 7.1875 -0.0003 4.0456
#
#
#
# Elastic Compliance Matrix: (Units=1/GPa)
#
#
# Indices 1 2 3 4 5 6 
#
# 1 0.020365 -0.000376 -0.000863 0.000003 0.011359 0.000000
# 2 -0.000376 0.005538 -0.000152 0.000001 0.002879 -0.000002
# 3 -0.000863 -0.000152 0.007910 0.000001 0.006457 -0.000009
# 4 0.000003 0.000001 0.000001 -0.057812 0.000005 0.102710
# 5 0.011359 0.002879 0.006457 0.000005 0.044744 -0.000011
# 6 0.000000 -0.000002 -0.000009 0.102710 -0.000011 0.064707
#
#
# Mechanical properties :
#
#
# Convention : Reuss Voigt Hill
#
# Bulk Modulus (GPa) = 32.22704 58.46525 45.34614
# Shear Modulus (GPa) = 50.72142 29.65053 40.18598
#
# Velocity S-wave (km/s) = 4.47421 3.42088 3.98252
# Velocity P-wave (km/s) = 6.27780 6.21917 6.24855
#
# Compressibility (1/GPa) = 0.03102985
#
# Stress axis : x y z
#
# Youngs Moduli (GPa) = 49.10435 180.56956 126.42756
#
# Poissons Ratio (x) = 0.06782 0.10917
# Poissons Ratio (y) = 0.01844 0.01925
# Poissons Ratio (z) = 0.04240 0.02749
#
# Static dielectric constant tensor:
#      x y z
#    x 2.054220 0.000000 0.016380 
#    y 0.000000 2.054450 0.000000 
#    z 0.016380 0.000000 1.975370 
# 
# From -- ./inp_files/244431.got.cif
#   From: 2010.05.17/outbox.cif.g08.bks.cpg/sg15_123_cif.got.tgz:244431.got - 2010.06.03 18:47:42.
