data_PCOD9281791
_publ_section_title
;
Structure prediction by ZEFSAII (Michael W. Deem and Ramdas Pophale) SiO2 
 PCOD9281791
Probable space group: C 2/C
;
_chemical_formula_sum "Si O2"
_cell_formula_units_Z 48
_cell_length_a 26.018410
_cell_length_b 9.483756
_cell_length_c 14.630237
_cell_angle_alpha 90.000000
_cell_angle_beta 140.479373
_cell_angle_gamma 90.000000
_cell_volume 2297.273008
_symmetry_space_group_name_H-M "C 2/C"
_symmetry_group_IT_number 15
_symmetry_cell_setting 'monoclinic'
loop_
_space_group_symop_operation_xyz
x,y,z
-x,y,1/2-z
-x,-y,-z
x,-y,1/2+z
1/2+x,1/2+y,z
1/2-x,1/2+y,1/2-z
1/2-x,1/2-y,-z
1/2+x,1/2-y,1/2+z
loop_
_atom_site_type_symbol
_atom_site_label
_atom_site_fract_x
_atom_site_fract_y
_atom_site_fract_z
Si Si1 0.988639 0.933100 0.839925
Si Si2 0.756099 0.504682 0.257799
Si Si3 0.382500 0.388981 0.327590
Si Si4 0.237314 0.243661 0.622717
Si Si5 0.590081 0.054857 0.138824
Si Si6 0.378464 0.825179 0.181888
O O1 0.957386 0.770949 0.797146
O O2 0.000000 0.973272 0.750000
O O3 0.920696 0.029861 0.794355
O O4 0.065862 0.940691 0.012706
O O5 0.710440 0.431711 0.280655
O O6 0.740673 0.668737 0.256548
O O7 0.719370 0.417926 0.122377
O O8 0.850514 0.496391 0.359800
O O9 0.397454 0.222092 0.340290
O O10 0.312101 0.248101 0.656898
O O11 0.160041 0.315019 0.470787
O O12 0.613606 0.980148 0.266583
O O13 0.500000 0.000000 0.000000
#
# Coordination Sequence:
#
# PCOD9281791 Si02
#       6
#     8   8   8   8   8   8
#     4  11  23  39  69  97 133 177 224 280 332 400
#     4  11  21  39  65  95 131 172 220 265 340 393
#     4  11  23  43  65  99 136 175 224 276 339 399
#     4  10  21  38  64  95 126 175 219 272 322 403
#     4  11  23  42  68  98 132 175 221 280 339 395
#     4  10  21  40  63  94 131 170 228 269 325 400
#
# _framework density 20.894338999999999
#
# number of rings (size 3 to 8) (size 9 to 14) (size 15 to 20)
#    0.000    1.333    5.000    1.000    0.000    0.000 
#    0.000    6.667    0.000    0.000    0.000    0.000 
#    0.000    0.000    0.000    0.000    0.000    0.000 
#
# Total GULP energy -133714.149523 kJ/mol
# GULP energy per Si atom -5571.422897 kJ/mol
# Density = 2.084678 g / cm^3
# Si number density = 20.894339 Si / 1000 Ang^3
#
#
#
# Elastic Constant Matrix: (Units=GPa)
#
#
# Indices 1 2 3 4 5 6 
#
# 1 149.5185 46.0778 31.1806 0.0000 5.1220 0.0000
# 2 46.0778 108.6881 25.8874 0.0000 -1.9972 0.0000
# 3 31.1806 25.8874 42.1646 0.0000 -11.0389 0.0000
# 4 0.0000 0.0000 0.0000 23.4291 0.0000 -2.5967
# 5 5.1220 -1.9972 -11.0389 0.0000 36.9142 0.0000
# 6 0.0000 0.0000 0.0000 -2.5967 0.0000 34.2257
#
#
#
# Elastic Compliance Matrix: (Units=1/GPa)
#
#
# Indices 1 2 3 4 5 6 
#
# 1 0.008737 -0.002378 -0.005807 0.000000 -0.003078 0.000000
# 2 -0.002378 0.011502 -0.005484 0.000000 -0.000688 0.000000
# 3 -0.005807 -0.005484 0.034188 0.000000 0.010733 0.000000
# 4 0.000000 0.000000 0.000000 0.043044 0.000000 0.003266
# 5 -0.003078 -0.000688 0.010733 0.000000 0.030689 0.000000
# 6 0.000000 0.000000 0.000000 0.003266 0.000000 0.029466
#
#
# Mechanical properties :
#
#
# Convention : Reuss Voigt Hill
#
# Bulk Modulus (GPa) = 36.91380 56.29587 46.60483
# Shear Modulus (GPa) = 25.77420 32.06217 28.91819
#
# Velocity S-wave (km/s) = 3.51600 3.92151 3.72428
# Velocity P-wave (km/s) = 5.84707 6.89245 6.39117
#
# Compressibility (1/GPa) = 0.02709014
#
# Stress axis : x y z
#
# Youngs Moduli (GPa) = 114.45192 86.94105 29.25036
#
# Poissons Ratio (x) = 0.20670 0.16986
# Poissons Ratio (y) = 0.27211 0.16040
# Poissons Ratio (z) = 0.66465 0.47676
#
# Static dielectric constant tensor:
#      x y z
#    x 1.778990 0.000000 0.007550 
#    y 0.000000 1.740220 0.000000 
#    z 0.007550 0.000000 1.813550 
# 
# From -- ./inp_files/176898.got.cif
#   From: 2010.05.17/outbox.cif.g08.bks.cpg/sg15_89_cif.got.tgz:176898.got - 2010.06.03 18:47:42.
