data_PCOD9281364
_publ_section_title
;
Structure prediction by ZEFSAII (Michael W. Deem and Ramdas Pophale) SiO2 
 PCOD9281364
Probable space group: C 2/C
;
_chemical_formula_sum "Si O2"
_cell_formula_units_Z 64
_cell_length_a 12.601836
_cell_length_b 7.782428
_cell_length_c 27.984363
_cell_angle_alpha 90.000000
_cell_angle_beta 68.681130
_cell_angle_gamma 90.000000
_cell_volume 2556.704724
_symmetry_space_group_name_H-M "C 2/C"
_symmetry_group_IT_number 15
_symmetry_cell_setting 'monoclinic'
loop_
_space_group_symop_operation_xyz
x,y,z
-x,y,1/2-z
-x,-y,-z
x,-y,1/2+z
1/2+x,1/2+y,z
1/2-x,1/2+y,1/2-z
1/2-x,1/2-y,-z
1/2+x,1/2-y,1/2+z
loop_
_atom_site_type_symbol
_atom_site_label
_atom_site_fract_x
_atom_site_fract_y
_atom_site_fract_z
Si Si1 0.634475 0.346671 0.088831
Si Si2 0.065525 0.122258 0.026911
Si Si3 0.859615 0.927006 0.831651
Si Si4 0.055660 0.503975 0.118506
Si Si5 0.108507 0.564437 0.709902
Si Si6 0.834919 0.845487 0.610175
Si Si7 0.313528 0.121269 0.699293
Si Si8 0.226636 0.203289 0.922570
O O1 0.638398 0.488441 0.047093
O O2 0.576961 0.443316 0.143684
O O3 0.561556 0.178645 0.087607
O O4 0.754126 0.268642 0.088355
O O5 0.964214 0.204175 0.074512
O O6 0.146353 0.236814 0.980358
O O7 0.000000 0.000000 0.000000
O O8 0.923285 0.754824 0.805812
O O9 0.756407 0.856004 0.882003
O O10 0.799907 0.022952 0.798358
O O11 0.123055 0.538787 0.158539
O O12 0.148018 0.368936 0.082266
O O13 0.928669 0.461929 0.157251
O O14 0.182946 0.611401 0.743938
O O15 0.000000 0.473954 0.750000
O O16 0.812179 0.799243 0.669543
O O17 0.828396 0.047426 0.598910
#
# Coordination Sequence:
#
# PCOD9281364 Si02
#       8
#     8   8   8   8   8   8   8   8
#     4  10  22  40  59  85 125 153 201 249 298 364
#     4  10  22  37  63  87 115 160 207 245 303 359
#     4  10  22  38  58  90 116 153 197 243 297 355
#     4   9  20  38  60  81 120 159 188 249 300 343
#     4   9  20  39  59  82 114 155 190 238 298 351
#     4   9  21  39  58  88 119 159 195 248 302 352
#     4  10  21  38  61  88 119 154 199 240 299 363
#     4   9  20  39  57  83 119 154 200 241 300 347
#
# _framework density 25.032221
#
# number of rings (size 3 to 8) (size 9 to 14) (size 15 to 20)
#    0.000    2.500    0.000    0.000    8.750    9.000 
#    0.000    4.375    0.000    0.000    0.000    0.000 
#    0.000    0.000    0.000    0.000    0.000    0.000 
#
# Total GULP energy -178368.239957 kJ/mol
# GULP energy per Si atom -5574.007499 kJ/mol
# Density = 2.497525 g / cm^3
# Si number density = 25.032221 Si / 1000 Ang^3
#
#
#
# Elastic Constant Matrix: (Units=GPa)
#
#
# Indices 1 2 3 4 5 6 
#
# 1 53.0466 -4.7316 -2.2995 0.0000 13.4982 0.0000
# 2 -4.7316 54.3886 -8.9172 0.0000 4.9546 0.0000
# 3 -2.2995 -8.9172 82.5830 0.0000 7.4343 0.0000
# 4 0.0000 0.0000 0.0000 32.3849 0.0000 7.6041
# 5 13.4982 4.9546 7.4343 0.0000 43.7218 0.0000
# 6 0.0000 0.0000 0.0000 7.6041 0.0000 28.0873
#
#
#
# Elastic Compliance Matrix: (Units=1/GPa)
#
#
# Indices 1 2 3 4 5 6 
#
# 1 0.020948 0.002710 0.001509 0.000000 -0.007031 0.000000
# 2 0.002710 0.019342 0.002474 0.000000 -0.003449 0.000000
# 3 0.001509 0.002474 0.012680 0.000000 -0.002902 0.000000
# 4 0.000000 0.000000 0.000000 0.032975 0.000000 -0.008927
# 5 -0.007031 -0.003449 -0.002902 0.000000 0.025927 0.000000
# 6 0.000000 0.000000 0.000000 -0.008927 0.000000 0.038020
#
#
# Mechanical properties :
#
#
# Convention : Reuss Voigt Hill
#
# Bulk Modulus (GPa) = 15.07022 17.56908 16.31965
# Shear Modulus (GPa) = 31.52142 34.56990 33.04566
#
# Velocity S-wave (km/s) = 3.55242 3.72023 3.63729
# Velocity P-wave (km/s) = 4.78117 5.04850 4.91665
#
# Compressibility (1/GPa) = 0.06635601
#
# Stress axis : x y z
#
# Youngs Moduli (GPa) = 47.73830 51.70125 78.86743
#
# Poissons Ratio (x) = -0.14012 -0.11900
# Poissons Ratio (y) = -0.12938 -0.19516
# Poissons Ratio (z) = -0.07203 -0.12793
#
# Static dielectric constant tensor:
#      x y z
#    x 2.128640 0.000000 -0.032800 
#    y 0.000000 2.028410 0.000000 
#    z -0.032800 0.000000 2.006760 
# 
# From -- ./inp_files/295100.got.cif
#   From: 2010.05.17/outbox.cif.g08.bks.cpg/sg15_148_cif.got.tgz:295100.got - 2010.06.03 18:47:42.
