data_PCOD9281454
_publ_section_title
;
Structure prediction by ZEFSAII (Michael W. Deem and Ramdas Pophale) SiO2 
 PCOD9281454
Probable space group: C 2/C
;
_chemical_formula_sum "Si O2"
_cell_formula_units_Z 48
_cell_length_a 14.498448
_cell_length_b 33.531738
_cell_length_c 14.283891
_cell_angle_alpha 90.000000
_cell_angle_beta 160.023538
_cell_angle_gamma 90.000000
_cell_volume 2372.385642
_symmetry_space_group_name_H-M "C 2/C"
_symmetry_group_IT_number 15
_symmetry_cell_setting 'monoclinic'
loop_
_space_group_symop_operation_xyz
x,y,z
-x,y,1/2-z
-x,-y,-z
x,-y,1/2+z
1/2+x,1/2+y,z
1/2-x,1/2+y,1/2-z
1/2-x,1/2-y,-z
1/2+x,1/2-y,1/2+z
loop_
_atom_site_type_symbol
_atom_site_label
_atom_site_fract_x
_atom_site_fract_y
_atom_site_fract_z
Si Si1 0.940255 0.525026 0.534738
Si Si2 0.067299 0.383129 0.114808
Si Si3 0.000000 0.387708 0.250000
Si Si4 0.500000 0.969224 0.750000
Si Si5 0.500000 0.586458 0.750000
Si Si6 0.000000 0.053671 0.250000
Si Si7 0.893039 0.139025 0.463021
Si Si8 0.046811 0.774816 0.183189
O O1 0.098252 0.499463 0.763753
O O2 0.646804 0.529722 0.305587
O O3 0.000000 0.500000 0.500000
O O4 0.013843 0.569926 0.577113
O O5 0.983588 0.364930 0.135820
O O6 0.378278 0.376035 0.389783
O O7 0.891502 0.367322 0.859983
O O8 0.260130 0.416587 0.489490
O O9 0.261104 0.941435 0.483551
O O10 0.426882 0.613387 0.590361
O O11 0.959007 0.184581 0.550698
O O12 0.354012 0.761065 0.465420
O O13 0.000000 0.779992 0.250000
#
# Coordination Sequence:
#
# PCOD9281454 Si02
#       8
#     8   8   4   4   4   4   8   8
#     4  11  22  41  59  85 116 166 219 273 322 391
#     4  11  24  38  63  88 121 161 218 267 324 359
#     4  10  21  42  60  90 118 155 212 282 312 369
#     4  12  27  40  60  81 122 172 218 271 334 364
#     4  12  25  42  56  89 130 166 204 263 324 390
#     4  10  21  38  62  82 116 153 210 280 336 367
#     4  12  23  41  63  97 127 167 201 258 315 392
#     4  10  21  39  65  97 131 168 199 238 301 384
#
# _framework density 20.232797999999999
#
# number of rings (size 3 to 8) (size 9 to 14) (size 15 to 20)
#    0.000    1.000    0.833    8.500    0.000    1.333 
#    0.000   14.167    0.000    0.000    0.000   11.667 
#    0.000    0.000    0.000    0.000    0.000    0.000 
#
# Total GULP energy -134021.714212 kJ/mol
# GULP energy per Si atom -5584.238092 kJ/mol
# Density = 2.018675 g / cm^3
# Si number density = 20.232798 Si / 1000 Ang^3
#
#
#
# Elastic Constant Matrix: (Units=GPa)
#
#
# Indices 1 2 3 4 5 6 
#
# 1 80.9627 11.0224 -7.2539 0.0002 -12.0187 -0.0001
# 2 11.0224 77.7625 -2.1906 -0.0001 -5.2154 -0.0003
# 3 -7.2539 -2.1906 75.8440 0.0004 4.1788 -0.0019
# 4 0.0002 -0.0001 0.0004 7.6355 0.0005 0.4779
# 5 -12.0187 -5.2154 4.1788 0.0005 42.7313 -0.0005
# 6 -0.0001 -0.0003 -0.0019 0.4779 -0.0005 9.9501
#
#
#
# Elastic Compliance Matrix: (Units=1/GPa)
#
#
# Indices 1 2 3 4 5 6 
#
# 1 0.013168 -0.001609 0.001025 -0.000001 0.003407 0.000000
# 2 -0.001609 0.013169 0.000164 0.000000 0.001139 0.000000
# 3 0.001025 0.000164 0.013343 -0.000001 -0.000996 0.000003
# 4 -0.000001 0.000000 -0.000001 0.131362 -0.000002 -0.006310
# 5 0.003407 0.001139 -0.000996 -0.000002 0.024597 0.000001
# 6 0.000000 0.000000 0.000003 -0.006310 0.000001 0.100805
#
#
# Mechanical properties :
#
#
# Convention : Reuss Voigt Hill
#
# Bulk Modulus (GPa) = 25.74726 26.41390 26.08058
# Shear Modulus (GPa) = 16.11708 27.59614 21.85661
#
# Velocity S-wave (km/s) = 2.82544 3.69715 3.29029
# Velocity P-wave (km/s) = 4.83707 5.59540 5.23000
#
# Compressibility (1/GPa) = 0.03883908
#
# Stress axis : x y z
#
# Youngs Moduli (GPa) = 75.94144 75.93751 74.94763
#
# Poissons Ratio (x) = 0.12219 -0.07684
# Poissons Ratio (y) = 0.12220 -0.01227
# Poissons Ratio (z) = -0.07786 -0.01243
#
# Static dielectric constant tensor:
#      x y z
#    x 1.618370 0.000000 0.130340 
#    y 0.000000 1.698660 0.000000 
#    z 0.130340 0.000000 1.563340 
# 
# From -- ./inp_files/157775.got.cif
#   From: 2010.05.17/outbox.cif.g08.bks.cpg/sg15_79_cif.got.tgz:157775.got - 2010.06.03 18:47:42.
