data_PCOD9281292
_publ_section_title
;
Structure prediction by ZEFSAII (Michael W. Deem and Ramdas Pophale) SiO2 
 PCOD9281292
Probable space group: C 2/C
;
_chemical_formula_sum "Si O2"
_cell_formula_units_Z 64
_cell_length_a 11.206658
_cell_length_b 26.261249
_cell_length_c 13.215672
_cell_angle_alpha 90.000000
_cell_angle_beta 53.175555
_cell_angle_gamma 90.000000
_cell_volume 3113.356942
_symmetry_space_group_name_H-M "C 2/C"
_symmetry_group_IT_number 15
_symmetry_cell_setting 'monoclinic'
loop_
_space_group_symop_operation_xyz
x,y,z
-x,y,1/2-z
-x,-y,-z
x,-y,1/2+z
1/2+x,1/2+y,z
1/2-x,1/2+y,1/2-z
1/2-x,1/2-y,-z
1/2+x,1/2-y,1/2+z
loop_
_atom_site_type_symbol
_atom_site_label
_atom_site_fract_x
_atom_site_fract_y
_atom_site_fract_z
Si Si1 0.028906 0.426021 0.935536
Si Si2 0.063602 0.324644 0.448715
Si Si3 0.356270 0.346366 0.174266
Si Si4 0.624250 0.457021 0.424166
Si Si5 0.069562 0.522359 0.811319
Si Si6 0.277773 0.809864 0.470197
Si Si7 0.838830 0.907615 0.876487
Si Si8 0.928245 0.757917 0.395593
O O1 0.994891 0.467799 0.869139
O O2 0.204314 0.424676 0.872538
O O3 0.971862 0.369460 0.953523
O O4 0.952231 0.445562 0.077423
O O5 0.231564 0.333825 0.323506
O O6 0.020797 0.274622 0.533211
O O7 0.947676 0.324943 0.413682
O O8 0.398707 0.405230 0.130299
O O9 0.275112 0.325645 0.114327
O O10 0.504718 0.314157 0.121814
O O11 0.500000 0.500000 0.500000
O O12 0.760222 0.484515 0.300631
O O13 0.671426 0.436714 0.511226
O O14 0.000000 0.549598 0.750000
O O15 0.250000 0.750000 0.500000
O O16 0.183024 0.847379 0.591342
O O17 0.000000 0.917936 0.750000
O O18 0.750000 0.750000 0.500000
O O19 0.000000 0.741452 0.250000
#
# Coordination Sequence:
#
# PCOD9281292 Si02
#       8
#     8   8   8   8   8   8   8   8
#     4  10  22  39  65  93 126 173 216 269 333 399
#     4  11  22  43  70  97 136 173 221 281 343 406
#     4  11  23  44  69  98 134 175 225 281 343 407
#     4  11  23  42  66  95 131 173 222 280 336 394
#     4  11  21  40  65  92 127 168 220 271 330 396
#     4  10  21  38  65 103 127 165 210 270 339 397
#     4  10  21  38  60  91 135 163 208 273 330 385
#     4  12  26  48  70  95 140 187 230 280 336 411
#
# _framework density 20.556588999999999
#
# number of rings (size 3 to 8) (size 9 to 14) (size 15 to 20)
#    0.000    1.250    5.000    1.125    0.000    1.500 
#   13.500    1.875    0.000    0.000    0.000    0.000 
#    0.000    0.000    0.000    0.000    0.000    0.000 
#
# Total GULP energy -178420.640373 kJ/mol
# GULP energy per Si atom -5575.645012 kJ/mol
# Density = 2.050980 g / cm^3
# Si number density = 20.556589 Si / 1000 Ang^3
#
#
#
# Elastic Constant Matrix: (Units=GPa)
#
#
# Indices 1 2 3 4 5 6 
#
# 1 51.1504 4.7613 27.1460 0.0000 -2.7509 0.0000
# 2 4.7613 99.9240 20.9317 0.0000 0.7712 0.0000
# 3 27.1460 20.9317 126.1758 0.0000 -17.1072 0.0000
# 4 0.0000 0.0000 0.0000 24.8285 0.0000 -4.4265
# 5 -2.7509 0.7712 -17.1072 0.0000 36.8099 0.0000
# 6 0.0000 0.0000 0.0000 -4.4265 0.0000 20.1274
#
#
#
# Elastic Compliance Matrix: (Units=1/GPa)
#
#
# Indices 1 2 3 4 5 6 
#
# 1 0.022082 -0.000037 -0.004825 0.000000 -0.000591 0.000000
# 2 -0.000037 0.010409 -0.001866 0.000000 -0.001088 0.000000
# 3 -0.004825 -0.001866 0.009850 0.000000 0.004256 0.000000
# 4 0.000000 0.000000 0.000000 0.041920 0.000000 0.009219
# 5 -0.000591 -0.001088 0.004256 0.000000 0.029123 0.000000
# 6 0.000000 0.000000 0.000000 0.009219 0.000000 0.051711
#
#
# Mechanical properties :
#
#
# Convention : Reuss Voigt Hill
#
# Bulk Modulus (GPa) = 34.62009 42.54756 38.58382
# Shear Modulus (GPa) = 26.57025 31.31391 28.94208
#
# Velocity S-wave (km/s) = 3.59909 3.90719 3.75630
# Velocity P-wave (km/s) = 5.84373 6.41073 6.13379
#
# Compressibility (1/GPa) = 0.02888496
#
# Stress axis : x y z
#
# Youngs Moduli (GPa) = 45.28476 96.07334 101.52068
#
# Poissons Ratio (x) = 0.00355 0.48983
# Poissons Ratio (y) = 0.00167 0.18947
# Poissons Ratio (z) = 0.21850 0.17930
#
# Static dielectric constant tensor:
#      x y z
#    x 1.804020 0.000000 0.003080 
#    y 0.000000 1.752370 0.000000 
#    z 0.003080 0.000000 1.723870 
# 
# From -- ./inp_files/148755.got.cif
#   From: 2010.05.17/outbox.cif.g08.bks.cpg/sg15_75_cif.got.tgz:148755.got - 2010.06.03 18:47:42.
