data_PCOD9281348
_publ_section_title
;
Structure prediction by ZEFSAII (Michael W. Deem and Ramdas Pophale) SiO2 
 PCOD9281348
Probable space group: C 2/C
;
_chemical_formula_sum "Si O2"
_cell_formula_units_Z 60
_cell_length_a 13.953892
_cell_length_b 21.547034
_cell_length_c 8.631060
_cell_angle_alpha 90.000000
_cell_angle_beta 99.313320
_cell_angle_gamma 90.000000
_cell_volume 2560.849793
_symmetry_space_group_name_H-M "C 2/C"
_symmetry_group_IT_number 15
_symmetry_cell_setting 'monoclinic'
loop_
_space_group_symop_operation_xyz
x,y,z
-x,y,1/2-z
-x,-y,-z
x,-y,1/2+z
1/2+x,1/2+y,z
1/2-x,1/2+y,1/2-z
1/2-x,1/2-y,-z
1/2+x,1/2-y,1/2+z
loop_
_atom_site_type_symbol
_atom_site_label
_atom_site_fract_x
_atom_site_fract_y
_atom_site_fract_z
Si Si1 0.108647 0.209231 0.314872
Si Si2 0.765096 0.455139 0.786652
Si Si3 0.893592 0.312192 0.412769
Si Si4 0.560373 0.268127 0.126668
Si Si5 0.635287 0.532691 0.529181
Si Si6 0.500000 0.460960 0.250000
Si Si7 0.707393 0.827940 0.822928
Si Si8 0.563133 0.953130 0.115401
O O1 0.117713 0.281513 0.259492
O O2 0.119007 0.200434 0.500982
O O3 0.186641 0.177531 0.224393
O O4 0.000000 0.186365 0.250000
O O5 0.686813 0.477322 0.638916
O O6 0.716353 0.437236 0.938766
O O7 0.823400 0.397874 0.728968
O O8 0.833328 0.514346 0.832593
O O9 0.798164 0.312878 0.496285
O O10 0.925745 0.382732 0.432982
O O11 0.976031 0.269884 0.513872
O O12 0.500000 0.300872 0.250000
O O13 0.635029 0.220089 0.222841
O O14 0.562496 0.503274 0.383913
O O15 0.576295 0.569554 0.648023
O O16 0.500000 0.947821 0.250000
O O17 0.500000 0.000000 0.000000
#
# Coordination Sequence:
#
# PCOD9281348 Si02
#       8
#     8   8   8   8   8   4   8   8
#     4  10  21  39  59  86 116 156 205 253 302 358
#     4  11  22  35  55  86 125 153 201 245 300 369
#     4  10  21  38  61  87 118 161 201 250 304 370
#     4   9  19  36  61  85 116 150 199 248 304 365
#     4   9  18  35  55  79 106 149 194 254 297 360
#     4   8  16  34  58  74  94 142 208 242 308 350
#     4  11  21  37  58  88 117 161 196 247 306 362
#     4  12  23  37  58  89 128 165 197 244 310 377
#
# _framework density 23.429722000000002
#
# number of rings (size 3 to 8) (size 9 to 14) (size 15 to 20)
#    0.000    1.867    0.000    5.200    0.000    2.133 
#    7.200    0.000    1.467    0.000    0.000    0.000 
#    0.000    0.000    0.000    0.000    0.000    0.000 
#
# Total GULP energy -167383.366256 kJ/mol
# GULP energy per Si atom -5579.445542 kJ/mol
# Density = 2.337639 g / cm^3
# Si number density = 23.429722 Si / 1000 Ang^3
#
#
#
# Elastic Constant Matrix: (Units=GPa)
#
#
# Indices 1 2 3 4 5 6 
#
# 1 74.6671 -1.3594 42.4175 0.0000 -33.6979 0.0000
# 2 -1.3594 51.8331 15.2130 0.0000 -9.7523 0.0000
# 3 42.4175 15.2130 143.1946 0.0000 -44.2680 0.0000
# 4 0.0000 0.0000 0.0000 13.6882 0.0000 -11.4010
# 5 -33.6979 -9.7523 -44.2680 0.0000 61.6338 0.0000
# 6 0.0000 0.0000 0.0000 -11.4010 0.0000 23.9293
#
#
#
# Elastic Compliance Matrix: (Units=1/GPa)
#
#
# Indices 1 2 3 4 5 6 
#
# 1 0.019243 0.003111 -0.003376 0.000000 0.008589 0.000000
# 2 0.003111 0.020630 -0.002029 0.000000 0.003508 0.000000
# 3 -0.003376 -0.002029 0.009678 0.000000 0.004785 0.000000
# 4 0.000000 0.000000 0.000000 0.121120 0.000000 0.057707
# 5 0.008589 0.003508 0.004785 0.000000 0.024912 0.000000
# 6 0.000000 0.000000 0.000000 0.057707 0.000000 0.069284
#
#
# Mechanical properties :
#
#
# Convention : Reuss Voigt Hill
#
# Bulk Modulus (GPa) = 22.23937 42.47075 32.35506
# Shear Modulus (GPa) = 17.57831 34.07852 25.82841
#
# Velocity S-wave (km/s) = 2.74205 3.81793 3.32381
# Velocity P-wave (km/s) = 4.42015 6.13202 5.34506
#
# Compressibility (1/GPa) = 0.04496530
#
# Stress axis : x y z
#
# Youngs Moduli (GPa) = 51.96591 48.47351 103.32575
#
# Poissons Ratio (x) = -0.15082 0.34879
# Poissons Ratio (y) = -0.16169 0.20963
# Poissons Ratio (z) = 0.17542 0.09835
#
# Static dielectric constant tensor:
#      x y z
#    x 1.908230 0.000000 -0.047840 
#    y 0.000000 1.827200 0.000000 
#    z -0.047840 0.000000 1.921380 
# 
# From -- ./inp_files/42204.got.cif
#   From: 2010.05.17/outbox.cif.g08.bks.cpg/sg15_22_cif.got.tgz:42204.got - 2010.06.03 18:47:42.
