data_PCOD9281396
_publ_section_title
;
Structure prediction by ZEFSAII (Michael W. Deem and Ramdas Pophale) SiO2 
 PCOD9281396
Probable space group: C 2/C
;
_chemical_formula_sum "Si O2"
_cell_formula_units_Z 64
_cell_length_a 28.511175
_cell_length_b 17.128098
_cell_length_c 8.737862
_cell_angle_alpha 90.000000
_cell_angle_beta 131.982394
_cell_angle_gamma 90.000000
_cell_volume 3171.925785
_symmetry_space_group_name_H-M "C 2/C"
_symmetry_group_IT_number 15
_symmetry_cell_setting 'monoclinic'
loop_
_space_group_symop_operation_xyz
x,y,z
-x,y,1/2-z
-x,-y,-z
x,-y,1/2+z
1/2+x,1/2+y,z
1/2-x,1/2+y,1/2-z
1/2-x,1/2-y,-z
1/2+x,1/2-y,1/2+z
loop_
_atom_site_type_symbol
_atom_site_label
_atom_site_fract_x
_atom_site_fract_y
_atom_site_fract_z
Si Si1 0.562951 0.362723 0.554504
Si Si2 0.164146 0.042326 0.405294
Si Si3 0.910388 0.273752 0.919000
Si Si4 0.744256 0.979622 0.653232
Si Si5 0.944463 0.300161 0.338546
Si Si6 0.953301 0.543545 0.012745
Si Si7 0.660019 0.072614 0.235875
Si Si8 0.082715 0.111608 0.742914
O O1 0.609990 0.394040 0.785250
O O2 0.562442 0.269658 0.557290
O O3 0.493339 0.395166 0.443018
O O4 0.586107 0.385506 0.435821
O O5 0.213945 0.063254 0.381757
O O6 0.205636 0.032084 0.645614
O O7 0.126546 0.960893 0.290602
O O8 0.862211 0.341455 0.768497
O O9 0.899981 0.190992 0.811538
O O10 0.912309 0.275158 0.108700
O O11 0.980487 0.303611 0.028072
O O12 0.708880 0.927937 0.701796
O O13 0.693880 0.030918 0.451594
O O14 0.923291 0.382245 0.361652
O O15 0.000000 0.570283 0.250000
O O16 0.899828 0.481299 0.942480
O O17 0.000000 0.500000 0.000000
#
# Coordination Sequence:
#
# PCOD9281396 Si02
#       8
#     8   8   8   8   8   8   8   8
#     4  10  22  38  64  96 131 157 203 261 335 387
#     4  11  21  44  64  87 126 166 219 264 315 369
#     4  10  21  38  61  90 133 159 200 255 322 386
#     4  10  24  39  64  85 119 174 222 260 293 368
#     4  10  22  36  58  99 130 162 193 254 329 391
#     4  12  23  36  66  97 127 166 210 260 334 384
#     4  11  22  41  62  90 125 166 217 262 305 376
#     4  10  22  38  66  98 123 164 204 267 331 388
#
# _framework density 20.177018
#
# number of rings (size 3 to 8) (size 9 to 14) (size 15 to 20)
#    0.000    1.500    2.500    2.625    5.250    0.000 
#    0.000    2.500    5.500    3.000    0.000    0.000 
#    0.000    0.000    0.000    0.000    0.000    0.000 
#
# Total GULP energy -178601.767469 kJ/mol
# GULP energy per Si atom -5581.305233 kJ/mol
# Density = 2.013109 g / cm^3
# Si number density = 20.177018 Si / 1000 Ang^3
#
#
#
# Elastic Constant Matrix: (Units=GPa)
#
#
# Indices 1 2 3 4 5 6 
#
# 1 60.9614 27.2405 2.1747 0.0000 -2.4813 0.0000
# 2 27.2405 88.8853 9.1089 0.0000 7.2436 0.0000
# 3 2.1747 9.1089 75.7209 0.0000 14.2295 0.0000
# 4 0.0000 0.0000 0.0000 7.4869 0.0000 -9.3249
# 5 -2.4813 7.2436 14.2295 0.0000 20.2282 0.0000
# 6 0.0000 0.0000 0.0000 -9.3249 0.0000 3.1779
#
#
#
# Elastic Compliance Matrix: (Units=1/GPa)
#
#
# Indices 1 2 3 4 5 6 
#
# 1 0.019461 -0.006308 -0.000776 0.000000 0.005192 0.000000
# 2 -0.006308 0.013666 -0.000458 0.000000 -0.005345 0.000000
# 3 -0.000776 -0.000458 0.015292 0.000000 -0.010688 0.000000
# 4 0.000000 0.000000 0.000000 -0.050315 0.000000 -0.147637
# 5 0.005192 -0.005345 -0.010688 0.000000 0.059506 0.000000
# 6 0.000000 0.000000 0.000000 -0.147637 0.000000 -0.118538
#
#
# Mechanical properties :
#
#
# Convention : Reuss Voigt Hill
#
# Bulk Modulus (GPa) = 29.99764 33.62398 31.81081
# Shear Modulus (GPa) = -143.96383 18.64819 -62.65782
#
# Velocity S-wave (km/s) = -8.45608 3.04341 -5.57866
# Velocity P-wave (km/s) = 8.96888 5.38985 5.06904
#
# Compressibility (1/GPa) = 0.03333596
#
# Stress axis : x y z
#
# Youngs Moduli (GPa) = 51.38351 73.17330 65.39202
#
# Poissons Ratio (x) = 0.46157 0.05073
# Poissons Ratio (y) = 0.32412 0.02997
# Poissons Ratio (z) = 0.03986 0.03354
#
# Static dielectric constant tensor:
#      x y z
#    x 1.709400 0.000000 -0.021330 
#    y 0.000000 1.689750 0.000000 
#    z -0.021330 0.000000 1.769500 
# 
# From -- ./inp_files/70158.got.cif
#   From: 2010.05.17/outbox.cif.g08.bks.cpg/sg15_36_cif.got.tgz:70158.got - 2010.06.03 18:47:42.
