data_PCOD9281598
_publ_section_title
;
Structure prediction by ZEFSAII (Michael W. Deem and Ramdas Pophale) SiO2 
 PCOD9281598
Probable space group: C 2/C
;
_chemical_formula_sum "Si O2"
_cell_formula_units_Z 32
_cell_length_a 5.091065
_cell_length_b 19.425568
_cell_length_c 12.083684
_cell_angle_alpha 90.000000
_cell_angle_beta 70.954015
_cell_angle_gamma 90.000000
_cell_volume 1129.618036
_symmetry_space_group_name_H-M "C 2/C"
_symmetry_group_IT_number 15
_symmetry_cell_setting 'monoclinic'
loop_
_space_group_symop_operation_xyz
x,y,z
-x,y,1/2-z
-x,-y,-z
x,-y,1/2+z
1/2+x,1/2+y,z
1/2-x,1/2+y,1/2-z
1/2-x,1/2-y,-z
1/2+x,1/2-y,1/2+z
loop_
_atom_site_type_symbol
_atom_site_label
_atom_site_fract_x
_atom_site_fract_y
_atom_site_fract_z
Si Si1 0.000000 0.047839 0.750000
Si Si2 0.475770 0.213774 0.876535
Si Si3 0.000000 0.845235 0.750000
Si Si4 0.591670 0.640716 0.527279
Si Si5 0.036984 0.548499 0.386146
O O1 0.010892 0.089455 0.861900
O O2 0.720757 0.002879 0.787300
O O3 0.500000 0.179874 0.750000
O O4 0.601720 0.288965 0.827174
O O5 0.662048 0.179722 0.943526
O O6 0.158605 0.195481 0.951509
O O7 0.245082 0.887439 0.657347
O O8 0.740268 0.588224 0.419107
O O9 0.000000 0.500000 0.500000
#
# Coordination Sequence:
#
# PCOD9281598 Si02
#       5
#     4   8   4   8   8
#     4   9  16  38  58  88 126 159 206 250 300 351
#     4  10  21  38  63  88 123 160 194 261 298 355
#     4   9  20  38  58  96 124 155 204 250 310 347
#     4  11  20  40  64  90 119 163 206 242 313 355
#     4   9  20  36  64  90 124 164 202 251 294 369
#
# _framework density 28.328161000000001
#
# number of rings (size 3 to 8) (size 9 to 14) (size 15 to 20)
#    0.750    1.500    2.500    0.000    0.000    2.000 
#    0.000   16.250    0.000   27.000    0.000    0.000 
#    0.000    0.000    0.000    0.000    0.000    0.000 
#
# Total GULP energy -89266.546439 kJ/mol
# GULP energy per Si atom -5579.159152 kJ/mol
# Density = 2.826368 g / cm^3
# Si number density = 28.328161 Si / 1000 Ang^3
#
#
#
# Elastic Constant Matrix: (Units=GPa)
#
#
# Indices 1 2 3 4 5 6 
#
# 1 185.5212 80.7895 60.1422 0.0000 -38.7231 0.0000
# 2 80.7895 200.6537 69.8200 0.0000 -34.2240 0.0000
# 3 60.1422 69.8200 140.9321 0.0000 -48.0104 0.0000
# 4 0.0000 0.0000 0.0000 32.7991 0.0000 -23.2468
# 5 -38.7231 -34.2240 -48.0104 0.0000 46.5344 0.0000
# 6 0.0000 0.0000 0.0000 -23.2468 0.0000 49.0637
#
#
#
# Elastic Compliance Matrix: (Units=1/GPa)
#
#
# Indices 1 2 3 4 5 6 
#
# 1 0.007324 -0.002015 -0.000857 0.000000 0.003728 0.000000
# 2 -0.002015 0.006710 -0.002088 0.000000 0.001104 0.000000
# 3 -0.000857 -0.002088 0.011919 0.000000 0.010048 0.000000
# 4 0.000000 0.000000 0.000000 0.045904 0.000000 0.021750
# 5 0.003728 0.001104 0.010048 0.000000 0.035770 0.000000
# 6 0.000000 0.000000 0.000000 0.021750 0.000000 0.030687
#
#
# Mechanical properties :
#
#
# Convention : Reuss Voigt Hill
#
# Bulk Modulus (GPa) = 62.37540 105.40116 83.88828
# Shear Modulus (GPa) = 32.55684 46.76979 39.66332
#
# Velocity S-wave (km/s) = 3.39377 4.06766 3.74590
# Velocity P-wave (km/s) = 6.11748 7.70384 6.95603
#
# Compressibility (1/GPa) = 0.01603196
#
# Stress axis : x y z
#
# Youngs Moduli (GPa) = 136.54562 149.03634 83.89974
#
# Poissons Ratio (x) = 0.30024 0.07192
# Poissons Ratio (y) = 0.27507 0.17522
# Poissons Ratio (z) = 0.11705 0.31126
#
# Static dielectric constant tensor:
#      x y z
#    x 2.194580 0.000000 0.245780 
#    y 0.000000 2.344400 0.000000 
#    z 0.245780 0.000000 2.565460 
# 
# From -- ./inp_files/128636.got.cif
#   From: 2010.05.17/outbox.cif.g08.bks.cpg/sg15_65_cif.got.tgz:128636.got - 2010.06.03 18:47:42.
