data_PCOD9281717
_publ_section_title
;
Structure prediction by ZEFSAII (Michael W. Deem and Ramdas Pophale) SiO2 
 PCOD9281717
Probable space group: C 2/C
;
_chemical_formula_sum "Si O2"
_cell_formula_units_Z 48
_cell_length_a 18.771949
_cell_length_b 4.900441
_cell_length_c 29.947754
_cell_angle_alpha 90.000000
_cell_angle_beta 136.284295
_cell_angle_gamma 90.000000
_cell_volume 1903.870742
_symmetry_space_group_name_H-M "C 2/C"
_symmetry_group_IT_number 15
_symmetry_cell_setting 'monoclinic'
loop_
_space_group_symop_operation_xyz
x,y,z
-x,y,1/2-z
-x,-y,-z
x,-y,1/2+z
1/2+x,1/2+y,z
1/2-x,1/2+y,1/2-z
1/2-x,1/2-y,-z
1/2+x,1/2-y,1/2+z
loop_
_atom_site_type_symbol
_atom_site_label
_atom_site_fract_x
_atom_site_fract_y
_atom_site_fract_z
Si Si1 0.181820 0.632840 0.929720
Si Si2 0.574700 0.622407 0.853193
Si Si3 0.273016 0.511854 0.789435
Si Si4 0.574728 0.795345 0.081476
Si Si5 0.402326 0.882383 0.727164
Si Si6 0.365401 0.706945 0.947941
O O1 0.140362 0.327117 0.913901
O O2 0.254650 0.682794 0.919904
O O3 0.084378 0.824145 0.876437
O O4 0.250000 0.750000 0.000000
O O5 0.458375 0.715154 0.791993
O O6 0.621957 0.678967 0.824879
O O7 0.276772 0.807408 0.769480
O O8 0.374787 0.355776 0.853507
O O9 0.195148 0.524146 0.796362
O O10 0.604146 0.594501 0.053929
O O11 0.620662 0.086774 0.087477
O O12 0.450682 0.806026 0.023084
O O13 0.500000 0.050090 0.750000
#
# Coordination Sequence:
#
# PCOD9281717 Si02
#       6
#     8   8   8   8   8   8
#     4  12  22  36  58  91 121 153 191 257 299 350
#     4   9  23  39  62  84 117 162 209 237 297 370
#     4  12  25  40  64  96 128 158 201 261 314 354
#     4  10  22  41  60  85 116 161 198 245 294 371
#     4   8  22  45  66  89 119 172 207 251 296 375
#     4  10  21  38  64  83 113 159 208 236 296 359
#
# _framework density 25.211798000000002
#
# number of rings (size 3 to 8) (size 9 to 14) (size 15 to 20)
#    1.000    0.667    0.000    4.500    0.000    8.000 
#    0.000    0.000    0.000    0.000    0.000    0.000 
#    0.000    0.000    0.000    0.000    0.000    0.000 
#
# Total GULP energy -134134.033031 kJ/mol
# GULP energy per Si atom -5588.918043 kJ/mol
# Density = 2.515441 g / cm^3
# Si number density = 25.211798 Si / 1000 Ang^3
#
#
#
# Elastic Constant Matrix: (Units=GPa)
#
#
# Indices 1 2 3 4 5 6 
#
# 1 59.5472 -0.0293 -17.5397 0.0075 2.8939 -0.0012
# 2 -0.0293 90.2735 -3.5645 0.0136 2.7301 -0.0094
# 3 -17.5397 -3.5645 103.0711 0.0072 -7.4523 -0.0051
# 4 0.0075 0.0136 0.0072 35.4058 -0.0056 -3.3920
# 5 2.8939 2.7301 -7.4523 -0.0056 28.9827 0.0063
# 6 -0.0012 -0.0094 -0.0051 -3.3920 0.0063 13.8850
#
#
#
# Elastic Compliance Matrix: (Units=1/GPa)
#
#
# Indices 1 2 3 4 5 6 
#
# 1 0.017711 0.000153 0.002945 -0.000004 -0.001026 0.000002
# 2 0.000153 0.011120 0.000340 -0.000004 -0.000975 0.000007
# 3 0.002945 0.000340 0.010384 -0.000002 0.002344 0.000003
# 4 -0.000004 -0.000004 -0.000002 0.028921 0.000004 0.007065
# 5 -0.001026 -0.000975 0.002344 0.000004 0.035300 -0.000015
# 6 0.000002 0.000007 0.000003 0.007065 -0.000015 0.073746
#
#
# Mechanical properties :
#
#
# Convention : Reuss Voigt Hill
#
# Bulk Modulus (GPa) = 21.69577 23.40275 22.54926
# Shear Modulus (GPa) = 26.92939 33.92304 30.42622
#
# Velocity S-wave (km/s) = 3.27177 3.67212 3.47771
# Velocity P-wave (km/s) = 4.78505 5.22320 5.00892
#
# Compressibility (1/GPa) = 0.04609194
#
# Stress axis : x y z
#
# Youngs Moduli (GPa) = 56.46283 89.92457 96.29800
#
# Poissons Ratio (x) = -0.01376 -0.28360
# Poissons Ratio (y) = -0.00864 -0.03275
# Poissons Ratio (z) = -0.16628 -0.03058
#
# Static dielectric constant tensor:
#      x y z
#    x 1.969500 0.000000 -0.001190 
#    y 0.000000 1.921070 0.000010 
#    z -0.001190 0.000010 2.083880 
# 
# From -- ./inp_files/317108.got.cif
#   From: 2010.05.17/outbox.cif.g08.bks.cpg/sg15_159_cif.got.tgz:317108.got - 2010.06.03 18:47:42.
