data_PCOD9281299
_publ_section_title
;
Structure prediction by ZEFSAII (Michael W. Deem and Ramdas Pophale) SiO2 
 PCOD9281299
Probable space group: C 2/C
;
_chemical_formula_sum "Si O2"
_cell_formula_units_Z 40
_cell_length_a 22.058679
_cell_length_b 10.716335
_cell_length_c 8.577168
_cell_angle_alpha 90.000000
_cell_angle_beta 86.754660
_cell_angle_gamma 90.000000
_cell_volume 2024.289640
_symmetry_space_group_name_H-M "C 2/C"
_symmetry_group_IT_number 15
_symmetry_cell_setting 'monoclinic'
loop_
_space_group_symop_operation_xyz
x,y,z
-x,y,1/2-z
-x,-y,-z
x,-y,1/2+z
1/2+x,1/2+y,z
1/2-x,1/2+y,1/2-z
1/2-x,1/2-y,-z
1/2+x,1/2-y,1/2+z
loop_
_atom_site_type_symbol
_atom_site_label
_atom_site_fract_x
_atom_site_fract_y
_atom_site_fract_z
Si Si1 0.585485 0.897012 0.120350
Si Si2 0.051788 0.639063 0.981435
Si Si3 0.683685 0.691885 0.011579
Si Si4 0.640649 0.487531 0.788781
Si Si5 0.945641 0.914325 0.442079
O O1 0.518650 0.884922 0.054538
O O2 0.582306 0.864510 0.304396
O O3 0.633139 0.801244 0.036937
O O4 0.591497 0.044578 0.082161
O O5 0.042418 0.769284 0.070271
O O6 0.673026 0.607782 0.858638
O O7 0.750000 0.750000 0.000000
O O8 0.675993 0.599166 0.161898
O O9 0.578834 0.528263 0.712055
O O10 0.614182 0.414493 0.939440
O O11 0.000000 0.000000 0.500000
#
# Coordination Sequence:
#
# PCOD9281299 Si02
#       5
#     8   8   8   8   8
#     4  10  22  38  60  89 128 163 207 268 320 401
#     4  10  21  38  60  92 127 162 205 260 339 395
#     4  11  24  45  65  88 130 173 225 277 326 387
#     4  10  23  41  60  96 122 161 225 265 317 405
#     4  11  21  37  66  95 130 165 202 268 335 399
#
# _framework density 19.760019
#
# number of rings (size 3 to 8) (size 9 to 14) (size 15 to 20)
#    0.000    1.600    2.000    3.000    5.600    1.600 
#    3.600    2.000    0.000    0.000    0.000    0.000 
#    0.000    0.000    0.000    0.000    0.000    0.000 
#
# Total GULP energy -111339.936023 kJ/mol
# GULP energy per Si atom -5566.996801 kJ/mol
# Density = 1.971504 g / cm^3
# Si number density = 19.760019 Si / 1000 Ang^3
#
#
#
# Elastic Constant Matrix: (Units=GPa)
#
#
# Indices 1 2 3 4 5 6 
#
# 1 82.9953 44.8489 46.9436 0.0000 -3.0693 0.0000
# 2 44.8489 119.8719 31.2678 0.0000 -11.4564 0.0000
# 3 46.9436 31.2678 52.9639 0.0000 -14.6472 0.0000
# 4 0.0000 0.0000 0.0000 24.5563 0.0000 8.3618
# 5 -3.0693 -11.4564 -14.6472 0.0000 16.5985 0.0000
# 6 0.0000 0.0000 0.0000 8.3618 0.0000 33.6553
#
#
#
# Elastic Compliance Matrix: (Units=1/GPa)
#
#
# Indices 1 2 3 4 5 6 
#
# 1 0.033513 -0.006436 -0.033624 0.000000 -0.027916 0.000000
# 2 -0.006436 0.011158 0.001214 0.000000 0.007582 0.000000
# 3 -0.033624 0.001214 0.061483 0.000000 0.048875 0.000000
# 4 0.000000 0.000000 0.000000 0.044486 0.000000 -0.011053
# 5 -0.027916 0.007582 0.048875 0.000000 0.103447 0.000000
# 6 0.000000 0.000000 0.000000 -0.011053 0.000000 0.032459
#
#
# Mechanical properties :
#
#
# Convention : Reuss Voigt Hill
#
# Bulk Modulus (GPa) = 35.13540 55.77241 45.45391
# Shear Modulus (GPa) = 13.37883 23.81341 18.59612
#
# Velocity S-wave (km/s) = 2.60487 3.47527 3.07106
# Velocity P-wave (km/s) = 5.18332 6.66254 5.96893
#
# Compressibility (1/GPa) = 0.02846132
#
# Stress axis : x y z
#
# Youngs Moduli (GPa) = 29.83949 89.62032 16.26476
#
# Poissons Ratio (x) = 0.57678 0.54689
# Poissons Ratio (y) = 0.19204 -0.01974
# Poissons Ratio (z) = 1.00333 -0.10879
#
# Static dielectric constant tensor:
#      x y z
#    x 1.678190 0.000000 -0.033870 
#    y 0.000000 2.092780 0.000000 
#    z -0.033870 0.000000 1.756530 
# 
# From -- ./inp_files/54039.got.cif
#   From: 2010.05.17/outbox.cif.g08.bks.cpg/sg15_28_cif.got.tgz:54039.got - 2010.06.03 18:47:42.
