data_PCOD9281016
_publ_section_title
;
Structure prediction by ZEFSAII (Michael W. Deem and Ramdas Pophale) SiO2 
 PCOD9281016
Probable space group: C 2/C
;
_chemical_formula_sum "Si O2"
_cell_formula_units_Z 44
_cell_length_a 15.487146
_cell_length_b 20.961988
_cell_length_c 15.420749
_cell_angle_alpha 90.000000
_cell_angle_beta 29.905560
_cell_angle_gamma 90.000000
_cell_volume 2495.956964
_symmetry_space_group_name_H-M "C 2/C"
_symmetry_group_IT_number 15
_symmetry_cell_setting 'monoclinic'
loop_
_space_group_symop_operation_xyz
x,y,z
-x,y,1/2-z
-x,-y,-z
x,-y,1/2+z
1/2+x,1/2+y,z
1/2-x,1/2+y,1/2-z
1/2-x,1/2-y,-z
1/2+x,1/2-y,1/2+z
loop_
_atom_site_type_symbol
_atom_site_label
_atom_site_fract_x
_atom_site_fract_y
_atom_site_fract_z
Si Si1 0.000000 0.624708 0.250000
Si Si2 0.500000 0.775023 0.250000
Si Si3 0.000000 0.058236 0.250000
Si Si4 0.759376 0.779834 0.588959
Si Si5 0.858703 0.831677 0.990865
Si Si6 0.683144 0.565366 0.630359
Si Si7 0.368929 0.334261 0.187854
O O1 0.900694 0.670979 0.269031
O O2 0.848653 0.585394 0.429468
O O3 0.331490 0.817014 0.380838
O O4 0.527826 0.727528 0.144259
O O5 0.069018 0.103941 0.114590
O O6 0.147632 0.010176 0.157581
O O7 0.750000 0.750000 0.500000
O O8 0.739771 0.722711 0.673723
O O9 0.934850 0.817385 0.454949
O O10 0.856138 0.834749 0.096099
O O11 0.500000 0.591103 0.750000
O O12 0.691486 0.599638 0.715743
#
# Coordination Sequence:
#
# PCOD9281016 Si02
#       7
#     4   4   4   8   8   8   8
#     4  12  20  34  58  84 122 170 188 224 296 372
#     4   9  20  41  60  87 116 151 192 238 338 351
#     4   9  22  43  58  79 114 165 198 246 316 333
#     4  12  19  31  54  88 128 159 179 234 303 363
#     4  10  21  38  64  85 115 153 194 259 291 365
#     4  10  21  38  56  82 120 164 196 237 292 354
#     4  12  20  33  57  91 119 152 206 243 288 353
#
# _framework density 17.628509000000001
#
# number of rings (size 3 to 8) (size 9 to 14) (size 15 to 20)
#    0.545    0.727    5.455    1.091    0.000    1.455 
#    0.000    0.000    0.000    3.273    0.000    0.000 
#    0.000    0.000    0.000    0.000    0.000    0.000 
#
# Total GULP energy -122670.106162 kJ/mol
# GULP energy per Si atom -5575.913916 kJ/mol
# Density = 1.758839 g / cm^3
# Si number density = 17.628509 Si / 1000 Ang^3
#
#
#
# Elastic Constant Matrix: (Units=GPa)
#
#
# Indices 1 2 3 4 5 6 
#
# 1 74.2223 54.2784 43.5117 0.0033 36.5012 -0.0028
# 2 54.2784 122.2705 63.2762 0.0032 17.0823 -0.0027
# 3 43.5117 63.2762 118.7347 -0.0052 14.2139 -0.0005
# 4 0.0033 0.0032 -0.0052 34.4115 0.0001 -3.9375
# 5 36.5012 17.0823 14.2139 0.0001 42.5757 0.0010
# 6 -0.0028 -0.0027 -0.0005 -3.9375 0.0010 9.2882
#
#
#
# Elastic Compliance Matrix: (Units=1/GPa)
#
#
# Indices 1 2 3 4 5 6 
#
# 1 0.036032 -0.009937 -0.004883 -0.000002 -0.025274 0.000009
# 2 -0.009937 0.014323 -0.004503 -0.000001 0.004276 0.000000
# 3 -0.004883 -0.004503 0.012389 0.000003 0.001857 -0.000001
# 4 -0.000002 -0.000001 0.000003 0.030542 0.000001 0.012947
# 5 -0.025274 0.004276 0.001857 0.000001 0.042820 -0.000010
# 6 0.000009 0.000000 -0.000001 0.012947 -0.000010 0.113152
#
#
# Mechanical properties :
#
#
# Convention : Reuss Voigt Hill
#
# Bulk Modulus (GPa) = 41.49914 70.81781 56.15848
# Shear Modulus (GPa) = 16.89551 27.53250 22.21401
#
# Velocity S-wave (km/s) = 3.09919 3.95627 3.55367
# Velocity P-wave (km/s) = 6.03313 7.81850 6.98311
#
# Compressibility (1/GPa) = 0.02409688
#
# Stress axis : x y z
#
# Youngs Moduli (GPa) = 27.75324 69.81745 80.71580
#
# Poissons Ratio (x) = 0.69380 0.39413
# Poissons Ratio (y) = 0.27579 0.36349
# Poissons Ratio (z) = 0.13552 0.31441
#
# Static dielectric constant tensor:
#      x y z
#    x 1.575270 -0.000010 -0.012090 
#    y -0.000010 1.609770 0.000010 
#    z -0.012090 0.000010 1.632120 
# 
# From -- ./inp_files/49594.got.cif
#   From: 2010.05.17/outbox.cif.g08.bks.cpg/sg15_25_cif.got.tgz:49594.got - 2010.06.03 18:47:42.
