data_PCOD9281431
_publ_section_title
;
Structure prediction by ZEFSAII (Michael W. Deem and Ramdas Pophale) SiO2 
 PCOD9281431
Probable space group: C 2/C
;
_chemical_formula_sum "Si O2"
_cell_formula_units_Z 56
_cell_length_a 22.018504
_cell_length_b 20.607025
_cell_length_c 15.083319
_cell_angle_alpha 90.000000
_cell_angle_beta 161.207073
_cell_angle_gamma 90.000000
_cell_volume 2204.735947
_symmetry_space_group_name_H-M "C 2/C"
_symmetry_group_IT_number 15
_symmetry_cell_setting 'monoclinic'
loop_
_space_group_symop_operation_xyz
x,y,z
-x,y,1/2-z
-x,-y,-z
x,-y,1/2+z
1/2+x,1/2+y,z
1/2-x,1/2+y,1/2-z
1/2-x,1/2-y,-z
1/2+x,1/2-y,1/2+z
loop_
_atom_site_type_symbol
_atom_site_label
_atom_site_fract_x
_atom_site_fract_y
_atom_site_fract_z
Si Si1 0.500000 0.760259 0.250000
Si Si2 0.297068 0.991495 0.846734
Si Si3 0.727175 0.355968 0.774562
Si Si4 0.500000 0.578350 0.250000
Si Si5 0.908529 0.258901 0.528423
Si Si6 0.048669 0.167185 0.468217
Si Si7 0.564735 0.889615 0.735225
Si Si8 0.372612 0.520744 0.695960
O O1 0.660150 0.805389 0.509966
O O2 0.443054 0.717668 0.257203
O O3 0.358917 0.915859 0.929447
O O4 0.237510 0.006584 0.865923
O O5 0.097007 0.982642 0.520041
O O6 0.440494 0.050222 0.023926
O O7 0.625967 0.310789 0.562859
O O8 0.562403 0.376645 0.615149
O O9 0.613407 0.619751 0.479543
O O10 0.653229 0.535986 0.410356
O O11 0.033294 0.316904 0.654471
O O12 0.000000 0.249420 0.750000
O O13 0.705255 0.294544 0.239665
O O14 0.500000 0.883914 0.750000
O O15 0.779478 0.913761 0.030583
#
# Coordination Sequence:
#
# PCOD9281431 Si02
#       8
#     4   8   8   4   8   8   8   8
#     4   9  22  38  58  94 126 161 218 272 336 393
#     4  10  21  38  64  96 127 170 225 264 333 396
#     4  11  22  38  66  95 130 172 217 278 329 391
#     4  11  20  38  66  96 132 167 222 274 342 387
#     4  10  23  43  63  93 130 178 225 261 328 409
#     4  10  21  39  63  91 128 172 212 273 336 394
#     4   9  20  38  64  91 126 172 217 264 327 393
#     4  10  21  38  61  94 128 171 213 275 328 393
#
# _framework density 25.399867
#
# number of rings (size 3 to 8) (size 9 to 14) (size 15 to 20)
#    0.000    2.000    1.429    1.286    9.000    0.571 
#    1.286    4.286    0.000    0.000    0.000    0.000 
#    0.000    0.000    0.000    0.000    0.000    0.000 
#
# Total GULP energy -156197.609258 kJ/mol
# GULP energy per Si atom -5578.486045 kJ/mol
# Density = 2.534206 g / cm^3
# Si number density = 25.399867 Si / 1000 Ang^3
#
#
#
# Elastic Constant Matrix: (Units=GPa)
#
#
# Indices 1 2 3 4 5 6 
#
# 1 35.5259 4.1505 29.9750 0.0000 -11.8904 0.0000
# 2 4.1505 96.8308 36.5298 0.0000 -13.7590 0.0000
# 3 29.9750 36.5298 100.3060 0.0000 -27.3432 0.0000
# 4 0.0000 0.0000 0.0000 4.6528 0.0000 1.9671
# 5 -11.8904 -13.7590 -27.3432 0.0000 20.7996 0.0000
# 6 0.0000 0.0000 0.0000 1.9671 0.0000 25.9031
#
#
#
# Elastic Compliance Matrix: (Units=1/GPa)
#
#
# Indices 1 2 3 4 5 6 
#
# 1 0.040340 0.003829 -0.010088 0.000000 0.012333 0.000000
# 2 0.003829 0.012493 -0.004433 0.000000 0.004625 0.000000
# 3 -0.010088 -0.004433 0.019056 0.000000 0.016352 0.000000
# 4 0.000000 0.000000 0.000000 0.222051 0.000000 -0.016862
# 5 0.012333 0.004625 0.016352 0.000000 0.079684 0.000000
# 6 0.000000 0.000000 0.000000 -0.016862 0.000000 0.039886
#
#
# Mechanical properties :
#
#
# Convention : Reuss Voigt Hill
#
# Bulk Modulus (GPa) = 19.79994 41.55260 30.67627
# Shear Modulus (GPa) = 11.06859 21.07160 16.07009
#
# Velocity S-wave (km/s) = 2.08978 2.88339 2.51805
# Velocity P-wave (km/s) = 3.69258 5.24215 4.53406
#
# Compressibility (1/GPa) = 0.05050522
#
# Stress axis : x y z
#
# Youngs Moduli (GPa) = 24.78910 80.04635 52.47707
#
# Poissons Ratio (x) = -0.30649 0.52937
# Poissons Ratio (y) = -0.09491 0.23263
# Poissons Ratio (z) = 0.25007 0.35485
#
# Static dielectric constant tensor:
#      x y z
#    x 2.111680 0.000000 0.102300 
#    y 0.000000 2.143590 0.000000 
#    z 0.102300 0.000000 2.177960 
# 
# From -- ./inp_files/174799.got.cif
#   From: 2010.05.17/outbox.cif.g08.bks.cpg/sg15_88_cif.got.tgz:174799.got - 2010.06.03 18:47:42.
