data_PCOD9281308
_publ_section_title
;
Structure prediction by ZEFSAII (Michael W. Deem and Ramdas Pophale) SiO2 
 PCOD9281308
Probable space group: C 2/C
;
_chemical_formula_sum "Si O2"
_cell_formula_units_Z 40
_cell_length_a 12.795160
_cell_length_b 17.155886
_cell_length_c 8.719868
_cell_angle_alpha 90.000000
_cell_angle_beta 101.345592
_cell_angle_gamma 90.000000
_cell_volume 1876.713454
_symmetry_space_group_name_H-M "C 2/C"
_symmetry_group_IT_number 15
_symmetry_cell_setting 'monoclinic'
loop_
_space_group_symop_operation_xyz
x,y,z
-x,y,1/2-z
-x,-y,-z
x,-y,1/2+z
1/2+x,1/2+y,z
1/2-x,1/2+y,1/2-z
1/2-x,1/2-y,-z
1/2+x,1/2-y,1/2+z
loop_
_atom_site_type_symbol
_atom_site_label
_atom_site_fract_x
_atom_site_fract_y
_atom_site_fract_z
Si Si1 0.421823 0.536697 0.350664
Si Si2 0.092254 0.565104 0.020328
Si Si3 0.348614 0.208599 0.950220
Si Si4 0.000000 0.312582 0.250000
Si Si5 0.775310 0.053254 0.573964
Si Si6 0.500000 0.157341 0.250000
O O1 0.500000 0.577757 0.250000
O O2 0.500000 0.500000 0.500000
O O3 0.336300 0.578532 0.435847
O O4 0.357343 0.472363 0.231193
O O5 0.203139 0.522857 0.020104
O O6 0.086013 0.604370 0.186005
O O7 0.059171 0.630024 0.887516
O O8 0.000000 0.500000 0.000000
O O9 0.409934 0.235184 0.815364
O O10 0.304922 0.121573 0.901588
O O11 0.250000 0.250000 0.000000
O O12 0.438785 0.205843 0.106165
#
# Coordination Sequence:
#
# PCOD9281308 Si02
#       6
#     8   8   8   4   8   4
#     4   9  20  36  52  82 116 149 192 236 283 352
#     4  11  19  31  64  99 121 134 179 262 335 355
#     4  11  24  41  58  85 121 165 204 236 289 360
#     4  10  21  38  62  94 124 147 198 252 306 361
#     4  11  19  33  62  85 118 149 187 243 317 347
#     4  10  21  38  60  94 124 143 196 256 304 361
#
# _framework density 21.313858
#
# number of rings (size 3 to 8) (size 9 to 14) (size 15 to 20)
#    0.000    1.600    4.000    3.000    0.000    0.000 
#    7.200    4.000    0.000    0.000    0.000    0.000 
#    0.000    0.000    0.000    0.000    0.000    0.000 
#
# Total GULP energy -111552.135099 kJ/mol
# GULP energy per Si atom -5577.606755 kJ/mol
# Density = 2.126535 g / cm^3
# Si number density = 21.313858 Si / 1000 Ang^3
#
#
#
# Elastic Constant Matrix: (Units=GPa)
#
#
# Indices 1 2 3 4 5 6 
#
# 1 140.2649 20.8438 52.1203 0.0000 -28.2727 0.0000
# 2 20.8438 21.4517 10.5262 0.0000 -4.9011 0.0000
# 3 52.1203 10.5262 110.0215 0.0000 -16.5408 0.0000
# 4 0.0000 0.0000 0.0000 7.0912 0.0000 -14.9129
# 5 -28.2727 -4.9011 -16.5408 0.0000 61.5728 0.0000
# 6 0.0000 0.0000 0.0000 -14.9129 0.0000 32.5342
#
#
#
# Elastic Compliance Matrix: (Units=1/GPa)
#
#
# Indices 1 2 3 4 5 6 
#
# 1 0.010222 -0.007422 -0.003664 0.000000 0.003119 0.000000
# 2 -0.007422 0.054752 -0.001646 0.000000 0.000508 0.000000
# 3 -0.003664 -0.001646 0.011160 0.000000 0.001185 0.000000
# 4 0.000000 0.000000 0.000000 3.914573 0.000000 1.794348
# 5 0.003119 0.000508 0.001185 0.000000 0.018032 0.000000
# 6 0.000000 0.000000 0.000000 1.794348 0.000000 0.853223
#
#
# Mechanical properties :
#
#
# Convention : Reuss Voigt Hill
#
# Bulk Modulus (GPa) = 19.73508 48.74651 34.24080
# Shear Modulus (GPa) = 1.01951 32.78948 16.90449
#
# Velocity S-wave (km/s) = 0.69237 3.92651 2.81930
# Velocity P-wave (km/s) = 3.14937 6.59372 5.16699
#
# Compressibility (1/GPa) = 0.05067118
#
# Stress axis : x y z
#
# Youngs Moduli (GPa) = 97.82481 18.26412 89.60357
#
# Poissons Ratio (x) = 0.13556 0.32827
# Poissons Ratio (y) = 0.72610 0.14747
# Poissons Ratio (z) = 0.35839 0.03006
#
# Static dielectric constant tensor:
#      x y z
#    x 1.833810 0.000000 -0.050780 
#    y 0.000000 1.754560 0.000000 
#    z -0.050780 0.000000 1.794110 
# 
# From -- ./inp_files/29373.got.cif
#   From: 2010.05.17/outbox.cif.g08.bks.cpg/sg15_15_cif.got.tgz:29373.got - 2010.06.03 18:47:42.
