data_PCOD9281276
_publ_section_title
;
Structure prediction by ZEFSAII (Michael W. Deem and Ramdas Pophale) SiO2 
 PCOD9281276
Probable space group: C 2/C
;
_chemical_formula_sum "Si O2"
_cell_formula_units_Z 56
_cell_length_a 18.271437
_cell_length_b 25.810314
_cell_length_c 4.995471
_cell_angle_alpha 90.000000
_cell_angle_beta 103.450058
_cell_angle_gamma 90.000000
_cell_volume 2291.208749
_symmetry_space_group_name_H-M "C 2/C"
_symmetry_group_IT_number 15
_symmetry_cell_setting 'monoclinic'
loop_
_space_group_symop_operation_xyz
x,y,z
-x,y,1/2-z
-x,-y,-z
x,-y,1/2+z
1/2+x,1/2+y,z
1/2-x,1/2+y,1/2-z
1/2-x,1/2-y,-z
1/2+x,1/2-y,1/2+z
loop_
_atom_site_type_symbol
_atom_site_label
_atom_site_fract_x
_atom_site_fract_y
_atom_site_fract_z
Si Si1 0.117877 0.134698 0.347137
Si Si2 0.867990 0.306020 0.505737
Si Si3 0.919487 0.246883 0.070239
Si Si4 0.288237 0.365168 0.054952
Si Si5 0.738854 0.469842 0.793177
Si Si6 0.500000 0.459968 0.750000
Si Si7 0.000000 0.381293 0.750000
Si Si8 0.581726 0.967749 0.489369
O O1 0.076981 0.184924 0.433317
O O2 0.185642 0.127945 0.618043
O O3 0.069428 0.081651 0.293203
O O4 0.145465 0.155540 0.081189
O O5 0.861587 0.272966 0.229929
O O6 0.711182 0.167074 0.489788
O O7 0.934604 0.348761 0.547542
O O8 0.896999 0.268923 0.765567
O O9 0.000000 0.264758 0.250000
O O10 0.279232 0.418824 0.887541
O O11 0.712742 0.514775 0.566371
O O12 0.828406 0.465007 0.909343
O O13 0.500000 0.500000 0.500000
O O14 0.953743 0.416408 0.919857
O O15 0.564576 0.983635 0.171579
#
# Coordination Sequence:
#
# PCOD9281276 Si02
#       8
#     8   8   8   8   8   4   4   8
#     4  12  28  49  80 103 147 187 229 295 381 441
#     4  12  27  43  72 106 144 189 249 299 352 420
#     4  12  25  49  73 104 139 189 243 296 365 437
#     4  12  26  46  69 111 145 188 237 306 364 438
#     4  10  21  38  60  89 133 181 222 271 340 415
#     4  12  28  52  83 120 147 186 254 308 368 462
#     4  12  22  42  63  96 131 186 232 294 322 398
#     4  10  22  37  58  86 125 177 228 275 322 382
#
# _framework density 24.441248999999999
#
# number of rings (size 3 to 8) (size 9 to 14) (size 15 to 20)
#    0.000    0.571    3.571    3.857    0.000    9.143 
#    0.000    0.000    0.000    0.000    0.000    0.000 
#    0.000    0.000    0.000    0.000    0.000    0.000 
#
# Total GULP energy -156597.354924 kJ/mol
# GULP energy per Si atom -5592.762676 kJ/mol
# Density = 2.438562 g / cm^3
# Si number density = 24.441249 Si / 1000 Ang^3
#
#
#
# Elastic Constant Matrix: (Units=GPa)
#
#
# Indices 1 2 3 4 5 6 
#
# 1 61.9997 25.3817 8.8203 0.0000 11.2331 0.0000
# 2 25.3817 132.2550 27.3485 0.0000 9.8764 0.0000
# 3 8.8203 27.3485 134.2787 0.0000 -3.5368 0.0000
# 4 0.0000 0.0000 0.0000 24.4954 0.0000 4.3184
# 5 11.2331 9.8764 -3.5368 0.0000 31.5703 0.0000
# 6 0.0000 0.0000 0.0000 4.3184 0.0000 11.1004
#
#
#
# Elastic Compliance Matrix: (Units=1/GPa)
#
#
# Indices 1 2 3 4 5 6 
#
# 1 0.018490 -0.002962 -0.000762 0.000000 -0.005738 0.000000
# 2 -0.002962 0.008597 -0.001604 0.000000 -0.001815 0.000000
# 3 -0.000762 -0.001604 0.007868 0.000000 0.001654 0.000000
# 4 0.000000 0.000000 0.000000 0.043830 0.000000 -0.017051
# 5 -0.005738 -0.001815 0.001654 0.000000 0.034470 0.000000
# 6 0.000000 0.000000 0.000000 -0.017051 0.000000 0.096721
#
#
# Mechanical properties :
#
#
# Convention : Reuss Voigt Hill
#
# Bulk Modulus (GPa) = 41.15790 50.18159 45.66975
# Shear Modulus (GPa) = 21.85967 31.23208 26.54587
#
# Velocity S-wave (km/s) = 2.99386 3.57857 3.29919
# Velocity P-wave (km/s) = 5.36908 6.13604 5.76533
#
# Compressibility (1/GPa) = 0.02429667
#
# Stress axis : x y z
#
# Youngs Moduli (GPa) = 54.08368 116.32039 127.10404
#
# Poissons Ratio (x) = 0.34459 0.09689
# Poissons Ratio (y) = 0.16022 0.20389
# Poissons Ratio (z) = 0.04123 0.18660
#
# Static dielectric constant tensor:
#      x y z
#    x 2.156580 0.000000 -0.023220 
#    y 0.000000 2.036430 0.000000 
#    z -0.023220 0.000000 1.866330 
# 
# From -- ./inp_files/15865.got.cif
#   From: 2010.05.17/outbox.cif.g08.bks.cpg/sg15_8_cif.got.tgz:15865.got - 2010.06.03 18:47:42.
