data_PCOD9281910
_publ_section_title
;
Structure prediction by ZEFSAII (Michael W. Deem and Ramdas Pophale) SiO2 
 PCOD9281910
Probable space group: C 2/C
;
_chemical_formula_sum "Si O2"
_cell_formula_units_Z 56
_cell_length_a 9.705296
_cell_length_b 17.344132
_cell_length_c 18.880604
_cell_angle_alpha 90.000000
_cell_angle_beta 67.363606
_cell_angle_gamma 90.000000
_cell_volume 2933.343402
_symmetry_space_group_name_H-M "C 2/C"
_symmetry_group_IT_number 15
_symmetry_cell_setting 'monoclinic'
loop_
_space_group_symop_operation_xyz
x,y,z
-x,y,1/2-z
-x,-y,-z
x,-y,1/2+z
1/2+x,1/2+y,z
1/2-x,1/2+y,1/2-z
1/2-x,1/2-y,-z
1/2+x,1/2-y,1/2+z
loop_
_atom_site_type_symbol
_atom_site_label
_atom_site_fract_x
_atom_site_fract_y
_atom_site_fract_z
Si Si1 0.000000 0.023714 0.750000
Si Si2 0.712109 0.419527 0.803880
Si Si3 0.230471 0.953393 0.093030
Si Si4 0.016765 0.388160 0.104448
Si Si5 0.814854 0.127663 0.454784
Si Si6 0.000000 0.486608 0.250000
Si Si7 0.475812 0.270770 0.674387
Si Si8 0.089523 0.079920 0.478761
O O1 0.123163 0.067900 0.679880
O O2 0.089587 0.971209 0.788006
O O3 0.867788 0.456537 0.751419
O O4 0.658598 0.332682 0.800416
O O5 0.700088 0.427420 0.890936
O O6 0.399629 0.936951 0.081230
O O7 0.201605 0.043747 0.079802
O O8 0.175629 0.908001 0.034296
O O9 0.944465 0.305747 0.136691
O O10 0.044539 0.433835 0.173199
O O11 0.165801 0.368485 0.030705
O O12 0.871831 0.187804 0.384370
O O13 0.955676 0.135189 0.481085
O O14 0.500000 0.247394 0.750000
O O15 0.000000 0.000000 0.500000
#
# Coordination Sequence:
#
# PCOD9281910 Si02
#       8
#     4   8   8   8   8   4   8   8
#     4  12  18  35  65  88 116 170 212 238 306 377
#     4  11  21  39  64  86 120 169 209 243 309 376
#     4  11  21  37  61  96 126 159 210 262 304 368
#     4  12  25  38  61 102 126 151 207 276 312 343
#     4  10  21  38  66  87 121 168 209 247 311 379
#     4  12  24  37  63  96 128 150 208 280 304 345
#     4  11  22  44  64  86 126 172 206 243 314 393
#     4   9  17  35  59  85 120 158 203 246 299 367
#
# _framework density 19.090843
#
# number of rings (size 3 to 8) (size 9 to 14) (size 15 to 20)
#    0.000    1.143    7.143    2.571    0.000    0.000 
#    0.000    3.571    0.000    0.000    0.000    0.000 
#    0.000    0.000    0.000    0.000    0.000    0.000 
#
# Total GULP energy -155998.780907 kJ/mol
# GULP energy per Si atom -5571.385032 kJ/mol
# Density = 1.904739 g / cm^3
# Si number density = 19.090843 Si / 1000 Ang^3
#
#
#
# Elastic Constant Matrix: (Units=GPa)
#
#
# Indices 1 2 3 4 5 6 
#
# 1 74.1132 19.0728 25.1754 0.0000 -0.6134 0.0000
# 2 19.0728 50.0743 12.1446 0.0000 -5.8621 0.0000
# 3 25.1754 12.1446 95.8851 0.0000 9.1892 0.0000
# 4 0.0000 0.0000 0.0000 13.4250 0.0000 6.9880
# 5 -0.6134 -5.8621 9.1892 0.0000 29.5153 0.0000
# 6 0.0000 0.0000 0.0000 6.9880 0.0000 7.2275
#
#
#
# Elastic Compliance Matrix: (Units=1/GPa)
#
#
# Indices 1 2 3 4 5 6 
#
# 1 0.016055 -0.005193 -0.003598 0.000000 0.000422 0.000000
# 2 -0.005193 0.023042 -0.002044 0.000000 0.005105 0.000000
# 3 -0.003598 -0.002044 0.012038 0.000000 -0.004229 0.000000
# 4 0.000000 0.000000 0.000000 0.149960 0.000000 -0.144992
# 5 0.000422 0.005105 -0.004229 0.000000 0.036220 0.000000
# 6 0.000000 0.000000 0.000000 -0.144992 0.000000 0.278550
#
#
# Mechanical properties :
#
#
# Convention : Reuss Voigt Hill
#
# Bulk Modulus (GPa) = 33.93967 36.98425 35.46196
# Shear Modulus (GPa) = 9.13480 20.94552 15.04016
#
# Velocity S-wave (km/s) = 2.18982 3.31592 2.80986
# Velocity P-wave (km/s) = 4.92040 5.83740 5.39841
#
# Compressibility (1/GPa) = 0.02946405
#
# Stress axis : x y z
#
# Youngs Moduli (GPa) = 62.28570 43.39956 83.07009
#
# Poissons Ratio (x) = 0.22538 0.29890
# Poissons Ratio (y) = 0.32346 0.16981
# Poissons Ratio (z) = 0.22411 0.08871
#
# Static dielectric constant tensor:
#      x y z
#    x 1.686430 0.000000 0.002390 
#    y 0.000000 1.691070 0.000000 
#    z 0.002390 0.000000 1.742370 
# 
# From -- ./inp_files/190956.got.cif
#   From: 2010.05.17/outbox.cif.g08.bks.cpg/sg15_96_cif.got.tgz:190956.got - 2010.06.03 18:47:42.
