data_PCOD9281589
_publ_section_title
;
Structure prediction by ZEFSAII (Michael W. Deem and Ramdas Pophale) SiO2 
 PCOD9281589
Probable space group: C 2/C
;
_chemical_formula_sum "Si O2"
_cell_formula_units_Z 56
_cell_length_a 16.395879
_cell_length_b 28.739862
_cell_length_c 9.827910
_cell_angle_alpha 90.000000
_cell_angle_beta 34.621387
_cell_angle_gamma 90.000000
_cell_volume 2631.142072
_symmetry_space_group_name_H-M "C 2/C"
_symmetry_group_IT_number 15
_symmetry_cell_setting 'monoclinic'
loop_
_space_group_symop_operation_xyz
x,y,z
-x,y,1/2-z
-x,-y,-z
x,-y,1/2+z
1/2+x,1/2+y,z
1/2-x,1/2+y,1/2-z
1/2-x,1/2-y,-z
1/2+x,1/2-y,1/2+z
loop_
_atom_site_type_symbol
_atom_site_label
_atom_site_fract_x
_atom_site_fract_y
_atom_site_fract_z
Si Si1 0.967696 0.375136 0.632456
Si Si2 0.917814 0.118993 0.214021
Si Si3 0.898572 0.044226 0.646840
Si Si4 0.378153 0.028222 0.300654
Si Si5 0.902629 0.273214 0.748534
Si Si6 0.598889 0.274436 0.747923
Si Si7 0.302857 0.929970 0.324287
O O1 0.116516 0.385064 0.349305
O O2 0.000000 0.374824 0.750000
O O3 0.887390 0.423051 0.707604
O O4 0.888717 0.326720 0.715651
O O5 0.877654 0.171929 0.241365
O O6 0.778827 0.087244 0.430649
O O7 0.000000 0.119529 0.250000
O O8 0.013558 0.092666 0.970169
O O9 0.810347 0.051234 0.629499
O O10 0.780778 0.032600 0.920025
O O11 0.000000 0.000000 0.500000
O O12 0.500000 0.031579 0.250000
O O13 0.394690 0.976300 0.221458
O O14 0.000000 0.273949 0.750000
O O15 0.000821 0.248340 0.500154
O O16 0.750000 0.250000 0.000000
O O17 0.500000 0.273829 0.750000
O O18 0.750000 0.250000 0.500000
#
# Coordination Sequence:
#
# PCOD9281589 Si02
#       7
#     8   8   8   8   8   8   8
#     4  10  21  38  63  85 118 170 211 248 305 398
#     4   9  21  36  63  87 116 164 208 249 307 388
#     4  11  21  37  59  89 122 158 205 254 304 366
#     4  11  22  37  60  88 120 162 205 251 302 375
#     4  11  25  44  69  99 132 171 223 279 334 396
#     4  11  23  44  71  97 129 171 221 275 332 394
#     4  11  20  39  60  89 122 160 208 253 304 375
#
# _framework density 21.283535000000001
#
# number of rings (size 3 to 8) (size 9 to 14) (size 15 to 20)
#    0.000    1.429    4.286    2.143    2.000    2.286 
#    0.000    7.143    0.000    0.000    0.000    0.000 
#    0.000    0.000    0.000    0.000    0.000    0.000 
#
# Total GULP energy -156055.656555 kJ/mol
# GULP energy per Si atom -5573.416306 kJ/mol
# Density = 2.123509 g / cm^3
# Si number density = 21.283535 Si / 1000 Ang^3
#
#
#
# Elastic Constant Matrix: (Units=GPa)
#
#
# Indices 1 2 3 4 5 6 
#
# 1 22.6750 17.8609 10.5449 0.0000 -6.9318 0.0000
# 2 17.8609 202.6820 74.7563 0.0000 -12.4888 0.0000
# 3 10.5449 74.7563 140.4041 0.0000 -13.2402 0.0000
# 4 0.0000 0.0000 0.0000 29.6589 0.0000 -9.8584
# 5 -6.9318 -12.4888 -13.2402 0.0000 30.3128 0.0000
# 6 0.0000 0.0000 0.0000 -9.8584 0.0000 27.1559
#
#
#
# Elastic Compliance Matrix: (Units=1/GPa)
#
#
# Indices 1 2 3 4 5 6 
#
# 1 0.050241 -0.003456 -0.001026 0.000000 0.009617 0.000000
# 2 -0.003456 0.006416 -0.003110 0.000000 0.000495 0.000000
# 3 -0.001026 -0.003110 0.009086 0.000000 0.002453 0.000000
# 4 0.000000 0.000000 0.000000 0.038344 0.000000 0.013920
# 5 0.009617 0.000495 0.002453 0.000000 0.036464 0.000000
# 6 0.000000 0.000000 0.000000 0.013920 0.000000 0.041878
#
#
# Mechanical properties :
#
#
# Convention : Reuss Voigt Hill
#
# Bulk Modulus (GPa) = 19.77895 63.56503 41.67199
# Shear Modulus (GPa) = 23.31372 34.93212 29.12292
#
# Velocity S-wave (km/s) = 3.31325 4.05566 3.70311
# Velocity P-wave (km/s) = 4.89389 7.20152 6.15678
#
# Compressibility (1/GPa) = 0.05055881
#
# Stress axis : x y z
#
# Youngs Moduli (GPa) = 19.90403 155.86241 110.05370
#
# Poissons Ratio (x) = 0.53871 0.11293
# Poissons Ratio (y) = 0.06879 0.34225
# Poissons Ratio (z) = 0.02042 0.48471
#
# Static dielectric constant tensor:
#      x y z
#    x 1.776460 0.000000 -0.002690 
#    y 0.000000 1.753690 0.000000 
#    z -0.002690 0.000000 1.848710 
# 
# From -- ./inp_files/114927.got.cif
#   From: 2010.05.17/outbox.cif.g08.bks.cpg/sg15_58_cif.got.tgz:114927.got - 2010.06.03 18:47:42.
