data_PCOD9281081
_publ_section_title
;
Structure prediction by ZEFSAII (Michael W. Deem and Ramdas Pophale) SiO2 
 PCOD9281081
Probable space group: C 2/C
;
_chemical_formula_sum "Si O2"
_cell_formula_units_Z 56
_cell_length_a 7.545559
_cell_length_b 35.032008
_cell_length_c 10.338543
_cell_angle_alpha 90.000000
_cell_angle_beta 66.824879
_cell_angle_gamma 90.000000
_cell_volume 2512.326216
_symmetry_space_group_name_H-M "C 2/C"
_symmetry_group_IT_number 15
_symmetry_cell_setting 'monoclinic'
loop_
_space_group_symop_operation_xyz
x,y,z
-x,y,1/2-z
-x,-y,-z
x,-y,1/2+z
1/2+x,1/2+y,z
1/2-x,1/2+y,1/2-z
1/2-x,1/2-y,-z
1/2+x,1/2-y,1/2+z
loop_
_atom_site_type_symbol
_atom_site_label
_atom_site_fract_x
_atom_site_fract_y
_atom_site_fract_z
Si Si1 0.314122 0.112523 0.139277
Si Si2 0.694486 0.691321 0.562873
Si Si3 0.135892 0.303977 0.940283
Si Si4 0.810787 0.025574 0.034388
Si Si5 0.771564 0.970638 0.834085
Si Si6 0.800591 0.774867 0.153331
Si Si7 0.276830 0.610421 0.041971
O O1 0.278822 0.153555 0.086640
O O2 0.259581 0.071466 0.097453
O O3 0.545905 0.109629 0.086091
O O4 0.207293 0.114768 0.308132
O O5 0.711775 0.703382 0.707867
O O6 0.526066 0.717157 0.549537
O O7 0.640229 0.647138 0.554450
O O8 0.915195 0.694569 0.452875
O O9 0.231516 0.270486 0.828233
O O10 0.162924 0.289948 0.079969
O O11 0.704660 0.027918 0.203772
O O12 0.856932 0.069037 0.982519
O O13 0.705707 0.004080 0.947740
O O14 0.000000 0.000000 0.000000
O O15 0.000000 0.974556 0.750000
#
# Coordination Sequence:
#
# PCOD9281081 Si02
#       7
#     8   8   8   8   8   8   8
#     4   9  19  35  57  79 108 147 188 235 282 339
#     4  10  21  39  57  82 116 152 189 238 288 347
#     4  10  21  38  58  82 116 148 195 243 284 337
#     4   9  18  34  53  78 107 144 183 233 289 341
#     4   9  18  34  53  79 108 142 185 233 287 345
#     4  10  22  37  57  86 112 156 192 236 294 345
#     4   9  19  36  56  80 111 146 185 233 285 340
#
# _framework density 22.290099000000001
#
# number of rings (size 3 to 8) (size 9 to 14) (size 15 to 20)
#    0.000    2.571    0.000    0.857    0.000    9.714 
#   10.286    2.857    0.000    0.000    0.000    0.000 
#    0.000    0.000    0.000    0.000    0.000    0.000 
#
# Total GULP energy -156136.526688 kJ/mol
# GULP energy per Si atom -5576.304525 kJ/mol
# Density = 2.223937 g / cm^3
# Si number density = 22.290099 Si / 1000 Ang^3
#
#
#
# Elastic Constant Matrix: (Units=GPa)
#
#
# Indices 1 2 3 4 5 6 
#
# 1 64.9750 -3.4864 -9.0652 0.0000 -10.7974 0.0000
# 2 -3.4864 188.9564 37.4317 0.0000 8.8506 0.0000
# 3 -9.0652 37.4317 33.1352 0.0000 7.0456 0.0000
# 4 0.0000 0.0000 0.0000 -61.5516 0.0000 54.5914
# 5 -10.7974 8.8506 7.0456 0.0000 15.2724 0.0000
# 6 0.0000 0.0000 0.0000 54.5914 0.0000 5.7829
#
#
#
# Elastic Compliance Matrix: (Units=1/GPa)
#
#
# Indices 1 2 3 4 5 6 
#
# 1 0.017725 -0.000886 0.003411 0.000000 0.011471 0.000000
# 2 -0.000886 0.006865 -0.007782 0.000000 -0.001015 0.000000
# 3 0.003411 -0.007782 0.042612 0.000000 -0.012737 0.000000
# 4 0.000000 0.000000 0.000000 -0.001733 0.000000 0.016364
# 5 0.011471 -0.001015 -0.012737 0.000000 0.080052 0.000000
# 6 0.000000 0.000000 0.000000 0.016364 0.000000 0.018450
#
#
# Mechanical properties :
#
#
# Convention : Reuss Voigt Hill
#
# Bulk Modulus (GPa) = 17.64035 37.42522 27.53278
# Shear Modulus (GPa) = 25.85588 9.37983 17.61785
#
# Velocity S-wave (km/s) = 3.40953 2.05358 2.81444
# Velocity P-wave (km/s) = 4.84056 4.73809 4.78960
#
# Compressibility (1/GPa) = 0.05668822
#
# Stress axis : x y z
#
# Youngs Moduli (GPa) = 56.41701 145.66751 23.46778
#
# Poissons Ratio (x) = 0.12906 -0.08005
# Poissons Ratio (y) = 0.04998 0.18262
# Poissons Ratio (z) = -0.19243 1.13354
#
# Static dielectric constant tensor:
#      x y z
#    x 1.927860 0.000000 0.020920 
#    y 0.000000 1.830090 0.000000 
#    z 0.020920 0.000000 1.880640 
# 
# From -- ./inp_files/82150.got.cif
#   From: 2010.05.17/outbox.cif.g08.bks.cpg/sg15_42_cif.got.tgz:82150.got - 2010.06.03 18:47:42.
