data_PCOD9281640
_publ_section_title
;
Structure prediction by ZEFSAII (Michael W. Deem and Ramdas Pophale) SiO2 
 PCOD9281640
Probable space group: C 2/C
;
_chemical_formula_sum "Si O2"
_cell_formula_units_Z 48
_cell_length_a 14.985511
_cell_length_b 15.552993
_cell_length_c 11.129511
_cell_angle_alpha 90.000000
_cell_angle_beta 112.462003
_cell_angle_gamma 90.000000
_cell_volume 2397.155180
_symmetry_space_group_name_H-M "C 2/C"
_symmetry_group_IT_number 15
_symmetry_cell_setting 'monoclinic'
loop_
_space_group_symop_operation_xyz
x,y,z
-x,y,1/2-z
-x,-y,-z
x,-y,1/2+z
1/2+x,1/2+y,z
1/2-x,1/2+y,1/2-z
1/2-x,1/2-y,-z
1/2+x,1/2-y,1/2+z
loop_
_atom_site_type_symbol
_atom_site_label
_atom_site_fract_x
_atom_site_fract_y
_atom_site_fract_z
Si Si1 0.846141 0.650736 0.048482
Si Si2 0.500000 0.971390 0.750000
Si Si3 0.362442 0.104887 0.781984
Si Si4 0.144178 0.956970 0.163869
Si Si5 0.500000 0.762977 0.250000
Si Si6 0.133999 0.847793 0.398308
Si Si7 0.984326 0.114169 0.431096
O O1 0.857771 0.744999 0.111525
O O2 0.921799 0.586780 0.144259
O O3 0.858945 0.649564 0.910722
O O4 0.735704 0.622268 0.008133
O O5 0.442930 0.030846 0.815055
O O6 0.258373 0.061033 0.704175
O O7 0.405119 0.176453 0.712476
O O8 0.121139 0.896975 0.267328
O O9 0.095979 0.050112 0.167308
O O10 0.085959 0.931469 0.012837
O O11 0.500215 0.699177 0.362881
O O12 0.054914 0.863732 0.457483
#
# Coordination Sequence:
#
# PCOD9281640 Si02
#       7
#     8   4   8   8   4   8   8
#     4  10  21  38  63  92 122 160 213 258 311 371
#     4  11  22  36  67  88 124 162 207 256 314 377
#     4  10  22  45  59  92 127 166 205 264 315 377
#     4  10  24  39  66  90 127 163 215 257 314 374
#     4  11  24  40  65  88 134 166 207 262 322 375
#     4  10  21  40  63  90 125 163 207 265 307 372
#     4  11  23  40  62  95 125 168 207 261 316 381
#
# _framework density 20.023736
#
# number of rings (size 3 to 8) (size 9 to 14) (size 15 to 20)
#    0.000    1.667    1.667    2.000    7.000    0.667 
#    0.000    0.000    3.667    0.000    0.000    0.000 
#    0.000    0.000    0.000    0.000    0.000    0.000 
#
# Total GULP energy -133871.474831 kJ/mol
# GULP energy per Si atom -5577.978118 kJ/mol
# Density = 1.997816 g / cm^3
# Si number density = 20.023736 Si / 1000 Ang^3
#
#
#
# Elastic Constant Matrix: (Units=GPa)
#
#
# Indices 1 2 3 4 5 6 
#
# 1 87.5691 22.5934 28.0114 0.0000 5.8178 0.0000
# 2 22.5934 83.0254 33.6743 0.0000 13.1559 0.0000
# 3 28.0114 33.6743 50.6916 0.0000 11.1201 0.0000
# 4 0.0000 0.0000 0.0000 67.3568 0.0000 10.6182
# 5 5.8178 13.1559 11.1201 0.0000 22.0761 0.0000
# 6 0.0000 0.0000 0.0000 10.6182 0.0000 31.0668
#
#
#
# Elastic Compliance Matrix: (Units=1/GPa)
#
#
# Indices 1 2 3 4 5 6 
#
# 1 0.013927 -0.000964 -0.007168 0.000000 0.000515 0.000000
# 2 -0.000964 0.017027 -0.009677 0.000000 -0.005018 0.000000
# 3 -0.007168 -0.009677 0.031970 0.000000 -0.008448 0.000000
# 4 0.000000 0.000000 0.000000 0.015692 0.000000 -0.005363
# 5 0.000515 -0.005018 -0.008448 0.000000 0.052408 0.000000
# 6 0.000000 0.000000 0.000000 -0.005363 0.000000 0.034022
#
#
# Mechanical properties :
#
#
# Convention : Reuss Voigt Hill
#
# Bulk Modulus (GPa) = 36.62425 43.31603 39.97014
# Shear Modulus (GPa) = 23.83594 33.23375 28.53484
#
# Velocity S-wave (km/s) = 3.45394 4.07838 3.77908
# Velocity P-wave (km/s) = 5.85119 6.62246 6.24873
#
# Compressibility (1/GPa) = 0.02730431
#
# Stress axis : x y z
#
# Youngs Moduli (GPa) = 71.80247 58.72982 31.27917
#
# Poissons Ratio (x) = 0.05662 0.22422
# Poissons Ratio (y) = 0.06922 0.30270
# Poissons Ratio (z) = 0.51471 0.56836
#
# Static dielectric constant tensor:
#      x y z
#    x 1.745620 0.000000 0.010370 
#    y 0.000000 1.729210 0.000000 
#    z 0.010370 0.000000 1.679050 
# 
# From -- ./inp_files/97220.got.cif
#   From: 2010.05.17/outbox.cif.g08.bks.cpg/sg15_49_cif.got.tgz:97220.got - 2010.06.03 18:47:42.
