data_PCOD9281018
_publ_section_title
;
Structure prediction by ZEFSAII (Michael W. Deem and Ramdas Pophale) SiO2 
 PCOD9281018
Probable space group: C 2/C
;
_chemical_formula_sum "Si O2"
_cell_formula_units_Z 56
_cell_length_a 16.986050
_cell_length_b 19.533409
_cell_length_c 8.911520
_cell_angle_alpha 90.000000
_cell_angle_beta 96.011635
_cell_angle_gamma 90.000000
_cell_volume 2940.541402
_symmetry_space_group_name_H-M "C 2/C"
_symmetry_group_IT_number 15
_symmetry_cell_setting 'monoclinic'
loop_
_space_group_symop_operation_xyz
x,y,z
-x,y,1/2-z
-x,-y,-z
x,-y,1/2+z
1/2+x,1/2+y,z
1/2-x,1/2+y,1/2-z
1/2-x,1/2-y,-z
1/2+x,1/2-y,1/2+z
loop_
_atom_site_type_symbol
_atom_site_label
_atom_site_fract_x
_atom_site_fract_y
_atom_site_fract_z
Si Si1 0.929317 0.447521 0.936175
Si Si2 0.518432 0.298514 0.578275
Si Si3 0.786187 0.072406 0.608388
Si Si4 0.332085 0.729792 0.587255
Si Si5 0.068826 0.708239 0.148023
Si Si6 0.683854 0.000525 0.843292
Si Si7 0.958973 0.941173 0.082721
O O1 0.949412 0.368246 0.912605
O O2 0.886068 0.471046 0.775114
O O3 0.861411 0.451172 0.048638
O O4 0.000000 0.500000 0.000000
O O5 0.500000 0.297688 0.750000
O O6 0.598778 0.263454 0.526413
O O7 0.443414 0.261112 0.488084
O O8 0.531068 0.374156 0.516921
O O9 0.816350 0.150631 0.631164
O O10 0.742745 0.041688 0.745430
O O11 0.869024 0.035692 0.593009
O O12 0.729059 0.056317 0.454057
O O13 0.250000 0.750000 0.500000
O O14 0.354446 0.776498 0.735605
O O15 0.000000 0.727701 0.250000
O O16 0.000000 0.927553 0.250000
O O17 0.000000 0.000000 0.000000
#
# Coordination Sequence:
#
# PCOD9281018 Si02
#       7
#     8   8   8   8   8   8   8
#     4  11  22  38  60  86 114 152 197 244 294 350
#     4  10  22  38  57  85 116 150 194 242 292 352
#     4  10  21  38  56  83 117 151 188 240 293 347
#     4  10  21  39  61  82 114 157 196 239 300 360
#     4  10  21  39  60  83 116 155 196 246 297 353
#     4  10  22  37  57  85 118 150 192 242 295 350
#     4  11  21  37  61  86 113 151 195 239 289 350
#
# _framework density 19.044111000000001
#
# number of rings (size 3 to 8) (size 9 to 14) (size 15 to 20)
#    0.000    1.714    0.000    5.571    0.000    6.857 
#    0.000    7.143    0.000    0.000    0.000    0.000 
#    0.000    0.000    0.000    0.000    0.000    0.000 
#
# Total GULP energy -156021.960477 kJ/mol
# GULP energy per Si atom -5572.212874 kJ/mol
# Density = 1.900077 g / cm^3
# Si number density = 19.044111 Si / 1000 Ang^3
#
#
#
# Elastic Constant Matrix: (Units=GPa)
#
#
# Indices 1 2 3 4 5 6 
#
# 1 82.1198 14.5860 50.3405 0.0000 8.7821 0.0000
# 2 14.5860 50.0734 33.8504 0.0000 -2.7831 0.0000
# 3 50.3405 33.8504 147.0022 0.0000 -1.6839 0.0000
# 4 0.0000 0.0000 0.0000 22.8817 0.0000 4.6176
# 5 8.7821 -2.7831 -1.6839 0.0000 39.3877 0.0000
# 6 0.0000 0.0000 0.0000 4.6176 0.0000 28.5410
#
#
#
# Elastic Compliance Matrix: (Units=1/GPa)
#
#
# Indices 1 2 3 4 5 6 
#
# 1 0.016037 -0.001356 -0.005224 0.000000 -0.003895 0.000000
# 2 -0.001356 0.023849 -0.005007 0.000000 0.001774 0.000000
# 3 -0.005224 -0.005007 0.009759 0.000000 0.001228 0.000000
# 4 0.000000 0.000000 0.000000 0.045178 0.000000 -0.007309
# 5 -0.003895 0.001774 0.001228 0.000000 0.026435 0.000000
# 6 0.000000 0.000000 0.000000 -0.007309 0.000000 0.036220
#
#
# Mechanical properties :
#
#
# Convention : Reuss Voigt Hill
#
# Bulk Modulus (GPa) = 37.77867 52.97214 45.37540
# Shear Modulus (GPa) = 26.38849 30.18996 28.28923
#
# Velocity S-wave (km/s) = 3.72647 3.98586 3.85835
# Velocity P-wave (km/s) = 6.19645 7.00419 6.61266
#
# Compressibility (1/GPa) = 0.02646996
#
# Stress axis : x y z
#
# Youngs Moduli (GPa) = 62.35471 41.93027 102.47319
#
# Poissons Ratio (x) = 0.05687 0.53534
# Poissons Ratio (y) = 0.08458 0.51308
# Poissons Ratio (z) = 0.32575 0.20994
#
# Static dielectric constant tensor:
#      x y z
#    x 1.614260 0.000000 0.078370 
#    y 0.000000 1.695750 0.000000 
#    z 0.078370 0.000000 1.626290 
# 
# From -- ./inp_files/49131.got.cif
#   From: 2010.05.17/outbox.cif.g08.bks.cpg/sg15_25_cif.got.tgz:49131.got - 2010.06.03 18:47:42.
