data_PCOD9281379
_publ_section_title
;
Structure prediction by ZEFSAII (Michael W. Deem and Ramdas Pophale) SiO2 
 PCOD9281379
Probable space group: C 2/C
;
_chemical_formula_sum "Si O2"
_cell_formula_units_Z 32
_cell_length_a 4.942899
_cell_length_b 34.282046
_cell_length_c 8.549969
_cell_angle_alpha 90.000000
_cell_angle_beta 85.587645
_cell_angle_gamma 90.000000
_cell_volume 1444.521235
_symmetry_space_group_name_H-M "C 2/C"
_symmetry_group_IT_number 15
_symmetry_cell_setting 'monoclinic'
loop_
_space_group_symop_operation_xyz
x,y,z
-x,y,1/2-z
-x,-y,-z
x,-y,1/2+z
1/2+x,1/2+y,z
1/2-x,1/2+y,1/2-z
1/2-x,1/2-y,-z
1/2+x,1/2-y,1/2+z
loop_
_atom_site_type_symbol
_atom_site_label
_atom_site_fract_x
_atom_site_fract_y
_atom_site_fract_z
Si Si1 0.033426 0.916378 0.064945
Si Si2 0.039530 0.716535 0.063127
Si Si3 0.474496 0.332557 0.940027
Si Si4 0.446764 0.042856 0.068847
O O1 0.000000 0.923195 0.250000
O O2 0.344932 0.925368 0.010952
O O3 0.924387 0.873572 0.022993
O O4 0.854175 0.945459 0.968845
O O5 0.224815 0.679150 0.022269
O O6 0.000000 0.722796 0.250000
O O7 0.742882 0.702508 0.015564
O O8 0.250000 0.750000 0.000000
O O9 0.500000 0.336658 0.750000
O O10 0.500000 0.042803 0.250000
O O11 0.500000 0.000000 0.000000
#
# Coordination Sequence:
#
# PCOD9281379 Si02
#       4
#     8   8   8   8
#     4  12  25  43  66  98 132 170 220 274 326 387
#     4  10  21  38  61  89 122 161 209 263 319 381
#     4  10  21  39  62  89 123 166 211 261 321 384
#     4  12  25  44  68  96 132 175 218 268 326 390
#
# _framework density 22.152667999999998
#
# number of rings (size 3 to 8) (size 9 to 14) (size 15 to 20)
#    0.000    1.000    0.000    7.500    0.000    3.000 
#    0.000    2.500    0.000    0.000    0.000    0.000 
#    0.000    0.000    0.000    0.000    0.000    0.000 
#
# Total GULP energy -89310.414841 kJ/mol
# GULP energy per Si atom -5581.900928 kJ/mol
# Density = 2.210225 g / cm^3
# Si number density = 22.152668 Si / 1000 Ang^3
#
#
#
# Elastic Constant Matrix: (Units=GPa)
#
#
# Indices 1 2 3 4 5 6 
#
# 1 111.8645 -0.2223 11.4333 0.0000 -5.7378 0.0000
# 2 -0.2223 73.5667 22.2648 0.0000 -4.7184 0.0000
# 3 11.4333 22.2648 98.4063 0.0000 -1.3023 0.0000
# 4 0.0000 0.0000 0.0000 11.3774 0.0000 -18.7782
# 5 -5.7378 -4.7184 -1.3023 0.0000 24.9599 0.0000
# 6 0.0000 0.0000 0.0000 -18.7782 0.0000 35.7178
#
#
#
# Elastic Compliance Matrix: (Units=1/GPa)
#
#
# Indices 1 2 3 4 5 6 
#
# 1 0.009168 0.000514 -0.001153 0.000000 0.002145 0.000000
# 2 0.000514 0.014790 -0.003370 0.000000 0.002738 0.000000
# 3 -0.001153 -0.003370 0.011054 0.000000 -0.000325 0.000000
# 4 0.000000 0.000000 0.000000 0.664437 0.000000 0.349319
# 5 0.002145 0.002738 -0.000325 0.000000 0.041058 0.000000
# 6 0.000000 0.000000 0.000000 0.349319 0.000000 0.211648
#
#
# Mechanical properties :
#
#
# Convention : Reuss Voigt Hill
#
# Bulk Modulus (GPa) = 37.04393 38.97657 38.01025
# Shear Modulus (GPa) = 5.15905 31.10180 18.13042
#
# Velocity S-wave (km/s) = 1.52772 3.75103 2.86393
# Velocity P-wave (km/s) = 4.45761 6.03266 5.30393
#
# Compressibility (1/GPa) = 0.02699498
#
# Stress axis : x y z
#
# Youngs Moduli (GPa) = 109.07181 67.61249 90.46442
#
# Poissons Ratio (x) = -0.03477 0.10432
# Poissons Ratio (y) = -0.05609 0.30485
# Poissons Ratio (z) = 0.12578 0.22784
#
# Static dielectric constant tensor:
#      x y z
#    x 1.767930 0.000000 -0.014340 
#    y 0.000000 1.766950 0.000000 
#    z -0.014340 0.000000 1.775810 
# 
# From -- ./inp_files/20124.got.cif
#   From: 2010.05.17/outbox.cif.g08.bks.cpg/sg15_11_cif.got.tgz:20124.got - 2010.06.03 18:47:42.
