data_PCOD9281691
_publ_section_title
;
Structure prediction by ZEFSAII (Michael W. Deem and Ramdas Pophale) SiO2 
 PCOD9281691
Probable space group: C 2/C
;
_chemical_formula_sum "Si O2"
_cell_formula_units_Z 40
_cell_length_a 22.515269
_cell_length_b 6.761442
_cell_length_c 10.720618
_cell_angle_alpha 90.000000
_cell_angle_beta 95.432735
_cell_angle_gamma 90.000000
_cell_volume 1624.729470
_symmetry_space_group_name_H-M "C 2/C"
_symmetry_group_IT_number 15
_symmetry_cell_setting 'monoclinic'
loop_
_space_group_symop_operation_xyz
x,y,z
-x,y,1/2-z
-x,-y,-z
x,-y,1/2+z
1/2+x,1/2+y,z
1/2-x,1/2+y,1/2-z
1/2-x,1/2-y,-z
1/2+x,1/2-y,1/2+z
loop_
_atom_site_type_symbol
_atom_site_label
_atom_site_fract_x
_atom_site_fract_y
_atom_site_fract_z
Si Si1 0.333190 0.288567 0.796693
Si Si2 0.036628 0.471746 0.880042
Si Si3 0.363848 0.921709 0.943416
Si Si4 0.773694 0.483741 0.603713
Si Si5 0.875886 0.179117 0.703379
O O1 0.374509 0.133872 0.878562
O O2 0.292577 0.409332 0.887273
O O3 0.364106 0.449143 0.715086
O O4 0.289282 0.148548 0.708976
O O5 0.065094 0.255452 0.855818
O O6 0.000000 0.530210 0.750000
O O7 0.096372 0.593985 0.925004
O O8 0.000000 0.500000 0.000000
O O9 0.380500 0.761077 0.845839
O O10 0.295391 0.930606 0.975518
O O11 0.818690 0.298736 0.638332
#
# Coordination Sequence:
#
# PCOD9281691 Si02
#       5
#     8   8   8   8   8
#     4  11  21  40  64 102 148 185 239 283 347 428
#     4  11  22  45  78  98 134 186 234 297 374 414
#     4  10  23  39  67  99 137 188 235 292 354 423
#     4  10  21  38  63  96 145 193 224 282 351 419
#     4  10  22  40  66 103 137 181 237 290 349 426
#
# _framework density 24.619485000000001
#
# number of rings (size 3 to 8) (size 9 to 14) (size 15 to 20)
#    0.000    1.600    4.000    0.600    0.000    4.000 
#    0.000    1.000   13.200    0.000    0.000    0.000 
#    0.000    0.000    0.000    0.000    0.000    0.000 
#
# Total GULP energy -111835.231685 kJ/mol
# GULP energy per Si atom -5591.761584 kJ/mol
# Density = 2.456345 g / cm^3
# Si number density = 24.619485 Si / 1000 Ang^3
#
#
#
# Elastic Constant Matrix: (Units=GPa)
#
#
# Indices 1 2 3 4 5 6 
#
# 1 92.6556 48.4171 39.8005 0.0000 -17.8459 0.0000
# 2 48.4171 130.4321 52.5387 0.0000 -5.3622 0.0000
# 3 39.8005 52.5387 128.9581 0.0000 -3.7259 0.0000
# 4 0.0000 0.0000 0.0000 31.4826 0.0000 -12.1049
# 5 -17.8459 -5.3622 -3.7259 0.0000 55.1323 0.0000
# 6 0.0000 0.0000 0.0000 -12.1049 0.0000 24.5137
#
#
#
# Elastic Compliance Matrix: (Units=1/GPa)
#
#
# Indices 1 2 3 4 5 6 
#
# 1 0.015049 -0.004294 -0.002772 0.000000 0.004266 0.000000
# 2 -0.004294 0.010420 -0.002936 0.000000 -0.000575 0.000000
# 3 -0.002772 -0.002936 0.009791 0.000000 -0.000521 0.000000
# 4 0.000000 0.000000 0.000000 0.039208 0.000000 0.019361
# 5 0.004266 -0.000575 -0.000521 0.000000 0.019428 0.000000
# 6 0.000000 0.000000 0.000000 0.019361 0.000000 0.050354
#
#
# Mechanical properties :
#
#
# Convention : Reuss Voigt Hill
#
# Bulk Modulus (GPa) = 65.55206 70.39538 67.97372
# Shear Modulus (GPa) = 29.52635 36.31169 32.91902
#
# Velocity S-wave (km/s) = 3.46686 3.84463 3.66062
# Velocity P-wave (km/s) = 6.53524 6.95440 6.74808
#
# Compressibility (1/GPa) = 0.01525505
#
# Stress axis : x y z
#
# Youngs Moduli (GPa) = 66.44953 95.96821 102.13259
#
# Poissons Ratio (x) = 0.41213 0.28309
# Poissons Ratio (y) = 0.28536 0.29991
# Poissons Ratio (z) = 0.18418 0.28181
#
# Static dielectric constant tensor:
#      x y z
#    x 2.057640 0.000000 -0.029440 
#    y 0.000000 1.933170 0.000000 
#    z -0.029440 0.000000 2.022590 
# 
# From -- ./inp_files/120823.got.cif
#   From: 2010.05.17/outbox.cif.g08.bks.cpg/sg15_61_cif.got.tgz:120823.got - 2010.06.03 18:47:42.
