data_PCOD9281544
_publ_section_title
;
Structure prediction by ZEFSAII (Michael W. Deem and Ramdas Pophale) SiO2 
 PCOD9281544
Probable space group: C 2/C
;
_chemical_formula_sum "Si O2"
_cell_formula_units_Z 32
_cell_length_a 22.636912
_cell_length_b 4.818538
_cell_length_c 18.165308
_cell_angle_alpha 90.000000
_cell_angle_beta 36.651509
_cell_angle_gamma 90.000000
_cell_volume 1182.797917
_symmetry_space_group_name_H-M "C 2/C"
_symmetry_group_IT_number 15
_symmetry_cell_setting 'monoclinic'
loop_
_space_group_symop_operation_xyz
x,y,z
-x,y,1/2-z
-x,-y,-z
x,-y,1/2+z
1/2+x,1/2+y,z
1/2-x,1/2+y,1/2-z
1/2-x,1/2-y,-z
1/2+x,1/2-y,1/2+z
loop_
_atom_site_type_symbol
_atom_site_label
_atom_site_fract_x
_atom_site_fract_y
_atom_site_fract_z
Si Si1 0.292140 0.503910 0.251021
Si Si2 0.906026 0.903146 0.890937
Si Si3 0.701726 0.913054 0.129147
Si Si4 0.969125 0.667702 0.601608
O O1 0.253238 0.210273 0.265164
O O2 0.266242 0.637107 0.355998
O O3 0.407911 0.566850 0.134127
O O4 0.856037 0.679594 0.886017
O O5 0.000000 0.023049 0.750000
O O6 0.950821 0.772752 0.920135
O O7 0.805043 0.070208 0.011756
O O8 0.610787 0.015125 0.270808
O O9 0.000000 0.500000 0.500000
#
# Coordination Sequence:
#
# PCOD9281544 Si02
#       4
#     8   8   8   8
#     4  10  21  38  62  93 131 168 212 271 325 383
#     4   9  15  32  58  92 122 172 214 265 323 384
#     4   8  18  31  59  89 125 165 213 270 316 385
#     4   9  18  32  60  88 127 166 212 261 323 389
#
# _framework density 27.054497000000001
#
# number of rings (size 3 to 8) (size 9 to 14) (size 15 to 20)
#    1.500    1.500    0.000    1.500    0.000    0.000 
#    0.000    5.000    0.000   19.500    0.000    0.000 
#    0.000    0.000    0.000    0.000    0.000    0.000 
#
# Total GULP energy -89299.311505 kJ/mol
# GULP energy per Si atom -5581.206969 kJ/mol
# Density = 2.699292 g / cm^3
# Si number density = 27.054497 Si / 1000 Ang^3
#
#
#
# Elastic Constant Matrix: (Units=GPa)
#
#
# Indices 1 2 3 4 5 6 
#
# 1 247.9522 25.7941 41.6163 -0.0201 -5.9588 0.0006
# 2 25.7941 70.3810 22.4574 -0.0575 2.4135 -0.0650
# 3 41.6163 22.4574 198.0489 -0.0266 -11.9343 0.0175
# 4 -0.0201 -0.0575 -0.0266 27.9430 0.0228 4.1784
# 5 -5.9588 2.4135 -11.9343 0.0228 65.1654 -0.0125
# 6 0.0006 -0.0650 0.0175 4.1784 -0.0125 23.2615
#
#
#
# Elastic Compliance Matrix: (Units=1/GPa)
#
#
# Indices 1 2 3 4 5 6 
#
# 1 0.004304 -0.001354 -0.000732 0.000000 0.000310 -0.000003
# 2 -0.001354 0.015216 -0.001499 0.000024 -0.000962 0.000039
# 3 -0.000732 -0.001499 0.005432 0.000002 0.000983 -0.000008
# 4 0.000000 0.000024 0.000002 0.036775 -0.000015 -0.006606
# 5 0.000310 -0.000962 0.000983 -0.000015 0.015590 0.000008
# 6 -0.000003 0.000039 -0.000008 -0.006606 0.000008 0.044176
#
#
# Mechanical properties :
#
#
# Convention : Reuss Voigt Hill
#
# Bulk Modulus (GPa) = 56.23729 77.34642 66.79185
# Shear Modulus (GPa) = 37.14944 51.70827 44.42886
#
# Velocity S-wave (km/s) = 3.70960 4.37654 4.05680
# Velocity P-wave (km/s) = 6.25939 7.36139 6.83264
#
# Compressibility (1/GPa) = 0.01778180
#
# Stress axis : x y z
#
# Youngs Moduli (GPa) = 232.32707 65.72010 184.08319
#
# Poissons Ratio (x) = 0.08902 0.13479
# Poissons Ratio (y) = 0.31468 0.27589
# Poissons Ratio (z) = 0.17011 0.09850
#
# Static dielectric constant tensor:
#      x y z
#    x 2.042730 -0.000020 0.049600 
#    y -0.000020 2.174580 0.000060 
#    z 0.049600 0.000060 2.337970 
# 
# From -- ./inp_files/253788.got.cif
#   From: 2010.05.17/outbox.cif.g08.bks.cpg/sg15_127_cif.got.tgz:253788.got - 2010.06.03 18:47:42.
