data_PCOD9281584
_publ_section_title
;
Structure prediction by ZEFSAII (Michael W. Deem and Ramdas Pophale) SiO2 
 PCOD9281584
Probable space group: C 2/C
;
_chemical_formula_sum "Si O2"
_cell_formula_units_Z 52
_cell_length_a 11.216486
_cell_length_b 7.030301
_cell_length_c 25.499288
_cell_angle_alpha 90.000000
_cell_angle_beta 79.499196
_cell_angle_gamma 90.000000
_cell_volume 1977.077918
_symmetry_space_group_name_H-M "C 2/C"
_symmetry_group_IT_number 15
_symmetry_cell_setting 'monoclinic'
loop_
_space_group_symop_operation_xyz
x,y,z
-x,y,1/2-z
-x,-y,-z
x,-y,1/2+z
1/2+x,1/2+y,z
1/2-x,1/2+y,1/2-z
1/2-x,1/2-y,-z
1/2+x,1/2-y,1/2+z
loop_
_atom_site_type_symbol
_atom_site_label
_atom_site_fract_x
_atom_site_fract_y
_atom_site_fract_z
Si Si1 0.665726 0.623081 0.145565
Si Si2 0.622536 0.961498 0.805924
Si Si3 0.615071 0.291954 0.535304
Si Si4 0.376651 0.167539 0.366976
Si Si5 0.000000 0.929440 0.750000
Si Si6 0.198566 0.100140 0.302644
Si Si7 0.395202 0.739692 0.979570
O O1 0.804893 0.634504 0.151366
O O2 0.625785 0.732826 0.097138
O O3 0.642389 0.395272 0.139996
O O4 0.591215 0.677085 0.203634
O O5 0.485187 0.905914 0.822909
O O6 0.691811 0.906865 0.747238
O O7 0.643175 0.188212 0.809010
O O8 0.750000 0.250000 0.500000
O O9 0.589670 0.516755 0.532470
O O10 0.497241 0.206889 0.514619
O O11 0.253700 0.068433 0.355577
O O12 0.410211 0.143750 0.424771
O O13 0.093012 0.024696 0.783967
O O14 0.250000 0.750000 0.000000
#
# Coordination Sequence:
#
# PCOD9281584 Si02
#       7
#     8   8   8   8   4   8   8
#     4   9  21  38  60  86 119 163 197 247 303 363
#     4  10  21  39  59  88 120 161 201 244 301 361
#     4  10  21  42  66  89 124 164 206 257 312 366
#     4  10  21  38  63  83 122 162 198 247 310 357
#     4  10  22  38  54  90 124 150 208 242 296 368
#     4  10  23  36  59  86 121 157 199 246 294 361
#     4  10  23  41  62  95 121 158 211 255 308 370
#
# _framework density 26.301444
#
# number of rings (size 3 to 8) (size 9 to 14) (size 15 to 20)
#    0.000    2.154    0.000    1.385   10.769    0.615 
#    2.769    0.000    0.000    0.000    0.000    0.000 
#    0.000    0.000    0.000    0.000    0.000    0.000 
#
# Total GULP energy -145347.648071 kJ/mol
# GULP energy per Si atom -5590.294157 kJ/mol
# Density = 2.624158 g / cm^3
# Si number density = 26.301444 Si / 1000 Ang^3
#
#
#
# Elastic Constant Matrix: (Units=GPa)
#
#
# Indices 1 2 3 4 5 6 
#
# 1 212.0466 9.7467 81.0079 0.0000 54.7582 0.0000
# 2 9.7467 99.7393 4.0216 0.0000 23.8419 0.0000
# 3 81.0079 4.0216 129.7830 0.0000 44.7432 0.0000
# 4 0.0000 0.0000 0.0000 26.2866 0.0000 2.4229
# 5 54.7582 23.8419 44.7432 0.0000 63.4963 0.0000
# 6 0.0000 0.0000 0.0000 2.4229 0.0000 30.5288
#
#
#
# Elastic Compliance Matrix: (Units=1/GPa)
#
#
# Indices 1 2 3 4 5 6 
#
# 1 0.006840 0.000407 -0.002900 0.000000 -0.004008 0.000000
# 2 0.000407 0.011244 0.001287 0.000000 -0.005479 0.000000
# 3 -0.002900 0.001287 0.011597 0.000000 -0.006154 0.000000
# 4 0.000000 0.000000 0.000000 0.038323 0.000000 -0.003041
# 5 -0.004008 -0.005479 -0.006154 0.000000 0.025599 0.000000
# 6 0.000000 0.000000 0.000000 -0.003041 0.000000 0.032997
#
#
# Mechanical properties :
#
#
# Convention : Reuss Voigt Hill
#
# Bulk Modulus (GPa) = 36.67322 70.12460 53.39891
# Shear Modulus (GPa) = 36.20452 47.18186 41.69319
#
# Velocity S-wave (km/s) = 3.71418 4.24003 3.98578
# Velocity P-wave (km/s) = 5.68921 7.11971 6.44428
#
# Compressibility (1/GPa) = 0.02726785
#
# Stress axis : x y z
#
# Youngs Moduli (GPa) = 146.19303 88.93353 86.22675
#
# Poissons Ratio (x) = -0.03615 0.25010
# Poissons Ratio (y) = -0.05943 -0.11096
# Poissons Ratio (z) = 0.42403 -0.11445
#
# Static dielectric constant tensor:
#      x y z
#    x 2.098600 0.000000 0.021760 
#    y 0.000000 2.113020 0.000000 
#    z 0.021760 0.000000 2.122250 
# 
# From -- ./inp_files/291176.got.cif
#   From: 2010.05.17/outbox.cif.g08.bks.cpg/sg15_146_cif.got.tgz:291176.got - 2010.06.03 18:47:42.
