data_PCOD9281026
_publ_section_title
;
Structure prediction by ZEFSAII (Michael W. Deem and Ramdas Pophale) SiO2 
 PCOD9281026
Probable space group: C 2/C
;
_chemical_formula_sum "Si O2"
_cell_formula_units_Z 60
_cell_length_a 17.023510
_cell_length_b 21.273418
_cell_length_c 9.450761
_cell_angle_alpha 90.000000
_cell_angle_beta 68.094607
_cell_angle_gamma 90.000000
_cell_volume 3175.470387
_symmetry_space_group_name_H-M "C 2/C"
_symmetry_group_IT_number 15
_symmetry_cell_setting 'monoclinic'
loop_
_space_group_symop_operation_xyz
x,y,z
-x,y,1/2-z
-x,-y,-z
x,-y,1/2+z
1/2+x,1/2+y,z
1/2-x,1/2+y,1/2-z
1/2-x,1/2-y,-z
1/2+x,1/2-y,1/2+z
loop_
_atom_site_type_symbol
_atom_site_label
_atom_site_fract_x
_atom_site_fract_y
_atom_site_fract_z
Si Si1 0.731450 0.613640 0.474809
Si Si2 0.618170 0.728969 0.448523
Si Si3 0.311102 0.619308 0.663874
Si Si4 0.908502 0.670697 0.287608
Si Si5 0.384343 0.518230 0.077979
Si Si6 0.071770 0.239795 0.989732
Si Si7 0.000000 0.005392 0.250000
Si Si8 0.186589 0.292606 0.134379
O O1 0.669381 0.668613 0.462374
O O2 0.717266 0.611030 0.653532
O O3 0.827390 0.628308 0.368720
O O4 0.700027 0.553623 0.408941
O O5 0.600822 0.773281 0.593034
O O6 0.525297 0.717289 0.446821
O O7 0.676415 0.765849 0.298384
O O8 0.361965 0.555807 0.593676
O O9 0.372260 0.679177 0.593390
O O10 0.228396 0.638636 0.625393
O O11 0.910999 0.706007 0.137103
O O12 0.000000 0.639363 0.250000
O O13 0.429133 0.537752 0.196190
O O14 0.448608 0.531932 0.904771
O O15 0.099632 0.275298 0.114207
O O16 0.250000 0.250000 0.000000
#
# Coordination Sequence:
#
# PCOD9281026 Si02
#       8
#     8   8   8   8   8   8   4   8
#     4  12  22  39  65  86 119 166 204 249 298 363
#     4  11  21  35  63  90 120 158 198 241 307 371
#     4  11  22  40  60  85 124 164 201 249 295 359
#     4  10  21  39  65  93 116 151 203 257 305 368
#     4  11  25  40  62  86 127 167 210 242 300 357
#     4  10  22  36  58  94 124 153 195 247 312 361
#     4  10  24  42  54  88 130 160 210 246 284 352
#     4  10  21  38  56  85 122 157 200 250 296 352
#
# _framework density 18.894836999999999
#
# number of rings (size 3 to 8) (size 9 to 14) (size 15 to 20)
#    0.000    1.333    4.000    2.400    3.733    3.200 
#    0.000    0.000    0.000    2.400    0.000    0.000 
#    0.000    0.000    0.000    0.000    0.000    0.000 
#
# Total GULP energy -167197.878338 kJ/mol
# GULP energy per Si atom -5573.262611 kJ/mol
# Density = 1.885183 g / cm^3
# Si number density = 18.894837 Si / 1000 Ang^3
#
#
#
# Elastic Constant Matrix: (Units=GPa)
#
#
# Indices 1 2 3 4 5 6 
#
# 1 122.7248 48.7349 21.1140 0.0000 -5.2837 0.0000
# 2 48.7349 57.6512 10.6782 0.0000 0.0377 0.0000
# 3 21.1140 10.6782 72.6643 0.0000 6.2939 0.0000
# 4 0.0000 0.0000 0.0000 7.9750 0.0000 3.2998
# 5 -5.2837 0.0377 6.2939 0.0000 39.9642 0.0000
# 6 0.0000 0.0000 0.0000 3.2998 0.0000 12.4534
#
#
#
# Elastic Compliance Matrix: (Units=1/GPa)
#
#
# Indices 1 2 3 4 5 6 
#
# 1 0.012751 -0.010343 -0.002364 0.000000 0.002068 0.000000
# 2 -0.010343 0.026226 -0.000738 0.000000 -0.001276 0.000000
# 3 -0.002364 -0.000738 0.014786 0.000000 -0.002641 0.000000
# 4 0.000000 0.000000 0.000000 0.140833 0.000000 -0.037317
# 5 0.002068 -0.001276 -0.002641 0.000000 0.025713 0.000000
# 6 0.000000 0.000000 0.000000 -0.037317 0.000000 0.090187
#
#
# Mechanical properties :
#
#
# Convention : Reuss Voigt Hill
#
# Bulk Modulus (GPa) = 37.21175 46.01048 41.61111
# Shear Modulus (GPa) = 14.43650 23.57940 19.00795
#
# Velocity S-wave (km/s) = 2.76713 3.53644 3.17517
# Velocity P-wave (km/s) = 5.47232 6.40928 5.95924
#
# Compressibility (1/GPa) = 0.02687323
#
# Stress axis : x y z
#
# Youngs Moduli (GPa) = 78.42393 38.12978 67.63092
#
# Poissons Ratio (x) = 0.39436 0.15990
# Poissons Ratio (y) = 0.81110 0.04993
# Poissons Ratio (z) = 0.18542 0.02815
#
# Static dielectric constant tensor:
#      x y z
#    x 1.747810 0.000000 -0.001700 
#    y 0.000000 1.629840 0.000000 
#    z -0.001700 0.000000 1.643470 
# 
# From -- ./inp_files/50191.got.cif
#   From: 2010.05.17/outbox.cif.g08.bks.cpg/sg15_26_cif.got.tgz:50191.got - 2010.06.03 18:47:42.
