data_PCOD9281537
_publ_section_title
;
Structure prediction by ZEFSAII (Michael W. Deem and Ramdas Pophale) SiO2 
 PCOD9281537
Probable space group: C 2/C
;
_chemical_formula_sum "Si O2"
_cell_formula_units_Z 40
_cell_length_a 11.774871
_cell_length_b 32.898618
_cell_length_c 5.124104
_cell_angle_alpha 90.000000
_cell_angle_beta 76.933464
_cell_angle_gamma 90.000000
_cell_volume 1933.565719
_symmetry_space_group_name_H-M "C 2/C"
_symmetry_group_IT_number 15
_symmetry_cell_setting 'monoclinic'
loop_
_space_group_symop_operation_xyz
x,y,z
-x,y,1/2-z
-x,-y,-z
x,-y,1/2+z
1/2+x,1/2+y,z
1/2-x,1/2+y,1/2-z
1/2-x,1/2-y,-z
1/2+x,1/2-y,1/2+z
loop_
_atom_site_type_symbol
_atom_site_label
_atom_site_fract_x
_atom_site_fract_y
_atom_site_fract_z
Si Si1 0.359383 0.241716 0.746143
Si Si2 0.080746 0.174449 0.461452
Si Si3 0.361497 0.025845 0.333560
Si Si4 0.777477 0.611771 0.234868
Si Si5 0.876350 0.648128 0.673176
O O1 0.500000 0.241129 0.750000
O O2 0.356986 0.281299 0.563081
O O3 0.342869 0.195367 0.667359
O O4 0.250000 0.250000 0.000000
O O5 0.165690 0.136435 0.391091
O O6 0.000000 0.174521 0.250000
O O7 0.000000 0.170672 0.750000
O O8 0.500000 0.036405 0.250000
O O9 0.285466 0.063939 0.280161
O O10 0.340936 0.010438 0.637400
O O11 0.872735 0.629329 0.389053
O O12 0.795842 0.624450 0.924659
O O13 0.000000 0.645388 0.750000
#
# Coordination Sequence:
#
# PCOD9281537 Si02
#       5
#     8   8   8   8   8
#     4  10  22  41  62  91 132 177 220 271 323 377
#     4  11  25  43  63  89 125 174 222 269 313 373
#     4  10  21  38  62  93 126 156 193 250 328 402
#     4  12  23  40  66  89 127 166 213 258 322 381
#     4  11  23  37  60  94 128 164 215 262 313 376
#
# _framework density 20.687168
#
# number of rings (size 3 to 8) (size 9 to 14) (size 15 to 20)
#    0.000    1.200    2.000    4.200    2.800    7.200 
#    0.000    0.000    0.000    3.600    0.000    0.000 
#    0.000    0.000    0.000    0.000    0.000    0.000 
#
# Total GULP energy -111592.598985 kJ/mol
# GULP energy per Si atom -5579.629949 kJ/mol
# Density = 2.064008 g / cm^3
# Si number density = 20.687168 Si / 1000 Ang^3
#
#
#
# Elastic Constant Matrix: (Units=GPa)
#
#
# Indices 1 2 3 4 5 6 
#
# 1 53.2295 15.2279 22.1556 0.0000 5.6809 0.0000
# 2 15.2279 112.0450 3.8570 0.0000 -6.7771 0.0000
# 3 22.1556 3.8570 83.5265 0.0000 -3.9937 0.0000
# 4 0.0000 0.0000 0.0000 -42.2718 0.0000 -48.1267
# 5 5.6809 -6.7771 -3.9937 0.0000 41.5059 0.0000
# 6 0.0000 0.0000 0.0000 -48.1267 0.0000 -12.9562
#
#
#
# Elastic Compliance Matrix: (Units=1/GPa)
#
#
# Indices 1 2 3 4 5 6 
#
# 1 0.022652 -0.003124 -0.006065 0.000000 -0.004194 0.000000
# 2 -0.003124 0.009455 0.000488 0.000000 0.002018 0.000000
# 3 -0.006065 0.000488 0.013665 0.000000 0.002225 0.000000
# 4 0.000000 0.000000 0.000000 0.007326 0.000000 -0.027213
# 5 -0.004194 0.002018 0.002225 0.000000 0.025211 0.000000
# 6 0.000000 0.000000 0.000000 -0.027213 0.000000 0.023903
#
#
# Mechanical properties :
#
#
# Convention : Reuss Voigt Hill
#
# Bulk Modulus (GPa) = 35.24624 36.80911 36.02767
# Shear Modulus (GPa) = 38.73923 11.09294 24.91608
#
# Velocity S-wave (km/s) = 4.33207 2.31816 3.47424
# Velocity P-wave (km/s) = 6.48824 4.99970 5.79199
#
# Compressibility (1/GPa) = 0.02837182
#
# Stress axis : x y z
#
# Youngs Moduli (GPa) = 44.14597 105.76673 73.18085
#
# Poissons Ratio (x) = 0.33037 0.44383
# Poissons Ratio (y) = 0.13789 -0.03574
# Poissons Ratio (z) = 0.26774 -0.05166
#
# Static dielectric constant tensor:
#      x y z
#    x 1.885560 0.000000 0.052310 
#    y 0.000000 1.740830 0.000000 
#    z 0.052310 0.000000 1.758830 
# 
# From -- ./inp_files/5700.got.cif
#   From: 2010.05.17/outbox.cif.g08.bks.cpg/sg15_3_cif.got.tgz:5700.got - 2010.06.03 18:47:42.
