data_PCOD9281651
_publ_section_title
;
Structure prediction by ZEFSAII (Michael W. Deem and Ramdas Pophale) SiO2 
 PCOD9281651
Probable space group: C 2/C
;
_chemical_formula_sum "Si O2"
_cell_formula_units_Z 48
_cell_length_a 10.125150
_cell_length_b 15.599913
_cell_length_c 28.784633
_cell_angle_alpha 90.000000
_cell_angle_beta 36.946375
_cell_angle_gamma 90.000000
_cell_volume 2732.797385
_symmetry_space_group_name_H-M "C 2/C"
_symmetry_group_IT_number 15
_symmetry_cell_setting 'monoclinic'
loop_
_space_group_symop_operation_xyz
x,y,z
-x,y,1/2-z
-x,-y,-z
x,-y,1/2+z
1/2+x,1/2+y,z
1/2-x,1/2+y,1/2-z
1/2-x,1/2-y,-z
1/2+x,1/2-y,1/2+z
loop_
_atom_site_type_symbol
_atom_site_label
_atom_site_fract_x
_atom_site_fract_y
_atom_site_fract_z
Si Si1 0.094441 0.284385 0.584889
Si Si2 0.752594 0.639607 0.802348
Si Si3 0.748304 0.116268 0.807080
Si Si4 0.774889 0.292750 0.843253
Si Si5 0.363304 0.982327 0.922202
Si Si6 0.092627 0.024782 0.402272
O O1 0.250000 0.250000 0.500000
O O2 0.185307 0.281252 0.612600
O O3 0.065123 0.385771 0.585769
O O4 0.885060 0.222198 0.642909
O O5 0.748999 0.635169 0.748141
O O6 0.651738 0.551302 0.850572
O O7 0.000000 0.645983 0.750000
O O8 0.678115 0.203563 0.852540
O O9 0.000000 0.095256 0.750000
O O10 0.572334 0.043240 0.866809
O O11 0.635080 0.378371 0.873605
O O12 0.000000 0.303165 0.750000
O O13 0.259013 0.984927 0.899503
O O14 0.157415 0.011662 0.011276
#
# Coordination Sequence:
#
# PCOD9281651 Si02
#       6
#     8   8   8   8   8   8
#     4  11  22  41  63  89 128 170 204 255 322 371
#     4  12  22  38  66  94 123 161 218 260 304 381
#     4  11  23  41  62  92 129 165 206 262 322 372
#     4  10  21  39  63  88 129 170 204 256 323 374
#     4  10  22  39  63  91 127 164 209 261 312 377
#     4  10  21  38  63  93 121 166 213 254 310 383
#
# _framework density 17.564420999999999
#
# number of rings (size 3 to 8) (size 9 to 14) (size 15 to 20)
#    0.000    1.333    6.667    0.500    2.333    1.333 
#    0.000    3.333    0.000    0.000    0.000    0.000 
#    0.000    0.000    0.000    0.000    0.000    0.000 
#
# Total GULP energy -133886.265028 kJ/mol
# GULP energy per Si atom -5578.594376 kJ/mol
# Density = 1.752444 g / cm^3
# Si number density = 17.564421 Si / 1000 Ang^3
#
#
#
# Elastic Constant Matrix: (Units=GPa)
#
#
# Indices 1 2 3 4 5 6 
#
# 1 79.1247 45.8842 60.7125 -0.0001 -8.6104 -0.0004
# 2 45.8842 198.0755 94.9515 0.0017 -15.7497 0.0000
# 3 60.7125 94.9515 110.8104 0.0121 0.1708 -0.0021
# 4 -0.0001 0.0017 0.0121 48.2891 -0.0004 -3.2711
# 5 -8.6104 -15.7497 0.1708 -0.0004 31.0917 -0.0007
# 6 -0.0004 0.0000 -0.0021 -3.2711 -0.0007 31.9536
#
#
#
# Elastic Compliance Matrix: (Units=1/GPa)
#
#
# Indices 1 2 3 4 5 6 
#
# 1 0.023590 0.002301 -0.014908 0.000004 0.007780 0.000000
# 2 0.002301 0.009434 -0.009352 0.000002 0.005467 0.000000
# 3 -0.014908 -0.009352 0.025220 -0.000006 -0.009005 0.000001
# 4 0.000004 0.000002 -0.000006 0.020853 0.000002 0.002135
# 5 0.007780 0.005467 -0.009005 0.000002 0.037136 0.000001
# 6 0.000000 0.000000 0.000001 0.002135 0.000001 0.031514
#
#
# Mechanical properties :
#
#
# Convention : Reuss Voigt Hill
#
# Bulk Modulus (GPa) = 69.81336 87.90079 78.85708
# Shear Modulus (GPa) = 25.45283 34.69769 30.07526
#
# Velocity S-wave (km/s) = 3.81085 4.44943 4.14246
# Velocity P-wave (km/s) = 7.69394 8.74929 8.23853
#
# Compressibility (1/GPa) = 0.01432391
#
# Stress axis : x y z
#
# Youngs Moduli (GPa) = 42.39112 106.00368 39.65066
#
# Poissons Ratio (x) = -0.24386 0.59111
# Poissons Ratio (y) = -0.09752 0.37083
# Poissons Ratio (z) = 0.63197 0.99139
#
# Static dielectric constant tensor:
#      x y z
#    x 1.584250 0.000000 0.020100 
#    y 0.000000 1.594220 0.000000 
#    z 0.020100 0.000000 1.593180 
# 
# From -- ./inp_files/182406.got.cif
#   From: 2010.05.17/outbox.cif.g08.bks.cpg/sg15_92_cif.got.tgz:182406.got - 2010.06.03 18:47:42.
