data_PCOD9281156
_publ_section_title
;
Structure prediction by ZEFSAII (Michael W. Deem and Ramdas Pophale) SiO2 
 PCOD9281156
Probable space group: C 2/C
;
_chemical_formula_sum "Si O2"
_cell_formula_units_Z 40
_cell_length_a 7.392402
_cell_length_b 28.356361
_cell_length_c 11.453893
_cell_angle_alpha 90.000000
_cell_angle_beta 47.708315
_cell_angle_gamma 90.000000
_cell_volume 1776.076618
_symmetry_space_group_name_H-M "C 2/C"
_symmetry_group_IT_number 15
_symmetry_cell_setting 'monoclinic'
loop_
_space_group_symop_operation_xyz
x,y,z
-x,y,1/2-z
-x,-y,-z
x,-y,1/2+z
1/2+x,1/2+y,z
1/2-x,1/2+y,1/2-z
1/2-x,1/2-y,-z
1/2+x,1/2-y,1/2+z
loop_
_atom_site_type_symbol
_atom_site_label
_atom_site_fract_x
_atom_site_fract_y
_atom_site_fract_z
Si Si1 0.273558 0.198638 0.935868
Si Si2 0.776659 0.599881 0.437008
Si Si3 0.144651 0.999202 0.064513
Si Si4 0.644687 0.698076 0.567015
Si Si5 0.771995 0.401709 0.439631
O O1 0.500000 0.200416 0.750000
O O2 0.290468 0.148976 0.997302
O O3 0.036134 0.193065 0.961665
O O4 0.250000 0.250000 0.000000
O O5 0.789442 0.550102 0.498370
O O6 0.795546 0.649376 0.498238
O O7 0.499631 0.598414 0.502278
O O8 0.000000 0.600037 0.250000
O O9 0.000000 0.998512 0.250000
O O10 0.284309 0.049117 0.002045
O O11 0.000000 0.000000 0.000000
O O12 0.500000 0.699027 0.750000
O O13 0.750000 0.750000 0.500000
O O14 0.000000 0.402026 0.250000
#
# Coordination Sequence:
#
# PCOD9281156 Si02
#       5
#     8   8   8   8   8
#     4  10  21  38  59  84 117 158 202 248 303 364
#     4  10  21  39  63  93 125 162 207 258 316 379
#     4  10  21  41  65  94 127 166 210 262 319 382
#     4  11  22  38  60  90 124 164 209 261 315 376
#     4   9  20  40  62  89 123 162 208 257 314 379
#
# _framework density 22.521552
#
# number of rings (size 3 to 8) (size 9 to 14) (size 15 to 20)
#    0.000    2.000    0.000    3.000    0.000    2.400 
#    0.000   32.000    0.000    0.000    0.000    0.000 
#    0.000    0.000    0.000    0.000    0.000    0.000 
#
# Total GULP energy -111361.554224 kJ/mol
# GULP energy per Si atom -5568.077711 kJ/mol
# Density = 2.247029 g / cm^3
# Si number density = 22.521552 Si / 1000 Ang^3
#
#
#
# Elastic Constant Matrix: (Units=GPa)
#
#
# Indices 1 2 3 4 5 6 
#
# 1 103.0265 24.2639 13.6750 0.0000 -4.9952 0.0000
# 2 24.2639 358.1211 114.7141 0.0000 6.4595 0.0000
# 3 13.6750 114.7141 162.4851 0.0000 -2.7511 0.0000
# 4 0.0000 0.0000 0.0000 61.5128 0.0000 -6.0045
# 5 -4.9952 6.4595 -2.7511 0.0000 32.5874 0.0000
# 6 0.0000 0.0000 0.0000 -6.0045 0.0000 0.0576
#
#
#
# Elastic Compliance Matrix: (Units=1/GPa)
#
#
# Indices 1 2 3 4 5 6 
#
# 1 0.009973 -0.000575 -0.000407 0.000000 0.001608 0.000000
# 2 -0.000575 0.003670 -0.002560 0.000000 -0.001032 0.000000
# 3 -0.000407 -0.002560 0.008015 0.000000 0.001122 0.000000
# 4 0.000000 0.000000 0.000000 -0.001772 0.000000 -0.184691
# 5 0.001608 -0.001032 0.001122 0.000000 0.031232 0.000000
# 6 0.000000 0.000000 0.000000 -0.184691 0.000000 -1.892050
#
#
# Mechanical properties :
#
#
# Convention : Reuss Voigt Hill
#
# Bulk Modulus (GPa) = 68.60514 103.21542 85.91028
# Shear Modulus (GPa) = -2.73375 50.23022 23.74824
#
# Velocity S-wave (km/s) = -1.10294 4.72775 3.25078
# Velocity P-wave (km/s) = 5.37645 8.70237 7.23317
#
# Compressibility (1/GPa) = 0.01457617
#
# Stress axis : x y z
#
# Youngs Moduli (GPa) = 100.26585 272.48424 124.76553
#
# Poissons Ratio (x) = 0.15655 0.05072
# Poissons Ratio (y) = 0.05761 0.31941
# Poissons Ratio (z) = 0.04076 0.69758
#
# Static dielectric constant tensor:
#      x y z
#    x 1.769940 0.000000 0.033450 
#    y 0.000000 1.975410 0.000000 
#    z 0.033450 0.000000 1.784010 
# 
# From -- ./inp_files/81982.got.cif
#   From: 2010.05.17/outbox.cif.g08.bks.cpg/sg15_41_cif.got.tgz:81982.got - 2010.06.03 18:47:42.
