data_PCOD9281402
_publ_section_title
;
Structure prediction by ZEFSAII (Michael W. Deem and Ramdas Pophale) SiO2 
 PCOD9281402
Probable space group: C 2/C
;
_chemical_formula_sum "Si O2"
_cell_formula_units_Z 56
_cell_length_a 9.282961
_cell_length_b 23.518512
_cell_length_c 14.533505
_cell_angle_alpha 90.000000
_cell_angle_beta 66.668490
_cell_angle_gamma 90.000000
_cell_volume 2913.517286
_symmetry_space_group_name_H-M "C 2/C"
_symmetry_group_IT_number 15
_symmetry_cell_setting 'monoclinic'
loop_
_space_group_symop_operation_xyz
x,y,z
-x,y,1/2-z
-x,-y,-z
x,-y,1/2+z
1/2+x,1/2+y,z
1/2-x,1/2+y,1/2-z
1/2-x,1/2-y,-z
1/2+x,1/2-y,1/2+z
loop_
_atom_site_type_symbol
_atom_site_label
_atom_site_fract_x
_atom_site_fract_y
_atom_site_fract_z
Si Si1 0.275830 0.628588 0.547177
Si Si2 0.186586 0.001446 0.476131
Si Si3 0.180700 0.001341 0.692257
Si Si4 0.957872 0.172966 0.153049
Si Si5 0.335000 0.628471 0.742357
Si Si6 0.468877 0.804414 0.147608
Si Si7 0.181008 0.413402 0.708690
O O1 0.244441 0.561355 0.556713
O O2 0.408960 0.641099 0.439013
O O3 0.337222 0.644034 0.633932
O O4 0.118892 0.664137 0.566657
O O5 0.206752 0.013815 0.578757
O O6 0.267397 0.047210 0.390244
O O7 0.000000 0.000000 0.500000
O O8 0.196406 0.060887 0.741595
O O9 0.000000 0.981963 0.750000
O O10 0.286434 0.952783 0.710046
O O11 0.955148 0.238789 0.123710
O O12 0.794611 0.140610 0.181435
O O13 0.000000 0.171330 0.250000
O O14 0.500000 0.639421 0.750000
O O15 0.192466 0.661911 0.825641
O O16 0.500000 0.806244 0.250000
O O17 0.000000 0.397958 0.750000
#
# Coordination Sequence:
#
# PCOD9281402 Si02
#       7
#     8   8   8   8   8   8   8
#     4  11  20  39  68  89 118 165 214 261 304 374
#     4  12  21  38  65  93 125 169 209 254 326 379
#     4  11  21  39  63  91 124 168 208 254 315 388
#     4  11  23  44  63  88 125 168 215 254 315 378
#     4  10  21  38  61  91 124 158 204 260 318 372
#     4   9  22  40  66  91 117 162 218 268 300 364
#     4  12  26  39  60  96 134 164 202 264 323 387
#
# _framework density 19.220753999999999
#
# number of rings (size 3 to 8) (size 9 to 14) (size 15 to 20)
#    0.000    1.143    4.286    2.571    2.000    1.143 
#    2.571    0.714    0.000    0.000    0.000    0.000 
#    0.000    0.000    0.000    0.000    0.000    0.000 
#
# Total GULP energy -156528.409849 kJ/mol
# GULP energy per Si atom -5590.300352 kJ/mol
# Density = 1.917701 g / cm^3
# Si number density = 19.220754 Si / 1000 Ang^3
#
#
#
# Elastic Constant Matrix: (Units=GPa)
#
#
# Indices 1 2 3 4 5 6 
#
# 1 119.5713 77.0411 38.7820 0.0000 -24.1933 0.0000
# 2 77.0411 111.7958 14.0099 0.0000 -14.7746 0.0000
# 3 38.7820 14.0099 88.8695 0.0000 -1.2204 0.0000
# 4 0.0000 0.0000 0.0000 20.6848 0.0000 2.5387
# 5 -24.1933 -14.7746 -1.2204 0.0000 27.9081 0.0000
# 6 0.0000 0.0000 0.0000 2.5387 0.0000 18.0156
#
#
#
# Elastic Compliance Matrix: (Units=1/GPa)
#
#
# Indices 1 2 3 4 5 6 
#
# 1 0.020431 -0.011733 -0.006912 0.000000 0.011197 0.000000
# 2 -0.011733 0.016546 0.002494 0.000000 -0.001303 0.000000
# 3 -0.006912 0.002494 0.013820 0.000000 -0.004068 0.000000
# 4 0.000000 0.000000 0.000000 0.049196 0.000000 -0.006933
# 5 0.011197 -0.001303 -0.004068 0.000000 0.044671 0.000000
# 6 0.000000 0.000000 0.000000 -0.006933 0.000000 0.056484
#
#
# Mechanical properties :
#
#
# Convention : Reuss Voigt Hill
#
# Bulk Modulus (GPa) = 54.07363 64.43362 59.25363
# Shear Modulus (GPa) = 20.86685 26.01526 23.44106
#
# Velocity S-wave (km/s) = 3.29848 3.68298 3.49602
# Velocity P-wave (km/s) = 6.53457 7.18899 6.86958
#
# Compressibility (1/GPa) = 0.01849330
#
# Stress axis : x y z
#
# Youngs Moduli (GPa) = 48.94638 60.43863 72.35940
#
# Poissons Ratio (x) = 0.70913 0.50017
# Poissons Ratio (y) = 0.57429 -0.18046
# Poissons Ratio (z) = 0.33833 -0.15073
#
# Static dielectric constant tensor:
#      x y z
#    x 1.650110 0.000000 0.007690 
#    y 0.000000 1.670790 0.000000 
#    z 0.007690 0.000000 1.682560 
# 
# From -- ./inp_files/137260.got.cif
#   From: 2010.05.17/outbox.cif.g08.bks.cpg/sg15_69_cif.got.tgz:137260.got - 2010.06.03 18:47:42.
