data_PCOD9281202
_publ_section_title
;
Structure prediction by ZEFSAII (Michael W. Deem and Ramdas Pophale) SiO2 
 PCOD9281202
Probable space group: C 2/C
;
_chemical_formula_sum "Si O2"
_cell_formula_units_Z 52
_cell_length_a 10.581172
_cell_length_b 25.143148
_cell_length_c 9.608479
_cell_angle_alpha 90.000000
_cell_angle_beta 67.349767
_cell_angle_gamma 90.000000
_cell_volume 2359.119728
_symmetry_space_group_name_H-M "C 2/C"
_symmetry_group_IT_number 15
_symmetry_cell_setting 'monoclinic'
loop_
_space_group_symop_operation_xyz
x,y,z
-x,y,1/2-z
-x,-y,-z
x,-y,1/2+z
1/2+x,1/2+y,z
1/2-x,1/2+y,1/2-z
1/2-x,1/2-y,-z
1/2+x,1/2-y,1/2+z
loop_
_atom_site_type_symbol
_atom_site_label
_atom_site_fract_x
_atom_site_fract_y
_atom_site_fract_z
Si Si1 0.653748 0.193038 0.701125
Si Si2 0.843632 0.545186 0.372169
Si Si3 0.500000 0.388458 0.750000
Si Si4 0.267906 0.052368 0.098019
Si Si5 0.101332 0.663696 0.437373
Si Si6 0.716144 0.154026 0.943231
Si Si7 0.330141 0.304755 0.649382
O O1 0.500000 0.169404 0.750000
O O2 0.684970 0.194322 0.524348
O O3 0.642620 0.249556 0.783617
O O4 0.744590 0.157049 0.765217
O O5 0.761656 0.537455 0.263593
O O6 0.821845 0.494821 0.480301
O O7 0.791804 0.596513 0.480643
O O8 0.000000 0.551419 0.250000
O O9 0.381863 0.423982 0.869806
O O10 0.430791 0.349352 0.666944
O O11 0.372547 0.101807 0.042866
O O12 0.179189 0.677752 0.263792
O O13 0.941708 0.674416 0.488127
O O14 0.818278 0.191149 0.988311
#
# Coordination Sequence:
#
# PCOD9281202 Si02
#       7
#     8   8   4   8   8   8   8
#     4  10  22  34  60  94 122 160 201 252 310 371
#     4  12  23  41  64  96 119 161 204 267 323 363
#     4  10  22  42  62  90 124 174 204 246 304 372
#     4  11  25  40  66  87 127 162 207 257 310 381
#     4  10  21  38  59  90 124 157 200 263 310 362
#     4  11  21  38  61  90 123 155 205 265 310 360
#     4  11  19  40  62  83 125 168 208 243 302 374
#
# _framework density 22.042120000000001
#
# number of rings (size 3 to 8) (size 9 to 14) (size 15 to 20)
#    0.000    1.231    5.385    1.846    2.154    1.231 
#    0.000    0.000    0.000    0.000    0.000    0.000 
#    0.000    0.000    0.000    0.000    0.000    0.000 
#
# Total GULP energy -145058.096408 kJ/mol
# GULP energy per Si atom -5579.157554 kJ/mol
# Density = 2.199195 g / cm^3
# Si number density = 22.042120 Si / 1000 Ang^3
#
#
#
# Elastic Constant Matrix: (Units=GPa)
#
#
# Indices 1 2 3 4 5 6 
#
# 1 64.1612 4.0639 21.2464 0.0000 23.6971 0.0000
# 2 4.0639 108.0507 34.2005 0.0000 16.3052 0.0000
# 3 21.2464 34.2005 67.1366 0.0000 39.4347 0.0000
# 4 0.0000 0.0000 0.0000 31.5411 0.0000 3.1396
# 5 23.6971 16.3052 39.4347 0.0000 41.7830 0.0000
# 6 0.0000 0.0000 0.0000 3.1396 0.0000 9.9302
#
#
#
# Elastic Compliance Matrix: (Units=1/GPa)
#
#
# Indices 1 2 3 4 5 6 
#
# 1 0.019819 0.000988 0.000120 0.000000 -0.011739 0.000000
# 2 0.000988 0.011178 -0.006991 0.000000 0.001676 0.000000
# 3 0.000120 -0.006991 0.037825 0.000000 -0.033039 0.000000
# 4 0.000000 0.000000 0.000000 0.032735 0.000000 -0.010350
# 5 -0.011739 0.001676 -0.033039 0.000000 0.061119 0.000000
# 6 0.000000 0.000000 0.000000 -0.010350 0.000000 0.103975
#
#
# Mechanical properties :
#
#
# Convention : Reuss Voigt Hill
#
# Bulk Modulus (GPa) = 17.52692 39.81891 28.67291
# Shear Modulus (GPa) = 16.81036 28.64002 22.72519
#
# Velocity S-wave (km/s) = 2.76460 3.60853 3.21439
# Velocity P-wave (km/s) = 4.26140 5.95535 5.17811
#
# Compressibility (1/GPa) = 0.05705509
#
# Stress axis : x y z
#
# Youngs Moduli (GPa) = 50.45620 89.46350 26.43768
#
# Poissons Ratio (x) = -0.08840 -0.00317
# Poissons Ratio (y) = -0.04986 0.18483
# Poissons Ratio (z) = -0.00605 0.62547
#
# Static dielectric constant tensor:
#      x y z
#    x 1.836160 0.000000 0.023210 
#    y 0.000000 1.831210 0.000000 
#    z 0.023210 0.000000 1.941430 
# 
# From -- ./inp_files/33507.got.cif
#   From: 2010.05.17/outbox.cif.g08.bks.cpg/sg15_17_cif.got.tgz:33507.got - 2010.06.03 18:47:42.
