data_PCOD9281956
_publ_section_title
;
Structure prediction by ZEFSAII (Michael W. Deem and Ramdas Pophale) SiO2 
 PCOD9281956
Probable space group: C 2/C
;
_chemical_formula_sum "Si O2"
_cell_formula_units_Z 40
_cell_length_a 12.697348
_cell_length_b 11.918204
_cell_length_c 21.857161
_cell_angle_alpha 90.000000
_cell_angle_beta 27.206444
_cell_angle_gamma 90.000000
_cell_volume 1512.243996
_symmetry_space_group_name_H-M "C 2/C"
_symmetry_group_IT_number 15
_symmetry_cell_setting 'monoclinic'
loop_
_space_group_symop_operation_xyz
x,y,z
-x,y,1/2-z
-x,-y,-z
x,-y,1/2+z
1/2+x,1/2+y,z
1/2-x,1/2+y,1/2-z
1/2-x,1/2-y,-z
1/2+x,1/2-y,1/2+z
loop_
_atom_site_type_symbol
_atom_site_label
_atom_site_fract_x
_atom_site_fract_y
_atom_site_fract_z
Si Si1 0.129956 0.169516 0.413490
Si Si2 0.944468 0.223472 0.185532
Si Si3 0.563212 0.495527 0.147163
Si Si4 0.538185 0.888037 0.522473
Si Si5 0.242451 0.552129 0.696715
O O1 0.037839 0.211167 0.395818
O O2 0.184014 0.285080 0.418801
O O3 0.934762 0.107792 0.553729
O O4 0.307014 0.070996 0.303842
O O5 0.698026 0.170205 0.334421
O O6 0.952418 0.352766 0.199665
O O7 0.112897 0.129028 0.123829
O O8 0.500000 0.467643 0.250000
O O9 0.798821 0.433775 0.008009
O O10 0.368016 0.463752 0.198317
O O11 0.500000 0.000000 0.500000
#
# Coordination Sequence:
#
# PCOD9281956 Si02
#       5
#     8   8   8   8   8
#     4   9  20  38  65  90 133 171 208 277 323 383
#     4  10  21  38  66  95 133 175 214 274 327 384
#     4  11  21  38  67  97 129 173 219 267 320 392
#     4  11  22  39  66 101 127 169 225 263 320 390
#     4   9  20  40  63  93 132 170 215 271 333 381
#
# _framework density 26.450758
#
# number of rings (size 3 to 8) (size 9 to 14) (size 15 to 20)
#    0.000    2.000    2.000    1.200    2.800    3.200 
#    0.000    7.000    0.000    6.000    0.000    0.000 
#    0.000    0.000    0.000    0.000    0.000    0.000 
#
# Total GULP energy -111742.327214 kJ/mol
# GULP energy per Si atom -5587.116361 kJ/mol
# Density = 2.639055 g / cm^3
# Si number density = 26.450758 Si / 1000 Ang^3
#
#
#
# Elastic Constant Matrix: (Units=GPa)
#
#
# Indices 1 2 3 4 5 6 
#
# 1 79.5778 30.6436 34.8463 0.0060 4.4873 0.0003
# 2 30.6436 250.5723 58.7919 -0.0096 3.4550 -0.0018
# 3 34.8463 58.7919 81.8266 0.0350 15.4240 0.0037
# 4 0.0060 -0.0096 0.0350 31.5416 -0.0190 -5.9436
# 5 4.4873 3.4550 15.4240 -0.0190 38.9789 -0.0007
# 6 0.0003 -0.0018 0.0037 -5.9436 -0.0007 35.4042
#
#
#
# Elastic Compliance Matrix: (Units=1/GPa)
#
#
# Indices 1 2 3 4 5 6 
#
# 1 0.015506 -0.000388 -0.006478 0.000005 0.000813 0.000001
# 2 -0.000388 0.004847 -0.003507 0.000006 0.001003 0.000002
# 3 -0.006478 -0.003507 0.018694 -0.000026 -0.006341 -0.000007
# 4 0.000005 0.000006 -0.000026 0.032740 0.000025 0.005496
# 5 0.000813 0.001003 -0.006341 0.000025 0.027982 0.000005
# 6 0.000001 0.000002 -0.000007 0.005496 0.000005 0.029168
#
#
# Mechanical properties :
#
#
# Convention : Reuss Voigt Hill
#
# Bulk Modulus (GPa) = 54.63491 73.39335 64.01413
# Shear Modulus (GPa) = 32.09583 40.36461 36.23022
#
# Velocity S-wave (km/s) = 3.48719 3.91068 3.70499
# Velocity P-wave (km/s) = 6.07571 6.94252 6.52353
#
# Compressibility (1/GPa) = 0.01830331
#
# Stress axis : x y z
#
# Youngs Moduli (GPa) = 64.48914 206.30481 53.49180
#
# Poissons Ratio (x) = 0.07996 0.34653
# Poissons Ratio (y) = 0.02499 0.18757
# Poissons Ratio (z) = 0.41778 0.72343
#
# Static dielectric constant tensor:
#      x y z
#    x 2.111220 0.000000 -0.049820 
#    y 0.000000 2.108580 0.000000 
#    z -0.049820 0.000000 2.209340 
# 
# From -- ./inp_files/273741.got.cif
#   From: 2010.05.17/outbox.cif.g08.bks.cpg/sg15_137_cif.got.tgz:273741.got - 2010.06.03 18:47:42.
