data_PCOD9281988
_publ_section_title
;
Structure prediction by ZEFSAII (Michael W. Deem and Ramdas Pophale) SiO2 
 PCOD9281988
Probable space group: C 2/C
;
_chemical_formula_sum "Si O2"
_cell_formula_units_Z 60
_cell_length_a 24.755373
_cell_length_b 11.518402
_cell_length_c 14.769399
_cell_angle_alpha 90.000000
_cell_angle_beta 40.808574
_cell_angle_gamma 90.000000
_cell_volume 2752.280126
_symmetry_space_group_name_H-M "C 2/C"
_symmetry_group_IT_number 15
_symmetry_cell_setting 'monoclinic'
loop_
_space_group_symop_operation_xyz
x,y,z
-x,y,1/2-z
-x,-y,-z
x,-y,1/2+z
1/2+x,1/2+y,z
1/2-x,1/2+y,1/2-z
1/2-x,1/2-y,-z
1/2+x,1/2-y,1/2+z
loop_
_atom_site_type_symbol
_atom_site_label
_atom_site_fract_x
_atom_site_fract_y
_atom_site_fract_z
Si Si1 0.730038 0.935759 0.007086
Si Si2 0.663935 0.713474 0.000705
Si Si3 0.191464 0.732867 0.822129
Si Si4 0.821951 0.682467 0.456897
Si Si5 0.500000 0.177404 0.250000
Si Si6 0.129178 0.952774 0.818951
Si Si7 0.026906 0.618631 0.010030
Si Si8 0.963973 0.832716 0.978391
O O1 0.673977 0.823439 0.054942
O O2 0.791326 0.960365 0.845178
O O3 0.676752 0.052066 0.084957
O O4 0.793099 0.896721 0.005722
O O5 0.725068 0.738466 0.839246
O O6 0.574884 0.698086 0.069228
O O7 0.202477 0.685265 0.907467
O O8 0.151416 0.861347 0.870166
O O9 0.121961 0.650323 0.865859
O O10 0.750000 0.750000 0.500000
O O11 0.913235 0.738968 0.337124
O O12 0.520071 0.114858 0.128524
O O13 0.096233 0.072602 0.899673
O O14 0.053822 0.892920 0.859639
O O15 0.973936 0.722359 0.031989
O O16 0.000000 0.500000 0.000000
#
# Coordination Sequence:
#
# PCOD9281988 Si02
#       8
#     8   8   8   8   4   8   8   8
#     4  10  23  41  59  94 130 163 218 265 319 391
#     4  10  22  39  63  90 124 171 212 266 323 389
#     4   9  21  41  61  91 126 160 213 265 316 393
#     4  11  25  43  66  96 128 172 211 267 331 380
#     4  10  26  44  62 100 134 164 220 272 312 398
#     4   9  20  41  61  92 126 160 218 268 316 391
#     4  10  23  42  65  94 127 170 210 268 334 388
#     4  10  21  38  67  90 120 173 212 263 331 383
#
# _framework density 21.800107000000001
#
# number of rings (size 3 to 8) (size 9 to 14) (size 15 to 20)
#    0.000    2.133    0.000    0.800   11.200    0.533 
#    0.000    0.000    0.000    0.000    0.000    0.000 
#    0.000    0.000    0.000    0.000    0.000    0.000 
#
# Total GULP energy -167464.062413 kJ/mol
# GULP energy per Si atom -5582.135414 kJ/mol
# Density = 2.175049 g / cm^3
# Si number density = 21.800107 Si / 1000 Ang^3
#
#
#
# Elastic Constant Matrix: (Units=GPa)
#
#
# Indices 1 2 3 4 5 6 
#
# 1 148.6502 51.8954 5.9275 0.0000 -2.8737 0.0000
# 2 51.8954 99.1400 -3.7200 0.0000 -10.3110 0.0000
# 3 5.9275 -3.7200 31.4631 0.0000 -12.0457 0.0000
# 4 0.0000 0.0000 0.0000 11.6106 0.0000 1.9161
# 5 -2.8737 -10.3110 -12.0457 0.0000 26.7936 0.0000
# 6 0.0000 0.0000 0.0000 1.9161 0.0000 21.4522
#
#
#
# Elastic Compliance Matrix: (Units=1/GPa)
#
#
# Indices 1 2 3 4 5 6 
#
# 1 0.008477 -0.004791 -0.003045 0.000000 -0.002304 0.000000
# 2 -0.004791 0.013520 0.005189 0.000000 0.007022 0.000000
# 3 -0.003045 0.005189 0.040598 0.000000 0.019922 0.000000
# 4 0.000000 0.000000 0.000000 0.087417 0.000000 -0.007808
# 5 -0.002304 0.007022 0.019922 0.000000 0.048734 0.000000
# 6 0.000000 0.000000 0.000000 -0.007808 0.000000 0.047313
#
#
# Mechanical properties :
#
#
# Convention : Reuss Voigt Hill
#
# Bulk Modulus (GPa) = 17.45193 43.05102 30.25148
# Shear Modulus (GPa) = 18.48759 26.98130 22.73445
#
# Velocity S-wave (km/s) = 2.91529 3.52187 3.23284
# Velocity P-wave (km/s) = 4.39940 6.02736 5.27654
#
# Compressibility (1/GPa) = 0.05730024
#
# Stress axis : x y z
#
# Youngs Moduli (GPa) = 117.97024 73.96613 24.63184
#
# Poissons Ratio (x) = 0.35438 0.07501
# Poissons Ratio (y) = 0.56520 -0.12783
# Poissons Ratio (z) = 0.35927 -0.38385
#
# Static dielectric constant tensor:
#      x y z
#    x 1.839940 0.000000 -0.026540 
#    y 0.000000 1.812800 0.000000 
#    z -0.026540 0.000000 1.814900 
# 
# From -- ./inp_files/173144.got.cif
#   From: 2010.05.17/outbox.cif.g08.bks.cpg/sg15_87_cif.got.tgz:173144.got - 2010.06.03 18:47:42.
