data_PCOD9281664
_publ_section_title
;
Structure prediction by ZEFSAII (Michael W. Deem and Ramdas Pophale) SiO2 
 PCOD9281664
Probable space group: C 2/C
;
_chemical_formula_sum "Si O2"
_cell_formula_units_Z 44
_cell_length_a 15.855838
_cell_length_b 11.540649
_cell_length_c 10.774971
_cell_angle_alpha 90.000000
_cell_angle_beta 114.760539
_cell_angle_gamma 90.000000
_cell_volume 1790.412203
_symmetry_space_group_name_H-M "C 2/C"
_symmetry_group_IT_number 15
_symmetry_cell_setting 'monoclinic'
loop_
_space_group_symop_operation_xyz
x,y,z
-x,y,1/2-z
-x,-y,-z
x,-y,1/2+z
1/2+x,1/2+y,z
1/2-x,1/2+y,1/2-z
1/2-x,1/2-y,-z
1/2+x,1/2-y,1/2+z
loop_
_atom_site_type_symbol
_atom_site_label
_atom_site_fract_x
_atom_site_fract_y
_atom_site_fract_z
Si Si1 0.000000 0.460560 0.750000
Si Si2 0.877441 0.150008 0.011938
Si Si3 0.840879 0.477908 0.475787
Si Si4 0.769946 0.804079 0.688791
Si Si5 0.663096 0.385101 0.503115
Si Si6 0.025822 0.293058 0.962876
O O1 0.087823 0.517838 0.870847
O O2 0.035771 0.374053 0.663690
O O3 0.849000 0.190995 0.131852
O O4 0.967838 0.214953 0.018885
O O5 0.791645 0.189580 0.870184
O O6 0.883116 0.011584 0.013220
O O7 0.797013 0.588966 0.388108
O O8 0.754914 0.405155 0.478763
O O9 0.904436 0.389380 0.435943
O O10 0.807762 0.834206 0.846036
O O11 0.587745 0.291245 0.414366
#
# Coordination Sequence:
#
# PCOD9281664 Si02
#       6
#     4   8   8   8   8   8
#     4   8  20  36  64  92 120 158 224 266 298 374
#     4  10  23  41  57  93 127 168 209 261 323 377
#     4   9  21  41  61  97 116 171 210 265 309 375
#     4  10  23  41  63  88 136 164 210 265 321 390
#     4  11  22  38  66  88 131 167 214 257 327 377
#     4  10  21  38  63  94 122 159 222 261 308 374
#
# _framework density 24.575344999999999
#
# number of rings (size 3 to 8) (size 9 to 14) (size 15 to 20)
#    1.091    1.091    0.000    2.182    2.545    4.364 
#    0.000    0.000    0.000    0.000    0.000    0.000 
#    0.000    0.000    0.000    0.000    0.000    0.000 
#
# Total GULP energy -123004.537320 kJ/mol
# GULP energy per Si atom -5591.115333 kJ/mol
# Density = 2.451941 g / cm^3
# Si number density = 24.575345 Si / 1000 Ang^3
#
#
#
# Elastic Constant Matrix: (Units=GPa)
#
#
# Indices 1 2 3 4 5 6 
#
# 1 120.2787 18.3621 7.3342 0.0000 -10.5390 0.0000
# 2 18.3621 106.0911 0.1328 0.0000 3.0278 0.0000
# 3 7.3342 0.1328 58.8464 0.0000 10.3070 0.0000
# 4 0.0000 0.0000 0.0000 31.0431 0.0000 6.0036
# 5 -10.5390 3.0278 10.3070 0.0000 22.3322 0.0000
# 6 0.0000 0.0000 0.0000 6.0036 0.0000 45.9813
#
#
#
# Elastic Compliance Matrix: (Units=1/GPa)
#
#
# Indices 1 2 3 4 5 6 
#
# 1 0.009196 -0.001748 -0.002115 0.000000 0.005553 0.000000
# 2 -0.001748 0.009797 0.000623 0.000000 -0.002441 0.000000
# 3 -0.002115 0.000623 0.018979 0.000000 -0.009842 0.000000
# 4 0.000000 0.000000 0.000000 0.033048 0.000000 -0.004315
# 5 0.005553 -0.002441 -0.009842 0.000000 0.052272 0.000000
# 6 0.000000 0.000000 0.000000 -0.004315 0.000000 0.022311
#
#
# Mechanical properties :
#
#
# Convention : Reuss Voigt Hill
#
# Bulk Modulus (GPa) = 31.75147 37.43046 34.59096
# Shear Modulus (GPa) = 30.75395 37.16380 33.95888
#
# Velocity S-wave (km/s) = 3.54137 3.89297 3.72133
# Velocity P-wave (km/s) = 5.44700 5.95575 5.70705
#
# Compressibility (1/GPa) = 0.03149460
#
# Stress axis : x y z
#
# Youngs Moduli (GPa) = 108.73925 102.07001 52.68870
#
# Poissons Ratio (x) = 0.17837 0.11143
# Poissons Ratio (y) = 0.19002 -0.03283
# Poissons Ratio (z) = 0.22996 -0.06361
#
# Static dielectric constant tensor:
#      x y z
#    x 2.029150 0.000000 0.061780 
#    y 0.000000 1.940180 0.000000 
#    z 0.061780 0.000000 2.034730 
# 
# From -- ./inp_files/103878.got.cif
#   From: 2010.05.17/outbox.cif.g08.bks.cpg/sg15_52_cif.got.tgz:103878.got - 2010.06.03 18:47:42.
