data_PCOD9281263
_publ_section_title
;
Structure prediction by ZEFSAII (Michael W. Deem and Ramdas Pophale) SiO2 
 PCOD9281263
Probable space group: C 2/C
;
_chemical_formula_sum "Si O2"
_cell_formula_units_Z 64
_cell_length_a 8.952094
_cell_length_b 17.840987
_cell_length_c 26.500972
_cell_angle_alpha 90.000000
_cell_angle_beta 135.260313
_cell_angle_gamma 90.000000
_cell_volume 2979.258491
_symmetry_space_group_name_H-M "C 2/C"
_symmetry_group_IT_number 15
_symmetry_cell_setting 'monoclinic'
loop_
_space_group_symop_operation_xyz
x,y,z
-x,y,1/2-z
-x,-y,-z
x,-y,1/2+z
1/2+x,1/2+y,z
1/2-x,1/2+y,1/2-z
1/2-x,1/2-y,-z
1/2+x,1/2-y,1/2+z
loop_
_atom_site_type_symbol
_atom_site_label
_atom_site_fract_x
_atom_site_fract_y
_atom_site_fract_z
Si Si1 0.163522 0.372323 0.835260
Si Si2 0.963393 0.693673 0.681029
Si Si3 0.911579 0.635044 0.966412
Si Si4 0.897672 0.055145 0.536720
Si Si5 0.109853 0.470509 0.330841
Si Si6 0.280493 0.288745 0.172390
Si Si7 0.859776 0.108055 0.037141
Si Si8 0.029818 0.793969 0.025011
O O1 0.093836 0.445936 0.850541
O O2 0.171237 0.284747 0.850905
O O3 0.409714 0.390581 0.881603
O O4 0.000000 0.370229 0.750000
O O5 0.988769 0.605605 0.671441
O O6 0.721416 0.714663 0.610498
O O7 0.000000 0.701764 0.750000
O O8 0.125301 0.733801 0.681586
O O9 0.764375 0.574826 0.957835
O O10 0.828059 0.651581 0.890142
O O11 0.157061 0.612158 0.023695
O O12 0.908412 0.716309 0.992558
O O13 0.140781 0.049167 0.613821
O O14 0.894798 0.130485 0.502591
O O15 0.845417 0.971753 0.503943
O O16 0.000000 0.477010 0.250000
O O17 0.500000 0.314518 0.250000
O O18 0.857769 0.180147 0.000223
#
# Coordination Sequence:
#
# PCOD9281263 Si02
#       8
#     8   8   8   8   8   8   8   8
#     4   9  18  36  58  89 110 153 199 240 282 350
#     4  10  21  38  60  89 114 155 202 249 292 349
#     4  12  23  39  58  91 126 158 192 244 312 354
#     4  10  23  36  58  89 122 152 197 246 298 345
#     4   8  17  34  59  80 109 151 196 236 285 342
#     4  11  23  36  59  89 121 155 198 247 298 357
#     4  11  20  39  63  86 119 157 200 241 292 358
#     4  11  21  39  63  86 117 159 203 245 286 360
#
# _framework density 21.481856000000001
#
# number of rings (size 3 to 8) (size 9 to 14) (size 15 to 20)
#    0.000    1.750    2.500    2.250    5.250    0.000 
#    0.000    0.000    0.000    0.000   19.500    0.000 
#    0.000    0.000    0.000    0.000    0.000    0.000 
#
# Total GULP energy -178244.333106 kJ/mol
# GULP energy per Si atom -5570.135410 kJ/mol
# Density = 2.143296 g / cm^3
# Si number density = 21.481856 Si / 1000 Ang^3
#
#
#
# Elastic Constant Matrix: (Units=GPa)
#
#
# Indices 1 2 3 4 5 6 
#
# 1 48.0960 7.1478 9.1725 0.0000 -4.9224 0.0000
# 2 7.1478 93.9688 17.1489 0.0000 -3.7998 0.0000
# 3 9.1725 17.1489 104.7289 -0.0001 1.0686 0.0000
# 4 0.0000 0.0000 -0.0001 13.8661 0.0000 1.5696
# 5 -4.9224 -3.7998 1.0686 0.0000 13.7778 0.0000
# 6 0.0000 0.0000 0.0000 1.5696 0.0000 28.7502
#
#
#
# Elastic Compliance Matrix: (Units=1/GPa)
#
#
# Indices 1 2 3 4 5 6 
#
# 1 0.022090 -0.001030 -0.001845 0.000000 0.007751 0.000000
# 2 -0.001030 0.011158 -0.001766 0.000000 0.002846 0.000000
# 3 -0.001845 -0.001766 0.010019 0.000000 -0.001923 0.000000
# 4 0.000000 0.000000 0.000000 0.072567 0.000000 -0.003962
# 5 0.007751 0.002846 -0.001923 0.000000 0.076284 0.000000
# 6 0.000000 0.000000 0.000000 -0.003962 0.000000 0.034999
#
#
# Mechanical properties :
#
#
# Convention : Reuss Voigt Hill
#
# Bulk Modulus (GPa) = 29.42540 34.85914 32.14227
# Shear Modulus (GPa) = 20.18363 25.50047 22.84205
#
# Velocity S-wave (km/s) = 3.06856 3.44913 3.26439
# Velocity P-wave (km/s) = 5.12662 5.66784 5.40401
#
# Compressibility (1/GPa) = 0.03398424
#
# Stress axis : x y z
#
# Youngs Moduli (GPa) = 45.26926 89.62556 99.81201
#
# Poissons Ratio (x) = 0.09233 0.18417
# Poissons Ratio (y) = 0.04663 0.17625
# Poissons Ratio (z) = 0.08353 0.15826
#
# Static dielectric constant tensor:
#      x y z
#    x 1.819210 0.000000 -0.028460 
#    y 0.000000 1.864540 0.000000 
#    z -0.028460 0.000000 1.785250 
# 
# From -- ./inp_files/308820.got.cif
#   From: 2010.05.17/outbox.cif.g08.bks.cpg/sg15_155_cif.got.tgz:308820.got - 2010.06.03 18:47:42.
