data_PCOD9281761
_publ_section_title
;
Structure prediction by ZEFSAII (Michael W. Deem and Ramdas Pophale) SiO2 
 PCOD9281761
Probable space group: C 2/C
;
_chemical_formula_sum "Si O2"
_cell_formula_units_Z 48
_cell_length_a 17.575578
_cell_length_b 12.435547
_cell_length_c 10.632834
_cell_angle_alpha 90.000000
_cell_angle_beta 115.403473
_cell_angle_gamma 90.000000
_cell_volume 2099.229983
_symmetry_space_group_name_H-M "C 2/C"
_symmetry_group_IT_number 15
_symmetry_cell_setting 'monoclinic'
loop_
_space_group_symop_operation_xyz
x,y,z
-x,y,1/2-z
-x,-y,-z
x,-y,1/2+z
1/2+x,1/2+y,z
1/2-x,1/2+y,1/2-z
1/2-x,1/2-y,-z
1/2+x,1/2-y,1/2+z
loop_
_atom_site_type_symbol
_atom_site_label
_atom_site_fract_x
_atom_site_fract_y
_atom_site_fract_z
Si Si1 0.287583 0.290936 0.396845
Si Si2 0.599211 0.472266 0.069832
Si Si3 0.630287 0.171601 0.253340
Si Si4 0.630156 0.080246 0.807743
Si Si5 0.898466 0.108220 0.660024
Si Si6 0.979338 0.618706 0.534161
O O1 0.250000 0.250000 0.500000
O O2 0.375377 0.356014 0.469979
O O3 0.296900 0.202368 0.295085
O O4 0.219059 0.382389 0.318169
O O5 0.629875 0.460024 0.236035
O O6 0.500000 0.500000 0.000000
O O7 0.632835 0.557033 0.991777
O O8 0.630623 0.268621 0.350747
O O9 0.628160 0.049632 0.298449
O O10 0.545399 0.182958 0.107399
O O11 0.560986 0.142701 0.673930
O O12 0.600353 0.110580 0.927744
O O13 0.000000 0.106436 0.750000
O O14 0.000000 0.500000 0.500000
#
# Coordination Sequence:
#
# PCOD9281761 Si02
#       6
#     8   8   8   8   8   8
#     4  11  22  40  64  92 130 173 220 269 337 394
#     4   9  20  41  63  93 130 177 216 269 324 394
#     4  10  21  38  64  92 122 169 214 268 332 395
#     4  10  21  39  63  89 128 163 211 278 329 388
#     4   9  19  37  65  90 128 174 221 266 325 392
#     4   9  19  37  62  90 120 157 209 267 334 379
#
# _framework density 22.865527
#
# number of rings (size 3 to 8) (size 9 to 14) (size 15 to 20)
#    0.000    2.333    1.667    0.000    4.667    2.667 
#    0.000   17.500    0.000    0.000    0.000    0.000 
#    0.000    0.000    0.000    0.000    0.000    0.000 
#
# Total GULP energy -133705.145044 kJ/mol
# GULP energy per Si atom -5571.047710 kJ/mol
# Density = 2.281348 g / cm^3
# Si number density = 22.865527 Si / 1000 Ang^3
#
#
#
# Elastic Constant Matrix: (Units=GPa)
#
#
# Indices 1 2 3 4 5 6 
#
# 1 82.6743 17.1513 11.3423 0.0000 -13.8080 0.0000
# 2 17.1513 87.9763 31.6218 0.0000 -5.7205 0.0000
# 3 11.3423 31.6218 45.1332 0.0000 -17.7637 0.0000
# 4 0.0000 0.0000 0.0000 37.3528 0.0000 -11.4946
# 5 -13.8080 -5.7205 -17.7637 0.0000 27.0747 0.0000
# 6 0.0000 0.0000 0.0000 -11.4946 0.0000 49.1651
#
#
#
# Elastic Compliance Matrix: (Units=1/GPa)
#
#
# Indices 1 2 3 4 5 6 
#
# 1 0.013683 -0.002655 0.001277 0.000000 0.007255 0.000000
# 2 -0.002655 0.016246 -0.013343 0.000000 -0.006675 0.000000
# 3 0.001277 -0.013343 0.040890 0.000000 0.024660 0.000000
# 4 0.000000 0.000000 0.000000 0.028847 0.000000 0.006744
# 5 0.007255 -0.006675 0.024660 0.000000 0.055404 0.000000
# 6 0.000000 0.000000 0.000000 0.006744 0.000000 0.021916
#
#
# Mechanical properties :
#
#
# Convention : Reuss Voigt Hill
#
# Bulk Modulus (GPa) = 24.16762 37.33492 30.75127
# Shear Modulus (GPa) = 22.70456 33.09642 27.90049
#
# Velocity S-wave (km/s) = 3.15455 3.80865 3.49692
# Velocity P-wave (km/s) = 4.88473 5.97533 5.45734
#
# Compressibility (1/GPa) = 0.04137768
#
# Stress axis : x y z
#
# Youngs Moduli (GPa) = 73.08366 61.55348 24.45593
#
# Poissons Ratio (x) = 0.16341 -0.03123
# Poissons Ratio (y) = 0.19402 0.32631
# Poissons Ratio (z) = -0.09332 0.82129
#
# Static dielectric constant tensor:
#      x y z
#    x 1.927090 0.000000 0.023950 
#    y 0.000000 1.912610 0.000000 
#    z 0.023950 0.000000 1.894970 
# 
# From -- ./inp_files/104269.got.cif
#   From: 2010.05.17/outbox.cif.g08.bks.cpg/sg15_53_cif.got.tgz:104269.got - 2010.06.03 18:47:42.
