data_PCOD9281871
_publ_section_title
;
Structure prediction by ZEFSAII (Michael W. Deem and Ramdas Pophale) SiO2 
 PCOD9281871
Probable space group: C 2/C
;
_chemical_formula_sum "Si O2"
_cell_formula_units_Z 44
_cell_length_a 30.405418
_cell_length_b 11.015007
_cell_length_c 19.995746
_cell_angle_alpha 90.000000
_cell_angle_beta 19.222083
_cell_angle_gamma 90.000000
_cell_volume 2204.822169
_symmetry_space_group_name_H-M "C 2/C"
_symmetry_group_IT_number 15
_symmetry_cell_setting 'monoclinic'
loop_
_space_group_symop_operation_xyz
x,y,z
-x,y,1/2-z
-x,-y,-z
x,-y,1/2+z
1/2+x,1/2+y,z
1/2-x,1/2+y,1/2-z
1/2-x,1/2-y,-z
1/2+x,1/2-y,1/2+z
loop_
_atom_site_type_symbol
_atom_site_label
_atom_site_fract_x
_atom_site_fract_y
_atom_site_fract_z
Si Si1 0.127191 0.038650 0.902313
Si Si2 0.911912 0.573417 0.180806
Si Si3 0.723300 0.381040 0.411255
Si Si4 0.000000 0.283539 0.250000
Si Si5 0.077022 0.478745 0.574603
Si Si6 0.032766 0.803528 0.967636
O O1 0.268225 0.050037 0.659476
O O2 0.075605 0.901820 0.961903
O O3 0.160673 0.074469 0.930434
O O4 0.017117 0.124520 0.025933
O O5 0.775416 0.499045 0.375273
O O6 0.992089 0.560894 0.133611
O O7 0.000000 0.500000 0.000000
O O8 0.912383 0.714039 0.161309
O O9 0.616718 0.304187 0.605872
O O10 0.843262 0.286325 0.224141
O O11 0.939778 0.375261 0.391375
O O12 0.000000 0.427884 0.750000
#
# Coordination Sequence:
#
# PCOD9281871 Si02
#       6
#     8   8   8   4   8   8
#     4  11  22  40  66  95 129 174 225 261 331 394
#     4  10  21  38  65  95 124 170 220 262 326 389
#     4  11  23  39  68  95 131 168 223 275 324 386
#     4  10  24  40  64  94 132 166 212 282 324 378
#     4  10  21  40  64  91 131 171 212 273 330 376
#     4  10  22  37  65  95 122 174 219 267 317 400
#
# _framework density 19.956257999999998
#
# number of rings (size 3 to 8) (size 9 to 14) (size 15 to 20)
#    0.545    1.091    5.455    0.000    7.636    0.727 
#    6.545    0.909    4.000    0.000    0.000    0.000 
#    0.000    0.000    0.000    0.000    0.000    0.000 
#
# Total GULP energy -122604.984797 kJ/mol
# GULP energy per Si atom -5572.953854 kJ/mol
# Density = 1.991084 g / cm^3
# Si number density = 19.956258 Si / 1000 Ang^3
#
#
#
# Elastic Constant Matrix: (Units=GPa)
#
#
# Indices 1 2 3 4 5 6 
#
# 1 70.7000 19.1533 6.4792 0.0000 -8.4420 0.0000
# 2 19.1533 98.7470 16.7134 0.0000 -21.7303 0.0000
# 3 6.4792 16.7134 37.1869 0.0000 -8.4501 0.0000
# 4 0.0000 0.0000 0.0000 24.2257 0.0000 -19.4176
# 5 -8.4420 -21.7303 -8.4501 0.0000 27.4229 0.0000
# 6 0.0000 0.0000 0.0000 -19.4176 0.0000 16.3732
#
#
#
# Elastic Compliance Matrix: (Units=1/GPa)
#
#
# Indices 1 2 3 4 5 6 
#
# 1 0.015144 -0.002184 -0.001065 0.000000 0.002603 0.000000
# 2 -0.002184 0.013034 -0.003530 0.000000 0.008568 0.000000
# 3 -0.001065 -0.003530 0.030058 0.000000 0.006137 0.000000
# 4 0.000000 0.000000 0.000000 0.834951 0.000000 0.990198
# 5 0.002603 0.008568 0.006137 0.000000 0.045947 0.000000
# 6 0.000000 0.000000 0.000000 0.990198 0.000000 1.235388
#
#
# Mechanical properties :
#
#
# Convention : Reuss Voigt Hill
#
# Bulk Modulus (GPa) = 22.38357 32.36953 27.37655
# Shear Modulus (GPa) = 2.26966 24.55690 13.41328
#
# Velocity S-wave (km/s) = 1.06761 3.51171 2.59537
# Velocity P-wave (km/s) = 3.57217 5.71824 4.76753
#
# Compressibility (1/GPa) = 0.04467563
#
# Stress axis : x y z
#
# Youngs Moduli (GPa) = 66.03070 76.72532 33.26898
#
# Poissons Ratio (x) = 0.16759 0.03545
# Poissons Ratio (y) = 0.14423 0.11745
# Poissons Ratio (z) = 0.07035 0.27087
#
# Static dielectric constant tensor:
#      x y z
#    x 1.679910 0.000000 0.004000 
#    y 0.000000 1.738760 0.000000 
#    z 0.004000 0.000000 1.772810 
# 
# From -- ./inp_files/259145.got.cif
#   From: 2010.05.17/outbox.cif.g08.bks.cpg/sg15_130_cif.got.tgz:259145.got - 2010.06.03 18:47:42.
