data_PCOD9281892
_publ_section_title
;
Structure prediction by ZEFSAII (Michael W. Deem and Ramdas Pophale) SiO2 
 PCOD9281892
Probable space group: C 2/C
;
_chemical_formula_sum "Si O2"
_cell_formula_units_Z 48
_cell_length_a 14.536753
_cell_length_b 14.027018
_cell_length_c 22.894720
_cell_angle_alpha 90.000000
_cell_angle_beta 149.326829
_cell_angle_gamma 90.000000
_cell_volume 2381.538889
_symmetry_space_group_name_H-M "C 2/C"
_symmetry_group_IT_number 15
_symmetry_cell_setting 'monoclinic'
loop_
_space_group_symop_operation_xyz
x,y,z
-x,y,1/2-z
-x,-y,-z
x,-y,1/2+z
1/2+x,1/2+y,z
1/2-x,1/2+y,1/2-z
1/2-x,1/2-y,-z
1/2+x,1/2-y,1/2+z
loop_
_atom_site_type_symbol
_atom_site_label
_atom_site_fract_x
_atom_site_fract_y
_atom_site_fract_z
Si Si1 0.946824 0.092216 0.897536
Si Si2 0.193221 0.849719 0.997349
Si Si3 0.800889 0.911768 0.624339
Si Si4 0.001221 0.253552 0.485524
Si Si5 0.162542 0.887720 0.296335
Si Si6 0.802756 0.491629 0.142587
O O1 0.958786 0.196133 0.933774
O O2 0.904609 0.096539 0.806346
O O3 0.785946 0.036235 0.843819
O O4 0.139549 0.045607 0.020172
O O5 0.186794 0.920236 0.939040
O O6 0.250000 0.750000 0.000000
O O7 0.020588 0.823005 0.942828
O O8 0.327160 0.895090 0.117613
O O9 0.652253 0.834356 0.559209
O O10 0.000000 0.876888 0.750000
O O11 0.768342 0.011455 0.639237
O O12 0.813443 0.307192 0.380779
O O13 0.000000 0.859829 0.250000
O O14 0.000000 0.539039 0.250000
#
# Coordination Sequence:
#
# PCOD9281892 Si02
#       6
#     8   8   8   8   8   8
#     4  10  24  43  60  98 130 167 227 266 318 414
#     4   9  20  36  63  98 123 152 220 268 324 391
#     4  10  21  38  65  98 127 165 216 276 336 389
#     4  10  23  40  65  95 128 174 218 271 335 382
#     4  11  24  43  64  91 137 173 219 272 323 397
#     4  10  21  40  66  92 131 174 208 270 339 386
#
# _framework density 20.155034000000001
#
# number of rings (size 3 to 8) (size 9 to 14) (size 15 to 20)
#    0.000    2.000    0.000    2.500    7.000    6.000 
#    3.000    0.000    0.000    0.000    0.000    0.000 
#    0.000    0.000    0.000    0.000    0.000    0.000 
#
# Total GULP energy -133848.340844 kJ/mol
# GULP energy per Si atom -5577.014202 kJ/mol
# Density = 2.010916 g / cm^3
# Si number density = 20.155034 Si / 1000 Ang^3
#
#
#
# Elastic Constant Matrix: (Units=GPa)
#
#
# Indices 1 2 3 4 5 6 
#
# 1 147.3966 51.3735 72.4644 0.0002 -30.4255 0.0001
# 2 51.3735 73.3226 31.0249 0.0003 -5.3830 0.0000
# 3 72.4644 31.0249 77.8202 0.0008 0.7352 -0.0002
# 4 0.0002 0.0003 0.0008 9.3064 0.0002 -19.1327
# 5 -30.4255 -5.3830 0.7352 0.0002 40.9300 0.0000
# 6 0.0001 0.0000 -0.0002 -19.1327 0.0000 5.1137
#
#
#
# Elastic Compliance Matrix: (Units=1/GPa)
#
#
# Indices 1 2 3 4 5 6 
#
# 1 0.019692 -0.005946 -0.016099 0.000000 0.014145 0.000000
# 2 -0.005946 0.018416 -0.001786 0.000000 -0.001966 0.000000
# 3 -0.016099 -0.001786 0.028674 0.000000 -0.012718 0.000001
# 4 0.000000 0.000000 0.000000 -0.016057 0.000000 -0.060077
# 5 0.014145 -0.001966 -0.012718 0.000000 0.034917 0.000000
# 6 0.000000 0.000000 0.000001 -0.060077 0.000000 -0.029222
#
#
# Mechanical properties :
#
#
# Convention : Reuss Voigt Hill
#
# Bulk Modulus (GPa) = 52.30822 67.58500 59.94661
# Shear Modulus (GPa) = 45.26691 20.64847 32.95769
#
# Velocity S-wave (km/s) = 4.74427 3.20423 4.04816
# Velocity P-wave (km/s) = 7.48466 6.87712 7.18731
#
# Compressibility (1/GPa) = 0.01911746
#
# Stress axis : x y z
#
# Youngs Moduli (GPa) = 50.78275 54.29988 34.87494
#
# Poissons Ratio (x) = 0.32289 0.56147
# Poissons Ratio (y) = 0.30198 0.06230
# Poissons Ratio (z) = 0.81757 0.09700
#
# Static dielectric constant tensor:
#      x y z
#    x 1.734270 0.000000 0.006790 
#    y 0.000000 1.783070 0.000000 
#    z 0.006790 0.000000 1.763930 
# 
# From -- ./inp_files/153819.got.cif
#   From: 2010.05.17/outbox.cif.g08.bks.cpg/sg15_77_cif.got.tgz:153819.got - 2010.06.03 18:47:42.
