data_PCOD9281862
_publ_section_title
;
Structure prediction by ZEFSAII (Michael W. Deem and Ramdas Pophale) SiO2 
 PCOD9281862
Probable space group: C 2/C
;
_chemical_formula_sum "Si O2"
_cell_formula_units_Z 40
_cell_length_a 15.624583
_cell_length_b 9.720684
_cell_length_c 18.286554
_cell_angle_alpha 90.000000
_cell_angle_beta 147.318656
_cell_angle_gamma 90.000000
_cell_volume 1499.697889
_symmetry_space_group_name_H-M "C 2/C"
_symmetry_group_IT_number 15
_symmetry_cell_setting 'monoclinic'
loop_
_space_group_symop_operation_xyz
x,y,z
-x,y,1/2-z
-x,-y,-z
x,-y,1/2+z
1/2+x,1/2+y,z
1/2-x,1/2+y,1/2-z
1/2-x,1/2-y,-z
1/2+x,1/2-y,1/2+z
loop_
_atom_site_type_symbol
_atom_site_label
_atom_site_fract_x
_atom_site_fract_y
_atom_site_fract_z
Si Si1 0.747521 0.074436 0.160613
Si Si2 0.181934 0.941237 0.954514
Si Si3 0.589184 0.163638 0.384335
Si Si4 0.999058 0.758854 0.573738
Si Si5 0.443379 0.637098 0.876132
O O1 0.835992 0.200154 0.267801
O O2 0.781952 0.937895 0.233331
O O3 0.836335 0.056189 0.146233
O O4 0.572113 0.117372 0.009245
O O5 0.357155 0.007043 0.088325
O O6 0.132802 0.802813 0.960756
O O7 0.069088 0.044271 0.920902
O O8 0.500000 0.214013 0.250000
O O9 0.750000 0.250000 0.500000
O O10 0.477350 0.209043 0.370099
O O11 0.983192 0.854215 0.489970
#
# Coordination Sequence:
#
# PCOD9281862 Si02
#       5
#     8   8   8   8   8
#     4  11  23  42  65  92 129 170 210 259 319 381
#     4  10  21  39  63  90 124 168 212 256 309 379
#     4  10  21  38  65  94 123 164 212 259 313 376
#     4  11  24  40  64  93 128 168 211 263 317 371
#     4  10  21  41  63  91 126 166 208 263 318 371
#
# _framework density 26.672039000000002
#
# number of rings (size 3 to 8) (size 9 to 14) (size 15 to 20)
#    0.000    1.600    0.000    7.800    0.000    8.000 
#    0.000    2.000    0.000    0.000    0.000    0.000 
#    0.000    0.000    0.000    0.000    0.000    0.000 
#
# Total GULP energy -111570.665283 kJ/mol
# GULP energy per Si atom -5578.533264 kJ/mol
# Density = 2.661133 g / cm^3
# Si number density = 26.672039 Si / 1000 Ang^3
#
#
#
# Elastic Constant Matrix: (Units=GPa)
#
#
# Indices 1 2 3 4 5 6 
#
# 1 115.5181 16.3832 54.0151 0.0001 -33.8840 0.0001
# 2 16.3832 72.5207 6.3563 0.0002 6.2274 0.0001
# 3 54.0151 6.3563 167.8489 0.0003 -8.6892 0.0002
# 4 0.0001 0.0002 0.0003 41.6720 0.0002 0.9032
# 5 -33.8840 6.2274 -8.6892 0.0002 61.4530 0.0001
# 6 0.0001 0.0001 0.0002 0.9032 0.0001 55.3581
#
#
#
# Elastic Compliance Matrix: (Units=1/GPa)
#
#
# Indices 1 2 3 4 5 6 
#
# 1 0.012833 -0.003170 -0.003653 0.000000 0.006880 0.000000
# 2 -0.003170 0.014754 0.000296 0.000000 -0.003201 0.000000
# 3 -0.003653 0.000296 0.007068 0.000000 -0.001045 0.000000
# 4 0.000000 0.000000 0.000000 0.024005 0.000000 -0.000392
# 5 0.006880 -0.003201 -0.001045 0.000000 0.020243 0.000000
# 6 0.000000 0.000000 0.000000 -0.000392 0.000000 0.018071
#
#
# Mechanical properties :
#
#
# Convention : Reuss Voigt Hill
#
# Bulk Modulus (GPa) = 46.29634 56.59967 51.44800
# Shear Modulus (GPa) = 42.65165 50.30550 46.47858
#
# Velocity S-wave (km/s) = 4.00323 4.34761 4.17897
# Velocity P-wave (km/s) = 6.22600 6.81681 6.52810
#
# Compressibility (1/GPa) = 0.02159998
#
# Stress axis : x y z
#
# Youngs Moduli (GPa) = 77.92642 67.77741 141.47963
#
# Poissons Ratio (x) = 0.21483 0.51689
# Poissons Ratio (y) = 0.24700 -0.04182
# Poissons Ratio (z) = 0.28470 -0.02003
#
# Static dielectric constant tensor:
#      x y z
#    x 2.103350 0.000000 0.076010 
#    y 0.000000 2.372730 0.000000 
#    z 0.076010 0.000000 2.044400 
# 
# From -- ./inp_files/210831.got.cif
#   From: 2010.05.17/outbox.cif.g08.bks.cpg/sg15_106_cif.got.tgz:210831.got - 2010.06.03 18:47:42.
