data_PCOD9281381
_publ_section_title
;
Structure prediction by ZEFSAII (Michael W. Deem and Ramdas Pophale) SiO2 
 PCOD9281381
Probable space group: C 2/C
;
_chemical_formula_sum "Si O2"
_cell_formula_units_Z 40
_cell_length_a 15.488102
_cell_length_b 6.212370
_cell_length_c 16.709872
_cell_angle_alpha 90.000000
_cell_angle_beta 96.603070
_cell_angle_gamma 90.000000
_cell_volume 1597.122372
_symmetry_space_group_name_H-M "C 2/C"
_symmetry_group_IT_number 15
_symmetry_cell_setting 'monoclinic'
loop_
_space_group_symop_operation_xyz
x,y,z
-x,y,1/2-z
-x,-y,-z
x,-y,1/2+z
1/2+x,1/2+y,z
1/2-x,1/2+y,1/2-z
1/2-x,1/2-y,-z
1/2+x,1/2-y,1/2+z
loop_
_atom_site_type_symbol
_atom_site_label
_atom_site_fract_x
_atom_site_fract_y
_atom_site_fract_z
Si Si1 0.535643 0.099785 0.620259
Si Si2 0.263888 0.061288 0.637641
Si Si3 0.873117 0.669508 0.027924
Si Si4 0.862311 0.277256 0.771324
Si Si5 0.097005 0.944313 0.858893
O O1 0.611974 0.140146 0.564173
O O2 0.493467 0.323475 0.640479
O O3 0.456012 0.960752 0.574543
O O4 0.573710 0.965174 0.696583
O O5 0.172397 0.162813 0.652053
O O6 0.330038 0.262681 0.645113
O O7 0.287573 0.937192 0.558350
O O8 0.286948 0.895135 0.711663
O O9 0.883485 0.910832 0.061155
O O10 0.900800 0.105746 0.714760
#
# Coordination Sequence:
#
# PCOD9281381 Si02
#       5
#     8   8   8   8   8
#     4  10  22  39  62  95 125 167 217 267 321 382
#     4  10  21  38  61  89 127 171 215 262 315 387
#     4   9  21  40  62  90 129 166 214 269 321 380
#     4  11  22  38  63  92 129 170 217 263 325 384
#     4  10  21  40  63  86 129 165 211 267 321 375
#
# _framework density 25.045043
#
# number of rings (size 3 to 8) (size 9 to 14) (size 15 to 20)
#    0.000    2.000    2.000    0.600    0.000   11.200 
#    0.000    1.000    0.000    0.000    0.000    0.000 
#    0.000    0.000    0.000    0.000    0.000    0.000 
#
# Total GULP energy -112120.680284 kJ/mol
# GULP energy per Si atom -5606.034014 kJ/mol
# Density = 2.498804 g / cm^3
# Si number density = 25.045043 Si / 1000 Ang^3
#
#
#
# Elastic Constant Matrix: (Units=GPa)
#
#
# Indices 1 2 3 4 5 6 
#
# 1 65.4192 32.6592 37.6993 0.0000 -17.5530 0.0000
# 2 32.6592 144.9838 53.5678 0.0000 -12.7054 0.0000
# 3 37.6993 53.5678 98.3236 0.0000 -31.1454 0.0000
# 4 0.0000 0.0000 0.0000 21.8280 0.0000 -2.9326
# 5 -17.5530 -12.7054 -31.1454 0.0000 36.7417 0.0000
# 6 0.0000 0.0000 0.0000 -2.9326 0.0000 36.1484
#
#
#
# Elastic Compliance Matrix: (Units=1/GPa)
#
#
# Indices 1 2 3 4 5 6 
#
# 1 0.020694 -0.002339 -0.005174 0.000000 0.004691 0.000000
# 2 -0.002339 0.008951 -0.004584 0.000000 -0.001908 0.000000
# 3 -0.005174 -0.004584 0.018273 0.000000 0.011433 0.000000
# 4 0.000000 0.000000 0.000000 0.046318 0.000000 0.003758
# 5 0.004691 -0.001908 0.011433 0.000000 0.038490 0.000000
# 6 0.000000 0.000000 0.000000 0.003758 0.000000 0.027969
#
#
# Mechanical properties :
#
#
# Convention : Reuss Voigt Hill
#
# Bulk Modulus (GPa) = 42.15127 61.84214 51.99670
# Shear Modulus (GPa) = 25.93403 31.26363 28.59883
#
# Velocity S-wave (km/s) = 3.22140 3.53696 3.38286
# Velocity P-wave (km/s) = 5.54106 6.43631 6.00539
#
# Compressibility (1/GPa) = 0.02372408
#
# Stress axis : x y z
#
# Youngs Moduli (GPa) = 48.32276 111.72395 54.72416
#
# Poissons Ratio (x) = 0.26129 0.28316
# Poissons Ratio (y) = 0.11301 0.25086
# Poissons Ratio (z) = 0.25004 0.51215
#
# Static dielectric constant tensor:
#      x y z
#    x 1.997540 0.000000 -0.000200 
#    y 0.000000 1.929240 0.000000 
#    z -0.000200 0.000000 1.962100 
# 
# From -- ./inp_files/207974.got.cif
#   From: 2010.05.17/outbox.cif.g08.bks.cpg/sg15_104_cif.got.tgz:207974.got - 2010.06.03 18:47:42.
