data_PCOD9281483
_publ_section_title
;
Structure prediction by ZEFSAII (Michael W. Deem and Ramdas Pophale) SiO2 
 PCOD9281483
Probable space group: C 2/C
;
_chemical_formula_sum "Si O2"
_cell_formula_units_Z 56
_cell_length_a 7.400101
_cell_length_b 21.070622
_cell_length_c 21.000154
_cell_angle_alpha 90.000000
_cell_angle_beta 57.692619
_cell_angle_gamma 90.000000
_cell_volume 2767.536574
_symmetry_space_group_name_H-M "C 2/C"
_symmetry_group_IT_number 15
_symmetry_cell_setting 'monoclinic'
loop_
_space_group_symop_operation_xyz
x,y,z
-x,y,1/2-z
-x,-y,-z
x,-y,1/2+z
1/2+x,1/2+y,z
1/2-x,1/2+y,1/2-z
1/2-x,1/2-y,-z
1/2+x,1/2-y,1/2+z
loop_
_atom_site_type_symbol
_atom_site_label
_atom_site_fract_x
_atom_site_fract_y
_atom_site_fract_z
Si Si1 0.189871 0.440171 0.025863
Si Si2 0.756855 0.738836 0.282019
Si Si3 0.433384 0.856695 0.330648
Si Si4 0.384853 0.815478 0.626160
Si Si5 0.351274 0.916721 0.977209
Si Si6 0.953340 0.168339 0.424003
Si Si7 0.514798 0.305056 0.053340
O O1 0.102353 0.406674 0.106125
O O2 0.232947 0.514416 0.026029
O O3 0.394713 0.402338 0.959304
O O4 0.003760 0.428909 0.008998
O O5 0.601297 0.799959 0.314115
O O6 0.762855 0.704101 0.212588
O O7 0.672490 0.687188 0.348639
O O8 0.000000 0.758193 0.250000
O O9 0.500000 0.884545 0.250000
O O10 0.200971 0.824858 0.369113
O O11 0.501354 0.883115 0.603874
O O12 0.223658 0.815763 0.596234
O O13 0.564633 0.762217 0.576151
O O14 0.175015 0.864003 0.027786
O O15 0.949895 0.205050 0.491715
#
# Coordination Sequence:
#
# PCOD9281483 Si02
#       7
#     8   8   8   8   8   8   8
#     4   9  23  41  64  86 126 166 205 252 297 369
#     4  12  24  37  60  93 126 155 202 259 315 373
#     4  11  22  39  60  90 122 160 199 249 317 362
#     4  11  21  38  61  90 128 156 196 258 311 365
#     4  10  22  41  62  94 120 162 212 249 301 364
#     4  10  21  38  62  89 122 160 202 249 312 363
#     4  11  21  36  64  90 119 158 203 255 303 366
#
# _framework density 20.234601999999999
#
# number of rings (size 3 to 8) (size 9 to 14) (size 15 to 20)
#    0.000    1.429    2.857    2.143    6.000    2.286 
#    0.000    3.571    0.000    3.429    0.000    0.000 
#    0.000    0.000    0.000    0.000    0.000    0.000 
#
# Total GULP energy -156276.792936 kJ/mol
# GULP energy per Si atom -5581.314033 kJ/mol
# Density = 2.018855 g / cm^3
# Si number density = 20.234602 Si / 1000 Ang^3
#
#
#
# Elastic Constant Matrix: (Units=GPa)
#
#
# Indices 1 2 3 4 5 6 
#
# 1 54.8487 30.0362 -0.4380 0.0000 -13.6270 0.0000
# 2 30.0362 153.6480 59.9193 0.0000 -5.4660 0.0000
# 3 -0.4380 59.9193 116.7139 0.0000 2.3686 0.0000
# 4 0.0000 0.0000 0.0000 17.1957 0.0000 -2.6188
# 5 -13.6270 -5.4660 2.3686 0.0000 38.2717 0.0000
# 6 0.0000 0.0000 0.0000 -2.6188 0.0000 31.1290
#
#
#
# Elastic Compliance Matrix: (Units=1/GPa)
#
#
# Indices 1 2 3 4 5 6 
#
# 1 0.022931 -0.005252 0.002635 0.000000 0.007251 0.000000
# 2 -0.005252 0.009419 -0.004851 0.000000 -0.000225 0.000000
# 3 0.002635 -0.004851 0.011077 0.000000 -0.000440 0.000000
# 4 0.000000 0.000000 0.000000 0.058909 0.000000 0.004956
# 5 0.007251 -0.000225 -0.000440 0.000000 0.028706 0.000000
# 6 0.000000 0.000000 0.000000 0.004956 0.000000 0.032541
#
#
# Mechanical properties :
#
#
# Convention : Reuss Voigt Hill
#
# Bulk Modulus (GPa) = 35.09825 56.02727 45.56276
# Shear Modulus (GPa) = 26.59355 33.03217 29.81286
#
# Velocity S-wave (km/s) = 3.62921 4.04475 3.84260
# Velocity P-wave (km/s) = 5.91142 7.04005 6.50028
#
# Compressibility (1/GPa) = 0.02849145
#
# Stress axis : x y z
#
# Youngs Moduli (GPa) = 43.60914 106.17037 90.27688
#
# Poissons Ratio (x) = 0.55766 -0.23792
# Poissons Ratio (y) = 0.22906 0.43790
# Poissons Ratio (z) = -0.11493 0.51499
#
# Static dielectric constant tensor:
#      x y z
#    x 1.796560 0.000000 -0.012880 
#    y 0.000000 1.726610 0.000000 
#    z -0.012880 0.000000 1.710980 
# 
# From -- ./inp_files/233775.got.cif
#   From: 2010.05.17/outbox.cif.g08.bks.cpg/sg15_117_cif.got.tgz:233775.got - 2010.06.03 18:47:42.
