data_PCOD9281872
_publ_section_title
;
Structure prediction by ZEFSAII (Michael W. Deem and Ramdas Pophale) SiO2 
 PCOD9281872
Probable space group: C 2/C
;
_chemical_formula_sum "Si O2"
_cell_formula_units_Z 44
_cell_length_a 8.178090
_cell_length_b 27.803612
_cell_length_c 11.987824
_cell_angle_alpha 90.000000
_cell_angle_beta 131.189865
_cell_angle_gamma 90.000000
_cell_volume 2051.247648
_symmetry_space_group_name_H-M "C 2/C"
_symmetry_group_IT_number 15
_symmetry_cell_setting 'monoclinic'
loop_
_space_group_symop_operation_xyz
x,y,z
-x,y,1/2-z
-x,-y,-z
x,-y,1/2+z
1/2+x,1/2+y,z
1/2-x,1/2+y,1/2-z
1/2-x,1/2-y,-z
1/2+x,1/2-y,1/2+z
loop_
_atom_site_type_symbol
_atom_site_label
_atom_site_fract_x
_atom_site_fract_y
_atom_site_fract_z
Si Si1 0.360844 0.572347 0.027093
Si Si2 0.093611 0.484618 0.916852
Si Si3 0.889094 0.713431 0.313363
Si Si4 0.812544 0.601876 0.307029
Si Si5 0.000000 0.367164 0.250000
Si Si6 0.985233 0.274825 0.093364
O O1 0.617222 0.581454 0.142237
O O2 0.271161 0.594309 0.103813
O O3 0.314528 0.515229 0.013148
O O4 0.212413 0.599321 0.867118
O O5 0.000000 0.498540 0.750000
O O6 0.034145 0.428347 0.894078
O O7 0.000000 0.500000 0.000000
O O8 0.840989 0.657000 0.291599
O O9 0.034575 0.723556 0.485131
O O10 0.666034 0.741787 0.228877
O O11 0.000000 0.728369 0.250000
O O12 0.002725 0.328671 0.149869
O O13 0.750000 0.250000 0.000000
#
# Coordination Sequence:
#
# PCOD9281872 Si02
#       6
#     8   8   8   8   4   8
#     4  10  21  38  65  95 125 167 225 269 314 392
#     4  10  21  40  62  91 128 164 212 272 326 389
#     4  12  25  42  63  97 137 172 212 278 337 381
#     4  10  22  39  66  91 128 175 216 262 335 394
#     4  12  20  38  66  94 124 162 228 272 306 378
#     4  12  24  41  68  94 126 175 227 267 317 397
#
# _framework density 21.450361000000001
#
# number of rings (size 3 to 8) (size 9 to 14) (size 15 to 20)
#    0.000    1.091    4.545    2.182    2.545    0.727 
#    0.000    0.000    0.000    2.182    0.000    0.000 
#    0.000    0.000    0.000    0.000    0.000    0.000 
#
# Total GULP energy -122521.268922 kJ/mol
# GULP energy per Si atom -5569.148587 kJ/mol
# Density = 2.140154 g / cm^3
# Si number density = 21.450361 Si / 1000 Ang^3
#
#
#
# Elastic Constant Matrix: (Units=GPa)
#
#
# Indices 1 2 3 4 5 6 
#
# 1 76.9219 11.0867 24.8000 0.0000 -9.5108 0.0000
# 2 11.0867 113.8405 17.3728 0.0000 34.8031 0.0000
# 3 24.8000 17.3728 107.4929 0.0000 -7.5963 0.0000
# 4 0.0000 0.0000 0.0000 35.4321 0.0000 -5.2606
# 5 -9.5108 34.8031 -7.5963 0.0000 41.2220 0.0000
# 6 0.0000 0.0000 0.0000 -5.2606 0.0000 -8.2662
#
#
#
# Elastic Compliance Matrix: (Units=1/GPa)
#
#
# Indices 1 2 3 4 5 6 
#
# 1 0.014867 -0.002621 -0.002642 0.000000 0.005156 0.000000
# 2 -0.002621 0.013100 -0.002368 0.000000 -0.012102 0.000000
# 3 -0.002642 -0.002368 0.010531 0.000000 0.003330 0.000000
# 4 0.000000 0.000000 0.000000 0.025786 0.000000 -0.016411
# 5 0.005156 -0.012102 0.003330 0.000000 0.036279 0.000000
# 6 0.000000 0.000000 0.000000 -0.016411 0.000000 -0.110530
#
#
# Mechanical properties :
#
#
# Convention : Reuss Voigt Hill
#
# Bulk Modulus (GPa) = 43.03576 44.97493 44.00535
# Shear Modulus (GPa) = 383.40880 30.01064 206.70972
#
# Velocity S-wave (km/s) = 13.38396 3.74448 9.82730
# Velocity P-wave (km/s) = 16.09183 6.30137 12.21995
#
# Compressibility (1/GPa) = 0.02323649
#
# Stress axis : x y z
#
# Youngs Moduli (GPa) = 67.26161 76.33314 94.96220
#
# Poissons Ratio (x) = 0.20007 0.25090
# Poissons Ratio (y) = 0.17630 0.22485
# Poissons Ratio (z) = 0.17771 0.18074
#
# Static dielectric constant tensor:
#      x y z
#    x 1.805360 0.000000 -0.079540 
#    y 0.000000 1.752980 0.000000 
#    z -0.079540 0.000000 1.798910 
# 
# From -- ./inp_files/81094.got.cif
#   From: 2010.05.17/outbox.cif.g08.bks.cpg/sg15_41_cif.got.tgz:81094.got - 2010.06.03 18:47:42.
