data_PCOD9281256
_publ_section_title
;
Structure prediction by ZEFSAII (Michael W. Deem and Ramdas Pophale) SiO2 
 PCOD9281256
Probable space group: C 2/C
;
_chemical_formula_sum "Si O2"
_cell_formula_units_Z 48
_cell_length_a 9.157466
_cell_length_b 15.454886
_cell_length_c 15.655278
_cell_angle_alpha 90.000000
_cell_angle_beta 90.418883
_cell_angle_gamma 90.000000
_cell_volume 2215.594602
_symmetry_space_group_name_H-M "C 2/C"
_symmetry_group_IT_number 15
_symmetry_cell_setting 'monoclinic'
loop_
_space_group_symop_operation_xyz
x,y,z
-x,y,1/2-z
-x,-y,-z
x,-y,1/2+z
1/2+x,1/2+y,z
1/2-x,1/2+y,1/2-z
1/2-x,1/2-y,-z
1/2+x,1/2-y,1/2+z
loop_
_atom_site_type_symbol
_atom_site_label
_atom_site_fract_x
_atom_site_fract_y
_atom_site_fract_z
Si Si1 0.573457 0.404700 0.995822
Si Si2 0.369693 0.662419 0.818723
Si Si3 0.831666 0.528921 0.777289
Si Si4 0.175985 0.665379 0.247667
Si Si5 0.200016 0.822238 0.567764
Si Si6 0.664879 0.982804 0.027272
O O1 0.570274 0.363391 0.089403
O O2 0.500000 0.500000 0.000000
O O3 0.472917 0.343659 0.936754
O O4 0.739591 0.429259 0.974343
O O5 0.500000 0.663366 0.750000
O O6 0.256567 0.591764 0.784489
O O7 0.298519 0.757653 0.818791
O O8 0.769369 0.431198 0.769834
O O9 0.822765 0.553787 0.876724
O O10 0.000000 0.529811 0.750000
O O11 0.240820 0.697094 0.337996
O O12 0.000000 0.655818 0.250000
O O13 0.250000 0.750000 0.500000
O O14 0.274004 0.912038 0.537887
O O15 0.500000 0.000000 0.000000
#
# Coordination Sequence:
#
# PCOD9281256 Si02
#       6
#     8   8   8   8   8   8
#     4  10  21  38  61  92 124 163 211 265 325 393
#     4  11  21  39  64  90 119 161 213 262 314 388
#     4  11  22  39  60  87 123 164 207 261 326 388
#     4  10  21  38  60  88 121 163 206 252 316 395
#     4  11  21  39  63  90 122 163 211 263 325 397
#     4  11  22  39  62  89 123 168 213 265 326 389
#
# _framework density 21.664612000000002
#
# number of rings (size 3 to 8) (size 9 to 14) (size 15 to 20)
#    0.000    1.333    0.000   10.000    0.000    0.000 
#    0.000    7.500    0.000    0.000    0.000    0.000 
#    0.000    0.000    0.000    0.000    0.000    0.000 
#
# Total GULP energy -134140.942791 kJ/mol
# GULP energy per Si atom -5589.205950 kJ/mol
# Density = 2.161530 g / cm^3
# Si number density = 21.664612 Si / 1000 Ang^3
#
#
#
# Elastic Constant Matrix: (Units=GPa)
#
#
# Indices 1 2 3 4 5 6 
#
# 1 101.9996 21.2857 8.1111 0.0000 23.6486 0.0000
# 2 21.2857 102.9340 -13.1818 0.0000 16.7990 0.0000
# 3 8.1111 -13.1818 77.3513 0.0000 22.9834 0.0000
# 4 0.0000 0.0000 0.0000 34.3396 0.0000 -6.0524
# 5 23.6486 16.7990 22.9834 0.0000 37.8622 0.0000
# 6 0.0000 0.0000 0.0000 -6.0524 0.0000 29.6472
#
#
#
# Elastic Compliance Matrix: (Units=1/GPa)
#
#
# Indices 1 2 3 4 5 6 
#
# 1 0.011657 -0.001139 0.000728 0.000000 -0.007217 0.000000
# 2 -0.001139 0.011624 0.004174 0.000000 -0.006980 0.000000
# 3 0.000728 0.004174 0.017384 0.000000 -0.012859 0.000000
# 4 0.000000 0.000000 0.000000 0.030208 0.000000 0.006167
# 5 -0.007217 -0.006980 -0.012859 0.000000 0.041822 0.000000
# 6 0.000000 0.000000 0.000000 0.006167 0.000000 0.034989
#
#
# Mechanical properties :
#
#
# Convention : Reuss Voigt Hill
#
# Bulk Modulus (GPa) = 20.75080 34.96831 27.85955
# Shear Modulus (GPa) = 32.00565 38.10781 35.05673
#
# Velocity S-wave (km/s) = 3.84777 4.19858 4.02700
# Velocity P-wave (km/s) = 5.41659 6.29920 5.87449
#
# Compressibility (1/GPa) = 0.04819092
#
# Stress axis : x y z
#
# Youngs Moduli (GPa) = 85.78384 86.02691 57.52437
#
# Poissons Ratio (x) = 0.09803 -0.04187
# Poissons Ratio (y) = 0.09775 -0.24013
# Poissons Ratio (z) = -0.06244 -0.35910
#
# Static dielectric constant tensor:
#      x y z
#    x 1.940080 0.000000 0.101360 
#    y 0.000000 1.804490 0.000000 
#    z 0.101360 0.000000 1.909740 
# 
# From -- ./inp_files/189934.got.cif
#   From: 2010.05.17/outbox.cif.g08.bks.cpg/sg15_95_cif.got.tgz:189934.got - 2010.06.03 18:47:42.
