data_PCOD9281733
_publ_section_title
;
Structure prediction by ZEFSAII (Michael W. Deem and Ramdas Pophale) SiO2 
 PCOD9281733
Probable space group: C 2/C
;
_chemical_formula_sum "Si O2"
_cell_formula_units_Z 56
_cell_length_a 23.761435
_cell_length_b 12.240794
_cell_length_c 7.451767
_cell_angle_alpha 90.000000
_cell_angle_beta 76.453714
_cell_angle_gamma 90.000000
_cell_volume 2107.117032
_symmetry_space_group_name_H-M "C 2/C"
_symmetry_group_IT_number 15
_symmetry_cell_setting 'monoclinic'
loop_
_space_group_symop_operation_xyz
x,y,z
-x,y,1/2-z
-x,-y,-z
x,-y,1/2+z
1/2+x,1/2+y,z
1/2-x,1/2+y,1/2-z
1/2-x,1/2-y,-z
1/2+x,1/2-y,1/2+z
loop_
_atom_site_type_symbol
_atom_site_label
_atom_site_fract_x
_atom_site_fract_y
_atom_site_fract_z
Si Si1 0.500000 0.962328 0.250000
Si Si2 0.619121 0.350711 0.510929
Si Si3 0.318531 0.308611 0.507998
Si Si4 0.075825 0.933959 0.903046
Si Si5 0.225085 0.622280 0.811851
Si Si6 0.567247 0.850702 0.885442
Si Si7 0.000000 0.834657 0.250000
Si Si8 0.243757 0.113586 0.098823
O O1 0.477166 0.884398 0.424097
O O2 0.445235 0.039843 0.227795
O O3 0.575399 0.375206 0.710710
O O4 0.597948 0.441097 0.382272
O O5 0.617524 0.223108 0.449597
O O6 0.680416 0.391557 0.548902
O O7 0.372691 0.374784 0.527201
O O8 0.287899 0.346303 0.351236
O O9 0.324105 0.179293 0.529531
O O10 0.271368 0.327390 0.703649
O O11 0.021695 0.907426 0.069492
O O12 0.220130 0.647702 0.604298
O O13 0.225788 0.494485 0.849802
O O14 0.547701 0.752128 0.774375
#
# Coordination Sequence:
#
# PCOD9281733 Si02
#       8
#     4   8   8   8   8   8   4   8
#     4   9  20  41  62  86 118 161 228 277 316 382
#     4  11  22  37  64  96 136 175 215 271 327 396
#     4  10  23  38  61  95 129 175 219 264 328 401
#     4  11  23  39  58  96 138 169 221 267 326 397
#     4  11  20  37  66  92 125 178 209 268 332 393
#     4  10  21  38  64  89 115 170 218 266 328 369
#     4  11  24  37  64  94 130 179 214 271 324 392
#     4  11  20  38  64  98 132 170 217 269 334 393
#
# _framework density 26.576597
#
# number of rings (size 3 to 8) (size 9 to 14) (size 15 to 20)
#    0.000    1.429    2.857    3.000    2.000    2.857 
#    0.000    0.000    0.000   32.571    0.000    0.000 
#    0.000    0.000    0.000    0.000    0.000    0.000 
#
# Total GULP energy -156147.001737 kJ/mol
# GULP energy per Si atom -5576.678633 kJ/mol
# Density = 2.651611 g / cm^3
# Si number density = 26.576597 Si / 1000 Ang^3
#
#
#
# Elastic Constant Matrix: (Units=GPa)
#
#
# Indices 1 2 3 4 5 6 
#
# 1 64.3937 17.4101 -8.1685 0.0000 23.8551 0.0000
# 2 17.4101 94.6287 8.4990 0.0000 -4.3252 0.0000
# 3 -8.1685 8.4990 127.3369 0.0000 22.2610 0.0000
# 4 0.0000 0.0000 0.0000 22.2717 0.0000 -28.8525
# 5 23.8551 -4.3252 22.2610 0.0000 27.5970 0.0000
# 6 0.0000 0.0000 0.0000 -28.8525 0.0000 -24.2554
#
#
#
# Elastic Compliance Matrix: (Units=1/GPa)
#
#
# Indices 1 2 3 4 5 6 
#
# 1 0.032673 -0.008519 0.009122 0.000000 -0.036936 0.000000
# 2 -0.008519 0.013016 -0.003561 0.000000 0.012276 0.000000
# 3 0.009122 -0.003561 0.011819 0.000000 -0.017976 0.000000
# 4 0.000000 0.000000 0.000000 0.017670 0.000000 -0.021019
# 5 -0.036936 0.012276 -0.017976 0.000000 0.084588 0.000000
# 6 0.000000 0.000000 0.000000 -0.021019 0.000000 -0.016225
#
#
# Mechanical properties :
#
#
# Convention : Reuss Voigt Hill
#
# Bulk Modulus (GPa) = 19.38344 35.76006 27.57175
# Shear Modulus (GPa) = 30.00221 23.03058 26.51640
#
# Velocity S-wave (km/s) = 3.36355 2.94696 3.16212
# Velocity P-wave (km/s) = 4.73222 5.00640 4.87124
#
# Compressibility (1/GPa) = 0.05159044
#
# Stress axis : x y z
#
# Youngs Moduli (GPa) = 30.60644 76.82917 84.61211
#
# Poissons Ratio (x) = 0.65449 -0.77180
# Poissons Ratio (y) = 0.26073 0.30133
# Poissons Ratio (z) = -0.27918 0.27361
#
# Static dielectric constant tensor:
#      x y z
#    x 2.173920 0.000000 -0.014450 
#    y 0.000000 2.138370 0.000000 
#    z -0.014450 0.000000 2.118520 
# 
# From -- ./inp_files/65459.got.cif
#   From: 2010.05.17/outbox.cif.g08.bks.cpg/sg15_33_cif.got.tgz:65459.got - 2010.06.03 18:47:42.
