data_PCOD9281720
_publ_section_title
;
Structure prediction by ZEFSAII (Michael W. Deem and Ramdas Pophale) SiO2 
 PCOD9281720
Probable space group: C 2/C
;
_chemical_formula_sum "Si O2"
_cell_formula_units_Z 56
_cell_length_a 8.647755
_cell_length_b 18.464891
_cell_length_c 25.967554
_cell_angle_alpha 90.000000
_cell_angle_beta 41.591600
_cell_angle_gamma 90.000000
_cell_volume 2752.512244
_symmetry_space_group_name_H-M "C 2/C"
_symmetry_group_IT_number 15
_symmetry_cell_setting 'monoclinic'
loop_
_space_group_symop_operation_xyz
x,y,z
-x,y,1/2-z
-x,-y,-z
x,-y,1/2+z
1/2+x,1/2+y,z
1/2-x,1/2+y,1/2-z
1/2-x,1/2-y,-z
1/2+x,1/2-y,1/2+z
loop_
_atom_site_type_symbol
_atom_site_label
_atom_site_fract_x
_atom_site_fract_y
_atom_site_fract_z
Si Si1 0.280678 0.427449 0.402386
Si Si2 0.500000 0.185454 0.250000
Si Si3 0.124171 0.241170 0.612420
Si Si4 0.342843 0.228994 0.831113
Si Si5 0.369080 0.691994 0.510473
Si Si6 0.422247 0.376498 0.696499
Si Si7 0.771656 0.061241 0.463826
Si Si8 0.500000 0.494270 0.750000
O O1 0.339122 0.344692 0.397651
O O2 0.345257 0.478085 0.435497
O O3 0.397495 0.456668 0.320796
O O4 0.004900 0.435079 0.462665
O O5 0.449979 0.233651 0.312200
O O6 0.279773 0.135470 0.293858
O O7 0.371069 0.280226 0.540586
O O8 0.904975 0.255345 0.629894
O O9 0.500000 0.185923 0.750000
O O10 0.505054 0.298094 0.802024
O O11 0.285846 0.191046 0.899322
O O12 0.250000 0.750000 0.500000
O O13 0.373975 0.613631 0.481975
O O14 0.649538 0.404661 0.610317
O O15 0.342211 0.434701 0.758940
#
# Coordination Sequence:
#
# PCOD9281720 Si02
#       8
#     8   4   8   8   8   8   8   4
#     4  10  22  38  63  94 129 179 214 263 331 406
#     4  12  21  36  72 100 129 164 222 276 328 387
#     4  12  23  38  64  99 133 170 220 276 332 392
#     4  12  24  39  62 100 134 161 217 283 331 375
#     4  12  22  40  68  96 125 170 224 275 330 391
#     4  11  20  40  65  98 122 168 214 273 323 390
#     4  10  21  40  66  89 126 167 224 259 319 406
#     4  10  21  38  64  86 133 172 218 256 334 401
#
# _framework density 20.345050000000001
#
# number of rings (size 3 to 8) (size 9 to 14) (size 15 to 20)
#    0.000    0.857    6.429    0.857    0.000    1.143 
#    0.000    0.714   12.571    0.000    0.000    0.000 
#    0.000    0.000    0.000    0.000    0.000    0.000 
#
# Total GULP energy -156185.196383 kJ/mol
# GULP energy per Si atom -5578.042728 kJ/mol
# Density = 2.029874 g / cm^3
# Si number density = 20.345050 Si / 1000 Ang^3
#
#
#
# Elastic Constant Matrix: (Units=GPa)
#
#
# Indices 1 2 3 4 5 6 
#
# 1 89.9005 21.8909 22.6565 -0.0017 -6.1024 0.0037
# 2 21.8909 95.0627 25.0628 -0.0111 -0.8326 0.0048
# 3 22.6565 25.0628 112.6616 -0.0033 8.3438 0.0103
# 4 -0.0017 -0.0111 -0.0033 6.5986 -0.0018 -7.3934
# 5 -6.1024 -0.8326 8.3438 -0.0018 32.7986 -0.0048
# 6 0.0037 0.0048 0.0103 -7.3934 -0.0048 7.2675
#
#
#
# Elastic Compliance Matrix: (Units=1/GPa)
#
#
# Indices 1 2 3 4 5 6 
#
# 1 0.012419 -0.002254 -0.002204 0.000005 0.002814 0.000005
# 2 -0.002254 0.011612 -0.002161 -0.000103 0.000425 -0.000108
# 3 -0.002204 -0.002161 0.010024 0.000109 -0.003015 0.000097
# 4 0.000005 -0.000103 0.000109 -1.083466 -0.000253 -1.102238
# 5 0.002814 0.000425 -0.003015 -0.000253 0.031790 -0.000234
# 6 0.000005 -0.000108 0.000097 -1.102238 -0.000234 -0.983737
#
#
# Mechanical properties :
#
#
# Convention : Reuss Voigt Hill
#
# Bulk Modulus (GPa) = 48.04292 48.53835 48.29064
# Shear Modulus (GPa) = -2.52375 24.53392 11.00509
#
# Velocity S-wave (km/s) = -1.11497 3.47636 2.32830
# Velocity P-wave (km/s) = 4.69124 6.32636 5.56914
#
# Compressibility (1/GPa) = 0.02081472
#
# Stress axis : x y z
#
# Youngs Moduli (GPa) = 80.52284 86.11800 99.76476
#
# Poissons Ratio (x) = 0.19411 0.21993
# Poissons Ratio (y) = 0.18149 0.21563
# Poissons Ratio (z) = 0.17751 0.18614
#
# Static dielectric constant tensor:
#      x y z
#    x 1.741890 0.000000 0.030600 
#    y 0.000000 1.741940 0.000000 
#    z 0.030600 0.000000 1.764140 
# 
# From -- ./inp_files/289728.got.cif
#   From: 2010.05.17/outbox.cif.g08.bks.cpg/sg15_145_cif.got.tgz:289728.got - 2010.06.03 18:47:42.
