data_PCOD9281021
_publ_section_title
;
Structure prediction by ZEFSAII (Michael W. Deem and Ramdas Pophale) SiO2 
 PCOD9281021
Probable space group: C 2/C
;
_chemical_formula_sum "Si O2"
_cell_formula_units_Z 60
_cell_length_a 17.369517
_cell_length_b 26.531276
_cell_length_c 12.912793
_cell_angle_alpha 90.000000
_cell_angle_beta 145.228725
_cell_angle_gamma 90.000000
_cell_volume 3393.679487
_symmetry_space_group_name_H-M "C 2/C"
_symmetry_group_IT_number 15
_symmetry_cell_setting 'monoclinic'
loop_
_space_group_symop_operation_xyz
x,y,z
-x,y,1/2-z
-x,-y,-z
x,-y,1/2+z
1/2+x,1/2+y,z
1/2-x,1/2+y,1/2-z
1/2-x,1/2-y,-z
1/2+x,1/2-y,1/2+z
loop_
_atom_site_type_symbol
_atom_site_label
_atom_site_fract_x
_atom_site_fract_y
_atom_site_fract_z
Si Si1 0.712388 0.528061 0.936453
Si Si2 0.170808 0.798653 0.538452
Si Si3 0.135296 0.791810 0.252174
Si Si4 0.528857 0.058974 0.557000
Si Si5 0.253399 0.589029 0.319715
Si Si6 0.000000 0.526013 0.750000
Si Si7 0.311358 0.600545 0.784705
Si Si8 0.055147 0.955390 0.634579
O O1 0.677392 0.570321 0.812132
O O2 0.615255 0.481171 0.803133
O O3 0.699925 0.552235 0.035707
O O4 0.866374 0.508784 0.093025
O O5 0.168300 0.801128 0.410305
O O6 0.282337 0.757382 0.690671
O O7 0.199284 0.854786 0.607503
O O8 0.025272 0.783419 0.422788
O O9 0.176834 0.840860 0.231982
O O10 0.407458 0.087588 0.366918
O O11 0.517618 0.059856 0.668075
O O12 0.671380 0.080380 0.677382
O O13 0.500000 0.000000 0.500000
O O14 0.318627 0.568427 0.286866
O O15 0.432645 0.584052 0.995332
O O16 0.000000 0.000000 0.500000
#
# Coordination Sequence:
#
# PCOD9281021 Si02
#       8
#     8   8   8   8   8   4   8   8
#     4  11  21  34  56  80 115 163 190 236 283 341
#     4  10  22  37  56  86 117 160 194 243 300 356
#     4  10  21  38  56  83 122 151 200 245 295 359
#     4  12  23  37  56  84 117 160 202 234 286 363
#     4  12  21  38  59  81 120 162 196 233 295 352
#     4  12  22  40  52  80 124 154 196 248 274 340
#     4  11  21  38  55  83 117 157 199 240 288 350
#     4  10  22  35  52  82 113 154 201 235 278 353
#
# _framework density 17.679925000000001
#
# number of rings (size 3 to 8) (size 9 to 14) (size 15 to 20)
#    0.000    1.067    6.667    0.800    1.867    2.133 
#    0.000    0.000    0.000    0.000    0.000    0.933 
#    0.000    0.000    0.000    0.000    0.000    0.000 
#
# Total GULP energy -167515.880723 kJ/mol
# GULP energy per Si atom -5583.862691 kJ/mol
# Density = 1.763969 g / cm^3
# Si number density = 17.679925 Si / 1000 Ang^3
#
#
#
# Elastic Constant Matrix: (Units=GPa)
#
#
# Indices 1 2 3 4 5 6 
#
# 1 89.3103 44.2045 32.3666 0.0000 8.4730 0.0000
# 2 44.2045 101.8190 46.6567 0.0000 12.6585 0.0000
# 3 32.3666 46.6567 98.9282 0.0000 13.2598 0.0000
# 4 0.0000 0.0000 0.0000 29.3076 0.0000 3.4132
# 5 8.4730 12.6585 13.2598 0.0000 31.9129 0.0000
# 6 0.0000 0.0000 0.0000 3.4132 0.0000 23.0093
#
#
#
# Elastic Compliance Matrix: (Units=1/GPa)
#
#
# Indices 1 2 3 4 5 6 
#
# 1 0.014681 -0.005251 -0.002206 0.000000 -0.000898 0.000000
# 2 -0.005251 0.014625 -0.004859 0.000000 -0.002388 0.000000
# 3 -0.002206 -0.004859 0.013539 0.000000 -0.003112 0.000000
# 4 0.000000 0.000000 0.000000 0.034721 0.000000 -0.005150
# 5 -0.000898 -0.002388 -0.003112 0.000000 0.033814 0.000000
# 6 0.000000 0.000000 0.000000 -0.005150 0.000000 0.044225
#
#
# Mechanical properties :
#
#
# Convention : Reuss Voigt Hill
#
# Bulk Modulus (GPa) = 54.91073 59.61257 57.26165
# Shear Modulus (GPa) = 26.83741 27.96793 27.40267
#
# Velocity S-wave (km/s) = 3.90033 3.98163 3.94119
# Velocity P-wave (km/s) = 7.17001 7.41139 7.29170
#
# Compressibility (1/GPa) = 0.01821138
#
# Stress axis : x y z
#
# Youngs Moduli (GPa) = 68.11677 68.37821 73.86044
#
# Poissons Ratio (x) = 0.35905 0.16296
# Poissons Ratio (y) = 0.35768 0.35891
# Poissons Ratio (z) = 0.15028 0.33227
#
# Static dielectric constant tensor:
#      x y z
#    x 1.677270 0.000000 0.045190 
#    y 0.000000 1.579130 0.000000 
#    z 0.045190 0.000000 1.658920 
# 
# From -- ./inp_files/164125.got.cif
#   From: 2010.05.17/outbox.cif.g08.bks.cpg/sg15_83_cif.got.tgz:164125.got - 2010.06.03 18:47:42.
