data_PCOD9281951
_publ_section_title
;
Structure prediction by ZEFSAII (Michael W. Deem and Ramdas Pophale) SiO2 
 PCOD9281951
Probable space group: C 2/C
;
_chemical_formula_sum "Si O2"
_cell_formula_units_Z 44
_cell_length_a 25.208892
_cell_length_b 11.042408
_cell_length_c 19.586909
_cell_angle_alpha 90.000000
_cell_angle_beta 19.290876
_cell_angle_gamma 90.000000
_cell_volume 1801.259533
_symmetry_space_group_name_H-M "C 2/C"
_symmetry_group_IT_number 15
_symmetry_cell_setting 'monoclinic'
loop_
_space_group_symop_operation_xyz
x,y,z
-x,y,1/2-z
-x,-y,-z
x,-y,1/2+z
1/2+x,1/2+y,z
1/2-x,1/2+y,1/2-z
1/2-x,1/2-y,-z
1/2+x,1/2-y,1/2+z
loop_
_atom_site_type_symbol
_atom_site_label
_atom_site_fract_x
_atom_site_fract_y
_atom_site_fract_z
Si Si1 0.500000 0.106816 0.750000
Si Si2 0.761944 0.447770 0.978078
Si Si3 0.964151 0.916015 0.904659
Si Si4 0.558221 0.341931 0.990014
Si Si5 0.212811 0.752610 0.669253
Si Si6 0.776665 0.740667 0.583852
O O1 0.647523 0.181764 0.542321
O O2 0.419281 0.030316 0.787145
O O3 0.740353 0.361874 0.940074
O O4 0.599516 0.522133 0.192185
O O5 0.795295 0.363898 0.004831
O O6 0.051041 0.793643 0.826582
O O7 0.791403 0.879633 0.083842
O O8 0.940432 0.016701 0.992218
O O9 0.683400 0.307430 0.780043
O O10 0.589850 0.268716 0.022235
O O11 0.382740 0.296826 0.181903
#
# Coordination Sequence:
#
# PCOD9281951 Si02
#       6
#     4   8   8   8   8   8
#     4  10  22  38  60  84 122 168 208 252 302 366
#     4   9  20  39  63  93 124 161 206 252 307 367
#     4  10  24  42  64  89 126 165 205 257 305 362
#     4  11  23  41  65  94 126 161 203 260 312 361
#     4  11  24  43  62  89 124 165 208 252 308 370
#     4  10  21  38  66  95 123 157 204 258 309 363
#
# _framework density 24.427351999999999
#
# number of rings (size 3 to 8) (size 9 to 14) (size 15 to 20)
#    0.000    1.818    0.000    2.727    0.000   16.000 
#    0.000    2.727    0.000    0.000    0.000    0.000 
#    0.000    0.000    0.000    0.000    0.000    0.000 
#
# Total GULP energy -123077.972135 kJ/mol
# GULP energy per Si atom -5594.453279 kJ/mol
# Density = 2.437175 g / cm^3
# Si number density = 24.427352 Si / 1000 Ang^3
#
#
#
# Elastic Constant Matrix: (Units=GPa)
#
#
# Indices 1 2 3 4 5 6 
#
# 1 72.5938 17.5751 3.6625 0.0001 -13.6855 -0.0001
# 2 17.5751 101.4320 29.2629 0.0000 -7.5025 -0.0001
# 3 3.6625 29.2629 88.4396 0.0000 7.3782 -0.0001
# 4 0.0001 0.0000 0.0000 37.2570 0.0000 -8.4361
# 5 -13.6855 -7.5025 7.3782 0.0000 43.1197 0.0001
# 6 -0.0001 -0.0001 -0.0001 -8.4361 0.0001 31.5362
#
#
#
# Elastic Compliance Matrix: (Units=1/GPa)
#
#
# Indices 1 2 3 4 5 6 
#
# 1 0.015170 -0.002221 -0.000267 0.000000 0.004474 0.000000
# 2 -0.002221 0.011508 -0.003879 0.000000 0.001961 0.000000
# 3 -0.000267 -0.003879 0.012849 0.000000 -0.002958 0.000000
# 4 0.000000 0.000000 0.000000 0.028571 0.000000 0.007643
# 5 0.004474 0.001961 -0.002958 0.000000 0.025459 0.000000
# 6 0.000000 0.000000 0.000000 0.007643 0.000000 0.033754
#
#
# Mechanical properties :
#
#
# Convention : Reuss Voigt Hill
#
# Bulk Modulus (GPa) = 37.32339 40.38514 38.85426
# Shear Modulus (GPa) = 33.56278 36.51357 35.03818
#
# Velocity S-wave (km/s) = 3.71075 3.87044 3.79143
# Velocity P-wave (km/s) = 5.80276 6.04503 5.92513
#
# Compressibility (1/GPa) = 0.02679285
#
# Stress axis : x y z
#
# Youngs Moduli (GPa) = 65.92053 86.89721 77.82950
#
# Poissons Ratio (x) = 0.19296 0.02076
# Poissons Ratio (y) = 0.14638 0.30193
# Poissons Ratio (z) = 0.01758 0.33711
#
# Static dielectric constant tensor:
#      x y z
#    x 2.016980 0.000000 -0.031390 
#    y 0.000000 1.997660 0.000000 
#    z -0.031390 0.000000 1.865500 
# 
# From -- ./inp_files/54479.got.cif
#   From: 2010.05.17/outbox.cif.g08.bks.cpg/sg15_28_cif.got.tgz:54479.got - 2010.06.03 18:47:42.
