data_PCOD9281808
_publ_section_title
;
Structure prediction by ZEFSAII (Michael W. Deem and Ramdas Pophale) SiO2 
 PCOD9281808
Probable space group: C 2/C
;
_chemical_formula_sum "Si O2"
_cell_formula_units_Z 52
_cell_length_a 8.058768
_cell_length_b 18.198023
_cell_length_c 18.012786
_cell_angle_alpha 90.000000
_cell_angle_beta 68.726317
_cell_angle_gamma 90.000000
_cell_volume 2461.633988
_symmetry_space_group_name_H-M "C 2/C"
_symmetry_group_IT_number 15
_symmetry_cell_setting 'monoclinic'
loop_
_space_group_symop_operation_xyz
x,y,z
-x,y,1/2-z
-x,-y,-z
x,-y,1/2+z
1/2+x,1/2+y,z
1/2-x,1/2+y,1/2-z
1/2-x,1/2-y,-z
1/2+x,1/2-y,1/2+z
loop_
_atom_site_type_symbol
_atom_site_label
_atom_site_fract_x
_atom_site_fract_y
_atom_site_fract_z
Si Si1 0.838911 0.084620 0.035790
Si Si2 0.066042 0.703103 0.115144
Si Si3 0.008943 0.983156 0.368376
Si Si4 0.142079 0.804405 0.464555
Si Si5 0.810740 0.625656 0.797913
Si Si6 0.000000 0.903787 0.750000
Si Si7 0.762579 0.779051 0.725387
O O1 0.658657 0.130744 0.068956
O O2 0.853038 0.024570 0.098161
O O3 0.870493 0.052212 0.948518
O O4 0.012900 0.135865 0.022048
O O5 0.211869 0.734752 0.148553
O O6 0.993636 0.756926 0.064254
O O7 0.900206 0.692511 0.196973
O O8 0.134973 0.922258 0.309117
O O9 0.923220 0.039053 0.323422
O O10 0.250000 0.750000 0.500000
O O11 0.277566 0.846867 0.387659
O O12 0.814838 0.700848 0.750197
O O13 0.000000 0.587985 0.750000
O O14 0.103629 0.845880 0.784993
#
# Coordination Sequence:
#
# PCOD9281808 Si02
#       7
#     8   8   8   8   8   4   8
#     4  10  21  43  61  87 137 174 209 269 342 398
#     4  10  21  38  64  97 131 163 218 276 331 386
#     4  10  24  39  64  90 133 176 213 268 337 402
#     4  10  23  38  65  99 125 170 226 269 327 395
#     4  10  22  41  63  95 133 166 217 277 326 390
#     4  12  22  42  68  96 128 178 224 274 328 402
#     4  10  22  38  68 100 126 169 224 275 329 391
#
# _framework density 21.124182000000001
#
# number of rings (size 3 to 8) (size 9 to 14) (size 15 to 20)
#    0.000    1.846    2.308    0.462    6.462    4.923 
#    2.769    0.769    0.000    0.000    0.000    0.000 
#    0.000    0.000    0.000    0.000    0.000    0.000 
#
# Total GULP energy -144952.275777 kJ/mol
# GULP energy per Si atom -5575.087530 kJ/mol
# Density = 2.107610 g / cm^3
# Si number density = 21.124182 Si / 1000 Ang^3
#
#
#
# Elastic Constant Matrix: (Units=GPa)
#
#
# Indices 1 2 3 4 5 6 
#
# 1 47.0398 19.4141 22.8890 0.0000 13.9119 0.0000
# 2 19.4141 81.4107 27.4977 0.0000 8.5471 0.0000
# 3 22.8890 27.4977 64.8988 0.0000 13.3087 0.0000
# 4 0.0000 0.0000 0.0000 44.7079 0.0000 3.8398
# 5 13.9119 8.5471 13.3087 0.0000 25.1728 0.0000
# 6 0.0000 0.0000 0.0000 3.8398 0.0000 22.9565
#
#
#
# Elastic Compliance Matrix: (Units=1/GPa)
#
#
# Indices 1 2 3 4 5 6 
#
# 1 0.029296 -0.003598 -0.006436 0.000000 -0.011566 0.000000
# 2 -0.003598 0.014855 -0.004933 0.000000 -0.000447 0.000000
# 3 -0.006436 -0.004933 0.020969 0.000000 -0.005854 0.000000
# 4 0.000000 0.000000 0.000000 0.022693 0.000000 -0.003796
# 5 -0.011566 -0.000447 -0.005854 0.000000 0.049365 0.000000
# 6 0.000000 0.000000 0.000000 -0.003796 0.000000 0.044196
#
#
# Mechanical properties :
#
#
# Convention : Reuss Voigt Hill
#
# Bulk Modulus (GPa) = 28.42097 36.99454 32.70775
# Shear Modulus (GPa) = 22.41787 26.80399 24.61093
#
# Velocity S-wave (km/s) = 3.26121 3.56599 3.41700
# Velocity P-wave (km/s) = 5.25966 5.87418 5.57539
#
# Compressibility (1/GPa) = 0.03518529
#
# Stress axis : x y z
#
# Youngs Moduli (GPa) = 34.13448 67.31895 47.68884
#
# Poissons Ratio (x) = 0.24222 0.30692
# Poissons Ratio (y) = 0.12282 0.23526
# Poissons Ratio (z) = 0.21969 0.33210
#
# Static dielectric constant tensor:
#      x y z
#    x -1.377480 0.000000 -13.518870 
#    y 0.000000 1.790830 0.000000 
#    z -13.518870 0.000000 -55.913400 
# 
# From -- ./inp_files/190309.got.cif
#   From: 2010.05.17/outbox.cif.g08.bks.cpg/sg15_96_cif.got.tgz:190309.got - 2010.06.03 18:47:42.
