data_PCOD9281654
_publ_section_title
;
Structure prediction by ZEFSAII (Michael W. Deem and Ramdas Pophale) SiO2 
 PCOD9281654
Probable space group: C 2/C
;
_chemical_formula_sum "Si O2"
_cell_formula_units_Z 44
_cell_length_a 11.817768
_cell_length_b 22.825902
_cell_length_c 8.446232
_cell_angle_alpha 90.000000
_cell_angle_beta 60.259880
_cell_angle_gamma 90.000000
_cell_volume 1978.282901
_symmetry_space_group_name_H-M "C 2/C"
_symmetry_group_IT_number 15
_symmetry_cell_setting 'monoclinic'
loop_
_space_group_symop_operation_xyz
x,y,z
-x,y,1/2-z
-x,-y,-z
x,-y,1/2+z
1/2+x,1/2+y,z
1/2-x,1/2+y,1/2-z
1/2-x,1/2-y,-z
1/2+x,1/2-y,1/2+z
loop_
_atom_site_type_symbol
_atom_site_label
_atom_site_fract_x
_atom_site_fract_y
_atom_site_fract_z
Si Si1 0.852690 0.735191 0.792128
Si Si2 0.000000 0.776098 0.250000
Si Si3 0.098832 0.575611 0.434952
Si Si4 0.191895 0.860124 0.230192
Si Si5 0.285832 0.180253 0.335080
Si Si6 0.673632 0.042320 0.739747
O O1 0.803208 0.674791 0.749847
O O2 0.825826 0.786205 0.684046
O O3 0.000000 0.731848 0.750000
O O4 0.750000 0.750000 0.000000
O O5 0.938789 0.821562 0.164815
O O6 0.880855 0.730066 0.341068
O O7 0.134990 0.638570 0.339740
O O8 0.152813 0.561289 0.572855
O O9 0.157892 0.526836 0.275740
O O10 0.944522 0.566551 0.566708
O O11 0.196719 0.926158 0.287510
O O12 0.228424 0.855696 0.020555
#
# Coordination Sequence:
#
# PCOD9281654 Si02
#       6
#     8   4   8   8   8   8
#     4  11  26  40  63  94 131 174 217 273 326 386
#     4  10  22  38  60  90 124 172 206 254 316 382
#     4  10  21  38  63  95 125 160 213 266 331 379
#     4  11  24  39  65  89 130 169 217 264 322 391
#     4  11  23  39  63  90 128 168 216 265 322 389
#     4  10  21  38  63  93 125 164 208 272 322 388
#
# _framework density 22.241509000000001
#
# number of rings (size 3 to 8) (size 9 to 14) (size 15 to 20)
#    0.000    1.455    0.000    5.455   15.273    2.909 
#    0.000    0.000    2.000    2.182    0.000    0.000 
#    0.000    0.000    0.000    0.000    0.000    0.000 
#
# Total GULP energy -122902.851972 kJ/mol
# GULP energy per Si atom -5586.493271 kJ/mol
# Density = 2.219089 g / cm^3
# Si number density = 22.241509 Si / 1000 Ang^3
#
#
#
# Elastic Constant Matrix: (Units=GPa)
#
#
# Indices 1 2 3 4 5 6 
#
# 1 141.0382 36.4361 32.8008 0.0000 -6.0984 0.0000
# 2 36.4361 104.2853 24.3039 0.0000 0.6010 0.0000
# 3 32.8008 24.3039 99.1785 0.0000 10.0361 0.0000
# 4 0.0000 0.0000 0.0000 37.0944 0.0000 2.0575
# 5 -6.0984 0.6010 10.0361 0.0000 31.0451 0.0000
# 6 0.0000 0.0000 0.0000 2.0575 0.0000 31.9223
#
#
#
# Elastic Compliance Matrix: (Units=1/GPa)
#
#
# Indices 1 2 3 4 5 6 
#
# 1 0.008378 -0.002373 -0.002440 0.000000 0.002481 0.000000
# 2 -0.002373 0.010854 -0.001868 0.000000 -0.000072 0.000000
# 3 -0.002440 -0.001868 0.011778 0.000000 -0.004251 0.000000
# 4 0.000000 0.000000 0.000000 0.027055 0.000000 -0.001744
# 5 0.002481 -0.000072 -0.004251 0.000000 0.034074 0.000000
# 6 0.000000 0.000000 0.000000 -0.001744 0.000000 0.031438
#
#
# Mechanical properties :
#
#
# Convention : Reuss Voigt Hill
#
# Bulk Modulus (GPa) = 56.66394 59.06485 57.86440
# Shear Modulus (GPa) = 35.00878 36.74312 35.87595
#
# Velocity S-wave (km/s) = 3.97171 4.06890 4.02060
# Velocity P-wave (km/s) = 6.82382 6.97770 6.90119
#
# Compressibility (1/GPa) = 0.01764791
#
# Stress axis : x y z
#
# Youngs Moduli (GPa) = 119.35914 92.13384 84.90589
#
# Poissons Ratio (x) = 0.21861 0.20720
# Poissons Ratio (y) = 0.28321 0.15858
# Poissons Ratio (z) = 0.29128 0.17208
#
# Static dielectric constant tensor:
#      x y z
#    x 1.843720 0.000000 -0.013830 
#    y 0.000000 1.842420 0.000000 
#    z -0.013830 0.000000 1.984220 
# 
# From -- ./inp_files/32451.got.cif
#   From: 2010.05.17/outbox.cif.g08.bks.cpg/sg15_17_cif.got.tgz:32451.got - 2010.06.03 18:47:42.
