data_PCOD9281492
_publ_section_title
;
Structure prediction by ZEFSAII (Michael W. Deem and Ramdas Pophale) SiO2 
 PCOD9281492
Probable space group: C 2/C
;
_chemical_formula_sum "Si O2"
_cell_formula_units_Z 56
_cell_length_a 9.542537
_cell_length_b 15.751508
_cell_length_c 16.594859
_cell_angle_alpha 90.000000
_cell_angle_beta 91.962305
_cell_angle_gamma 90.000000
_cell_volume 2492.899669
_symmetry_space_group_name_H-M "C 2/C"
_symmetry_group_IT_number 15
_symmetry_cell_setting 'monoclinic'
loop_
_space_group_symop_operation_xyz
x,y,z
-x,y,1/2-z
-x,-y,-z
x,-y,1/2+z
1/2+x,1/2+y,z
1/2-x,1/2+y,1/2-z
1/2-x,1/2-y,-z
1/2+x,1/2-y,1/2+z
loop_
_atom_site_type_symbol
_atom_site_label
_atom_site_fract_x
_atom_site_fract_y
_atom_site_fract_z
Si Si1 0.337543 0.994661 0.271233
Si Si2 0.832479 0.162432 0.985282
Si Si3 0.345266 0.169275 0.018107
Si Si4 0.791029 0.322794 0.692638
Si Si5 0.340926 0.997247 0.963823
Si Si6 0.998773 0.754859 0.887025
Si Si7 0.725175 0.677193 0.691184
O O1 0.500000 0.984268 0.250000
O O2 0.286356 0.084294 0.232576
O O3 0.332412 0.000442 0.367546
O O4 0.256452 0.911447 0.236805
O O5 0.864887 0.161494 0.891367
O O6 0.750000 0.250000 0.000000
O O7 0.735368 0.084232 0.003954
O O8 0.953535 0.168617 0.053730
O O9 0.383686 0.170687 0.112792
O O10 0.250000 0.250000 0.000000
O O11 0.458885 0.180786 0.949912
O O12 0.270211 0.081264 0.998788
O O13 0.636993 0.288116 0.662892
O O14 0.839878 0.249881 0.754338
O O15 0.500000 0.000000 0.000000
O O16 0.125114 0.717863 0.835958
#
# Coordination Sequence:
#
# PCOD9281492 Si02
#       7
#     8   8   8   8   8   8   8
#     4  12  23  37  61  92 120 154 203 257 302 353
#     4  10  21  38  62  90 118 157 205 249 295 361
#     4  10  21  39  60  85 120 162 198 239 302 369
#     4  11  23  38  62  95 125 156 201 260 312 356
#     4  12  23  39  62  89 120 159 203 249 303 366
#     4  10  21  41  65  86 123 169 204 244 305 375
#     4  11  22  40  64  91 119 157 206 254 298 356
#
# _framework density 22.463799999999999
#
# number of rings (size 3 to 8) (size 9 to 14) (size 15 to 20)
#    0.000    1.143    0.000    9.857    0.000    1.143 
#    0.000    6.429    0.000    8.571    0.000    0.000 
#    0.000    0.000    0.000    0.000    0.000    0.000 
#
# Total GULP energy -156555.141651 kJ/mol
# GULP energy per Si atom -5591.255059 kJ/mol
# Density = 2.241267 g / cm^3
# Si number density = 22.463800 Si / 1000 Ang^3
#
#
#
# Elastic Constant Matrix: (Units=GPa)
#
#
# Indices 1 2 3 4 5 6 
#
# 1 43.8724 21.5207 15.6511 0.0000 10.0075 0.0000
# 2 21.5207 197.7749 71.9579 0.0000 4.5226 0.0000
# 3 15.6511 71.9579 188.5064 0.0000 8.2210 0.0000
# 4 0.0000 0.0000 0.0000 45.6956 0.0000 -0.1961
# 5 10.0075 4.5226 8.2210 0.0000 29.0786 0.0000
# 6 0.0000 0.0000 0.0000 -0.1961 0.0000 29.5752
#
#
#
# Elastic Compliance Matrix: (Units=1/GPa)
#
#
# Indices 1 2 3 4 5 6 
#
# 1 0.026174 -0.002321 -0.000921 0.000000 -0.008386 0.000000
# 2 -0.002321 0.006080 -0.002148 0.000000 0.000461 0.000000
# 3 -0.000921 -0.002148 0.006250 0.000000 -0.001116 0.000000
# 4 0.000000 0.000000 0.000000 0.021885 0.000000 0.000145
# 5 -0.008386 0.000461 -0.001116 0.000000 0.037519 0.000000
# 6 0.000000 0.000000 0.000000 0.000145 0.000000 0.033813
#
#
# Mechanical properties :
#
#
# Convention : Reuss Voigt Hill
#
# Bulk Modulus (GPa) = 36.07218 72.04590 54.05904
# Shear Modulus (GPa) = 32.95054 42.27150 37.61102
#
# Velocity S-wave (km/s) = 3.83407 4.34263 4.09625
# Velocity P-wave (km/s) = 5.97436 7.56877 6.81833
#
# Compressibility (1/GPa) = 0.02772219
#
# Stress axis : x y z
#
# Youngs Moduli (GPa) = 38.20650 164.47666 159.99864
#
# Poissons Ratio (x) = 0.38176 0.14742
# Poissons Ratio (y) = 0.08868 0.34371
# Poissons Ratio (z) = 0.03520 0.35333
#
# Static dielectric constant tensor:
#      x y z
#    x 1.925110 0.000000 0.002880 
#    y 0.000000 1.813590 0.000000 
#    z 0.002880 0.000000 1.875950 
# 
# From -- ./inp_files/144274.got.cif
#   From: 2010.05.17/outbox.cif.g08.bks.cpg/sg15_73_cif.got.tgz:144274.got - 2010.06.03 18:47:42.
