data_PCOD9281123
_publ_section_title
;
Structure prediction by ZEFSAII (Michael W. Deem and Ramdas Pophale) SiO2 
 PCOD9281123
Probable space group: C 2/C
;
_chemical_formula_sum "Si O2"
_cell_formula_units_Z 56
_cell_length_a 7.463019
_cell_length_b 12.431764
_cell_length_c 26.145706
_cell_angle_alpha 90.000000
_cell_angle_beta 110.343817
_cell_angle_gamma 90.000000
_cell_volume 2274.448396
_symmetry_space_group_name_H-M "C 2/C"
_symmetry_group_IT_number 15
_symmetry_cell_setting 'monoclinic'
loop_
_space_group_symop_operation_xyz
x,y,z
-x,y,1/2-z
-x,-y,-z
x,-y,1/2+z
1/2+x,1/2+y,z
1/2-x,1/2+y,1/2-z
1/2-x,1/2-y,-z
1/2+x,1/2-y,1/2+z
loop_
_atom_site_type_symbol
_atom_site_label
_atom_site_fract_x
_atom_site_fract_y
_atom_site_fract_z
Si Si1 0.046186 0.729315 0.550271
Si Si2 0.026881 0.723085 0.434636
Si Si3 0.000000 0.924051 0.750000
Si Si4 0.500000 0.827711 0.750000
Si Si5 0.519138 0.458749 0.920554
Si Si6 0.239314 0.989156 0.193445
Si Si7 0.182857 0.513855 0.965223
Si Si8 0.261151 0.754851 0.185252
O O1 0.974518 0.763499 0.486133
O O2 0.274590 0.724019 0.564763
O O3 0.999679 0.829400 0.581757
O O4 0.946379 0.618668 0.555156
O O5 0.069493 0.596915 0.446697
O O6 0.870536 0.741642 0.376890
O O7 0.084415 0.839478 0.798963
O O8 0.165934 0.996476 0.743818
O O9 0.364022 0.762429 0.775051
O O10 0.624259 0.907706 0.798879
O O11 0.452270 0.505644 0.860007
O O12 0.352873 0.504245 0.941212
O O13 0.716125 0.483946 0.968958
O O14 0.338040 0.876074 0.193100
#
# Coordination Sequence:
#
# PCOD9281123 Si02
#       8
#     8   8   4   4   8   8   8   8
#     4  10  21  38  58  88 135 169 206 260 312 390
#     4  10  23  37  60  95 125 168 216 254 324 393
#     4  10  26  46  68 100 120 162 230 262 336 390
#     4  10  22  46  64  92 124 158 218 270 328 382
#     4  10  23  37  60  95 125 168 216 254 324 393
#     4  11  24  43  69  93 127 167 210 275 324 383
#     4  10  21  38  58  88 135 169 206 260 312 390
#     4  11  24  43  69  93 127 167 210 275 324 383
#
# _framework density 24.621354
#
# number of rings (size 3 to 8) (size 9 to 14) (size 15 to 20)
#    0.000    1.714    0.000    3.429   10.000    2.286 
#    0.000    7.143    0.000    0.000    0.000    0.000 
#    0.000    0.000    0.000    0.000    0.000    0.000 
#
# Total GULP energy -156809.279304 kJ/mol
# GULP energy per Si atom -5600.331404 kJ/mol
# Density = 2.456531 g / cm^3
# Si number density = 24.621354 Si / 1000 Ang^3
#
#
#
# Elastic Constant Matrix: (Units=GPa)
#
#
# Indices 1 2 3 4 5 6 
#
# 1 64.4784 29.0893 4.6739 0.0000 0.0481 0.0000
# 2 29.0893 137.8151 13.8312 0.0000 12.9841 0.0000
# 3 4.6739 13.8312 93.5912 0.0000 28.3901 0.0000
# 4 0.0000 0.0000 0.0000 20.0224 0.0000 9.6587
# 5 0.0481 12.9841 28.3901 0.0000 35.0732 0.0000
# 6 0.0000 0.0000 0.0000 9.6587 0.0000 29.0065
#
#
#
# Elastic Compliance Matrix: (Units=1/GPa)
#
#
# Indices 1 2 3 4 5 6 
#
# 1 0.017269 -0.003751 -0.000957 0.000000 0.002140 0.000000
# 2 -0.003751 0.008342 -0.000146 0.000000 -0.002965 0.000000
# 3 -0.000957 -0.000146 0.014232 0.000000 -0.011465 0.000000
# 4 0.000000 0.000000 0.000000 0.059502 0.000000 -0.019813
# 5 0.002140 -0.002965 -0.011465 0.000000 0.038886 0.000000
# 6 0.000000 0.000000 0.000000 -0.019813 0.000000 0.041072
#
#
# Mechanical properties :
#
#
# Convention : Reuss Voigt Hill
#
# Bulk Modulus (GPa) = 33.18424 43.45260 38.31842
# Shear Modulus (GPa) = 25.11856 33.37312 29.24584
#
# Velocity S-wave (km/s) = 3.19751 3.68564 3.45022
# Velocity P-wave (km/s) = 5.20953 5.98319 5.60972
#
# Compressibility (1/GPa) = 0.03013479
#
# Stress axis : x y z
#
# Youngs Moduli (GPa) = 57.90758 119.87933 70.26484
#
# Poissons Ratio (x) = 0.44961 0.06725
# Poissons Ratio (y) = 0.21718 0.01027
# Poissons Ratio (z) = 0.05543 0.01752
#
# Static dielectric constant tensor:
#      x y z
#    x 1.957990 0.000000 -0.004890 
#    y 0.000000 1.939980 0.000000 
#    z -0.004890 0.000000 1.971350 
# 
# From -- ./inp_files/288090.got.cif
#   From: 2010.05.17/outbox.cif.g08.bks.cpg/sg15_145_cif.got.tgz:288090.got - 2010.06.03 18:47:42.
