data_PCOD9281089
_publ_section_title
;
Structure prediction by ZEFSAII (Michael W. Deem and Ramdas Pophale) SiO2 
 PCOD9281089
Probable space group: C 2/C
;
_chemical_formula_sum "Si O2"
_cell_formula_units_Z 44
_cell_length_a 6.298204
_cell_length_b 15.190049
_cell_length_c 22.547158
_cell_angle_alpha 90.000000
_cell_angle_beta 115.430091
_cell_angle_gamma 90.000000
_cell_volume 1948.086820
_symmetry_space_group_name_H-M "C 2/C"
_symmetry_group_IT_number 15
_symmetry_cell_setting 'monoclinic'
loop_
_space_group_symop_operation_xyz
x,y,z
-x,y,1/2-z
-x,-y,-z
x,-y,1/2+z
1/2+x,1/2+y,z
1/2-x,1/2+y,1/2-z
1/2-x,1/2-y,-z
1/2+x,1/2-y,1/2+z
loop_
_atom_site_type_symbol
_atom_site_label
_atom_site_fract_x
_atom_site_fract_y
_atom_site_fract_z
Si Si1 0.809605 0.267728 0.075841
Si Si2 0.215581 0.798427 0.313509
Si Si3 0.000000 0.591073 0.750000
Si Si4 0.360834 0.908075 0.920928
Si Si5 0.979766 0.975339 0.317473
Si Si6 0.245151 0.540884 0.958537
O O1 0.656544 0.195822 0.092938
O O2 0.749406 0.370007 0.079238
O O3 0.085630 0.250930 0.123668
O O4 0.750000 0.250000 0.000000
O O5 0.372709 0.847355 0.282389
O O6 0.099705 0.878556 0.337065
O O7 0.000000 0.755158 0.250000
O O8 0.792136 0.531432 0.699753
O O9 0.123783 0.954354 0.870858
O O10 0.573207 0.962601 0.918024
O O11 0.363829 0.924565 0.992064
O O12 0.000000 0.997011 0.250000
O O13 0.500000 0.500000 0.000000
#
# Coordination Sequence:
#
# PCOD9281089 Si02
#       6
#     8   8   4   8   8   8
#     4  10  21  39  60  88 124 155 203 256 312 364
#     4   9  18  37  60  81 120 158 197 252 306 365
#     4   8  18  32  60  90 102 158 206 238 298 376
#     4  10  21  38  58  83 119 157 189 255 308 356
#     4   9  18  34  59  81 115 151 195 245 301 363
#     4  10  22  38  61  84 114 155 202 246 306 373
#
# _framework density 22.586262999999999
#
# number of rings (size 3 to 8) (size 9 to 14) (size 15 to 20)
#    0.000    2.909    1.818    0.000    2.545    0.727 
#    3.273    7.273    0.000    0.000    0.000    0.000 
#    0.000    0.000    0.000    0.000    0.000    0.000 
#
# Total GULP energy -122706.150751 kJ/mol
# GULP energy per Si atom -5577.552307 kJ/mol
# Density = 2.253486 g / cm^3
# Si number density = 22.586263 Si / 1000 Ang^3
#
#
#
# Elastic Constant Matrix: (Units=GPa)
#
#
# Indices 1 2 3 4 5 6 
#
# 1 82.3480 38.3900 24.1053 0.0000 31.8001 0.0000
# 2 38.3900 135.6557 46.0219 0.0000 28.2437 0.0000
# 3 24.1053 46.0219 131.5809 0.0000 35.3242 0.0000
# 4 0.0000 0.0000 0.0000 24.3463 0.0000 1.2509
# 5 31.8001 28.2437 35.3242 0.0000 47.0350 0.0000
# 6 0.0000 0.0000 0.0000 1.2509 0.0000 16.0177
#
#
#
# Elastic Compliance Matrix: (Units=1/GPa)
#
#
# Indices 1 2 3 4 5 6 
#
# 1 0.017371 -0.002962 0.000663 0.000000 -0.010464 0.000000
# 2 -0.002962 0.009368 -0.002206 0.000000 -0.001965 0.000000
# 3 0.000663 -0.002206 0.010039 0.000000 -0.006663 0.000000
# 4 0.000000 0.000000 0.000000 0.041239 0.000000 -0.003221
# 5 -0.010464 -0.001965 -0.006663 0.000000 0.034519 0.000000
# 6 0.000000 0.000000 0.000000 -0.003221 0.000000 0.062683
#
#
# Mechanical properties :
#
#
# Convention : Reuss Voigt Hill
#
# Bulk Modulus (GPa) = 36.01484 62.95766 49.48625
# Shear Modulus (GPa) = 25.84176 33.55097 29.69636
#
# Velocity S-wave (km/s) = 3.38618 3.85835 3.62995
# Velocity P-wave (km/s) = 5.59181 6.91259 6.28698
#
# Compressibility (1/GPa) = 0.02776633
#
# Stress axis : x y z
#
# Youngs Moduli (GPa) = 57.56628 106.75143 99.61417
#
# Poissons Ratio (x) = 0.31623 -0.06602
# Poissons Ratio (y) = 0.17053 0.21976
# Poissons Ratio (z) = -0.03815 0.23550
#
# Static dielectric constant tensor:
#      x y z
#    x 1.814510 0.000000 0.006020 
#    y 0.000000 1.881720 0.000000 
#    z 0.006020 0.000000 1.879610 
# 
# From -- ./inp_files/260347.got.cif
#   From: 2010.05.17/outbox.cif.g08.bks.cpg/sg15_131_cif.got.tgz:260347.got - 2010.06.03 18:47:42.
