data_PCOD9281670
_publ_section_title
;
Structure prediction by ZEFSAII (Michael W. Deem and Ramdas Pophale) SiO2 
 PCOD9281670
Probable space group: C 2/C
;
_chemical_formula_sum "Si O2"
_cell_formula_units_Z 64
_cell_length_a 17.729167
_cell_length_b 15.139290
_cell_length_c 10.924588
_cell_angle_alpha 90.000000
_cell_angle_beta 83.107554
_cell_angle_gamma 90.000000
_cell_volume 2911.045135
_symmetry_space_group_name_H-M "C 2/C"
_symmetry_group_IT_number 15
_symmetry_cell_setting 'monoclinic'
loop_
_space_group_symop_operation_xyz
x,y,z
-x,y,1/2-z
-x,-y,-z
x,-y,1/2+z
1/2+x,1/2+y,z
1/2-x,1/2+y,1/2-z
1/2-x,1/2-y,-z
1/2+x,1/2-y,1/2+z
loop_
_atom_site_type_symbol
_atom_site_label
_atom_site_fract_x
_atom_site_fract_y
_atom_site_fract_z
Si Si1 0.617530 0.795561 0.277776
Si Si2 0.535999 0.902220 0.479895
Si Si3 0.715004 0.953413 0.233533
Si Si4 0.663199 0.706757 0.027234
Si Si5 0.700129 0.489547 0.540438
Si Si6 0.054614 0.259449 0.837616
Si Si7 0.300460 0.324915 0.561165
Si Si8 0.352489 0.895260 0.836189
O O1 0.447055 0.858334 0.154018
O O2 0.694649 0.853433 0.262513
O O3 0.633294 0.719090 0.373618
O O4 0.616432 0.759971 0.140447
O O5 0.489191 0.828906 0.565739
O O6 0.618341 0.906472 0.531808
O O7 0.500000 0.000000 0.500000
O O8 0.752846 0.963756 0.092412
O O9 0.756806 0.992268 0.341868
O O10 0.638910 0.011853 0.232775
O O11 0.659693 0.604185 0.068162
O O12 0.616551 0.711246 0.909370
O O13 0.750000 0.750000 0.000000
O O14 0.668705 0.588663 0.517171
O O15 0.100414 0.321354 0.737312
O O16 0.000000 0.208919 0.750000
O O17 0.250000 0.250000 0.500000
O O18 0.234458 0.366063 0.658296
#
# Coordination Sequence:
#
# PCOD9281670 Si02
#       8
#     8   8   8   8   8   8   8   8
#     4  12  23  39  68 103 145 189 237 310 369 443
#     4  11  24  41  63  97 137 199 236 283 360 452
#     4  11  21  36  63 101 140 183 228 295 367 436
#     4  12  24  42  69 105 138 184 248 318 373 430
#     4  11  23  39  63 103 144 181 236 303 375 442
#     4  10  24  43  62  92 139 193 237 289 359 447
#     4  11  20  39  66 102 139 184 238 300 375 444
#     4  10  21  38  63  94 141 181 243 284 353 448
#
# _framework density 21.985230999999999
#
# number of rings (size 3 to 8) (size 9 to 14) (size 15 to 20)
#    0.000    1.000    3.750    4.500    1.750    0.500 
#    0.000    0.000    0.000    0.750    0.000    0.000 
#    0.000    0.000    0.000    0.000    0.000    0.000 
#
# Total GULP energy -178207.940056 kJ/mol
# GULP energy per Si atom -5568.998127 kJ/mol
# Density = 2.193519 g / cm^3
# Si number density = 21.985231 Si / 1000 Ang^3
#
#
#
# Elastic Constant Matrix: (Units=GPa)
#
#
# Indices 1 2 3 4 5 6 
#
# 1 39.8609 18.2215 26.1259 0.0000 8.3425 0.0000
# 2 18.2215 106.2814 43.9365 0.0000 6.1051 0.0000
# 3 26.1259 43.9365 147.8220 0.0000 19.9330 0.0000
# 4 0.0000 0.0000 0.0000 45.2539 0.0000 1.3588
# 5 8.3425 6.1051 19.9330 0.0000 34.0169 0.0000
# 6 0.0000 0.0000 0.0000 1.3588 0.0000 24.8373
#
#
#
# Elastic Compliance Matrix: (Units=1/GPa)
#
#
# Indices 1 2 3 4 5 6 
#
# 1 0.029998 -0.003356 -0.003685 0.000000 -0.004596 0.000000
# 2 -0.003356 0.011103 -0.002768 0.000000 0.000452 0.000000
# 3 -0.003685 -0.002768 0.008741 0.000000 -0.003721 0.000000
# 4 0.000000 0.000000 0.000000 0.022134 0.000000 -0.001211
# 5 -0.004596 0.000452 -0.003721 0.000000 0.032624 0.000000
# 6 0.000000 0.000000 0.000000 -0.001211 0.000000 0.040328
#
#
# Mechanical properties :
#
#
# Convention : Reuss Voigt Hill
#
# Bulk Modulus (GPa) = 33.08571 52.28133 42.68352
# Shear Modulus (GPa) = 28.63381 34.53364 31.58373
#
# Velocity S-wave (km/s) = 3.61281 3.96759 3.79435
# Velocity P-wave (km/s) = 5.69955 6.69484 6.21714
#
# Compressibility (1/GPa) = 0.03022453
#
# Stress axis : x y z
#
# Youngs Moduli (GPa) = 33.33540 90.06927 114.40860
#
# Poissons Ratio (x) = 0.30226 0.42156
# Poissons Ratio (y) = 0.11187 0.31667
# Poissons Ratio (z) = 0.12283 0.24930
#
# Static dielectric constant tensor:
#      x y z
#    x 1.884200 0.000000 0.012560 
#    y 0.000000 1.978480 0.000000 
#    z 0.012560 0.000000 1.906610 
# 
# From -- ./inp_files/112753.got.cif
#   From: 2010.05.17/outbox.cif.g08.bks.cpg/sg15_57_cif.got.tgz:112753.got - 2010.06.03 18:47:42.
