data_PCOD9281771
_publ_section_title
;
Structure prediction by ZEFSAII (Michael W. Deem and Ramdas Pophale) SiO2 
 PCOD9281771
Probable space group: C 2/C
;
_chemical_formula_sum "Si O2"
_cell_formula_units_Z 60
_cell_length_a 17.316363
_cell_length_b 12.647923
_cell_length_c 26.385484
_cell_angle_alpha 90.000000
_cell_angle_beta 149.629010
_cell_angle_gamma 90.000000
_cell_volume 2921.766062
_symmetry_space_group_name_H-M "C 2/C"
_symmetry_group_IT_number 15
_symmetry_cell_setting 'monoclinic'
loop_
_space_group_symop_operation_xyz
x,y,z
-x,y,1/2-z
-x,-y,-z
x,-y,1/2+z
1/2+x,1/2+y,z
1/2-x,1/2+y,1/2-z
1/2-x,1/2-y,-z
1/2+x,1/2-y,1/2+z
loop_
_atom_site_type_symbol
_atom_site_label
_atom_site_fract_x
_atom_site_fract_y
_atom_site_fract_z
Si Si1 0.407138 0.411737 0.328271
Si Si2 0.500000 0.073795 0.750000
Si Si3 0.436775 0.611896 0.485292
Si Si4 0.783477 0.694771 0.223130
Si Si5 0.428568 0.397208 0.761838
Si Si6 0.284712 0.731924 0.903040
Si Si7 0.589270 0.983653 0.194899
Si Si8 0.024973 0.261530 0.394280
O O1 0.552739 0.399046 0.447948
O O2 0.370058 0.306224 0.275321
O O3 0.418659 0.509983 0.296802
O O4 0.261489 0.436915 0.282927
O O5 0.648454 0.147106 0.826140
O O6 0.488962 0.006512 0.794388
O O7 0.500000 0.500000 0.500000
O O8 0.283861 0.648245 0.368521
O O9 0.566987 0.695444 0.543804
O O10 0.886011 0.604253 0.307435
O O11 0.629958 0.715421 0.168372
O O12 0.500000 0.436717 0.750000
O O13 0.274848 0.338748 0.656581
O O14 0.526599 0.301345 0.842415
O O15 0.339422 0.736206 0.991644
O O16 0.490982 0.888052 0.116164
#
# Coordination Sequence:
#
# PCOD9281771 Si02
#       8
#     8   4   8   8   8   8   8   8
#     4  11  22  40  62  83 126 162 203 252 310 365
#     4  12  20  34  60  92 124 156 198 256 302 360
#     4  11  19  36  66  93 117 164 208 249 305 373
#     4  10  21  39  61  91 119 162 214 247 300 370
#     4  12  23  40  62  90 125 161 204 257 311 364
#     4  11  21  38  61  94 129 153 203 257 312 372
#     4  11  20  37  60  88 121 154 202 253 300 359
#     4  10  21  38  64  93 122 162 196 251 320 364
#
# _framework density 20.535525
#
# number of rings (size 3 to 8) (size 9 to 14) (size 15 to 20)
#    0.000    1.067    6.000    1.600    0.000    2.133 
#    3.600    2.000    0.000    0.800    0.000    0.000 
#    0.000    0.000    0.000    0.000    0.000    0.000 
#
# Total GULP energy -167182.652251 kJ/mol
# GULP energy per Si atom -5572.755075 kJ/mol
# Density = 2.048879 g / cm^3
# Si number density = 20.535525 Si / 1000 Ang^3
#
#
#
# Elastic Constant Matrix: (Units=GPa)
#
#
# Indices 1 2 3 4 5 6 
#
# 1 65.7564 10.8035 15.0699 0.0000 -16.2468 0.0000
# 2 10.8035 123.9543 32.0649 0.0001 -7.3626 0.0001
# 3 15.0699 32.0649 56.1419 0.0008 -25.5492 0.0003
# 4 0.0000 0.0001 0.0008 23.7645 0.0002 -6.6095
# 5 -16.2468 -7.3626 -25.5492 0.0002 29.1846 0.0000
# 6 0.0000 0.0001 0.0003 -6.6095 0.0000 22.7039
#
#
#
# Elastic Compliance Matrix: (Units=1/GPa)
#
#
# Indices 1 2 3 4 5 6 
#
# 1 0.017752 -0.001048 0.000350 0.000000 0.009924 0.000000
# 2 -0.001048 0.009802 -0.007409 0.000000 -0.004597 0.000000
# 3 0.000350 -0.007409 0.035219 -0.000002 0.029157 -0.000001
# 4 0.000000 0.000000 -0.000002 0.045787 -0.000002 0.013329
# 5 0.009924 -0.004597 0.029157 -0.000002 0.064155 -0.000001
# 6 0.000000 0.000000 -0.000001 0.013329 -0.000001 0.047926
#
#
# Mechanical properties :
#
#
# Convention : Reuss Voigt Hill
#
# Bulk Modulus (GPa) = 21.47859 40.19214 30.83536
# Shear Modulus (GPa) = 19.81185 27.65821 23.73503
#
# Velocity S-wave (km/s) = 3.10943 3.67392 3.40340
# Velocity P-wave (km/s) = 4.83460 6.13282 5.52199
#
# Compressibility (1/GPa) = 0.04655800
#
# Stress axis : x y z
#
# Youngs Moduli (GPa) = 56.33273 102.01551 28.39407
#
# Poissons Ratio (x) = 0.10694 -0.00994
# Poissons Ratio (y) = 0.05905 0.21037
# Poissons Ratio (z) = -0.01972 0.75584
#
# Static dielectric constant tensor:
#      x y z
#    x 1.773730 0.000000 -0.033350 
#    y 0.000000 1.744240 0.000000 
#    z -0.033350 0.000000 1.769170 
# 
# From -- ./inp_files/298969.got.cif
#   From: 2010.05.17/outbox.cif.g08.bks.cpg/sg15_150_cif.got.tgz:298969.got - 2010.06.03 18:47:42.
