data_PCOD9281443
_publ_section_title
;
Structure prediction by ZEFSAII (Michael W. Deem and Ramdas Pophale) SiO2 
 PCOD9281443
Probable space group: C 2/C
;
_chemical_formula_sum "Si O2"
_cell_formula_units_Z 52
_cell_length_a 18.509687
_cell_length_b 14.840942
_cell_length_c 8.323168
_cell_angle_alpha 90.000000
_cell_angle_beta 101.417542
_cell_angle_gamma 90.000000
_cell_volume 2241.138023
_symmetry_space_group_name_H-M "C 2/C"
_symmetry_group_IT_number 15
_symmetry_cell_setting 'monoclinic'
loop_
_space_group_symop_operation_xyz
x,y,z
-x,y,1/2-z
-x,-y,-z
x,-y,1/2+z
1/2+x,1/2+y,z
1/2-x,1/2+y,1/2-z
1/2-x,1/2-y,-z
1/2+x,1/2-y,1/2+z
loop_
_atom_site_type_symbol
_atom_site_label
_atom_site_fract_x
_atom_site_fract_y
_atom_site_fract_z
Si Si1 0.118807 0.780731 0.986114
Si Si2 0.195753 0.088316 0.742135
Si Si3 0.000000 0.642079 0.250000
Si Si4 0.790721 0.454566 0.579367
Si Si5 0.584205 0.425638 0.720755
Si Si6 0.876354 0.587482 0.422643
Si Si7 0.035165 0.187980 0.921711
O O1 0.164299 0.819997 0.155932
O O2 0.132947 0.675631 0.970600
O O3 0.032615 0.787349 0.992425
O O4 0.126655 0.851385 0.846474
O O5 0.244506 0.039276 0.627454
O O6 0.128932 0.017832 0.738810
O O7 0.242483 0.096648 0.925648
O O8 0.045562 0.590098 0.135522
O O9 0.056978 0.713787 0.361177
O O10 0.859922 0.498096 0.515555
O O11 0.816913 0.406249 0.752165
O O12 0.500000 0.435820 0.750000
O O13 0.582836 0.380902 0.543231
O O14 0.000000 0.142294 0.750000
#
# Coordination Sequence:
#
# PCOD9281443 Si02
#       7
#     8   8   4   8   8   8   8
#     4  10  21  38  63  89 126 170 209 253 313 377
#     4  11  22  40  58  93 129 172 212 251 302 374
#     4   8  18  40  68  96 118 148 214 274 310 376
#     4  10  24  42  60  85 131 163 213 270 301 373
#     4  10  21  38  61  96 135 174 202 250 314 370
#     4  10  22  45  65  91 120 161 211 268 328 367
#     4   8  18  34  58  98 130 154 205 261 299 371
#
# _framework density 23.202497000000001
#
# number of rings (size 3 to 8) (size 9 to 14) (size 15 to 20)
#    0.462    1.846    1.538    0.000    2.154    4.923 
#    5.538    0.000    1.692    0.000    0.000    0.000 
#    0.000    0.000    0.000    0.000    0.000    0.000 
#
# Total GULP energy -145114.075490 kJ/mol
# GULP energy per Si atom -5581.310596 kJ/mol
# Density = 2.314969 g / cm^3
# Si number density = 23.202497 Si / 1000 Ang^3
#
#
#
# Elastic Constant Matrix: (Units=GPa)
#
#
# Indices 1 2 3 4 5 6 
#
# 1 64.1304 15.3008 -5.7735 0.0000 -18.1749 0.0000
# 2 15.3008 51.3723 4.9385 0.0000 0.0837 0.0000
# 3 -5.7735 4.9385 78.3762 0.0000 4.4660 0.0000
# 4 0.0000 0.0000 0.0000 20.8742 0.0000 -0.4138
# 5 -18.1749 0.0837 4.4660 0.0000 31.3183 0.0000
# 6 0.0000 0.0000 0.0000 -0.4138 0.0000 -8.9962
#
#
#
# Elastic Compliance Matrix: (Units=1/GPa)
#
#
# Indices 1 2 3 4 5 6 
#
# 1 0.020527 -0.006252 0.001236 0.000000 0.011753 0.000000
# 2 -0.006252 0.021489 -0.001618 0.000000 -0.003455 0.000000
# 3 0.001236 -0.001618 0.013017 0.000000 -0.001134 0.000000
# 4 0.000000 0.000000 0.000000 0.047862 0.000000 -0.002201
# 5 0.011753 -0.003455 -0.001134 0.000000 0.038922 0.000000
# 6 0.000000 0.000000 0.000000 -0.002201 0.000000 -0.111057
#
#
# Mechanical properties :
#
#
# Convention : Reuss Voigt Hill
#
# Bulk Modulus (GPa) = 23.94280 24.75672 24.34976
# Shear Modulus (GPa) = 86.28481 20.60013 53.44247
#
# Velocity S-wave (km/s) = 6.10479 2.98290 4.80448
# Velocity P-wave (km/s) = 7.74808 4.74938 6.42609
#
# Compressibility (1/GPa) = 0.04176620
#
# Stress axis : x y z
#
# Youngs Moduli (GPa) = 48.71651 46.53556 76.82489
#
# Poissons Ratio (x) = 0.29093 -0.09498
# Poissons Ratio (y) = 0.30456 0.12428
# Poissons Ratio (z) = -0.06023 0.07528
#
# Static dielectric constant tensor:
#      x y z
#    x 1.957610 0.000000 -0.011510 
#    y 0.000000 1.852300 0.000000 
#    z -0.011510 0.000000 1.893150 
# 
# From -- ./inp_files/55383.got.cif
#   From: 2010.05.17/outbox.cif.g08.bks.cpg/sg15_28_cif.got.tgz:55383.got - 2010.06.03 18:47:42.
