data_PCOD9281815
_publ_section_title
;
Structure prediction by ZEFSAII (Michael W. Deem and Ramdas Pophale) SiO2 
 PCOD9281815
Probable space group: C 2/C
;
_chemical_formula_sum "Si O2"
_cell_formula_units_Z 32
_cell_length_a 4.929727
_cell_length_b 12.962938
_cell_length_c 18.377668
_cell_angle_alpha 90.000000
_cell_angle_beta 97.647610
_cell_angle_gamma 90.000000
_cell_volume 1163.955865
_symmetry_space_group_name_H-M "C 2/C"
_symmetry_group_IT_number 15
_symmetry_cell_setting 'monoclinic'
loop_
_space_group_symop_operation_xyz
x,y,z
-x,y,1/2-z
-x,-y,-z
x,-y,1/2+z
1/2+x,1/2+y,z
1/2-x,1/2+y,1/2-z
1/2-x,1/2-y,-z
1/2+x,1/2-y,1/2+z
loop_
_atom_site_type_symbol
_atom_site_label
_atom_site_fract_x
_atom_site_fract_y
_atom_site_fract_z
Si Si1 0.255368 0.966680 0.299661
Si Si2 0.507632 0.216246 0.463373
Si Si3 0.238722 0.699568 0.200986
Si Si4 0.228684 0.455223 0.032121
O O1 0.500000 0.970299 0.250000
O O2 0.314664 0.928289 0.382469
O O3 0.000000 0.913981 0.250000
O O4 0.159041 0.083976 0.314102
O O5 0.250000 0.250000 0.500000
O O6 0.411024 0.235417 0.377039
O O7 0.797299 0.172351 0.513723
O O8 0.452044 0.074623 0.469124
O O9 0.500000 0.751922 0.250000
O O10 0.000000 0.688743 0.250000
O O11 0.500000 0.500000 0.000000
#
# Coordination Sequence:
#
# PCOD9281815 Si02
#       4
#     8   8   8   8
#     4  10  21  38  64  98 130 167 226 290 343 404
#     4  12  26  44  66 102 141 181 229 285 353 427
#     4  10  21  39  66  94 128 175 228 279 341 421
#     4  12  24  42  70  98 133 176 233 286 349 413
#
# _framework density 27.492452
#
# number of rings (size 3 to 8) (size 9 to 14) (size 15 to 20)
#    0.000    1.000    2.500    4.500    7.000    0.000 
#    0.000    7.500    0.000    0.000    0.000    0.000 
#    0.000    0.000    0.000    0.000    0.000    0.000 
#
# Total GULP energy -89293.947334 kJ/mol
# GULP energy per Si atom -5580.871708 kJ/mol
# Density = 2.742988 g / cm^3
# Si number density = 27.492452 Si / 1000 Ang^3
#
#
#
# Elastic Constant Matrix: (Units=GPa)
#
#
# Indices 1 2 3 4 5 6 
#
# 1 224.3244 29.7456 142.0170 0.0000 25.9347 0.0000
# 2 29.7456 204.0390 40.2670 0.0000 20.7634 0.0000
# 3 142.0170 40.2670 270.2101 0.0000 7.9359 0.0000
# 4 0.0000 0.0000 0.0000 660.9228 0.0000 9.8049
# 5 25.9347 20.7634 7.9359 0.0000 52.1991 0.0000
# 6 0.0000 0.0000 0.0000 9.8049 0.0000 57.4535
#
#
#
# Elastic Compliance Matrix: (Units=1/GPa)
#
#
# Indices 1 2 3 4 5 6 
#
# 1 0.007114 -0.000014 -0.003650 0.000000 -0.002974 0.000000
# 2 -0.000014 0.005245 -0.000716 0.000000 -0.001970 0.000000
# 3 -0.003650 -0.000716 0.005689 0.000000 0.001233 0.000000
# 4 0.000000 0.000000 0.000000 0.001517 0.000000 -0.000259
# 5 -0.002974 -0.001970 0.001233 0.000000 0.021231 0.000000
# 6 0.000000 0.000000 0.000000 -0.000259 0.000000 0.017450
#
#
# Mechanical properties :
#
#
# Convention : Reuss Voigt Hill
#
# Bulk Modulus (GPa) = 107.66111 124.73698 116.19905
# Shear Modulus (GPa) = 71.32431 186.55134 128.93783
#
# Velocity S-wave (km/s) = 5.09898 8.24638 6.85574
# Velocity P-wave (km/s) = 8.59717 11.66791 10.24821
#
# Compressibility (1/GPa) = 0.00928841
#
# Stress axis : x y z
#
# Youngs Moduli (GPa) = 140.56756 190.65928 175.76362
#
# Poissons Ratio (x) = 0.00271 0.64145
# Poissons Ratio (y) = 0.00200 0.12589
# Poissons Ratio (z) = 0.51300 0.13656
#
# Static dielectric constant tensor:
#      x y z
#    x 2.037340 0.000000 0.106270 
#    y 0.000000 2.800000 0.000000 
#    z 0.106270 0.000000 1.806010 
# 
# From -- ./inp_files/184029.got.cif
#   From: 2010.05.17/outbox.cif.g08.bks.cpg/sg15_93_cif.got.tgz:184029.got - 2010.06.03 18:47:42.
