data_PCOD9281972
_publ_section_title
;
Structure prediction by ZEFSAII (Michael W. Deem and Ramdas Pophale) SiO2 
 PCOD9281972
Probable space group: C 2/C
;
_chemical_formula_sum "Si O2"
_cell_formula_units_Z 40
_cell_length_a 16.127852
_cell_length_b 10.764419
_cell_length_c 9.270898
_cell_angle_alpha 90.000000
_cell_angle_beta 94.462261
_cell_angle_gamma 90.000000
_cell_volume 1604.613686
_symmetry_space_group_name_H-M "C 2/C"
_symmetry_group_IT_number 15
_symmetry_cell_setting 'monoclinic'
loop_
_space_group_symop_operation_xyz
x,y,z
-x,y,1/2-z
-x,-y,-z
x,-y,1/2+z
1/2+x,1/2+y,z
1/2-x,1/2+y,1/2-z
1/2-x,1/2-y,-z
1/2+x,1/2-y,1/2+z
loop_
_atom_site_type_symbol
_atom_site_label
_atom_site_fract_x
_atom_site_fract_y
_atom_site_fract_z
Si Si1 0.464939 0.797958 0.026322
Si Si2 0.443318 0.565714 0.376984
Si Si3 0.844904 0.407508 0.248547
Si Si4 0.162938 0.844647 0.196085
Si Si5 0.617844 0.144745 0.413626
O O1 0.394749 0.724098 0.928693
O O2 0.542497 0.709463 0.086175
O O3 0.419091 0.855875 0.156631
O O4 0.518168 0.877424 0.919407
O O5 0.500000 0.543269 0.250000
O O6 0.500000 0.500000 0.500000
O O7 0.359980 0.491169 0.330526
O O8 0.761074 0.336258 0.190870
O O9 0.847643 0.394791 0.423123
O O10 0.843668 0.550913 0.199125
O O11 0.137843 0.781016 0.346222
#
# Coordination Sequence:
#
# PCOD9281972 Si02
#       5
#     8   8   8   8   8
#     4  11  24  46  73 105 144 191 243 295 359 441
#     4  10  21  38  66  98 134 179 231 286 348 418
#     4  12  27  45  72 107 146 191 242 303 364 425
#     4  11  25  46  72 105 142 188 245 308 362 423
#     4  12  26  47  72 105 147 195 242 296 363 439
#
# _framework density 24.92812
#
# number of rings (size 3 to 8) (size 9 to 14) (size 15 to 20)
#    0.000    0.800    0.000    7.800    0.000    9.600 
#    0.000    0.000    0.000    0.000    0.000    0.000 
#    0.000    0.000    0.000    0.000    0.000    0.000 
#
# Total GULP energy -111555.927108 kJ/mol
# GULP energy per Si atom -5577.796355 kJ/mol
# Density = 2.487138 g / cm^3
# Si number density = 24.928120 Si / 1000 Ang^3
#
#
#
# Elastic Constant Matrix: (Units=GPa)
#
#
# Indices 1 2 3 4 5 6 
#
# 1 127.7042 38.7441 32.9137 0.0000 -7.8906 0.0000
# 2 38.7441 82.6608 43.5021 0.0000 3.5905 0.0000
# 3 32.9137 43.5021 152.3627 0.0000 2.7766 0.0000
# 4 0.0000 0.0000 0.0000 54.6865 0.0000 -17.2506
# 5 -7.8906 3.5905 2.7766 0.0000 31.2652 0.0000
# 6 0.0000 0.0000 0.0000 -17.2506 0.0000 41.1970
#
#
#
# Elastic Compliance Matrix: (Units=1/GPa)
#
#
# Indices 1 2 3 4 5 6 
#
# 1 0.009494 -0.004084 -0.000939 0.000000 0.002948 0.000000
# 2 -0.004084 0.016045 -0.003652 0.000000 -0.002549 0.000000
# 3 -0.000939 -0.003652 0.007818 0.000000 -0.000512 0.000000
# 4 0.000000 0.000000 0.000000 0.021069 0.000000 0.008822
# 5 0.002948 -0.002549 -0.000512 0.000000 0.033067 0.000000
# 6 0.000000 0.000000 0.000000 0.008822 0.000000 0.027968
#
#
# Mechanical properties :
#
#
# Convention : Reuss Voigt Hill
#
# Bulk Modulus (GPa) = 62.47320 65.89415 64.18368
# Shear Modulus (GPa) = 36.19379 41.93427 39.06403
#
# Velocity S-wave (km/s) = 3.81455 4.10592 3.96291
# Velocity P-wave (km/s) = 6.67209 6.99780 6.83688
#
# Compressibility (1/GPa) = 0.01600686
#
# Stress axis : x y z
#
# Youngs Moduli (GPa) = 105.33320 62.32598 127.90725
#
# Poissons Ratio (x) = 0.25454 0.12005
# Poissons Ratio (y) = 0.43017 0.46716
# Poissons Ratio (z) = 0.09886 0.22764
#
# Static dielectric constant tensor:
#      x y z
#    x 1.887420 0.000000 0.020030 
#    y 0.000000 2.015590 0.000000 
#    z 0.020030 0.000000 1.993570 
# 
# From -- ./inp_files/46176.got.cif
#   From: 2010.05.17/outbox.cif.g08.bks.cpg/sg15_24_cif.got.tgz:46176.got - 2010.06.03 18:47:42.
