data_PCOD9281583
_publ_section_title
;
Structure prediction by ZEFSAII (Michael W. Deem and Ramdas Pophale) SiO2 
 PCOD9281583
Probable space group: C 2/C
;
_chemical_formula_sum "Si O2"
_cell_formula_units_Z 60
_cell_length_a 7.201720
_cell_length_b 13.427549
_cell_length_c 23.831967
_cell_angle_alpha 90.000000
_cell_angle_beta 94.653547
_cell_angle_gamma 90.000000
_cell_volume 2296.988636
_symmetry_space_group_name_H-M "C 2/C"
_symmetry_group_IT_number 15
_symmetry_cell_setting 'monoclinic'
loop_
_space_group_symop_operation_xyz
x,y,z
-x,y,1/2-z
-x,-y,-z
x,-y,1/2+z
1/2+x,1/2+y,z
1/2-x,1/2+y,1/2-z
1/2-x,1/2-y,-z
1/2+x,1/2-y,1/2+z
loop_
_atom_site_type_symbol
_atom_site_label
_atom_site_fract_x
_atom_site_fract_y
_atom_site_fract_z
Si Si1 0.451291 0.578150 0.951108
Si Si2 0.535041 0.481409 0.835549
Si Si3 0.837455 0.825945 0.278748
Si Si4 0.500000 0.069908 0.750000
Si Si5 0.594403 0.720020 0.370647
Si Si6 0.044988 0.451161 0.648500
Si Si7 0.507348 0.109734 0.942955
Si Si8 0.477337 0.193261 0.438170
O O1 0.520981 0.525642 0.897035
O O2 0.229377 0.592566 0.945880
O O3 0.524056 0.692069 0.952306
O O4 0.500000 0.500000 0.000000
O O5 0.439265 0.571875 0.800731
O O6 0.470685 0.366812 0.840253
O O7 0.745764 0.452735 0.821670
O O8 0.667926 0.859313 0.234941
O O9 0.727754 0.774579 0.327784
O O10 0.000000 0.766986 0.250000
O O11 0.435076 0.004608 0.695468
O O12 0.470003 0.795685 0.402638
O O13 0.751203 0.684616 0.421034
O O14 0.956920 0.352253 0.619648
O O15 0.069159 0.517613 0.593318
O O16 0.458557 0.131061 0.005946
#
# Coordination Sequence:
#
# PCOD9281583 Si02
#       8
#     8   8   8   4   8   8   8   8
#     4  11  20  38  67  96 136 186 238 292 361 447
#     4  11  22  43  68 101 138 184 244 299 374 452
#     4  12  24  48  76 101 147 192 250 316 377 448
#     4  12  24  46  74 106 142 194 248 310 374 446
#     4  10  21  42  70 102 137 185 247 300 372 450
#     4  11  23  41  65  96 143 186 239 308 369 436
#     4  11  20  40  67  98 144 187 237 307 365 441
#     4  10  21  38  63 103 141 188 240 298 377 445
#
# _framework density 26.121157
#
# number of rings (size 3 to 8) (size 9 to 14) (size 15 to 20)
#    0.000    1.067    5.333    4.400    0.000    0.000 
#    6.000    5.333    5.867    0.000    0.000    0.000 
#    0.000    0.000    0.000    0.000    0.000    0.000 
#
# Total GULP energy -167516.974990 kJ/mol
# GULP energy per Si atom -5583.899166 kJ/mol
# Density = 2.606170 g / cm^3
# Si number density = 26.121157 Si / 1000 Ang^3
#
#
#
# Elastic Constant Matrix: (Units=GPa)
#
#
# Indices 1 2 3 4 5 6 
#
# 1 72.1697 -1.6679 1.4057 0.0000 -10.9243 0.0000
# 2 -1.6679 115.5358 30.9923 0.0000 10.8873 0.0000
# 3 1.4057 30.9923 127.5333 0.0000 -8.4714 0.0000
# 4 0.0000 0.0000 0.0000 42.5581 0.0000 -3.8715
# 5 -10.9243 10.8873 -8.4714 0.0000 23.5005 0.0000
# 6 0.0000 0.0000 0.0000 -3.8715 0.0000 41.1810
#
#
#
# Elastic Compliance Matrix: (Units=1/GPa)
#
#
# Indices 1 2 3 4 5 6 
#
# 1 0.014954 -0.000609 0.000475 0.000000 0.007405 0.000000
# 2 -0.000609 0.009956 -0.002805 0.000000 -0.005907 0.000000
# 3 0.000475 -0.002805 0.008830 0.000000 0.004703 0.000000
# 4 0.000000 0.000000 0.000000 0.023700 0.000000 0.002228
# 5 0.007405 -0.005907 0.004703 0.000000 0.050426 0.000000
# 6 0.000000 0.000000 0.000000 0.002228 0.000000 0.024493
#
#
# Mechanical properties :
#
#
# Convention : Reuss Voigt Hill
#
# Bulk Modulus (GPa) = 35.89268 41.85547 38.87408
# Shear Modulus (GPa) = 33.89290 40.41516 37.15403
#
# Velocity S-wave (km/s) = 3.60603 3.93774 3.77553
# Velocity P-wave (km/s) = 5.57751 6.06075 5.82415
#
# Compressibility (1/GPa) = 0.02786083
#
# Stress axis : x y z
#
# Youngs Moduli (GPa) = 66.87275 100.44638 113.25135
#
# Poissons Ratio (x) = 0.06121 -0.05381
# Poissons Ratio (y) = 0.04075 0.31767
# Poissons Ratio (z) = -0.03177 0.28175
#
# Static dielectric constant tensor:
#      x y z
#    x 2.106330 0.000000 -0.012750 
#    y 0.000000 2.213830 0.000000 
#    z -0.012750 0.000000 2.162540 
# 
# From -- ./inp_files/264342.got.cif
#   From: 2010.05.17/outbox.cif.g08.bks.cpg/sg15_133_cif.got.tgz:264342.got - 2010.06.03 18:47:42.
