data_PCOD9281741
_publ_section_title
;
Structure prediction by ZEFSAII (Michael W. Deem and Ramdas Pophale) SiO2 
 PCOD9281741
Probable space group: C 2/C
;
_chemical_formula_sum "Si O2"
_cell_formula_units_Z 64
_cell_length_a 17.123546
_cell_length_b 13.727836
_cell_length_c 14.947241
_cell_angle_alpha 90.000000
_cell_angle_beta 130.268766
_cell_angle_gamma 90.000000
_cell_volume 2680.977713
_symmetry_space_group_name_H-M "C 2/C"
_symmetry_group_IT_number 15
_symmetry_cell_setting 'monoclinic'
loop_
_space_group_symop_operation_xyz
x,y,z
-x,y,1/2-z
-x,-y,-z
x,-y,1/2+z
1/2+x,1/2+y,z
1/2-x,1/2+y,1/2-z
1/2-x,1/2-y,-z
1/2+x,1/2-y,1/2+z
loop_
_atom_site_type_symbol
_atom_site_label
_atom_site_fract_x
_atom_site_fract_y
_atom_site_fract_z
Si Si1 0.736465 0.138404 0.865869
Si Si2 0.616860 0.174225 0.321103
Si Si3 0.386296 0.461593 0.914651
Si Si4 0.353850 0.097241 0.875631
Si Si5 0.835664 0.125265 0.546237
Si Si6 0.439143 0.886886 0.904714
Si Si7 0.674891 0.477279 0.827444
Si Si8 0.838592 0.671947 0.509381
O O1 0.802607 0.041673 0.889082
O O2 0.682660 0.165121 0.732045
O O3 0.814699 0.217199 0.965018
O O4 0.648209 0.141118 0.877577
O O5 0.500000 0.138086 0.250000
O O6 0.713127 0.118164 0.435839
O O7 0.631910 0.281269 0.373128
O O8 0.622164 0.171490 0.216415
O O9 0.379654 0.372885 0.978723
O O10 0.369705 0.441587 0.798410
O O11 0.500000 0.500000 0.000000
O O12 0.403221 0.998976 0.867728
O O13 0.254765 0.061108 0.855197
O O14 0.439598 0.130354 0.009072
O O15 0.879916 0.031584 0.631684
O O16 0.416082 0.862731 0.991028
O O17 0.736057 0.387529 0.911135
#
# Coordination Sequence:
#
# PCOD9281741 Si02
#       8
#     8   8   8   8   8   8   8   8
#     4  10  21  41  62  93 126 175 218 275 331 391
#     4  11  25  41  67 102 139 174 225 286 346 413
#     4  11  25  44  68  96 134 183 231 278 338 412
#     4   9  20  39  64  93 131 166 219 263 342 396
#     4  11  24  44  67  99 139 181 227 281 352 405
#     4  10  21  39  62 101 125 170 214 273 332 410
#     4  10  21  41  66  91 125 179 215 277 333 404
#     4  10  21  38  64  89 130 167 219 273 327 391
#
# _framework density 23.871887000000001
#
# number of rings (size 3 to 8) (size 9 to 14) (size 15 to 20)
#    0.000    1.750    1.250    3.000    5.250    0.500 
#    4.500    0.000    0.000    0.000    0.000    0.000 
#    0.000    0.000    0.000    0.000    0.000    0.000 
#
# Total GULP energy -178486.604332 kJ/mol
# GULP energy per Si atom -5577.706385 kJ/mol
# Density = 2.381755 g / cm^3
# Si number density = 23.871887 Si / 1000 Ang^3
#
#
#
# Elastic Constant Matrix: (Units=GPa)
#
#
# Indices 1 2 3 4 5 6 
#
# 1 62.0416 -6.9374 29.0798 0.0000 -3.7720 0.0000
# 2 -6.9374 25.7934 7.5023 0.0000 -6.4691 0.0000
# 3 29.0798 7.5023 138.3624 0.0000 -28.6438 0.0000
# 4 0.0000 0.0000 0.0000 30.3113 0.0000 -13.0286
# 5 -3.7720 -6.4691 -28.6438 0.0000 32.8579 0.0000
# 6 0.0000 0.0000 0.0000 -13.0286 0.0000 25.8442
#
#
#
# Elastic Compliance Matrix: (Units=1/GPa)
#
#
# Indices 1 2 3 4 5 6 
#
# 1 0.018846 0.006237 -0.004389 0.000000 -0.000435 0.000000
# 2 0.006237 0.042898 -0.002123 0.000000 0.007311 0.000000
# 3 -0.004389 -0.002123 0.009852 0.000000 0.007667 0.000000
# 4 0.000000 0.000000 0.000000 0.042117 0.000000 0.021232
# 5 -0.000435 0.007311 0.007667 0.000000 0.038507 0.000000
# 6 0.000000 0.000000 0.000000 0.021232 0.000000 0.049397
#
#
# Mechanical properties :
#
#
# Convention : Reuss Voigt Hill
#
# Bulk Modulus (GPa) = 14.07562 31.72075 22.89819
# Shear Modulus (GPa) = 22.13847 30.90619 26.52233
#
# Velocity S-wave (km/s) = 3.04861 3.60205 3.33682
# Velocity P-wave (km/s) = 4.27798 5.53322 4.94558
#
# Compressibility (1/GPa) = 0.07104483
#
# Stress axis : x y z
#
# Youngs Moduli (GPa) = 53.06052 23.31106 101.50052
#
# Poissons Ratio (x) = -0.14538 0.44550
# Poissons Ratio (y) = -0.33091 0.21551
# Poissons Ratio (z) = 0.23289 0.04950
#
# Static dielectric constant tensor:
#      x y z
#    x 1.968690 0.000000 0.045160 
#    y 0.000000 1.916630 0.000000 
#    z 0.045160 0.000000 1.818210 
# 
# From -- ./inp_files/162567.got.cif
#   From: 2010.05.17/outbox.cif.g08.bks.cpg/sg15_82_cif.got.tgz:162567.got - 2010.06.03 18:47:42.
