data_PCOD9281046
_publ_section_title
;
Structure prediction by ZEFSAII (Michael W. Deem and Ramdas Pophale) SiO2 
 PCOD9281046
Probable space group: C 2/C
;
_chemical_formula_sum "Si O2"
_cell_formula_units_Z 64
_cell_length_a 27.826376
_cell_length_b 8.310025
_cell_length_c 14.058303
_cell_angle_alpha 90.000000
_cell_angle_beta 83.024321
_cell_angle_gamma 90.000000
_cell_volume 3226.749002
_symmetry_space_group_name_H-M "C 2/C"
_symmetry_group_IT_number 15
_symmetry_cell_setting 'monoclinic'
loop_
_space_group_symop_operation_xyz
x,y,z
-x,y,1/2-z
-x,-y,-z
x,-y,1/2+z
1/2+x,1/2+y,z
1/2-x,1/2+y,1/2-z
1/2-x,1/2-y,-z
1/2+x,1/2-y,1/2+z
loop_
_atom_site_type_symbol
_atom_site_label
_atom_site_fract_x
_atom_site_fract_y
_atom_site_fract_z
Si Si1 0.688481 0.852783 0.920748
Si Si2 0.473093 0.919021 0.915110
Si Si3 0.292099 0.779987 0.392484
Si Si4 0.611618 0.872440 0.424286
Si Si5 0.348895 0.299477 0.264630
Si Si6 0.736357 0.851660 0.595946
Si Si7 0.061172 0.589889 0.274548
Si Si8 0.830180 0.847476 0.705859
O O1 0.746865 0.842169 0.892098
O O2 0.667481 0.767639 0.833782
O O3 0.659520 0.020607 0.937152
O O4 0.679151 0.747464 0.017723
O O5 0.453108 0.000816 0.821215
O O6 0.517351 0.832195 0.848073
O O7 0.425301 0.853552 0.979479
O O8 0.500000 0.000000 0.000000
O O9 0.323267 0.783749 0.290438
O O10 0.272340 0.958965 0.417083
O O11 0.629648 0.704518 0.378592
O O12 0.585841 0.968200 0.343534
O O13 0.311756 0.226522 0.349030
O O14 0.402178 0.229334 0.265665
O O15 0.342760 0.489499 0.257133
O O16 0.750000 0.750000 0.500000
O O17 0.779643 0.848633 0.661979
#
# Coordination Sequence:
#
# PCOD9281046 Si02
#       8
#     8   8   8   8   8   8   8   8
#     4  10  21  38  57  83 118 161 210 251 299 344
#     4   9  19  40  67  96 114 149 199 258 316 377
#     4  11  23  38  58  80 125 172 213 248 299 350
#     4  10  22  36  64  92 121 156 209 256 301 370
#     4  11  24  40  58  88 125 165 208 252 305 367
#     4  12  25  38  59  86 126 175 213 252 294 356
#     4   9  20  40  66  88 122 154 199 255 318 367
#     4  12  24  38  57  89 130 165 209 249 299 363
#
# _framework density 19.834202999999999
#
# number of rings (size 3 to 8) (size 9 to 14) (size 15 to 20)
#    0.000    1.500    2.500    2.250   10.500    0.000 
#    0.000    0.625    0.000    6.000    0.000    0.000 
#    0.000    0.000    0.000    0.000    0.000    0.000 
#
# Total GULP energy -178169.317928 kJ/mol
# GULP energy per Si atom -5567.791185 kJ/mol
# Density = 1.978906 g / cm^3
# Si number density = 19.834203 Si / 1000 Ang^3
#
#
#
# Elastic Constant Matrix: (Units=GPa)
#
#
# Indices 1 2 3 4 5 6 
#
# 1 79.7408 27.7605 51.6898 0.0000 -25.1048 0.0000
# 2 27.7605 59.6609 20.8738 0.0000 -18.0432 0.0000
# 3 51.6898 20.8738 151.7820 0.0000 -11.6471 0.0000
# 4 0.0000 0.0000 0.0000 22.8257 0.0000 -1.5124
# 5 -25.1048 -18.0432 -11.6471 0.0000 42.5293 0.0000
# 6 0.0000 0.0000 0.0000 -1.5124 0.0000 11.5490
#
#
#
# Elastic Compliance Matrix: (Units=1/GPa)
#
#
# Indices 1 2 3 4 5 6 
#
# 1 0.020663 -0.005055 -0.005690 0.000000 0.008494 0.000000
# 2 -0.005055 0.021118 -0.000740 0.000000 0.005773 0.000000
# 3 -0.005690 -0.000740 0.008525 0.000000 -0.001338 0.000000
# 4 0.000000 0.000000 0.000000 0.044194 0.000000 0.005788
# 5 0.008494 0.005773 -0.001338 0.000000 0.030610 0.000000
# 6 0.000000 0.000000 0.000000 0.005788 0.000000 0.087346
#
#
# Mechanical properties :
#
#
# Convention : Reuss Voigt Hill
#
# Bulk Modulus (GPa) = 36.58011 54.64799 45.61405
# Shear Modulus (GPa) = 20.44676 28.10478 24.27577
#
# Velocity S-wave (km/s) = 3.21422 3.76837 3.50227
# Velocity P-wave (km/s) = 5.67961 6.82249 6.27711
#
# Compressibility (1/GPa) = 0.02733726
#
# Stress axis : x y z
#
# Youngs Moduli (GPa) = 48.39567 47.35243 117.29965
#
# Poissons Ratio (x) = 0.23936 0.66742
# Poissons Ratio (y) = 0.24464 0.08678
# Poissons Ratio (z) = 0.27536 0.03503
#
# Static dielectric constant tensor:
#      x y z
#    x 1.795590 0.000000 0.041090 
#    y 0.000000 1.701020 0.000000 
#    z 0.041090 0.000000 1.764670 
# 
# From -- ./inp_files/176585.got.cif
#   From: 2010.05.17/outbox.cif.g08.bks.cpg/sg15_89_cif.got.tgz:176585.got - 2010.06.03 18:47:42.
