data_PCOD9281605
_publ_section_title
;
Structure prediction by ZEFSAII (Michael W. Deem and Ramdas Pophale) SiO2 
 PCOD9281605
Probable space group: C 2/C
;
_chemical_formula_sum "Si O2"
_cell_formula_units_Z 48
_cell_length_a 23.387380
_cell_length_b 20.624823
_cell_length_c 16.019827
_cell_angle_alpha 90.000000
_cell_angle_beta 161.163575
_cell_angle_gamma 90.000000
_cell_volume 2494.904273
_symmetry_space_group_name_H-M "C 2/C"
_symmetry_group_IT_number 15
_symmetry_cell_setting 'monoclinic'
loop_
_space_group_symop_operation_xyz
x,y,z
-x,y,1/2-z
-x,-y,-z
x,-y,1/2+z
1/2+x,1/2+y,z
1/2-x,1/2+y,1/2-z
1/2-x,1/2-y,-z
1/2+x,1/2-y,1/2+z
loop_
_atom_site_type_symbol
_atom_site_label
_atom_site_fract_x
_atom_site_fract_y
_atom_site_fract_z
Si Si1 0.000000 0.986621 0.250000
Si Si2 0.552608 0.713070 0.503955
Si Si3 0.229171 0.380012 0.815624
Si Si4 0.493329 0.848539 0.142660
Si Si5 0.000000 0.770616 0.250000
Si Si6 0.966803 0.299038 0.544973
Si Si7 0.881330 0.111743 0.161644
O O1 0.158448 0.941916 0.502296
O O2 0.929710 0.035935 0.224117
O O3 0.513336 0.771780 0.385350
O O4 0.759306 0.695395 0.779772
O O5 0.499197 0.744235 0.518805
O O6 0.436898 0.651014 0.320103
O O7 0.165084 0.378350 0.631443
O O8 0.055728 0.363971 0.631493
O O9 0.353843 0.318010 0.008115
O O10 0.500000 0.861274 0.250000
O O11 0.677351 0.876056 0.361573
O O12 0.938988 0.724607 0.240529
O O13 0.000000 0.140095 0.250000
#
# Coordination Sequence:
#
# PCOD9281605 Si02
#       7
#     4   8   8   8   4   8   8
#     4   9  24  44  64  86 124 183 218 250 304 379
#     4  11  21  36  60 100 128 156 202 266 325 374
#     4  10  22  40  64  86 129 172 206 257 313 377
#     4  11  21  37  63  94 128 159 201 271 328 366
#     4  11  20  40  62  96 126 165 210 258 330 373
#     4  11  21  36  64  97 126 165 199 265 325 375
#     4  10  21  38  63  89 120 171 211 253 309 375
#
# _framework density 19.239215000000002
#
# number of rings (size 3 to 8) (size 9 to 14) (size 15 to 20)
#    0.500    1.000    3.333    4.500    0.000    0.667 
#    0.000    0.833    1.833    0.000    0.000    0.000 
#    0.000    0.000    0.000    0.000    0.000    0.000 
#
# Total GULP energy -133855.457333 kJ/mol
# GULP energy per Si atom -5577.310722 kJ/mol
# Density = 1.919543 g / cm^3
# Si number density = 19.239215 Si / 1000 Ang^3
#
#
#
# Elastic Constant Matrix: (Units=GPa)
#
#
# Indices 1 2 3 4 5 6 
#
# 1 83.4426 17.0000 41.6495 0.0000 -22.0781 0.0000
# 2 17.0000 109.2120 45.7813 0.0000 -16.1390 0.0000
# 3 41.6495 45.7813 121.9904 0.0000 -13.9698 0.0000
# 4 0.0000 0.0000 0.0000 14.4890 0.0000 7.8346
# 5 -22.0781 -16.1390 -13.9698 0.0000 30.8630 0.0000
# 6 0.0000 0.0000 0.0000 7.8346 0.0000 13.1853
#
#
#
# Elastic Compliance Matrix: (Units=1/GPa)
#
#
# Indices 1 2 3 4 5 6 
#
# 1 0.017038 0.000983 -0.004990 0.000000 0.010444 0.000000
# 2 0.000983 0.011424 -0.004069 0.000000 0.004835 0.000000
# 3 -0.004990 -0.004069 0.011365 0.000000 -0.000553 0.000000
# 4 0.000000 0.000000 0.000000 0.101691 0.000000 -0.060424
# 5 0.010444 0.004835 -0.000553 0.000000 0.042150 0.000000
# 6 0.000000 0.000000 0.000000 -0.060424 0.000000 0.111746
#
#
# Mechanical properties :
#
#
# Convention : Reuss Voigt Hill
#
# Bulk Modulus (GPa) = 42.23996 58.16741 50.20368
# Shear Modulus (GPa) = 15.65157 25.72175 20.68666
#
# Velocity S-wave (km/s) = 2.85533 3.66039 3.28263
# Velocity P-wave (km/s) = 5.73353 6.94003 6.36543
#
# Compressibility (1/GPa) = 0.02367427
#
# Stress axis : x y z
#
# Youngs Moduli (GPa) = 58.69236 87.53695 87.99148
#
# Poissons Ratio (x) = -0.08605 0.43908
# Poissons Ratio (y) = -0.05769 0.35804
# Poissons Ratio (z) = 0.29287 0.35620
#
# Static dielectric constant tensor:
#      x y z
#    x 1.706020 0.000000 0.004250 
#    y 0.000000 1.648110 0.000000 
#    z 0.004250 0.000000 1.732710 
# 
# From -- ./inp_files/169729.got.cif
#   From: 2010.05.17/outbox.cif.g08.bks.cpg/sg15_85_cif.got.tgz:169729.got - 2010.06.03 18:47:42.
