data_PCOD9281203
_publ_section_title
;
Structure prediction by ZEFSAII (Michael W. Deem and Ramdas Pophale) SiO2 
 PCOD9281203
Probable space group: C 2/C
;
_chemical_formula_sum "Si O2"
_cell_formula_units_Z 56
_cell_length_a 8.653457
_cell_length_b 21.527475
_cell_length_c 27.929434
_cell_angle_alpha 90.000000
_cell_angle_beta 148.493718
_cell_angle_gamma 90.000000
_cell_volume 2718.990335
_symmetry_space_group_name_H-M "C 2/C"
_symmetry_group_IT_number 15
_symmetry_cell_setting 'monoclinic'
loop_
_space_group_symop_operation_xyz
x,y,z
-x,y,1/2-z
-x,-y,-z
x,-y,1/2+z
1/2+x,1/2+y,z
1/2-x,1/2+y,1/2-z
1/2-x,1/2-y,-z
1/2+x,1/2-y,1/2+z
loop_
_atom_site_type_symbol
_atom_site_label
_atom_site_fract_x
_atom_site_fract_y
_atom_site_fract_z
Si Si1 0.828688 0.591163 0.974446
Si Si2 0.385307 0.123958 0.623186
Si Si3 0.013402 0.157353 0.804116
Si Si4 0.258347 0.686921 0.471034
Si Si5 0.215677 0.704497 0.348830
Si Si6 0.675617 0.606393 0.465466
Si Si7 0.720187 0.493642 0.140576
O O1 0.657467 0.631275 0.889424
O O2 0.584481 0.538841 0.921210
O O3 0.890666 0.632049 0.037743
O O4 0.140206 0.579581 0.030428
O O5 0.661099 0.159352 0.719533
O O6 0.388992 0.113133 0.567216
O O7 0.338437 0.055694 0.633150
O O8 0.097316 0.165096 0.556645
O O9 0.000000 0.119938 0.750000
O O10 0.182345 0.221322 0.837695
O O11 0.250000 0.750000 0.500000
O O12 0.146504 0.691253 0.386659
O O13 0.531187 0.674088 0.419788
O O14 0.000000 0.679912 0.250000
O O15 0.402859 0.560952 0.407214
O O16 0.000000 0.501032 0.250000
#
# Coordination Sequence:
#
# PCOD9281203 Si02
#       7
#     8   8   8   8   8   8   8
#     4  11  22  38  64  93 125 160 215 265 321 368
#     4  10  22  38  63  89 121 170 216 261 313 379
#     4  11  20  37  62  95 123 159 216 268 310 373
#     4  10  21  38  59  90 125 158 204 263 318 372
#     4  10  23  41  62  90 129 171 208 249 320 387
#     4  11  23  41  62  90 130 170 212 260 325 384
#     4  11  22  39  64  90 125 165 216 270 316 375
#
# _framework density 20.595880999999999
#
# number of rings (size 3 to 8) (size 9 to 14) (size 15 to 20)
#    0.000    1.429    4.286    1.286    0.000    2.857 
#    0.000    2.143    0.000    0.000    0.000    0.000 
#    0.000    0.000    0.000    0.000    0.000    0.000 
#
# Total GULP energy -155942.734450 kJ/mol
# GULP energy per Si atom -5569.383373 kJ/mol
# Density = 2.054900 g / cm^3
# Si number density = 20.595881 Si / 1000 Ang^3
#
#
#
# Elastic Constant Matrix: (Units=GPa)
#
#
# Indices 1 2 3 4 5 6 
#
# 1 81.5665 13.5891 18.4756 0.0029 -10.6231 -0.0043
# 2 13.5891 66.9450 15.4296 0.0168 2.0978 -0.0020
# 3 18.4756 15.4296 79.0446 0.0164 -23.6124 -0.0021
# 4 0.0029 0.0168 0.0164 27.5007 -0.0023 1.0448
# 5 -10.6231 2.0978 -23.6124 -0.0023 34.3919 -0.0071
# 6 -0.0043 -0.0020 -0.0021 1.0448 -0.0071 16.6343
#
#
#
# Elastic Compliance Matrix: (Units=1/GPa)
#
#
# Indices 1 2 3 4 5 6 
#
# 1 0.013465 -0.002429 -0.001744 0.000001 0.003110 0.000004
# 2 -0.002429 0.016493 -0.003996 -0.000008 -0.004500 -0.000001
# 3 -0.001744 -0.003996 0.017298 -0.000007 0.011582 0.000007
# 4 0.000001 -0.000008 -0.000007 0.036450 -0.000002 -0.002289
# 5 0.003110 -0.004500 0.011582 -0.000002 0.038263 0.000018
# 6 0.000004 -0.000001 0.000007 -0.002289 0.000018 0.060261
#
#
# Mechanical properties :
#
#
# Convention : Reuss Voigt Hill
#
# Bulk Modulus (GPa) = 32.34323 35.83829 34.09076
# Shear Modulus (GPa) = 23.93806 27.70949 25.82377
#
# Velocity S-wave (km/s) = 3.41291 3.67193 3.54479
# Velocity P-wave (km/s) = 5.59182 5.95113 5.77427
#
# Compressibility (1/GPa) = 0.03091837
#
# Stress axis : x y z
#
# Youngs Moduli (GPa) = 74.26871 60.63334 57.80875
#
# Poissons Ratio (x) = 0.14726 0.10083
# Poissons Ratio (y) = 0.18037 0.23099
# Poissons Ratio (z) = 0.12954 0.24228
#
# Static dielectric constant tensor:
#      x y z
#    x 1.825220 0.000000 0.028810 
#    y 0.000000 1.754050 0.000000 
#    z 0.028810 0.000000 1.739170 
# 
# From -- ./inp_files/193310.got.cif
#   From: 2010.05.17/outbox.cif.g08.bks.cpg/sg15_97_cif.got.tgz:193310.got - 2010.06.03 18:47:42.
