data_PCOD9281258
_publ_section_title
;
Structure prediction by ZEFSAII (Michael W. Deem and Ramdas Pophale) SiO2 
 PCOD9281258
Probable space group: C 2/C
;
_chemical_formula_sum "Si O2"
_cell_formula_units_Z 44
_cell_length_a 22.262206
_cell_length_b 8.596606
_cell_length_c 11.102868
_cell_angle_alpha 90.000000
_cell_angle_beta 117.374482
_cell_angle_gamma 90.000000
_cell_volume 1886.919051
_symmetry_space_group_name_H-M "C 2/C"
_symmetry_group_IT_number 15
_symmetry_cell_setting 'monoclinic'
loop_
_space_group_symop_operation_xyz
x,y,z
-x,y,1/2-z
-x,-y,-z
x,-y,1/2+z
1/2+x,1/2+y,z
1/2-x,1/2+y,1/2-z
1/2-x,1/2-y,-z
1/2+x,1/2-y,1/2+z
loop_
_atom_site_type_symbol
_atom_site_label
_atom_site_fract_x
_atom_site_fract_y
_atom_site_fract_z
Si Si1 0.247214 0.405820 0.417709
Si Si2 0.659762 0.249599 0.162417
Si Si3 0.132135 0.860336 0.405405
Si Si4 0.368858 0.974748 0.529019
Si Si5 0.000000 0.637927 0.750000
Si Si6 0.532071 0.590422 0.420238
O O1 0.250000 0.250000 0.500000
O O2 0.271035 0.338386 0.310570
O O3 0.303579 0.532780 0.505629
O O4 0.177951 0.481325 0.399067
O O5 0.640801 0.290713 0.280294
O O6 0.599559 0.322962 0.027709
O O7 0.658417 0.073104 0.110834
O O8 0.130137 0.709447 0.488919
O O9 0.065364 0.965874 0.358557
O O10 0.442726 0.032855 0.638644
O O11 0.981667 0.770371 0.832565
O O12 0.500000 0.500000 0.500000
#
# Coordination Sequence:
#
# PCOD9281258 Si02
#       6
#     8   8   8   8   4   8
#     4   9  20  40  62  91 127 162 213 271 322 385
#     4   9  21  39  60  89 125 166 212 262 319 382
#     4  11  22  39  66  93 123 171 217 267 331 385
#     4  10  22  40  61  94 132 166 214 265 317 390
#     4  10  22  40  60  86 126 172 208 260 322 376
#     4  10  21  38  60  88 123 162 212 265 317 385
#
# _framework density 23.318434
#
# number of rings (size 3 to 8) (size 9 to 14) (size 15 to 20)
#    0.000    2.182    0.000    2.727    0.000    6.545 
#    0.000   10.909    0.000    0.000    0.000    0.000 
#    0.000    0.000    0.000    0.000    0.000    0.000 
#
# Total GULP energy -122722.297453 kJ/mol
# GULP energy per Si atom -5578.286248 kJ/mol
# Density = 2.326536 g / cm^3
# Si number density = 23.318434 Si / 1000 Ang^3
#
#
#
# Elastic Constant Matrix: (Units=GPa)
#
#
# Indices 1 2 3 4 5 6 
#
# 1 82.7030 32.8020 9.5616 0.0000 -11.4561 0.0000
# 2 32.8020 181.4022 40.6568 0.0000 8.5554 0.0000
# 3 9.5616 40.6568 36.7303 0.0000 -11.5359 0.0000
# 4 0.0000 0.0000 0.0000 27.8377 0.0000 6.7522
# 5 -11.4561 8.5554 -11.5359 0.0000 32.3491 0.0000
# 6 0.0000 0.0000 0.0000 6.7522 0.0000 30.0315
#
#
#
# Elastic Compliance Matrix: (Units=1/GPa)
#
#
# Indices 1 2 3 4 5 6 
#
# 1 0.014086 -0.003329 0.002096 0.000000 0.006616 0.000000
# 2 -0.003329 0.009081 -0.011610 0.000000 -0.007721 0.000000
# 3 0.002096 -0.011610 0.045865 0.000000 0.020168 0.000000
# 4 0.000000 0.000000 0.000000 0.037995 0.000000 -0.008543
# 5 0.006616 -0.007721 0.020168 0.000000 0.042490 0.000000
# 6 0.000000 0.000000 0.000000 -0.008543 0.000000 0.035219
#
#
# Mechanical properties :
#
#
# Convention : Reuss Voigt Hill
#
# Bulk Modulus (GPa) = 23.07011 51.87515 37.47263
# Shear Modulus (GPa) = 22.23515 32.56467 27.39991
#
# Velocity S-wave (km/s) = 3.09130 3.74106 3.43159
# Velocity P-wave (km/s) = 4.75989 6.39964 5.63968
#
# Compressibility (1/GPa) = 0.04334612
#
# Stress axis : x y z
#
# Youngs Moduli (GPa) = 70.99288 110.12391 21.80315
#
# Poissons Ratio (x) = 0.36658 -0.04569
# Poissons Ratio (y) = 0.23632 0.25313
# Poissons Ratio (z) = -0.14878 1.27850
#
# Static dielectric constant tensor:
#      x y z
#    x 1.871070 0.000000 -0.024600 
#    y 0.000000 1.921030 0.000000 
#    z -0.024600 0.000000 1.975370 
# 
# From -- ./inp_files/172093.got.cif
#   From: 2010.05.17/outbox.cif.g08.bks.cpg/sg15_87_cif.got.tgz:172093.got - 2010.06.03 18:47:42.
