data_PCOD9281597
_publ_section_title
;
Structure prediction by ZEFSAII (Michael W. Deem and Ramdas Pophale) SiO2 
 PCOD9281597
Probable space group: C 2/C
;
_chemical_formula_sum "Si O2"
_cell_formula_units_Z 56
_cell_length_a 12.133704
_cell_length_b 29.924746
_cell_length_c 9.318590
_cell_angle_alpha 90.000000
_cell_angle_beta 119.153111
_cell_angle_gamma 90.000000
_cell_volume 2954.935415
_symmetry_space_group_name_H-M "C 2/C"
_symmetry_group_IT_number 15
_symmetry_cell_setting 'monoclinic'
loop_
_space_group_symop_operation_xyz
x,y,z
-x,y,1/2-z
-x,-y,-z
x,-y,1/2+z
1/2+x,1/2+y,z
1/2-x,1/2+y,1/2-z
1/2-x,1/2-y,-z
1/2+x,1/2-y,1/2+z
loop_
_atom_site_type_symbol
_atom_site_label
_atom_site_fract_x
_atom_site_fract_y
_atom_site_fract_z
Si Si1 0.992856 0.313063 0.089761
Si Si2 0.704784 0.887869 0.557211
Si Si3 0.197597 0.745523 0.625037
Si Si4 0.399876 0.673881 0.806537
Si Si5 0.087622 0.832913 0.679259
Si Si6 0.996932 0.548232 0.073273
Si Si7 0.694603 0.106991 0.714360
O O1 0.059785 0.278187 0.028183
O O2 0.088401 0.354730 0.156319
O O3 0.000000 0.290843 0.250000
O O4 0.862594 0.338687 0.985987
O O5 0.835822 0.876158 0.717974
O O6 0.614011 0.921692 0.586814
O O7 0.718061 0.903635 0.398801
O O8 0.250000 0.750000 0.500000
O O9 0.298308 0.713471 0.770427
O O10 0.178279 0.793606 0.681554
O O11 0.500000 0.687646 0.750000
O O12 0.313692 0.630914 0.716571
O O13 0.486460 0.658714 0.991682
O O14 0.000000 0.815157 0.750000
O O15 0.000000 0.546812 0.250000
O O16 0.000000 0.500000 0.000000
O O17 0.869347 0.570324 0.927187
#
# Coordination Sequence:
#
# PCOD9281597 Si02
#       7
#     8   8   8   8   8   8   8
#     4   8  17  35  55  78 107 154 201 250 305 349
#     4  10  21  38  63  88 122 158 206 253 306 367
#     4  11  23  36  53  78 117 160 216 270 307 353
#     4  11  23  40  59  84 123 169 212 262 316 361
#     4  12  25  38  59  88 119 170 215 258 312 372
#     4  11  23  40  70 103 127 154 193 245 307 368
#     4   9  19  40  62  86 123 160 195 250 302 366
#
# _framework density 18.951343999999999
#
# number of rings (size 3 to 8) (size 9 to 14) (size 15 to 20)
#    0.000    1.714    2.857    2.571    4.000    1.714 
#    0.000    0.000    0.000    1.714    0.000    0.000 
#    0.000    0.000    0.000    0.000    0.000    0.000 
#
# Total GULP energy -155965.165239 kJ/mol
# GULP energy per Si atom -5570.184473 kJ/mol
# Density = 1.890821 g / cm^3
# Si number density = 18.951344 Si / 1000 Ang^3
#
#
#
# Elastic Constant Matrix: (Units=GPa)
#
#
# Indices 1 2 3 4 5 6 
#
# 1 67.1038 22.6205 16.7901 0.0000 -3.9171 0.0000
# 2 22.6205 84.8276 39.6974 0.0000 4.5599 0.0000
# 3 16.7901 39.6974 101.1633 0.0000 11.5658 0.0000
# 4 0.0000 0.0000 0.0000 40.0358 0.0000 13.4762
# 5 -3.9171 4.5599 11.5658 0.0000 37.6171 0.0000
# 6 0.0000 0.0000 0.0000 13.4762 0.0000 33.4073
#
#
#
# Elastic Compliance Matrix: (Units=1/GPa)
#
#
# Indices 1 2 3 4 5 6 
#
# 1 0.016760 -0.003881 -0.001567 0.000000 0.002698 0.000000
# 2 -0.003881 0.015339 -0.005303 0.000000 -0.000633 0.000000
# 3 -0.001567 -0.005303 0.012615 0.000000 -0.003399 0.000000
# 4 0.000000 0.000000 0.000000 0.028902 0.000000 -0.011659
# 5 0.002698 -0.000633 -0.003399 0.000000 0.027986 0.000000
# 6 0.000000 0.000000 0.000000 -0.011659 0.000000 0.034637
#
#
# Mechanical properties :
#
#
# Convention : Reuss Voigt Hill
#
# Bulk Modulus (GPa) = 43.08089 45.70118 44.39103
# Shear Modulus (GPa) = 30.21556 33.81116 32.01336
#
# Velocity S-wave (km/s) = 3.99730 4.22845 4.11449
# Velocity P-wave (km/s) = 6.63974 6.92871 6.78577
#
# Compressibility (1/GPa) = 0.02321215
#
# Stress axis : x y z
#
# Youngs Moduli (GPa) = 59.66545 65.19287 79.27368
#
# Poissons Ratio (x) = 0.25301 0.12423
# Poissons Ratio (y) = 0.23156 0.42036
# Poissons Ratio (z) = 0.09351 0.34570
#
# Static dielectric constant tensor:
#      x y z
#    x 1.726670 0.000000 -0.027670 
#    y 0.000000 1.656720 0.000000 
#    z -0.027670 0.000000 1.777270 
# 
# From -- ./inp_files/35751.got.cif
#   From: 2010.05.17/outbox.cif.g08.bks.cpg/sg15_18_cif.got.tgz:35751.got - 2010.06.03 18:47:42.
