data_PCOD9281682
_publ_section_title
;
Structure prediction by ZEFSAII (Michael W. Deem and Ramdas Pophale) SiO2 
 PCOD9281682
Probable space group: C 2/C
;
_chemical_formula_sum "Si O2"
_cell_formula_units_Z 44
_cell_length_a 12.833599
_cell_length_b 6.507194
_cell_length_c 25.629378
_cell_angle_alpha 90.000000
_cell_angle_beta 46.982885
_cell_angle_gamma 90.000000
_cell_volume 1564.900535
_symmetry_space_group_name_H-M "C 2/C"
_symmetry_group_IT_number 15
_symmetry_cell_setting 'monoclinic'
loop_
_space_group_symop_operation_xyz
x,y,z
-x,y,1/2-z
-x,-y,-z
x,-y,1/2+z
1/2+x,1/2+y,z
1/2-x,1/2+y,1/2-z
1/2-x,1/2-y,-z
1/2+x,1/2-y,1/2+z
loop_
_atom_site_type_symbol
_atom_site_label
_atom_site_fract_x
_atom_site_fract_y
_atom_site_fract_z
Si Si1 0.925986 0.218199 0.186922
Si Si2 0.693009 0.488922 0.046419
Si Si3 0.952372 0.358009 0.847785
Si Si4 0.079119 0.247002 0.991077
Si Si5 0.000000 0.005536 0.750000
Si Si6 0.184342 0.968070 0.875743
O O1 0.086551 0.135332 0.117859
O O2 0.941754 0.461494 0.172164
O O3 0.828422 0.093971 0.179836
O O4 0.894362 0.159438 0.257690
O O5 0.635397 0.260809 0.076842
O O6 0.848454 0.543625 0.015489
O O7 0.663277 0.580192 0.999456
O O8 0.838624 0.455347 0.846965
O O9 0.010381 0.170886 0.793478
O O10 0.112334 0.177633 0.921068
O O11 0.917981 0.206361 0.062928
#
# Coordination Sequence:
#
# PCOD9281682 Si02
#       6
#     8   8   8   8   4   8
#     4  10  21  44  62  88 127 162 213 275 321 395
#     4   9  19  37  63  87 133 175 203 254 321 380
#     4  11  22  42  64  93 121 169 217 271 331 393
#     4   9  18  39  59  92 139 170 206 256 317 394
#     4  10  24  46  64  84 118 164 212 274 346 376
#     4  10  21  38  63  96 126 170 211 262 319 390
#
# _framework density 28.116804999999999
#
# number of rings (size 3 to 8) (size 9 to 14) (size 15 to 20)
#    0.000    2.182    1.818    0.545    0.000    1.455 
#   19.636    0.000    0.000    0.000    0.000    0.000 
#    0.000    0.000    0.000    0.000    0.000    0.000 
#
# Total GULP energy -122866.520781 kJ/mol
# GULP energy per Si atom -5584.841854 kJ/mol
# Density = 2.805281 g / cm^3
# Si number density = 28.116805 Si / 1000 Ang^3
#
#
#
# Elastic Constant Matrix: (Units=GPa)
#
#
# Indices 1 2 3 4 5 6 
#
# 1 87.7917 22.6304 19.6928 -0.0011 26.5846 -0.0009
# 2 22.6304 151.9478 44.8401 -0.0117 33.9266 -0.0046
# 3 19.6928 44.8401 72.7476 -0.0015 19.2661 -0.0012
# 4 -0.0011 -0.0117 -0.0015 39.0571 -0.0015 23.0252
# 5 26.5846 33.9266 19.2661 -0.0015 52.0324 -0.0010
# 6 -0.0009 -0.0046 -0.0012 23.0252 -0.0010 35.4592
#
#
#
# Elastic Compliance Matrix: (Units=1/GPa)
#
#
# Indices 1 2 3 4 5 6 
#
# 1 0.013750 -0.000054 -0.002037 0.000000 -0.006235 0.000000
# 2 -0.000054 0.008776 -0.004309 0.000003 -0.004099 -0.000001
# 3 -0.002037 -0.004309 0.017666 -0.000001 -0.002691 0.000001
# 4 0.000000 0.000003 -0.000001 0.041484 -0.000001 -0.026937
# 5 -0.006235 -0.004099 -0.002691 -0.000001 0.026073 0.000000
# 6 0.000000 -0.000001 0.000001 -0.026937 0.000000 0.045693
#
#
# Mechanical properties :
#
#
# Convention : Reuss Voigt Hill
#
# Bulk Modulus (GPa) = 36.50884 54.09040 45.29962
# Shear Modulus (GPa) = 28.51046 40.33133 34.42090
#
# Velocity S-wave (km/s) = 3.18779 3.79148 3.50267
# Velocity P-wave (km/s) = 5.15386 6.20054 5.70127
#
# Compressibility (1/GPa) = 0.02739063
#
# Stress axis : x y z
#
# Youngs Moduli (GPa) = 72.72864 113.94508 56.60489
#
# Poissons Ratio (x) = 0.00620 0.11532
# Poissons Ratio (y) = 0.00396 0.24392
# Poissons Ratio (z) = 0.14816 0.49101
#
# Static dielectric constant tensor:
#      x y z
#    x 2.162320 0.000000 -0.041020 
#    y 0.000000 2.237250 0.000000 
#    z -0.041020 0.000000 2.484930 
# 
# From -- ./inp_files/294384.got.cif
#   From: 2010.05.17/outbox.cif.g08.bks.cpg/sg15_148_cif.got.tgz:294384.got - 2010.06.03 18:47:42.
