data_PCOD9281106
_publ_section_title
;
Structure prediction by ZEFSAII (Michael W. Deem and Ramdas Pophale) SiO2 
 PCOD9281106
Probable space group: C 2/C
;
_chemical_formula_sum "Si O2"
_cell_formula_units_Z 48
_cell_length_a 5.395014
_cell_length_b 28.796927
_cell_length_c 16.857373
_cell_angle_alpha 90.000000
_cell_angle_beta 124.328756
_cell_angle_gamma 90.000000
_cell_volume 2162.776174
_symmetry_space_group_name_H-M "C 2/C"
_symmetry_group_IT_number 15
_symmetry_cell_setting 'monoclinic'
loop_
_space_group_symop_operation_xyz
x,y,z
-x,y,1/2-z
-x,-y,-z
x,-y,1/2+z
1/2+x,1/2+y,z
1/2-x,1/2+y,1/2-z
1/2-x,1/2-y,-z
1/2+x,1/2-y,1/2+z
loop_
_atom_site_type_symbol
_atom_site_label
_atom_site_fract_x
_atom_site_fract_y
_atom_site_fract_z
Si Si1 0.360974 0.732400 0.140358
Si Si2 0.191384 0.045238 0.364082
Si Si3 0.864486 0.768965 0.140563
Si Si4 0.152475 0.962090 0.471135
Si Si5 0.860524 0.861524 0.058529
Si Si6 0.640143 0.638360 0.439932
O O1 0.500000 0.747001 0.250000
O O2 0.512897 0.762233 0.097397
O O3 0.432005 0.678890 0.135232
O O4 0.009621 0.738640 0.096377
O O5 0.548969 0.054349 0.427773
O O6 0.061890 0.086449 0.396269
O O7 0.000000 0.046263 0.250000
O O8 0.197666 0.993733 0.401868
O O9 0.962952 0.821207 0.136488
O O10 0.000000 0.754209 0.250000
O O11 0.010984 0.914073 0.414642
O O12 0.000000 0.000000 0.500000
O O13 0.502887 0.862502 0.011312
O O14 0.965561 0.848936 0.988584
#
# Coordination Sequence:
#
# PCOD9281106 Si02
#       6
#     8   8   8   8   8   8
#     4  10  21  38  58  85 124 158 200 254 303 363
#     4  10  22  40  65  92 125 166 212 260 322 388
#     4  10  22  39  58  84 120 162 203 250 303 369
#     4  10  21  42  62  89 129 162 205 269 318 371
#     4  11  23  38  63  86 122 160 203 256 312 369
#     4  11  22  38  61  92 120 160 202 255 314 373
#
# _framework density 22.1937
#
# number of rings (size 3 to 8) (size 9 to 14) (size 15 to 20)
#    0.000    1.667    1.667    2.500    0.000    5.333 
#    0.000    1.667    7.333    0.000    0.000    0.000 
#    0.000    0.000    0.000    0.000    0.000    0.000 
#
# Total GULP energy -133673.023447 kJ/mol
# GULP energy per Si atom -5569.709310 kJ/mol
# Density = 2.214319 g / cm^3
# Si number density = 22.193700 Si / 1000 Ang^3
#
#
#
# Elastic Constant Matrix: (Units=GPa)
#
#
# Indices 1 2 3 4 5 6 
#
# 1 135.6341 36.8210 26.2785 0.0000 -27.2791 0.0000
# 2 36.8210 135.0210 3.6463 0.0000 -13.1628 0.0000
# 3 26.2785 3.6463 52.6958 0.0000 -2.1871 0.0000
# 4 0.0000 0.0000 0.0000 24.4454 0.0000 -11.7347
# 5 -27.2791 -13.1628 -2.1871 0.0000 22.5378 0.0000
# 6 0.0000 0.0000 0.0000 -11.7347 0.0000 46.9142
#
#
#
# Elastic Compliance Matrix: (Units=1/GPa)
#
#
# Indices 1 2 3 4 5 6 
#
# 1 0.011250 -0.001753 -0.004986 0.000000 0.012109 0.000000
# 2 -0.001753 0.008133 0.000422 0.000000 0.002669 0.000000
# 3 -0.004986 0.000422 0.021280 0.000000 -0.003724 0.000000
# 4 0.000000 0.000000 0.000000 0.046490 0.000000 0.011628
# 5 0.012109 0.002669 -0.003724 0.000000 0.060224 0.000000
# 6 0.000000 0.000000 0.000000 0.011628 0.000000 0.024224
#
#
# Mechanical properties :
#
#
# Convention : Reuss Voigt Hill
#
# Bulk Modulus (GPa) = 35.67762 50.76027 43.21894
# Shear Modulus (GPa) = 25.82937 35.88648 30.85793
#
# Velocity S-wave (km/s) = 3.41518 4.02552 3.73284
# Velocity P-wave (km/s) = 5.62687 6.67289 6.17208
#
# Compressibility (1/GPa) = 0.02802878
#
# Stress axis : x y z
#
# Youngs Moduli (GPa) = 88.88757 122.95445 46.99319
#
# Poissons Ratio (x) = 0.21552 0.23433
# Poissons Ratio (y) = 0.15580 -0.01984
# Poissons Ratio (z) = 0.44323 -0.05190
#
# Static dielectric constant tensor:
#      x y z
#    x 1.960590 0.000000 0.048570 
#    y 0.000000 1.875000 0.000000 
#    z 0.048570 0.000000 1.819610 
# 
# From -- ./inp_files/185971.got.cif
#   From: 2010.05.17/outbox.cif.g08.bks.cpg/sg15_93_cif.got.tgz:185971.got - 2010.06.03 18:47:42.
