data_PCOD9281403
_publ_section_title
;
Structure prediction by ZEFSAII (Michael W. Deem and Ramdas Pophale) SiO2 
 PCOD9281403
Probable space group: C 2/C
;
_chemical_formula_sum "Si O2"
_cell_formula_units_Z 56
_cell_length_a 6.674858
_cell_length_b 23.101119
_cell_length_c 18.586360
_cell_angle_alpha 90.000000
_cell_angle_beta 66.809450
_cell_angle_gamma 90.000000
_cell_volume 2634.386857
_symmetry_space_group_name_H-M "C 2/C"
_symmetry_group_IT_number 15
_symmetry_cell_setting 'monoclinic'
loop_
_space_group_symop_operation_xyz
x,y,z
-x,y,1/2-z
-x,-y,-z
x,-y,1/2+z
1/2+x,1/2+y,z
1/2-x,1/2+y,1/2-z
1/2-x,1/2-y,-z
1/2+x,1/2-y,1/2+z
loop_
_atom_site_type_symbol
_atom_site_label
_atom_site_fract_x
_atom_site_fract_y
_atom_site_fract_z
Si Si1 0.368124 0.641985 0.843779
Si Si2 0.535234 0.258605 0.426924
Si Si3 0.477310 0.784176 0.169003
Si Si4 0.377485 0.988900 0.441495
Si Si5 0.995297 0.072643 0.446005
Si Si6 0.844794 0.988904 0.340340
Si Si7 0.695986 0.697467 0.401802
O O1 0.500000 0.648195 0.750000
O O2 0.455853 0.686106 0.890906
O O3 0.123607 0.660904 0.857386
O O4 0.381780 0.575834 0.866131
O O5 0.435325 0.264793 0.520017
O O6 0.438424 0.202076 0.400596
O O7 0.791609 0.262576 0.391294
O O8 0.500000 0.795500 0.250000
O O9 0.314122 0.731631 0.171778
O O10 0.218213 0.933247 0.472441
O O11 0.585516 0.989897 0.359353
O O12 0.500000 0.000000 0.500000
O O13 0.202731 0.038724 0.449209
O O14 0.079501 0.136264 0.416938
O O15 0.918140 0.037476 0.386384
O O16 0.000000 0.994243 0.250000
#
# Coordination Sequence:
#
# PCOD9281403 Si02
#       7
#     8   8   8   8   8   8   8
#     4  10  21  38  61  91 124 161 199 260 313 372
#     4  10  22  40  60  89 126 158 209 257 305 372
#     4  11  22  40  64  90 122 164 209 251 321 373
#     4   9  21  39  61  90 121 159 207 249 303 384
#     4  10  22  41  62  89 123 167 206 254 319 367
#     4  10  23  40  61  94 128 158 209 259 313 377
#     4  10  24  39  61  91 123 162 207 259 306 370
#
# _framework density 21.257318999999999
#
# number of rings (size 3 to 8) (size 9 to 14) (size 15 to 20)
#    0.000    2.000    1.429    0.429    8.000    3.429 
#    0.000    1.429    0.000    0.000    0.000    0.000 
#    0.000    0.000    0.000    0.000    0.000    0.000 
#
# Total GULP energy -156226.726529 kJ/mol
# GULP energy per Si atom -5579.525947 kJ/mol
# Density = 2.120894 g / cm^3
# Si number density = 21.257319 Si / 1000 Ang^3
#
#
#
# Elastic Constant Matrix: (Units=GPa)
#
#
# Indices 1 2 3 4 5 6 
#
# 1 130.3383 35.3518 29.8750 0.0000 -12.7006 0.0000
# 2 35.3518 107.8633 10.1111 0.0000 7.9004 0.0000
# 3 29.8750 10.1111 58.4579 0.0000 -12.7821 0.0000
# 4 0.0000 0.0000 0.0000 23.2306 0.0000 -1.2148
# 5 -12.7006 7.9004 -12.7821 0.0000 43.2646 0.0000
# 6 0.0000 0.0000 0.0000 -1.2148 0.0000 30.5361
#
#
#
# Elastic Compliance Matrix: (Units=1/GPa)
#
#
# Indices 1 2 3 4 5 6 
#
# 1 0.009577 -0.002933 -0.003908 0.000000 0.002193 0.000000
# 2 -0.002933 0.010552 -0.001000 0.000000 -0.003083 0.000000
# 3 -0.003908 -0.001000 0.020382 0.000000 0.005057 0.000000
# 4 0.000000 0.000000 0.000000 0.043136 0.000000 0.001716
# 5 0.002193 -0.003083 0.005057 0.000000 0.025814 0.000000
# 6 0.000000 0.000000 0.000000 0.001716 0.000000 0.032816
#
#
# Mechanical properties :
#
#
# Convention : Reuss Voigt Hill
#
# Bulk Modulus (GPa) = 40.27556 49.70395 44.98976
# Shear Modulus (GPa) = 30.07746 34.16102 32.11924
#
# Velocity S-wave (km/s) = 3.76563 4.01312 3.89134
# Velocity P-wave (km/s) = 6.15584 6.70122 6.43431
#
# Compressibility (1/GPa) = 0.02482895
#
# Stress axis : x y z
#
# Youngs Moduli (GPa) = 104.41393 94.76917 49.06245
#
# Poissons Ratio (x) = 0.27798 0.19172
# Poissons Ratio (y) = 0.30627 0.04908
# Poissons Ratio (z) = 0.40802 0.09480
#
# Static dielectric constant tensor:
#      x y z
#    x 1.794570 0.000000 -0.031730 
#    y 0.000000 1.760980 0.000000 
#    z -0.031730 0.000000 1.806470 
# 
# From -- ./inp_files/227867.got.cif
#   From: 2010.05.17/outbox.cif.g08.bks.cpg/sg15_114_cif.got.tgz:227867.got - 2010.06.03 18:47:42.
