data_PCOD9281293
_publ_section_title
;
Structure prediction by ZEFSAII (Michael W. Deem and Ramdas Pophale) SiO2 
 PCOD9281293
Probable space group: C 2/C
;
_chemical_formula_sum "Si O2"
_cell_formula_units_Z 56
_cell_length_a 21.479586
_cell_length_b 8.219272
_cell_length_c 17.140829
_cell_angle_alpha 90.000000
_cell_angle_beta 52.067164
_cell_angle_gamma 90.000000
_cell_volume 2386.824535
_symmetry_space_group_name_H-M "C 2/C"
_symmetry_group_IT_number 15
_symmetry_cell_setting 'monoclinic'
loop_
_space_group_symop_operation_xyz
x,y,z
-x,y,1/2-z
-x,-y,-z
x,-y,1/2+z
1/2+x,1/2+y,z
1/2-x,1/2+y,1/2-z
1/2-x,1/2-y,-z
1/2+x,1/2-y,1/2+z
loop_
_atom_site_type_symbol
_atom_site_label
_atom_site_fract_x
_atom_site_fract_y
_atom_site_fract_z
Si Si1 0.422904 0.099366 0.584960
Si Si2 0.711692 0.998057 0.564084
Si Si3 0.202013 0.730126 0.934067
Si Si4 0.991348 0.079535 0.095350
Si Si5 0.142092 0.784856 0.557402
Si Si6 0.170336 0.974163 0.255543
Si Si7 0.309146 0.816086 0.651086
O O1 0.376810 0.203197 0.554319
O O2 0.457410 0.237427 0.613551
O O3 0.500000 0.000000 0.500000
O O4 0.359304 0.958869 0.654631
O O5 0.786810 0.097659 0.472776
O O6 0.643912 0.136273 0.618851
O O7 0.757098 0.906365 0.598824
O O8 0.683973 0.846954 0.532603
O O9 0.271139 0.617028 0.847334
O O10 0.068964 0.103373 0.087924
O O11 0.920831 0.988550 0.194471
O O12 0.000000 0.000000 0.000000
O O13 0.164227 0.690858 0.459407
O O14 0.171724 0.858390 0.329467
O O15 0.216847 0.143219 0.231978
#
# Coordination Sequence:
#
# PCOD9281293 Si02
#       7
#     8   8   8   8   8   8   8
#     4  11  19  36  59  91 128 152 202 258 314 376
#     4  10  21  39  63  83 120 167 214 247 287 386
#     4  10  21  38  60  92 118 167 209 249 310 367
#     4  12  22  38  62  95 126 160 196 261 328 376
#     4  11  21  39  62  92 118 164 211 248 309 375
#     4  11  22  37  58  93 127 158 202 263 319 377
#     4  11  22  37  59  93 129 155 200 258 325 369
#
# _framework density 23.462135
#
# number of rings (size 3 to 8) (size 9 to 14) (size 15 to 20)
#    0.000    1.143    5.714    2.571    2.000    0.000 
#    0.000    0.714    0.000    0.000    3.714    0.000 
#    0.000    0.000    0.000    0.000    0.000    0.000 
#
# Total GULP energy -156068.018049 kJ/mol
# GULP energy per Si atom -5573.857787 kJ/mol
# Density = 2.340873 g / cm^3
# Si number density = 23.462135 Si / 1000 Ang^3
#
#
#
# Elastic Constant Matrix: (Units=GPa)
#
#
# Indices 1 2 3 4 5 6 
#
# 1 115.5705 32.4281 18.9360 0.0000 -30.2772 -0.0001
# 2 32.4281 70.4409 4.4180 0.0004 -0.8803 -0.0005
# 3 18.9360 4.4180 38.1923 0.0002 -25.0875 -0.0001
# 4 0.0000 0.0004 0.0002 26.6402 -0.0001 -4.3459
# 5 -30.2772 -0.8803 -25.0875 -0.0001 32.8195 0.0001
# 6 -0.0001 -0.0005 -0.0001 -4.3459 0.0001 58.0365
#
#
#
# Elastic Compliance Matrix: (Units=1/GPa)
#
#
# Indices 1 2 3 4 5 6 
#
# 1 0.013966 -0.006503 0.004372 0.000000 0.016052 0.000000
# 2 -0.006503 0.017379 -0.004862 0.000000 -0.009250 0.000000
# 3 0.004372 -0.004862 0.054514 0.000000 0.045574 0.000000
# 4 0.000000 0.000000 0.000000 0.038002 0.000000 0.002846
# 5 0.016052 -0.009250 0.045574 0.000000 0.079867 0.000000
# 6 0.000000 0.000000 0.000000 0.002846 0.000000 0.017444
#
#
# Mechanical properties :
#
#
# Convention : Reuss Voigt Hill
#
# Bulk Modulus (GPa) = 13.91343 37.30757 25.61050
# Shear Modulus (GPa) = 19.29629 34.72733 27.01181
#
# Velocity S-wave (km/s) = 2.87094 3.85144 3.39675
# Velocity P-wave (km/s) = 4.11494 5.97610 5.13062
#
# Compressibility (1/GPa) = 0.07187300
#
# Stress axis : x y z
#
# Youngs Moduli (GPa) = 71.60023 57.53932 18.34380
#
# Poissons Ratio (x) = 0.37419 -0.08019
# Poissons Ratio (y) = 0.46563 0.08919
# Poissons Ratio (z) = -0.31301 0.27976
#
# Static dielectric constant tensor:
#      x y z
#    x 1.954110 0.000000 0.042000 
#    y 0.000000 1.987950 0.000000 
#    z 0.042000 0.000000 1.931490 
# 
# From -- ./inp_files/251824.got.cif
#   From: 2010.05.17/outbox.cif.g08.bks.cpg/sg15_126_cif.got.tgz:251824.got - 2010.06.03 18:47:42.
