data_PCOD9281796
_publ_section_title
;
Structure prediction by ZEFSAII (Michael W. Deem and Ramdas Pophale) SiO2 
 PCOD9281796
Probable space group: C 2/C
;
_chemical_formula_sum "Si O2"
_cell_formula_units_Z 48
_cell_length_a 17.313697
_cell_length_b 24.765177
_cell_length_c 5.224559
_cell_angle_alpha 90.000000
_cell_angle_beta 77.837937
_cell_angle_gamma 90.000000
_cell_volume 2189.890283
_symmetry_space_group_name_H-M "C 2/C"
_symmetry_group_IT_number 15
_symmetry_cell_setting 'monoclinic'
loop_
_space_group_symop_operation_xyz
x,y,z
-x,y,1/2-z
-x,-y,-z
x,-y,1/2+z
1/2+x,1/2+y,z
1/2-x,1/2+y,1/2-z
1/2-x,1/2-y,-z
1/2+x,1/2-y,1/2+z
loop_
_atom_site_type_symbol
_atom_site_label
_atom_site_fract_x
_atom_site_fract_y
_atom_site_fract_z
Si Si1 0.581365 0.186182 0.540364
Si Si2 0.173391 0.961406 0.668069
Si Si3 0.771037 0.623850 0.823455
Si Si4 0.500000 0.898798 0.750000
Si Si5 0.135029 0.535387 0.993717
Si Si6 0.500000 0.462503 0.750000
Si Si7 0.298182 0.268824 0.217466
O O1 0.500000 0.197790 0.750000
O O2 0.651418 0.158977 0.657966
O O3 0.559497 0.139845 0.355103
O O4 0.618654 0.238100 0.372259
O O5 0.235939 0.914046 0.570974
O O6 0.179426 0.004766 0.427766
O O7 0.085617 0.935063 0.704913
O O8 0.800653 0.581642 0.593440
O O9 0.704965 0.666425 0.782123
O O10 0.550012 0.936347 0.528970
O O11 0.141304 0.492389 0.762950
O O12 0.500000 0.500000 0.500000
O O13 0.250000 0.250000 0.500000
O O14 0.250000 0.250000 0.000000
#
# Coordination Sequence:
#
# PCOD9281796 Si02
#       7
#     8   8   8   4   8   4   8
#     4  11  24  45  69  97 135 182 230 285 350 407
#     4  10  21  38  64  95 133 174 217 269 328 403
#     4  11  23  44  65  98 131 176 222 278 338 400
#     4  12  24  42  68  93 142 183 230 272 338 388
#     4  12  25  39  61  95 136 180 225 264 315 397
#     4   8  16  34  58  83 116 161 204 254 318 370
#     4  10  24  44  68  94 124 168 224 282 341 397
#
# _framework density 21.918907999999998
#
# number of rings (size 3 to 8) (size 9 to 14) (size 15 to 20)
#    0.000    1.333    1.667    3.500    2.333    5.333 
#    1.500    0.000    0.000    1.000    0.000    0.000 
#    0.000    0.000    0.000    0.000    0.000    0.000 
#
# Total GULP energy -134114.221042 kJ/mol
# GULP energy per Si atom -5588.092543 kJ/mol
# Density = 2.186902 g / cm^3
# Si number density = 21.918908 Si / 1000 Ang^3
#
#
#
# Elastic Constant Matrix: (Units=GPa)
#
#
# Indices 1 2 3 4 5 6 
#
# 1 101.9184 45.6562 34.5843 0.0000 -33.8820 0.0000
# 2 45.6562 131.1306 47.0282 0.0000 -21.4177 0.0000
# 3 34.5843 47.0282 130.3170 0.0000 -11.1519 0.0000
# 4 0.0000 0.0000 0.0000 24.0539 0.0000 -11.7607
# 5 -33.8820 -21.4177 -11.1519 0.0000 42.0555 0.0000
# 6 0.0000 0.0000 0.0000 -11.7607 0.0000 46.1262
#
#
#
# Elastic Compliance Matrix: (Units=1/GPa)
#
#
# Indices 1 2 3 4 5 6 
#
# 1 0.015221 -0.002863 -0.002130 0.000000 0.010240 0.000000
# 2 -0.002863 0.009902 -0.002639 0.000000 0.002036 0.000000
# 3 -0.002130 -0.002639 0.009137 0.000000 -0.000637 0.000000
# 4 0.000000 0.000000 0.000000 0.047494 0.000000 0.012109
# 5 0.010240 0.002036 -0.000637 0.000000 0.032896 0.000000
# 6 0.000000 0.000000 0.000000 0.012109 0.000000 0.024767
#
#
# Mechanical properties :
#
#
# Convention : Reuss Voigt Hill
#
# Bulk Modulus (GPa) = 52.64493 68.65595 60.65044
# Shear Modulus (GPa) = 31.05317 38.18694 34.62005
#
# Velocity S-wave (km/s) = 3.76803 4.17849 3.97855
# Velocity P-wave (km/s) = 6.55751 7.39394 6.98825
#
# Compressibility (1/GPa) = 0.01899518
#
# Stress axis : x y z
#
# Youngs Moduli (GPa) = 65.69669 100.98959 109.44787
#
# Poissons Ratio (x) = 0.28916 0.23312
# Poissons Ratio (y) = 0.18811 0.28886
# Poissons Ratio (z) = 0.13993 0.26654
#
# Static dielectric constant tensor:
#      x y z
#    x 1.914610 0.000000 -0.016580 
#    y 0.000000 1.795360 0.000000 
#    z -0.016580 0.000000 1.814040 
# 
# From -- ./inp_files/10796.got.cif
#   From: 2010.05.17/outbox.cif.g08.bks.cpg/sg15_6_cif.got.tgz:10796.got - 2010.06.03 18:47:42.
