data_PCOD9281559
_publ_section_title
;
Structure prediction by ZEFSAII (Michael W. Deem and Ramdas Pophale) SiO2 
 PCOD9281559
Probable space group: C 2/C
;
_chemical_formula_sum "Si O2"
_cell_formula_units_Z 28
_cell_length_a 11.452882
_cell_length_b 24.254015
_cell_length_c 9.663438
_cell_angle_alpha 90.000000
_cell_angle_beta 150.971063
_cell_angle_gamma 90.000000
_cell_volume 1302.557139
_symmetry_space_group_name_H-M "C 2/C"
_symmetry_group_IT_number 15
_symmetry_cell_setting 'monoclinic'
loop_
_space_group_symop_operation_xyz
x,y,z
-x,y,1/2-z
-x,-y,-z
x,-y,1/2+z
1/2+x,1/2+y,z
1/2-x,1/2+y,1/2-z
1/2-x,1/2-y,-z
1/2+x,1/2-y,1/2+z
loop_
_atom_site_type_symbol
_atom_site_label
_atom_site_fract_x
_atom_site_fract_y
_atom_site_fract_z
Si Si1 0.500000 0.018301 0.250000
Si Si2 0.796368 0.117676 0.429148
Si Si3 0.515272 0.227742 0.105066
Si Si4 0.613687 0.453692 0.715333
O O1 0.688596 0.060909 0.378811
O O2 0.620114 0.977164 0.483048
O O3 0.593587 0.163778 0.194908
O O4 0.900888 0.101904 0.387913
O O5 0.000000 0.135205 0.750000
O O6 0.500000 0.245888 0.250000
O O7 0.744865 0.258666 0.273459
O O8 0.500000 0.449612 0.750000
O O9 0.500000 0.500000 0.500000
#
# Coordination Sequence:
#
# PCOD9281559 Si02
#       4
#     4   8   8   8
#     4  12  22  38  62  88 128 164 200 262 312 386
#     4  12  23  38  64  92 126 165 207 262 324 377
#     4  10  21  38  62  96 127 160 213 274 324 373
#     4  12  24  41  58  89 129 167 211 255 310 385
#
# _framework density 21.496179000000001
#
# number of rings (size 3 to 8) (size 9 to 14) (size 15 to 20)
#    0.000    0.571    7.143    3.429    0.000    0.000 
#    0.000    0.000    0.000    1.714    0.000    0.000 
#    0.000    0.000    0.000    0.000    0.000    0.000 
#
# Total GULP energy -78122.159010 kJ/mol
# GULP energy per Si atom -5580.154215 kJ/mol
# Density = 2.144725 g / cm^3
# Si number density = 21.496179 Si / 1000 Ang^3
#
#
#
# Elastic Constant Matrix: (Units=GPa)
#
#
# Indices 1 2 3 4 5 6 
#
# 1 124.7297 36.6775 26.9301 0.0000 -3.8269 0.0000
# 2 36.6775 96.6452 22.5579 0.0000 -0.5185 0.0000
# 3 26.9301 22.5579 92.1372 0.0000 2.3335 0.0000
# 4 0.0000 0.0000 0.0000 15.4534 0.0000 21.6263
# 5 -3.8269 -0.5185 2.3335 0.0000 37.4764 0.0000
# 6 0.0000 0.0000 0.0000 21.6263 0.0000 33.1144
#
#
#
# Elastic Compliance Matrix: (Units=1/GPa)
#
#
# Indices 1 2 3 4 5 6 
#
# 1 0.009393 -0.003089 -0.002016 0.000000 0.001042 0.000000
# 2 -0.003089 0.011994 -0.002033 0.000000 -0.000023 0.000000
# 3 -0.002016 -0.002033 0.011965 0.000000 -0.000979 0.000000
# 4 0.000000 0.000000 0.000000 0.752050 0.000000 -0.491148
# 5 0.001042 -0.000023 -0.000979 0.000000 0.026850 0.000000
# 6 0.000000 0.000000 0.000000 -0.491148 0.000000 0.350956
#
#
# Mechanical properties :
#
#
# Convention : Reuss Voigt Hill
#
# Bulk Modulus (GPa) = 52.41909 53.98258 53.20084
# Shear Modulus (GPa) = 4.22354 32.36528 18.29441
#
# Velocity S-wave (km/s) = 1.40323 3.88445 2.92045
# Velocity P-wave (km/s) = 5.20227 6.72947 6.01454
#
# Compressibility (1/GPa) = 0.01907702
#
# Stress axis : x y z
#
# Youngs Moduli (GPa) = 106.46586 83.37732 83.57681
#
# Poissons Ratio (x) = 0.25751 0.16845
# Poissons Ratio (y) = 0.32882 0.16992
# Poissons Ratio (z) = 0.21459 0.16951
#
# Static dielectric constant tensor:
#      x y z
#    x 1.867200 0.000000 0.119130 
#    y 0.000000 1.782190 0.000000 
#    z 0.119130 0.000000 1.702800 
# 
# From -- ./inp_files/24782.got.cif
#   From: 2010.05.17/outbox.cif.g08.bks.cpg/sg15_13_cif.got.tgz:24782.got - 2010.06.03 18:47:42.
