data_PCOD9281961
_publ_section_title
;
Structure prediction by ZEFSAII (Michael W. Deem and Ramdas Pophale) SiO2 
 PCOD9281961
Probable space group: C 2/C
;
_chemical_formula_sum "Si O2"
_cell_formula_units_Z 60
_cell_length_a 15.674175
_cell_length_b 23.271052
_cell_length_c 12.351040
_cell_angle_alpha 90.000000
_cell_angle_beta 140.489354
_cell_angle_gamma 90.000000
_cell_volume 2866.240538
_symmetry_space_group_name_H-M "C 2/C"
_symmetry_group_IT_number 15
_symmetry_cell_setting 'monoclinic'
loop_
_space_group_symop_operation_xyz
x,y,z
-x,y,1/2-z
-x,-y,-z
x,-y,1/2+z
1/2+x,1/2+y,z
1/2-x,1/2+y,1/2-z
1/2-x,1/2-y,-z
1/2+x,1/2-y,1/2+z
loop_
_atom_site_type_symbol
_atom_site_label
_atom_site_fract_x
_atom_site_fract_y
_atom_site_fract_z
Si Si1 0.575715 0.061185 0.085445
Si Si2 0.653082 0.954769 0.424825
Si Si3 0.272137 0.430275 0.983181
Si Si4 0.000000 0.147652 0.750000
Si Si5 0.492534 0.736936 0.925075
Si Si6 0.232270 0.228458 0.304017
Si Si7 0.908743 0.355186 0.553675
Si Si8 0.657362 0.168229 0.876877
O O1 0.681144 0.065431 0.286641
O O2 0.470023 0.110373 0.012746
O O3 0.646156 0.068643 0.039817
O O4 0.500000 0.000000 0.000000
O O5 0.500000 0.976859 0.250000
O O6 0.678890 0.899146 0.377356
O O7 0.759412 0.005129 0.515099
O O8 0.218777 0.389472 0.028475
O O9 0.407750 0.396858 0.092861
O O10 0.053160 0.192490 0.711305
O O11 0.597900 0.708456 0.111426
O O12 0.363671 0.765654 0.856872
O O13 0.583969 0.788062 0.963963
O O14 0.264241 0.190206 0.440208
O O15 0.200000 0.291719 0.319925
O O16 0.000000 0.362191 0.750000
O O17 0.500000 0.176075 0.750000
#
# Coordination Sequence:
#
# PCOD9281961 Si02
#       8
#     8   8   8   4   8   8   8   8
#     4  11  20  37  69  99 122 157 209 282 336 377
#     4  11  21  40  69 101 126 166 220 282 336 388
#     4  11  24  44  62  94 136 172 221 283 334 404
#     4  12  30  46  60  88 144 188 226 264 342 412
#     4  12  25  43  67  97 131 186 227 274 335 407
#     4  11  24  42  68 101 137 174 224 277 336 405
#     4  10  21  38  66  96 126 160 219 279 325 379
#     4  10  22  42  68 102 136 171 220 281 340 405
#
# _framework density 20.933344000000002
#
# number of rings (size 3 to 8) (size 9 to 14) (size 15 to 20)
#    0.000    1.067    4.667    2.000    7.467    1.067 
#    2.400    2.000    0.000    0.000    0.000    0.000 
#    0.000    0.000    0.000    0.000    0.000    0.000 
#
# Total GULP energy -167368.632886 kJ/mol
# GULP energy per Si atom -5578.954430 kJ/mol
# Density = 2.088570 g / cm^3
# Si number density = 20.933344 Si / 1000 Ang^3
#
#
#
# Elastic Constant Matrix: (Units=GPa)
#
#
# Indices 1 2 3 4 5 6 
#
# 1 36.6699 6.6944 6.0679 0.0000 -16.5402 0.0000
# 2 6.6944 115.5737 16.9429 0.0000 -1.4566 0.0000
# 3 6.0679 16.9429 74.4473 0.0000 -14.9070 0.0000
# 4 0.0000 0.0000 0.0000 26.7695 0.0000 -4.6435
# 5 -16.5402 -1.4566 -14.9070 0.0000 26.0931 0.0000
# 6 0.0000 0.0000 0.0000 -4.6435 0.0000 26.4708
#
#
#
# Elastic Compliance Matrix: (Units=1/GPa)
#
#
# Indices 1 2 3 4 5 6 
#
# 1 0.039029 -0.002308 0.002566 0.000000 0.026077 0.000000
# 2 -0.002308 0.009101 -0.002342 0.000000 -0.002293 0.000000
# 3 0.002566 -0.002342 0.015871 0.000000 0.010563 0.000000
# 4 0.000000 0.000000 0.000000 0.038528 0.000000 0.006759
# 5 0.026077 -0.002293 0.010563 0.000000 0.060761 0.000000
# 6 0.000000 0.000000 0.000000 0.006759 0.000000 0.038963
#
#
# Mechanical properties :
#
#
# Convention : Reuss Voigt Hill
#
# Bulk Modulus (GPa) = 16.71339 31.78905 24.25122
# Shear Modulus (GPa) = 22.08798 28.99905 25.54351
#
# Velocity S-wave (km/s) = 3.25184 3.72601 3.49697
# Velocity P-wave (km/s) = 4.70114 5.80772 5.28348
#
# Compressibility (1/GPa) = 0.05983227
#
# Stress axis : x y z
#
# Youngs Moduli (GPa) = 25.62165 109.88227 63.00664
#
# Poissons Ratio (x) = 0.25363 -0.16166
# Poissons Ratio (y) = 0.05914 0.14758
# Poissons Ratio (z) = -0.06574 0.25737
#
# Static dielectric constant tensor:
#      x y z
#    x 1.800420 0.000000 0.033050 
#    y 0.000000 1.787410 0.000000 
#    z 0.033050 0.000000 1.819360 
# 
# From -- ./inp_files/100678.got.cif
#   From: 2010.05.17/outbox.cif.g08.bks.cpg/sg15_51_cif.got.tgz:100678.got - 2010.06.03 18:47:42.
