data_PCOD9281139
_publ_section_title
;
Structure prediction by ZEFSAII (Michael W. Deem and Ramdas Pophale) SiO2 
 PCOD9281139
Probable space group: C 2/C
;
_chemical_formula_sum "Si O2"
_cell_formula_units_Z 56
_cell_length_a 13.113133
_cell_length_b 19.943509
_cell_length_c 19.247733
_cell_angle_alpha 90.000000
_cell_angle_beta 150.081120
_cell_angle_gamma 90.000000
_cell_volume 2510.677231
_symmetry_space_group_name_H-M "C 2/C"
_symmetry_group_IT_number 15
_symmetry_cell_setting 'monoclinic'
loop_
_space_group_symop_operation_xyz
x,y,z
-x,y,1/2-z
-x,-y,-z
x,-y,1/2+z
1/2+x,1/2+y,z
1/2-x,1/2+y,1/2-z
1/2-x,1/2-y,-z
1/2+x,1/2-y,1/2+z
loop_
_atom_site_type_symbol
_atom_site_label
_atom_site_fract_x
_atom_site_fract_y
_atom_site_fract_z
Si Si1 0.000000 0.050219 0.750000
Si Si2 0.000000 0.243563 0.250000
Si Si3 0.789313 0.107312 0.253906
Si Si4 0.302808 0.235829 0.772275
Si Si5 0.712072 0.467795 0.984658
Si Si6 0.850182 0.645546 0.481220
Si Si7 0.968225 0.173733 0.655698
Si Si8 0.414742 0.099261 0.129074
O O1 0.077910 0.101469 0.736832
O O2 0.165329 0.004924 0.883844
O O3 0.871187 0.279722 0.233507
O O4 0.839265 0.195566 0.115729
O O5 0.826800 0.184899 0.297238
O O6 0.710808 0.112497 0.128005
O O7 0.603387 0.081803 0.190684
O O8 0.996014 0.063873 0.380741
O O9 0.076135 0.213733 0.658721
O O10 0.452513 0.191793 0.908029
O O11 0.859364 0.407339 0.049340
O O12 0.799915 0.529304 0.080326
O O13 0.000000 0.207682 0.750000
O O14 0.758606 0.349983 0.498614
O O15 0.500000 0.129706 0.250000
#
# Coordination Sequence:
#
# PCOD9281139 Si02
#       8
#     4   4   8   8   8   8   8   8
#     4   8  17  38  66  96 124 161 224 296 302 380
#     4  10  21  38  58  98 142 179 220 280 352 420
#     4  11  24  42  69  98 131 189 223 294 350 403
#     4  11  23  39  68 100 140 179 229 282 350 425
#     4  11  20  42  69  92 134 165 233 291 331 409
#     4  11  20  40  67 101 130 177 238 284 339 408
#     4   9  21  43  69 101 133 180 239 286 331 412
#     4  11  27  45  64 101 138 180 230 283 362 417
#
# _framework density 22.304739000000001
#
# number of rings (size 3 to 8) (size 9 to 14) (size 15 to 20)
#    0.429    1.143    4.286    1.286    0.000    6.857 
#    1.286    0.000    0.000    0.000    0.000    0.000 
#    0.000    0.000    0.000    0.000    0.000    0.000 
#
# Total GULP energy -156166.147853 kJ/mol
# GULP energy per Si atom -5577.362423 kJ/mol
# Density = 2.225397 g / cm^3
# Si number density = 22.304739 Si / 1000 Ang^3
#
#
#
# Elastic Constant Matrix: (Units=GPa)
#
#
# Indices 1 2 3 4 5 6 
#
# 1 120.6749 37.9051 26.1336 0.0004 12.5307 0.0001
# 2 37.9051 92.3709 32.9982 -0.0013 15.1338 -0.0009
# 3 26.1336 32.9982 74.0995 0.0009 4.1569 0.0006
# 4 0.0004 -0.0013 0.0009 1.7428 0.0004 8.6037
# 5 12.5307 15.1338 4.1569 0.0004 29.4972 0.0001
# 6 0.0001 -0.0009 0.0006 8.6037 0.0001 25.4150
#
#
#
# Elastic Compliance Matrix: (Units=1/GPa)
#
#
# Indices 1 2 3 4 5 6 
#
# 1 0.009903 -0.002937 -0.002050 0.000003 -0.002412 -0.000001
# 2 -0.002937 0.014828 -0.005252 -0.000018 -0.005620 0.000007
# 3 -0.002050 -0.005252 0.016488 0.000013 0.001242 -0.000005
# 4 0.000003 -0.000018 0.000013 -0.854850 0.000015 0.289392
# 5 -0.002412 -0.005620 0.001242 0.000015 0.037634 -0.000006
# 6 -0.000001 0.000007 -0.000005 0.289392 -0.000006 -0.058621
#
#
# Mechanical properties :
#
#
# Convention : Reuss Voigt Hill
#
# Bulk Modulus (GPa) = 48.21194 53.46880 50.84037
# Shear Modulus (GPa) = -6.19405 24.00491 8.90543
#
# Velocity S-wave (km/s) = -1.66824 3.28414 2.00032
# Velocity P-wave (km/s) = 4.23690 6.19716 5.30830
#
# Compressibility (1/GPa) = 0.02074175
#
# Stress axis : x y z
#
# Youngs Moduli (GPa) = 100.97496 67.43973 60.65175
#
# Poissons Ratio (x) = 0.19804 0.12432
# Poissons Ratio (y) = 0.29652 0.31856
# Poissons Ratio (z) = 0.20697 0.35421
#
# Static dielectric constant tensor:
#      x y z
#    x 1.862290 0.000000 0.046540 
#    y 0.000000 1.861010 -0.000010 
#    z 0.046540 -0.000010 1.993050 
# 
# From -- ./inp_files/245202.got.cif
#   From: 2010.05.17/outbox.cif.g08.bks.cpg/sg15_123_cif.got.tgz:245202.got - 2010.06.03 18:47:42.
