data_PCOD9281967
_publ_section_title
;
Structure prediction by ZEFSAII (Michael W. Deem and Ramdas Pophale) SiO2 
 PCOD9281967
Probable space group: C 2/C
;
_chemical_formula_sum "Si O2"
_cell_formula_units_Z 32
_cell_length_a 23.480727
_cell_length_b 9.996557
_cell_length_c 18.182050
_cell_angle_alpha 90.000000
_cell_angle_beta 160.090892
_cell_angle_gamma 90.000000
_cell_volume 1453.312337
_symmetry_space_group_name_H-M "C 2/C"
_symmetry_group_IT_number 15
_symmetry_cell_setting 'monoclinic'
loop_
_space_group_symop_operation_xyz
x,y,z
-x,y,1/2-z
-x,-y,-z
x,-y,1/2+z
1/2+x,1/2+y,z
1/2-x,1/2+y,1/2-z
1/2-x,1/2-y,-z
1/2+x,1/2-y,1/2+z
loop_
_atom_site_type_symbol
_atom_site_label
_atom_site_fract_x
_atom_site_fract_y
_atom_site_fract_z
Si Si1 0.621855 0.876317 0.130518
Si Si2 0.853995 0.033130 0.630235
Si Si3 0.042781 0.670353 0.216216
Si Si4 0.495932 0.389607 0.930891
O O1 0.550735 0.750836 0.089304
O O2 0.819716 0.892740 0.381961
O O3 0.600575 0.849089 0.017025
O O4 0.500000 0.000000 0.000000
O O5 0.889230 0.178842 0.709998
O O6 0.685426 0.058567 0.380085
O O7 0.000000 0.005828 0.750000
O O8 0.861432 0.928388 0.704982
O O9 0.000000 0.659768 0.250000
O O10 0.500000 0.500000 0.000000
#
# Coordination Sequence:
#
# PCOD9281967 Si02
#       4
#     8   8   8   8
#     4  12  26  42  68 105 139 185 230 283 348 415
#     4  10  21  39  67  94 130 176 225 285 335 403
#     4  10  21  38  66  97 129 174 231 275 339 407
#     4  12  24  44  68 100 141 179 231 287 345 405
#
# _framework density 22.018666
#
# number of rings (size 3 to 8) (size 9 to 14) (size 15 to 20)
#    0.000    1.000    2.500    4.500    7.000    0.000 
#    0.000    6.250    0.000    0.000    0.000    0.000 
#    0.000    0.000    0.000    0.000    0.000    0.000 
#
# Total GULP energy -89454.178962 kJ/mol
# GULP energy per Si atom -5590.886185 kJ/mol
# Density = 2.196855 g / cm^3
# Si number density = 22.018666 Si / 1000 Ang^3
#
#
#
# Elastic Constant Matrix: (Units=GPa)
#
#
# Indices 1 2 3 4 5 6 
#
# 1 89.4009 47.4846 13.2292 0.0000 1.5152 0.0000
# 2 47.4846 126.0801 7.7051 0.0001 6.5247 0.0000
# 3 13.2292 7.7051 58.2446 0.0001 -8.0672 0.0001
# 4 0.0000 0.0001 0.0001 24.9826 0.0001 -0.7592
# 5 1.5152 6.5247 -8.0672 0.0001 49.7143 0.0001
# 6 0.0000 0.0000 0.0001 -0.7592 0.0001 32.6508
#
#
#
# Elastic Compliance Matrix: (Units=1/GPa)
#
#
# Indices 1 2 3 4 5 6 
#
# 1 0.014355 -0.005239 -0.002591 0.000000 -0.000170 0.000000
# 2 -0.005239 0.009985 -0.000297 0.000000 -0.001199 0.000000
# 3 -0.002591 -0.000297 0.018223 0.000000 0.003075 0.000000
# 4 0.000000 0.000000 0.000000 0.040056 0.000000 0.000931
# 5 -0.000170 -0.001199 0.003075 0.000000 0.020776 0.000000
# 6 0.000000 0.000000 0.000000 0.000931 0.000000 0.030649
#
#
# Mechanical properties :
#
#
# Convention : Reuss Voigt Hill
#
# Bulk Modulus (GPa) = 38.01113 45.61814 41.81463
# Shear Modulus (GPa) = 31.43336 35.15666 33.29501
#
# Velocity S-wave (km/s) = 3.78243 4.00018 3.89283
# Velocity P-wave (km/s) = 6.03128 6.48831 6.26396
#
# Compressibility (1/GPa) = 0.02630808
#
# Stress axis : x y z
#
# Youngs Moduli (GPa) = 69.66431 100.15202 54.87679
#
# Poissons Ratio (x) = 0.52471 0.14218
# Poissons Ratio (y) = 0.36498 0.01630
# Poissons Ratio (z) = 0.18049 0.02974
#
# Static dielectric constant tensor:
#      x y z
#    x 1.814470 0.000000 0.022740 
#    y 0.000000 1.791790 0.000000 
#    z 0.022740 0.000000 1.863770 
# 
# From -- ./inp_files/36557.got.cif
#   From: 2010.05.17/outbox.cif.g08.bks.cpg/sg15_19_cif.got.tgz:36557.got - 2010.06.03 18:47:42.
