data_PCOD9281075
_publ_section_title
;
Structure prediction by ZEFSAII (Michael W. Deem and Ramdas Pophale) SiO2 
 PCOD9281075
Probable space group: C 2/C
;
_chemical_formula_sum "Si O2"
_cell_formula_units_Z 60
_cell_length_a 27.007033
_cell_length_b 8.585310
_cell_length_c 18.742648
_cell_angle_alpha 90.000000
_cell_angle_beta 146.143450
_cell_angle_gamma 90.000000
_cell_volume 2421.079535
_symmetry_space_group_name_H-M "C 2/C"
_symmetry_group_IT_number 15
_symmetry_cell_setting 'monoclinic'
loop_
_space_group_symop_operation_xyz
x,y,z
-x,y,1/2-z
-x,-y,-z
x,-y,1/2+z
1/2+x,1/2+y,z
1/2-x,1/2+y,1/2-z
1/2-x,1/2-y,-z
1/2+x,1/2-y,1/2+z
loop_
_atom_site_type_symbol
_atom_site_label
_atom_site_fract_x
_atom_site_fract_y
_atom_site_fract_z
Si Si1 0.607256 0.006889 0.111138
Si Si2 0.207041 0.917462 0.433227
Si Si3 0.125273 0.856270 0.124319
Si Si4 0.000000 0.415522 0.750000
Si Si5 0.665023 0.572976 0.523813
Si Si6 0.156947 0.438435 0.505606
Si Si7 0.503674 0.637568 0.650353
Si Si8 0.067203 0.818499 0.595094
O O1 0.644941 0.181475 0.178462
O O2 0.626890 0.836506 0.170746
O O3 0.500000 0.000000 0.000000
O O4 0.632283 0.005702 0.056570
O O5 0.250000 0.750000 0.500000
O O6 0.102402 0.916662 0.288880
O O7 0.221084 0.007551 0.525021
O O8 0.255951 0.986577 0.423166
O O9 0.025198 0.821838 0.970923
O O10 0.187879 0.923477 0.136132
O O11 0.112959 0.013359 0.155628
O O12 0.085521 0.516317 0.860869
O O13 0.000051 0.304185 0.682993
O O14 0.657525 0.754854 0.504137
O O15 0.573925 0.472446 0.411923
O O16 0.474566 0.673388 0.534665
#
# Coordination Sequence:
#
# PCOD9281075 Si02
#       8
#     8   8   8   4   8   8   8   8
#     4   9  17  32  55  84 105 141 191 237 279 338
#     4  12  23  37  54  83 120 154 188 231 291 348
#     4   8  17  30  53  85 105 136 194 235 281 331
#     4  12  20  34  56  86 110 150 196 226 278 356
#     4  10  21  38  58  81 114 154 191 241 283 346
#     4  11  23  36  57  87 115 147 191 241 292 339
#     4  11  20  36  57  81 115 154 194 230 281 348
#     4   9  16  31  55  81 108 141 184 243 278 326
#
# _framework density 24.782333999999999
#
# number of rings (size 3 to 8) (size 9 to 14) (size 15 to 20)
#    0.000    1.867    4.000    0.400    3.733    0.000 
#    0.000    0.000    0.000    6.400    0.000    0.000 
#    0.000    0.000    0.000    0.000    0.000    0.000 
#
# Total GULP energy -167216.177735 kJ/mol
# GULP energy per Si atom -5573.872591 kJ/mol
# Density = 2.472593 g / cm^3
# Si number density = 24.782334 Si / 1000 Ang^3
#
#
#
# Elastic Constant Matrix: (Units=GPa)
#
#
# Indices 1 2 3 4 5 6 
#
# 1 134.2408 26.3187 4.9318 0.0000 4.1259 0.0000
# 2 26.3187 146.0030 -5.5766 0.0000 -8.3391 0.0000
# 3 4.9318 -5.5766 69.5002 0.0000 0.3401 0.0000
# 4 0.0000 0.0000 0.0000 11.7885 0.0000 8.9908
# 5 4.1259 -8.3391 0.3401 0.0000 34.1086 0.0000
# 6 0.0000 0.0000 0.0000 8.9908 0.0000 51.3843
#
#
#
# Elastic Compliance Matrix: (Units=1/GPa)
#
#
# Indices 1 2 3 4 5 6 
#
# 1 0.007810 -0.001508 -0.000669 0.000000 -0.001307 0.000000
# 2 -0.001508 0.007258 0.000680 0.000000 0.001950 0.000000
# 3 -0.000669 0.000680 0.014490 0.000000 0.000103 0.000000
# 4 0.000000 0.000000 0.000000 0.097892 0.000000 -0.017128
# 5 -0.001307 0.001950 0.000103 0.000000 0.029952 0.000000
# 6 0.000000 0.000000 0.000000 -0.017128 0.000000 0.022458
#
#
# Mechanical properties :
#
#
# Convention : Reuss Voigt Hill
#
# Bulk Modulus (GPa) = 37.64461 44.56576 41.10518
# Shear Modulus (GPa) = 26.08122 41.06095 33.57108
#
# Velocity S-wave (km/s) = 3.24761 4.07487 3.68453
# Velocity P-wave (km/s) = 5.41163 6.33730 5.89267
#
# Compressibility (1/GPa) = 0.02656423
#
# Stress axis : x y z
#
# Youngs Moduli (GPa) = 128.04631 137.77228 69.01334
#
# Poissons Ratio (x) = 0.20776 0.04615
# Poissons Ratio (y) = 0.19309 -0.04692
# Poissons Ratio (z) = 0.08563 -0.09367
#
# Static dielectric constant tensor:
#      x y z
#    x 2.176480 0.000000 0.096920 
#    y 0.000000 2.020470 0.000000 
#    z 0.096920 0.000000 2.175850 
# 
# From -- ./inp_files/283232.got.cif
#   From: 2010.05.17/outbox.cif.g08.bks.cpg/sg15_142_cif.got.tgz:283232.got - 2010.06.03 18:47:42.
