data_PCOD9281373
_publ_section_title
;
Structure prediction by ZEFSAII (Michael W. Deem and Ramdas Pophale) SiO2 
 PCOD9281373
Probable space group: C 2/C
;
_chemical_formula_sum "Si O2"
_cell_formula_units_Z 48
_cell_length_a 8.456488
_cell_length_b 12.221484
_cell_length_c 23.481886
_cell_angle_alpha 90.000000
_cell_angle_beta 111.540309
_cell_angle_gamma 90.000000
_cell_volume 2257.378475
_symmetry_space_group_name_H-M "C 2/C"
_symmetry_group_IT_number 15
_symmetry_cell_setting 'monoclinic'
loop_
_space_group_symop_operation_xyz
x,y,z
-x,y,1/2-z
-x,-y,-z
x,-y,1/2+z
1/2+x,1/2+y,z
1/2-x,1/2+y,1/2-z
1/2-x,1/2-y,-z
1/2+x,1/2-y,1/2+z
loop_
_atom_site_type_symbol
_atom_site_label
_atom_site_fract_x
_atom_site_fract_y
_atom_site_fract_z
Si Si1 0.464438 0.302061 0.082193
Si Si2 0.133427 0.331386 0.819907
Si Si3 0.718299 0.077847 0.832828
Si Si4 0.899344 0.673224 0.496152
Si Si5 0.816410 0.466964 0.412966
Si Si6 0.674117 0.875253 0.200687
O O1 0.444273 0.216462 0.131860
O O2 0.647704 0.358623 0.111878
O O3 0.464416 0.245198 0.020970
O O4 0.325415 0.395457 0.073958
O O5 0.216043 0.448392 0.842701
O O6 0.265364 0.240464 0.815602
O O7 0.000000 0.346462 0.750000
O O8 0.527232 0.119678 0.816860
O O9 0.761530 0.099902 0.772278
O O10 0.750000 0.750000 0.500000
O O11 0.826446 0.585848 0.441319
O O12 0.005059 0.598298 0.554351
O O13 0.779181 0.464184 0.341066
#
# Coordination Sequence:
#
# PCOD9281373 Si02
#       6
#     8   8   8   8   8   8
#     4  11  24  40  66  92 126 163 207 250 315 364
#     4  11  21  39  61  89 126 162 198 250 307 368
#     4  11  22  37  61  93 124 164 199 255 303 377
#     4  11  24  43  66  89 124 162 211 258 306 355
#     4  10  24  42  62  92 122 163 206 259 302 368
#     4  10  21  38  61  88 126 158 205 246 312 362
#
# _framework density 21.263604000000001
#
# number of rings (size 3 to 8) (size 9 to 14) (size 15 to 20)
#    0.000    1.333    3.333    2.500    0.000    6.000 
#    0.000    5.000    0.000    0.000    0.000    0.000 
#    0.000    0.000    0.000    0.000    0.000    0.000 
#
# Total GULP energy -134208.909283 kJ/mol
# GULP energy per Si atom -5592.037887 kJ/mol
# Density = 2.121521 g / cm^3
# Si number density = 21.263604 Si / 1000 Ang^3
#
#
#
# Elastic Constant Matrix: (Units=GPa)
#
#
# Indices 1 2 3 4 5 6 
#
# 1 55.3506 26.2972 3.2825 0.0000 -18.6261 0.0000
# 2 26.2972 92.3165 3.7237 0.0000 -9.5734 0.0000
# 3 3.2825 3.7237 27.7731 0.0000 -14.0691 0.0000
# 4 0.0000 0.0000 0.0000 25.1850 0.0000 -3.7457
# 5 -18.6261 -9.5734 -14.0691 0.0000 30.6026 0.0000
# 6 0.0000 0.0000 0.0000 -3.7457 0.0000 13.0728
#
#
#
# Elastic Compliance Matrix: (Units=1/GPa)
#
#
# Indices 1 2 3 4 5 6 
#
# 1 0.026254 -0.005969 0.006317 0.000000 0.017017 0.000000
# 2 -0.005969 0.012555 -0.001080 0.000000 -0.000202 0.000000
# 3 0.006317 -0.001080 0.048469 0.000000 0.025790 0.000000
# 4 0.000000 0.000000 0.000000 0.041473 0.000000 0.011883
# 5 0.017017 -0.000202 0.025790 0.000000 0.054828 0.000000
# 6 0.000000 0.000000 0.000000 0.011883 0.000000 0.079900
#
#
# Mechanical properties :
#
#
# Convention : Reuss Voigt Hill
#
# Bulk Modulus (GPa) = 11.65296 26.89409 19.27353
# Shear Modulus (GPa) = 17.03304 23.24785 20.14044
#
# Velocity S-wave (km/s) = 2.83334 3.31012 3.08097
# Velocity P-wave (km/s) = 4.02441 5.22347 4.66264
#
# Compressibility (1/GPa) = 0.08581508
#
# Stress axis : x y z
#
# Youngs Moduli (GPa) = 38.08924 79.64809 20.63181
#
# Poissons Ratio (x) = 0.47541 -0.13034
# Poissons Ratio (y) = 0.22735 0.02229
# Poissons Ratio (z) = -0.24063 0.08603
#
# Static dielectric constant tensor:
#      x y z
#    x 1.750290 0.000000 0.001360 
#    y 0.000000 1.738580 0.000000 
#    z 0.001360 0.000000 1.733180 
# 
# From -- ./inp_files/263247.got.cif
#   From: 2010.05.17/outbox.cif.g08.bks.cpg/sg15_132_cif.got.tgz:263247.got - 2010.06.03 18:47:42.
