data_PCOD9281478
_publ_section_title
;
Structure prediction by ZEFSAII (Michael W. Deem and Ramdas Pophale) SiO2 
 PCOD9281478
Probable space group: C 2/C
;
_chemical_formula_sum "Si O2"
_cell_formula_units_Z 48
_cell_length_a 30.650689
_cell_length_b 5.576381
_cell_length_c 25.181250
_cell_angle_alpha 90.000000
_cell_angle_beta 143.806982
_cell_angle_gamma 90.000000
_cell_volume 2541.530094
_symmetry_space_group_name_H-M "C 2/C"
_symmetry_group_IT_number 15
_symmetry_cell_setting 'monoclinic'
loop_
_space_group_symop_operation_xyz
x,y,z
-x,y,1/2-z
-x,-y,-z
x,-y,1/2+z
1/2+x,1/2+y,z
1/2-x,1/2+y,1/2-z
1/2-x,1/2-y,-z
1/2+x,1/2-y,1/2+z
loop_
_atom_site_type_symbol
_atom_site_label
_atom_site_fract_x
_atom_site_fract_y
_atom_site_fract_z
Si Si1 0.336431 0.496490 0.384088
Si Si2 0.049779 0.637000 0.246732
Si Si3 0.090835 0.135465 0.251784
Si Si4 0.824530 0.699051 0.763464
Si Si5 0.563360 0.830769 0.584391
Si Si6 0.529348 0.387687 0.420188
O O1 0.257096 0.404518 0.324113
O O2 0.326782 0.664484 0.322505
O O3 0.386336 0.277238 0.412102
O O4 0.386480 0.612062 0.479173
O O5 0.093854 0.388381 0.284740
O O6 0.000000 0.637145 0.250000
O O7 0.995426 0.671624 0.142434
O O8 0.097393 0.884727 0.290181
O O9 0.147420 0.141855 0.258032
O O10 0.006460 0.111423 0.146047
O O11 0.882438 0.481628 0.824870
O O12 0.520251 0.631931 0.575533
O O13 0.500000 0.000000 0.500000
#
# Coordination Sequence:
#
# PCOD9281478 Si02
#       6
#     8   8   8   8   8   8
#     4  12  23  35  53  85 125 165 200 232 290 358
#     4  10  21  39  66  90 110 146 206 265 310 353
#     4  10  21  38  62  89 115 154 198 251 304 353
#     4  12  22  36  53  85 126 166 196 236 292 356
#     4  12  21  35  57  82 123 162 204 241 285 353
#     4  10  22  35  60  88 115 159 198 254 289 352
#
# _framework density 18.886258999999999
#
# number of rings (size 3 to 8) (size 9 to 14) (size 15 to 20)
#    1.000    0.000    6.667    2.000    0.000    0.000 
#    0.000    0.000    0.000    2.000    0.000    0.000 
#    0.000    0.000    0.000    0.000    0.000    0.000 
#
# Total GULP energy -133754.050808 kJ/mol
# GULP energy per Si atom -5573.085450 kJ/mol
# Density = 1.884327 g / cm^3
# Si number density = 18.886259 Si / 1000 Ang^3
#
#
#
# Elastic Constant Matrix: (Units=GPa)
#
#
# Indices 1 2 3 4 5 6 
#
# 1 54.5372 15.5226 7.6021 0.0033 6.1707 0.0013
# 2 15.5226 98.5726 9.3832 0.0062 8.8670 0.0015
# 3 7.6021 9.3832 77.1583 0.0062 29.2525 0.0022
# 4 0.0033 0.0062 0.0062 18.9377 0.0004 1.2014
# 5 6.1707 8.8670 29.2525 0.0004 17.2343 0.0007
# 6 0.0013 0.0015 0.0022 1.2014 0.0007 22.0365
#
#
#
# Elastic Compliance Matrix: (Units=1/GPa)
#
#
# Indices 1 2 3 4 5 6 
#
# 1 0.019787 -0.002505 0.001549 -0.000003 -0.008425 -0.000001
# 2 -0.002505 0.011088 0.002023 -0.000004 -0.008241 0.000000
# 3 0.001549 0.002023 0.036933 -0.000012 -0.064284 -0.000001
# 4 -0.000003 -0.000004 -0.000012 0.052988 0.000022 -0.002889
# 5 -0.008425 -0.008241 -0.064284 0.000022 0.174392 0.000001
# 6 -0.000001 0.000000 -0.000001 -0.002889 0.000001 0.045537
#
#
# Mechanical properties :
#
#
# Convention : Reuss Voigt Hill
#
# Bulk Modulus (GPa) = 14.29762 32.80932 23.55347
# Shear Modulus (GPa) = 13.81578 24.82572 19.32075
#
# Velocity S-wave (km/s) = 2.70761 3.62952 3.20192
# Velocity P-wave (km/s) = 4.16673 5.91391 5.11546
#
# Compressibility (1/GPa) = 0.06994171
#
# Stress axis : x y z
#
# Youngs Moduli (GPa) = 50.53936 90.18653 27.07592
#
# Poissons Ratio (x) = 0.22596 -0.04195
# Poissons Ratio (y) = 0.12662 -0.05477
# Poissons Ratio (z) = -0.07831 -0.18244
#
# Static dielectric constant tensor:
#      x y z
#    x 1.666340 0.000000 -0.020380 
#    y 0.000000 1.734230 0.000000 
#    z -0.020380 0.000000 1.649260 
# 
# From -- ./inp_files/319989.got.cif
#   From: 2010.05.17/outbox.cif.g08.bks.cpg/sg15_160_cif.got.tgz:319989.got - 2010.06.03 18:47:42.
