data_PCOD9281340
_publ_section_title
;
Structure prediction by ZEFSAII (Michael W. Deem and Ramdas Pophale) SiO2 
 PCOD9281340
Probable space group: C 2/C
;
_chemical_formula_sum "Si O2"
_cell_formula_units_Z 40
_cell_length_a 24.350742
_cell_length_b 13.508515
_cell_length_c 13.840861
_cell_angle_alpha 90.000000
_cell_angle_beta 156.798006
_cell_angle_gamma 90.000000
_cell_volume 1793.702296
_symmetry_space_group_name_H-M "C 2/C"
_symmetry_group_IT_number 15
_symmetry_cell_setting 'monoclinic'
loop_
_space_group_symop_operation_xyz
x,y,z
-x,y,1/2-z
-x,-y,-z
x,-y,1/2+z
1/2+x,1/2+y,z
1/2-x,1/2+y,1/2-z
1/2-x,1/2-y,-z
1/2+x,1/2-y,1/2+z
loop_
_atom_site_type_symbol
_atom_site_label
_atom_site_fract_x
_atom_site_fract_y
_atom_site_fract_z
Si Si1 0.015588 0.294880 0.621890
Si Si2 0.276557 0.315984 0.161242
Si Si3 0.351926 0.398125 0.846777
Si Si4 0.297296 0.048020 0.786328
Si Si5 0.137784 0.001364 0.834020
O O1 0.106530 0.264969 0.674344
O O2 0.891939 0.214578 0.428223
O O3 0.949135 0.403602 0.516288
O O4 0.123755 0.279013 0.884530
O O5 0.277804 0.371571 0.264699
O O6 0.299819 0.402688 0.119102
O O7 0.215879 0.444990 0.675897
O O8 0.357764 0.418478 0.741911
O O9 0.479603 0.463739 0.096804
O O10 0.221206 0.031301 0.562196
#
# Coordination Sequence:
#
# PCOD9281340 Si02
#       5
#     8   8   8   8   8
#     4  10  21  38  61  86 121 160 204 252 299 364
#     4   9  21  40  60  88 122 158 206 251 300 371
#     4   9  20  38  58  84 118 159 203 243 300 370
#     4  11  21  35  63  91 119 159 202 251 307 356
#     4   9  19  37  58  82 118 157 197 250 302 357
#
# _framework density 22.300245
#
# number of rings (size 3 to 8) (size 9 to 14) (size 15 to 20)
#    0.000    2.400    0.000    2.400    0.000    9.600 
#    0.000    0.000    0.000    7.200    0.000    0.000 
#    0.000    0.000    0.000    0.000    0.000    0.000 
#
# Total GULP energy -111657.509372 kJ/mol
# GULP energy per Si atom -5582.875469 kJ/mol
# Density = 2.224949 g / cm^3
# Si number density = 22.300245 Si / 1000 Ang^3
#
#
#
# Elastic Constant Matrix: (Units=GPa)
#
#
# Indices 1 2 3 4 5 6 
#
# 1 96.1521 26.4672 36.6787 0.0000 -7.5345 0.0000
# 2 26.4672 63.4837 17.8641 0.0000 14.8331 0.0000
# 3 36.6787 17.8641 40.8377 0.0000 3.7645 0.0000
# 4 0.0000 0.0000 0.0000 32.1030 0.0000 0.2105
# 5 -7.5345 14.8331 3.7645 0.0000 38.1287 0.0000
# 6 0.0000 0.0000 0.0000 0.2105 0.0000 42.4043
#
#
#
# Elastic Compliance Matrix: (Units=1/GPa)
#
#
# Indices 1 2 3 4 5 6 
#
# 1 0.017829 -0.004969 -0.014474 0.000000 0.006885 0.000000
# 2 -0.004969 0.020967 -0.003902 0.000000 -0.008753 0.000000
# 3 -0.014474 -0.003902 0.039679 0.000000 -0.005260 0.000000
# 4 0.000000 0.000000 0.000000 0.031151 0.000000 -0.000155
# 5 0.006885 -0.008753 -0.005260 0.000000 0.031512 0.000000
# 6 0.000000 0.000000 0.000000 -0.000155 0.000000 0.023583
#
#
# Mechanical properties :
#
#
# Convention : Reuss Voigt Hill
#
# Bulk Modulus (GPa) = 31.46185 40.27707 35.86946
# Shear Modulus (GPa) = 22.52188 30.49145 26.50667
#
# Velocity S-wave (km/s) = 3.18140 3.70173 3.45139
# Velocity P-wave (km/s) = 5.25681 6.03083 5.65707
#
# Compressibility (1/GPa) = 0.03178452
#
# Stress axis : x y z
#
# Youngs Moduli (GPa) = 56.08871 47.69416 25.20216
#
# Poissons Ratio (x) = 0.23698 0.36478
# Poissons Ratio (y) = 0.27870 0.09834
# Poissons Ratio (z) = 0.81184 0.18611
#
# Static dielectric constant tensor:
#      x y z
#    x 1.914460 0.000000 0.076610 
#    y 0.000000 1.843440 0.000000 
#    z 0.076610 0.000000 1.856570 
# 
# From -- ./inp_files/178491.got.cif
#   From: 2010.05.17/outbox.cif.g08.bks.cpg/sg15_90_cif.got.tgz:178491.got - 2010.06.03 18:47:42.
