data_PCOD9281441
_publ_section_title
;
Structure prediction by ZEFSAII (Michael W. Deem and Ramdas Pophale) SiO2 
 PCOD9281441
Probable space group: C 2/C
;
_chemical_formula_sum "Si O2"
_cell_formula_units_Z 60
_cell_length_a 17.133254
_cell_length_b 28.411295
_cell_length_c 11.290820
_cell_angle_alpha 90.000000
_cell_angle_beta 148.423502
_cell_angle_gamma 90.000000
_cell_volume 2877.970072
_symmetry_space_group_name_H-M "C 2/C"
_symmetry_group_IT_number 15
_symmetry_cell_setting 'monoclinic'
loop_
_space_group_symop_operation_xyz
x,y,z
-x,y,1/2-z
-x,-y,-z
x,-y,1/2+z
1/2+x,1/2+y,z
1/2-x,1/2+y,1/2-z
1/2-x,1/2-y,-z
1/2+x,1/2-y,1/2+z
loop_
_atom_site_type_symbol
_atom_site_label
_atom_site_fract_x
_atom_site_fract_y
_atom_site_fract_z
Si Si1 0.797961 0.956731 0.692985
Si Si2 0.326275 0.805363 0.773166
Si Si3 0.871201 0.842349 0.180492
Si Si4 0.452331 0.105818 0.555948
Si Si5 0.941402 0.771949 0.917895
Si Si6 0.882830 0.059974 0.812313
Si Si7 0.000000 0.817583 0.750000
Si Si8 0.783097 0.902218 0.426851
O O1 0.642520 0.941731 0.551289
O O2 0.810673 0.925455 0.590816
O O3 0.811465 0.011374 0.677761
O O4 0.937446 0.944598 0.958341
O O5 0.257809 0.814684 0.555532
O O6 0.481980 0.778454 0.970334
O O7 0.211497 0.776271 0.707097
O O8 0.346680 0.855535 0.861868
O O9 0.946228 0.809490 0.376035
O O10 0.829172 0.892933 0.178413
O O11 0.000000 0.850531 0.250000
O O12 0.500000 0.121337 0.750000
O O13 0.605687 0.101853 0.683748
O O14 0.934323 0.786723 0.771843
O O15 0.845320 0.066000 0.902300
O O16 0.869201 0.852633 0.536863
#
# Coordination Sequence:
#
# PCOD9281441 Si02
#       8
#     8   8   8   8   8   8   4   8
#     4  10  21  38  61  96 131 167 212 270 323 382
#     4  11  25  42  65  92 128 168 216 263 325 393
#     4  10  21  42  63  90 133 171 211 266 324 380
#     4  10  23  42  62  88 133 168 203 268 337 374
#     4  11  24  40  65  94 124 170 211 268 319 380
#     4  11  21  37  68  94 123 170 227 257 316 389
#     4  12  22  40  70  90 130 158 220 268 320 380
#     4  11  21  40  64  91 126 166 210 271 321 379
#
# _framework density 20.848026999999998
#
# number of rings (size 3 to 8) (size 9 to 14) (size 15 to 20)
#    0.000    1.333    2.667    3.600    2.800    4.267 
#    0.000    4.667    0.000    0.000    0.000    0.000 
#    0.000    0.000    0.000    0.000    0.000    0.000 
#
# Total GULP energy -167709.450685 kJ/mol
# GULP energy per Si atom -5590.315023 kJ/mol
# Density = 2.080058 g / cm^3
# Si number density = 20.848027 Si / 1000 Ang^3
#
#
#
# Elastic Constant Matrix: (Units=GPa)
#
#
# Indices 1 2 3 4 5 6 
#
# 1 38.9985 -2.8580 14.0028 0.0000 6.6891 0.0000
# 2 -2.8580 47.7618 -10.7418 0.0000 -2.1443 0.0000
# 3 14.0028 -10.7418 36.4184 0.0000 9.9319 0.0000
# 4 0.0000 0.0000 0.0000 18.8915 0.0000 7.6793
# 5 6.6891 -2.1443 9.9319 0.0000 27.6826 0.0000
# 6 0.0000 0.0000 0.0000 7.6793 0.0000 0.0506
#
#
#
# Elastic Compliance Matrix: (Units=1/GPa)
#
#
# Indices 1 2 3 4 5 6 
#
# 1 0.030072 -0.000797 -0.010862 0.000000 -0.003431 0.000000
# 2 -0.000797 0.022458 0.007098 0.000000 -0.000614 0.000000
# 3 -0.010862 0.007098 0.036427 0.000000 -0.009895 0.000000
# 4 0.000000 0.000000 0.000000 -0.000872 0.000000 0.132365
# 5 -0.003431 -0.000614 -0.009895 0.000000 0.040455 0.000000
# 6 0.000000 0.000000 0.000000 0.132365 0.000000 -0.325625
#
#
# Mechanical properties :
#
#
# Convention : Reuss Voigt Hill
#
# Bulk Modulus (GPa) = 12.52577 13.77608 13.15092
# Shear Modulus (GPa) = -30.98865 17.50998 -6.73933
#
# Velocity S-wave (km/s) = -3.85958 2.90122 -1.79989
# Velocity P-wave (km/s) = 3.72030 4.22433 1.41499
#
# Compressibility (1/GPa) = 0.07983539
#
# Stress axis : x y z
#
# Youngs Moduli (GPa) = 33.25323 44.52680 27.45196
#
# Poissons Ratio (x) = 0.03551 0.29819
# Poissons Ratio (y) = 0.02652 -0.19487
# Poissons Ratio (z) = 0.36120 -0.31607
#
# Static dielectric constant tensor:
#      x y z
#    x 1.748660 0.000000 0.008470 
#    y 0.000000 1.717810 0.000000 
#    z 0.008470 0.000000 1.756270 
# 
# From -- ./inp_files/108608.got.cif
#   From: 2010.05.17/outbox.cif.g08.bks.cpg/sg15_55_cif.got.tgz:108608.got - 2010.06.03 18:47:42.
