data_PCOD9281527
_publ_section_title
;
Structure prediction by ZEFSAII (Michael W. Deem and Ramdas Pophale) SiO2 
 PCOD9281527
Probable space group: C 2/C
;
_chemical_formula_sum "Si O2"
_cell_formula_units_Z 56
_cell_length_a 10.237387
_cell_length_b 22.297373
_cell_length_c 12.149962
_cell_angle_alpha 90.000000
_cell_angle_beta 56.877184
_cell_angle_gamma 90.000000
_cell_volume 2322.753749
_symmetry_space_group_name_H-M "C 2/C"
_symmetry_group_IT_number 15
_symmetry_cell_setting 'monoclinic'
loop_
_space_group_symop_operation_xyz
x,y,z
-x,y,1/2-z
-x,-y,-z
x,-y,1/2+z
1/2+x,1/2+y,z
1/2-x,1/2+y,1/2-z
1/2-x,1/2-y,-z
1/2+x,1/2-y,1/2+z
loop_
_atom_site_type_symbol
_atom_site_label
_atom_site_fract_x
_atom_site_fract_y
_atom_site_fract_z
Si Si1 0.742628 0.924147 0.789200
Si Si2 0.253971 0.418444 0.044281
Si Si3 0.196817 0.356411 0.378154
Si Si4 0.671310 0.789724 0.156851
Si Si5 0.120544 0.043117 0.795432
Si Si6 0.000000 0.210864 0.750000
Si Si7 0.388912 0.804867 0.622604
Si Si8 0.500000 0.011415 0.250000
O O1 0.734113 0.853003 0.772198
O O2 0.583629 0.949075 0.805677
O O3 0.863775 0.972743 0.686871
O O4 0.776076 0.929139 0.904662
O O5 0.184227 0.351390 0.083116
O O6 0.384587 0.424087 0.082320
O O7 0.128998 0.468108 0.138208
O O8 0.193134 0.317936 0.268804
O O9 0.225515 0.425234 0.329932
O O10 0.356513 0.330607 0.357681
O O11 0.037581 0.342320 0.512684
O O12 0.500000 0.762048 0.250000
O O13 0.698611 0.760701 0.921510
O O14 0.000000 0.050031 0.750000
O O15 0.047256 0.256872 0.822018
#
# Coordination Sequence:
#
# PCOD9281527 Si02
#       8
#     8   8   8   8   8   4   8   4
#     4  11  24  38  63  95 130 163 209 269 326 384
#     4  10  21  38  65  92 121 170 218 263 312 385
#     4  10  21  39  67  88 121 170 223 267 310 385
#     4  10  21  39  60  91 133 170 213 259 316 396
#     4  10  23  43  65  91 126 171 220 268 321 388
#     4  10  21  44  62  94 125 168 218 274 320 382
#     4  11  24  37  64  97 131 170 210 268 332 387
#     4  10  21  38  62  92 121 164 214 266 312 378
#
# _framework density 24.109313
#
# number of rings (size 3 to 8) (size 9 to 14) (size 15 to 20)
#    0.000    1.714    1.429    2.143    6.000    3.429 
#    0.000    1.429    0.000    0.000    0.000    0.000 
#    0.000    0.000    0.000    0.000    0.000    0.000 
#
# Total GULP energy -156059.916005 kJ/mol
# GULP energy per Si atom -5573.568429 kJ/mol
# Density = 2.405444 g / cm^3
# Si number density = 24.109313 Si / 1000 Ang^3
#
#
#
# Elastic Constant Matrix: (Units=GPa)
#
#
# Indices 1 2 3 4 5 6 
#
# 1 129.0023 36.6220 30.0277 0.0000 29.3684 0.0000
# 2 36.6220 124.9300 20.0917 0.0000 -5.5465 0.0000
# 3 30.0277 20.0917 47.3397 0.0000 3.9435 0.0000
# 4 0.0000 0.0000 0.0000 41.8877 0.0000 10.5088
# 5 29.3684 -5.5465 3.9435 0.0000 40.3595 0.0000
# 6 0.0000 0.0000 0.0000 10.5088 0.0000 29.5143
#
#
#
# Elastic Compliance Matrix: (Units=1/GPa)
#
#
# Indices 1 2 3 4 5 6 
#
# 1 0.011799 -0.002944 -0.005530 0.000000 -0.008450 0.000000
# 2 -0.002944 0.009423 -0.002438 0.000000 0.003676 0.000000
# 3 -0.005530 -0.002438 0.025567 0.000000 0.001191 0.000000
# 4 0.000000 0.000000 0.000000 0.026215 0.000000 -0.009334
# 5 -0.008450 0.003676 0.001191 0.000000 0.031315 0.000000
# 6 0.000000 0.000000 0.000000 -0.009334 0.000000 0.037205
#
#
# Mechanical properties :
#
#
# Convention : Reuss Voigt Hill
#
# Bulk Modulus (GPa) = 40.05821 52.75056 46.40438
# Shear Modulus (GPa) = 29.12560 36.65433 32.88996
#
# Velocity S-wave (km/s) = 3.47949 3.90338 3.69752
# Velocity P-wave (km/s) = 5.72659 6.49942 6.12520
#
# Compressibility (1/GPa) = 0.02496367
#
# Stress axis : x y z
#
# Youngs Moduli (GPa) = 84.75566 106.12518 39.11252
#
# Poissons Ratio (x) = 0.31247 0.21631
# Poissons Ratio (y) = 0.24955 0.09535
# Poissons Ratio (z) = 0.46873 0.25871
#
# Static dielectric constant tensor:
#      x y z
#    x 2.174800 0.000000 0.070040 
#    y 0.000000 1.875270 0.000000 
#    z 0.070040 0.000000 2.039170 
# 
# From -- ./inp_files/89582.got.cif
#   From: 2010.05.17/outbox.cif.g08.bks.cpg/sg15_45_cif.got.tgz:89582.got - 2010.06.03 18:47:42.
