data_PCOD9281912
_publ_section_title
;
Structure prediction by ZEFSAII (Michael W. Deem and Ramdas Pophale) SiO2 
 PCOD9281912
Probable space group: C 2/C
;
_chemical_formula_sum "Si O2"
_cell_formula_units_Z 40
_cell_length_a 20.719617
_cell_length_b 7.514299
_cell_length_c 17.436037
_cell_angle_alpha 90.000000
_cell_angle_beta 47.860002
_cell_angle_gamma 90.000000
_cell_volume 2012.952866
_symmetry_space_group_name_H-M "C 2/C"
_symmetry_group_IT_number 15
_symmetry_cell_setting 'monoclinic'
loop_
_space_group_symop_operation_xyz
x,y,z
-x,y,1/2-z
-x,-y,-z
x,-y,1/2+z
1/2+x,1/2+y,z
1/2-x,1/2+y,1/2-z
1/2-x,1/2-y,-z
1/2+x,1/2-y,1/2+z
loop_
_atom_site_type_symbol
_atom_site_label
_atom_site_fract_x
_atom_site_fract_y
_atom_site_fract_z
Si Si1 0.621247 0.000865 0.225094
Si Si2 0.357861 0.688100 0.681066
Si Si3 0.977589 0.378798 0.944009
Si Si4 0.224023 0.849846 0.678172
Si Si5 0.806878 0.405553 0.992808
O O1 0.660366 0.816121 0.221879
O O2 0.665819 0.170617 0.232305
O O3 0.524111 0.023321 0.334807
O O4 0.639775 0.016215 0.121178
O O5 0.462599 0.702532 0.593588
O O6 0.312944 0.771633 0.642482
O O7 0.318649 0.498859 0.733286
O O8 0.877588 0.348779 0.001636
O O9 0.000000 0.500000 0.000000
O O10 0.245837 0.948150 0.581419
O O11 0.750000 0.250000 0.000000
#
# Coordination Sequence:
#
# PCOD9281912 Si02
#       5
#     8   8   8   8   8
#     4  10  23  38  63  92 129 166 208 266 320 378
#     4  10  21  38  66  88 126 167 215 256 318 378
#     4  10  21  42  64  90 131 172 209 268 318 382
#     4  12  21  41  66  94 125 170 217 264 317 391
#     4  12  22  40  68  97 130 168 211 268 332 382
#
# _framework density 19.871303999999999
#
# number of rings (size 3 to 8) (size 9 to 14) (size 15 to 20)
#    1.200    0.000    6.000    1.200    0.000    0.000 
#    0.000    7.000    0.000    0.000    0.000    0.000 
#    0.000    0.000    0.000    0.000    0.000    0.000 
#
# Total GULP energy -111408.508416 kJ/mol
# GULP energy per Si atom -5570.425421 kJ/mol
# Density = 1.982608 g / cm^3
# Si number density = 19.871304 Si / 1000 Ang^3
#
#
#
# Elastic Constant Matrix: (Units=GPa)
#
#
# Indices 1 2 3 4 5 6 
#
# 1 87.0988 45.1202 -5.9529 -0.0018 -18.4507 0.0018
# 2 45.1202 81.9723 -2.2097 -0.0023 -13.0170 0.0028
# 3 -5.9529 -2.2097 30.3431 -0.0013 -2.3846 0.0017
# 4 -0.0018 -0.0023 -0.0013 15.7548 -0.0002 6.4292
# 5 -18.4507 -13.0170 -2.3846 -0.0002 36.3773 -0.0002
# 6 0.0018 0.0028 0.0017 6.4292 -0.0002 29.1684
#
#
#
# Elastic Compliance Matrix: (Units=1/GPa)
#
#
# Indices 1 2 3 4 5 6 
#
# 1 0.017393 -0.008536 0.003261 0.000001 0.005981 -0.000001
# 2 -0.008536 0.017176 -0.000283 0.000002 0.001798 -0.000002
# 3 0.003261 -0.000283 0.033872 0.000004 0.003773 -0.000003
# 4 0.000001 0.000002 0.000004 0.069746 0.000002 -0.015373
# 5 0.005981 0.001798 0.003773 0.000002 0.031414 -0.000001
# 6 -0.000001 -0.000002 -0.000003 -0.015373 -0.000001 0.037672
#
#
# Mechanical properties :
#
#
# Convention : Reuss Voigt Hill
#
# Bulk Modulus (GPa) = 17.44441 30.36994 23.90718
# Shear Modulus (GPa) = 21.05287 27.09052 24.07170
#
# Velocity S-wave (km/s) = 3.25847 3.69629 3.48426
# Velocity P-wave (km/s) = 4.79109 5.79079 5.31450
#
# Compressibility (1/GPa) = 0.05732496
#
# Stress axis : x y z
#
# Youngs Moduli (GPa) = 57.49433 58.22200 29.52286
#
# Poissons Ratio (x) = 0.49698 -0.09626
# Poissons Ratio (y) = 0.49077 0.00834
# Poissons Ratio (z) = -0.18747 0.01645
#
# Static dielectric constant tensor:
#      x y z
#    x 1.739170 0.000000 -0.011480 
#    y 0.000000 1.675660 0.000000 
#    z -0.011480 0.000000 1.742900 
# 
# From -- ./inp_files/208883.got.cif
#   From: 2010.05.17/outbox.cif.g08.bks.cpg/sg15_105_cif.got.tgz:208883.got - 2010.06.03 18:47:42.
