data_PCOD9281716
_publ_section_title
;
Structure prediction by ZEFSAII (Michael W. Deem and Ramdas Pophale) SiO2 
 PCOD9281716
Probable space group: C 2/C
;
_chemical_formula_sum "Si O2"
_cell_formula_units_Z 40
_cell_length_a 19.637853
_cell_length_b 9.415582
_cell_length_c 16.367540
_cell_angle_alpha 90.000000
_cell_angle_beta 132.727567
_cell_angle_gamma 90.000000
_cell_volume 2223.148880
_symmetry_space_group_name_H-M "C 2/C"
_symmetry_group_IT_number 15
_symmetry_cell_setting 'monoclinic'
loop_
_space_group_symop_operation_xyz
x,y,z
-x,y,1/2-z
-x,-y,-z
x,-y,1/2+z
1/2+x,1/2+y,z
1/2-x,1/2+y,1/2-z
1/2-x,1/2-y,-z
1/2+x,1/2-y,1/2+z
loop_
_atom_site_type_symbol
_atom_site_label
_atom_site_fract_x
_atom_site_fract_y
_atom_site_fract_z
Si Si1 0.130211 0.090311 0.552508
Si Si2 0.403824 0.758539 0.134016
Si Si3 0.163100 0.365451 0.253233
Si Si4 0.946671 0.216978 0.481365
Si Si5 0.506472 0.945251 0.846533
O O1 0.134907 0.156404 0.465968
O O2 0.230258 0.100540 0.676274
O O3 0.049781 0.177353 0.533872
O O4 0.097595 0.927988 0.522030
O O5 0.500000 0.700141 0.250000
O O6 0.342137 0.787866 0.162993
O O7 0.433273 0.910023 0.117009
O O8 0.114548 0.271767 0.144275
O O9 0.095273 0.501202 0.208555
O O10 0.952903 0.338710 0.554511
O O11 0.500000 0.881837 0.750000
#
# Coordination Sequence:
#
# PCOD9281716 Si02
#       5
#     8   8   8   8   8
#     4  11  23  36  59  92 116 146 196 238 289 334
#     4   9  18  39  60  82 116 160 191 225 286 347
#     4  10  21  38  64  82 116 161 194 222 291 360
#     4  11  23  38  58  90 119 144 190 252 283 328
#     4   9  20  40  61  79 113 162 187 231 292 344
#
# _framework density 17.992497
#
# number of rings (size 3 to 8) (size 9 to 14) (size 15 to 20)
#    0.000    2.400    4.000    1.200    2.800    0.800 
#    0.000    4.000    0.000    0.000    0.000    0.000 
#    0.000    0.000    0.000    0.000    0.000    0.000 
#
# Total GULP energy -111529.218464 kJ/mol
# GULP energy per Si atom -5576.460923 kJ/mol
# Density = 1.795154 g / cm^3
# Si number density = 17.992497 Si / 1000 Ang^3
#
#
#
# Elastic Constant Matrix: (Units=GPa)
#
#
# Indices 1 2 3 4 5 6 
#
# 1 69.8746 47.1368 73.8792 0.0000 -1.5108 0.0000
# 2 47.1368 74.4251 77.9637 0.0000 -18.0467 0.0000
# 3 73.8792 77.9637 119.3540 0.0000 -0.2473 0.0000
# 4 0.0000 0.0000 0.0000 14.6549 0.0000 -4.6461
# 5 -1.5108 -18.0467 -0.2473 0.0000 32.1342 0.0000
# 6 0.0000 0.0000 0.0000 -4.6461 0.0000 12.4029
#
#
#
# Elastic Compliance Matrix: (Units=1/GPa)
#
#
# Indices 1 2 3 4 5 6 
#
# 1 0.041971 0.005819 -0.029770 0.000000 0.005012 0.000000
# 2 0.005819 0.074644 -0.052274 0.000000 0.041791 0.000000
# 3 -0.029770 -0.052274 0.060889 0.000000 -0.030288 0.000000
# 4 0.000000 0.000000 0.000000 0.077432 0.000000 0.029006
# 5 0.005012 0.041791 -0.030288 0.000000 0.054592 0.000000
# 6 0.000000 0.000000 0.000000 0.029006 0.000000 0.091491
#
#
# Mechanical properties :
#
#
# Convention : Reuss Voigt Hill
#
# Bulk Modulus (GPa) = 39.91400 73.51254 56.71327
# Shear Modulus (GPa) = 8.89965 16.15002 12.52483
#
# Velocity S-wave (km/s) = 2.22644 2.99924 2.64126
# Velocity P-wave (km/s) = 5.37041 7.27599 6.39458
#
# Compressibility (1/GPa) = 0.02505386
#
# Stress axis : x y z
#
# Youngs Moduli (GPa) = 23.82625 13.39701 16.42324
#
# Poissons Ratio (x) = -0.07796 0.48893
# Poissons Ratio (y) = -0.13866 0.85851
# Poissons Ratio (z) = 0.70932 0.70031
#
# Static dielectric constant tensor:
#      x y z
#    x 1.642920 0.000000 0.011230 
#    y 0.000000 1.597340 0.000000 
#    z 0.011230 0.000000 1.602510 
# 
# From -- ./inp_files/165871.got.cif
#   From: 2010.05.17/outbox.cif.g08.bks.cpg/sg15_83_cif.got.tgz:165871.got - 2010.06.03 18:47:42.
