data_PCOD9281653
_publ_section_title
;
Structure prediction by ZEFSAII (Michael W. Deem and Ramdas Pophale) SiO2 
 PCOD9281653
Probable space group: C 2/C
;
_chemical_formula_sum "Si O2"
_cell_formula_units_Z 56
_cell_length_a 23.127342
_cell_length_b 14.240114
_cell_length_c 9.689991
_cell_angle_alpha 90.000000
_cell_angle_beta 55.256945
_cell_angle_gamma 90.000000
_cell_volume 2622.311732
_symmetry_space_group_name_H-M "C 2/C"
_symmetry_group_IT_number 15
_symmetry_cell_setting 'monoclinic'
loop_
_space_group_symop_operation_xyz
x,y,z
-x,y,1/2-z
-x,-y,-z
x,-y,1/2+z
1/2+x,1/2+y,z
1/2-x,1/2+y,1/2-z
1/2-x,1/2-y,-z
1/2+x,1/2-y,1/2+z
loop_
_atom_site_type_symbol
_atom_site_label
_atom_site_fract_x
_atom_site_fract_y
_atom_site_fract_z
Si Si1 0.545904 0.957674 0.813498
Si Si2 0.274700 0.526448 0.065649
Si Si3 0.073230 0.827157 0.482495
Si Si4 0.333128 0.829465 0.718358
Si Si5 0.082371 0.208366 0.298085
Si Si6 0.156641 0.612774 0.611919
Si Si7 0.131836 0.008780 0.309663
O O1 0.500000 0.917122 0.750000
O O2 0.602715 0.887705 0.801514
O O3 0.589783 0.044415 0.690358
O O4 0.500000 0.000000 0.000000
O O5 0.236169 0.627445 0.117434
O O6 0.219361 0.447512 0.091542
O O7 0.301175 0.500913 0.181300
O O8 0.342064 0.520470 0.876533
O O9 0.139330 0.776896 0.319105
O O10 0.082101 0.816888 0.635041
O O11 0.073729 0.935689 0.440794
O O12 0.999086 0.777002 0.550388
O O13 0.325302 0.853640 0.566410
O O14 0.131812 0.299376 0.239012
O O15 0.109349 0.116875 0.339540
#
# Coordination Sequence:
#
# PCOD9281653 Si02
#       7
#     8   8   8   8   8   8   8
#     4  11  20  33  58  91 128 164 201 252 316 373
#     4  11  24  40  64  93 131 164 211 253 323 375
#     4  10  22  41  66  94 124 164 216 262 318 368
#     4  10  21  39  61  93 128 164 206 263 310 378
#     4  10  22  40  68  93 122 166 218 260 310 380
#     4  10  21  38  63  93 124 166 213 257 306 386
#     4  12  23  43  63  92 126 171 209 266 307 373
#
# _framework density 21.355202999999999
#
# number of rings (size 3 to 8) (size 9 to 14) (size 15 to 20)
#    0.000    1.429    4.286    1.286    2.000    2.286 
#    0.000    2.857    0.000    0.000    0.000    0.000 
#    0.000    0.000    0.000    0.000    0.000    0.000 
#
# Total GULP energy -156372.004540 kJ/mol
# GULP energy per Si atom -5584.714448 kJ/mol
# Density = 2.130660 g / cm^3
# Si number density = 21.355203 Si / 1000 Ang^3
#
#
#
# Elastic Constant Matrix: (Units=GPa)
#
#
# Indices 1 2 3 4 5 6 
#
# 1 40.1729 1.5467 1.2429 0.0000 10.4165 0.0000
# 2 1.5467 75.4946 3.4403 0.0000 1.5958 0.0000
# 3 1.2429 3.4403 27.0832 0.0000 -5.9269 0.0000
# 4 0.0000 0.0000 0.0000 34.1793 0.0000 -3.5740
# 5 10.4165 1.5958 -5.9269 0.0000 23.3283 0.0000
# 6 0.0000 0.0000 0.0000 -3.5740 0.0000 23.4104
#
#
#
# Elastic Compliance Matrix: (Units=1/GPa)
#
#
# Indices 1 2 3 4 5 6 
#
# 1 0.028629 -0.000095 -0.004339 0.000000 -0.013879 0.000000
# 2 -0.000095 0.013368 -0.001995 0.000000 -0.001379 0.000000
# 3 -0.004339 -0.001995 0.040057 0.000000 0.012251 0.000000
# 4 0.000000 0.000000 0.000000 0.029732 0.000000 0.004539
# 5 -0.013879 -0.001379 0.012251 0.000000 0.052270 0.000000
# 6 0.000000 0.000000 0.000000 0.004539 0.000000 0.043409
#
#
# Mechanical properties :
#
#
# Convention : Reuss Voigt Hill
#
# Bulk Modulus (GPa) = 14.45208 17.24559 15.84884
# Shear Modulus (GPa) = 20.54315 25.28499 22.91407
#
# Velocity S-wave (km/s) = 3.10494 3.44469 3.27922
# Velocity P-wave (km/s) = 4.43129 4.89023 4.66640
#
# Compressibility (1/GPa) = 0.06919419
#
# Stress axis : x y z
#
# Youngs Moduli (GPa) = 34.92951 74.80541 24.96451
#
# Poissons Ratio (x) = 0.00714 0.10832
# Poissons Ratio (y) = 0.00333 0.04982
# Poissons Ratio (z) = 0.15156 0.14927
#
# Static dielectric constant tensor:
#      x y z
#    x 1.758650 0.000000 -0.024790 
#    y 0.000000 1.778670 0.000000 
#    z -0.024790 0.000000 1.762750 
# 
# From -- ./inp_files/61808.got.cif
#   From: 2010.05.17/outbox.cif.g08.bks.cpg/sg15_31_cif.got.tgz:61808.got - 2010.06.03 18:47:42.
