data_PCOD9281627
_publ_section_title
;
Structure prediction by ZEFSAII (Michael W. Deem and Ramdas Pophale) SiO2 
 PCOD9281627
Probable space group: C 2/C
;
_chemical_formula_sum "Si O2"
_cell_formula_units_Z 48
_cell_length_a 18.511341
_cell_length_b 15.499663
_cell_length_c 14.632119
_cell_angle_alpha 90.000000
_cell_angle_beta 28.203320
_cell_angle_gamma 90.000000
_cell_volume 1984.096364
_symmetry_space_group_name_H-M "C 2/C"
_symmetry_group_IT_number 15
_symmetry_cell_setting 'monoclinic'
loop_
_space_group_symop_operation_xyz
x,y,z
-x,y,1/2-z
-x,-y,-z
x,-y,1/2+z
1/2+x,1/2+y,z
1/2-x,1/2+y,1/2-z
1/2-x,1/2-y,-z
1/2+x,1/2-y,1/2+z
loop_
_atom_site_type_symbol
_atom_site_label
_atom_site_fract_x
_atom_site_fract_y
_atom_site_fract_z
Si Si1 0.442897 0.148498 0.721968
Si Si2 0.310638 0.157547 0.686129
Si Si3 0.853664 0.873139 0.492920
Si Si4 0.345552 0.454896 0.884654
Si Si5 0.230558 0.456956 0.815093
Si Si6 0.906248 0.753438 0.204990
O O1 0.500000 0.196731 0.750000
O O2 0.353089 0.192905 0.739151
O O3 0.577367 0.092295 0.522648
O O4 0.311761 0.088429 0.910459
O O5 0.162057 0.203292 0.810557
O O6 0.454973 0.187939 0.465992
O O7 0.298794 0.053988 0.690019
O O8 0.842721 0.955453 0.441831
O O9 0.802146 0.902845 0.652681
O O10 0.730112 0.802128 0.602512
O O11 0.018555 0.829939 0.322026
O O12 0.500000 0.410694 0.750000
O O13 0.341062 0.463525 0.780229
#
# Coordination Sequence:
#
# PCOD9281627 Si02
#       6
#     8   8   8   8   8   8
#     4  10  21  38  63  91 124 161 218 274 326 384
#     4  11  20  41  61  92 122 174 211 267 327 391
#     4  11  22  45  65 101 134 174 223 273 332 401
#     4  11  24  38  63 104 128 164 226 280 322 376
#     4  11  22  40  73  93 127 175 226 275 325 389
#     4  10  24  37  67  93 135 175 208 267 348 397
#
# _framework density 24.192373
#
# number of rings (size 3 to 8) (size 9 to 14) (size 15 to 20)
#    0.000    1.333    3.333    2.500    2.333    1.333 
#    0.000   10.000    0.000    0.000    0.000    0.000 
#    0.000    0.000    0.000    0.000    0.000    0.000 
#
# Total GULP energy -134248.130224 kJ/mol
# GULP energy per Si atom -5593.672093 kJ/mol
# Density = 2.413731 g / cm^3
# Si number density = 24.192373 Si / 1000 Ang^3
#
#
#
# Elastic Constant Matrix: (Units=GPa)
#
#
# Indices 1 2 3 4 5 6 
#
# 1 170.8189 28.9555 33.5947 -0.0001 -7.5041 0.0001
# 2 28.9555 61.1767 26.1150 -0.0008 -3.3452 0.0007
# 3 33.5947 26.1150 87.8682 -0.0013 -1.3583 0.0010
# 4 -0.0001 -0.0008 -0.0013 29.2661 0.0004 -2.2978
# 5 -7.5041 -3.3452 -1.3583 0.0004 40.2530 -0.0003
# 6 0.0001 0.0007 0.0010 -2.2978 -0.0003 11.9751
#
#
#
# Elastic Compliance Matrix: (Units=1/GPa)
#
#
# Indices 1 2 3 4 5 6 
#
# 1 0.006651 -0.002308 -0.001842 0.000000 0.000986 0.000000
# 2 -0.002308 0.019598 -0.004926 0.000000 0.001032 -0.000001
# 3 -0.001842 -0.004926 0.013544 0.000000 -0.000296 -0.000001
# 4 0.000000 0.000000 0.000000 0.034692 0.000000 0.006657
# 5 0.000986 0.001032 -0.000296 0.000000 0.025102 0.000001
# 6 0.000000 -0.000001 -0.000001 0.006657 0.000001 0.084784
#
#
# Mechanical properties :
#
#
# Convention : Reuss Voigt Hill
#
# Bulk Modulus (GPa) = 46.20770 55.24382 50.72576
# Shear Modulus (GPa) = 23.83941 31.71207 27.77574
#
# Velocity S-wave (km/s) = 3.14253 3.62447 3.39207
# Velocity P-wave (km/s) = 5.68409 6.35614 6.02948
#
# Compressibility (1/GPa) = 0.02164141
#
# Stress axis : x y z
#
# Youngs Moduli (GPa) = 150.35631 51.02618 73.83143
#
# Poissons Ratio (x) = 0.11776 0.13597
# Poissons Ratio (y) = 0.34700 0.36371
# Poissons Ratio (z) = 0.27691 0.25137
#
# Static dielectric constant tensor:
#      x y z
#    x 2.001450 0.000000 0.021150 
#    y 0.000000 1.894960 0.000000 
#    z 0.021150 0.000000 1.972370 
# 
# From -- ./inp_files/48698.got.cif
#   From: 2010.05.17/outbox.cif.g08.bks.cpg/sg15_25_cif.got.tgz:48698.got - 2010.06.03 18:47:42.
