data_PCOD9281027
_publ_section_title
;
Structure prediction by ZEFSAII (Michael W. Deem and Ramdas Pophale) SiO2 
 PCOD9281027
Probable space group: C 2/C
;
_chemical_formula_sum "Si O2"
_cell_formula_units_Z 56
_cell_length_a 20.641688
_cell_length_b 9.674083
_cell_length_c 14.633665
_cell_angle_alpha 90.000000
_cell_angle_beta 75.959886
_cell_angle_gamma 90.000000
_cell_volume 2834.890721
_symmetry_space_group_name_H-M "C 2/C"
_symmetry_group_IT_number 15
_symmetry_cell_setting 'monoclinic'
loop_
_space_group_symop_operation_xyz
x,y,z
-x,y,1/2-z
-x,-y,-z
x,-y,1/2+z
1/2+x,1/2+y,z
1/2-x,1/2+y,1/2-z
1/2-x,1/2-y,-z
1/2+x,1/2-y,1/2+z
loop_
_atom_site_type_symbol
_atom_site_label
_atom_site_fract_x
_atom_site_fract_y
_atom_site_fract_z
Si Si1 0.993068 0.486304 0.611450
Si Si2 0.849156 0.023425 0.131545
Si Si3 0.868683 0.412659 0.409672
Si Si4 0.613587 0.799674 0.290642
Si Si5 0.618532 0.214046 0.392116
Si Si6 0.737707 0.586073 0.503630
Si Si7 0.729116 0.995211 0.811665
O O1 0.954304 0.618724 0.664251
O O2 0.942995 0.358455 0.638668
O O3 0.000000 0.500000 0.500000
O O4 0.067696 0.485462 0.624164
O O5 0.887793 0.148048 0.166729
O O6 0.826190 0.059099 0.037116
O O7 0.780839 0.007946 0.212414
O O8 0.884372 0.876405 0.118573
O O9 0.869280 0.312066 0.322397
O O10 0.879656 0.331490 0.501399
O O11 0.801623 0.502518 0.441237
O O12 0.672826 0.886427 0.319675
O O13 0.687303 0.147193 0.330767
O O14 0.750000 0.750000 0.500000
O O15 0.732645 0.527399 0.607655
#
# Coordination Sequence:
#
# PCOD9281027 Si02
#       7
#     8   8   8   8   8   8   8
#     4   9  20  41  64  82 112 155 210 243 291 367
#     4  12  23  36  60  93 129 153 196 258 314 355
#     4  10  21  40  65  84 115 167 212 243 297 375
#     4  11  21  37  62  89 117 163 201 251 295 365
#     4   9  22  38  60  89 118 160 201 256 307 354
#     4  11  23  36  60  93 127 160 201 253 307 361
#     4  10  21  38  56  85 127 163 203 234 304 379
#
# _framework density 19.753848999999999
#
# number of rings (size 3 to 8) (size 9 to 14) (size 15 to 20)
#    0.000    1.714    2.857    2.143    2.000    1.143 
#    0.000    2.857    0.000    3.429    0.000    0.000 
#    0.000    0.000    0.000    0.000    0.000    0.000 
#
# Total GULP energy -156376.672496 kJ/mol
# GULP energy per Si atom -5584.881161 kJ/mol
# Density = 1.970889 g / cm^3
# Si number density = 19.753849 Si / 1000 Ang^3
#
#
#
# Elastic Constant Matrix: (Units=GPa)
#
#
# Indices 1 2 3 4 5 6 
#
# 1 31.7057 12.1905 12.0330 0.0000 14.0132 0.0000
# 2 12.1905 125.1762 4.0622 0.0000 11.1270 0.0000
# 3 12.0330 4.0622 62.2572 0.0000 9.4013 0.0000
# 4 0.0000 0.0000 0.0000 18.1838 0.0000 8.4451
# 5 14.0132 11.1270 9.4013 0.0000 26.5714 0.0000
# 6 0.0000 0.0000 0.0000 8.4451 0.0000 2.3524
#
#
#
# Elastic Compliance Matrix: (Units=1/GPa)
#
#
# Indices 1 2 3 4 5 6 
#
# 1 0.043223 -0.002262 -0.005184 0.000000 -0.020013 0.000000
# 2 -0.002262 0.008416 0.000254 0.000000 -0.002421 0.000000
# 3 -0.005184 0.000254 0.017591 0.000000 -0.003596 0.000000
# 4 0.000000 0.000000 0.000000 -0.082416 0.000000 0.295868
# 5 -0.020013 -0.002421 -0.003596 0.000000 0.050475 0.000000
# 6 0.000000 0.000000 0.000000 0.295868 0.000000 -0.637059
#
#
# Mechanical properties :
#
#
# Convention : Reuss Voigt Hill
#
# Bulk Modulus (GPa) = 18.23342 30.63451 24.43397
# Shear Modulus (GPa) = -8.81674 22.14507 6.66417
#
# Velocity S-wave (km/s) = -2.11495 3.35184 1.83873
# Velocity P-wave (km/s) = 1.81283 5.52463 4.11144
#
# Compressibility (1/GPa) = 0.05484435
#
# Stress axis : x y z
#
# Youngs Moduli (GPa) = 23.13594 118.82107 56.84763
#
# Poissons Ratio (x) = 0.26879 0.29471
# Poissons Ratio (y) = 0.05234 -0.01442
# Poissons Ratio (z) = 0.11994 -0.03014
#
# Static dielectric constant tensor:
#      x y z
#    x 1.716990 0.000000 0.024930 
#    y 0.000000 1.679740 0.000000 
#    z 0.024930 0.000000 1.723680 
# 
# From -- ./inp_files/171795.got.cif
#   From: 2010.05.17/outbox.cif.g08.bks.cpg/sg15_86_cif.got.tgz:171795.got - 2010.06.03 18:47:42.
