data_PCOD9281240
_publ_section_title
;
Structure prediction by ZEFSAII (Michael W. Deem and Ramdas Pophale) SiO2 
 PCOD9281240
Probable space group: C 2/C
;
_chemical_formula_sum "Si O2"
_cell_formula_units_Z 44
_cell_length_a 17.137286
_cell_length_b 17.179706
_cell_length_c 8.616759
_cell_angle_alpha 90.000000
_cell_angle_beta 128.220914
_cell_angle_gamma 90.000000
_cell_volume 1993.060084
_symmetry_space_group_name_H-M "C 2/C"
_symmetry_group_IT_number 15
_symmetry_cell_setting 'monoclinic'
loop_
_space_group_symop_operation_xyz
x,y,z
-x,y,1/2-z
-x,-y,-z
x,-y,1/2+z
1/2+x,1/2+y,z
1/2-x,1/2+y,1/2-z
1/2-x,1/2-y,-z
1/2+x,1/2-y,1/2+z
loop_
_atom_site_type_symbol
_atom_site_label
_atom_site_fract_x
_atom_site_fract_y
_atom_site_fract_z
Si Si1 0.155016 0.788759 0.727753
Si Si2 0.814482 0.627417 0.630718
Si Si3 0.346154 0.452940 0.342016
Si Si4 0.424585 0.029195 0.275733
Si Si5 0.712608 0.600411 0.068886
Si Si6 0.000000 0.120123 0.250000
O O1 0.133829 0.697189 0.712764
O O2 0.169153 0.817228 0.568772
O O3 0.074204 0.827646 0.740481
O O4 0.258618 0.822754 0.928957
O O5 0.737229 0.590569 0.657669
O O6 0.877074 0.552650 0.653024
O O7 0.324329 0.543332 0.338904
O O8 0.445716 0.431626 0.554191
O O9 0.335346 0.427510 0.151887
O O10 0.500000 0.068665 0.250000
O O11 0.500000 0.000000 0.500000
O O12 0.330725 0.083729 0.200086
#
# Coordination Sequence:
#
# PCOD9281240 Si02
#       6
#     8   8   8   8   8   4
#     4  10  21  38  61  87 123 162 208 249 314 374
#     4   9  20  39  59  86 122 164 196 256 319 368
#     4  10  21  38  60  86 120 155 208 249 311 369
#     4  11  21  36  62  92 120 158 209 255 297 369
#     4  11  22  39  61  87 124 165 199 256 317 367
#     4  10  22  38  60  92 112 160 210 256 300 376
#
# _framework density 22.076605000000001
#
# number of rings (size 3 to 8) (size 9 to 14) (size 15 to 20)
#    0.000    1.818    0.000    6.545    1.273    4.364 
#    3.273    0.000    4.000    0.000    0.000    0.000 
#    0.000    0.000    0.000    0.000    0.000    0.000 
#
# Total GULP energy -122728.204523 kJ/mol
# GULP energy per Si atom -5578.554751 kJ/mol
# Density = 2.202636 g / cm^3
# Si number density = 22.076605 Si / 1000 Ang^3
#
#
#
# Elastic Constant Matrix: (Units=GPa)
#
#
# Indices 1 2 3 4 5 6 
#
# 1 92.1533 23.4294 16.9349 0.0000 6.6587 0.0000
# 2 23.4294 63.9468 -19.2077 0.0000 9.2473 0.0000
# 3 16.9349 -19.2077 87.3831 0.0000 -4.0161 0.0000
# 4 0.0000 0.0000 0.0000 16.2938 0.0000 -4.5305
# 5 6.6587 9.2473 -4.0161 0.0000 35.1295 0.0000
# 6 0.0000 0.0000 0.0000 -4.5305 0.0000 -0.0239
#
#
#
# Elastic Compliance Matrix: (Units=1/GPa)
#
#
# Indices 1 2 3 4 5 6 
#
# 1 0.013134 -0.005773 -0.003879 0.000000 -0.001413 0.000000
# 2 -0.005773 0.019862 0.005323 0.000000 -0.003526 0.000000
# 3 -0.003879 0.005323 0.013405 0.000000 0.000867 0.000000
# 4 0.000000 0.000000 0.000000 0.001142 0.000000 -0.216619
# 5 -0.001413 -0.003526 0.000867 0.000000 0.029761 0.000000
# 6 0.000000 0.000000 0.000000 -0.216619 0.000000 -0.779058
#
#
# Mechanical properties :
#
#
# Convention : Reuss Voigt Hill
#
# Bulk Modulus (GPa) = 26.49582 31.75517 29.12549
# Shear Modulus (GPa) = -7.34739 25.10166 8.87713
#
# Velocity S-wave (km/s) = -1.82630 3.37564 2.00743
# Velocity P-wave (km/s) = 2.75330 5.44137 4.31215
#
# Compressibility (1/GPa) = 0.03774180
#
# Stress axis : x y z
#
# Youngs Moduli (GPa) = 76.13649 50.34791 74.59631
#
# Poissons Ratio (x) = 0.29066 0.28939
# Poissons Ratio (y) = 0.43955 -0.39705
# Poissons Ratio (z) = 0.29536 -0.26798
#
# Static dielectric constant tensor:
#      x y z
#    x 2.147740 0.000000 -0.277690 
#    y 0.000000 1.891330 0.000000 
#    z -0.277690 0.000000 2.139740 
# 
# From -- ./inp_files/39064.got.cif
#   From: 2010.05.17/outbox.cif.g08.bks.cpg/sg15_20_cif.got.tgz:39064.got - 2010.06.03 18:47:42.
