data_PCOD9281008
_publ_section_title
;
Structure prediction by ZEFSAII (Michael W. Deem and Ramdas Pophale) SiO2 
 PCOD9281008
Probable space group: C 2/C
;
_chemical_formula_sum "Si O2"
_cell_formula_units_Z 60
_cell_length_a 23.161275
_cell_length_b 6.205499
_cell_length_c 27.964604
_cell_angle_alpha 90.000000
_cell_angle_beta 135.473776
_cell_angle_gamma 90.000000
_cell_volume 2818.459697
_symmetry_space_group_name_H-M "C 2/C"
_symmetry_group_IT_number 15
_symmetry_cell_setting 'monoclinic'
loop_
_space_group_symop_operation_xyz
x,y,z
-x,y,1/2-z
-x,-y,-z
x,-y,1/2+z
1/2+x,1/2+y,z
1/2-x,1/2+y,1/2-z
1/2-x,1/2-y,-z
1/2+x,1/2-y,1/2+z
loop_
_atom_site_type_symbol
_atom_site_label
_atom_site_fract_x
_atom_site_fract_y
_atom_site_fract_z
Si Si1 0.500000 0.525549 0.250000
Si Si2 0.823549 0.618353 0.835114
Si Si3 0.433780 0.148587 0.029677
Si Si4 0.134979 0.659682 0.797376
Si Si5 0.532684 0.792836 0.683039
Si Si6 0.338977 0.454429 0.776186
Si Si7 0.206218 0.096477 0.094679
Si Si8 0.078133 0.267592 0.549482
O O1 0.420746 0.682043 0.203817
O O2 0.501326 0.371115 0.296941
O O3 0.750653 0.527869 0.759320
O O4 0.875374 0.791779 0.836498
O O5 0.779883 0.738177 0.853474
O O6 0.877853 0.430823 0.887823
O O7 0.469120 0.146704 0.103833
O O8 0.493555 0.280425 0.027761
O O9 0.344389 0.262494 0.973763
O O10 0.433776 0.912245 0.005237
O O11 0.073649 0.494517 0.734151
O O12 0.172201 0.817028 0.778767
O O13 0.208000 0.523994 0.865247
O O14 0.604077 0.656165 0.699340
O O15 0.141693 0.919272 0.075512
#
# Coordination Sequence:
#
# PCOD9281008 Si02
#       8
#     4   8   8   8   8   8   8   8
#     4  10  26  42  70  90 116 150 216 274 344 372
#     4  11  21  32  53  94 127 169 204 251 294 373
#     4  10  23  36  60  90 131 173 208 249 304 376
#     4  11  22  42  65  90 117 162 206 272 322 374
#     4  11  23  44  63  92 122 162 209 275 323 376
#     4  11  22  32  58  91 128 162 213 248 308 367
#     4  11  21  38  61  86 127 171 208 251 305 374
#     4  10  21  38  55  89 136 178 210 238 299 379
#
# _framework density 21.288222000000001
#
# number of rings (size 3 to 8) (size 9 to 14) (size 15 to 20)
#    0.000    1.333    2.667    3.200    1.867    4.267 
#    0.000    0.667    0.000    4.000    0.000    0.000 
#    0.000    0.000    0.000    0.000    0.000    0.000 
#
# Total GULP energy -167677.793945 kJ/mol
# GULP energy per Si atom -5589.259798 kJ/mol
# Density = 2.123977 g / cm^3
# Si number density = 21.288222 Si / 1000 Ang^3
#
#
#
# Elastic Constant Matrix: (Units=GPa)
#
#
# Indices 1 2 3 4 5 6 
#
# 1 68.0244 29.3175 32.7586 0.0015 2.6060 0.0010
# 2 29.3175 89.6113 46.8216 0.0033 -0.4157 0.0037
# 3 32.7586 46.8216 131.7762 -0.0002 4.0851 -0.0004
# 4 0.0015 0.0033 -0.0002 37.1480 -0.0013 2.9653
# 5 2.6060 -0.4157 4.0851 -0.0013 16.0711 0.0007
# 6 0.0010 0.0037 -0.0004 2.9653 0.0007 41.6619
#
#
#
# Elastic Compliance Matrix: (Units=1/GPa)
#
#
# Indices 1 2 3 4 5 6 
#
# 1 0.018071 -0.004437 -0.002844 0.000000 -0.002322 0.000000
# 2 -0.004437 0.014834 -0.004235 -0.000001 0.002180 -0.000001
# 3 -0.002844 -0.004235 0.009867 0.000000 -0.002157 0.000001
# 4 0.000000 -0.000001 0.000000 0.027073 0.000002 -0.001927
# 5 -0.002322 0.002180 -0.002157 0.000002 0.063205 -0.000001
# 6 0.000000 -0.000001 0.000001 -0.001927 -0.000001 0.024140
#
#
# Mechanical properties :
#
#
# Convention : Reuss Voigt Hill
#
# Bulk Modulus (GPa) = 50.65804 56.35637 53.50720
# Shear Modulus (GPa) = 26.76619 31.01049 28.88834
#
# Velocity S-wave (km/s) = 3.54972 3.82081 3.68776
# Velocity P-wave (km/s) = 6.37563 6.78198 6.58194
#
# Compressibility (1/GPa) = 0.01974020
#
# Stress axis : x y z
#
# Youngs Moduli (GPa) = 55.33594 67.41281 101.34526
#
# Poissons Ratio (x) = 0.29912 0.28821
# Poissons Ratio (y) = 0.24553 0.42922
# Poissons Ratio (z) = 0.15737 0.28551
#
# Static dielectric constant tensor:
#      x y z
#    x 1.773770 0.000000 0.016910 
#    y 0.000000 1.796550 0.000000 
#    z 0.016910 0.000000 1.797950 
# 
# From -- ./inp_files/221254.got.cif
#   From: 2010.05.17/outbox.cif.g08.bks.cpg/sg15_111_cif.got.tgz:221254.got - 2010.06.03 18:47:42.
