data_PCOD9281010
_publ_section_title
;
Structure prediction by ZEFSAII (Michael W. Deem and Ramdas Pophale) SiO2 
 PCOD9281010
Probable space group: C 2/C
;
_chemical_formula_sum "Si O2"
_cell_formula_units_Z 44
_cell_length_a 13.865886
_cell_length_b 29.298896
_cell_length_c 13.951393
_cell_angle_alpha 90.000000
_cell_angle_beta 159.082440
_cell_angle_gamma 90.000000
_cell_volume 2023.551339
_symmetry_space_group_name_H-M "C 2/C"
_symmetry_group_IT_number 15
_symmetry_cell_setting 'monoclinic'
loop_
_space_group_symop_operation_xyz
x,y,z
-x,y,1/2-z
-x,-y,-z
x,-y,1/2+z
1/2+x,1/2+y,z
1/2-x,1/2+y,1/2-z
1/2-x,1/2-y,-z
1/2+x,1/2-y,1/2+z
loop_
_atom_site_type_symbol
_atom_site_label
_atom_site_fract_x
_atom_site_fract_y
_atom_site_fract_z
Si Si1 0.500000 0.917026 0.250000
Si Si2 0.357279 0.365149 0.323164
Si Si3 0.500000 0.359109 0.250000
Si Si4 0.000000 0.576627 0.250000
Si Si5 0.642193 0.035036 0.561324
Si Si6 0.500000 0.716956 0.250000
Si Si7 0.000000 0.978134 0.750000
Si Si8 0.194131 0.648124 0.103342
O O1 0.765246 0.947847 0.483252
O O2 0.591361 0.886660 0.425361
O O3 0.450706 0.339956 0.311188
O O4 0.250036 0.417284 0.205243
O O5 0.609274 0.369404 0.629695
O O6 0.095230 0.338180 0.120197
O O7 0.754145 0.391294 0.499414
O O8 0.936477 0.548405 0.285411
O O9 0.500000 0.000000 0.500000
O O10 0.867725 0.008594 0.709749
O O11 0.750000 0.750000 0.500000
O O12 0.385079 0.684549 0.227123
#
# Coordination Sequence:
#
# PCOD9281010 Si02
#       8
#     4   8   4   4   8   4   4   8
#     4  12  26  44  62  91 140 180 226 289 342 396
#     4  11  23  41  64  93 128 175 230 278 323 380
#     4  10  21  40  60  85 122 163 218 284 318 360
#     4  10  21  38  56  77 114 161 224 294 348 382
#     4  11  24  41  59  84 122 177 235 292 339 379
#     4  12  26  48  78 112 142 162 190 250 328 420
#     4  12  26  42  60  87 130 186 240 297 344 372
#     4  12  25  44  71 100 131 172 214 261 333 413
#
# _framework density 21.743950999999999
#
# number of rings (size 3 to 8) (size 9 to 14) (size 15 to 20)
#    0.000    0.727    0.000   10.364    0.000    4.364 
#    0.000   18.182    0.000    0.000    0.000   12.727 
#    0.000    0.000    0.000    0.000    0.000    0.000 
#
# Total GULP energy -122870.006467 kJ/mol
# GULP energy per Si atom -5585.000294 kJ/mol
# Density = 2.169446 g / cm^3
# Si number density = 21.743951 Si / 1000 Ang^3
#
#
#
# Elastic Constant Matrix: (Units=GPa)
#
#
# Indices 1 2 3 4 5 6 
#
# 1 151.7359 27.3011 41.5607 0.0005 8.2267 0.0005
# 2 27.3011 41.5560 23.9129 0.0002 0.9423 0.0001
# 3 41.5607 23.9129 173.9861 -0.0003 -8.4357 0.0028
# 4 0.0005 0.0002 -0.0003 28.9758 0.0008 4.2984
# 5 8.2267 0.9423 -8.4357 0.0008 47.4873 0.0007
# 6 0.0005 0.0001 0.0028 4.2984 0.0007 -2.5940
#
#
#
# Elastic Compliance Matrix: (Units=1/GPa)
#
#
# Indices 1 2 3 4 5 6 
#
# 1 0.007820 -0.004328 -0.001346 0.000000 -0.001508 0.000000
# 2 -0.004328 0.028591 -0.002912 0.000000 -0.000335 -0.000003
# 3 -0.001346 -0.002912 0.006540 -0.000001 0.001453 0.000006
# 4 0.000000 0.000000 -0.000001 0.027702 -0.000001 0.045903
# 5 -0.001508 -0.000335 0.001453 -0.000001 0.021584 0.000005
# 6 0.000000 -0.000003 0.000006 0.045903 0.000005 -0.309437
#
#
# Mechanical properties :
#
#
# Convention : Reuss Voigt Hill
#
# Bulk Modulus (GPa) = 38.79374 61.42528 50.10951
# Shear Modulus (GPa) = -26.11855 33.07403 3.47774
#
# Velocity S-wave (km/s) = -3.46957 3.90432 1.26605
# Velocity P-wave (km/s) = 1.35252 6.97392 5.02319
#
# Compressibility (1/GPa) = 0.02577735
#
# Stress axis : x y z
#
# Youngs Moduli (GPa) = 127.88281 34.97631 152.91047
#
# Poissons Ratio (x) = 0.15139 0.20583
# Poissons Ratio (y) = 0.55354 0.44525
# Poissons Ratio (z) = 0.17214 0.10184
#
# Static dielectric constant tensor:
#      x y z
#    x 1.902590 0.000000 -0.028000 
#    y 0.000000 1.821690 0.000000 
#    z -0.028000 0.000000 1.770120 
# 
# From -- ./inp_files/157531.got.cif
#   From: 2010.05.17/outbox.cif.g08.bks.cpg/sg15_79_cif.got.tgz:157531.got - 2010.06.03 18:47:42.
