data_PCOD9281970
_publ_section_title
;
Structure prediction by ZEFSAII (Michael W. Deem and Ramdas Pophale) SiO2 
 PCOD9281970
Probable space group: C 2/C
;
_chemical_formula_sum "Si O2"
_cell_formula_units_Z 32
_cell_length_a 9.545162
_cell_length_b 17.764607
_cell_length_c 14.376353
_cell_angle_alpha 90.000000
_cell_angle_beta 34.141124
_cell_angle_gamma 90.000000
_cell_volume 1368.141391
_symmetry_space_group_name_H-M "C 2/C"
_symmetry_group_IT_number 15
_symmetry_cell_setting 'monoclinic'
loop_
_space_group_symop_operation_xyz
x,y,z
-x,y,1/2-z
-x,-y,-z
x,-y,1/2+z
1/2+x,1/2+y,z
1/2-x,1/2+y,1/2-z
1/2-x,1/2-y,-z
1/2+x,1/2-y,1/2+z
loop_
_atom_site_type_symbol
_atom_site_label
_atom_site_fract_x
_atom_site_fract_y
_atom_site_fract_z
Si Si1 0.060897 0.831409 0.850715
Si Si2 0.743856 0.670729 0.448417
Si Si3 0.552483 0.083600 0.005852
Si Si4 0.498467 0.842763 0.147048
O O1 0.048825 0.833650 0.970744
O O2 0.293880 0.879503 0.686642
O O3 0.080594 0.744470 0.809454
O O4 0.791074 0.853424 0.960509
O O5 0.750000 0.750000 0.500000
O O6 0.000000 0.669258 0.250000
O O7 0.756883 0.602745 0.515255
O O8 0.646011 0.123623 0.860491
O O9 0.500000 0.000000 0.000000
O O10 0.500000 0.875008 0.250000
#
# Coordination Sequence:
#
# PCOD9281970 Si02
#       4
#     8   8   8   8
#     4  10  21  41  68  95 129 177 230 281 338 419
#     4  10  21  38  66  97 131 172 231 283 339 415
#     4  11  24  43  64  97 143 181 226 291 354 408
#     4  11  22  38  68  98 129 173 235 281 346 413
#
# _framework density 23.389396000000001
#
# number of rings (size 3 to 8) (size 9 to 14) (size 15 to 20)
#    0.000    1.500    2.500    3.750    3.500    3.000 
#    0.000   10.000    0.000    0.000    0.000    0.000 
#    0.000    0.000    0.000    0.000    0.000    0.000 
#
# Total GULP energy -89340.225781 kJ/mol
# GULP energy per Si atom -5583.764111 kJ/mol
# Density = 2.333616 g / cm^3
# Si number density = 23.389396 Si / 1000 Ang^3
#
#
#
# Elastic Constant Matrix: (Units=GPa)
#
#
# Indices 1 2 3 4 5 6 
#
# 1 171.8979 38.5975 37.8240 0.0153 41.9566 -0.0062
# 2 38.5975 64.3806 19.4835 -0.0006 23.4443 -0.0013
# 3 37.8240 19.4835 78.9376 0.0051 18.4897 -0.0072
# 4 0.0153 -0.0006 0.0051 23.7848 -0.0136 4.3695
# 5 41.9566 23.4443 18.4897 -0.0136 64.8298 0.0073
# 6 -0.0062 -0.0013 -0.0072 4.3695 0.0073 26.5380
#
#
#
# Elastic Compliance Matrix: (Units=1/GPa)
#
#
# Indices 1 2 3 4 5 6 
#
# 1 0.007753 -0.002734 -0.002246 -0.000007 -0.003388 0.000003
# 2 -0.002734 0.019594 -0.002444 0.000000 -0.004619 0.000001
# 3 -0.002246 -0.002444 0.014788 -0.000004 -0.001880 0.000004
# 4 -0.000007 0.000000 -0.000004 0.043355 0.000016 -0.007139
# 5 -0.003388 -0.004619 -0.001880 0.000016 0.019824 -0.000010
# 6 0.000003 0.000001 0.000004 -0.007139 -0.000010 0.038857
#
#
# Mechanical properties :
#
#
# Convention : Reuss Voigt Hill
#
# Bulk Modulus (GPa) = 36.65019 56.33624 46.49321
# Shear Modulus (GPa) = 29.74157 37.65126 33.69642
#
# Velocity S-wave (km/s) = 3.56980 4.01653 3.79973
# Velocity P-wave (km/s) = 5.71794 6.75637 6.25873
#
# Compressibility (1/GPa) = 0.02728499
#
# Stress axis : x y z
#
# Youngs Moduli (GPa) = 128.99011 51.03726 67.62154
#
# Poissons Ratio (x) = 0.13955 0.15190
# Poissons Ratio (y) = 0.35270 0.16527
# Poissons Ratio (z) = 0.28975 0.12473
#
# Static dielectric constant tensor:
#      x y z
#    x 1.908310 -0.000010 -0.035140 
#    y -0.000010 1.874680 0.000000 
#    z -0.035140 0.000000 1.953510 
# 
# From -- ./inp_files/133694.got.cif
#   From: 2010.05.17/outbox.cif.g08.bks.cpg/sg15_67_cif.got.tgz:133694.got - 2010.06.03 18:47:42.
