data_PCOD9281145
_publ_section_title
;
Structure prediction by ZEFSAII (Michael W. Deem and Ramdas Pophale) SiO2 
 PCOD9281145
Probable space group: C 2/C
;
_chemical_formula_sum "Si O2"
_cell_formula_units_Z 48
_cell_length_a 5.072614
_cell_length_b 18.448068
_cell_length_c 22.690691
_cell_angle_alpha 90.000000
_cell_angle_beta 93.785307
_cell_angle_gamma 90.000000
_cell_volume 2118.760901
_symmetry_space_group_name_H-M "C 2/C"
_symmetry_group_IT_number 15
_symmetry_cell_setting 'monoclinic'
loop_
_space_group_symop_operation_xyz
x,y,z
-x,y,1/2-z
-x,-y,-z
x,-y,1/2+z
1/2+x,1/2+y,z
1/2-x,1/2+y,1/2-z
1/2-x,1/2-y,-z
1/2+x,1/2-y,1/2+z
loop_
_atom_site_type_symbol
_atom_site_label
_atom_site_fract_x
_atom_site_fract_y
_atom_site_fract_z
Si Si1 0.651151 0.092775 0.690318
Si Si2 0.015883 0.247748 0.180768
Si Si3 0.991415 0.675107 0.020289
Si Si4 0.652348 0.686073 0.582985
Si Si5 0.969300 0.121867 0.412543
Si Si6 0.117852 0.039573 0.632023
O O1 0.500000 0.088509 0.750000
O O2 0.689178 0.178812 0.679651
O O3 0.428839 0.055121 0.645868
O O4 0.928653 0.053823 0.685188
O O5 0.747224 0.278740 0.146219
O O6 0.000000 0.228717 0.250000
O O7 0.092122 0.179304 0.141302
O O8 0.975197 0.756413 0.046134
O O9 0.241150 0.639899 0.058701
O O10 0.736812 0.633475 0.037951
O O11 0.086723 0.679145 0.954542
O O12 0.535780 0.606583 0.589060
O O13 0.939338 0.040139 0.390762
#
# Coordination Sequence:
#
# PCOD9281145 Si02
#       6
#     8   8   8   8   8   8
#     4  10  21  38  59  82 114 159 202 242 291 357
#     4   9  20  39  62  87 117 154 199 247 298 358
#     4  10  22  40  62  86 121 161 204 248 295 358
#     4   9  21  39  63  89 118 162 207 248 296 354
#     4  11  23  39  59  90 123 156 195 247 308 357
#     4  11  22  37  59  88 122 154 199 249 300 360
#
# _framework density 22.654748000000001
#
# number of rings (size 3 to 8) (size 9 to 14) (size 15 to 20)
#    0.000    2.000    0.000    2.500    0.000   11.333 
#    0.000    8.333    0.000    0.000    0.000    0.000 
#    0.000    0.000    0.000    0.000    0.000    0.000 
#
# Total GULP energy -134093.132270 kJ/mol
# GULP energy per Si atom -5587.213845 kJ/mol
# Density = 2.260318 g / cm^3
# Si number density = 22.654748 Si / 1000 Ang^3
#
#
#
# Elastic Constant Matrix: (Units=GPa)
#
#
# Indices 1 2 3 4 5 6 
#
# 1 85.6469 35.7233 32.7770 0.0000 -16.0235 0.0000
# 2 35.7233 161.2409 50.2977 0.0000 -9.5113 0.0000
# 3 32.7770 50.2977 128.3885 0.0000 8.1198 0.0000
# 4 0.0000 0.0000 0.0000 17.6901 0.0000 -7.5554
# 5 -16.0235 -9.5113 8.1198 0.0000 27.6790 0.0000
# 6 0.0000 0.0000 0.0000 -7.5554 0.0000 23.0358
#
#
#
# Elastic Compliance Matrix: (Units=1/GPa)
#
#
# Indices 1 2 3 4 5 6 
#
# 1 0.015701 -0.001671 -0.003966 0.000000 0.009679 0.000000
# 2 -0.001671 0.007552 -0.002685 0.000000 0.002416 0.000000
# 3 -0.003966 -0.002685 0.010247 0.000000 -0.006225 0.000000
# 4 0.000000 0.000000 0.000000 0.065737 0.000000 0.021561
# 5 0.009679 0.002416 -0.006225 0.000000 0.044388 0.000000
# 6 0.000000 0.000000 0.000000 0.021561 0.000000 0.050482
#
#
# Mechanical properties :
#
#
# Convention : Reuss Voigt Hill
#
# Bulk Modulus (GPa) = 59.32221 68.09693 63.70957
# Shear Modulus (GPa) = 23.10857 30.77953 26.94405
#
# Velocity S-wave (km/s) = 3.19726 3.68997 3.45241
# Velocity P-wave (km/s) = 6.31444 6.94826 6.63892
#
# Compressibility (1/GPa) = 0.01685709
#
# Stress axis : x y z
#
# Youngs Moduli (GPa) = 63.68898 132.41472 97.59033
#
# Poissons Ratio (x) = 0.22120 0.38706
# Poissons Ratio (y) = 0.10639 0.26202
# Poissons Ratio (z) = 0.25260 0.35552
#
# Static dielectric constant tensor:
#      x y z
#    x 1.883160 0.000000 0.032550 
#    y 0.000000 1.803250 0.000000 
#    z 0.032550 0.000000 1.912920 
# 
# From -- ./inp_files/260673.got.cif
#   From: 2010.05.17/outbox.cif.g08.bks.cpg/sg15_131_cif.got.tgz:260673.got - 2010.06.03 18:47:42.
