data_PCOD9281324
_publ_section_title
;
Structure prediction by ZEFSAII (Michael W. Deem and Ramdas Pophale) SiO2 
 PCOD9281324
Probable space group: C 2/C
;
_chemical_formula_sum "Si O2"
_cell_formula_units_Z 36
_cell_length_a 24.354080
_cell_length_b 15.576249
_cell_length_c 5.113082
_cell_angle_alpha 90.000000
_cell_angle_beta 98.370581
_cell_angle_gamma 90.000000
_cell_volume 1918.960788
_symmetry_space_group_name_H-M "C 2/C"
_symmetry_group_IT_number 15
_symmetry_cell_setting 'monoclinic'
loop_
_space_group_symop_operation_xyz
x,y,z
-x,y,1/2-z
-x,-y,-z
x,-y,1/2+z
1/2+x,1/2+y,z
1/2-x,1/2+y,1/2-z
1/2-x,1/2-y,-z
1/2+x,1/2-y,1/2+z
loop_
_atom_site_type_symbol
_atom_site_label
_atom_site_fract_x
_atom_site_fract_y
_atom_site_fract_z
Si Si1 0.000000 0.939107 0.250000
Si Si2 0.283317 0.310425 0.226843
Si Si3 0.599091 0.692810 0.883385
Si Si4 0.806006 0.443337 0.131165
Si Si5 0.873466 0.286092 0.086739
O O1 0.053461 0.877740 0.295859
O O2 0.000000 0.000000 0.500000
O O3 0.338535 0.343856 0.115333
O O4 0.246263 0.385778 0.316979
O O5 0.312670 0.254454 0.475375
O O6 0.250000 0.250000 0.000000
O O7 0.595859 0.769865 0.666744
O O8 0.596911 0.731384 0.170218
O O9 0.805780 0.521008 0.336955
O O10 0.859403 0.380513 0.179203
#
# Coordination Sequence:
#
# PCOD9281324 Si02
#       5
#     4   8   8   8   8
#     4  12  26  46  64  98 132 154 214 274 302 354
#     4  10  21  38  61  83 128 165 212 244 300 387
#     4  10  23  38  67  79 119 173 203 244 310 362
#     4  12  23  32  54  89 123 152 192 255 306 351
#     4  10  21  40  58  82 116 169 206 243 301 389
#
# _framework density 18.760155999999998
#
# number of rings (size 3 to 8) (size 9 to 14) (size 15 to 20)
#    1.333    0.000    2.222    4.667    3.111    1.778 
#    0.000    0.000    0.000    0.000    0.000   15.556 
#    0.000    0.000    0.000    0.000    0.000    0.000 
#
# Total GULP energy -100300.250069 kJ/mol
# GULP energy per Si atom -5572.236115 kJ/mol
# Density = 1.871746 g / cm^3
# Si number density = 18.760156 Si / 1000 Ang^3
#
#
#
# Elastic Constant Matrix: (Units=GPa)
#
#
# Indices 1 2 3 4 5 6 
#
# 1 76.7133 32.8364 20.2067 0.0000 14.5443 0.0000
# 2 32.8364 52.0683 8.4694 0.0000 10.8505 0.0000
# 3 20.2067 8.4694 104.0340 0.0000 -1.0412 0.0000
# 4 0.0000 0.0000 0.0000 44.0244 0.0000 -6.5721
# 5 14.5443 10.8505 -1.0412 0.0000 22.5519 0.0000
# 6 0.0000 0.0000 0.0000 -6.5721 0.0000 38.6041
#
#
#
# Elastic Compliance Matrix: (Units=1/GPa)
#
#
# Indices 1 2 3 4 5 6 
#
# 1 0.019763 -0.010311 -0.003078 0.000000 -0.007927 0.000000
# 2 -0.010311 0.027083 -0.000266 0.000000 -0.006393 0.000000
# 3 -0.003078 -0.000266 0.010258 0.000000 0.002587 0.000000
# 4 0.000000 0.000000 0.000000 0.023307 0.000000 0.003968
# 5 -0.007927 -0.006393 0.002587 0.000000 0.052650 0.000000
# 6 0.000000 0.000000 0.000000 0.003968 0.000000 0.026579
#
#
# Mechanical properties :
#
#
# Convention : Reuss Voigt Hill
#
# Bulk Modulus (GPa) = 33.56454 39.53785 36.55119
# Shear Modulus (GPa) = 25.39596 32.45629 28.92612
#
# Velocity S-wave (km/s) = 3.68328 4.16392 3.93095
# Velocity P-wave (km/s) = 6.00158 6.65123 6.33474
#
# Compressibility (1/GPa) = 0.02979335
#
# Stress axis : x y z
#
# Youngs Moduli (GPa) = 50.60054 36.92293 97.48732
#
# Poissons Ratio (x) = 0.38070 0.30011
# Poissons Ratio (y) = 0.52172 0.02595
# Poissons Ratio (z) = 0.15577 0.00983
#
# Static dielectric constant tensor:
#      x y z
#    x 1.675350 0.000000 -0.024580 
#    y 0.000000 1.663390 0.000000 
#    z -0.024580 0.000000 1.668110 
# 
# From -- ./inp_files/16811.got.cif
#   From: 2010.05.17/outbox.cif.g08.bks.cpg/sg15_9_cif.got.tgz:16811.got - 2010.06.03 18:47:42.
