data_PCOD9281124
_publ_section_title
;
Structure prediction by ZEFSAII (Michael W. Deem and Ramdas Pophale) SiO2 
 PCOD9281124
Probable space group: C 2/C
;
_chemical_formula_sum "Si O2"
_cell_formula_units_Z 40
_cell_length_a 23.716804
_cell_length_b 15.790840
_cell_length_c 5.236627
_cell_angle_alpha 90.000000
_cell_angle_beta 90.660765
_cell_angle_gamma 90.000000
_cell_volume 1961.029637
_symmetry_space_group_name_H-M "C 2/C"
_symmetry_group_IT_number 15
_symmetry_cell_setting 'monoclinic'
loop_
_space_group_symop_operation_xyz
x,y,z
-x,y,1/2-z
-x,-y,-z
x,-y,1/2+z
1/2+x,1/2+y,z
1/2-x,1/2+y,1/2-z
1/2-x,1/2-y,-z
1/2+x,1/2-y,1/2+z
loop_
_atom_site_type_symbol
_atom_site_label
_atom_site_fract_x
_atom_site_fract_y
_atom_site_fract_z
Si Si1 0.611197 0.687687 0.724147
Si Si2 0.931950 0.709511 0.773689
Si Si3 0.024380 0.906087 0.007688
Si Si4 0.242328 0.806985 0.251348
Si Si5 0.656149 0.941105 0.211500
O O1 0.591742 0.749447 0.491699
O O2 0.587862 0.598855 0.598998
O O3 0.676780 0.670241 0.752838
O O4 0.588907 0.730180 0.988811
O O5 0.897709 0.621766 0.800825
O O6 0.000000 0.695935 0.750000
O O7 0.000000 0.867945 0.750000
O O8 0.000000 0.857518 0.250000
O O9 0.000000 0.000000 0.000000
O O10 0.250000 0.750000 0.500000
O O11 0.288018 0.881956 0.265479
O O12 0.250000 0.750000 0.000000
O O13 0.655808 0.001848 0.457671
#
# Coordination Sequence:
#
# PCOD9281124 Si02
#       5
#     8   8   8   8   8
#     4  12  22  42  70  98 133 178 234 284 330 419
#     4  12  25  42  72 102 130 180 234 282 352 415
#     4  10  21  38  58  88 135 171 207 270 337 390
#     4  12  23  46  73 100 133 184 237 286 342 415
#     4  12  26  46  69 102 146 178 228 301 359 408
#
# _framework density 20.397449999999999
#
# number of rings (size 3 to 8) (size 9 to 14) (size 15 to 20)
#    0.000    0.400    4.000    6.000    0.000    0.800 
#    7.200    0.000    0.000    0.000    0.000    0.000 
#    0.000    0.000    0.000    0.000    0.000    0.000 
#
# Total GULP energy -111390.216639 kJ/mol
# GULP energy per Si atom -5569.510832 kJ/mol
# Density = 2.035102 g / cm^3
# Si number density = 20.397450 Si / 1000 Ang^3
#
#
#
# Elastic Constant Matrix: (Units=GPa)
#
#
# Indices 1 2 3 4 5 6 
#
# 1 211.8961 80.6783 55.3126 0.0000 25.3573 0.0000
# 2 80.6783 125.7884 54.8161 0.0000 1.9151 0.0000
# 3 55.3126 54.8161 189.4193 0.0000 -5.4775 0.0000
# 4 0.0000 0.0000 0.0000 37.9528 0.0000 8.0914
# 5 25.3573 1.9151 -5.4775 0.0000 37.8010 0.0000
# 6 0.0000 0.0000 0.0000 8.0914 0.0000 52.9779
#
#
#
# Elastic Compliance Matrix: (Units=1/GPa)
#
#
# Indices 1 2 3 4 5 6 
#
# 1 0.007083 -0.004018 -0.001042 0.000000 -0.004699 0.000000
# 2 -0.004018 0.011403 -0.002074 0.000000 0.001817 0.000000
# 3 -0.001042 -0.002074 0.006233 0.000000 0.001707 0.000000
# 4 0.000000 0.000000 0.000000 0.027235 0.000000 -0.004160
# 5 -0.004699 0.001817 0.001707 0.000000 0.029762 0.000000
# 6 0.000000 0.000000 0.000000 -0.004160 0.000000 0.019511
#
#
# Mechanical properties :
#
#
# Convention : Reuss Voigt Hill
#
# Bulk Modulus (GPa) = 95.67152 100.96862 98.32007
# Shear Modulus (GPa) = 42.02457 48.16612 45.09534
#
# Velocity S-wave (km/s) = 4.54396 4.86467 4.70705
# Velocity P-wave (km/s) = 8.63340 9.00897 8.82318
#
# Compressibility (1/GPa) = 0.01045243
#
# Stress axis : x y z
#
# Youngs Moduli (GPa) = 141.17993 87.69729 160.43490
#
# Poissons Ratio (x) = 0.35233 0.16711
# Poissons Ratio (y) = 0.56720 0.33277
# Poissons Ratio (z) = 0.14705 0.18190
#
# Static dielectric constant tensor:
#      x y z
#    x 1.630330 0.000000 -0.091190 
#    y 0.000000 1.768820 0.000000 
#    z -0.091190 0.000000 1.774090 
# 
# From -- ./inp_files/15042.got.cif
#   From: 2010.05.17/outbox.cif.g08.bks.cpg/sg15_8_cif.got.tgz:15042.got - 2010.06.03 18:47:42.
