data_PCOD9281889
_publ_section_title
;
Structure prediction by ZEFSAII (Michael W. Deem and Ramdas Pophale) SiO2 
 PCOD9281889
Probable space group: C 2/C
;
_chemical_formula_sum "Si O2"
_cell_formula_units_Z 48
_cell_length_a 16.499586
_cell_length_b 9.564655
_cell_length_c 14.687824
_cell_angle_alpha 90.000000
_cell_angle_beta 85.438100
_cell_angle_gamma 90.000000
_cell_volume 2310.584111
_symmetry_space_group_name_H-M "C 2/C"
_symmetry_group_IT_number 15
_symmetry_cell_setting 'monoclinic'
loop_
_space_group_symop_operation_xyz
x,y,z
-x,y,1/2-z
-x,-y,-z
x,-y,1/2+z
1/2+x,1/2+y,z
1/2-x,1/2+y,1/2-z
1/2-x,1/2-y,-z
1/2+x,1/2-y,1/2+z
loop_
_atom_site_type_symbol
_atom_site_label
_atom_site_fract_x
_atom_site_fract_y
_atom_site_fract_z
Si Si1 0.555069 0.812837 0.069957
Si Si2 0.432121 0.103134 0.435602
Si Si3 0.192247 0.152236 0.566603
Si Si4 0.500000 0.363023 0.750000
Si Si5 0.185437 0.140010 0.964114
Si Si6 0.140422 0.096146 0.765497
Si Si7 0.000000 0.679714 0.250000
O O1 0.530606 0.733556 0.163834
O O2 0.611995 0.952838 0.066576
O O3 0.475471 0.872848 0.027554
O O4 0.597889 0.705640 0.997862
O O5 0.386218 0.248509 0.425770
O O6 0.488336 0.091335 0.341677
O O7 0.250000 0.250000 0.500000
O O8 0.200407 0.110088 0.672777
O O9 0.188130 0.006861 0.515160
O O10 0.578628 0.461846 0.767083
O O11 0.187807 0.111019 0.856153
O O12 0.250000 0.250000 0.000000
O O13 0.077449 0.224185 0.763894
#
# Coordination Sequence:
#
# PCOD9281889 Si02
#       7
#     8   8   8   4   8   8   4
#     4  11  22  39  64 100 132 167 219 276 334 395
#     4  10  21  38  65  97 133 168 210 278 328 396
#     4  11  24  44  64  92 133 181 225 272 339 403
#     4  11  21  40  70 102 130 170 230 280 338 402
#     4  12  25  43  65  94 136 177 226 278 336 405
#     4  10  22  39  67  96 126 170 220 277 334 394
#     4   9  17  36  64  92 124 160 210 262 322 386
#
# _framework density 20.773966000000001
#
# number of rings (size 3 to 8) (size 9 to 14) (size 15 to 20)
#    0.000    1.333    3.333    2.500    0.000    2.667 
#    3.000    0.000    0.000    0.000    0.000    0.000 
#    0.000    0.000    0.000    0.000    0.000    0.000 
#
# Total GULP energy -133620.420408 kJ/mol
# GULP energy per Si atom -5567.517517 kJ/mol
# Density = 2.072668 g / cm^3
# Si number density = 20.773966 Si / 1000 Ang^3
#
#
#
# Elastic Constant Matrix: (Units=GPa)
#
#
# Indices 1 2 3 4 5 6 
#
# 1 30.8264 23.6735 43.0586 0.0000 0.9766 0.0000
# 2 23.6735 163.2815 75.2922 0.0000 3.4299 0.0000
# 3 43.0586 75.2922 211.0024 0.0000 6.8192 0.0000
# 4 0.0000 0.0000 0.0000 43.0407 0.0000 -6.9573
# 5 0.9766 3.4299 6.8192 0.0000 26.4956 0.0000
# 6 0.0000 0.0000 0.0000 -6.9573 0.0000 26.1158
#
#
#
# Elastic Compliance Matrix: (Units=1/GPa)
#
#
# Indices 1 2 3 4 5 6 
#
# 1 0.046458 -0.002836 -0.008496 0.000000 0.000841 0.000000
# 2 -0.002836 0.007506 -0.002089 0.000000 -0.000329 0.000000
# 3 -0.008496 -0.002089 0.007260 0.000000 -0.001285 0.000000
# 4 0.000000 0.000000 0.000000 0.024279 0.000000 0.006468
# 5 0.000841 -0.000329 -0.001285 0.000000 0.038085 0.000000
# 6 0.000000 0.000000 0.000000 0.006468 0.000000 0.040014
#
#
# Mechanical properties :
#
#
# Convention : Reuss Voigt Hill
#
# Bulk Modulus (GPa) = 29.08460 76.57319 52.82890
# Shear Modulus (GPa) = 24.76432 36.66948 30.71690
#
# Velocity S-wave (km/s) = 3.45640 4.20594 3.84946
# Velocity P-wave (km/s) = 5.47356 7.77990 6.72632
#
# Compressibility (1/GPa) = 0.03438245
#
# Stress axis : x y z
#
# Youngs Moduli (GPa) = 21.52486 133.23184 137.74274
#
# Poissons Ratio (x) = 0.37782 1.17023
# Poissons Ratio (y) = 0.06104 0.28773
# Poissons Ratio (z) = 0.18287 0.27831
#
# Static dielectric constant tensor:
#      x y z
#    x 1.631810 0.000000 0.184160 
#    y 0.000000 2.222600 0.000000 
#    z 0.184160 0.000000 1.583510 
# 
# From -- ./inp_files/159774.got.cif
#   From: 2010.05.17/outbox.cif.g08.bks.cpg/sg15_80_cif.got.tgz:159774.got - 2010.06.03 18:47:42.
