data_PCOD9281540
_publ_section_title
;
Structure prediction by ZEFSAII (Michael W. Deem and Ramdas Pophale) SiO2 
 PCOD9281540
Probable space group: C 2/C
;
_chemical_formula_sum "Si O2"
_cell_formula_units_Z 56
_cell_length_a 23.583721
_cell_length_b 14.151521
_cell_length_c 9.188363
_cell_angle_alpha 90.000000
_cell_angle_beta 126.016759
_cell_angle_gamma 90.000000
_cell_volume 2480.383968
_symmetry_space_group_name_H-M "C 2/C"
_symmetry_group_IT_number 15
_symmetry_cell_setting 'monoclinic'
loop_
_space_group_symop_operation_xyz
x,y,z
-x,y,1/2-z
-x,-y,-z
x,-y,1/2+z
1/2+x,1/2+y,z
1/2-x,1/2+y,1/2-z
1/2-x,1/2-y,-z
1/2+x,1/2-y,1/2+z
loop_
_atom_site_type_symbol
_atom_site_label
_atom_site_fract_x
_atom_site_fract_y
_atom_site_fract_z
Si Si1 0.362113 0.962889 0.694313
Si Si2 0.928226 0.708051 0.454231
Si Si3 0.045600 0.945872 0.447166
Si Si4 0.414917 0.839087 0.276471
Si Si5 0.829728 0.173639 0.217726
Si Si6 0.144776 0.890524 0.065170
Si Si7 0.267486 0.977760 0.808912
O O1 0.396261 0.864705 0.790772
O O2 0.290126 0.971253 0.676766
O O3 0.412458 0.050604 0.807682
O O4 0.335878 0.983819 0.493406
O O5 0.913234 0.673068 0.597901
O O6 0.892596 0.810470 0.395760
O O7 0.011998 0.708273 0.566137
O O8 0.103597 0.879150 0.608363
O O9 0.000000 0.899276 0.250000
O O10 0.088139 0.030995 0.435206
O O11 0.000000 0.000000 0.500000
O O12 0.349829 0.784147 0.252289
O O13 0.761443 0.124527 0.183757
O O14 0.827231 0.152128 0.042421
O O15 0.205776 0.947014 0.237615
#
# Coordination Sequence:
#
# PCOD9281540 Si02
#       7
#     8   8   8   8   8   8   8
#     4  12  23  43  63  92 126 171 209 265 303 371
#     4  10  22  40  67  94 123 165 213 261 314 371
#     4  11  20  33  58  91 128 164 201 251 314 372
#     4  10  22  41  67  93 123 165 216 256 317 370
#     4  10  21  39  62  93 125 165 207 257 308 382
#     4  10  21  38  62  93 127 163 206 258 310 379
#     4  11  24  40  64  93 131 164 211 252 319 371
#
# _framework density 22.577148000000001
#
# number of rings (size 3 to 8) (size 9 to 14) (size 15 to 20)
#    0.000    1.429    4.286    1.286    2.000    2.286 
#    0.000    2.857    0.000    0.000    0.000    0.000 
#    0.000    0.000    0.000    0.000    0.000    0.000 
#
# Total GULP energy -156444.980207 kJ/mol
# GULP energy per Si atom -5587.320722 kJ/mol
# Density = 2.252576 g / cm^3
# Si number density = 22.577148 Si / 1000 Ang^3
#
#
#
# Elastic Constant Matrix: (Units=GPa)
#
#
# Indices 1 2 3 4 5 6 
#
# 1 44.7020 3.0379 -1.0268 0.0000 5.5988 0.0000
# 2 3.0379 82.2342 11.2605 0.0000 12.1530 0.0000
# 3 -1.0268 11.2605 75.6734 0.0000 15.8140 0.0000
# 4 0.0000 0.0000 0.0000 28.3468 0.0000 4.1065
# 5 5.5988 12.1530 15.8140 0.0000 25.5773 0.0000
# 6 0.0000 0.0000 0.0000 4.1065 0.0000 15.7292
#
#
#
# Elastic Compliance Matrix: (Units=1/GPa)
#
#
# Indices 1 2 3 4 5 6 
#
# 1 0.023167 -0.000192 0.001589 0.000000 -0.005962 0.000000
# 2 -0.000192 0.013117 -0.000759 0.000000 -0.005721 0.000000
# 3 0.001589 -0.000759 0.015327 0.000000 -0.009464 0.000000
# 4 0.000000 0.000000 0.000000 0.036664 0.000000 -0.009572
# 5 -0.005962 -0.005721 -0.009464 0.000000 0.048972 0.000000
# 6 0.000000 0.000000 0.000000 -0.009572 0.000000 0.066075
#
#
# Mechanical properties :
#
#
# Convention : Reuss Voigt Hill
#
# Bulk Modulus (GPa) = 18.90859 25.46140 22.18500
# Shear Modulus (GPa) = 22.76096 26.55320 24.65708
#
# Velocity S-wave (km/s) = 3.17857 3.43317 3.30832
# Velocity P-wave (km/s) = 4.67593 5.19784 4.94378
#
# Compressibility (1/GPa) = 0.05288602
#
# Stress axis : x y z
#
# Youngs Moduli (GPa) = 43.16544 76.23743 65.24501
#
# Poissons Ratio (x) = 0.01466 -0.10367
# Poissons Ratio (y) = 0.00830 0.04951
# Poissons Ratio (z) = -0.06859 0.05785
#
# Static dielectric constant tensor:
#      x y z
#    x 1.840240 0.000000 0.036070 
#    y 0.000000 1.847820 0.000000 
#    z 0.036070 0.000000 1.802380 
# 
# From -- ./inp_files/61991.got.cif
#   From: 2010.05.17/outbox.cif.g08.bks.cpg/sg15_31_cif.got.tgz:61991.got - 2010.06.03 18:47:42.
