data_PCOD9281754
_publ_section_title
;
Structure prediction by ZEFSAII (Michael W. Deem and Ramdas Pophale) SiO2 
 PCOD9281754
Probable space group: C 2/C
;
_chemical_formula_sum "Si O2"
_cell_formula_units_Z 56
_cell_length_a 14.003057
_cell_length_b 12.226006
_cell_length_c 17.932680
_cell_angle_alpha 90.000000
_cell_angle_beta 113.030942
_cell_angle_gamma 90.000000
_cell_volume 2825.394616
_symmetry_space_group_name_H-M "C 2/C"
_symmetry_group_IT_number 15
_symmetry_cell_setting 'monoclinic'
loop_
_space_group_symop_operation_xyz
x,y,z
-x,y,1/2-z
-x,-y,-z
x,-y,1/2+z
1/2+x,1/2+y,z
1/2-x,1/2+y,1/2-z
1/2-x,1/2-y,-z
1/2+x,1/2-y,1/2+z
loop_
_atom_site_type_symbol
_atom_site_label
_atom_site_fract_x
_atom_site_fract_y
_atom_site_fract_z
Si Si1 0.167255 0.421102 0.166261
Si Si2 0.791098 0.324545 0.170422
Si Si3 0.561462 0.890848 0.992048
Si Si4 0.437395 0.332460 0.462570
Si Si5 0.988357 0.023871 0.120772
Si Si6 0.451484 0.005132 0.162006
Si Si7 0.344414 0.580424 0.206341
O O1 0.224302 0.349389 0.246134
O O2 0.228744 0.535258 0.181675
O O3 0.050264 0.437913 0.160301
O O4 0.154952 0.376176 0.079097
O O5 0.683668 0.324151 0.093735
O O6 0.863921 0.419680 0.159922
O O7 0.844623 0.206699 0.183298
O O8 0.488387 0.786251 0.974896
O O9 0.588967 0.915907 0.914945
O O10 0.500000 0.000000 0.000000
O O11 0.487898 0.413040 0.416486
O O12 0.457072 0.387419 0.548900
O O13 0.899464 0.014874 0.156127
O O14 0.089304 0.062014 0.198457
O O15 0.500000 0.062265 0.250000
#
# Coordination Sequence:
#
# PCOD9281754 Si02
#       7
#     8   8   8   8   8   8   8
#     4  10  21  40  58  95 126 160 211 264 319 372
#     4  11  22  37  69  94 126 168 219 265 320 380
#     4  10  21  38  64  91 129 165 208 268 320 371
#     4  11  23  45  64  96 133 172 213 268 325 384
#     4  10  25  42  67  93 134 169 219 264 320 393
#     4   9  21  37  58  96 130 158 211 268 318 370
#     4  11  23  42  67  94 125 174 218 260 324 388
#
# _framework density 19.820239999999998
#
# number of rings (size 3 to 8) (size 9 to 14) (size 15 to 20)
#    0.000    1.714    1.429    2.571   12.000    0.571 
#    2.571    2.143    0.000    0.000    0.000    0.000 
#    0.000    0.000    0.000    0.000    0.000    0.000 
#
# Total GULP energy -156279.086368 kJ/mol
# GULP energy per Si atom -5581.395942 kJ/mol
# Density = 1.977513 g / cm^3
# Si number density = 19.820240 Si / 1000 Ang^3
#
#
#
# Elastic Constant Matrix: (Units=GPa)
#
#
# Indices 1 2 3 4 5 6 
#
# 1 36.2349 33.7849 51.0041 0.0000 8.6797 0.0000
# 2 33.7849 80.1803 50.8868 0.0000 8.6145 0.0000
# 3 51.0041 50.8868 187.3215 0.0000 0.8638 0.0000
# 4 0.0000 0.0000 0.0000 23.6062 0.0000 4.5726
# 5 8.6797 8.6145 0.8638 0.0000 26.8974 0.0000
# 6 0.0000 0.0000 0.0000 4.5726 0.0000 25.8672
#
#
#
# Elastic Compliance Matrix: (Units=1/GPa)
#
#
# Indices 1 2 3 4 5 6 
#
# 1 0.066659 -0.018089 -0.013165 0.000000 -0.015294 0.000000
# 2 -0.018089 0.020596 -0.000666 0.000000 -0.000738 0.000000
# 3 -0.013165 -0.000666 0.009085 0.000000 0.004170 0.000000
# 4 0.000000 0.000000 0.000000 0.043864 0.000000 -0.007754
# 5 -0.015294 -0.000738 0.004170 0.000000 0.042216 0.000000
# 6 0.000000 0.000000 0.000000 -0.007754 0.000000 0.040030
#
#
# Mechanical properties :
#
#
# Convention : Reuss Voigt Hill
#
# Bulk Modulus (GPa) = 30.77072 63.89872 47.33472
# Shear Modulus (GPa) = 16.82806 26.47822 21.65314
#
# Velocity S-wave (km/s) = 2.91698 3.65899 3.30885
# Velocity P-wave (km/s) = 5.18687 7.08237 6.20740
#
# Compressibility (1/GPa) = 0.03249843
#
# Stress axis : x y z
#
# Youngs Moduli (GPa) = 15.00182 48.55323 110.07248
#
# Poissons Ratio (x) = 0.87826 1.44916
# Poissons Ratio (y) = 0.27136 0.07335
# Poissons Ratio (z) = 0.19751 0.03236
#
# Static dielectric constant tensor:
#      x y z
#    x 1.653540 0.000000 -0.005840 
#    y 0.000000 1.671440 0.000000 
#    z -0.005840 0.000000 1.751990 
# 
# From -- ./inp_files/204524.got.cif
#   From: 2010.05.17/outbox.cif.g08.bks.cpg/sg15_103_cif.got.tgz:204524.got - 2010.06.03 18:47:42.
