data_PCOD9281913
_publ_section_title
;
Structure prediction by ZEFSAII (Michael W. Deem and Ramdas Pophale) SiO2 
 PCOD9281913
Probable space group: C 2/C
;
_chemical_formula_sum "Si O2"
_cell_formula_units_Z 56
_cell_length_a 8.685480
_cell_length_b 22.940182
_cell_length_c 13.244299
_cell_angle_alpha 90.000000
_cell_angle_beta 105.964376
_cell_angle_gamma 90.000000
_cell_volume 2537.106133
_symmetry_space_group_name_H-M "C 2/C"
_symmetry_group_IT_number 15
_symmetry_cell_setting 'monoclinic'
loop_
_space_group_symop_operation_xyz
x,y,z
-x,y,1/2-z
-x,-y,-z
x,-y,1/2+z
1/2+x,1/2+y,z
1/2-x,1/2+y,1/2-z
1/2-x,1/2-y,-z
1/2+x,1/2-y,1/2+z
loop_
_atom_site_type_symbol
_atom_site_label
_atom_site_fract_x
_atom_site_fract_y
_atom_site_fract_z
Si Si1 0.582459 0.115512 0.485459
Si Si2 0.991659 0.977653 0.369588
Si Si3 0.873991 0.212008 0.138476
Si Si4 0.325129 0.041950 0.192169
Si Si5 0.763276 0.918624 0.598926
Si Si6 0.600394 0.358383 0.370713
Si Si7 0.527514 0.755912 0.558055
O O1 0.652657 0.082968 0.400433
O O2 0.414425 0.084114 0.481761
O O3 0.713317 0.122343 0.597664
O O4 0.544768 0.180600 0.441259
O O5 0.121976 0.028363 0.413625
O O6 0.000000 0.971200 0.250000
O O7 0.813320 0.997351 0.359309
O O8 0.025987 0.913512 0.417148
O O9 0.839849 0.145126 0.099703
O O10 0.704966 0.241222 0.138810
O O11 0.000000 0.212421 0.250000
O O12 0.940911 0.246206 0.054555
O O13 0.500000 0.016732 0.250000
O O14 0.267318 0.073750 0.285172
O O15 0.500000 0.352249 0.250000
O O16 0.578129 0.297035 0.421543
#
# Coordination Sequence:
#
# PCOD9281913 Si02
#       7
#     8   8   8   8   8   8   8
#     4  10  22  39  61  92 121 153 207 259 295 359
#     4   9  19  38  61  89 126 161 201 244 299 372
#     4  10  21  38  66  89 116 161 202 255 305 356
#     4   9  18  35  63  96 122 153 202 256 301 343
#     4   9  19  37  64  91 120 154 203 259 301 349
#     4  11  25  40  59  85 127 169 197 243 314 370
#     4  10  24  41  58  92 124 156 209 246 303 379
#
# _framework density 22.072391
#
# number of rings (size 3 to 8) (size 9 to 14) (size 15 to 20)
#    0.000    2.286    0.000    1.714    6.000    4.000 
#    0.000    0.714   12.571    0.000    0.000    0.000 
#    0.000    0.000    0.000    0.000    0.000    0.000 
#
# Total GULP energy -156393.592076 kJ/mol
# GULP energy per Si atom -5585.485431 kJ/mol
# Density = 2.202215 g / cm^3
# Si number density = 22.072391 Si / 1000 Ang^3
#
#
#
# Elastic Constant Matrix: (Units=GPa)
#
#
# Indices 1 2 3 4 5 6 
#
# 1 76.3735 22.2021 25.6225 0.0000 31.3627 0.0000
# 2 22.2021 76.4396 -22.3852 0.0000 9.3540 0.0000
# 3 25.6225 -22.3852 73.7824 0.0000 32.0899 0.0000
# 4 0.0000 0.0000 0.0000 16.3715 0.0000 9.2528
# 5 31.3627 9.3540 32.0899 0.0000 33.1280 0.0000
# 6 0.0000 0.0000 0.0000 9.2528 0.0000 19.8297
#
#
#
# Elastic Compliance Matrix: (Units=1/GPa)
#
#
# Indices 1 2 3 4 5 6 
#
# 1 0.022605 -0.004394 -0.000717 0.000000 -0.019465 0.000000
# 2 -0.004394 0.020602 0.014683 0.000000 -0.015880 0.000000
# 3 -0.000717 0.014683 0.034154 0.000000 -0.036551 0.000000
# 4 0.000000 0.000000 0.000000 0.082960 0.000000 -0.038710
# 5 -0.019465 -0.015880 -0.036551 0.000000 0.088503 0.000000
# 6 0.000000 0.000000 0.000000 -0.038710 0.000000 0.068492
#
#
# Mechanical properties :
#
#
# Convention : Reuss Voigt Hill
#
# Bulk Modulus (GPa) = 10.36222 30.83045 20.59633
# Shear Modulus (GPa) = 15.13600 27.27625 21.20613
#
# Velocity S-wave (km/s) = 2.62151 3.51916 3.10296
# Velocity P-wave (km/s) = 3.72397 5.52366 4.71056
#
# Compressibility (1/GPa) = 0.09650444
#
# Stress axis : x y z
#
# Youngs Moduli (GPa) = 44.23880 48.53994 29.27911
#
# Poissons Ratio (x) = 0.21327 0.02100
# Poissons Ratio (y) = 0.19437 -0.42991
# Poissons Ratio (z) = 0.03173 -0.71271
#
# Static dielectric constant tensor:
#      x y z
#    x 1.835920 0.000000 0.023370 
#    y 0.000000 1.779880 0.000000 
#    z 0.023370 0.000000 1.834420 
# 
# From -- ./inp_files/137477.got.cif
#   From: 2010.05.17/outbox.cif.g08.bks.cpg/sg15_69_cif.got.tgz:137477.got - 2010.06.03 18:47:42.
