data_PCOD9281550
_publ_section_title
;
Structure prediction by ZEFSAII (Michael W. Deem and Ramdas Pophale) SiO2 
 PCOD9281550
Probable space group: C 2/C
;
_chemical_formula_sum "Si O2"
_cell_formula_units_Z 56
_cell_length_a 9.060058
_cell_length_b 18.611654
_cell_length_c 16.902555
_cell_angle_alpha 90.000000
_cell_angle_beta 77.818658
_cell_angle_gamma 90.000000
_cell_volume 2785.981678
_symmetry_space_group_name_H-M "C 2/C"
_symmetry_group_IT_number 15
_symmetry_cell_setting 'monoclinic'
loop_
_space_group_symop_operation_xyz
x,y,z
-x,y,1/2-z
-x,-y,-z
x,-y,1/2+z
1/2+x,1/2+y,z
1/2-x,1/2+y,1/2-z
1/2-x,1/2-y,-z
1/2+x,1/2-y,1/2+z
loop_
_atom_site_type_symbol
_atom_site_label
_atom_site_fract_x
_atom_site_fract_y
_atom_site_fract_z
Si Si1 0.040113 0.598018 0.020891
Si Si2 0.855514 0.756436 0.867004
Si Si3 0.118591 0.091815 0.539700
Si Si4 0.000000 0.881407 0.750000
Si Si5 0.562998 0.964532 0.117074
Si Si6 0.520199 0.255948 0.473611
Si Si7 0.613052 0.484438 0.870756
Si Si8 0.500000 0.134898 0.750000
O O1 0.008631 0.542541 0.094673
O O2 0.050713 0.680227 0.043200
O O3 0.204305 0.579586 0.966661
O O4 0.920093 0.582199 0.965260
O O5 0.687647 0.747847 0.918626
O O6 0.886572 0.689055 0.806096
O O7 0.892732 0.828530 0.813712
O O8 0.962841 0.756317 0.932632
O O9 0.093373 0.062814 0.453000
O O10 0.068894 0.174597 0.545685
O O11 0.015853 0.044906 0.609328
O O12 0.092347 0.932420 0.798972
O O13 0.453891 0.919661 0.185844
O O14 0.723929 0.977762 0.140073
#
# Coordination Sequence:
#
# PCOD9281550 Si02
#       8
#     8   8   8   4   8   8   8   4
#     4  10  22  38  62  93 125 166 205 255 309 371
#     4  10  23  35  65  91 118 165 212 251 318 370
#     4  10  21  38  62  94 121 164 207 256 305 376
#     4  11  22  42  60  97 126 162 204 271 316 366
#     4  10  22  38  60  90 125 162 207 247 314 370
#     4  11  20  40  62  90 123 164 210 258 298 383
#     4  10  22  38  63  89 125 159 210 253 313 371
#     4  11  20  40  58  91 120 156 204 263 300 370
#
# _framework density 20.100632999999998
#
# number of rings (size 3 to 8) (size 9 to 14) (size 15 to 20)
#    0.000    1.714    2.857    1.286    2.000    4.571 
#    0.000    0.000    0.000    4.286    0.000    0.000 
#    0.000    0.000    0.000    0.000    0.000    0.000 
#
# Total GULP energy -156226.063255 kJ/mol
# GULP energy per Si atom -5579.502259 kJ/mol
# Density = 2.005488 g / cm^3
# Si number density = 20.100633 Si / 1000 Ang^3
#
#
#
# Elastic Constant Matrix: (Units=GPa)
#
#
# Indices 1 2 3 4 5 6 
#
# 1 55.5438 30.9364 24.6633 0.0000 4.3691 0.0000
# 2 30.9364 156.1048 48.6962 0.0000 0.8855 0.0000
# 3 24.6633 48.6962 90.6219 0.0000 -0.2723 0.0000
# 4 0.0000 0.0000 0.0000 47.1699 0.0000 2.9116
# 5 4.3691 0.8855 -0.2723 0.0000 14.8568 0.0000
# 6 0.0000 0.0000 0.0000 2.9116 0.0000 15.4168
#
#
#
# Elastic Compliance Matrix: (Units=1/GPa)
#
#
# Indices 1 2 3 4 5 6 
#
# 1 0.022135 -0.002961 -0.004452 0.000000 -0.006415 0.000000
# 2 -0.002961 0.008096 -0.003544 0.000000 0.000323 0.000000
# 3 -0.004452 -0.003544 0.014156 0.000000 0.001780 0.000000
# 4 0.000000 0.000000 0.000000 0.021450 0.000000 -0.004051
# 5 -0.006415 0.000323 0.001780 0.000000 0.069209 0.000000
# 6 0.000000 0.000000 0.000000 -0.004051 0.000000 0.065629
#
#
# Mechanical properties :
#
#
# Convention : Reuss Voigt Hill
#
# Bulk Modulus (GPa) = 44.49810 56.76247 50.63029
# Shear Modulus (GPa) = 21.73148 28.68700 25.20924
#
# Velocity S-wave (km/s) = 3.29163 3.78189 3.54524
# Velocity P-wave (km/s) = 6.05245 6.88264 6.48085
#
# Compressibility (1/GPa) = 0.02247287
#
# Stress axis : x y z
#
# Youngs Moduli (GPa) = 45.17807 123.51079 70.64084
#
# Poissons Ratio (x) = 0.36576 0.31449
# Poissons Ratio (y) = 0.13379 0.25033
# Poissons Ratio (z) = 0.20113 0.43769
#
# Static dielectric constant tensor:
#      x y z
#    x 1.718930 0.000000 0.009980 
#    y 0.000000 1.727020 0.000000 
#    z 0.009980 0.000000 1.725010 
# 
# From -- ./inp_files/190951.got.cif
#   From: 2010.05.17/outbox.cif.g08.bks.cpg/sg15_96_cif.got.tgz:190951.got - 2010.06.03 18:47:42.
