data_PCOD9281531
_publ_section_title
;
Structure prediction by ZEFSAII (Michael W. Deem and Ramdas Pophale) SiO2 
 PCOD9281531
Probable space group: C 2/C
;
_chemical_formula_sum "Si O2"
_cell_formula_units_Z 40
_cell_length_a 14.560376
_cell_length_b 16.212264
_cell_length_c 22.435431
_cell_angle_alpha 90.000000
_cell_angle_beta 159.548074
_cell_angle_gamma 90.000000
_cell_volume 1850.546932
_symmetry_space_group_name_H-M "C 2/C"
_symmetry_group_IT_number 15
_symmetry_cell_setting 'monoclinic'
loop_
_space_group_symop_operation_xyz
x,y,z
-x,y,1/2-z
-x,-y,-z
x,-y,1/2+z
1/2+x,1/2+y,z
1/2-x,1/2+y,1/2-z
1/2-x,1/2-y,-z
1/2+x,1/2-y,1/2+z
loop_
_atom_site_type_symbol
_atom_site_label
_atom_site_fract_x
_atom_site_fract_y
_atom_site_fract_z
Si Si1 0.881711 0.345075 0.621098
Si Si2 0.766680 0.978595 0.811628
Si Si3 0.118127 0.870016 0.732728
Si Si4 0.925886 0.387965 0.031619
Si Si5 0.362479 0.727817 0.817099
O O1 0.574561 0.346103 0.449016
O O2 0.000000 0.298562 0.750000
O O3 0.037083 0.429762 0.707494
O O4 0.966605 0.294952 0.614565
O O5 0.878386 0.918165 0.827745
O O6 0.607963 0.049732 0.679748
O O7 0.000000 0.000000 0.000000
O O8 0.241681 0.778857 0.798269
O O9 0.826192 0.865197 0.581512
O O10 0.300287 0.916025 0.892525
O O11 0.111260 0.309593 0.131746
#
# Coordination Sequence:
#
# PCOD9281531 Si02
#       5
#     8   8   8   8   8
#     4  10  21  38  62  92 127 166 220 263 327 383
#     4  11  25  41  64  94 135 175 221 274 328 401
#     4  10  24  44  62  97 129 174 224 267 339 387
#     4  11  23  40  68  92 133 170 219 276 330 398
#     4  10  21  40  65  93 127 171 218 274 321 391
#
# _framework density 21.615231999999999
#
# number of rings (size 3 to 8) (size 9 to 14) (size 15 to 20)
#    0.000    1.600    0.000    3.600    5.600    1.600 
#    0.000    0.000    0.000    0.000    0.000    0.000 
#    0.000    0.000    0.000    0.000    0.000    0.000 
#
# Total GULP energy -111409.901828 kJ/mol
# GULP energy per Si atom -5570.495091 kJ/mol
# Density = 2.156604 g / cm^3
# Si number density = 21.615232 Si / 1000 Ang^3
#
#
#
# Elastic Constant Matrix: (Units=GPa)
#
#
# Indices 1 2 3 4 5 6 
#
# 1 75.9165 12.6891 48.8732 0.0251 0.6433 -0.0076
# 2 12.6891 50.6923 49.1562 0.0892 6.6764 -0.0204
# 3 48.8732 49.1562 177.8054 0.1573 4.3321 -0.0352
# 4 0.0251 0.0892 0.1573 25.4791 -0.0464 -11.7653
# 5 0.6433 6.6764 4.3321 -0.0464 40.9494 -0.0135
# 6 -0.0076 -0.0204 -0.0352 -11.7653 -0.0135 6.0790
#
#
#
# Elastic Compliance Matrix: (Units=1/GPa)
#
#
# Indices 1 2 3 4 5 6 
#
# 1 0.016010 0.000330 -0.004496 0.000085 0.000171 0.000159
# 2 0.000330 0.027504 -0.007604 -0.000354 -0.003686 -0.000645
# 3 -0.004496 -0.007604 0.008954 -0.000128 0.000363 -0.000226
# 4 0.000085 -0.000354 -0.000128 0.369214 0.000724 0.714574
# 5 0.000171 -0.003686 0.000363 0.000724 0.024982 0.001447
# 6 0.000159 -0.000645 -0.000226 0.714574 0.001447 1.547483
#
#
# Mechanical properties :
#
#
# Convention : Reuss Voigt Hill
#
# Bulk Modulus (GPa) = 34.57072 58.42792 46.49932
# Shear Modulus (GPa) = 2.46630 27.41453 14.94042
#
# Velocity S-wave (km/s) = 1.06933 3.56518 2.63192
# Velocity P-wave (km/s) = 4.18964 6.63603 5.54932
#
# Compressibility (1/GPa) = 0.02892621
#
# Stress axis : x y z
#
# Youngs Moduli (GPa) = 62.45989 36.35813 111.68805
#
# Poissons Ratio (x) = -0.01199 0.50216
# Poissons Ratio (y) = -0.02059 0.84933
# Poissons Ratio (z) = 0.28082 0.27648
#
# Static dielectric constant tensor:
#      x y z
#    x 1.778080 0.000010 -0.014980 
#    y 0.000010 1.903340 -0.000070 
#    z -0.014980 -0.000070 1.817320 
# 
# From -- ./inp_files/245495.got.cif
#   From: 2010.05.17/outbox.cif.g08.bks.cpg/sg15_123_cif.got.tgz:245495.got - 2010.06.03 18:47:42.
