data_PCOD9281705
_publ_section_title
;
Structure prediction by ZEFSAII (Michael W. Deem and Ramdas Pophale) SiO2 
 PCOD9281705
Probable space group: C 2/C
;
_chemical_formula_sum "Si O2"
_cell_formula_units_Z 40
_cell_length_a 11.224337
_cell_length_b 16.810219
_cell_length_c 21.608738
_cell_angle_alpha 90.000000
_cell_angle_beta 22.935905
_cell_angle_gamma 90.000000
_cell_volume 1588.894836
_symmetry_space_group_name_H-M "C 2/C"
_symmetry_group_IT_number 15
_symmetry_cell_setting 'monoclinic'
loop_
_space_group_symop_operation_xyz
x,y,z
-x,y,1/2-z
-x,-y,-z
x,-y,1/2+z
1/2+x,1/2+y,z
1/2-x,1/2+y,1/2-z
1/2-x,1/2-y,-z
1/2+x,1/2-y,1/2+z
loop_
_atom_site_type_symbol
_atom_site_label
_atom_site_fract_x
_atom_site_fract_y
_atom_site_fract_z
Si Si1 0.330203 0.065704 0.623517
Si Si2 0.324698 0.577654 0.562616
Si Si3 0.321382 0.807873 0.610090
Si Si4 0.212054 0.310349 0.593566
Si Si5 0.268352 0.429251 0.742206
O O1 0.509173 0.149247 0.528905
O O2 0.000000 0.077118 0.750000
O O3 0.500000 0.000000 0.500000
O O4 0.289821 0.020745 0.709066
O O5 0.500000 0.500000 0.500000
O O6 0.506587 0.649010 0.505972
O O7 0.418447 0.579973 0.445811
O O8 0.000000 0.573074 0.750000
O O9 0.583272 0.764933 0.527331
O O10 0.202045 0.879496 0.709861
O O11 0.000000 0.763652 0.750000
O O12 0.000000 0.277609 0.750000
O O13 0.011141 0.382587 0.659270
#
# Coordination Sequence:
#
# PCOD9281705 Si02
#       5
#     8   8   8   8   8
#     4  10  21  38  63  99 135 169 215 276 331 394
#     4  11  24  42  62  89 126 172 227 280 324 392
#     4  11  23  41  66 101 139 174 218 275 336 405
#     4  10  22  43  66  92 132 177 222 272 332 399
#     4  10  22  42  66  95 130 176 221 271 337 396
#
# _framework density 25.174731000000001
#
# number of rings (size 3 to 8) (size 9 to 14) (size 15 to 20)
#    0.000    1.600    0.000    6.000    0.000    9.600 
#    0.000   15.000    0.000    0.000    0.000    0.000 
#    0.000    0.000    0.000    0.000    0.000    0.000 
#
# Total GULP energy -111393.877577 kJ/mol
# GULP energy per Si atom -5569.693879 kJ/mol
# Density = 2.511743 g / cm^3
# Si number density = 25.174731 Si / 1000 Ang^3
#
#
#
# Elastic Constant Matrix: (Units=GPa)
#
#
# Indices 1 2 3 4 5 6 
#
# 1 81.1699 22.2150 60.9253 0.0145 -6.0144 -0.0232
# 2 22.2150 73.2134 59.1588 -0.0168 -11.6248 -0.0162
# 3 60.9253 59.1588 247.2479 0.1654 -21.3039 0.0128
# 4 0.0145 -0.0168 0.1654 35.2063 -0.0415 -18.1389
# 5 -6.0144 -11.6248 -21.3039 -0.0415 47.6636 0.0332
# 6 -0.0232 -0.0162 0.0128 -18.1389 0.0332 25.9790
#
#
#
# Elastic Compliance Matrix: (Units=1/GPa)
#
#
# Indices 1 2 3 4 5 6 
#
# 1 0.015345 -0.001987 -0.003308 0.000024 -0.000027 0.000031
# 2 -0.001987 0.017461 -0.003477 0.000050 0.002454 0.000043
# 3 -0.003308 -0.003477 0.005806 -0.000048 0.001330 -0.000043
# 4 0.000024 0.000050 -0.000048 0.044363 0.000011 0.030975
# 5 -0.000027 0.002454 0.001330 0.000011 0.022170 -0.000020
# 6 0.000031 0.000043 -0.000043 0.030975 -0.000020 0.060120
#
#
# Mechanical properties :
#
#
# Convention : Reuss Voigt Hill
#
# Bulk Modulus (GPa) = 47.46659 76.24771 61.85715
# Shear Modulus (GPa) = 26.33921 39.05857 32.69889
#
# Velocity S-wave (km/s) = 3.23810 3.94318 3.60790
# Velocity P-wave (km/s) = 5.73377 7.14736 6.47923
#
# Compressibility (1/GPa) = 0.02106745
#
# Stress axis : x y z
#
# Youngs Moduli (GPa) = 65.16913 57.27168 172.23167
#
# Poissons Ratio (x) = 0.11382 0.56974
# Poissons Ratio (y) = 0.12951 0.59880
# Poissons Ratio (z) = 0.21558 0.19912
#
# Static dielectric constant tensor:
#      x y z
#    x 2.681940 0.007470 0.296960 
#    y 0.007470 3.335030 0.003220 
#    z 0.296960 0.003220 2.190780 
# 
# From -- ./inp_files/270893.got.cif
#   From: 2010.05.17/outbox.cif.g08.bks.cpg/sg15_136_cif.got.tgz:270893.got - 2010.06.03 18:47:42.
