data_PCOD9281927
_publ_section_title
;
Structure prediction by ZEFSAII (Michael W. Deem and Ramdas Pophale) SiO2 
 PCOD9281927
Probable space group: C 2/C
;
_chemical_formula_sum "Si O2"
_cell_formula_units_Z 48
_cell_length_a 12.494671
_cell_length_b 11.203934
_cell_length_c 17.332440
_cell_angle_alpha 90.000000
_cell_angle_beta 106.185350
_cell_angle_gamma 90.000000
_cell_volume 2330.190309
_symmetry_space_group_name_H-M "C 2/C"
_symmetry_group_IT_number 15
_symmetry_cell_setting 'monoclinic'
loop_
_space_group_symop_operation_xyz
x,y,z
-x,y,1/2-z
-x,-y,-z
x,-y,1/2+z
1/2+x,1/2+y,z
1/2-x,1/2+y,1/2-z
1/2-x,1/2-y,-z
1/2+x,1/2-y,1/2+z
loop_
_atom_site_type_symbol
_atom_site_label
_atom_site_fract_x
_atom_site_fract_y
_atom_site_fract_z
Si Si1 0.592041 0.976655 0.955788
Si Si2 0.501313 0.437749 0.839084
Si Si3 0.245692 0.010409 0.723258
Si Si4 0.708461 0.424688 0.391321
Si Si5 0.902077 0.327854 0.171963
Si Si6 0.101086 0.688313 0.321051
O O1 0.557339 0.873379 0.889778
O O2 0.606819 0.093326 0.906130
O O3 0.701671 0.941516 0.024673
O O4 0.500000 0.000000 0.000000
O O5 0.500000 0.478563 0.750000
O O6 0.372861 0.463021 0.834760
O O7 0.592235 0.519764 0.897803
O O8 0.555179 0.304368 0.844371
O O9 0.241415 0.014950 0.815585
O O10 0.289068 0.138272 0.697222
O O11 0.336152 0.914174 0.714066
O O12 0.686556 0.289250 0.363369
O O13 0.000000 0.369027 0.250000
O O14 0.000000 0.737774 0.250000
#
# Coordination Sequence:
#
# PCOD9281927 Si02
#       6
#     8   8   8   8   8   8
#     4  11  23  40  63  94 128 167 210 263 327 386
#     4   9  21  39  60  93 124 166 214 266 323 382
#     4  10  21  38  66  92 122 168 218 266 317 388
#     4  11  23  40  62  95 130 160 211 272 327 379
#     4  10  21  40  65  91 126 172 222 261 321 398
#     4  11  23  41  65  94 123 166 220 261 319 393
#
# _framework density 20.599174999999999
#
# number of rings (size 3 to 8) (size 9 to 14) (size 15 to 20)
#    0.000    1.667    0.000    6.000    9.333    0.667 
#    3.000    3.333    0.000    0.000    0.000    0.000 
#    0.000    0.000    0.000    0.000    0.000    0.000 
#
# Total GULP energy -133818.823791 kJ/mol
# GULP energy per Si atom -5575.784325 kJ/mol
# Density = 2.055229 g / cm^3
# Si number density = 20.599175 Si / 1000 Ang^3
#
#
#
# Elastic Constant Matrix: (Units=GPa)
#
#
# Indices 1 2 3 4 5 6 
#
# 1 72.9102 18.1688 23.2283 0.0000 1.2968 0.0000
# 2 18.1688 86.8401 25.4952 0.0000 7.1266 0.0000
# 3 23.2283 25.4952 102.6088 0.0000 5.9602 0.0000
# 4 0.0000 0.0000 0.0000 35.8359 0.0000 37.5306
# 5 1.2968 7.1266 5.9602 0.0000 32.2022 0.0000
# 6 0.0000 0.0000 0.0000 37.5306 0.0000 54.4603
#
#
#
# Elastic Compliance Matrix: (Units=1/GPa)
#
#
# Indices 1 2 3 4 5 6 
#
# 1 0.015217 -0.002375 -0.002881 0.000000 0.000446 0.000000
# 2 -0.002375 0.012948 -0.002546 0.000000 -0.002299 0.000000
# 3 -0.002881 -0.002546 0.011111 0.000000 -0.001377 0.000000
# 4 0.000000 0.000000 0.000000 0.100279 0.000000 -0.069106
# 5 0.000446 -0.002299 -0.001377 0.000000 0.031799 0.000000
# 6 0.000000 0.000000 0.000000 -0.069106 0.000000 0.065985
#
#
# Mechanical properties :
#
#
# Convention : Reuss Voigt Hill
#
# Bulk Modulus (GPa) = 42.24223 44.01599 43.12911
# Shear Modulus (GPa) = 19.16933 37.53080 28.35006
#
# Velocity S-wave (km/s) = 3.05386 4.27307 3.71384
# Velocity P-wave (km/s) = 5.74335 6.76459 6.27478
#
# Compressibility (1/GPa) = 0.02367299
#
# Stress axis : x y z
#
# Youngs Moduli (GPa) = 65.71577 77.22952 90.00490
#
# Poissons Ratio (x) = 0.18339 0.25927
# Poissons Ratio (y) = 0.15605 0.22917
# Poissons Ratio (z) = 0.18931 0.19664
#
# Static dielectric constant tensor:
#      x y z
#    x 1.797750 0.000000 0.010470 
#    y 0.000000 1.792790 0.000000 
#    z 0.010470 0.000000 1.698310 
# 
# From -- ./inp_files/196608.got.cif
#   From: 2010.05.17/outbox.cif.g08.bks.cpg/sg15_99_cif.got.tgz:196608.got - 2010.06.03 18:47:42.
