data_PCOD9281192
_publ_section_title
;
Structure prediction by ZEFSAII (Michael W. Deem and Ramdas Pophale) SiO2 
 PCOD9281192
Probable space group: C 2/C
;
_chemical_formula_sum "Si O2"
_cell_formula_units_Z 60
_cell_length_a 12.730545
_cell_length_b 19.546182
_cell_length_c 11.617328
_cell_angle_alpha 90.000000
_cell_angle_beta 107.574861
_cell_angle_gamma 90.000000
_cell_volume 2755.848683
_symmetry_space_group_name_H-M "C 2/C"
_symmetry_group_IT_number 15
_symmetry_cell_setting 'monoclinic'
loop_
_space_group_symop_operation_xyz
x,y,z
-x,y,1/2-z
-x,-y,-z
x,-y,1/2+z
1/2+x,1/2+y,z
1/2-x,1/2+y,1/2-z
1/2-x,1/2-y,-z
1/2+x,1/2-y,1/2+z
loop_
_atom_site_type_symbol
_atom_site_label
_atom_site_fract_x
_atom_site_fract_y
_atom_site_fract_z
Si Si1 0.267030 0.228959 0.640126
Si Si2 0.516622 0.738553 0.624289
Si Si3 0.414698 0.398437 0.004087
Si Si4 0.711802 0.370461 0.754342
Si Si5 0.458470 0.117486 0.435545
Si Si6 0.500000 0.023327 0.250000
Si Si7 0.654139 0.081846 0.870396
Si Si8 0.379486 0.455964 0.572009
O O1 0.250000 0.250000 0.500000
O O2 0.143843 0.218473 0.646807
O O3 0.321453 0.292986 0.722937
O O4 0.332737 0.158641 0.671122
O O5 0.500000 0.760242 0.750000
O O6 0.443804 0.672722 0.573164
O O7 0.493706 0.806043 0.540818
O O8 0.312441 0.387326 0.884811
O O9 0.517228 0.420555 0.956398
O O10 0.396677 0.462675 0.081616
O O11 0.839132 0.374424 0.833355
O O12 0.645150 0.422263 0.813716
O O13 0.429881 0.086570 0.549411
O O14 0.522926 0.069174 0.369518
O O15 0.395082 0.973803 0.231653
O O16 0.772223 0.059703 0.958747
#
# Coordination Sequence:
#
# PCOD9281192 Si02
#       8
#     8   8   8   8   8   4   8   8
#     4  11  19  42  66  87 123 168 212 259 315 370
#     4  11  22  40  65  89 127 174 203 252 328 383
#     4  11  22  36  61  96 125 161 207 253 309 384
#     4  10  21  38  64  92 118 165 214 260 301 372
#     4  10  22  42  65  84 128 168 198 255 324 363
#     4  12  24  40  64  94 122 160 214 258 308 376
#     4  11  22  41  65  91 119 164 212 260 308 367
#     4  10  21  38  59  88 129 160 199 260 320 362
#
# _framework density 21.771878000000001
#
# number of rings (size 3 to 8) (size 9 to 14) (size 15 to 20)
#    0.000    1.333    6.000    1.600    0.000    3.200 
#    4.800    2.667    0.000    0.000    0.000    0.000 
#    0.000    0.000    0.000    0.000    0.000    0.000 
#
# Total GULP energy -167750.948024 kJ/mol
# GULP energy per Si atom -5591.698267 kJ/mol
# Density = 2.172232 g / cm^3
# Si number density = 21.771878 Si / 1000 Ang^3
#
#
#
# Elastic Constant Matrix: (Units=GPa)
#
#
# Indices 1 2 3 4 5 6 
#
# 1 39.1046 12.3824 5.4113 0.0000 -6.4184 0.0000
# 2 12.3824 154.7312 10.8752 0.0000 1.8667 0.0000
# 3 5.4113 10.8752 24.1879 0.0000 3.7287 0.0000
# 4 0.0000 0.0000 0.0000 17.3154 0.0000 1.4226
# 5 -6.4184 1.8667 3.7287 0.0000 24.7241 0.0000
# 6 0.0000 0.0000 0.0000 1.4226 0.0000 32.5163
#
#
#
# Elastic Compliance Matrix: (Units=1/GPa)
#
#
# Indices 1 2 3 4 5 6 
#
# 1 0.028533 -0.001905 -0.006850 0.000000 0.008584 0.000000
# 2 -0.001905 0.006801 -0.002535 0.000000 -0.000626 0.000000
# 3 -0.006850 -0.002535 0.045313 0.000000 -0.008421 0.000000
# 4 0.000000 0.000000 0.000000 0.057960 0.000000 -0.002536
# 5 0.008584 -0.000626 -0.008421 0.000000 0.043992 0.000000
# 6 0.000000 0.000000 0.000000 -0.002536 0.000000 0.030865
#
#
# Mechanical properties :
#
#
# Convention : Reuss Voigt Hill
#
# Bulk Modulus (GPa) = 17.22168 30.59569 23.90868
# Shear Modulus (GPa) = 19.57711 27.53481 23.55596
#
# Velocity S-wave (km/s) = 3.00191 3.56012 3.29286
# Velocity P-wave (km/s) = 4.46570 5.56620 5.04604
#
# Compressibility (1/GPa) = 0.05806635
#
# Stress axis : x y z
#
# Youngs Moduli (GPa) = 35.04758 147.03651 22.06853
#
# Poissons Ratio (x) = 0.28017 0.15117
# Poissons Ratio (y) = 0.06678 0.05595
# Poissons Ratio (z) = 0.24007 0.37275
#
# Static dielectric constant tensor:
#      x y z
#    x 1.802210 0.000000 -0.002850 
#    y 0.000000 1.813510 0.000000 
#    z -0.002850 0.000000 1.765180 
# 
# From -- ./inp_files/98355.got.cif
#   From: 2010.05.17/outbox.cif.g08.bks.cpg/sg15_50_cif.got.tgz:98355.got - 2010.06.03 18:47:42.
