data_PCOD9281412
_publ_section_title
;
Structure prediction by ZEFSAII (Michael W. Deem and Ramdas Pophale) SiO2 
 PCOD9281412
Probable space group: C 2/C
;
_chemical_formula_sum "Si O2"
_cell_formula_units_Z 48
_cell_length_a 20.445344
_cell_length_b 10.912175
_cell_length_c 13.315318
_cell_angle_alpha 90.000000
_cell_angle_beta 131.643160
_cell_angle_gamma 90.000000
_cell_volume 2219.989722
_symmetry_space_group_name_H-M "C 2/C"
_symmetry_group_IT_number 15
_symmetry_cell_setting 'monoclinic'
loop_
_space_group_symop_operation_xyz
x,y,z
-x,y,1/2-z
-x,-y,-z
x,-y,1/2+z
1/2+x,1/2+y,z
1/2-x,1/2+y,1/2-z
1/2-x,1/2-y,-z
1/2+x,1/2-y,1/2+z
loop_
_atom_site_type_symbol
_atom_site_label
_atom_site_fract_x
_atom_site_fract_y
_atom_site_fract_z
Si Si1 0.613719 0.019311 0.184712
Si Si2 0.868239 0.800114 0.360557
Si Si3 0.811310 0.030289 0.956545
Si Si4 0.250247 0.120629 0.937875
Si Si5 0.562352 0.092313 0.429039
Si Si6 0.971967 0.875073 0.110776
O O1 0.618779 0.155641 0.141500
O O2 0.711147 0.989690 0.320615
O O3 0.532198 0.028297 0.179243
O O4 0.583653 0.925582 0.068709
O O5 0.787647 0.843595 0.208526
O O6 0.951486 0.867127 0.393719
O O7 0.845805 0.840006 0.451005
O O8 0.808813 0.981430 0.067868
O O9 0.884064 0.940087 0.982950
O O10 0.250000 0.250000 0.000000
O O11 0.345971 0.061601 0.028827
O O12 0.551463 0.234208 0.393574
O O13 0.000000 0.925518 0.250000
#
# Coordination Sequence:
#
# PCOD9281412 Si02
#       6
#     8   8   8   8   8   8
#     4  10  22  38  62  89 128 163 199 257 314 363
#     4  11  22  39  59  91 128 159 209 254 308 376
#     4  12  23  36  62  94 121 167 201 256 319 356
#     4  12  20  37  63  92 121 159 209 260 301 362
#     4  10  21  38  61  92 123 159 208 258 301 364
#     4  11  21  38  65  94 122 161 210 260 302 359
#
# _framework density 21.621721999999998
#
# number of rings (size 3 to 8) (size 9 to 14) (size 15 to 20)
#    0.000    1.000    6.667    0.500    2.333    0.000 
#    0.000    0.833    0.000    1.000    0.000    0.000 
#    0.000    0.000    0.000    0.000    0.000    0.000 
#
# Total GULP energy -133762.349839 kJ/mol
# GULP energy per Si atom -5573.431243 kJ/mol
# Density = 2.157251 g / cm^3
# Si number density = 21.621722 Si / 1000 Ang^3
#
#
#
# Elastic Constant Matrix: (Units=GPa)
#
#
# Indices 1 2 3 4 5 6 
#
# 1 113.2158 19.9070 -1.3386 0.0000 31.5092 0.0000
# 2 19.9070 24.0485 -1.6543 0.0000 -3.8683 0.0000
# 3 -1.3386 -1.6543 79.5220 0.0000 30.2297 0.0000
# 4 0.0000 0.0000 0.0000 18.8640 0.0000 -3.0935
# 5 31.5092 -3.8683 30.2297 0.0000 47.0911 0.0000
# 6 0.0000 0.0000 0.0000 -3.0935 0.0000 24.2121
#
#
#
# Elastic Compliance Matrix: (Units=1/GPa)
#
#
# Indices 1 2 3 4 5 6 
#
# 1 0.016002 -0.015376 0.005952 0.000000 -0.015791 0.000000
# 2 -0.015376 0.056935 -0.006301 0.000000 0.019010 0.000000
# 3 0.005952 -0.006301 0.018857 0.000000 -0.016605 0.000000
# 4 0.000000 0.000000 0.000000 0.054146 0.000000 0.006918
# 5 -0.015791 0.019010 -0.016605 0.000000 0.044022 0.000000
# 6 0.000000 0.000000 0.000000 0.006918 0.000000 0.042186
#
#
# Mechanical properties :
#
#
# Convention : Reuss Voigt Hill
#
# Bulk Modulus (GPa) = 16.57189 27.84607 22.20898
# Shear Modulus (GPa) = 17.62352 31.35825 24.49089
#
# Velocity S-wave (km/s) = 2.85806 3.81243 3.36921
# Velocity P-wave (km/s) = 4.30958 5.68209 5.04275
#
# Compressibility (1/GPa) = 0.06034313
#
# Stress axis : x y z
#
# Youngs Moduli (GPa) = 62.49411 17.56376 53.03196
#
# Poissons Ratio (x) = 0.27007 -0.31566
# Poissons Ratio (y) = 0.96093 0.33416
# Poissons Ratio (z) = -0.37198 0.11067
#
# Static dielectric constant tensor:
#      x y z
#    x 1.895380 0.000000 -0.021240 
#    y 0.000000 1.766630 0.000000 
#    z -0.021240 0.000000 1.850070 
# 
# From -- ./inp_files/167156.got.cif
#   From: 2010.05.17/outbox.cif.g08.bks.cpg/sg15_84_cif.got.tgz:167156.got - 2010.06.03 18:47:42.
