data_PCOD9281887
_publ_section_title
;
Structure prediction by ZEFSAII (Michael W. Deem and Ramdas Pophale) SiO2 
 PCOD9281887
Probable space group: C 2/C
;
_chemical_formula_sum "Si O2"
_cell_formula_units_Z 60
_cell_length_a 15.584344
_cell_length_b 9.390432
_cell_length_c 24.058386
_cell_angle_alpha 90.000000
_cell_angle_beta 55.280033
_cell_angle_gamma 90.000000
_cell_volume 2893.900956
_symmetry_space_group_name_H-M "C 2/C"
_symmetry_group_IT_number 15
_symmetry_cell_setting 'monoclinic'
loop_
_space_group_symop_operation_xyz
x,y,z
-x,y,1/2-z
-x,-y,-z
x,-y,1/2+z
1/2+x,1/2+y,z
1/2-x,1/2+y,1/2-z
1/2-x,1/2-y,-z
1/2+x,1/2-y,1/2+z
loop_
_atom_site_type_symbol
_atom_site_label
_atom_site_fract_x
_atom_site_fract_y
_atom_site_fract_z
Si Si1 0.951206 0.177029 0.618946
Si Si2 0.289240 0.462734 0.015237
Si Si3 0.896110 0.404864 0.972397
Si Si4 0.767496 0.386847 0.680417
Si Si5 0.160358 0.222269 0.110577
Si Si6 0.442356 0.373869 0.671375
Si Si7 0.577025 0.867875 0.407753
Si Si8 0.000000 0.000000 0.000000
O O1 0.844973 0.261104 0.670762
O O2 0.042249 0.291991 0.587339
O O3 0.942769 0.123074 0.558762
O O4 0.970182 0.037129 0.648237
O O5 0.218150 0.573017 0.008526
O O6 0.210525 0.377671 0.085015
O O7 0.390075 0.526140 0.006717
O O8 0.328341 0.352954 0.953542
O O9 0.965531 0.550931 0.943799
O O10 0.897915 0.362116 0.036374
O O11 0.727127 0.358076 0.632688
O O12 0.665785 0.380841 0.756145
O O13 0.836048 0.531790 0.653581
O O14 0.036787 0.206829 0.167666
O O15 0.428974 0.287476 0.618018
#
# Coordination Sequence:
#
# PCOD9281887 Si02
#       8
#     8   8   8   8   8   8   8   4
#     4  11  24  39  63 101 129 168 214 270 334 390
#     4  11  22  39  66  97 128 163 214 291 325 395
#     4  10  21  39  65  94 135 163 216 274 334 388
#     4  11  23  42  64  92 134 176 220 261 321 404
#     4  11  22  39  66  96 122 166 227 270 328 384
#     4  12  23  41  63  95 133 176 221 266 315 398
#     4  10  21  38  65  97 128 175 214 265 328 390
#     4  12  22  40  64  92 132 158 212 282 340 374
#
# _framework density 20.733260000000001
#
# number of rings (size 3 to 8) (size 9 to 14) (size 15 to 20)
#    0.000    1.067    5.333    2.000    0.000    0.533 
#    0.000    0.000    0.000    0.000    0.000    0.000 
#    0.000    0.000    0.000    0.000    0.000    0.000 
#
# Total GULP energy -167203.632589 kJ/mol
# GULP energy per Si atom -5573.454420 kJ/mol
# Density = 2.068607 g / cm^3
# Si number density = 20.733260 Si / 1000 Ang^3
#
#
#
# Elastic Constant Matrix: (Units=GPa)
#
#
# Indices 1 2 3 4 5 6 
#
# 1 150.1609 30.4535 21.7937 0.0000 -22.4922 0.0000
# 2 30.4535 83.6533 22.7645 0.0000 -7.5842 0.0000
# 3 21.7937 22.7645 73.2920 0.0000 -23.7873 0.0000
# 4 0.0000 0.0000 0.0000 23.4330 0.0000 -5.5969
# 5 -22.4922 -7.5842 -23.7873 0.0000 26.8082 0.0000
# 6 0.0000 0.0000 0.0000 -5.5969 0.0000 18.8306
#
#
#
# Elastic Compliance Matrix: (Units=1/GPa)
#
#
# Indices 1 2 3 4 5 6 
#
# 1 0.008065 -0.002478 0.000478 0.000000 0.006489 0.000000
# 2 -0.002478 0.013819 -0.004159 0.000000 -0.001859 0.000000
# 3 0.000478 -0.004159 0.020424 0.000000 0.017346 0.000000
# 4 0.000000 0.000000 0.000000 0.045936 0.000000 0.013653
# 5 0.006489 -0.001859 0.017346 0.000000 0.057612 0.000000
# 6 0.000000 0.000000 0.000000 0.013653 0.000000 0.057163
#
#
# Mechanical properties :
#
#
# Convention : Reuss Voigt Hill
#
# Bulk Modulus (GPa) = 33.34508 50.79220 42.06864
# Shear Modulus (GPa) = 22.18938 29.28733 25.73835
#
# Velocity S-wave (km/s) = 3.27499 3.76250 3.52718
# Velocity P-wave (km/s) = 5.51530 6.58987 6.07638
#
# Compressibility (1/GPa) = 0.02998943
#
# Stress axis : x y z
#
# Youngs Moduli (GPa) = 123.99789 72.36280 48.96279
#
# Poissons Ratio (x) = 0.17928 -0.02338
# Poissons Ratio (y) = 0.30721 0.20364
# Poissons Ratio (z) = -0.05921 0.30096
#
# Static dielectric constant tensor:
#      x y z
#    x 1.730100 0.000000 0.022010 
#    y 0.000000 1.771350 0.000000 
#    z 0.022010 0.000000 1.812560 
# 
# From -- ./inp_files/298390.got.cif
#   From: 2010.05.17/outbox.cif.g08.bks.cpg/sg15_150_cif.got.tgz:298390.got - 2010.06.03 18:47:42.
