data_PCOD9281426
_publ_section_title
;
Structure prediction by ZEFSAII (Michael W. Deem and Ramdas Pophale) SiO2 
 PCOD9281426
Probable space group: C 2/C
;
_chemical_formula_sum "Si O2"
_cell_formula_units_Z 40
_cell_length_a 25.256134
_cell_length_b 10.575431
_cell_length_c 20.915379
_cell_angle_alpha 90.000000
_cell_angle_beta 161.530489
_cell_angle_gamma 90.000000
_cell_volume 1769.765925
_symmetry_space_group_name_H-M "C 2/C"
_symmetry_group_IT_number 15
_symmetry_cell_setting 'monoclinic'
loop_
_space_group_symop_operation_xyz
x,y,z
-x,y,1/2-z
-x,-y,-z
x,-y,1/2+z
1/2+x,1/2+y,z
1/2-x,1/2+y,1/2-z
1/2-x,1/2-y,-z
1/2+x,1/2-y,1/2+z
loop_
_atom_site_type_symbol
_atom_site_label
_atom_site_fract_x
_atom_site_fract_y
_atom_site_fract_z
Si Si1 0.870047 0.137745 0.158480
Si Si2 0.587733 0.659478 0.536166
Si Si3 0.214442 0.570384 0.561728
Si Si4 0.067276 0.783313 0.265201
Si Si5 0.776901 0.919252 0.759676
O O1 0.000000 0.116906 0.250000
O O2 0.983048 0.168985 0.350537
O O3 0.742740 0.025900 0.034974
O O4 0.750000 0.250000 0.000000
O O5 0.676054 0.790623 0.655750
O O6 0.704917 0.533246 0.668285
O O7 0.456431 0.628393 0.441171
O O8 0.388339 0.648949 0.750187
O O9 0.204528 0.489519 0.614147
O O10 0.058891 0.666368 0.385559
O O11 0.250000 0.750000 0.500000
O O12 0.000000 0.858818 0.250000
#
# Coordination Sequence:
#
# PCOD9281426 Si02
#       5
#     8   8   8   8   8
#     4  11  23  41  67  98 134 171 218 272 330 394
#     4  10  23  44  66  97 130 172 220 268 325 391
#     4  10  21  38  61  93 130 170 216 273 329 392
#     4   9  19  36  57  87 127 169 215 261 322 393
#     4  10  23  43  67  95 130 168 221 271 328 393
#
# _framework density 22.601859000000001
#
# number of rings (size 3 to 8) (size 9 to 14) (size 15 to 20)
#    0.000    2.000    0.000    3.000    0.000   12.800 
#    0.000    8.000    0.000    0.000    0.000    0.000 
#    0.000    0.000    0.000    0.000    0.000    0.000 
#
# Total GULP energy -111433.702994 kJ/mol
# GULP energy per Si atom -5571.685150 kJ/mol
# Density = 2.255042 g / cm^3
# Si number density = 22.601859 Si / 1000 Ang^3
#
#
#
# Elastic Constant Matrix: (Units=GPa)
#
#
# Indices 1 2 3 4 5 6 
#
# 1 77.5961 46.7360 46.2156 0.0001 -13.3226 0.0000
# 2 46.7360 213.6740 100.7266 -0.0003 0.8409 -0.0002
# 3 46.2156 100.7266 84.0296 -0.0006 5.2925 -0.0003
# 4 0.0001 -0.0003 -0.0006 59.2816 -0.0001 7.4144
# 5 -13.3226 0.8409 5.2925 -0.0001 35.8448 0.0000
# 6 0.0000 -0.0002 -0.0003 7.4144 0.0000 34.4029
#
#
#
# Elastic Compliance Matrix: (Units=1/GPa)
#
#
# Indices 1 2 3 4 5 6 
#
# 1 0.023041 0.002797 -0.016716 0.000000 0.010966 0.000000
# 2 0.002797 0.011200 -0.015153 0.000000 0.003014 0.000000
# 3 -0.016716 -0.015153 0.040000 0.000000 -0.011764 0.000000
# 4 0.000000 0.000000 0.000000 0.017336 0.000000 -0.003736
# 5 0.010966 0.003014 -0.011764 0.000000 0.033640 0.000000
# 6 0.000000 0.000000 0.000000 -0.003736 0.000000 0.029873
#
#
# Mechanical properties :
#
#
# Convention : Reuss Voigt Hill
#
# Bulk Modulus (GPa) = 62.12788 84.73957 73.43372
# Shear Modulus (GPa) = 22.87282 38.01396 30.44339
#
# Velocity S-wave (km/s) = 3.18463 4.10554 3.67405
# Velocity P-wave (km/s) = 6.40860 7.74904 7.11048
#
# Compressibility (1/GPa) = 0.01609583
#
# Stress axis : x y z
#
# Youngs Moduli (GPa) = 43.40000 89.28801 25.00011
#
# Poissons Ratio (x) = -0.24976 0.41791
# Poissons Ratio (y) = -0.12140 0.37884
# Poissons Ratio (z) = 0.72549 1.35302
#
# Static dielectric constant tensor:
#      x y z
#    x 1.923290 0.000000 -0.038560 
#    y 0.000000 1.967290 0.000000 
#    z -0.038560 0.000000 1.875580 
# 
# From -- ./inp_files/255515.got.cif
#   From: 2010.05.17/outbox.cif.g08.bks.cpg/sg15_128_cif.got.tgz:255515.got - 2010.06.03 18:47:42.
