data_PCOD9281855
_publ_section_title
;
Structure prediction by ZEFSAII (Michael W. Deem and Ramdas Pophale) SiO2 
 PCOD9281855
Probable space group: C 2/C
;
_chemical_formula_sum "Si O2"
_cell_formula_units_Z 32
_cell_length_a 15.465974
_cell_length_b 12.556652
_cell_length_c 10.003348
_cell_angle_alpha 90.000000
_cell_angle_beta 139.587524
_cell_angle_gamma 90.000000
_cell_volume 1259.397884
_symmetry_space_group_name_H-M "C 2/C"
_symmetry_group_IT_number 15
_symmetry_cell_setting 'monoclinic'
loop_
_space_group_symop_operation_xyz
x,y,z
-x,y,1/2-z
-x,-y,-z
x,-y,1/2+z
1/2+x,1/2+y,z
1/2-x,1/2+y,1/2-z
1/2-x,1/2-y,-z
1/2+x,1/2-y,1/2+z
loop_
_atom_site_type_symbol
_atom_site_label
_atom_site_fract_x
_atom_site_fract_y
_atom_site_fract_z
Si Si1 0.435642 0.629203 0.814859
Si Si2 0.410091 0.864245 0.828887
Si Si3 0.887718 0.400017 0.220470
Si Si4 0.185542 0.088197 0.283649
O O1 0.500000 0.592490 0.750000
O O2 0.389575 0.749818 0.740049
O O3 0.330197 0.539622 0.730368
O O4 0.545378 0.628698 0.062491
O O5 0.297522 0.878774 0.809594
O O6 0.396034 0.971271 0.728017
O O7 0.556794 0.867670 0.070189
O O8 0.000000 0.358381 0.250000
O O9 0.741383 0.373573 0.992873
#
# Coordination Sequence:
#
# PCOD9281855 Si02
#       4
#     8   8   8   8
#     4  11  24  42  65  92 123 165 209 252 307 366
#     4  10  21  38  65  93 122 164 209 254 305 366
#     4   9  19  37  59  91 128 161 202 255 310 363
#     4  10  23  41  60  90 130 162 201 257 310 366
#
# _framework density 25.408965999999999
#
# number of rings (size 3 to 8) (size 9 to 14) (size 15 to 20)
#    0.000    2.000    0.000    2.250    0.000   11.000 
#    0.000   20.000    0.000    0.000    0.000    0.000 
#    0.000    0.000    0.000    0.000    0.000    0.000 
#
# Total GULP energy -89454.885096 kJ/mol
# GULP energy per Si atom -5590.930318 kJ/mol
# Density = 2.535113 g / cm^3
# Si number density = 25.408966 Si / 1000 Ang^3
#
#
#
# Elastic Constant Matrix: (Units=GPa)
#
#
# Indices 1 2 3 4 5 6 
#
# 1 38.6225 3.7173 -12.3886 0.0000 0.4149 0.0000
# 2 3.7173 128.9587 -1.4054 0.0000 3.6467 0.0000
# 3 -12.3886 -1.4054 200.0831 0.0000 3.8219 0.0000
# 4 0.0000 0.0000 0.0000 -19.8796 0.0000 1.0001
# 5 0.4149 3.6467 3.8219 0.0000 12.8534 0.0000
# 6 0.0000 0.0000 0.0000 1.0001 0.0000 35.3519
#
#
#
# Elastic Compliance Matrix: (Units=1/GPa)
#
#
# Indices 1 2 3 4 5 6 
#
# 1 0.026504 -0.000714 0.001658 0.000000 -0.001146 0.000000
# 2 -0.000714 0.007838 0.000053 0.000000 -0.002217 0.000000
# 3 0.001658 0.000053 0.005131 0.000000 -0.001594 0.000000
# 4 0.000000 0.000000 0.000000 -0.050231 0.000000 0.001421
# 5 -0.001146 -0.002217 -0.001594 0.000000 0.078941 0.000000
# 6 0.000000 0.000000 0.000000 0.001421 0.000000 0.028247
#
#
# Mechanical properties :
#
#
# Convention : Reuss Voigt Hill
#
# Bulk Modulus (GPa) = 24.11417 38.61234 31.36326
# Shear Modulus (GPa) = 46.18591 30.84787 38.51689
#
# Velocity S-wave (km/s) = 4.26808 3.48811 3.89765
# Velocity P-wave (km/s) = 5.81375 5.60820 5.71190
#
# Compressibility (1/GPa) = 0.04146939
#
# Stress axis : x y z
#
# Youngs Moduli (GPa) = 37.72954 127.57951 194.87829
#
# Poissons Ratio (x) = 0.09103 -0.32310
# Poissons Ratio (y) = 0.02692 -0.01037
# Poissons Ratio (z) = -0.06255 -0.00679
#
# Static dielectric constant tensor:
#      x y z
#    x 1.934630 0.000000 -0.032110 
#    y 0.000000 1.966390 0.000000 
#    z -0.032110 0.000000 2.048090 
# 
# From -- ./inp_files/85216.got.cif
#   From: 2010.05.17/outbox.cif.g08.bks.cpg/sg15_43_cif.got.tgz:85216.got - 2010.06.03 18:47:42.
