data_PCOD9281326
_publ_section_title
;
Structure prediction by ZEFSAII (Michael W. Deem and Ramdas Pophale) SiO2 
 PCOD9281326
Probable space group: C 2/C
;
_chemical_formula_sum "Si O2"
_cell_formula_units_Z 48
_cell_length_a 11.825212
_cell_length_b 8.977099
_cell_length_c 24.023567
_cell_angle_alpha 90.000000
_cell_angle_beta 49.370355
_cell_angle_gamma 90.000000
_cell_volume 1935.471289
_symmetry_space_group_name_H-M "C 2/C"
_symmetry_group_IT_number 15
_symmetry_cell_setting 'monoclinic'
loop_
_space_group_symop_operation_xyz
x,y,z
-x,y,1/2-z
-x,-y,-z
x,-y,1/2+z
1/2+x,1/2+y,z
1/2-x,1/2+y,1/2-z
1/2-x,1/2-y,-z
1/2+x,1/2-y,1/2+z
loop_
_atom_site_type_symbol
_atom_site_label
_atom_site_fract_x
_atom_site_fract_y
_atom_site_fract_z
Si Si1 0.002657 0.965528 0.064649
Si Si2 0.696448 0.684383 0.300069
Si Si3 0.976609 0.697977 0.141009
Si Si4 0.275932 0.885673 0.547615
Si Si5 0.078310 0.622009 0.605564
Si Si6 0.364087 0.583597 0.824240
O O1 0.990408 0.786938 0.078721
O O2 0.870377 0.047056 0.142804
O O3 0.152404 0.034742 0.045667
O O4 0.000000 0.000000 0.000000
O O5 0.810587 0.651371 0.213567
O O6 0.559218 0.787038 0.325601
O O7 0.788320 0.793233 0.310685
O O8 0.073188 0.550792 0.119212
O O9 0.045831 0.822716 0.158834
O O10 0.217303 0.721013 0.579091
O O11 0.419959 0.872383 0.462906
O O12 0.260240 0.982539 0.607410
O O13 0.500000 0.498057 0.750000
#
# Coordination Sequence:
#
# PCOD9281326 Si02
#       6
#     8   8   8   8   8   8
#     4  10  22  37  61  89 120 157 205 255 298 367
#     4  10  21  39  59  87 122 155 206 245 304 370
#     4  10  21  39  62  84 119 162 197 251 308 358
#     4   9  21  40  58  83 127 155 194 249 311 355
#     4  10  21  38  61  84 118 158 200 246 303 357
#     4   9  20  38  61  86 118 159 197 245 302 369
#
# _framework density 24.800160999999999
#
# number of rings (size 3 to 8) (size 9 to 14) (size 15 to 20)
#    0.000    2.333    0.000    1.000    4.667    3.333 
#    6.000    2.500    0.000    0.000    0.000    0.000 
#    0.000    0.000    0.000    0.000    0.000    0.000 
#
# Total GULP energy -134096.776134 kJ/mol
# GULP energy per Si atom -5587.365672 kJ/mol
# Density = 2.474372 g / cm^3
# Si number density = 24.800161 Si / 1000 Ang^3
#
#
#
# Elastic Constant Matrix: (Units=GPa)
#
#
# Indices 1 2 3 4 5 6 
#
# 1 54.4300 -1.3750 9.2864 0.0000 2.5417 0.0000
# 2 -1.3750 127.1778 32.8562 0.0000 2.4704 0.0000
# 3 9.2864 32.8562 64.9429 0.0000 -5.3512 0.0000
# 4 0.0000 0.0000 0.0000 41.8537 0.0000 2.2479
# 5 2.5417 2.4704 -5.3512 0.0000 33.2309 0.0000
# 6 0.0000 0.0000 0.0000 2.2479 0.0000 16.4886
#
#
#
# Elastic Compliance Matrix: (Units=1/GPa)
#
#
# Indices 1 2 3 4 5 6 
#
# 1 0.019094 0.001148 -0.003485 0.000000 -0.002107 0.000000
# 2 0.001148 0.009182 -0.004938 0.000000 -0.001566 0.000000
# 3 -0.003485 -0.004938 0.018695 0.000000 0.003644 0.000000
# 4 0.000000 0.000000 0.000000 0.024069 0.000000 -0.003281
# 5 -0.002107 -0.001566 0.003644 0.000000 0.030957 0.000000
# 6 0.000000 0.000000 0.000000 -0.003281 0.000000 0.061095
#
#
# Mechanical properties :
#
#
# Convention : Reuss Voigt Hill
#
# Bulk Modulus (GPa) = 30.84484 36.45399 33.64942
# Shear Modulus (GPa) = 26.53235 32.03351 29.28293
#
# Velocity S-wave (km/s) = 3.27440 3.59787 3.43994
# Velocity P-wave (km/s) = 5.17300 5.65602 5.41990
#
# Compressibility (1/GPa) = 0.03242033
#
# Stress axis : x y z
#
# Youngs Moduli (GPa) = 52.37223 108.91314 53.48997
#
# Poissons Ratio (x) = -0.12499 0.18639
# Poissons Ratio (y) = -0.06010 0.26415
# Poissons Ratio (z) = 0.18249 0.53785
#
# Static dielectric constant tensor:
#      x y z
#    x 2.052190 0.000000 0.013550 
#    y 0.000000 1.944760 0.000000 
#    z 0.013550 0.000000 2.054870 
# 
# From -- ./inp_files/295390.got.cif
#   From: 2010.05.17/outbox.cif.g08.bks.cpg/sg15_148_cif.got.tgz:295390.got - 2010.06.03 18:47:42.
