data_PCOD9281763
_publ_section_title
;
Structure prediction by ZEFSAII (Michael W. Deem and Ramdas Pophale) SiO2 
 PCOD9281763
Probable space group: C 2/C
;
_chemical_formula_sum "Si O2"
_cell_formula_units_Z 48
_cell_length_a 14.197545
_cell_length_b 12.799263
_cell_length_c 27.524072
_cell_angle_alpha 90.000000
_cell_angle_beta 152.014737
_cell_angle_gamma 90.000000
_cell_volume 2346.983532
_symmetry_space_group_name_H-M "C 2/C"
_symmetry_group_IT_number 15
_symmetry_cell_setting 'monoclinic'
loop_
_space_group_symop_operation_xyz
x,y,z
-x,y,1/2-z
-x,-y,-z
x,-y,1/2+z
1/2+x,1/2+y,z
1/2-x,1/2+y,1/2-z
1/2-x,1/2-y,-z
1/2+x,1/2-y,1/2+z
loop_
_atom_site_type_symbol
_atom_site_label
_atom_site_fract_x
_atom_site_fract_y
_atom_site_fract_z
Si Si1 0.213294 0.183318 0.436219
Si Si2 0.779842 0.709165 0.171104
Si Si3 0.663562 0.969013 0.281609
Si Si4 0.400100 0.713774 0.930569
Si Si5 0.395698 0.095366 0.855476
Si Si6 0.158436 0.894602 0.777396
O O1 0.250000 0.250000 0.500000
O O2 0.255378 0.260532 0.410504
O O3 0.388552 0.096980 0.519151
O O4 0.992412 0.137753 0.333856
O O5 0.783304 0.591699 0.194089
O O6 0.708114 0.795050 0.177407
O O7 0.000000 0.731926 0.250000
O O8 0.620341 0.714887 0.053958
O O9 0.500000 0.956096 0.250000
O O10 0.847448 0.895207 0.381498
O O11 0.589032 0.927976 0.195134
O O12 0.330931 0.808151 0.864046
O O13 0.259993 0.004413 0.815444
O O14 0.000000 0.899221 0.750000
#
# Coordination Sequence:
#
# PCOD9281763 Si02
#       6
#     8   8   8   8   8   8
#     4  10  21  38  64  92 125 166 222 265 312 384
#     4  10  24  43  63  93 132 168 209 268 327 383
#     4  11  23  42  65  92 130 167 219 266 322 382
#     4  10  21  39  67  89 124 170 218 263 318 379
#     4  11  24  39  68  92 130 168 214 262 327 385
#     4  10  22  39  64  98 128 165 214 267 320 383
#
# _framework density 20.451784
#
# number of rings (size 3 to 8) (size 9 to 14) (size 15 to 20)
#    0.000    1.667    0.000    4.500    7.000    7.333 
#    6.000    0.833    0.000    0.000    0.000    0.000 
#    0.000    0.000    0.000    0.000    0.000    0.000 
#
# Total GULP energy -134015.269804 kJ/mol
# GULP energy per Si atom -5583.969575 kJ/mol
# Density = 2.040523 g / cm^3
# Si number density = 20.451784 Si / 1000 Ang^3
#
#
#
# Elastic Constant Matrix: (Units=GPa)
#
#
# Indices 1 2 3 4 5 6 
#
# 1 63.9656 42.2529 30.0234 0.0000 0.3855 0.0001
# 2 42.2529 145.6475 76.4937 -0.0001 1.0084 0.0000
# 3 30.0234 76.4937 109.4709 -0.0004 0.8821 0.0001
# 4 0.0000 -0.0001 -0.0004 25.8099 0.0000 2.7135
# 5 0.3855 1.0084 0.8821 0.0000 28.4573 0.0002
# 6 0.0001 0.0000 0.0001 2.7135 0.0002 22.4023
#
#
#
# Elastic Compliance Matrix: (Units=1/GPa)
#
#
# Indices 1 2 3 4 5 6 
#
# 1 0.019676 -0.004540 -0.002224 0.000000 -0.000037 0.000000
# 2 -0.004540 0.011895 -0.007065 0.000000 -0.000141 0.000000
# 3 -0.002224 -0.007065 0.014683 0.000000 -0.000175 0.000000
# 4 0.000000 0.000000 0.000000 0.039245 0.000000 -0.004754
# 5 -0.000037 -0.000141 -0.000175 0.000000 0.035151 0.000000
# 6 0.000000 0.000000 0.000000 -0.004754 0.000000 0.045214
#
#
# Mechanical properties :
#
#
# Convention : Reuss Voigt Hill
#
# Bulk Modulus (GPa) = 53.77493 68.51380 61.14436
# Shear Modulus (GPa) = 25.03505 26.68818 25.86162
#
# Velocity S-wave (km/s) = 3.50251 3.61630 3.55986
# Velocity P-wave (km/s) = 6.53509 7.14211 6.84533
#
# Compressibility (1/GPa) = 0.01859603
#
# Stress axis : x y z
#
# Youngs Moduli (GPa) = 50.82256 84.07223 68.10623
#
# Poissons Ratio (x) = 0.38169 0.15145
# Poissons Ratio (y) = 0.23074 0.48118
# Poissons Ratio (z) = 0.11302 0.59398
#
# Static dielectric constant tensor:
#      x y z
#    x 1.760460 0.000000 -0.000520 
#    y 0.000000 1.728710 0.000000 
#    z -0.000520 0.000000 1.816820 
# 
# From -- ./inp_files/296190.got.cif
#   From: 2010.05.17/outbox.cif.g08.bks.cpg/sg15_149_cif.got.tgz:296190.got - 2010.06.03 18:47:42.
