data_PCOD9281327
_publ_section_title
;
Structure prediction by ZEFSAII (Michael W. Deem and Ramdas Pophale) SiO2 
 PCOD9281327
Probable space group: C 2/C
;
_chemical_formula_sum "Si O2"
_cell_formula_units_Z 60
_cell_length_a 7.805592
_cell_length_b 11.523470
_cell_length_c 31.519986
_cell_angle_alpha 90.000000
_cell_angle_beta 128.745600
_cell_angle_gamma 90.000000
_cell_volume 2211.221167
_symmetry_space_group_name_H-M "C 2/C"
_symmetry_group_IT_number 15
_symmetry_cell_setting 'monoclinic'
loop_
_space_group_symop_operation_xyz
x,y,z
-x,y,1/2-z
-x,-y,-z
x,-y,1/2+z
1/2+x,1/2+y,z
1/2-x,1/2+y,1/2-z
1/2-x,1/2-y,-z
1/2+x,1/2-y,1/2+z
loop_
_atom_site_type_symbol
_atom_site_label
_atom_site_fract_x
_atom_site_fract_y
_atom_site_fract_z
Si Si1 0.533215 0.563041 0.163969
Si Si2 0.571646 0.226131 0.418425
Si Si3 0.426366 0.307616 0.172843
Si Si4 0.580713 0.485006 0.079293
Si Si5 0.619475 0.209450 0.704596
Si Si6 0.038411 0.693504 0.012948
Si Si7 0.307563 0.915712 0.038971
Si Si8 0.000000 0.475108 0.250000
O O1 0.419362 0.443105 0.158481
O O2 0.561607 0.563468 0.117876
O O3 0.461097 0.678909 0.176944
O O4 0.783475 0.549858 0.219529
O O5 0.570994 0.224667 0.367639
O O6 0.471972 0.353761 0.414106
O O7 0.825864 0.227600 0.471567
O O8 0.465405 0.146713 0.439296
O O9 0.660684 0.287365 0.232202
O O10 0.224499 0.297569 0.174106
O O11 0.797528 0.479944 0.082801
O O12 0.385817 0.527694 0.018904
O O13 0.487142 0.105182 0.706057
O O14 0.016281 0.603968 0.970713
O O15 0.241349 0.782139 0.040404
#
# Coordination Sequence:
#
# PCOD9281327 Si02
#       8
#     8   8   8   8   8   8   8   4
#     4  10  21  40  59  86 120 151 193 244 291 346
#     4   9  18  34  54  78 113 149 180 235 291 330
#     4   9  20  38  59  82 120 151 189 246 289 347
#     4   9  19  35  53  77 115 149 181 237 286 336
#     4  10  21  38  61  85 111 159 191 237 299 349
#     4   9  18  32  55  81 111 147 188 232 275 345
#     4   9  18  34  53  81 112 146 188 230 282 337
#     4  10  22  38  60  88 114 146 196 246 286 356
#
# _framework density 27.134328
#
# number of rings (size 3 to 8) (size 9 to 14) (size 15 to 20)
#    0.000    2.667    0.000    0.800    1.867    3.733 
#    9.600    0.000    2.933    0.000    0.000    0.000 
#    0.000    0.000    0.000    0.000    0.000    0.000 
#
# Total GULP energy -167704.346581 kJ/mol
# GULP energy per Si atom -5590.144886 kJ/mol
# Density = 2.707257 g / cm^3
# Si number density = 27.134328 Si / 1000 Ang^3
#
#
#
# Elastic Constant Matrix: (Units=GPa)
#
#
# Indices 1 2 3 4 5 6 
#
# 1 65.2833 13.9091 25.8163 0.0000 -34.5546 0.0000
# 2 13.9091 92.8931 29.8765 0.0000 -17.7198 0.0000
# 3 25.8163 29.8765 115.6327 0.0000 -32.9386 0.0000
# 4 0.0000 0.0000 0.0000 38.5020 0.0000 -9.0467
# 5 -34.5546 -17.7198 -32.9386 0.0000 53.9489 0.0000
# 6 0.0000 0.0000 0.0000 -9.0467 0.0000 29.1255
#
#
#
# Elastic Compliance Matrix: (Units=1/GPa)
#
#
# Indices 1 2 3 4 5 6 
#
# 1 0.023318 -0.000453 -0.001062 0.000000 0.014138 0.000000
# 2 -0.000453 0.012018 -0.002375 0.000000 0.002207 0.000000
# 3 -0.001062 -0.002375 0.010995 0.000000 0.005253 0.000000
# 4 0.000000 0.000000 0.000000 0.028018 0.000000 0.008703
# 5 0.014138 0.002207 0.005253 0.000000 0.031524 0.000000
# 6 0.000000 0.000000 0.000000 0.008703 0.000000 0.037037
#
#
# Mechanical properties :
#
#
# Convention : Reuss Voigt Hill
#
# Bulk Modulus (GPa) = 25.93987 45.89031 35.91509
# Shear Modulus (GPa) = 30.57375 37.92909 34.25142
#
# Velocity S-wave (km/s) = 3.36036 3.74281 3.55673
# Velocity P-wave (km/s) = 4.96352 5.96885 5.48925
#
# Compressibility (1/GPa) = 0.03855069
#
# Stress axis : x y z
#
# Youngs Moduli (GPa) = 42.88620 83.20977 90.94933
#
# Poissons Ratio (x) = 0.03770 0.09654
# Poissons Ratio (y) = 0.01943 0.21603
# Poissons Ratio (z) = 0.04552 0.19765
#
# Static dielectric constant tensor:
#      x y z
#    x 2.164550 0.000000 -0.033950 
#    y 0.000000 2.175730 0.000000 
#    z -0.033950 0.000000 2.125210 
# 
# From -- ./inp_files/307512.got.cif
#   From: 2010.05.17/outbox.cif.g08.bks.cpg/sg15_154_cif.got.tgz:307512.got - 2010.06.03 18:47:42.
