data_PCOD9281934
_publ_section_title
;
Structure prediction by ZEFSAII (Michael W. Deem and Ramdas Pophale) SiO2 
 PCOD9281934
Probable space group: C 2/C
;
_chemical_formula_sum "Si O2"
_cell_formula_units_Z 48
_cell_length_a 26.495487
_cell_length_b 14.576427
_cell_length_c 12.065333
_cell_angle_alpha 90.000000
_cell_angle_beta 26.733094
_cell_angle_gamma 90.000000
_cell_volume 2096.116811
_symmetry_space_group_name_H-M "C 2/C"
_symmetry_group_IT_number 15
_symmetry_cell_setting 'monoclinic'
loop_
_space_group_symop_operation_xyz
x,y,z
-x,y,1/2-z
-x,-y,-z
x,-y,1/2+z
1/2+x,1/2+y,z
1/2-x,1/2+y,1/2-z
1/2-x,1/2-y,-z
1/2+x,1/2-y,1/2+z
loop_
_atom_site_type_symbol
_atom_site_label
_atom_site_fract_x
_atom_site_fract_y
_atom_site_fract_z
Si Si1 0.065559 0.371567 0.369433
Si Si2 0.192566 0.847587 0.152877
Si Si3 0.868043 0.189759 0.484832
Si Si4 0.432791 0.341498 0.615462
Si Si5 0.245270 0.384053 0.833354
Si Si6 0.853112 0.543644 0.191949
O O1 0.082870 0.267931 0.370925
O O2 0.080239 0.447690 0.434783
O O3 0.950918 0.382059 0.525793
O O4 0.161421 0.401286 0.097714
O O5 0.180108 0.856443 0.310084
O O6 0.065288 0.855714 0.358920
O O7 0.250000 0.750000 0.000000
O O8 0.264439 0.928712 0.959794
O O9 0.876168 0.140830 0.348219
O O10 0.790473 0.279497 0.626445
O O11 0.000000 0.213493 0.250000
O O12 0.368996 0.390561 0.640717
O O13 0.211698 0.443464 0.794719
#
# Coordination Sequence:
#
# PCOD9281934 Si02
#       6
#     8   8   8   8   8   8
#     4  10  21  40  62  93 126 176 214 256 326 396
#     4  11  19  37  61  98 128 162 214 273 315 377
#     4   9  17  33  60  86 123 165 216 261 302 373
#     4  10  21  38  66  93 121 173 226 258 315 396
#     4  11  20  38  62  89 125 170 214 264 312 396
#     4  11  22  38  63  95 137 163 205 277 337 367
#
# _framework density 22.899487000000001
#
# number of rings (size 3 to 8) (size 9 to 14) (size 15 to 20)
#    0.000    1.667    3.333    4.500    0.000    0.667 
#    6.000    0.833    3.667    0.000    4.333    0.000 
#    0.000    0.000    0.000    0.000    0.000    0.000 
#
# Total GULP energy -134038.120665 kJ/mol
# GULP energy per Si atom -5584.921694 kJ/mol
# Density = 2.284737 g / cm^3
# Si number density = 22.899487 Si / 1000 Ang^3
#
#
#
# Elastic Constant Matrix: (Units=GPa)
#
#
# Indices 1 2 3 4 5 6 
#
# 1 74.0404 12.7969 -80.0377 0.0000 -85.7191 0.0000
# 2 12.7969 38.7101 -11.4915 0.0000 -14.1872 0.0000
# 3 -80.0377 -11.4915 -61.8566 0.0000 -93.9674 0.0000
# 4 0.0000 0.0000 0.0000 12.3462 0.0000 -12.2372
# 5 -85.7191 -14.1872 -93.9674 0.0000 -23.0846 0.0000
# 6 0.0000 0.0000 0.0000 -12.2372 0.0000 27.3561
#
#
#
# Elastic Compliance Matrix: (Units=1/GPa)
#
#
# Indices 1 2 3 4 5 6 
#
# 1 0.006694 -0.004383 -0.004981 0.000000 -0.001887 0.000000
# 2 -0.004383 0.027407 -0.000278 0.000000 0.000565 0.000000
# 3 -0.004981 -0.000278 0.007336 0.000000 -0.011194 0.000000
# 4 0.000000 0.000000 0.000000 0.145515 0.000000 0.065093
# 5 -0.001887 0.000565 -0.011194 0.000000 0.008907 0.000000
# 6 0.000000 0.000000 0.000000 0.065093 0.000000 0.065673
#
#
# Mechanical properties :
#
#
# Convention : Reuss Voigt Hill
#
# Bulk Modulus (GPa) = 45.14362 -11.84119 16.65121
# Shear Modulus (GPa) = 17.34897 11.96531 14.65714
#
# Velocity S-wave (km/s) = 2.75547 2.28834 2.53269
# Velocity P-wave (km/s) = 5.46627 1.34157 3.97994
#
# Compressibility (1/GPa) = 0.02215153
#
# Stress axis : x y z
#
# Youngs Moduli (GPa) = 149.37874 36.48749 136.31014
#
# Poissons Ratio (x) = 0.15994 0.67902
# Poissons Ratio (y) = 0.65478 0.03790
# Poissons Ratio (z) = 0.74412 0.01015
#
# Static dielectric constant tensor:
#      x y z
#    x 1.932670 0.000000 0.024980 
#    y 0.000000 1.935350 0.000000 
#    z 0.024980 0.000000 1.850080 
# 
# From -- ./inp_files/123745.got.cif
#   From: 2010.05.17/outbox.cif.g08.bks.cpg/sg15_62_cif.got.tgz:123745.got - 2010.06.03 18:47:42.
