data_PCOD9281397
_publ_section_title
;
Structure prediction by ZEFSAII (Michael W. Deem and Ramdas Pophale) SiO2 
 PCOD9281397
Probable space group: C 2/C
;
_chemical_formula_sum "Si O2"
_cell_formula_units_Z 60
_cell_length_a 22.047590
_cell_length_b 5.489818
_cell_length_c 22.646851
_cell_angle_alpha 90.000000
_cell_angle_beta 71.529881
_cell_angle_gamma 90.000000
_cell_volume 2599.915276
_symmetry_space_group_name_H-M "C 2/C"
_symmetry_group_IT_number 15
_symmetry_cell_setting 'monoclinic'
loop_
_space_group_symop_operation_xyz
x,y,z
-x,y,1/2-z
-x,-y,-z
x,-y,1/2+z
1/2+x,1/2+y,z
1/2-x,1/2+y,1/2-z
1/2-x,1/2-y,-z
1/2+x,1/2-y,1/2+z
loop_
_atom_site_type_symbol
_atom_site_label
_atom_site_fract_x
_atom_site_fract_y
_atom_site_fract_z
Si Si1 0.174059 0.635987 0.292197
Si Si2 0.253872 0.485318 0.167486
Si Si3 0.500000 0.097717 0.250000
Si Si4 0.160438 0.333031 0.972242
Si Si5 0.189608 0.242047 0.092843
Si Si6 0.617035 0.470316 0.218044
Si Si7 0.876266 0.824170 0.581115
Si Si8 0.555702 0.828453 0.331345
O O1 0.213300 0.458221 0.239089
O O2 0.103489 0.552225 0.329008
O O3 0.207773 0.730373 0.339665
O O4 0.168432 0.853173 0.246091
O O5 0.207152 0.481429 0.126478
O O6 0.311085 0.675297 0.141720
O O7 0.562053 0.269411 0.226928
O O8 0.497616 0.943530 0.312265
O O9 0.238771 0.356741 0.944294
O O10 0.127926 0.579872 0.957052
O O11 0.132959 0.077255 0.952576
O O12 0.151820 0.302996 0.045435
O O13 0.149505 0.071335 0.149300
O O14 0.586239 0.677020 0.268275
O O15 0.935773 0.817717 0.609573
#
# Coordination Sequence:
#
# PCOD9281397 Si02
#       8
#     8   8   4   8   8   8   8   8
#     4  11  20  31  53  90 128 164 207 246 328 396
#     4  11  19  32  56  90 130 174 204 257 306 405
#     4  10  26  38  66  92 120 156 220 274 358 374
#     4  10  24  40  60  95 129 184 215 257 300 393
#     4  10  21  38  61  90 133 169 221 256 316 377
#     4  11  21  40  61  91 121 166 206 278 332 389
#     4  11  22  39  62  86 132 170 214 256 318 380
#     4  11  21  40  58  91 122 161 207 274 330 396
#
# _framework density 23.077677000000001
#
# number of rings (size 3 to 8) (size 9 to 14) (size 15 to 20)
#    0.000    1.333    2.667    4.400    1.867    5.867 
#    0.000    0.000    0.000    1.600    0.000    0.000 
#    0.000    0.000    0.000    0.000    0.000    0.000 
#
# Total GULP energy -167152.216826 kJ/mol
# GULP energy per Si atom -5571.740561 kJ/mol
# Density = 2.302515 g / cm^3
# Si number density = 23.077677 Si / 1000 Ang^3
#
#
#
# Elastic Constant Matrix: (Units=GPa)
#
#
# Indices 1 2 3 4 5 6 
#
# 1 46.4161 22.8803 24.3506 -0.0038 27.7402 -0.0042
# 2 22.8803 92.9993 32.1802 -0.0080 22.4046 -0.0114
# 3 24.3506 32.1802 123.6768 -0.0008 43.1648 -0.0016
# 4 -0.0038 -0.0080 -0.0008 27.8488 -0.0020 13.9844
# 5 27.7402 22.4046 43.1648 -0.0020 29.7867 -0.0038
# 6 -0.0042 -0.0114 -0.0016 13.9844 -0.0038 25.9930
#
#
#
# Elastic Compliance Matrix: (Units=1/GPa)
#
#
# Indices 1 2 3 4 5 6 
#
# 1 0.060890 -0.001552 0.015780 0.000005 -0.078408 -0.000004
# 2 -0.001552 0.013172 -0.000340 0.000001 -0.007969 0.000004
# 3 0.015780 -0.000340 0.020450 0.000001 -0.044075 -0.000004
# 4 0.000005 0.000001 0.000001 0.049200 -0.000007 -0.026470
# 5 -0.078408 -0.007969 -0.044075 -0.000007 0.176457 0.000011
# 6 -0.000004 0.000004 -0.000004 -0.026470 0.000011 0.052713
#
#
# Mechanical properties :
#
#
# Convention : Reuss Voigt Hill
#
# Bulk Modulus (GPa) = 8.17736 46.87938 27.52837
# Shear Modulus (GPa) = 12.95774 28.97110 20.96442
#
# Velocity S-wave (km/s) = 2.37214 3.54697 3.01728
# Velocity P-wave (km/s) = 3.32473 6.09364 4.90848
#
# Compressibility (1/GPa) = 0.12228885
#
# Stress axis : x y z
#
# Youngs Moduli (GPa) = 16.42297 75.91728 48.90009
#
# Poissons Ratio (x) = 0.11781 -0.77167
# Poissons Ratio (y) = 0.02548 0.01665
# Poissons Ratio (z) = -0.25916 0.02585
#
# Static dielectric constant tensor:
#      x y z
#    x 2.068050 -0.000020 -0.137660 
#    y -0.000020 2.105220 0.000010 
#    z -0.137660 0.000010 2.028240 
# 
# From -- ./inp_files/254370.got.cif
#   From: 2010.05.17/outbox.cif.g08.bks.cpg/sg15_128_cif.got.tgz:254370.got - 2010.06.03 18:47:42.
