data_PCOD9281637
_publ_section_title
;
Structure prediction by ZEFSAII (Michael W. Deem and Ramdas Pophale) SiO2 
 PCOD9281637
Probable space group: C 2/C
;
_chemical_formula_sum "Si O2"
_cell_formula_units_Z 64
_cell_length_a 9.957813
_cell_length_b 28.025698
_cell_length_c 27.980858
_cell_angle_alpha 90.000000
_cell_angle_beta 152.832138
_cell_angle_gamma 90.000000
_cell_volume 3565.466483
_symmetry_space_group_name_H-M "C 2/C"
_symmetry_group_IT_number 15
_symmetry_cell_setting 'monoclinic'
loop_
_space_group_symop_operation_xyz
x,y,z
-x,y,1/2-z
-x,-y,-z
x,-y,1/2+z
1/2+x,1/2+y,z
1/2-x,1/2+y,1/2-z
1/2-x,1/2-y,-z
1/2+x,1/2-y,1/2+z
loop_
_atom_site_type_symbol
_atom_site_label
_atom_site_fract_x
_atom_site_fract_y
_atom_site_fract_z
Si Si1 0.835558 0.504012 0.589854
Si Si2 0.790488 0.577650 0.729943
Si Si3 0.174167 0.431490 0.756195
Si Si4 0.787176 0.997720 0.558056
Si Si5 0.890748 0.172348 0.770048
Si Si6 0.143095 0.681487 0.243768
Si Si7 0.636239 0.754004 0.410128
Si Si8 0.753045 0.252273 0.558038
O O1 0.500000 0.500000 0.500000
O O2 0.831467 0.509952 0.532460
O O3 0.004604 0.546642 0.669798
O O4 0.001460 0.456292 0.658630
O O5 0.506795 0.543884 0.628630
O O6 0.680447 0.624998 0.722180
O O7 0.000000 0.587037 0.750000
O O8 0.497390 0.453920 0.860681
O O9 0.168185 0.375001 0.749978
O O10 0.000000 0.445163 0.750000
O O11 0.500000 0.000000 0.500000
O O12 0.594374 0.203357 0.669796
O O13 0.000000 0.162965 0.750000
O O14 0.113631 0.206114 0.871366
O O15 0.458205 0.706290 0.341333
O O16 0.000000 0.695159 0.250000
O O17 0.943848 0.703918 0.139275
O O18 0.750000 0.750000 0.500000
O O19 0.919110 0.759931 0.467519
O O20 0.750000 0.250000 0.500000
#
# Coordination Sequence:
#
# PCOD9281637 Si02
#       8
#     8   8   8   8   8   8   8   8
#     4  11  20  41  65  84 122 164 198 250 310 361
#     4  11  25  41  62  94 126 160 211 257 306 373
#     4  10  21  38  63  92 117 153 207 249 297 368
#     4  11  24  41  61  92 126 159 203 254 308 362
#     4  11  25  41  62  94 126 160 211 257 306 373
#     4  10  21  38  63  92 117 153 207 249 297 368
#     4  11  20  41  65  84 122 164 198 250 310 361
#     4  11  24  41  61  92 126 159 203 254 308 362
#
# _framework density 17.949966
#
# number of rings (size 3 to 8) (size 9 to 14) (size 15 to 20)
#    0.000    1.250    5.000    1.500    3.500    7.000 
#    0.000    1.250    0.000    0.000    0.000    0.000 
#    0.000    0.000    0.000    0.000    0.000    0.000 
#
# Total GULP energy -178657.328189 kJ/mol
# GULP energy per Si atom -5583.041506 kJ/mol
# Density = 1.790911 g / cm^3
# Si number density = 17.949966 Si / 1000 Ang^3
#
#
#
# Elastic Constant Matrix: (Units=GPa)
#
#
# Indices 1 2 3 4 5 6 
#
# 1 158.8411 38.4724 67.1229 -0.0071 -0.9948 -0.0061
# 2 38.4724 99.6261 41.5189 -0.0049 0.2311 -0.0025
# 3 67.1229 41.5189 125.7655 -0.0203 -1.3875 -0.0043
# 4 -0.0071 -0.0049 -0.0203 4.9148 0.0030 -1.5192
# 5 -0.9948 0.2311 -1.3875 0.0030 38.9331 -0.0026
# 6 -0.0061 -0.0025 -0.0043 -1.5192 -0.0026 25.6262
#
#
#
# Elastic Compliance Matrix: (Units=1/GPa)
#
#
# Indices 1 2 3 4 5 6 
#
# 1 0.008339 -0.001584 -0.003927 -0.000006 0.000083 0.000001
# 2 -0.001584 0.011941 -0.003099 -0.000003 -0.000222 0.000000
# 3 -0.003927 -0.003099 0.011074 0.000038 0.000313 0.000003
# 4 -0.000006 -0.000003 0.000038 0.207265 -0.000014 0.012287
# 5 0.000083 -0.000222 0.000313 -0.000014 0.025700 0.000002
# 6 0.000001 0.000000 0.000003 0.012287 0.000002 0.039751
#
#
# Mechanical properties :
#
#
# Convention : Reuss Voigt Hill
#
# Bulk Modulus (GPa) = 70.75134 75.38455 73.06795
# Shear Modulus (GPa) = 15.33734 29.70271 22.52002
#
# Velocity S-wave (km/s) = 2.92627 4.07228 3.54588
# Velocity P-wave (km/s) = 7.13574 8.01246 7.58677
#
# Compressibility (1/GPa) = 0.01413401
#
# Stress axis : x y z
#
# Youngs Moduli (GPa) = 119.91552 83.74273 90.30351
#
# Poissons Ratio (x) = 0.13265 0.35461
# Poissons Ratio (y) = 0.18994 0.27987
# Poissons Ratio (z) = 0.47090 0.25954
#
# Static dielectric constant tensor:
#      x y z
#    x 1.679500 -0.000010 -0.007040 
#    y -0.000010 1.612250 0.000000 
#    z -0.007040 0.000000 1.582880 
# 
# From -- ./inp_files/266766.got.cif
#   From: 2010.05.17/outbox.cif.g08.bks.cpg/sg15_134_cif.got.tgz:266766.got - 2010.06.03 18:47:42.
