data_PCOD9281398
_publ_section_title
;
Structure prediction by ZEFSAII (Michael W. Deem and Ramdas Pophale) SiO2 
 PCOD9281398
Probable space group: C 2/C
;
_chemical_formula_sum "Si O2"
_cell_formula_units_Z 60
_cell_length_a 17.433638
_cell_length_b 22.922015
_cell_length_c 11.565102
_cell_angle_alpha 90.000000
_cell_angle_beta 141.445047
_cell_angle_gamma 90.000000
_cell_volume 2880.467596
_symmetry_space_group_name_H-M "C 2/C"
_symmetry_group_IT_number 15
_symmetry_cell_setting 'monoclinic'
loop_
_space_group_symop_operation_xyz
x,y,z
-x,y,1/2-z
-x,-y,-z
x,-y,1/2+z
1/2+x,1/2+y,z
1/2-x,1/2+y,1/2-z
1/2-x,1/2-y,-z
1/2+x,1/2-y,1/2+z
loop_
_atom_site_type_symbol
_atom_site_label
_atom_site_fract_x
_atom_site_fract_y
_atom_site_fract_z
Si Si1 0.270880 0.856439 0.819858
Si Si2 0.607873 0.009572 0.724208
Si Si3 0.478500 0.308700 0.088004
Si Si4 0.000000 0.409979 0.750000
Si Si5 0.123682 0.358611 0.329636
Si Si6 0.550450 0.570990 0.678393
Si Si7 0.477560 0.176088 0.014024
Si Si8 0.192502 0.017035 0.216579
O O1 0.393489 0.843178 0.892190
O O2 0.270915 0.926232 0.837357
O O3 0.155305 0.832027 0.611760
O O4 0.273442 0.838202 0.957744
O O5 0.591291 0.955201 0.792185
O O6 0.736690 0.010198 0.807812
O O7 0.500000 0.000000 0.500000
O O8 0.604524 0.072202 0.782322
O O9 0.500000 0.304104 0.250000
O O10 0.569134 0.362151 0.161274
O O11 0.493635 0.243792 0.061062
O O12 0.047819 0.366162 0.906665
O O13 0.000000 0.339080 0.250000
O O14 0.126396 0.331251 0.206053
O O15 0.500000 0.570182 0.750000
O O16 0.436549 0.545138 0.472687
O O17 0.664134 0.529432 0.782672
#
# Coordination Sequence:
#
# PCOD9281398 Si02
#       8
#     8   8   8   4   8   8   8   8
#     4  10  22  41  67  92 127 181 219 276 341 391
#     4  12  22  36  58  98 137 169 212 268 340 404
#     4  10  22  43  65  93 130 169 230 281 323 399
#     4  12  22  36  62  98 136 172 216 268 336 406
#     4  10  21  38  61  90 134 176 216 273 332 403
#     4   9  21  41  62  90 120 166 216 269 327 379
#     4  11  22  42  62  95 135 176 222 272 330 402
#     4  10  21  38  63  89 126 164 212 271 329 391
#
# _framework density 20.829951000000001
#
# number of rings (size 3 to 8) (size 9 to 14) (size 15 to 20)
#    0.000    1.600    4.000    0.800    1.867    1.067 
#    4.800    0.000    0.000    0.000    0.000    0.000 
#    0.000    0.000    0.000    0.000    0.000    0.000 
#
# Total GULP energy -167157.866077 kJ/mol
# GULP energy per Si atom -5571.928869 kJ/mol
# Density = 2.078254 g / cm^3
# Si number density = 20.829951 Si / 1000 Ang^3
#
#
#
# Elastic Constant Matrix: (Units=GPa)
#
#
# Indices 1 2 3 4 5 6 
#
# 1 86.3139 55.6157 23.0149 0.0000 -18.3621 0.0000
# 2 55.6157 144.5572 41.0885 0.0000 -11.0158 0.0000
# 3 23.0149 41.0885 109.1366 0.0000 -35.9548 0.0000
# 4 0.0000 0.0000 0.0000 3.6584 0.0000 -5.3306
# 5 -18.3621 -11.0158 -35.9548 0.0000 33.5442 0.0000
# 6 0.0000 0.0000 0.0000 -5.3306 0.0000 21.7483
#
#
#
# Elastic Compliance Matrix: (Units=1/GPa)
#
#
# Indices 1 2 3 4 5 6 
#
# 1 0.017222 -0.006446 0.001860 0.000000 0.009305 0.000000
# 2 -0.006446 0.010177 -0.003917 0.000000 -0.004384 0.000000
# 3 0.001860 -0.003917 0.015701 0.000000 0.016562 0.000000
# 4 0.000000 0.000000 0.000000 0.425202 0.000000 0.104218
# 5 0.009305 -0.004384 0.016562 0.000000 0.051217 0.000000
# 6 0.000000 0.000000 0.000000 0.104218 0.000000 0.071525
#
#
# Mechanical properties :
#
#
# Convention : Reuss Voigt Hill
#
# Bulk Modulus (GPa) = 38.31951 64.38288 51.35119
# Shear Modulus (GPa) = 8.10706 26.47607 17.29157
#
# Velocity S-wave (km/s) = 1.97496 3.56906 2.88432
# Velocity P-wave (km/s) = 4.86178 6.92533 5.98319
#
# Compressibility (1/GPa) = 0.02609637
#
# Stress axis : x y z
#
# Youngs Moduli (GPa) = 58.06453 98.26440 63.68894
#
# Poissons Ratio (x) = 0.63338 -0.11848
# Poissons Ratio (y) = 0.37426 0.24944
# Poissons Ratio (z) = -0.10801 0.38485
#
# Static dielectric constant tensor:
#      x y z
#    x 1.769510 0.000000 -0.028840 
#    y 0.000000 1.777970 0.000000 
#    z -0.028840 0.000000 1.822360 
# 
# From -- ./inp_files/107653.got.cif
#   From: 2010.05.17/outbox.cif.g08.bks.cpg/sg15_54_cif.got.tgz:107653.got - 2010.06.03 18:47:42.
