data_PCOD9281818
_publ_section_title
;
Structure prediction by ZEFSAII (Michael W. Deem and Ramdas Pophale) SiO2 
 PCOD9281818
Probable space group: C 2/C
;
_chemical_formula_sum "Si O2"
_cell_formula_units_Z 60
_cell_length_a 19.296161
_cell_length_b 7.494523
_cell_length_c 29.627103
_cell_angle_alpha 90.000000
_cell_angle_beta 39.459486
_cell_angle_gamma 90.000000
_cell_volume 2722.963526
_symmetry_space_group_name_H-M "C 2/C"
_symmetry_group_IT_number 15
_symmetry_cell_setting 'monoclinic'
loop_
_space_group_symop_operation_xyz
x,y,z
-x,y,1/2-z
-x,-y,-z
x,-y,1/2+z
1/2+x,1/2+y,z
1/2-x,1/2+y,1/2-z
1/2-x,1/2-y,-z
1/2+x,1/2-y,1/2+z
loop_
_atom_site_type_symbol
_atom_site_label
_atom_site_fract_x
_atom_site_fract_y
_atom_site_fract_z
Si Si1 0.845285 0.209842 0.154632
Si Si2 0.750000 0.250000 0.500000
Si Si3 0.605115 0.794226 0.798972
Si Si4 0.267099 0.204118 0.093970
Si Si5 0.563203 0.346171 0.418508
Si Si6 0.926903 0.051269 0.247649
Si Si7 0.106799 0.616279 0.959019
Si Si8 0.009307 0.355050 0.143529
O O1 0.727163 0.137844 0.227392
O O2 0.834301 0.331981 0.116469
O O3 0.905491 0.315347 0.163436
O O4 0.924047 0.050363 0.100490
O O5 0.757058 0.298829 0.441033
O O6 0.620100 0.191366 0.561681
O O7 0.595724 0.760814 0.857144
O O8 0.596669 0.603266 0.777272
O O9 0.513220 0.939187 0.831436
O O10 0.357352 0.301425 0.079611
O O11 0.171891 0.151238 0.177086
O O12 0.312541 0.010425 0.055132
O O13 0.441234 0.285956 0.491666
O O14 0.000000 0.964601 0.250000
O O15 0.995050 0.209581 0.189935
O O16 0.000000 0.500000 0.000000
#
# Coordination Sequence:
#
# PCOD9281818 Si02
#       8
#     8   4   8   8   8   8   8   8
#     4  12  22  42  71 104 141 181 237 310 372 422
#     4  12  26  48  74 100 156 208 240 294 372 460
#     4  12  25  45  74 108 140 184 250 311 364 434
#     4  11  22  45  70 100 143 196 241 297 369 434
#     4  11  23  39  69 107 139 180 242 304 364 435
#     4  12  25  48  70 101 144 191 245 295 364 442
#     4  10  21  38  64  98 139 177 230 293 356 424
#     4  12  26  46  75 106 146 196 239 299 371 435
#
# _framework density 22.034814999999998
#
# number of rings (size 3 to 8) (size 9 to 14) (size 15 to 20)
#    0.000    0.533    4.000    6.800    0.000    0.533 
#    2.400    2.000    0.000    0.000    0.000    0.000 
#    0.000    0.000    0.000    0.000    0.000    0.000 
#
# Total GULP energy -167033.747588 kJ/mol
# GULP energy per Si atom -5567.791586 kJ/mol
# Density = 2.198466 g / cm^3
# Si number density = 22.034815 Si / 1000 Ang^3
#
#
#
# Elastic Constant Matrix: (Units=GPa)
#
#
# Indices 1 2 3 4 5 6 
#
# 1 49.6768 4.0230 17.8942 -0.0004 21.1119 -0.0040
# 2 4.0230 68.9581 17.4614 0.0040 6.1240 0.0025
# 3 17.8942 17.4614 139.1128 -0.0012 -3.6698 -0.0002
# 4 -0.0004 0.0040 -0.0012 33.0343 -0.0013 5.6534
# 5 21.1119 6.1240 -3.6698 -0.0013 40.7355 -0.0003
# 6 -0.0040 0.0025 -0.0002 5.6534 -0.0003 12.8238
#
#
#
# Elastic Compliance Matrix: (Units=1/GPa)
#
#
# Indices 1 2 3 4 5 6 
#
# 1 0.027881 0.000730 -0.004072 -0.000002 -0.014927 0.000009
# 2 0.000730 0.015240 -0.002082 -0.000002 -0.002857 -0.000002
# 3 -0.004072 -0.002082 0.008057 0.000001 0.003149 -0.000001
# 4 -0.000002 -0.000002 0.000001 0.032742 0.000002 -0.014434
# 5 -0.014927 -0.002857 0.003149 0.000002 0.032998 -0.000004
# 6 0.000009 -0.000002 -0.000001 -0.014434 -0.000004 0.084343
#
#
# Mechanical properties :
#
#
# Convention : Reuss Voigt Hill
#
# Bulk Modulus (GPa) = 24.79545 37.38943 31.09244
# Shear Modulus (GPa) = 22.16784 31.87668 27.02226
#
# Velocity S-wave (km/s) = 3.17525 3.80761 3.50572
# Velocity P-wave (km/s) = 4.97194 6.02791 5.52521
#
# Compressibility (1/GPa) = 0.04032998
#
# Stress axis : x y z
#
# Youngs Moduli (GPa) = 35.86636 65.61707 124.12183
#
# Poissons Ratio (x) = -0.04790 0.50540
# Poissons Ratio (y) = -0.02618 0.25845
# Poissons Ratio (z) = 0.14604 0.13663
#
# Static dielectric constant tensor:
#      x y z
#    x 1.803000 0.000000 -0.000280 
#    y 0.000000 1.920000 0.000000 
#    z -0.000280 0.000000 1.860970 
# 
# From -- ./inp_files/300494.got.cif
#   From: 2010.05.17/outbox.cif.g08.bks.cpg/sg15_151_cif.got.tgz:300494.got - 2010.06.03 18:47:42.
