data_PCOD9281115
_publ_section_title
;
Structure prediction by ZEFSAII (Michael W. Deem and Ramdas Pophale) SiO2 
 PCOD9281115
Probable space group: C 2/C
;
_chemical_formula_sum "Si O2"
_cell_formula_units_Z 48
_cell_length_a 23.114714
_cell_length_b 6.002355
_cell_length_c 28.423838
_cell_angle_alpha 90.000000
_cell_angle_beta 152.195277
_cell_angle_gamma 90.000000
_cell_volume 1839.530174
_symmetry_space_group_name_H-M "C 2/C"
_symmetry_group_IT_number 15
_symmetry_cell_setting 'monoclinic'
loop_
_space_group_symop_operation_xyz
x,y,z
-x,y,1/2-z
-x,-y,-z
x,-y,1/2+z
1/2+x,1/2+y,z
1/2-x,1/2+y,1/2-z
1/2-x,1/2-y,-z
1/2+x,1/2-y,1/2+z
loop_
_atom_site_type_symbol
_atom_site_label
_atom_site_fract_x
_atom_site_fract_y
_atom_site_fract_z
Si Si1 0.375063 0.259565 0.622244
Si Si2 0.865239 0.250699 0.617289
Si Si3 0.683201 0.904808 0.149681
Si Si4 0.149899 0.190468 0.030462
Si Si5 0.227382 0.699031 0.850670
Si Si6 0.410131 0.905948 0.825356
O O1 0.250000 0.250000 0.500000
O O2 0.429856 0.511738 0.652475
O O3 0.347663 0.278201 0.658114
O O4 0.422402 0.999646 0.652839
O O5 0.750000 0.250000 0.500000
O O6 0.789228 0.247824 0.612666
O O7 0.719389 0.123394 0.146854
O O8 0.599754 0.947456 0.134644
O O9 0.809675 0.790953 0.258482
O O10 0.625363 0.757371 0.066700
O O11 0.046526 0.300406 0.923586
O O12 0.158690 0.925894 0.040930
O O13 0.141673 0.544587 0.755849
#
# Coordination Sequence:
#
# PCOD9281115 Si02
#       6
#     8   8   8   8   8   8
#     4   9  17  33  60  89 113 157 205 249 313 383
#     4   9  17  33  59  91 115 154 204 255 313 374
#     4  11  21  39  57  83 123 162 204 259 322 371
#     4  10  22  37  60  88 115 164 216 252 318 390
#     4  10  21  38  58  87 120 163 202 262 323 370
#     4  11  23  38  57  88 125 162 210 265 316 384
#
# _framework density 26.093617999999999
#
# number of rings (size 3 to 8) (size 9 to 14) (size 15 to 20)
#    0.000    2.000    3.333    0.500    0.000    2.000 
#    0.000    0.000    0.000   16.000    0.000    0.000 
#    0.000    0.000    0.000    0.000    0.000    0.000 
#
# Total GULP energy -133874.614609 kJ/mol
# GULP energy per Si atom -5578.108942 kJ/mol
# Density = 2.603423 g / cm^3
# Si number density = 26.093618 Si / 1000 Ang^3
#
#
#
# Elastic Constant Matrix: (Units=GPa)
#
#
# Indices 1 2 3 4 5 6 
#
# 1 91.5121 24.7405 8.6176 -0.0008 -21.4818 0.0001
# 2 24.7405 171.1573 13.3412 -0.0131 7.5673 0.0146
# 3 8.6176 13.3412 87.0361 -0.0025 -8.7110 0.0039
# 4 -0.0008 -0.0131 -0.0025 22.5967 -0.0008 -21.3607
# 5 -21.4818 7.5673 -8.7110 -0.0008 45.9091 -0.0008
# 6 0.0001 0.0146 0.0039 -21.3607 -0.0008 33.5871
#
#
#
# Elastic Compliance Matrix: (Units=1/GPa)
#
#
# Indices 1 2 3 4 5 6 
#
# 1 0.013038 -0.002142 -0.000323 0.000001 0.006392 0.000002
# 2 -0.002142 0.006327 -0.000981 0.000002 -0.002231 -0.000001
# 3 -0.000323 -0.000981 0.011899 0.000000 0.002268 -0.000001
# 4 0.000001 0.000002 0.000000 0.110966 0.000003 0.070572
# 5 0.006392 -0.002231 0.002268 0.000003 0.025571 0.000003
# 6 0.000002 -0.000001 -0.000001 0.070572 0.000003 0.074656
#
#
# Mechanical properties :
#
#
# Convention : Reuss Voigt Hill
#
# Bulk Modulus (GPa) = 41.03075 49.23380 45.13228
# Shear Modulus (GPa) = 19.41954 40.61900 30.01927
#
# Velocity S-wave (km/s) = 2.73101 3.94974 3.39550
# Velocity P-wave (km/s) = 5.06983 6.30156 5.71895
#
# Compressibility (1/GPa) = 0.02437196
#
# Stress axis : x y z
#
# Youngs Moduli (GPa) = 76.70143 158.04436 84.04164
#
# Poissons Ratio (x) = 0.33853 0.02713
# Poissons Ratio (y) = 0.16430 0.08246
# Poissons Ratio (z) = 0.02476 0.15506
#
# Static dielectric constant tensor:
#      x y z
#    x 2.108710 -0.000040 0.005470 
#    y -0.000040 2.177710 0.000050 
#    z 0.005470 0.000050 2.156210 
# 
# From -- ./inp_files/179791.got.cif
#   From: 2010.05.17/outbox.cif.g08.bks.cpg/sg15_90_cif.got.tgz:179791.got - 2010.06.03 18:47:42.
