data_PCOD9281719
_publ_section_title
;
Structure prediction by ZEFSAII (Michael W. Deem and Ramdas Pophale) SiO2 
 PCOD9281719
Probable space group: C 2/C
;
_chemical_formula_sum "Si O2"
_cell_formula_units_Z 64
_cell_length_a 11.984210
_cell_length_b 20.807306
_cell_length_c 13.976405
_cell_angle_alpha 90.000000
_cell_angle_beta 114.916271
_cell_angle_gamma 90.000000
_cell_volume 3160.762275
_symmetry_space_group_name_H-M "C 2/C"
_symmetry_group_IT_number 15
_symmetry_cell_setting 'monoclinic'
loop_
_space_group_symop_operation_xyz
x,y,z
-x,y,1/2-z
-x,-y,-z
x,-y,1/2+z
1/2+x,1/2+y,z
1/2-x,1/2+y,1/2-z
1/2-x,1/2-y,-z
1/2+x,1/2-y,1/2+z
loop_
_atom_site_type_symbol
_atom_site_label
_atom_site_fract_x
_atom_site_fract_y
_atom_site_fract_z
Si Si1 0.381085 0.803377 0.766389
Si Si2 0.751335 0.206463 0.596563
Si Si3 0.242375 0.932287 0.479762
Si Si4 0.575096 0.683287 0.376559
Si Si5 0.356989 0.607135 0.362351
Si Si6 0.214487 0.062674 0.349329
Si Si7 0.464142 0.199238 0.518702
Si Si8 0.517649 0.930132 0.545800
O O1 0.500000 0.827547 0.750000
O O2 0.343729 0.735726 0.706501
O O3 0.257059 0.844370 0.700226
O O4 0.419001 0.795164 0.891422
O O5 0.750000 0.250000 0.500000
O O6 0.788765 0.133357 0.587327
O O7 0.610252 0.211233 0.580276
O O8 0.172618 0.931898 0.554264
O O9 0.388763 0.919319 0.551408
O O10 0.216920 0.998348 0.413650
O O11 0.500000 0.694271 0.250000
O O12 0.479741 0.648928 0.413933
O O13 0.678033 0.629240 0.390539
O O14 0.604287 0.751795 0.435434
O O15 0.372607 0.562484 0.274525
O O16 0.352403 0.068131 0.355110
O O17 0.459621 0.122087 0.529610
O O18 0.500000 0.000000 0.500000
#
# Coordination Sequence:
#
# PCOD9281719 Si02
#       8
#     8   8   8   8   8   8   8   8
#     4  12  21  33  63  98 118 157 207 260 321 369
#     4  11  19  36  58  92 127 146 201 268 317 359
#     4  10  21  38  64  85 122 160 198 268 315 360
#     4  10  23  42  62  86 126 170 210 254 308 378
#     4  11  21  39  63  85 121 164 205 250 314 373
#     4  10  22  40  58  86 120 165 210 242 305 388
#     4  11  20  36  63  87 121 165 203 257 314 367
#     4   9  19  36  60  87 118 152 202 254 304 363
#
# _framework density 20.248280999999999
#
# number of rings (size 3 to 8) (size 9 to 14) (size 15 to 20)
#    0.000    1.500    5.000    0.750    0.000    1.000 
#    2.250    1.875   13.750    0.000    0.000    0.000 
#    0.000    0.000    0.000    0.000    0.000    0.000 
#
# Total GULP energy -178230.086832 kJ/mol
# GULP energy per Si atom -5569.690214 kJ/mol
# Density = 2.020220 g / cm^3
# Si number density = 20.248281 Si / 1000 Ang^3
#
#
#
# Elastic Constant Matrix: (Units=GPa)
#
#
# Indices 1 2 3 4 5 6 
#
# 1 68.8927 18.4041 8.4482 0.0000 -3.8522 0.0000
# 2 18.4041 141.1303 48.7367 0.0000 -11.0583 0.0000
# 3 8.4482 48.7367 62.4469 0.0000 -9.5306 0.0000
# 4 0.0000 0.0000 0.0000 31.2924 0.0000 0.2092
# 5 -3.8522 -11.0583 -9.5306 0.0000 27.3975 0.0000
# 6 0.0000 0.0000 0.0000 0.2092 0.0000 30.0123
#
#
#
# Elastic Compliance Matrix: (Units=1/GPa)
#
#
# Indices 1 2 3 4 5 6 
#
# 1 0.015102 -0.001686 -0.000535 0.000000 0.001257 0.000000
# 2 -0.001686 0.009936 -0.007340 0.000000 0.001220 0.000000
# 3 -0.000535 -0.007340 0.022548 0.000000 0.004806 0.000000
# 4 0.000000 0.000000 0.000000 0.031958 0.000000 -0.000223
# 5 0.001257 0.001220 0.004806 0.000000 0.038841 0.000000
# 6 0.000000 0.000000 0.000000 -0.000223 0.000000 0.033321
#
#
# Mechanical properties :
#
#
# Convention : Reuss Voigt Hill
#
# Bulk Modulus (GPa) = 35.13398 47.07197 41.10298
# Shear Modulus (GPa) = 27.72905 30.86583 29.29744
#
# Velocity S-wave (km/s) = 3.70463 3.90855 3.80795
# Velocity P-wave (km/s) = 5.97397 6.60809 6.29901
#
# Compressibility (1/GPa) = 0.02846247
#
# Stress axis : x y z
#
# Youngs Moduli (GPa) = 66.21794 100.64523 44.34950
#
# Poissons Ratio (x) = 0.16968 0.02375
# Poissons Ratio (y) = 0.11164 0.32553
# Poissons Ratio (z) = 0.03546 0.73876
#
# Static dielectric constant tensor:
#      x y z
#    x 1.799290 0.000000 0.019550 
#    y 0.000000 1.787590 0.000000 
#    z 0.019550 0.000000 1.717780 
# 
# From -- ./inp_files/147166.got.cif
#   From: 2010.05.17/outbox.cif.g08.bks.cpg/sg15_74_cif.got.tgz:147166.got - 2010.06.03 18:47:42.
