data_PCOD9281525
_publ_section_title
;
Structure prediction by ZEFSAII (Michael W. Deem and Ramdas Pophale) SiO2 
 PCOD9281525
Probable space group: C 2/C
;
_chemical_formula_sum "Si O2"
_cell_formula_units_Z 56
_cell_length_a 22.102111
_cell_length_b 6.187121
_cell_length_c 22.469268
_cell_angle_alpha 90.000000
_cell_angle_beta 78.915081
_cell_angle_gamma 90.000000
_cell_volume 3015.311979
_symmetry_space_group_name_H-M "C 2/C"
_symmetry_group_IT_number 15
_symmetry_cell_setting 'monoclinic'
loop_
_space_group_symop_operation_xyz
x,y,z
-x,y,1/2-z
-x,-y,-z
x,-y,1/2+z
1/2+x,1/2+y,z
1/2-x,1/2+y,1/2-z
1/2-x,1/2-y,-z
1/2+x,1/2-y,1/2+z
loop_
_atom_site_type_symbol
_atom_site_label
_atom_site_fract_x
_atom_site_fract_y
_atom_site_fract_z
Si Si1 0.541451 0.695395 0.563092
Si Si2 0.002277 0.576288 0.850695
Si Si3 0.678687 0.500204 0.323136
Si Si4 0.312874 0.184226 0.789424
Si Si5 0.595333 0.801308 0.756903
Si Si6 0.574898 0.386633 0.924209
Si Si7 0.089687 0.942222 0.661976
O O1 0.472849 0.588991 0.571400
O O2 0.568384 0.702932 0.491946
O O3 0.581753 0.538615 0.597638
O O4 0.535713 0.923636 0.597236
O O5 0.040768 0.427985 0.799139
O O6 0.049231 0.715265 0.881474
O O7 0.958494 0.745382 0.825535
O O8 0.687281 0.699914 0.275409
O O9 0.744270 0.386770 0.318634
O O10 0.631813 0.339285 0.298606
O O11 0.643769 0.561124 0.390236
O O12 0.344538 0.349726 0.829654
O O13 0.356413 0.974589 0.777963
O O14 0.574119 0.634366 0.710474
#
# Coordination Sequence:
#
# PCOD9281525 Si02
#       7
#     8   8   8   8   8   8   8
#     4  10  21  39  60  87 128 160 198 250 294 363
#     4  11  21  39  62  89 122 160 199 247 312 362
#     4  11  21  39  61  90 116 157 203 250 302 356
#     4  11  22  38  60  86 121 158 201 247 308 358
#     4  11  22  38  59  90 124 154 197 254 305 356
#     4  10  21  38  62  92 119 158 207 247 297 357
#     4  10  25  38  56  90 125 162 198 243 313 364
#
# _framework density 18.571874999999999
#
# number of rings (size 3 to 8) (size 9 to 14) (size 15 to 20)
#    0.000    1.429    4.286    1.286    0.000    3.429 
#    0.000    0.714    0.000    3.429    0.000    0.000 
#    0.000    0.000    0.000    0.000    0.000    0.000 
#
# Total GULP energy -156508.101975 kJ/mol
# GULP energy per Si atom -5589.575071 kJ/mol
# Density = 1.852960 g / cm^3
# Si number density = 18.571875 Si / 1000 Ang^3
#
#
#
# Elastic Constant Matrix: (Units=GPa)
#
#
# Indices 1 2 3 4 5 6 
#
# 1 103.4171 42.6062 74.3077 0.0000 -12.0096 0.0000
# 2 42.6062 85.3766 32.3512 0.0000 -8.8810 0.0000
# 3 74.3077 32.3512 100.7720 0.0000 -16.1258 0.0000
# 4 0.0000 0.0000 0.0000 16.3739 0.0000 5.8583
# 5 -12.0096 -8.8810 -16.1258 0.0000 25.1782 0.0000
# 6 0.0000 0.0000 0.0000 5.8583 0.0000 37.2046
#
#
#
# Elastic Compliance Matrix: (Units=1/GPa)
#
#
# Indices 1 2 3 4 5 6 
#
# 1 0.022776 -0.005735 -0.015085 0.000000 -0.000820 0.000000
# 2 -0.005735 0.014888 -0.000165 0.000000 0.002410 0.000000
# 3 -0.015085 -0.000165 0.022216 0.000000 0.006975 0.000000
# 4 0.000000 0.000000 0.000000 0.064719 0.000000 -0.010191
# 5 -0.000820 0.002410 0.006975 0.000000 0.044643 0.000000
# 6 0.000000 0.000000 0.000000 -0.010191 0.000000 0.028483
#
#
# Mechanical properties :
#
#
# Convention : Reuss Voigt Hill
#
# Bulk Modulus (GPa) = 55.83427 65.34401 60.58914
# Shear Modulus (GPa) = 20.35301 25.10473 22.72887
#
# Velocity S-wave (km/s) = 3.31404 3.68062 3.50213
# Velocity P-wave (km/s) = 6.69126 7.30229 7.00344
#
# Compressibility (1/GPa) = 0.01791015
#
# Stress axis : x y z
#
# Youngs Moduli (GPa) = 43.90614 67.16757 45.01347
#
# Poissons Ratio (x) = 0.38524 0.67901
# Poissons Ratio (y) = 0.25182 0.00741
# Poissons Ratio (z) = 0.66231 0.01106
#
# Static dielectric constant tensor:
#      x y z
#    x 1.636150 0.000000 0.015830 
#    y 0.000000 1.672300 0.000000 
#    z 0.015830 0.000000 1.625030 
# 
# From -- ./inp_files/254322.got.cif
#   From: 2010.05.17/outbox.cif.g08.bks.cpg/sg15_128_cif.got.tgz:254322.got - 2010.06.03 18:47:42.
