data_PCOD9281824
_publ_section_title
;
Structure prediction by ZEFSAII (Michael W. Deem and Ramdas Pophale) SiO2 
 PCOD9281824
Probable space group: C 2/C
;
_chemical_formula_sum "Si O2"
_cell_formula_units_Z 48
_cell_length_a 22.241040
_cell_length_b 12.263052
_cell_length_c 12.456001
_cell_angle_alpha 90.000000
_cell_angle_beta 35.114841
_cell_angle_gamma 90.000000
_cell_volume 1954.178019
_symmetry_space_group_name_H-M "C 2/C"
_symmetry_group_IT_number 15
_symmetry_cell_setting 'monoclinic'
loop_
_space_group_symop_operation_xyz
x,y,z
-x,y,1/2-z
-x,-y,-z
x,-y,1/2+z
1/2+x,1/2+y,z
1/2-x,1/2+y,1/2-z
1/2-x,1/2-y,-z
1/2+x,1/2-y,1/2+z
loop_
_atom_site_type_symbol
_atom_site_label
_atom_site_fract_x
_atom_site_fract_y
_atom_site_fract_z
Si Si1 0.415256 0.327250 0.060968
Si Si2 0.190686 0.408820 0.416586
Si Si3 0.635316 0.346859 0.700191
Si Si4 0.126244 0.366783 0.740432
Si Si5 0.206159 0.644033 0.347011
Si Si6 0.340758 0.891940 0.282629
O O1 0.316990 0.400296 0.238300
O O2 0.439462 0.235268 0.117587
O O3 0.367425 0.249299 0.038213
O O4 0.517963 0.389097 0.874573
O O5 0.151290 0.348863 0.579876
O O6 0.154412 0.534047 0.466397
O O7 0.158333 0.369753 0.346023
O O8 0.625778 0.215070 0.700660
O O9 0.689382 0.351322 0.738067
O O10 0.719695 0.403725 0.499515
O O11 0.216817 0.365735 0.701618
O O12 0.097511 0.495448 0.787253
#
# Coordination Sequence:
#
# PCOD9281824 Si02
#       6
#     8   8   8   8   8   8
#     4  10  23  37  67  93 119 170 219 256 318 390
#     4  11  19  41  63  84 132 166 207 263 330 373
#     4  11  21  41  64  93 123 164 220 259 322 381
#     4   9  20  39  62  91 123 169 206 259 325 376
#     4   9  21  39  61  90 126 163 204 274 311 373
#     4  10  21  38  65  85 130 167 198 274 318 372
#
# _framework density 24.562757000000001
#
# number of rings (size 3 to 8) (size 9 to 14) (size 15 to 20)
#    1.000    1.000    3.333    0.500    0.000    2.000 
#    0.000    3.333    0.000    0.000    0.000    0.000 
#    0.000    0.000    0.000    0.000    0.000    0.000 
#
# Total GULP energy -133675.322757 kJ/mol
# GULP energy per Si atom -5569.805115 kJ/mol
# Density = 2.450685 g / cm^3
# Si number density = 24.562757 Si / 1000 Ang^3
#
#
#
# Elastic Constant Matrix: (Units=GPa)
#
#
# Indices 1 2 3 4 5 6 
#
# 1 75.7221 -0.7535 40.1268 0.0000 24.4183 0.0000
# 2 -0.7535 48.1231 1.7741 0.0000 9.3897 0.0000
# 3 40.1268 1.7741 108.3537 0.0000 12.0828 0.0000
# 4 0.0000 0.0000 0.0000 13.5549 0.0000 15.3700
# 5 24.4183 9.3897 12.0828 0.0000 50.1620 0.0000
# 6 0.0000 0.0000 0.0000 15.3700 0.0000 8.9754
#
#
#
# Elastic Compliance Matrix: (Units=1/GPa)
#
#
# Indices 1 2 3 4 5 6 
#
# 1 0.019180 0.002137 -0.006219 0.000000 -0.008238 0.000000
# 2 0.002137 0.021807 -0.000593 0.000000 -0.004979 0.000000
# 3 -0.006219 -0.000593 0.011501 0.000000 0.000368 0.000000
# 4 0.000000 0.000000 0.000000 -0.078336 0.000000 0.134147
# 5 -0.008238 -0.004979 0.000368 0.000000 0.024789 0.000000
# 6 0.000000 0.000000 0.000000 0.134147 0.000000 -0.118305
#
#
# Mechanical properties :
#
#
# Convention : Reuss Voigt Hill
#
# Bulk Modulus (GPa) = 23.18197 34.94374 29.06285
# Shear Modulus (GPa) = -52.28217 27.27522 -12.50348
#
# Velocity S-wave (km/s) = -4.61859 3.33593 -2.25864
# Velocity P-wave (km/s) = 4.35700 5.39398 2.24851
#
# Compressibility (1/GPa) = 0.04313698
#
# Stress axis : x y z
#
# Youngs Moduli (GPa) = 52.13813 45.85694 86.95008
#
# Poissons Ratio (x) = -0.09800 0.54076
# Poissons Ratio (y) = -0.11142 0.05158
# Poissons Ratio (z) = 0.32426 0.02720
#
# Static dielectric constant tensor:
#      x y z
#    x 1.965570 0.000000 0.015780 
#    y 0.000000 2.045450 0.000000 
#    z 0.015780 0.000000 2.009270 
# 
# From -- ./inp_files/181996.got.cif
#   From: 2010.05.17/outbox.cif.g08.bks.cpg/sg15_91_cif.got.tgz:181996.got - 2010.06.03 18:47:42.
