data_PCOD9281158
_publ_section_title
;
Structure prediction by ZEFSAII (Michael W. Deem and Ramdas Pophale) SiO2 
 PCOD9281158
Probable space group: C 2/C
;
_chemical_formula_sum "Si O2"
_cell_formula_units_Z 48
_cell_length_a 25.528048
_cell_length_b 13.988409
_cell_length_c 8.022400
_cell_angle_alpha 90.000000
_cell_angle_beta 138.285266
_cell_angle_gamma 90.000000
_cell_volume 1906.284060
_symmetry_space_group_name_H-M "C 2/C"
_symmetry_group_IT_number 15
_symmetry_cell_setting 'monoclinic'
loop_
_space_group_symop_operation_xyz
x,y,z
-x,y,1/2-z
-x,-y,-z
x,-y,1/2+z
1/2+x,1/2+y,z
1/2-x,1/2+y,1/2-z
1/2-x,1/2-y,-z
1/2+x,1/2-y,1/2+z
loop_
_atom_site_type_symbol
_atom_site_label
_atom_site_fract_x
_atom_site_fract_y
_atom_site_fract_z
Si Si1 0.667675 0.488482 0.358357
Si Si2 0.089821 0.691490 0.004061
Si Si3 0.913799 0.116665 0.127601
Si Si4 0.405946 0.986807 0.784066
Si Si5 0.181462 0.382036 0.228754
Si Si6 0.813216 0.218469 0.504566
O O1 0.591900 0.552675 0.222856
O O2 0.739391 0.561162 0.541524
O O3 0.686145 0.394874 0.514794
O O4 0.649047 0.437558 0.139736
O O5 0.113951 0.773174 0.928807
O O6 0.000000 0.673122 0.750000
O O7 0.119803 0.587220 0.128415
O O8 0.104806 0.751013 0.211914
O O9 0.000000 0.115943 0.250000
O O10 0.367283 0.933087 0.536899
O O11 0.371804 0.092107 0.738113
O O12 0.500000 0.000000 0.000000
O O13 0.196425 0.277559 0.188099
O O14 0.750000 0.250000 0.500000
#
# Coordination Sequence:
#
# PCOD9281158 Si02
#       6
#     8   8   8   8   8   8
#     4  11  21  39  62  86 117 154 195 244 294 353
#     4   9  18  35  58  83 112 154 194 234 294 354
#     4  10  21  38  61  89 117 153 195 240 295 353
#     4  11  22  38  60  88 122 159 201 249 300 360
#     4  11  22  38  60  88 118 159 202 246 302 359
#     4  10  21  38  59  84 118 157 197 243 296 355
#
# _framework density 25.179876
#
# number of rings (size 3 to 8) (size 9 to 14) (size 15 to 20)
#    0.000    1.667    0.000    7.000    0.000    0.000 
#    0.000   13.333    0.000    0.000    0.000    0.000 
#    0.000    0.000    0.000    0.000    0.000    0.000 
#
# Total GULP energy -133907.004849 kJ/mol
# GULP energy per Si atom -5579.458535 kJ/mol
# Density = 2.512257 g / cm^3
# Si number density = 25.179876 Si / 1000 Ang^3
#
#
#
# Elastic Constant Matrix: (Units=GPa)
#
#
# Indices 1 2 3 4 5 6 
#
# 1 53.3680 22.8648 -15.7140 0.0000 17.8026 0.0000
# 2 22.8648 168.3839 -11.6921 0.0000 -6.5611 0.0000
# 3 -15.7140 -11.6921 82.9440 0.0000 15.4785 0.0000
# 4 0.0000 0.0000 0.0000 38.5926 0.0000 -15.1596
# 5 17.8026 -6.5611 15.4785 0.0000 31.1840 0.0000
# 6 0.0000 0.0000 0.0000 -15.1596 0.0000 39.0584
#
#
#
# Elastic Compliance Matrix: (Units=1/GPa)
#
#
# Indices 1 2 3 4 5 6 
#
# 1 0.031478 -0.004523 0.009761 0.000000 -0.023767 0.000000
# 2 -0.004523 0.006672 -0.000728 0.000000 0.004347 0.000000
# 3 0.009761 -0.000728 0.016390 0.000000 -0.013861 0.000000
# 4 0.000000 0.000000 0.000000 0.030573 0.000000 0.011866
# 5 -0.023767 0.004347 -0.013861 0.000000 0.053431 0.000000
# 6 0.000000 0.000000 0.000000 0.011866 0.000000 0.030208
#
#
# Mechanical properties :
#
#
# Convention : Reuss Voigt Hill
#
# Bulk Modulus (GPa) = 15.73274 32.84591 24.28932
# Shear Modulus (GPa) = 27.63712 42.38282 35.00997
#
# Velocity S-wave (km/s) = 3.31658 4.10714 3.73285
# Velocity P-wave (km/s) = 4.57471 5.96358 5.31471
#
# Compressibility (1/GPa) = 0.06356172
#
# Stress axis : x y z
#
# Youngs Moduli (GPa) = 31.76828 149.88465 61.01389
#
# Poissons Ratio (x) = 0.67788 -0.59558
# Poissons Ratio (y) = 0.14368 0.04439
# Poissons Ratio (z) = -0.31010 0.10904
#
# Static dielectric constant tensor:
#      x y z
#    x 2.135230 0.000000 -0.041730 
#    y 0.000000 2.012050 0.000000 
#    z -0.041730 0.000000 2.015570 
# 
# From -- ./inp_files/66467.got.cif
#   From: 2010.05.17/outbox.cif.g08.bks.cpg/sg15_34_cif.got.tgz:66467.got - 2010.06.03 18:47:42.
