data_PCOD9281556
_publ_section_title
;
Structure prediction by ZEFSAII (Michael W. Deem and Ramdas Pophale) SiO2 
 PCOD9281556
Probable space group: C 2/C
;
_chemical_formula_sum "Si O2"
_cell_formula_units_Z 56
_cell_length_a 13.931529
_cell_length_b 13.751024
_cell_length_c 23.706609
_cell_angle_alpha 90.000000
_cell_angle_beta 33.109805
_cell_angle_gamma 90.000000
_cell_volume 2480.795598
_symmetry_space_group_name_H-M "C 2/C"
_symmetry_group_IT_number 15
_symmetry_cell_setting 'monoclinic'
loop_
_space_group_symop_operation_xyz
x,y,z
-x,y,1/2-z
-x,-y,-z
x,-y,1/2+z
1/2+x,1/2+y,z
1/2-x,1/2+y,1/2-z
1/2-x,1/2-y,-z
1/2+x,1/2-y,1/2+z
loop_
_atom_site_type_symbol
_atom_site_label
_atom_site_fract_x
_atom_site_fract_y
_atom_site_fract_z
Si Si1 0.211950 0.141367 0.469191
Si Si2 0.186945 0.343297 0.063734
Si Si3 0.212416 0.471214 0.149253
Si Si4 0.745023 0.014046 0.331191
Si Si5 0.365023 0.499696 0.898004
Si Si6 0.022653 0.310341 0.892124
Si Si7 0.287339 0.138222 0.743719
O O1 0.412601 0.154729 0.391576
O O2 0.117010 0.243597 0.504638
O O3 0.204261 0.064853 0.422071
O O4 0.122563 0.096779 0.570253
O O5 0.257115 0.374821 0.090346
O O6 0.979497 0.334896 0.170931
O O7 0.250000 0.250000 0.000000
O O8 0.246208 0.431900 0.995310
O O9 0.271894 0.445947 0.182768
O O10 0.000000 0.484828 0.250000
O O11 0.769935 0.993317 0.384824
O O12 0.609714 0.099404 0.381806
O O13 0.940223 0.039651 0.211124
O O14 0.695512 0.914520 0.324279
O O15 0.172907 0.234478 0.801014
#
# Coordination Sequence:
#
# PCOD9281556 Si02
#       7
#     8   8   8   8   8   8   8
#     4  10  22  45  66  93 131 172 218 272 333 394
#     4  10  21  38  62  95 127 168 216 261 330 398
#     4   9  20  40  66  90 131 170 207 272 330 384
#     4  11  23  42  66  94 131 174 217 271 331 392
#     4  10  22  43  66  89 135 173 210 273 332 387
#     4  11  23  40  68  97 127 170 220 272 326 390
#     4  11  23  42  65  96 132 168 221 273 329 391
#
# _framework density 22.573402999999999
#
# number of rings (size 3 to 8) (size 9 to 14) (size 15 to 20)
#    0.000    1.714    1.429    3.429    2.000    2.857 
#    0.000   10.000    0.000    0.000    0.000    0.000 
#    0.000    0.000    0.000    0.000    0.000    0.000 
#
# Total GULP energy -156482.769566 kJ/mol
# GULP energy per Si atom -5588.670342 kJ/mol
# Density = 2.252203 g / cm^3
# Si number density = 22.573403 Si / 1000 Ang^3
#
#
#
# Elastic Constant Matrix: (Units=GPa)
#
#
# Indices 1 2 3 4 5 6 
#
# 1 91.0321 17.4157 18.2387 0.0001 1.3680 0.0001
# 2 17.4157 70.4566 19.0914 -0.0007 -5.2132 0.0001
# 3 18.2387 19.0914 65.2953 -0.0015 -4.4438 0.0006
# 4 0.0001 -0.0007 -0.0015 40.4096 0.0000 -18.2552
# 5 1.3680 -5.2132 -4.4438 0.0000 34.9009 -0.0003
# 6 0.0001 0.0001 0.0006 -18.2552 -0.0003 17.8720
#
#
#
# Elastic Compliance Matrix: (Units=1/GPa)
#
#
# Indices 1 2 3 4 5 6 
#
# 1 0.011996 -0.002305 -0.002756 0.000000 -0.001165 0.000000
# 2 -0.002305 0.015963 -0.003889 0.000000 0.001980 0.000000
# 3 -0.002756 -0.003889 0.017340 0.000001 0.001735 0.000000
# 4 0.000000 0.000000 0.000001 0.045950 0.000001 0.046935
# 5 -0.001165 0.001980 0.001735 0.000001 0.029215 0.000001
# 6 0.000000 0.000000 0.000000 0.046935 0.000001 0.103895
#
#
# Mechanical properties :
#
#
# Convention : Reuss Voigt Hill
#
# Bulk Modulus (GPa) = 36.49701 37.36393 36.93047
# Shear Modulus (GPa) = 19.88937 30.10571 24.99754
#
# Velocity S-wave (km/s) = 2.97155 3.65592 3.33136
# Velocity P-wave (km/s) = 5.28930 5.86593 5.58506
#
# Compressibility (1/GPa) = 0.02739951
#
# Stress axis : x y z
#
# Youngs Moduli (GPa) = 83.36275 62.64480 57.66991
#
# Poissons Ratio (x) = 0.14437 0.15895
# Poissons Ratio (y) = 0.19211 0.22427
# Poissons Ratio (z) = 0.22977 0.24362
#
# Static dielectric constant tensor:
#      x y z
#    x 1.838340 0.000000 -0.030660 
#    y 0.000000 1.923530 0.000000 
#    z -0.030660 0.000000 1.896350 
# 
# From -- ./inp_files/296543.got.cif
#   From: 2010.05.17/outbox.cif.g08.bks.cpg/sg15_149_cif.got.tgz:296543.got - 2010.06.03 18:47:42.
