data_PCOD9281697
_publ_section_title
;
Structure prediction by ZEFSAII (Michael W. Deem and Ramdas Pophale) SiO2 
 PCOD9281697
Probable space group: C 2/C
;
_chemical_formula_sum "Si O2"
_cell_formula_units_Z 48
_cell_length_a 22.870345
_cell_length_b 5.161270
_cell_length_c 21.157109
_cell_angle_alpha 90.000000
_cell_angle_beta 124.790849
_cell_angle_gamma 90.000000
_cell_volume 2050.953896
_symmetry_space_group_name_H-M "C 2/C"
_symmetry_group_IT_number 15
_symmetry_cell_setting 'monoclinic'
loop_
_space_group_symop_operation_xyz
x,y,z
-x,y,1/2-z
-x,-y,-z
x,-y,1/2+z
1/2+x,1/2+y,z
1/2-x,1/2+y,1/2-z
1/2-x,1/2-y,-z
1/2+x,1/2-y,1/2+z
loop_
_atom_site_type_symbol
_atom_site_label
_atom_site_fract_x
_atom_site_fract_y
_atom_site_fract_z
Si Si1 0.349679 0.662945 0.182305
Si Si2 0.951631 0.612130 0.057137
Si Si3 0.440163 0.829126 0.767073
Si Si4 0.228508 0.192388 0.700294
Si Si5 0.605341 0.401780 0.037811
Si Si6 0.324523 0.611772 0.536452
O O1 0.393613 0.429687 0.241375
O O2 0.274984 0.694670 0.171355
O O3 0.340139 0.575884 0.104278
O O4 0.393053 0.926853 0.217376
O O5 0.887223 0.676843 0.066481
O O6 0.021469 0.613941 0.142702
O O7 0.935360 0.349421 0.011308
O O8 0.944017 0.847252 0.002596
O O9 0.500000 0.787322 0.750000
O O10 0.236853 0.420437 0.756833
O O11 0.147889 0.139964 0.628451
O O12 0.667809 0.458895 0.024406
O O13 0.250000 0.750000 0.500000
#
# Coordination Sequence:
#
# PCOD9281697 Si02
#       6
#     8   8   8   8   8   8
#     4  12  26  40  68 100 140 178 221 268 339 406
#     4  10  21  38  63  97 135 172 204 265 338 408
#     4  12  22  40  64 101 145 176 208 265 338 427
#     4  12  27  47  69  93 132 180 234 288 329 383
#     4  10  22  41  66  96 127 173 217 277 343 397
#     4  10  23  37  65 101 136 166 211 271 348 407
#
# _framework density 23.403745000000001
#
# number of rings (size 3 to 8) (size 9 to 14) (size 15 to 20)
#    1.000    0.000    1.667    5.500    4.667    1.333 
#    0.000    0.000    0.000   20.000    0.000    0.000 
#    0.000    0.000    0.000    0.000    0.000    0.000 
#
# Total GULP energy -134371.202495 kJ/mol
# GULP energy per Si atom -5598.800104 kJ/mol
# Density = 2.335048 g / cm^3
# Si number density = 23.403745 Si / 1000 Ang^3
#
#
#
# Elastic Constant Matrix: (Units=GPa)
#
#
# Indices 1 2 3 4 5 6 
#
# 1 81.4123 20.5982 11.8503 -0.0013 -7.1665 0.0002
# 2 20.5982 121.8090 4.3441 -0.0067 -5.3211 0.0061
# 3 11.8503 4.3441 81.0809 0.0009 -3.2939 0.0003
# 4 -0.0013 -0.0067 0.0009 55.4984 0.0010 -1.3744
# 5 -7.1665 -5.3211 -3.2939 0.0010 16.6540 0.0001
# 6 0.0002 0.0061 0.0003 -1.3744 0.0001 44.0136
#
#
#
# Elastic Compliance Matrix: (Units=1/GPa)
#
#
# Indices 1 2 3 4 5 6 
#
# 1 0.013457 -0.002006 -0.001664 0.000000 0.004821 0.000000
# 2 -0.002006 0.008634 -0.000093 0.000001 0.001877 -0.000001
# 3 -0.001664 -0.000093 0.012653 0.000000 0.001757 0.000000
# 4 0.000000 0.000001 0.000000 0.018032 -0.000001 0.000563
# 5 0.004821 0.001877 0.001757 -0.000001 0.063067 -0.000001
# 6 0.000000 -0.000001 0.000000 0.000563 -0.000001 0.022738
#
#
# Mechanical properties :
#
#
# Convention : Reuss Voigt Hill
#
# Bulk Modulus (GPa) = 36.73870 39.76527 38.25198
# Shear Modulus (GPa) = 32.22073 39.73384 35.97728
#
# Velocity S-wave (km/s) = 3.71446 4.12485 3.92502
# Velocity P-wave (km/s) = 5.84193 6.30189 6.07626
#
# Compressibility (1/GPa) = 0.02721926
#
# Stress axis : x y z
#
# Youngs Moduli (GPa) = 74.31006 115.82024 79.03355
#
# Poissons Ratio (x) = 0.23230 0.13147
# Poissons Ratio (y) = 0.14904 0.00737
# Poissons Ratio (z) = 0.12361 0.01079
#
# Static dielectric constant tensor:
#      x y z
#    x 1.852270 0.000000 -0.022310 
#    y 0.000000 1.817650 0.000000 
#    z -0.022310 0.000000 1.862150 
# 
# From -- ./inp_files/258340.got.cif
#   From: 2010.05.17/outbox.cif.g08.bks.cpg/sg15_130_cif.got.tgz:258340.got - 2010.06.03 18:47:42.
