data_PCOD9281230
_publ_section_title
;
Structure prediction by ZEFSAII (Michael W. Deem and Ramdas Pophale) SiO2 
 PCOD9281230
Probable space group: C 2/C
;
_chemical_formula_sum "Si O2"
_cell_formula_units_Z 44
_cell_length_a 28.677691
_cell_length_b 8.956001
_cell_length_c 8.152549
_cell_angle_alpha 90.000000
_cell_angle_beta 73.450326
_cell_angle_gamma 90.000000
_cell_volume 2007.136866
_symmetry_space_group_name_H-M "C 2/C"
_symmetry_group_IT_number 15
_symmetry_cell_setting 'monoclinic'
loop_
_space_group_symop_operation_xyz
x,y,z
-x,y,1/2-z
-x,-y,-z
x,-y,1/2+z
1/2+x,1/2+y,z
1/2-x,1/2+y,1/2-z
1/2-x,1/2-y,-z
1/2+x,1/2-y,1/2+z
loop_
_atom_site_type_symbol
_atom_site_label
_atom_site_fract_x
_atom_site_fract_y
_atom_site_fract_z
Si Si1 0.045535 0.612567 0.933747
Si Si2 0.696722 0.297006 0.999440
Si Si3 0.000000 0.861558 0.750000
Si Si4 0.159670 0.903143 0.707778
Si Si5 0.907353 0.890493 0.012778
Si Si6 0.099296 0.642421 0.214534
O O1 0.088009 0.520850 0.797676
O O2 0.027050 0.751403 0.848580
O O3 0.066183 0.658052 0.087978
O O4 0.000000 0.500000 0.000000
O O5 0.687262 0.458472 0.094014
O O6 0.654259 0.187431 0.109700
O O7 0.750000 0.250000 0.000000
O O8 0.691156 0.311111 0.807036
O O9 0.956993 0.947418 0.882689
O O10 0.130235 0.830458 0.587534
O O11 0.119015 0.977900 0.864866
O O12 0.917059 0.758698 0.129816
#
# Coordination Sequence:
#
# PCOD9281230 Si02
#       6
#     8   8   4   8   8   8
#     4  12  21  36  57  91 126 163 200 256 302 384
#     4  10  22  41  68  92 117 166 205 262 318 370
#     4  12  22  34  60  86 122 160 212 232 314 356
#     4   9  21  44  60  85 128 150 209 256 309 365
#     4  10  21  38  60  84 115 170 192 254 298 368
#     4  11  22  38  59  87 129 160 202 251 321 354
#
# _framework density 21.921773000000002
#
# number of rings (size 3 to 8) (size 9 to 14) (size 15 to 20)
#    0.000    1.455    3.636    1.091    0.000    2.182 
#    0.000    8.182    0.000    0.000    0.000    0.000 
#    0.000    0.000    0.000    0.000    0.000    0.000 
#
# Total GULP energy -123076.756191 kJ/mol
# GULP energy per Si atom -5594.398009 kJ/mol
# Density = 2.187188 g / cm^3
# Si number density = 21.921773 Si / 1000 Ang^3
#
#
#
# Elastic Constant Matrix: (Units=GPa)
#
#
# Indices 1 2 3 4 5 6 
#
# 1 155.0567 37.6112 71.3386 0.0000 20.6538 0.0000
# 2 37.6112 41.6049 25.5422 0.0000 13.6713 0.0000
# 3 71.3386 25.5422 120.6162 0.0000 40.5393 0.0000
# 4 0.0000 0.0000 0.0000 30.5141 0.0000 8.2289
# 5 20.6538 13.6713 40.5393 0.0000 46.5410 0.0000
# 6 0.0000 0.0000 0.0000 8.2289 0.0000 29.5756
#
#
#
# Elastic Compliance Matrix: (Units=1/GPa)
#
#
# Indices 1 2 3 4 5 6 
#
# 1 0.010250 -0.006663 -0.005345 0.000000 0.002064 0.000000
# 2 -0.006663 0.032571 -0.001039 0.000000 -0.005706 0.000000
# 3 -0.005345 -0.001039 0.015231 0.000000 -0.010590 0.000000
# 4 0.000000 0.000000 0.000000 0.035430 0.000000 -0.009858
# 5 0.002064 -0.005706 -0.010590 0.000000 0.031471 0.000000
# 6 0.000000 0.000000 0.000000 -0.009858 0.000000 0.036554
#
#
# Mechanical properties :
#
#
# Convention : Reuss Voigt Hill
#
# Bulk Modulus (GPa) = 31.29003 65.14021 48.21512
# Shear Modulus (GPa) = 25.22013 33.51187 29.36600
#
# Velocity S-wave (km/s) = 3.39552 3.91410 3.66400
# Velocity P-wave (km/s) = 5.44768 7.08564 6.31995
#
# Compressibility (1/GPa) = 0.03195906
#
# Stress axis : x y z
#
# Youngs Moduli (GPa) = 97.56566 30.70169 65.65357
#
# Poissons Ratio (x) = 0.20455 0.35092
# Poissons Ratio (y) = 0.65003 0.06822
# Poissons Ratio (z) = 0.52149 0.03190
#
# Static dielectric constant tensor:
#      x y z
#    x 1.796160 0.000000 0.010760 
#    y 0.000000 1.850480 0.000000 
#    z 0.010760 0.000000 1.848040 
# 
# From -- ./inp_files/54441.got.cif
#   From: 2010.05.17/outbox.cif.g08.bks.cpg/sg15_28_cif.got.tgz:54441.got - 2010.06.03 18:47:42.
