data_PCOD9281439
_publ_section_title
;
Structure prediction by ZEFSAII (Michael W. Deem and Ramdas Pophale) SiO2 
 PCOD9281439
Probable space group: C 2/C
;
_chemical_formula_sum "Si O2"
_cell_formula_units_Z 56
_cell_length_a 13.589351
_cell_length_b 7.804258
_cell_length_c 22.477673
_cell_angle_alpha 90.000000
_cell_angle_beta 118.938456
_cell_angle_gamma 90.000000
_cell_volume 2086.215642
_symmetry_space_group_name_H-M "C 2/C"
_symmetry_group_IT_number 15
_symmetry_cell_setting 'monoclinic'
loop_
_space_group_symop_operation_xyz
x,y,z
-x,y,1/2-z
-x,-y,-z
x,-y,1/2+z
1/2+x,1/2+y,z
1/2-x,1/2+y,1/2-z
1/2-x,1/2-y,-z
1/2+x,1/2-y,1/2+z
loop_
_atom_site_type_symbol
_atom_site_label
_atom_site_fract_x
_atom_site_fract_y
_atom_site_fract_z
Si Si1 0.845839 0.278078 0.282257
Si Si2 0.972582 0.099340 0.420641
Si Si3 0.741203 0.960263 0.412748
Si Si4 0.625967 0.858132 0.781374
Si Si5 0.016215 0.728376 0.053854
Si Si6 0.216987 0.420039 0.024667
Si Si7 0.242741 0.894048 0.852308
O O1 0.942248 0.217573 0.356015
O O2 0.865767 0.461769 0.255669
O O3 0.830388 0.132505 0.227282
O O4 0.725198 0.260819 0.282175
O O5 0.035159 0.200382 0.491724
O O6 0.851724 0.044584 0.414518
O O7 0.017521 0.906058 0.421718
O O8 0.649027 0.082369 0.356082
O O9 0.713921 0.774429 0.381160
O O10 0.750023 0.944816 0.485227
O O11 0.500000 0.786622 0.750000
O O12 0.917044 0.595771 0.015127
O O13 0.122778 0.641754 0.116713
O O14 0.250000 0.250000 0.000000
O O15 0.263460 0.452179 0.103262
#
# Coordination Sequence:
#
# PCOD9281439 Si02
#       7
#     8   8   8   8   8   8   8
#     4  10  23  44  70  94 139 177 220 289 340 405
#     4   9  19  41  66  88 129 170 209 270 338 386
#     4   9  20  41  59  90 130 167 211 276 331 387
#     4  10  23  42  67  96 131 182 228 274 350 408
#     4  10  21  38  61  96 118 165 217 252 323 399
#     4  12  23  37  61  94 128 162 215 274 320 393
#     4  10  23  40  64  93 127 171 215 264 345 393
#
# _framework density 26.842863000000001
#
# number of rings (size 3 to 8) (size 9 to 14) (size 15 to 20)
#    0.000    2.000    1.429    1.714    4.000    1.143 
#    5.143    0.714    0.000    0.000    0.000    0.000 
#    0.000    0.000    0.000    0.000    0.000    0.000 
#
# Total GULP energy -156442.701798 kJ/mol
# GULP energy per Si atom -5587.239350 kJ/mol
# Density = 2.678177 g / cm^3
# Si number density = 26.842863 Si / 1000 Ang^3
#
#
#
# Elastic Constant Matrix: (Units=GPa)
#
#
# Indices 1 2 3 4 5 6 
#
# 1 73.9752 7.6735 -2.5665 0.0000 -0.1684 0.0000
# 2 7.6735 83.4671 1.8291 0.0000 -28.1621 0.0000
# 3 -2.5665 1.8291 133.2213 0.0000 -25.8437 0.0000
# 4 0.0000 0.0000 0.0000 22.1297 0.0000 -9.8102
# 5 -0.1684 -28.1621 -25.8437 0.0000 34.3613 0.0000
# 6 0.0000 0.0000 0.0000 -9.8102 0.0000 32.3344
#
#
#
# Elastic Compliance Matrix: (Units=1/GPa)
#
#
# Indices 1 2 3 4 5 6 
#
# 1 0.013692 -0.001697 0.000035 0.000000 -0.001297 0.000000
# 2 -0.001697 0.017725 0.002974 0.000000 0.016756 0.000000
# 3 0.000035 0.002974 0.009295 0.000000 0.009429 0.000000
# 4 0.000000 0.000000 0.000000 0.052210 0.000000 0.015840
# 5 -0.001297 0.016756 0.009429 0.000000 0.049921 0.000000
# 6 0.000000 0.000000 0.000000 0.015840 0.000000 0.035733
#
#
# Mechanical properties :
#
#
# Convention : Reuss Voigt Hill
#
# Bulk Modulus (GPa) = 23.07438 33.83731 28.45584
# Shear Modulus (GPa) = 26.26078 36.68026 31.47052
#
# Velocity S-wave (km/s) = 3.13120 3.70060 3.42774
# Velocity P-wave (km/s) = 4.65696 5.55809 5.12736
#
# Compressibility (1/GPa) = 0.04333811
#
# Stress axis : x y z
#
# Youngs Moduli (GPa) = 73.03328 56.41674 107.58107
#
# Poissons Ratio (x) = 0.09576 -0.00381
# Poissons Ratio (y) = 0.12396 -0.32000
# Poissons Ratio (z) = -0.00259 -0.16781
#
# Static dielectric constant tensor:
#      x y z
#    x 2.234420 0.000000 -0.066110 
#    y 0.000000 2.244070 0.000000 
#    z -0.066110 0.000000 2.235140 
# 
# From -- ./inp_files/273254.got.cif
#   From: 2010.05.17/outbox.cif.g08.bks.cpg/sg15_137_cif.got.tgz:273254.got - 2010.06.03 18:47:42.
