data_PCOD9281799
_publ_section_title
;
Structure prediction by ZEFSAII (Michael W. Deem and Ramdas Pophale) SiO2 
 PCOD9281799
Probable space group: C 2/C
;
_chemical_formula_sum "Si O2"
_cell_formula_units_Z 60
_cell_length_a 11.641005
_cell_length_b 7.426196
_cell_length_c 27.178260
_cell_angle_alpha 90.000000
_cell_angle_beta 102.035463
_cell_angle_gamma 90.000000
_cell_volume 2297.871311
_symmetry_space_group_name_H-M "C 2/C"
_symmetry_group_IT_number 15
_symmetry_cell_setting 'monoclinic'
loop_
_space_group_symop_operation_xyz
x,y,z
-x,y,1/2-z
-x,-y,-z
x,-y,1/2+z
1/2+x,1/2+y,z
1/2-x,1/2+y,1/2-z
1/2-x,1/2-y,-z
1/2+x,1/2-y,1/2+z
loop_
_atom_site_type_symbol
_atom_site_label
_atom_site_fract_x
_atom_site_fract_y
_atom_site_fract_z
Si Si1 0.155078 0.026170 0.239553
Si Si2 0.709118 0.661482 0.849910
Si Si3 0.664582 0.877968 0.461399
Si Si4 0.273508 0.276868 0.627952
Si Si5 0.532268 0.665379 0.643107
Si Si6 0.750000 0.250000 0.500000
Si Si7 0.921351 0.163172 0.423556
Si Si8 0.111807 0.405465 0.278500
O O1 0.188000 0.925290 0.293728
O O2 0.273258 0.022433 0.217828
O O3 0.057959 0.933087 0.197381
O O4 0.121308 0.231424 0.244354
O O5 0.705143 0.481742 0.884361
O O6 0.591879 0.763165 0.858804
O O7 0.830205 0.755693 0.874557
O O8 0.750000 0.750000 0.500000
O O9 0.729584 0.864272 0.415108
O O10 0.536582 0.787734 0.442258
O O11 0.664329 0.075834 0.483264
O O12 0.378958 0.196328 0.669574
O O13 0.149552 0.282106 0.645558
O O14 0.533899 0.523881 0.597819
O O15 0.846733 0.164998 0.467550
O O16 0.000000 0.511178 0.250000
#
# Coordination Sequence:
#
# PCOD9281799 Si02
#       8
#     8   8   8   8   8   4   8   8
#     4  10  21  38  65 102 137 186 237 274 349 437
#     4  11  23  41  69 101 141 185 233 295 353 435
#     4  12  27  50  76 104 144 188 244 312 377 438
#     4  10  22  43  65  98 135 184 230 288 365 425
#     4  11  22  43  67  98 144 185 227 291 360 426
#     4  12  28  50  74 110 138 190 248 308 370 442
#     4  12  27  46  74 105 140 187 249 303 370 444
#     4  10  21  38  64  95 139 183 226 286 351 417
#
# _framework density 26.111122999999999
#
# number of rings (size 3 to 8) (size 9 to 14) (size 15 to 20)
#    0.000    1.067    2.667    4.000    1.867    2.667 
#    0.000    8.667    0.000    0.000    0.000    0.000 
#    0.000    0.000    0.000    0.000    0.000    0.000 
#
# Total GULP energy -167312.003962 kJ/mol
# GULP energy per Si atom -5577.066799 kJ/mol
# Density = 2.605169 g / cm^3
# Si number density = 26.111123 Si / 1000 Ang^3
#
#
#
# Elastic Constant Matrix: (Units=GPa)
#
#
# Indices 1 2 3 4 5 6 
#
# 1 134.2536 4.6566 38.9214 0.0000 26.1803 0.0000
# 2 4.6566 37.5475 -2.4624 0.0000 12.8788 0.0000
# 3 38.9214 -2.4624 69.1234 0.0000 17.7251 0.0000
# 4 0.0000 0.0000 0.0000 26.1031 0.0000 8.2723
# 5 26.1803 12.8788 17.7251 0.0000 41.4275 0.0000
# 6 0.0000 0.0000 0.0000 8.2723 0.0000 24.8447
#
#
#
# Elastic Compliance Matrix: (Units=1/GPa)
#
#
# Indices 1 2 3 4 5 6 
#
# 1 0.009504 -0.000032 -0.004285 0.000000 -0.004163 0.000000
# 2 -0.000032 0.030759 0.003999 0.000000 -0.011253 0.000000
# 3 -0.004285 0.003999 0.018698 0.000000 -0.006535 0.000000
# 4 0.000000 0.000000 0.000000 0.042829 0.000000 -0.014260
# 5 -0.004163 -0.011253 -0.006535 0.000000 0.033064 0.000000
# 6 0.000000 0.000000 0.000000 -0.014260 0.000000 0.044998
#
#
# Mechanical properties :
#
#
# Convention : Reuss Voigt Hill
#
# Bulk Modulus (GPa) = 17.14514 35.90619 26.52566
# Shear Modulus (GPa) = 25.00896 31.79566 28.40231
#
# Velocity S-wave (km/s) = 3.09817 3.49335 3.30168
# Velocity P-wave (km/s) = 4.40213 5.48201 4.97148
#
# Compressibility (1/GPa) = 0.05832558
#
# Stress axis : x y z
#
# Youngs Moduli (GPa) = 105.22234 32.51078 53.48177
#
# Poissons Ratio (x) = 0.00104 0.22917
# Poissons Ratio (y) = 0.00335 -0.21389
# Poissons Ratio (z) = 0.45088 -0.13002
#
# Static dielectric constant tensor:
#      x y z
#    x 2.093130 0.000000 -0.077810 
#    y 0.000000 2.031190 0.000000 
#    z -0.077810 0.000000 2.347740 
# 
# From -- ./inp_files/310349.got.cif
#   From: 2010.05.17/outbox.cif.g08.bks.cpg/sg15_156_cif.got.tgz:310349.got - 2010.06.03 18:47:42.
