data_PCOD9281504
_publ_section_title
;
Structure prediction by ZEFSAII (Michael W. Deem and Ramdas Pophale) SiO2 
 PCOD9281504
Probable space group: C 2/C
;
_chemical_formula_sum "Si O2"
_cell_formula_units_Z 56
_cell_length_a 16.099852
_cell_length_b 19.095196
_cell_length_c 24.752615
_cell_angle_alpha 90.000000
_cell_angle_beta 160.166576
_cell_angle_gamma 90.000000
_cell_volume 2581.867614
_symmetry_space_group_name_H-M "C 2/C"
_symmetry_group_IT_number 15
_symmetry_cell_setting 'monoclinic'
loop_
_space_group_symop_operation_xyz
x,y,z
-x,y,1/2-z
-x,-y,-z
x,-y,1/2+z
1/2+x,1/2+y,z
1/2-x,1/2+y,1/2-z
1/2-x,1/2-y,-z
1/2+x,1/2-y,1/2+z
loop_
_atom_site_type_symbol
_atom_site_label
_atom_site_fract_x
_atom_site_fract_y
_atom_site_fract_z
Si Si1 0.030668 0.328300 0.331208
Si Si2 0.452701 0.606724 0.927234
Si Si3 0.310793 0.980575 0.313117
Si Si4 0.348425 0.897068 0.754930
Si Si5 0.802207 0.294351 0.585933
Si Si6 0.418522 0.313233 0.820763
Si Si7 0.244780 0.087271 0.366076
O O1 0.814799 0.383146 0.210075
O O2 0.000000 0.303793 0.250000
O O3 0.313304 0.350447 0.511886
O O4 0.979542 0.265777 0.342335
O O5 0.414488 0.555510 0.853918
O O6 0.643370 0.578572 0.087423
O O7 0.564378 0.680357 0.973622
O O8 0.516699 0.923011 0.451705
O O9 0.409425 0.041738 0.334077
O O10 0.237644 0.019180 0.323290
O O11 0.571852 0.865467 0.858748
O O12 0.223668 0.832721 0.711839
O O13 0.750000 0.250000 0.500000
O O14 0.000000 0.263137 0.750000
O O15 0.256552 0.346194 0.673903
O O16 0.000000 0.091730 0.250000
#
# Coordination Sequence:
#
# PCOD9281504 Si02
#       7
#     8   8   8   8   8   8   8
#     4  11  21  36  61  93 121 161 195 246 309 365
#     4  11  22  40  61  92 123 158 211 250 304 370
#     4  10  23  39  61  91 118 161 204 246 315 354
#     4  10  21  42  63  88 124 159 205 259 301 366
#     4  10  23  44  64  93 125 170 215 261 311 368
#     4  10  21  38  62  90 125 154 199 247 306 365
#     4  10  21  40  59  87 124 155 197 250 298 366
#
# _framework density 21.689726
#
# number of rings (size 3 to 8) (size 9 to 14) (size 15 to 20)
#    0.000    1.714    1.429    2.571    2.000    1.143 
#   12.857    0.714    0.000    0.000    0.000    0.000 
#    0.000    0.000    0.000    0.000    0.000    0.000 
#
# Total GULP energy -156385.994027 kJ/mol
# GULP energy per Si atom -5585.214072 kJ/mol
# Density = 2.164036 g / cm^3
# Si number density = 21.689726 Si / 1000 Ang^3
#
#
#
# Elastic Constant Matrix: (Units=GPa)
#
#
# Indices 1 2 3 4 5 6 
#
# 1 72.4868 -8.3994 22.8238 0.0035 -10.3288 0.0069
# 2 -8.3994 18.3914 4.5353 0.0229 -8.6101 -0.0149
# 3 22.8238 4.5353 67.0902 -0.0014 -17.4507 -0.0403
# 4 0.0035 0.0229 -0.0014 25.9044 -0.0048 -7.3813
# 5 -10.3288 -8.6101 -17.4507 -0.0048 43.0516 0.0043
# 6 0.0069 -0.0149 -0.0403 -7.3813 0.0043 22.2103
#
#
#
# Elastic Compliance Matrix: (Units=1/GPa)
#
#
# Indices 1 2 3 4 5 6 
#
# 1 0.017473 0.011322 -0.005623 -0.000016 0.004177 -0.000014
# 2 0.011322 0.067393 -0.004690 -0.000055 0.014294 0.000012
# 3 -0.005623 -0.004690 0.018490 0.000017 0.005208 0.000037
# 4 -0.000016 -0.000055 0.000017 0.042642 -0.000005 0.014171
# 5 0.004177 0.014294 0.005208 -0.000005 0.029200 0.000011
# 6 -0.000014 0.000012 0.000037 0.014171 0.000011 0.049734
#
#
# Mechanical properties :
#
#
# Convention : Reuss Voigt Hill
#
# Bulk Modulus (GPa) = 9.48993 21.76531 15.62762
# Shear Modulus (GPa) = 19.37705 27.50049 23.43877
#
# Velocity S-wave (km/s) = 2.99218 3.56463 3.29087
# Velocity P-wave (km/s) = 4.04009 5.19603 4.65409
#
# Compressibility (1/GPa) = 0.10537488
#
# Stress axis : x y z
#
# Youngs Moduli (GPa) = 57.22978 14.83843 54.08348
#
# Poissons Ratio (x) = -0.16801 0.30413
# Poissons Ratio (y) = -0.64798 0.25364
# Poissons Ratio (z) = 0.32182 0.06959
#
# Static dielectric constant tensor:
#      x y z
#    x 1.774430 0.000000 -0.016880 
#    y 0.000000 1.803910 -0.000020 
#    z -0.016880 -0.000020 1.792860 
# 
# From -- ./inp_files/299367.got.cif
#   From: 2010.05.17/outbox.cif.g08.bks.cpg/sg15_150_cif.got.tgz:299367.got - 2010.06.03 18:47:42.
