data_PCOD9281487
_publ_section_title
;
Structure prediction by ZEFSAII (Michael W. Deem and Ramdas Pophale) SiO2 
 PCOD9281487
Probable space group: C 2/C
;
_chemical_formula_sum "Si O2"
_cell_formula_units_Z 48
_cell_length_a 14.371618
_cell_length_b 24.643463
_cell_length_c 5.357843
_cell_angle_alpha 90.000000
_cell_angle_beta 84.484185
_cell_angle_gamma 90.000000
_cell_volume 1888.781861
_symmetry_space_group_name_H-M "C 2/C"
_symmetry_group_IT_number 15
_symmetry_cell_setting 'monoclinic'
loop_
_space_group_symop_operation_xyz
x,y,z
-x,y,1/2-z
-x,-y,-z
x,-y,1/2+z
1/2+x,1/2+y,z
1/2-x,1/2+y,1/2-z
1/2-x,1/2-y,-z
1/2+x,1/2-y,1/2+z
loop_
_atom_site_type_symbol
_atom_site_label
_atom_site_fract_x
_atom_site_fract_y
_atom_site_fract_z
Si Si1 0.500000 0.123788 0.250000
Si Si2 0.706186 0.024036 0.641546
Si Si3 0.981142 0.103174 0.502255
Si Si4 0.689719 0.808733 0.604131
Si Si5 0.769812 0.143261 0.571782
Si Si6 0.944131 0.220260 0.016793
Si Si7 0.500000 0.948335 0.250000
O O1 0.406969 0.159671 0.303286
O O2 0.500804 0.088750 0.502886
O O3 0.722181 0.084890 0.543362
O O4 0.595097 0.017493 0.711339
O O5 0.744911 0.986172 0.410147
O O6 0.879533 0.130343 0.541428
O O7 0.000000 0.070352 0.250000
O O8 0.052557 0.154821 0.468466
O O9 0.000000 0.072567 0.750000
O O10 0.735159 0.837364 0.351066
O O11 0.652808 0.750553 0.510503
O O12 0.744818 0.816080 0.852029
O O13 0.000000 0.231791 0.750000
O O14 0.000000 0.240125 0.250000
#
# Coordination Sequence:
#
# PCOD9281487 Si02
#       7
#     4   8   8   8   8   8   4
#     4  12  20  35  60  86 136 176 212 242 308 379
#     4  12  24  40  61  95 135 169 213 272 318 383
#     4  10  23  47  69  92 127 170 215 274 341 389
#     4  12  22  38  64  94 131 174 215 264 311 385
#     4  12  25  43  68  97 126 174 225 265 330 392
#     4  10  21  38  62  89 126 172 207 263 323 367
#     4  12  22  39  58  92 132 188 204 242 326 399
#
# _framework density 25.413205999999999
#
# number of rings (size 3 to 8) (size 9 to 14) (size 15 to 20)
#    0.000    0.667    4.167    4.500    1.167    0.000 
#    0.000   20.000    0.000    3.000    0.000    0.000 
#    0.000    0.000    0.000    0.000    0.000    0.000 
#
# Total GULP energy -134332.276337 kJ/mol
# GULP energy per Si atom -5597.178181 kJ/mol
# Density = 2.535536 g / cm^3
# Si number density = 25.413206 Si / 1000 Ang^3
#
#
#
# Elastic Constant Matrix: (Units=GPa)
#
#
# Indices 1 2 3 4 5 6 
#
# 1 81.8692 -6.4665 35.1616 0.0000 2.0607 0.0000
# 2 -6.4665 68.7139 26.4296 0.0000 -5.3629 0.0000
# 3 35.1616 26.4296 255.5326 0.0000 -2.8259 0.0000
# 4 0.0000 0.0000 0.0000 90.8495 0.0000 38.1081
# 5 2.0607 -5.3629 -2.8259 0.0000 42.0242 0.0000
# 6 0.0000 0.0000 0.0000 38.1081 0.0000 49.2176
#
#
#
# Elastic Compliance Matrix: (Units=1/GPa)
#
#
# Indices 1 2 3 4 5 6 
#
# 1 0.013260 0.001989 -0.002036 0.000000 -0.000533 0.000000
# 2 0.001989 0.015596 -0.001867 0.000000 0.001767 0.000000
# 3 -0.002036 -0.001867 0.004388 0.000000 0.000157 0.000000
# 4 0.000000 0.000000 0.000000 0.016302 0.000000 -0.012622
# 5 -0.000533 0.001767 0.000157 0.000000 0.024058 0.000000
# 6 0.000000 0.000000 0.000000 -0.012622 0.000000 0.030091
#
#
# Mechanical properties :
#
#
# Convention : Reuss Voigt Hill
#
# Bulk Modulus (GPa) = 33.99473 57.37391 45.68432
# Shear Modulus (GPa) = 42.61525 59.81767 51.21646
#
# Velocity S-wave (km/s) = 4.09943 4.85686 4.49413
# Velocity P-wave (km/s) = 5.98439 7.35375 6.70412
#
# Compressibility (1/GPa) = 0.02941633
#
# Stress axis : x y z
#
# Youngs Moduli (GPa) = 75.41659 64.11704 227.87094
#
# Poissons Ratio (x) = -0.12755 0.46399
# Poissons Ratio (y) = -0.15003 0.42551
# Poissons Ratio (z) = 0.15356 0.11973
#
# Static dielectric constant tensor:
#      x y z
#    x 2.136660 0.000000 0.025360 
#    y 0.000000 1.985260 0.000000 
#    z 0.025360 0.000000 2.036670 
# 
# From -- ./inp_files/8285.got.cif
#   From: 2010.05.17/outbox.cif.g08.bks.cpg/sg15_5_cif.got.tgz:8285.got - 2010.06.03 18:47:42.
