data_PCOD9281594
_publ_section_title
;
Structure prediction by ZEFSAII (Michael W. Deem and Ramdas Pophale) SiO2 
 PCOD9281594
Probable space group: C 2/C
;
_chemical_formula_sum "Si O2"
_cell_formula_units_Z 56
_cell_length_a 7.552906
_cell_length_b 22.153592
_cell_length_c 13.764061
_cell_angle_alpha 90.000000
_cell_angle_beta 112.186790
_cell_angle_gamma 90.000000
_cell_volume 2132.533965
_symmetry_space_group_name_H-M "C 2/C"
_symmetry_group_IT_number 15
_symmetry_cell_setting 'monoclinic'
loop_
_space_group_symop_operation_xyz
x,y,z
-x,y,1/2-z
-x,-y,-z
x,-y,1/2+z
1/2+x,1/2+y,z
1/2-x,1/2+y,1/2-z
1/2-x,1/2-y,-z
1/2+x,1/2-y,1/2+z
loop_
_atom_site_type_symbol
_atom_site_label
_atom_site_fract_x
_atom_site_fract_y
_atom_site_fract_z
Si Si1 0.061960 0.432023 0.860704
Si Si2 0.695932 0.102139 0.588563
Si Si3 0.715094 0.939363 0.411376
Si Si4 0.302333 0.687220 0.898337
Si Si5 0.844662 0.973773 0.640277
Si Si6 0.496780 0.290018 0.855500
Si Si7 0.835546 0.767045 0.121798
O O1 0.170186 0.395589 0.965899
O O2 0.000000 0.399798 0.750000
O O3 0.864717 0.452800 0.869369
O O4 0.176310 0.494346 0.859139
O O5 0.491035 0.083777 0.591208
O O6 0.834969 0.046208 0.635207
O O7 0.765676 0.166414 0.636632
O O8 0.781170 0.882411 0.362337
O O9 0.855397 0.950712 0.531862
O O10 0.108924 0.725798 0.866462
O O11 0.442821 0.724235 0.856912
O O12 0.393610 0.683879 0.026969
O O13 0.000000 0.954445 0.750000
O O14 0.500000 0.320186 0.750000
O O15 0.276166 0.280103 0.835378
O O16 0.750000 0.750000 0.000000
#
# Coordination Sequence:
#
# PCOD9281594 Si02
#       7
#     8   8   8   8   8   8   8
#     4   9  19  34  57  85 115 154 196 239 298 349
#     4   9  18  38  56  77 121 160 188 243 301 344
#     4   9  18  36  59  81 115 160 193 236 296 356
#     4  10  21  38  63  88 116 160 199 243 302 353
#     4   9  19  34  54  82 116 152 197 242 285 353
#     4  10  22  41  61  85 122 156 198 252 299 350
#     4  10  21  39  63  87 118 154 202 247 298 355
#
# _framework density 26.259840000000001
#
# number of rings (size 3 to 8) (size 9 to 14) (size 15 to 20)
#    0.000    2.571    1.429    1.714    0.000    4.000 
#    2.571    7.143    0.000    0.000    0.000    0.000 
#    0.000    0.000    0.000    0.000    0.000    0.000 
#
# Total GULP energy -156659.935982 kJ/mol
# GULP energy per Si atom -5594.997714 kJ/mol
# Density = 2.620007 g / cm^3
# Si number density = 26.259840 Si / 1000 Ang^3
#
#
#
# Elastic Constant Matrix: (Units=GPa)
#
#
# Indices 1 2 3 4 5 6 
#
# 1 84.0418 24.4645 17.8383 0.0000 -13.6262 0.0000
# 2 24.4645 85.8648 13.0400 0.0000 9.9085 0.0000
# 3 17.8383 13.0400 143.6958 0.0000 14.9801 0.0000
# 4 0.0000 0.0000 0.0000 3.6870 0.0000 -3.1251
# 5 -13.6262 9.9085 14.9801 0.0000 31.1299 0.0000
# 6 0.0000 0.0000 0.0000 -3.1251 0.0000 21.8770
#
#
#
# Elastic Compliance Matrix: (Units=1/GPa)
#
#
# Indices 1 2 3 4 5 6 
#
# 1 0.015471 -0.005142 -0.002454 0.000000 0.009590 0.000000
# 2 -0.005142 0.013873 0.000078 0.000000 -0.006704 0.000000
# 3 -0.002454 0.000078 0.007761 0.000000 -0.004833 0.000000
# 4 0.000000 0.000000 0.000000 0.308583 0.000000 0.044080
# 5 0.009590 -0.006704 -0.004833 0.000000 0.040781 0.000000
# 6 0.000000 0.000000 0.000000 0.044080 0.000000 0.052007
#
#
# Mechanical properties :
#
#
# Convention : Reuss Voigt Hill
#
# Bulk Modulus (GPa) = 45.31035 47.14311 46.22673
# Shear Modulus (GPa) = 10.84912 28.55610 19.70261
#
# Velocity S-wave (km/s) = 2.03480 3.30122 2.74212
# Velocity P-wave (km/s) = 4.77626 5.70283 5.25998
#
# Compressibility (1/GPa) = 0.02207001
#
# Stress axis : x y z
#
# Youngs Moduli (GPa) = 64.63578 72.08226 128.85753
#
# Poissons Ratio (x) = 0.37065 0.31617
# Poissons Ratio (y) = 0.33236 -0.01009
# Poissons Ratio (z) = 0.15859 -0.00564
#
# Static dielectric constant tensor:
#      x y z
#    x 2.073560 0.000000 -0.001590 
#    y 0.000000 2.043540 0.000000 
#    z -0.001590 0.000000 2.109930 
# 
# From -- ./inp_files/137968.got.cif
#   From: 2010.05.17/outbox.cif.g08.bks.cpg/sg15_69_cif.got.tgz:137968.got - 2010.06.03 18:47:42.
