data_PCOD9281232
_publ_section_title
;
Structure prediction by ZEFSAII (Michael W. Deem and Ramdas Pophale) SiO2 
 PCOD9281232
Probable space group: C 2/C
;
_chemical_formula_sum "Si O2"
_cell_formula_units_Z 56
_cell_length_a 9.006105
_cell_length_b 16.658026
_cell_length_c 20.830853
_cell_angle_alpha 90.000000
_cell_angle_beta 62.570753
_cell_angle_gamma 90.000000
_cell_volume 2773.800859
_symmetry_space_group_name_H-M "C 2/C"
_symmetry_group_IT_number 15
_symmetry_cell_setting 'monoclinic'
loop_
_space_group_symop_operation_xyz
x,y,z
-x,y,1/2-z
-x,-y,-z
x,-y,1/2+z
1/2+x,1/2+y,z
1/2-x,1/2+y,1/2-z
1/2-x,1/2-y,-z
1/2+x,1/2-y,1/2+z
loop_
_atom_site_type_symbol
_atom_site_label
_atom_site_fract_x
_atom_site_fract_y
_atom_site_fract_z
Si Si1 0.700163 0.466672 0.714944
Si Si2 0.130944 0.171093 0.019973
Si Si3 0.000000 0.225303 0.750000
Si Si4 0.190696 0.478055 0.951955
Si Si5 0.517745 0.566789 0.551066
Si Si6 0.327764 0.320553 0.682163
Si Si7 0.297267 0.394566 0.202335
Si Si8 0.500000 0.205412 0.750000
O O1 0.500000 0.478457 0.750000
O O2 0.768924 0.454360 0.629811
O O3 0.721357 0.395675 0.762456
O O4 0.774763 0.549246 0.727516
O O5 0.249802 0.097399 0.017456
O O6 0.968577 0.167096 0.099757
O O7 0.250000 0.250000 0.000000
O O8 0.046500 0.149479 0.967930
O O9 0.154691 0.279320 0.694573
O O10 0.075468 0.168394 0.790587
O O11 0.301180 0.554341 0.953627
O O12 0.000000 0.500000 0.000000
O O13 0.500000 0.500000 0.500000
O O14 0.393535 0.549031 0.634124
O O15 0.420165 0.259284 0.711479
O O16 0.150058 0.349296 0.195687
#
# Coordination Sequence:
#
# PCOD9281232 Si02
#       8
#     8   8   4   8   8   8   8   4
#     4  12  20  40  68  87 120 164 207 256 308 368
#     4  11  23  40  62  90 128 168 205 256 316 377
#     4  10  24  38  62  90 120 154 208 272 302 366
#     4  11  24  41  63  93 124 163 207 258 317 372
#     4  10  21  38  60  84 123 161 200 249 306 370
#     4  11  22  42  63  90 124 166 213 252 315 371
#     4  11  21  39  62  89 118 158 208 253 308 360
#     4  10  22  36  62  90 120 154 204 262 302 364
#
# _framework density 20.188903
#
# number of rings (size 3 to 8) (size 9 to 14) (size 15 to 20)
#    0.000    1.143    4.286    1.714    0.000    8.571 
#    0.000    1.429    0.000    0.000    0.000    0.000 
#    0.000    0.000    0.000    0.000    0.000    0.000 
#
# Total GULP energy -156163.034181 kJ/mol
# GULP energy per Si atom -5577.251221 kJ/mol
# Density = 2.014295 g / cm^3
# Si number density = 20.188903 Si / 1000 Ang^3
#
#
#
# Elastic Constant Matrix: (Units=GPa)
#
#
# Indices 1 2 3 4 5 6 
#
# 1 105.5547 55.6095 40.7848 0.0000 -18.9118 0.0000
# 2 55.6095 95.3563 19.1386 0.0000 -4.8771 0.0000
# 3 40.7848 19.1386 89.4640 0.0000 -10.5281 0.0000
# 4 0.0000 0.0000 0.0000 33.1825 0.0000 6.6934
# 5 -18.9118 -4.8771 -10.5281 0.0000 28.5406 0.0000
# 6 0.0000 0.0000 0.0000 6.6934 0.0000 51.1650
#
#
#
# Elastic Compliance Matrix: (Units=1/GPa)
#
#
# Indices 1 2 3 4 5 6 
#
# 1 0.017577 -0.008793 -0.005162 0.000000 0.008240 0.000000
# 2 -0.008793 0.015387 0.000356 0.000000 -0.003066 0.000000
# 3 -0.005162 0.000356 0.013652 0.000000 0.001676 0.000000
# 4 0.000000 0.000000 0.000000 0.030953 0.000000 -0.004049
# 5 0.008240 -0.003066 0.001676 0.000000 0.040592 0.000000
# 6 0.000000 0.000000 0.000000 -0.004049 0.000000 0.020074
#
#
# Mechanical properties :
#
#
# Convention : Reuss Voigt Hill
#
# Bulk Modulus (GPa) = 51.49967 57.93786 54.71876
# Shear Modulus (GPa) = 29.08555 34.23377 31.65966
#
# Velocity S-wave (km/s) = 3.79973 4.12232 3.96431
# Velocity P-wave (km/s) = 6.69439 7.17065 6.93661
#
# Compressibility (1/GPa) = 0.01941760
#
# Stress axis : x y z
#
# Youngs Moduli (GPa) = 56.89176 64.99170 73.24863
#
# Poissons Ratio (x) = 0.57147 0.37813
# Poissons Ratio (y) = 0.50025 -0.02609
# Poissons Ratio (z) = 0.29369 -0.02315
#
# Static dielectric constant tensor:
#      x y z
#    x 1.658040 0.000000 -0.019970 
#    y 0.000000 1.772320 0.000000 
#    z -0.019970 0.000000 1.760570 
# 
# From -- ./inp_files/232631.got.cif
#   From: 2010.05.17/outbox.cif.g08.bks.cpg/sg15_117_cif.got.tgz:232631.got - 2010.06.03 18:47:42.
