data_PCOD9281088
_publ_section_title
;
Structure prediction by ZEFSAII (Michael W. Deem and Ramdas Pophale) SiO2 
 PCOD9281088
Probable space group: C 2/C
;
_chemical_formula_sum "Si O2"
_cell_formula_units_Z 64
_cell_length_a 9.532602
_cell_length_b 14.235936
_cell_length_c 29.984332
_cell_angle_alpha 90.000000
_cell_angle_beta 117.255302
_cell_angle_gamma 90.000000
_cell_volume 3617.273110
_symmetry_space_group_name_H-M "C 2/C"
_symmetry_group_IT_number 15
_symmetry_cell_setting 'monoclinic'
loop_
_space_group_symop_operation_xyz
x,y,z
-x,y,1/2-z
-x,-y,-z
x,-y,1/2+z
1/2+x,1/2+y,z
1/2-x,1/2+y,1/2-z
1/2-x,1/2-y,-z
1/2+x,1/2-y,1/2+z
loop_
_atom_site_type_symbol
_atom_site_label
_atom_site_fract_x
_atom_site_fract_y
_atom_site_fract_z
Si Si1 0.490649 0.750333 0.302078
Si Si2 0.803288 0.909890 0.892231
Si Si3 0.378834 0.410390 0.617359
Si Si4 0.160316 0.724226 0.032345
Si Si5 0.847749 0.270188 0.700079
Si Si6 0.769786 0.126421 0.880091
Si Si7 0.079162 0.875227 0.364089
Si Si8 0.190106 0.744005 0.540635
O O1 0.500000 0.751345 0.250000
O O2 0.568652 0.656247 0.334260
O O3 0.310322 0.752858 0.294244
O O4 0.603995 0.831833 0.338402
O O5 0.698994 0.852765 0.841162
O O6 0.806164 0.846678 0.936533
O O7 0.978556 0.909009 0.897376
O O8 0.753395 0.017322 0.890713
O O9 0.233163 0.363084 0.570346
O O10 0.367138 0.517073 0.631374
O O11 0.173141 0.810616 0.069584
O O12 0.250000 0.750000 0.000000
O O13 0.985648 0.706342 0.989569
O O14 0.903330 0.179942 0.679628
O O15 0.000000 0.300463 0.750000
O O16 0.904795 0.131341 0.861058
O O17 0.198880 0.822502 0.414427
O O18 0.250000 0.750000 0.500000
#
# Coordination Sequence:
#
# PCOD9281088 Si02
#       8
#     8   8   8   8   8   8   8   8
#     4  10  21  39  61  83 112 146 185 222 279 343
#     4   9  20  38  59  81 113 146 190 228 275 334
#     4   9  20  38  58  83 110 150 186 231 276 329
#     4  11  21  36  59  80 116 153 191 227 276 331
#     4  10  21  39  61  84 112 145 178 233 284 327
#     4  10  21  38  59  84 110 151 188 230 275 334
#     4  10  21  38  58  83 117 143 188 235 279 324
#     4  11  21  36  55  86 114 151 189 233 274 326
#
# _framework density 17.692886000000001
#
# number of rings (size 3 to 8) (size 9 to 14) (size 15 to 20)
#    0.000    2.000    2.500    0.750    1.750    3.000 
#    2.250    2.500    0.000    0.000    0.000    0.000 
#    0.000    0.000    0.000    0.000    0.000    0.000 
#
# Total GULP energy -178456.394330 kJ/mol
# GULP energy per Si atom -5576.762323 kJ/mol
# Density = 1.765262 g / cm^3
# Si number density = 17.692886 Si / 1000 Ang^3
#
#
#
# Elastic Constant Matrix: (Units=GPa)
#
#
# Indices 1 2 3 4 5 6 
#
# 1 59.3651 5.6068 16.3801 0.0000 9.7464 0.0000
# 2 5.6068 106.7409 0.5692 0.0000 -1.8777 0.0000
# 3 16.3801 0.5692 54.6911 0.0000 0.2539 0.0000
# 4 0.0000 0.0000 0.0000 4.6671 0.0000 -1.2863
# 5 9.7464 -1.8777 0.2539 0.0000 36.6836 0.0000
# 6 0.0000 0.0000 0.0000 -1.2863 0.0000 24.4898
#
#
#
# Elastic Compliance Matrix: (Units=1/GPa)
#
#
# Indices 1 2 3 4 5 6 
#
# 1 0.019387 -0.001078 -0.005771 0.000000 -0.005166 0.000000
# 2 -0.001078 0.009437 0.000221 0.000000 0.000768 0.000000
# 3 -0.005771 0.000221 0.020004 0.000000 0.001406 0.000000
# 4 0.000000 0.000000 0.000000 0.217412 0.000000 0.011420
# 5 -0.005166 0.000768 0.001406 0.000000 0.028662 0.000000
# 6 0.000000 0.000000 0.000000 0.011420 0.000000 0.041433
#
#
# Mechanical properties :
#
#
# Convention : Reuss Voigt Hill
#
# Bulk Modulus (GPa) = 28.11212 29.54547 28.82880
# Shear Modulus (GPa) = 13.83311 26.38416 20.10863
#
# Velocity S-wave (km/s) = 2.79918 3.86583 3.37492
# Velocity P-wave (km/s) = 5.13524 6.05488 5.61392
#
# Compressibility (1/GPa) = 0.03557185
#
# Stress axis : x y z
#
# Youngs Moduli (GPa) = 51.57988 105.96068 49.98945
#
# Poissons Ratio (x) = 0.11427 0.28851
# Poissons Ratio (y) = 0.05563 -0.01106
# Poissons Ratio (z) = 0.29769 -0.02344
#
# Static dielectric constant tensor:
#      x y z
#    x 1.592130 0.000000 -0.028070 
#    y 0.000000 1.601880 0.000000 
#    z -0.028070 0.000000 1.654100 
# 
# From -- ./inp_files/288794.got.cif
#   From: 2010.05.17/outbox.cif.g08.bks.cpg/sg15_145_cif.got.tgz:288794.got - 2010.06.03 18:47:42.
