data_PCOD9281456
_publ_section_title
;
Structure prediction by ZEFSAII (Michael W. Deem and Ramdas Pophale) SiO2 
 PCOD9281456
Probable space group: C 2/C
;
_chemical_formula_sum "Si O2"
_cell_formula_units_Z 56
_cell_length_a 18.943518
_cell_length_b 21.288063
_cell_length_c 15.447544
_cell_angle_alpha 90.000000
_cell_angle_beta 152.626420
_cell_angle_gamma 90.000000
_cell_volume 2864.283985
_symmetry_space_group_name_H-M "C 2/C"
_symmetry_group_IT_number 15
_symmetry_cell_setting 'monoclinic'
loop_
_space_group_symop_operation_xyz
x,y,z
-x,y,1/2-z
-x,-y,-z
x,-y,1/2+z
1/2+x,1/2+y,z
1/2-x,1/2+y,1/2-z
1/2-x,1/2-y,-z
1/2+x,1/2-y,1/2+z
loop_
_atom_site_type_symbol
_atom_site_label
_atom_site_fract_x
_atom_site_fract_y
_atom_site_fract_z
Si Si1 0.500000 0.762918 0.250000
Si Si2 0.154759 0.984509 0.557039
Si Si3 0.716841 0.314828 0.510606
Si Si4 0.262233 0.098391 0.772003
Si Si5 0.969011 0.141936 0.848924
Si Si6 0.054649 0.579438 0.211594
Si Si7 0.500000 0.431993 0.750000
Si Si8 0.237058 0.163615 0.561293
O O1 0.615607 0.805400 0.321329
O O2 0.607348 0.718154 0.426548
O O3 0.314443 0.968408 0.680830
O O4 0.073487 0.918282 0.482501
O O5 0.190098 0.029413 0.676013
O O6 0.037087 0.024028 0.370570
O O7 0.750000 0.250000 0.500000
O O8 0.638662 0.360993 0.353787
O O9 0.594291 0.306744 0.454879
O O10 0.866624 0.351733 0.702009
O O11 0.148211 0.144555 0.700104
O O12 0.281007 0.129716 0.698370
O O13 0.412986 0.085217 0.992008
O O14 0.000000 0.564508 0.250000
O O15 0.350313 0.387696 0.593784
#
# Coordination Sequence:
#
# PCOD9281456 Si02
#       8
#     4   8   8   8   8   8   4   8
#     4   9  18  44  68  84 120 162 193 252 316 370
#     4  10  21  40  60  87 121 160 203 258 308 370
#     4  10  22  40  61  86 121 169 214 244 300 385
#     4  11  22  39  58  95 123 153 210 265 301 366
#     4  10  21  38  62  84 120 161 203 245 313 356
#     4  11  22  39  59  88 126 166 206 250 315 372
#     4   9  18  36  62  86 116 152 203 240 304 370
#     4   9  20  39  63  91 119 152 203 252 306 371
#
# _framework density 19.551134000000001
#
# number of rings (size 3 to 8) (size 9 to 14) (size 15 to 20)
#    0.000    2.000    1.429    2.571    2.000    0.000 
#   10.286   11.429    0.000    0.000    0.000    0.000 
#    0.000    0.000    0.000    0.000    0.000    0.000 
#
# Total GULP energy -156035.487748 kJ/mol
# GULP energy per Si atom -5572.695991 kJ/mol
# Density = 1.950663 g / cm^3
# Si number density = 19.551134 Si / 1000 Ang^3
#
#
#
# Elastic Constant Matrix: (Units=GPa)
#
#
# Indices 1 2 3 4 5 6 
#
# 1 75.8558 26.2782 48.7849 0.0000 7.2963 0.0000
# 2 26.2782 69.9366 34.3549 0.0000 0.4572 0.0000
# 3 48.7849 34.3549 136.5225 0.0000 -11.8161 0.0000
# 4 0.0000 0.0000 0.0000 8.0524 0.0000 -5.4110
# 5 7.2963 0.4572 -11.8161 0.0000 25.0730 0.0000
# 6 0.0000 0.0000 0.0000 -5.4110 0.0000 24.8769
#
#
#
# Elastic Compliance Matrix: (Units=1/GPa)
#
#
# Indices 1 2 3 4 5 6 
#
# 1 0.019844 -0.004033 -0.006849 0.000000 -0.008928 0.000000
# 2 -0.004033 0.017267 -0.002950 0.000000 -0.000531 0.000000
# 3 -0.006849 -0.002950 0.011146 0.000000 0.007300 0.000000
# 4 0.000000 0.000000 0.000000 0.145445 0.000000 0.031636
# 5 -0.008928 -0.000531 0.007300 0.000000 0.045931 0.000000
# 6 0.000000 0.000000 0.000000 0.031636 0.000000 0.047079
#
#
# Mechanical properties :
#
#
# Convention : Reuss Voigt Hill
#
# Bulk Modulus (GPa) = 48.56083 55.68344 52.12214
# Shear Modulus (GPa) = 15.56472 23.12694 19.34583
#
# Velocity S-wave (km/s) = 2.82459 3.44306 3.14904
# Velocity P-wave (km/s) = 5.96067 6.65950 6.31975
#
# Compressibility (1/GPa) = 0.02059273
#
# Stress axis : x y z
#
# Youngs Moduli (GPa) = 50.39424 57.91507 89.71706
#
# Poissons Ratio (x) = 0.23360 0.61444
# Poissons Ratio (y) = 0.20326 0.26464
# Poissons Ratio (z) = 0.34513 0.17083
#
# Static dielectric constant tensor:
#      x y z
#    x 1.704920 0.000000 0.028670 
#    y 0.000000 1.712360 0.000000 
#    z 0.028670 0.000000 1.720670 
# 
# From -- ./inp_files/163854.got.cif
#   From: 2010.05.17/outbox.cif.g08.bks.cpg/sg15_82_cif.got.tgz:163854.got - 2010.06.03 18:47:42.
