data_PCOD9281917
_publ_section_title
;
Structure prediction by ZEFSAII (Michael W. Deem and Ramdas Pophale) SiO2 
 PCOD9281917
Probable space group: C 2/C
;
_chemical_formula_sum "Si O2"
_cell_formula_units_Z 48
_cell_length_a 11.753648
_cell_length_b 11.977631
_cell_length_c 23.281108
_cell_angle_alpha 90.000000
_cell_angle_beta 32.273243
_cell_angle_gamma 90.000000
_cell_volume 1750.064244
_symmetry_space_group_name_H-M "C 2/C"
_symmetry_group_IT_number 15
_symmetry_cell_setting 'monoclinic'
loop_
_space_group_symop_operation_xyz
x,y,z
-x,y,1/2-z
-x,-y,-z
x,-y,1/2+z
1/2+x,1/2+y,z
1/2-x,1/2+y,1/2-z
1/2-x,1/2-y,-z
1/2+x,1/2-y,1/2+z
loop_
_atom_site_type_symbol
_atom_site_label
_atom_site_fract_x
_atom_site_fract_y
_atom_site_fract_z
Si Si1 0.863545 0.849947 0.233570
Si Si2 0.571205 0.746890 0.974720
Si Si3 0.614276 0.437070 0.028488
Si Si4 0.037839 0.589113 0.671988
Si Si5 0.816636 0.141715 0.172273
Si Si6 0.225513 0.931383 0.678019
O O1 0.071708 0.894895 0.111291
O O2 0.886880 0.723739 0.244664
O O3 0.678117 0.863104 0.263309
O O4 0.783557 0.935065 0.316132
O O5 0.426855 0.667304 0.995740
O O6 0.801121 0.687995 0.881259
O O7 0.600665 0.866098 0.932780
O O8 0.482940 0.734566 0.076833
O O9 0.429129 0.531688 0.097092
O O10 0.834351 0.502259 0.923057
O O11 0.000000 0.530323 0.750000
O O12 0.787542 0.104925 0.250166
O O13 0.000000 0.895663 0.750000
#
# Coordination Sequence:
#
# PCOD9281917 Si02
#       6
#     8   8   8   8   8   8
#     4  11  23  40  64  96 136 173 218 267 342 393
#     4  11  21  40  68  98 125 169 234 273 324 383
#     4  10  22  38  65  99 131 163 227 278 317 389
#     4  11  20  35  67  98 128 170 223 276 322 385
#     4  10  21  38  66  90 127 175 213 275 322 384
#     4  11  24  41  65  93 133 175 221 278 323 392
#
# _framework density 27.427564
#
# number of rings (size 3 to 8) (size 9 to 14) (size 15 to 20)
#    0.000    1.333    3.333    3.500    2.333    8.000 
#    0.000    0.833   14.667    0.000    0.000    1.167 
#    0.000    0.000    0.000    0.000    0.000    0.000 
#
# Total GULP energy -134079.545297 kJ/mol
# GULP energy per Si atom -5586.647721 kJ/mol
# Density = 2.736514 g / cm^3
# Si number density = 27.427564 Si / 1000 Ang^3
#
#
#
# Elastic Constant Matrix: (Units=GPa)
#
#
# Indices 1 2 3 4 5 6 
#
# 1 81.1524 6.1586 21.2445 0.0002 -2.6094 -0.0001
# 2 6.1586 141.9193 25.9672 0.0005 8.5369 -0.0003
# 3 21.2445 25.9672 112.0750 -0.0001 16.3795 -0.0001
# 4 0.0002 0.0005 -0.0001 31.8223 -0.0003 25.2867
# 5 -2.6094 8.5369 16.3795 -0.0003 29.5682 0.0002
# 6 -0.0001 -0.0003 -0.0001 25.2867 0.0002 6.7072
#
#
#
# Elastic Compliance Matrix: (Units=1/GPa)
#
#
# Indices 1 2 3 4 5 6 
#
# 1 0.013178 -0.000218 -0.002858 0.000000 0.002809 0.000000
# 2 -0.000218 0.007407 -0.001479 0.000000 -0.001338 0.000000
# 3 -0.002858 -0.001479 0.010643 0.000000 -0.005721 0.000000
# 4 0.000000 0.000000 0.000000 -0.015745 -0.000001 0.059361
# 5 0.002809 -0.001338 -0.005721 -0.000001 0.037624 0.000001
# 6 0.000000 0.000000 0.000000 0.059361 0.000001 -0.074703
#
#
# Mechanical properties :
#
#
# Convention : Reuss Voigt Hill
#
# Bulk Modulus (GPa) = 45.21318 49.09860 47.15589
# Shear Modulus (GPa) = -977.55080 32.40462 -472.57309
#
# Velocity S-wave (km/s) = -18.89935 3.44097 -13.14050
# Velocity P-wave (km/s) = 21.44125 5.80750 14.59452
#
# Compressibility (1/GPa) = 0.02211744
#
# Stress axis : x y z
#
# Youngs Moduli (GPa) = 75.88687 135.00975 93.95692
#
# Poissons Ratio (x) = 0.02942 0.26852
# Poissons Ratio (y) = 0.01653 0.13899
# Poissons Ratio (z) = 0.21688 0.19971
#
# Static dielectric constant tensor:
#      x y z
#    x 2.175990 0.000000 0.029650 
#    y 0.000000 2.261370 0.000000 
#    z 0.029650 0.000000 2.229460 
# 
# From -- ./inp_files/296033.got.cif
#   From: 2010.05.17/outbox.cif.g08.bks.cpg/sg15_149_cif.got.tgz:296033.got - 2010.06.03 18:47:42.
