data_PCOD9281101
_publ_section_title
;
Structure prediction by ZEFSAII (Michael W. Deem and Ramdas Pophale) SiO2 
 PCOD9281101
Probable space group: C 2/C
;
_chemical_formula_sum "Si O2"
_cell_formula_units_Z 48
_cell_length_a 13.642156
_cell_length_b 29.545312
_cell_length_c 8.802695
_cell_angle_alpha 90.000000
_cell_angle_beta 134.461615
_cell_angle_gamma 90.000000
_cell_volume 2532.299258
_symmetry_space_group_name_H-M "C 2/C"
_symmetry_group_IT_number 15
_symmetry_cell_setting 'monoclinic'
loop_
_space_group_symop_operation_xyz
x,y,z
-x,y,1/2-z
-x,-y,-z
x,-y,1/2+z
1/2+x,1/2+y,z
1/2-x,1/2+y,1/2-z
1/2-x,1/2-y,-z
1/2+x,1/2-y,1/2+z
loop_
_atom_site_type_symbol
_atom_site_label
_atom_site_fract_x
_atom_site_fract_y
_atom_site_fract_z
Si Si1 0.885931 0.263774 0.238091
Si Si2 0.474097 0.450630 0.903150
Si Si3 0.198330 0.118588 0.772254
Si Si4 0.017251 0.190368 0.948415
Si Si5 0.766542 0.885970 0.825889
Si Si6 0.465854 0.868332 0.378709
O O1 0.915757 0.316696 0.293906
O O2 0.000000 0.244325 0.250000
O O3 0.923014 0.237844 0.431991
O O4 0.750000 0.250000 0.000000
O O5 0.500000 0.450849 0.750000
O O6 0.328611 0.429538 0.804404
O O7 0.500000 0.500000 0.000000
O O8 0.587731 0.417533 0.097392
O O9 0.127916 0.167774 0.658310
O O10 0.340534 0.111627 0.838802
O O11 0.214782 0.112174 0.971405
O O12 0.000000 0.191707 0.750000
O O13 0.135453 0.154848 0.122465
O O14 0.609712 0.873318 0.621770
O O15 0.500000 0.888526 0.250000
#
# Coordination Sequence:
#
# PCOD9281101 Si02
#       6
#     8   8   8   8   8   8
#     4  11  22  35  52  78 113 154 199 245 288 339
#     4  11  22  40  66  92 116 147 186 232 283 348
#     4  10  21  38  59  83 114 151 191 237 290 347
#     4   9  19  35  55  78 108 149 197 241 284 336
#     4  10  21  38  58  85 116 150 191 239 289 345
#     4  11  22  36  54  82 117 155 194 238 292 343
#
# _framework density 18.955105
#
# number of rings (size 3 to 8) (size 9 to 14) (size 15 to 20)
#    0.000    1.667    0.000    7.000    0.000    5.333 
#    0.000    5.000    0.000    0.000    0.000    0.000 
#    0.000    0.000    0.000    0.000    0.000    0.000 
#
# Total GULP energy -133727.276865 kJ/mol
# GULP energy per Si atom -5571.969869 kJ/mol
# Density = 1.891196 g / cm^3
# Si number density = 18.955105 Si / 1000 Ang^3
#
#
#
# Elastic Constant Matrix: (Units=GPa)
#
#
# Indices 1 2 3 4 5 6 
#
# 1 117.2802 11.8315 42.9511 0.0000 23.2746 0.0000
# 2 11.8315 43.2414 20.8221 0.0000 1.3876 0.0000
# 3 42.9511 20.8221 130.3229 0.0000 18.7890 0.0000
# 4 0.0000 0.0000 0.0000 25.7556 0.0000 -4.6199
# 5 23.2746 1.3876 18.7890 0.0000 40.3816 0.0000
# 6 0.0000 0.0000 0.0000 -4.6199 0.0000 16.2074
#
#
#
# Elastic Compliance Matrix: (Units=1/GPa)
#
#
# Indices 1 2 3 4 5 6 
#
# 1 0.010575 -0.001513 -0.002543 0.000000 -0.004860 0.000000
# 2 -0.001513 0.025314 -0.003801 0.000000 0.001771 0.000000
# 3 -0.002543 -0.003801 0.009528 0.000000 -0.002837 0.000000
# 4 0.000000 0.000000 0.000000 0.040919 0.000000 0.011664
# 5 -0.004860 0.001771 -0.002837 0.000000 0.028824 0.000000
# 6 0.000000 0.000000 0.000000 0.011664 0.000000 0.065025
#
#
# Mechanical properties :
#
#
# Convention : Reuss Voigt Hill
#
# Bulk Modulus (GPa) = 33.66759 49.11710 41.39235
# Shear Modulus (GPa) = 24.29561 30.81823 27.55692
#
# Velocity S-wave (km/s) = 3.58403 4.03656 3.81701
# Velocity P-wave (km/s) = 5.90994 6.90606 6.42733
#
# Compressibility (1/GPa) = 0.02970215
#
# Stress axis : x y z
#
# Youngs Moduli (GPa) = 94.56326 39.50459 104.95824
#
# Poissons Ratio (x) = 0.05977 0.26689
# Poissons Ratio (y) = 0.14308 0.39895
# Poissons Ratio (z) = 0.24046 0.15016
#
# Static dielectric constant tensor:
#      x y z
#    x 1.741430 0.000000 0.003630 
#    y 0.000000 1.669220 0.000000 
#    z 0.003630 0.000000 1.638610 
# 
# From -- ./inp_files/43962.got.cif
#   From: 2010.05.17/outbox.cif.g08.bks.cpg/sg15_22_cif.got.tgz:43962.got - 2010.06.03 18:47:42.
