data_PCOD9281923
_publ_section_title
;
Structure prediction by ZEFSAII (Michael W. Deem and Ramdas Pophale) SiO2 
 PCOD9281923
Probable space group: C 2/C
;
_chemical_formula_sum "Si O2"
_cell_formula_units_Z 56
_cell_length_a 14.649254
_cell_length_b 27.896083
_cell_length_c 8.079052
_cell_angle_alpha 90.000000
_cell_angle_beta 134.013926
_cell_angle_gamma 90.000000
_cell_volume 2374.385705
_symmetry_space_group_name_H-M "C 2/C"
_symmetry_group_IT_number 15
_symmetry_cell_setting 'monoclinic'
loop_
_space_group_symop_operation_xyz
x,y,z
-x,y,1/2-z
-x,-y,-z
x,-y,1/2+z
1/2+x,1/2+y,z
1/2-x,1/2+y,1/2-z
1/2-x,1/2-y,-z
1/2+x,1/2-y,1/2+z
loop_
_atom_site_type_symbol
_atom_site_label
_atom_site_fract_x
_atom_site_fract_y
_atom_site_fract_z
Si Si1 0.428364 0.116686 0.839820
Si Si2 0.612078 0.373440 0.271724
Si Si3 0.346134 0.066210 0.199867
Si Si4 0.360172 0.779458 0.401545
Si Si5 0.848331 0.070362 0.971798
Si Si6 0.390303 0.263474 0.295466
Si Si7 0.225068 0.015244 0.347191
O O1 0.500000 0.120079 0.750000
O O2 0.390619 0.168591 0.866872
O O3 0.296410 0.087728 0.669188
O O4 0.519691 0.089797 0.087330
O O5 0.500000 0.391326 0.250000
O O6 0.746683 0.396732 0.492451
O O7 0.588077 0.387098 0.049715
O O8 0.618910 0.316499 0.291468
O O9 0.290678 0.051505 0.306952
O O10 0.330842 0.015756 0.082290
O O11 0.468124 0.745311 0.465724
O O12 0.370897 0.773808 0.617821
O O13 0.216987 0.761044 0.200291
O O14 0.843008 0.026465 0.838607
O O15 0.879113 0.044829 0.181750
#
# Coordination Sequence:
#
# PCOD9281923 Si02
#       7
#     8   8   8   8   8   8   8
#     4  12  24  38  63  96 136 169 204 262 332 398
#     4  11  22  41  66  95 119 170 225 273 320 384
#     4  10  23  37  64  93 131 166 213 261 323 386
#     4  10  22  37  62  96 126 164 211 278 323 384
#     4  10  21  39  61  92 133 162 215 256 322 382
#     4  10  21  38  66  91 123 161 223 273 327 384
#     4   9  20  40  60  94 130 168 208 263 318 389
#
# _framework density 23.585048
#
# number of rings (size 3 to 8) (size 9 to 14) (size 15 to 20)
#    0.000    1.714    4.286    0.000    6.000    5.714 
#    0.000   12.857    3.143    0.000    0.000    0.000 
#    0.000    0.000    0.000    0.000    0.000    0.000 
#
# Total GULP energy -156283.535917 kJ/mol
# GULP energy per Si atom -5581.554854 kJ/mol
# Density = 2.353137 g / cm^3
# Si number density = 23.585048 Si / 1000 Ang^3
#
#
#
# Elastic Constant Matrix: (Units=GPa)
#
#
# Indices 1 2 3 4 5 6 
#
# 1 137.5299 32.3733 38.6906 0.0000 8.5708 0.0000
# 2 32.3733 104.7182 28.4139 0.0000 -1.9724 0.0000
# 3 38.6906 28.4139 53.1670 0.0000 2.8240 0.0000
# 4 0.0000 0.0000 0.0000 12.3458 0.0000 -6.9287
# 5 8.5708 -1.9724 2.8240 0.0000 45.7471 0.0000
# 6 0.0000 0.0000 0.0000 -6.9287 0.0000 46.9859
#
#
#
# Elastic Compliance Matrix: (Units=1/GPa)
#
#
# Indices 1 2 3 4 5 6 
#
# 1 0.009365 -0.001279 -0.006055 0.000000 -0.001436 0.000000
# 2 -0.001279 0.011377 -0.005205 0.000000 0.001051 0.000000
# 3 -0.006055 -0.005205 0.026034 0.000000 -0.000697 0.000000
# 4 0.000000 0.000000 0.000000 0.088308 0.000000 0.013022
# 5 -0.001436 0.001051 -0.000697 0.000000 0.022217 0.000000
# 6 0.000000 0.000000 0.000000 0.013022 0.000000 0.023203
#
#
# Mechanical properties :
#
#
# Convention : Reuss Voigt Hill
#
# Bulk Modulus (GPa) = 46.08951 54.93008 50.50979
# Shear Modulus (GPa) = 23.49451 34.07824 28.78637
#
# Velocity S-wave (km/s) = 3.15963 3.80532 3.49741
# Velocity P-wave (km/s) = 5.73544 6.53055 6.14586
#
# Compressibility (1/GPa) = 0.02169691
#
# Stress axis : x y z
#
# Youngs Moduli (GPa) = 106.77732 87.89611 38.41123
#
# Poissons Ratio (x) = 0.11244 0.23259
# Poissons Ratio (y) = 0.13659 0.19994
# Poissons Ratio (z) = 0.64657 0.45751
#
# Static dielectric constant tensor:
#      x y z
#    x 1.989290 0.000000 0.030840 
#    y 0.000000 1.871940 0.000000 
#    z 0.030840 0.000000 2.075580 
# 
# From -- ./inp_files/44600.got.cif
#   From: 2010.05.17/outbox.cif.g08.bks.cpg/sg15_23_cif.got.tgz:44600.got - 2010.06.03 18:47:42.
