data_PCOD9281948
_publ_section_title
;
Structure prediction by ZEFSAII (Michael W. Deem and Ramdas Pophale) SiO2 
 PCOD9281948
Probable space group: C 2/C
;
_chemical_formula_sum "Si O2"
_cell_formula_units_Z 52
_cell_length_a 16.538198
_cell_length_b 9.357372
_cell_length_c 13.775844
_cell_angle_alpha 90.000000
_cell_angle_beta 112.105989
_cell_angle_gamma 90.000000
_cell_volume 1975.152834
_symmetry_space_group_name_H-M "C 2/C"
_symmetry_group_IT_number 15
_symmetry_cell_setting 'monoclinic'
loop_
_space_group_symop_operation_xyz
x,y,z
-x,y,1/2-z
-x,-y,-z
x,-y,1/2+z
1/2+x,1/2+y,z
1/2-x,1/2+y,1/2-z
1/2-x,1/2-y,-z
1/2+x,1/2-y,1/2+z
loop_
_atom_site_type_symbol
_atom_site_label
_atom_site_fract_x
_atom_site_fract_y
_atom_site_fract_z
Si Si1 0.040562 0.810174 0.623122
Si Si2 0.134819 0.306268 0.432239
Si Si3 0.953976 0.896695 0.082185
Si Si4 0.500000 0.822339 0.750000
Si Si5 0.726975 0.505709 0.484720
Si Si6 0.855563 0.360366 0.831439
Si Si7 0.224176 0.650413 0.684054
O O1 0.010779 0.819178 0.496595
O O2 0.136499 0.742413 0.667956
O O3 0.965251 0.715536 0.638566
O O4 0.018654 0.974624 0.642970
O O5 0.190445 0.438776 0.417371
O O6 0.185075 0.158595 0.427338
O O7 0.136634 0.343300 0.548720
O O8 0.939893 0.785486 0.160879
O O9 0.859717 0.950375 0.003559
O O10 0.442179 0.892666 0.807833
O O11 0.758311 0.387132 0.421796
O O12 0.791788 0.492078 0.785101
O O13 0.807653 0.221789 0.769173
#
# Coordination Sequence:
#
# PCOD9281948 Si02
#       7
#     8   8   8   4   8   8   8
#     4  10  22  40  65  98 125 176 215 268 320 396
#     4   9  19  40  63  90 131 169 213 259 330 381
#     4  10  21  38  66  94 130 167 223 263 323 388
#     4  12  22  44  62  96 128 178 212 280 322 394
#     4   9  19  37  61  93 121 168 211 261 315 385
#     4  11  25  43  65  94 135 175 211 279 328 392
#     4  11  25  43  65  98 134 171 223 267 336 384
#
# _framework density 26.327076999999999
#
# number of rings (size 3 to 8) (size 9 to 14) (size 15 to 20)
#    0.000    1.846    3.077    0.000    2.154    3.077 
#    2.769    6.923    0.000    0.000    0.000    0.000 
#    0.000    0.000    0.000    0.000    0.000    0.000 
#
# Total GULP energy -145186.230330 kJ/mol
# GULP energy per Si atom -5584.085782 kJ/mol
# Density = 2.626716 g / cm^3
# Si number density = 26.327077 Si / 1000 Ang^3
#
#
#
# Elastic Constant Matrix: (Units=GPa)
#
#
# Indices 1 2 3 4 5 6 
#
# 1 154.0787 29.8496 13.2626 0.0000 -4.6749 0.0000
# 2 29.8496 61.0189 24.5342 0.0000 1.0257 0.0000
# 3 13.2626 24.5342 85.4689 0.0000 -15.3250 0.0000
# 4 0.0000 0.0000 0.0000 18.2699 0.0000 7.9154
# 5 -4.6749 1.0257 -15.3250 0.0000 27.5577 0.0000
# 6 0.0000 0.0000 0.0000 7.9154 0.0000 30.9782
#
#
#
# Elastic Compliance Matrix: (Units=1/GPa)
#
#
# Indices 1 2 3 4 5 6 
#
# 1 0.007222 -0.003632 0.000184 0.000000 0.001463 0.000000
# 2 -0.003632 0.020769 -0.006273 0.000000 -0.004877 0.000000
# 3 0.000184 -0.006273 0.015017 0.000000 0.008616 0.000000
# 4 0.000000 0.000000 0.000000 0.061548 0.000000 -0.015726
# 5 0.001463 -0.004877 0.008616 0.000000 0.041508 0.000000
# 6 0.000000 0.000000 0.000000 -0.015726 0.000000 0.036299
#
#
# Mechanical properties :
#
#
# Convention : Reuss Voigt Hill
#
# Bulk Modulus (GPa) = 42.43123 48.42881 45.43002
# Shear Modulus (GPa) = 23.84802 30.88916 27.36859
#
# Velocity S-wave (km/s) = 3.01298 3.42904 3.22772
# Velocity P-wave (km/s) = 5.31564 5.84061 5.58430
#
# Compressibility (1/GPa) = 0.02356754
#
# Stress axis : x y z
#
# Youngs Moduli (GPa) = 138.46039 48.14854 66.59076
#
# Poissons Ratio (x) = 0.17486 -0.01225
# Poissons Ratio (y) = 0.50284 0.41771
# Poissons Ratio (z) = -0.02548 0.30203
#
# Static dielectric constant tensor:
#      x y z
#    x 2.099760 0.000000 -0.001470 
#    y 0.000000 2.108210 0.000000 
#    z -0.001470 0.000000 2.036340 
# 
# From -- ./inp_files/209240.got.cif
#   From: 2010.05.17/outbox.cif.g08.bks.cpg/sg15_105_cif.got.tgz:209240.got - 2010.06.03 18:47:42.
