data_PCOD9281805
_publ_section_title
;
Structure prediction by ZEFSAII (Michael W. Deem and Ramdas Pophale) SiO2 
 PCOD9281805
Probable space group: C 2/C
;
_chemical_formula_sum "Si O2"
_cell_formula_units_Z 64
_cell_length_a 9.564484
_cell_length_b 16.892091
_cell_length_c 29.992543
_cell_angle_alpha 90.000000
_cell_angle_beta 144.071847
_cell_angle_gamma 90.000000
_cell_volume 2843.324180
_symmetry_space_group_name_H-M "C 2/C"
_symmetry_group_IT_number 15
_symmetry_cell_setting 'monoclinic'
loop_
_space_group_symop_operation_xyz
x,y,z
-x,y,1/2-z
-x,-y,-z
x,-y,1/2+z
1/2+x,1/2+y,z
1/2-x,1/2+y,1/2-z
1/2-x,1/2-y,-z
1/2+x,1/2-y,1/2+z
loop_
_atom_site_type_symbol
_atom_site_label
_atom_site_fract_x
_atom_site_fract_y
_atom_site_fract_z
Si Si1 0.086498 0.609052 0.037945
Si Si2 0.404601 0.559770 0.038006
Si Si3 0.724423 0.576645 0.597863
Si Si4 0.158976 0.988680 0.344230
Si Si5 0.120114 0.660190 0.329490
Si Si6 0.959661 0.758721 0.418310
Si Si7 0.113129 0.175226 0.870304
Si Si8 0.671795 0.972639 0.710976
O O1 0.240918 0.597103 0.033494
O O2 0.120402 0.525718 0.071770
O O3 0.150338 0.677378 0.090937
O O4 0.833453 0.639203 0.954999
O O5 0.515108 0.471131 0.070061
O O6 0.635556 0.614739 0.100030
O O7 0.292948 0.560335 0.959674
O O8 0.664035 0.668602 0.587754
O O9 0.976795 0.537025 0.677566
O O10 0.062754 0.900295 0.326982
O O11 0.243268 0.001548 0.315819
O O12 0.925093 0.035899 0.301020
O O13 0.167004 0.750732 0.353032
O O14 0.000000 0.650693 0.250000
O O15 0.949467 0.612854 0.319465
O O16 0.250000 0.750000 0.500000
O O17 0.933877 0.787672 0.360430
#
# Coordination Sequence:
#
# PCOD9281805 Si02
#       8
#     8   8   8   8   8   8   8   8
#     4  11  22  39  65  97 134 171 225 282 343 404
#     4  10  21  38  64  97 125 175 220 271 335 409
#     4  10  21  40  65  94 132 170 226 278 341 406
#     4  11  23  42  68  96 133 176 230 281 345 411
#     4  11  24  43  66  91 139 179 219 273 351 411
#     4  10  22  39  62  95 134 170 217 288 344 403
#     4  11  24  40  65  96 129 176 225 283 343 405
#     4  10  24  44  66  95 132 180 221 279 342 423
#
# _framework density 22.508866000000001
#
# number of rings (size 3 to 8) (size 9 to 14) (size 15 to 20)
#    0.000    1.500    0.000    4.875    1.750   10.000 
#    2.250    0.000    0.000    0.000    0.000    0.000 
#    0.000    0.000    0.000    0.000    0.000    0.000 
#
# Total GULP energy -178381.265401 kJ/mol
# GULP energy per Si atom -5574.414544 kJ/mol
# Density = 2.245764 g / cm^3
# Si number density = 22.508866 Si / 1000 Ang^3
#
#
#
# Elastic Constant Matrix: (Units=GPa)
#
#
# Indices 1 2 3 4 5 6 
#
# 1 105.4372 43.3837 12.0093 -0.0002 0.2098 0.0000
# 2 43.3837 144.8504 16.0702 0.0000 14.9164 0.0000
# 3 12.0093 16.0702 62.3416 0.0001 8.6831 0.0001
# 4 -0.0002 0.0000 0.0001 14.7756 -0.0002 -8.8254
# 5 0.2098 14.9164 8.6831 -0.0002 29.0900 0.0000
# 6 0.0000 0.0000 0.0001 -8.8254 0.0000 43.2575
#
#
#
# Elastic Compliance Matrix: (Units=1/GPa)
#
#
# Indices 1 2 3 4 5 6 
#
# 1 0.011035 -0.003349 -0.001555 0.000000 0.002102 0.000000
# 2 -0.003349 0.008427 -0.000969 0.000000 -0.004008 0.000000
# 3 -0.001555 -0.000969 0.017236 0.000000 -0.004637 0.000000
# 4 0.000000 0.000000 0.000000 0.077071 0.000001 0.015724
# 5 0.002102 -0.004008 -0.004637 0.000001 0.037800 0.000000
# 6 0.000000 0.000000 0.000000 0.015724 0.000000 0.026325
#
#
# Mechanical properties :
#
#
# Convention : Reuss Voigt Hill
#
# Bulk Modulus (GPa) = 40.07756 50.61729 45.34742
# Shear Modulus (GPa) = 25.25786 33.50234 29.38010
#
# Velocity S-wave (km/s) = 3.35345 3.86217 3.61677
# Velocity P-wave (km/s) = 5.73045 6.51345 6.13446
#
# Compressibility (1/GPa) = 0.02495162
#
# Stress axis : x y z
#
# Youngs Moduli (GPa) = 90.61828 118.66710 58.01862
#
# Poissons Ratio (x) = 0.39742 0.09023
# Poissons Ratio (y) = 0.30349 0.05621
# Poissons Ratio (z) = 0.14094 0.11498
#
# Static dielectric constant tensor:
#      x y z
#    x 1.906290 0.000000 -0.048870 
#    y 0.000000 1.881290 0.000000 
#    z -0.048870 0.000000 1.978410 
# 
# From -- ./inp_files/308825.got.cif
#   From: 2010.05.17/outbox.cif.g08.bks.cpg/sg15_155_cif.got.tgz:308825.got - 2010.06.03 18:47:42.
