data_PCOD9281339
_publ_section_title
;
Structure prediction by ZEFSAII (Michael W. Deem and Ramdas Pophale) SiO2 
 PCOD9281339
Probable space group: C 2/C
;
_chemical_formula_sum "Si O2"
_cell_formula_units_Z 32
_cell_length_a 9.810232
_cell_length_b 15.347803
_cell_length_c 16.652398
_cell_angle_alpha 90.000000
_cell_angle_beta 141.718176
_cell_angle_gamma 90.000000
_cell_volume 1553.333288
_symmetry_space_group_name_H-M "C 2/C"
_symmetry_group_IT_number 15
_symmetry_cell_setting 'monoclinic'
loop_
_space_group_symop_operation_xyz
x,y,z
-x,y,1/2-z
-x,-y,-z
x,-y,1/2+z
1/2+x,1/2+y,z
1/2-x,1/2+y,1/2-z
1/2-x,1/2-y,-z
1/2+x,1/2-y,1/2+z
loop_
_atom_site_type_symbol
_atom_site_label
_atom_site_fract_x
_atom_site_fract_y
_atom_site_fract_z
Si Si1 0.687711 0.685092 0.585176
Si Si2 0.015248 0.233722 0.849134
Si Si3 0.500000 0.655038 0.250000
Si Si4 0.285202 0.605389 0.305906
Si Si5 0.500000 0.956998 0.250000
O O1 0.636913 0.681711 0.657601
O O2 0.808463 0.778237 0.629722
O O3 0.456912 0.661047 0.438517
O O4 0.856511 0.611479 0.632508
O O5 0.917565 0.330452 0.800057
O O6 0.000000 0.199673 0.750000
O O7 0.250000 0.250000 0.000000
O O8 0.404937 0.596528 0.276522
O O9 0.184189 0.518260 0.295542
#
# Coordination Sequence:
#
# PCOD9281339 Si02
#       5
#     8   8   4   8   4
#     4  10  21  38  61  86 121 159 197 245 305 353
#     4  11  20  37  64  94 117 153 203 251 294 353
#     4   9  22  36  62  91 114 152 204 253 292 352
#     4  11  20  39  62  86 120 157 199 246 301 355
#     4  11  22  38  58  85 122 166 192 243 306 360
#
# _framework density 20.600859
#
# number of rings (size 3 to 8) (size 9 to 14) (size 15 to 20)
#    0.000    1.500    3.750    1.500    0.000    0.000 
#    2.250    1.250    0.000    0.000    0.000    0.000 
#    0.000    0.000    0.000    0.000    0.000    0.000 
#
# Total GULP energy -89112.609171 kJ/mol
# GULP energy per Si atom -5569.538073 kJ/mol
# Density = 2.055397 g / cm^3
# Si number density = 20.600859 Si / 1000 Ang^3
#
#
#
# Elastic Constant Matrix: (Units=GPa)
#
#
# Indices 1 2 3 4 5 6 
#
# 1 123.5912 10.4785 9.4749 0.0000 -11.6268 0.0000
# 2 10.4785 41.2868 -0.6093 0.0000 5.8212 0.0000
# 3 9.4749 -0.6093 102.7873 0.0001 20.1872 0.0000
# 4 0.0000 0.0000 0.0001 4.6144 0.0000 3.0177
# 5 -11.6268 5.8212 20.1872 0.0000 36.5586 0.0000
# 6 0.0000 0.0000 0.0000 3.0177 0.0000 12.0103
#
#
#
# Elastic Compliance Matrix: (Units=1/GPa)
#
#
# Indices 1 2 3 4 5 6 
#
# 1 0.008854 -0.002862 -0.001655 0.000000 0.004186 0.000000
# 2 -0.002862 0.025800 0.001573 0.000000 -0.005887 0.000000
# 3 -0.001655 0.001573 0.011265 0.000000 -0.006997 0.000000
# 4 0.000000 0.000000 0.000000 0.259325 0.000000 -0.065157
# 5 0.004186 -0.005887 -0.006997 0.000000 0.033486 0.000000
# 6 0.000000 0.000000 0.000000 -0.065157 0.000000 0.099633
#
#
# Mechanical properties :
#
#
# Convention : Reuss Voigt Hill
#
# Bulk Modulus (GPa) = 24.98029 34.03927 29.50978
# Shear Modulus (GPa) = 10.92666 27.19139 19.05902
#
# Velocity S-wave (km/s) = 2.30554 3.63701 3.04494
# Velocity P-wave (km/s) = 4.38629 5.84775 5.16893
#
# Compressibility (1/GPa) = 0.04003156
#
# Stress axis : x y z
#
# Youngs Moduli (GPa) = 112.93700 38.75908 88.77072
#
# Poissons Ratio (x) = 0.11092 0.14694
# Poissons Ratio (y) = 0.32321 -0.13963
# Poissons Ratio (z) = 0.18694 -0.06096
#
# Static dielectric constant tensor:
#      x y z
#    x 1.857570 0.000000 -0.001410 
#    y 0.000000 1.728240 0.000000 
#    z -0.001410 0.000000 1.837050 
# 
# From -- ./inp_files/28047.got.cif
#   From: 2010.05.17/outbox.cif.g08.bks.cpg/sg15_15_cif.got.tgz:28047.got - 2010.06.03 18:47:42.
