data_PCOD9281497
_publ_section_title
;
Structure prediction by ZEFSAII (Michael W. Deem and Ramdas Pophale) SiO2 
 PCOD9281497
Probable space group: C 2/C
;
_chemical_formula_sum "Si O2"
_cell_formula_units_Z 60
_cell_length_a 15.501109
_cell_length_b 11.207079
_cell_length_c 18.458829
_cell_angle_alpha 90.000000
_cell_angle_beta 112.170395
_cell_angle_gamma 90.000000
_cell_volume 2969.621821
_symmetry_space_group_name_H-M "C 2/C"
_symmetry_group_IT_number 15
_symmetry_cell_setting 'monoclinic'
loop_
_space_group_symop_operation_xyz
x,y,z
-x,y,1/2-z
-x,-y,-z
x,-y,1/2+z
1/2+x,1/2+y,z
1/2-x,1/2+y,1/2-z
1/2-x,1/2-y,-z
1/2+x,1/2-y,1/2+z
loop_
_atom_site_type_symbol
_atom_site_label
_atom_site_fract_x
_atom_site_fract_y
_atom_site_fract_z
Si Si1 0.000000 0.710743 0.750000
Si Si2 0.439636 0.847615 0.657384
Si Si3 0.543590 0.614066 0.936045
Si Si4 0.703193 0.028233 0.084118
Si Si5 0.251011 0.878192 0.539784
Si Si6 0.107616 0.101887 0.377309
Si Si7 0.039687 0.427138 0.123207
Si Si8 0.403963 0.747989 0.992698
O O1 0.068225 0.797803 0.813647
O O2 0.049802 0.630778 0.705475
O O3 0.500000 0.845336 0.750000
O O4 0.445010 0.722109 0.617365
O O5 0.328163 0.875217 0.627938
O O6 0.485820 0.948882 0.620723
O O7 0.534615 0.492631 0.887152
O O8 0.640350 0.598726 0.012791
O O9 0.459847 0.655687 0.960304
O O10 0.811589 0.030800 0.137907
O O11 0.635774 0.952726 0.113302
O O12 0.664383 0.162783 0.070256
O O13 0.707290 0.971054 0.005367
O O14 0.250000 0.750000 0.500000
O O15 0.145093 0.173284 0.459449
O O16 0.978738 0.337229 0.054760
#
# Coordination Sequence:
#
# PCOD9281497 Si02
#       8
#     4   8   8   8   8   8   8   8
#     4  10  24  44  60  80 130 174 198 242 330 374
#     4  11  20  34  58  94 123 159 203 258 312 365
#     4  10  21  38  62  90 121 165 211 251 309 373
#     4  11  20  37  63  95 117 153 216 264 299 357
#     4   9  19  35  56  89 124 155 200 260 312 361
#     4  10  24  41  60  87 131 169 200 248 318 375
#     4  11  20  36  64  89 120 158 206 257 307 366
#     4  11  20  37  66  92 120 157 211 259 306 360
#
# _framework density 20.204594
#
# number of rings (size 3 to 8) (size 9 to 14) (size 15 to 20)
#    0.000    1.600    3.333    2.800    0.933    0.000 
#    0.000    8.000    0.000    0.000    0.000    0.000 
#    0.000    0.000    0.000    0.000    0.000    0.000 
#
# Total GULP energy -167312.860084 kJ/mol
# GULP energy per Si atom -5577.095336 kJ/mol
# Density = 2.015861 g / cm^3
# Si number density = 20.204594 Si / 1000 Ang^3
#
#
#
# Elastic Constant Matrix: (Units=GPa)
#
#
# Indices 1 2 3 4 5 6 
#
# 1 86.9166 18.1222 26.0506 0.0000 -4.4362 0.0000
# 2 18.1222 91.5429 13.7175 0.0000 -6.3008 0.0000
# 3 26.0506 13.7175 62.3546 0.0000 7.9906 0.0000
# 4 0.0000 0.0000 0.0000 24.7079 0.0000 -0.5054
# 5 -4.4362 -6.3008 7.9906 0.0000 17.8318 0.0000
# 6 0.0000 0.0000 0.0000 -0.5054 0.0000 28.3405
#
#
#
# Elastic Compliance Matrix: (Units=1/GPa)
#
#
# Indices 1 2 3 4 5 6 
#
# 1 0.013976 -0.001430 -0.006265 0.000000 0.005779 0.000000
# 2 -0.001430 0.011958 -0.002683 0.000000 0.005072 0.000000
# 3 -0.006265 -0.002683 0.020758 0.000000 -0.011809 0.000000
# 4 0.000000 0.000000 0.000000 0.040488 0.000000 0.000722
# 5 0.005779 0.005072 -0.011809 0.000000 0.064601 0.000000
# 6 0.000000 0.000000 0.000000 0.000722 0.000000 0.035298
#
#
# Mechanical properties :
#
#
# Convention : Reuss Voigt Hill
#
# Bulk Modulus (GPa) = 38.55650 39.62163 39.08907
# Shear Modulus (GPa) = 23.09672 26.37096 24.73384
#
# Velocity S-wave (km/s) = 3.38471 3.61667 3.50261
# Velocity P-wave (km/s) = 5.86510 6.09042 5.97882
#
# Compressibility (1/GPa) = 0.02593596
#
# Stress axis : x y z
#
# Youngs Moduli (GPa) = 71.55038 83.62516 48.17375
#
# Poissons Ratio (x) = 0.11960 0.30180
# Poissons Ratio (y) = 0.10233 0.12926
# Poissons Ratio (z) = 0.44826 0.22438
#
# Static dielectric constant tensor:
#      x y z
#    x 1.729720 0.000000 0.056760 
#    y 0.000000 1.745390 0.000000 
#    z 0.056760 0.000000 1.925310 
# 
# From -- ./inp_files/204508.got.cif
#   From: 2010.05.17/outbox.cif.g08.bks.cpg/sg15_103_cif.got.tgz:204508.got - 2010.06.03 18:47:42.
