data_PCOD9281740
_publ_section_title
;
Structure prediction by ZEFSAII (Michael W. Deem and Ramdas Pophale) SiO2 
 PCOD9281740
Probable space group: C 2/C
;
_chemical_formula_sum "Si O2"
_cell_formula_units_Z 36
_cell_length_a 20.999594
_cell_length_b 20.807671
_cell_length_c 12.065729
_cell_angle_alpha 90.000000
_cell_angle_beta 160.045421
_cell_angle_gamma 90.000000
_cell_volume 1799.254253
_symmetry_space_group_name_H-M "C 2/C"
_symmetry_group_IT_number 15
_symmetry_cell_setting 'monoclinic'
loop_
_space_group_symop_operation_xyz
x,y,z
-x,y,1/2-z
-x,-y,-z
x,-y,1/2+z
1/2+x,1/2+y,z
1/2-x,1/2+y,1/2-z
1/2-x,1/2-y,-z
1/2+x,1/2-y,1/2+z
loop_
_atom_site_type_symbol
_atom_site_label
_atom_site_fract_x
_atom_site_fract_y
_atom_site_fract_z
Si Si1 0.500000 0.487771 0.250000
Si Si2 0.964816 0.672017 0.822957
Si Si3 0.871078 0.560088 0.257735
Si Si4 0.971955 0.182180 0.335558
Si Si5 0.855682 0.945708 0.311492
O O1 0.654742 0.445539 0.442365
O O2 0.633083 0.532414 0.542896
O O3 0.037764 0.744617 0.962239
O O4 0.744339 0.675690 0.485499
O O5 0.000000 0.655135 0.750000
O O6 0.047978 0.621458 0.046069
O O7 0.000000 0.500000 0.500000
O O8 0.836606 0.555356 0.069522
O O9 0.000000 0.171014 0.250000
O O10 0.072016 0.127044 0.569117
O O11 0.000000 0.000000 0.500000
#
# Coordination Sequence:
#
# PCOD9281740 Si02
#       5
#     4   8   8   8   8
#     4  10  22  40  62  86 130 162 214 262 330 370
#     4  10  23  40  66  94 128 172 212 262 318 387
#     4  11  25  38  61  97 126 169 213 268 317 385
#     4  10  21  43  66  91 129 172 212 260 322 380
#     4  10  21  38  64  89 124 169 205 267 312 382
#
# _framework density 20.008288
#
# number of rings (size 3 to 8) (size 9 to 14) (size 15 to 20)
#    0.000    1.778    1.111    2.667    9.333    0.889 
#    0.000    0.000    0.000    0.000    0.000    0.000 
#    0.000    0.000    0.000    0.000    0.000    0.000 
#
# Total GULP energy -100232.919223 kJ/mol
# GULP energy per Si atom -5568.495512 kJ/mol
# Density = 1.996275 g / cm^3
# Si number density = 20.008288 Si / 1000 Ang^3
#
#
#
# Elastic Constant Matrix: (Units=GPa)
#
#
# Indices 1 2 3 4 5 6 
#
# 1 91.9710 34.0973 43.8821 0.0000 -3.2129 0.0000
# 2 34.0973 150.1680 65.6129 0.0000 -36.6312 0.0000
# 3 43.8821 65.6129 106.5219 0.0000 -33.8431 0.0000
# 4 0.0000 0.0000 0.0000 -7.5503 0.0000 -28.2327
# 5 -3.2129 -36.6312 -33.8431 0.0000 48.3938 0.0000
# 6 0.0000 0.0000 0.0000 -28.2327 0.0000 22.3612
#
#
#
# Elastic Compliance Matrix: (Units=1/GPa)
#
#
# Indices 1 2 3 4 5 6 
#
# 1 0.014381 -0.001613 -0.006448 0.000000 -0.004775 0.000000
# 2 -0.001613 0.009877 -0.003957 0.000000 0.004602 0.000000
# 3 -0.006448 -0.003957 0.017220 0.000000 0.008619 0.000000
# 4 0.000000 0.000000 0.000000 -0.023150 0.000000 -0.029229
# 5 -0.004775 0.004602 0.008619 0.000000 0.029857 0.000000
# 6 0.000000 0.000000 0.000000 -0.029229 0.000000 0.007817
#
#
# Mechanical properties :
#
#
# Convention : Reuss Voigt Hill
#
# Bulk Modulus (GPa) = 57.33539 70.64950 63.99245
# Shear Modulus (GPa) = 58.24036 26.31218 42.27627
#
# Velocity S-wave (km/s) = 5.40105 3.63032 4.60166
# Velocity P-wave (km/s) = 8.22272 7.27729 7.76441
#
# Compressibility (1/GPa) = 0.01744123
#
# Stress axis : x y z
#
# Youngs Moduli (GPa) = 69.53830 101.24465 58.07287
#
# Poissons Ratio (x) = 0.16329 0.37444
# Poissons Ratio (y) = 0.11216 0.22982
# Poissons Ratio (z) = 0.44837 0.40067
#
# Static dielectric constant tensor:
#      x y z
#    x 1.922100 0.000000 -0.062020 
#    y 0.000000 1.716630 0.000000 
#    z -0.062020 0.000000 1.701470 
# 
# From -- ./inp_files/76335.got.cif
#   From: 2010.05.17/outbox.cif.g08.bks.cpg/sg15_39_cif.got.tgz:76335.got - 2010.06.03 18:47:42.
