data_PCOD9281114
_publ_section_title
;
Structure prediction by ZEFSAII (Michael W. Deem and Ramdas Pophale) SiO2 
 PCOD9281114
Probable space group: C 2/C
;
_chemical_formula_sum "Si O2"
_cell_formula_units_Z 24
_cell_length_a 20.539607
_cell_length_b 8.592767
_cell_length_c 5.473848
_cell_angle_alpha 90.000000
_cell_angle_beta 94.397851
_cell_angle_gamma 90.000000
_cell_volume 963.246165
_symmetry_space_group_name_H-M "C 2/C"
_symmetry_group_IT_number 15
_symmetry_cell_setting 'monoclinic'
loop_
_space_group_symop_operation_xyz
x,y,z
-x,y,1/2-z
-x,-y,-z
x,-y,1/2+z
1/2+x,1/2+y,z
1/2-x,1/2+y,1/2-z
1/2-x,1/2-y,-z
1/2+x,1/2-y,1/2+z
loop_
_atom_site_type_symbol
_atom_site_label
_atom_site_fract_x
_atom_site_fract_y
_atom_site_fract_z
Si Si1 0.751439 0.066893 0.541919
Si Si2 0.899616 0.941536 0.619747
Si Si3 0.579054 0.086089 0.771224
O O1 0.750000 0.250000 0.500000
O O2 0.722872 0.018727 0.795804
O O3 0.826854 0.012663 0.578074
O O4 0.895335 0.758649 0.667124
O O5 0.930749 0.978553 0.366539
O O6 0.500000 0.099207 0.750000
O O7 0.595921 0.025718 0.504672
#
# Coordination Sequence:
#
# PCOD9281114 Si02
#       3
#     8   8   8
#     4  10  21  40  60  84 116 150 194 242 292 343
#     4  10  21  38  58  87 117 152 194 236 289 342
#     4  10  21  38  60  87 119 154 192 236 287 343
#
# _framework density 24.915748000000001
#
# number of rings (size 3 to 8) (size 9 to 14) (size 15 to 20)
#    0.000    2.000    0.000    3.000    0.000    1.333 
#    0.000   40.000    0.000    0.000    0.000    0.000 
#    0.000    0.000    0.000    0.000    0.000    0.000 
#
# Total GULP energy -67240.824366 kJ/mol
# GULP energy per Si atom -5603.402030 kJ/mol
# Density = 2.485904 g / cm^3
# Si number density = 24.915748 Si / 1000 Ang^3
#
#
#
# Elastic Constant Matrix: (Units=GPa)
#
#
# Indices 1 2 3 4 5 6 
#
# 1 94.4835 13.9250 48.1390 0.0000 -4.5465 0.0000
# 2 13.9250 238.6251 109.5146 0.0000 -5.8280 0.0000
# 3 48.1390 109.5146 262.6604 0.0000 -27.8119 0.0000
# 4 0.0000 0.0000 0.0000 64.0333 0.0000 20.2478
# 5 -4.5465 -5.8280 -27.8119 0.0000 50.2011 0.0000
# 6 0.0000 0.0000 0.0000 20.2478 0.0000 89.9488
#
#
#
# Elastic Compliance Matrix: (Units=1/GPa)
#
#
# Indices 1 2 3 4 5 6 
#
# 1 0.011702 0.000378 -0.002322 0.000000 -0.000183 0.000000
# 2 0.000378 0.005214 -0.002311 0.000000 -0.000641 0.000000
# 3 -0.002322 -0.002311 0.005466 0.000000 0.002550 0.000000
# 4 0.000000 0.000000 0.000000 0.016814 0.000000 -0.003785
# 5 -0.000183 -0.000641 0.002550 0.000000 0.021242 0.000000
# 6 0.000000 0.000000 0.000000 -0.003785 0.000000 0.011969
#
#
# Mechanical properties :
#
#
# Convention : Reuss Voigt Hill
#
# Bulk Modulus (GPa) = 72.08199 104.32514 88.20357
# Shear Modulus (GPa) = 58.45229 69.11602 63.78416
#
# Velocity S-wave (km/s) = 4.84880 5.27258 5.06513
# Velocity P-wave (km/s) = 7.76795 8.88982 8.34775
#
# Compressibility (1/GPa) = 0.01387309
#
# Stress axis : x y z
#
# Youngs Moduli (GPa) = 85.45364 191.80896 182.94191
#
# Poissons Ratio (x) = -0.07254 0.42474
# Poissons Ratio (y) = -0.03232 0.42276
# Poissons Ratio (z) = 0.19840 0.44325
#
# Static dielectric constant tensor:
#      x y z
#    x 2.736870 0.000000 -0.049840 
#    y 0.000000 1.853920 0.000000 
#    z -0.049840 0.000000 2.016660 
# 
# From -- ./inp_files/14739.got.cif
#   From: 2010.05.17/outbox.cif.g08.bks.cpg/sg15_8_cif.got.tgz:14739.got - 2010.06.03 18:47:42.
