data_PCOD9281110
_publ_section_title
;
Structure prediction by ZEFSAII (Michael W. Deem and Ramdas Pophale) SiO2 
 PCOD9281110
Probable space group: C 2/C
;
_chemical_formula_sum "Si O2"
_cell_formula_units_Z 56
_cell_length_a 9.053281
_cell_length_b 23.013684
_cell_length_c 14.064938
_cell_angle_alpha 90.000000
_cell_angle_beta 119.704487
_cell_angle_gamma 90.000000
_cell_volume 2545.342028
_symmetry_space_group_name_H-M "C 2/C"
_symmetry_group_IT_number 15
_symmetry_cell_setting 'monoclinic'
loop_
_space_group_symop_operation_xyz
x,y,z
-x,y,1/2-z
-x,-y,-z
x,-y,1/2+z
1/2+x,1/2+y,z
1/2-x,1/2+y,1/2-z
1/2-x,1/2-y,-z
1/2+x,1/2-y,1/2+z
loop_
_atom_site_type_symbol
_atom_site_label
_atom_site_fract_x
_atom_site_fract_y
_atom_site_fract_z
Si Si1 0.258180 0.385784 0.503509
Si Si2 0.312193 0.031381 0.696019
Si Si3 0.314788 0.625838 0.710157
Si Si4 0.766839 0.838353 0.983023
Si Si5 0.379320 0.287892 0.404073
Si Si6 0.867744 0.086294 0.351167
Si Si7 0.617322 0.158996 0.138476
O O1 0.224425 0.434479 0.413441
O O2 0.285245 0.325328 0.454851
O O3 0.437819 0.400470 0.610178
O O4 0.122157 0.378812 0.543274
O O5 0.500000 0.004835 0.750000
O O6 0.303975 0.079235 0.776610
O O7 0.180656 0.980440 0.673883
O O8 0.500000 0.598073 0.750000
O O9 0.255917 0.651212 0.591744
O O10 0.347856 0.677028 0.796480
O O11 0.915701 0.791122 0.011238
O O12 0.841548 0.894745 0.952934
O O13 0.574628 0.830714 0.886784
O O14 0.317888 0.222751 0.370496
O O15 0.739776 0.126839 0.251070
#
# Coordination Sequence:
#
# PCOD9281110 Si02
#       7
#     8   8   8   8   8   8   8
#     4  10  23  42  62  87 121 163 200 244 306 362
#     4  11  22  41  64  89 118 154 207 262 303 355
#     4   9  20  38  60  85 115 159 202 240 299 366
#     4  10  21  38  58  86 120 160 199 242 301 360
#     4   9  21  39  60  87 122 155 194 246 302 358
#     4  11  25  41  57  87 127 162 198 251 306 355
#     4  12  22  37  61  91 119 155 203 247 295 358
#
# _framework density 22.000971
#
# number of rings (size 3 to 8) (size 9 to 14) (size 15 to 20)
#    0.000    1.714    0.000    4.714    0.000    8.000 
#    0.000   10.000    0.000    0.000    0.000    0.000 
#    0.000    0.000    0.000    0.000    0.000    0.000 
#
# Total GULP energy -156476.779248 kJ/mol
# GULP energy per Si atom -5588.456402 kJ/mol
# Density = 2.195090 g / cm^3
# Si number density = 22.000971 Si / 1000 Ang^3
#
#
#
# Elastic Constant Matrix: (Units=GPa)
#
#
# Indices 1 2 3 4 5 6 
#
# 1 45.6559 -9.6384 14.1238 0.0000 -3.2634 0.0000
# 2 -9.6384 92.1696 14.0923 0.0000 -1.8582 0.0000
# 3 14.1238 14.0923 77.7529 0.0000 -7.3935 0.0000
# 4 0.0000 0.0000 0.0000 12.9120 0.0000 9.2717
# 5 -3.2634 -1.8582 -7.3935 0.0000 28.5618 0.0000
# 6 0.0000 0.0000 0.0000 9.2717 0.0000 5.7196
#
#
#
# Elastic Compliance Matrix: (Units=1/GPa)
#
#
# Indices 1 2 3 4 5 6 
#
# 1 0.024220 0.003307 -0.004834 0.000000 0.001731 0.000000
# 2 0.003307 0.011611 -0.002663 0.000000 0.000444 0.000000
# 3 -0.004834 -0.002663 0.014510 0.000000 0.003031 0.000000
# 4 0.000000 0.000000 0.000000 -0.472179 0.000000 0.765423
# 5 0.001731 0.000444 0.003031 0.000000 0.036023 0.000000
# 6 0.000000 0.000000 0.000000 0.765423 0.000000 -1.065948
#
#
# Mechanical properties :
#
#
# Convention : Reuss Voigt Hill
#
# Bulk Modulus (GPa) = 23.83164 28.08153 25.95658
# Shear Modulus (GPa) = -3.49799 22.57205 9.53703
#
# Velocity S-wave (km/s) = -1.26229 3.20653 2.08428
# Velocity P-wave (km/s) = 2.95484 5.14787 4.19712
#
# Compressibility (1/GPa) = 0.04196103
#
# Stress axis : x y z
#
# Youngs Moduli (GPa) = 41.28762 86.12170 68.91687
#
# Poissons Ratio (x) = -0.28479 0.33317
# Poissons Ratio (y) = -0.13653 0.18352
# Poissons Ratio (z) = 0.19960 0.22934
#
# Static dielectric constant tensor:
#      x y z
#    x 1.828630 0.000000 0.014160 
#    y 0.000000 1.769150 0.000000 
#    z 0.014160 0.000000 1.819060 
# 
# From -- ./inp_files/137986.got.cif
#   From: 2010.05.17/outbox.cif.g08.bks.cpg/sg15_69_cif.got.tgz:137986.got - 2010.06.03 18:47:42.
