data_PCOD9281800
_publ_section_title
;
Structure prediction by ZEFSAII (Michael W. Deem and Ramdas Pophale) SiO2 
 PCOD9281800
Probable space group: C 2/C
;
_chemical_formula_sum "Si O2"
_cell_formula_units_Z 40
_cell_length_a 12.403980
_cell_length_b 13.094228
_cell_length_c 21.157683
_cell_angle_alpha 90.000000
_cell_angle_beta 32.023934
_cell_angle_gamma 90.000000
_cell_volume 1822.254209
_symmetry_space_group_name_H-M "C 2/C"
_symmetry_group_IT_number 15
_symmetry_cell_setting 'monoclinic'
loop_
_space_group_symop_operation_xyz
x,y,z
-x,y,1/2-z
-x,-y,-z
x,-y,1/2+z
1/2+x,1/2+y,z
1/2-x,1/2+y,1/2-z
1/2-x,1/2-y,-z
1/2+x,1/2-y,1/2+z
loop_
_atom_site_type_symbol
_atom_site_label
_atom_site_fract_x
_atom_site_fract_y
_atom_site_fract_z
Si Si1 0.125170 0.607106 0.102987
Si Si2 0.299016 0.303795 0.636404
Si Si3 0.423588 0.112948 0.517503
Si Si4 0.242465 0.882939 0.459329
Si Si5 0.811502 0.825319 0.874086
O O1 0.272279 0.670321 0.075494
O O2 0.168130 0.491161 0.104001
O O3 0.167995 0.611848 0.006965
O O4 0.897503 0.648278 0.231229
O O5 0.304103 0.179282 0.630246
O O6 0.507093 0.354881 0.558932
O O7 0.634330 0.176328 0.411367
O O8 0.741026 0.122965 0.473384
O O9 0.500000 0.000000 0.500000
O O10 0.365689 0.788274 0.369571
O O11 0.000000 0.881424 0.750000
#
# Coordination Sequence:
#
# PCOD9281800 Si02
#       5
#     8   8   8   8   8
#     4  11  22  43  66  95 131 169 214 267 330 381
#     4  10  24  41  64  99 127 170 217 267 324 388
#     4  11  22  44  65  91 132 170 214 265 322 386
#     4  10  21  40  65  94 130 163 218 265 316 385
#     4  10  21  38  64  96 125 165 216 264 315 383
#
# _framework density 21.950834
#
# number of rings (size 3 to 8) (size 9 to 14) (size 15 to 20)
#    0.000    1.600    2.000    2.400    2.800    0.000 
#    3.600    0.000    0.000    0.000    0.000    0.000 
#    0.000    0.000    0.000    0.000    0.000    0.000 
#
# Total GULP energy -111425.043768 kJ/mol
# GULP energy per Si atom -5571.252188 kJ/mol
# Density = 2.190087 g / cm^3
# Si number density = 21.950834 Si / 1000 Ang^3
#
#
#
# Elastic Constant Matrix: (Units=GPa)
#
#
# Indices 1 2 3 4 5 6 
#
# 1 113.7571 12.4573 11.9252 0.0004 -10.2325 0.0000
# 2 12.4573 152.3983 19.9528 -0.0013 8.9650 -0.0001
# 3 11.9252 19.9528 59.5104 -0.0039 -1.1765 -0.0009
# 4 0.0004 -0.0013 -0.0039 6.3575 -0.0002 -11.9561
# 5 -10.2325 8.9650 -1.1765 -0.0002 20.3574 0.0002
# 6 0.0000 -0.0001 -0.0009 -11.9561 0.0002 27.3636
#
#
#
# Elastic Compliance Matrix: (Units=1/GPa)
#
#
# Indices 1 2 3 4 5 6 
#
# 1 0.009501 -0.000878 -0.001509 -0.000010 0.005075 -0.000004
# 2 -0.000878 0.007153 -0.002296 0.000000 -0.003724 0.000000
# 3 -0.001509 -0.002296 0.017902 0.000065 0.001287 0.000029
# 4 -0.000010 0.000000 0.000065 0.882292 0.000005 0.385505
# 5 0.005075 -0.003724 0.001287 0.000005 0.053387 0.000002
# 6 -0.000004 0.000000 0.000029 0.385505 0.000002 0.204986
#
#
# Mechanical properties :
#
#
# Convention : Reuss Voigt Hill
#
# Bulk Modulus (GPa) = 39.69830 46.03739 42.86785
# Shear Modulus (GPa) = 4.19117 29.57107 16.88112
#
# Velocity S-wave (km/s) = 1.38329 3.67434 2.77617
# Velocity P-wave (km/s) = 4.54705 6.24656 5.46329
#
# Compressibility (1/GPa) = 0.02518999
#
# Stress axis : x y z
#
# Youngs Moduli (GPa) = 105.24655 139.79816 55.86114
#
# Poissons Ratio (x) = 0.12269 0.08432
# Poissons Ratio (y) = 0.09236 0.12826
# Poissons Ratio (z) = 0.15886 0.32099
#
# Static dielectric constant tensor:
#      x y z
#    x 1.839560 0.000000 0.047720 
#    y 0.000000 1.915560 0.000000 
#    z 0.047720 0.000000 1.921330 
# 
# From -- ./inp_files/288205.got.cif
#   From: 2010.05.17/outbox.cif.g08.bks.cpg/sg15_145_cif.got.tgz:288205.got - 2010.06.03 18:47:42.
