data_PCOD9281002
_publ_section_title
;
Structure prediction by ZEFSAII (Michael W. Deem and Ramdas Pophale) SiO2 
 PCOD9281002
Probable space group: C 2/C
;
_chemical_formula_sum "Si O2"
_cell_formula_units_Z 48
_cell_length_a 30.179361
_cell_length_b 12.457799
_cell_length_c 16.443850
_cell_angle_alpha 90.000000
_cell_angle_beta 157.295181
_cell_angle_gamma 90.000000
_cell_volume 2386.292937
_symmetry_space_group_name_H-M "C 2/C"
_symmetry_group_IT_number 15
_symmetry_cell_setting 'monoclinic'
loop_
_space_group_symop_operation_xyz
x,y,z
-x,y,1/2-z
-x,-y,-z
x,-y,1/2+z
1/2+x,1/2+y,z
1/2-x,1/2+y,1/2-z
1/2-x,1/2-y,-z
1/2+x,1/2-y,1/2+z
loop_
_atom_site_type_symbol
_atom_site_label
_atom_site_fract_x
_atom_site_fract_y
_atom_site_fract_z
Si Si1 0.777963 0.396769 0.393202
Si Si2 0.413620 0.652325 0.329099
Si Si3 0.632365 0.405972 0.298717
Si Si4 0.130998 0.831257 0.471978
Si Si5 0.940878 0.820092 0.574587
Si Si6 0.715595 0.137579 0.115137
O O1 0.732481 0.375240 0.406464
O O2 0.857091 0.297949 0.502969
O O3 0.826237 0.516816 0.472908
O O4 0.661365 0.385882 0.141668
O O5 0.393367 0.531829 0.260257
O O6 0.514372 0.650219 0.568027
O O7 0.468739 0.710785 0.343741
O O8 0.294980 0.680502 0.174558
O O9 0.672531 0.375986 0.456100
O O10 0.200045 0.874272 0.665034
O O11 0.000000 0.862262 0.250000
O O12 0.880383 0.719237 0.516335
O O13 0.000000 0.880693 0.750000
#
# Coordination Sequence:
#
# PCOD9281002 Si02
#       6
#     8   8   8   8   8   8
#     4   9  21  37  53  81 115 141 186 239 275 326
#     4   9  18  34  55  85 115 140 184 237 275 323
#     4   9  17  32  56  83 111 142 182 235 281 321
#     4  11  20  31  59  85 106 149 187 223 279 342
#     4  10  22  35  58  81 105 154 188 228 273 337
#     4  10  21  38  55  82 118 145 184 236 279 328
#
# _framework density 20.114881
#
# number of rings (size 3 to 8) (size 9 to 14) (size 15 to 20)
#    0.000    2.333    1.667    1.500    2.333    1.333 
#    0.000    0.000    0.000    4.000    0.000    0.000 
#    0.000    0.000    0.000    0.000    0.000    0.000 
#
# Total GULP energy -133792.246844 kJ/mol
# GULP energy per Si atom -5574.676952 kJ/mol
# Density = 2.006910 g / cm^3
# Si number density = 20.114881 Si / 1000 Ang^3
#
#
#
# Elastic Constant Matrix: (Units=GPa)
#
#
# Indices 1 2 3 4 5 6 
#
# 1 131.5741 32.4992 26.7224 0.0000 -8.6897 0.0000
# 2 32.4992 62.4718 -6.3663 0.0000 19.4311 0.0000
# 3 26.7224 -6.3663 49.4612 0.0000 -7.9360 0.0000
# 4 0.0000 0.0000 0.0000 -12.4573 0.0000 -7.0881
# 5 -8.6897 19.4311 -7.9360 0.0000 21.7873 0.0000
# 6 0.0000 0.0000 0.0000 -7.0881 0.0000 19.4346
#
#
#
# Elastic Compliance Matrix: (Units=1/GPa)
#
#
# Indices 1 2 3 4 5 6 
#
# 1 0.012355 -0.010920 -0.006083 0.000000 0.012452 0.000000
# 2 -0.010920 0.031810 0.005038 0.000000 -0.030890 0.000000
# 3 -0.006083 0.005038 0.024473 0.000000 0.001995 0.000000
# 4 0.000000 0.000000 0.000000 -0.066479 0.000000 -0.024246
# 5 0.012452 -0.030890 0.001995 0.000000 0.079141 0.000000
# 6 0.000000 0.000000 0.000000 -0.024246 0.000000 0.042612
#
#
# Mechanical properties :
#
#
# Convention : Reuss Voigt Hill
#
# Bulk Modulus (GPa) = 22.36783 38.80197 30.58490
# Shear Modulus (GPa) = 30.72295 18.46304 24.59300
#
# Velocity S-wave (km/s) = 3.91240 3.03294 3.50040
# Velocity P-wave (km/s) = 5.61724 5.62112 5.61918
#
# Compressibility (1/GPa) = 0.04470707
#
# Stress axis : x y z
#
# Youngs Moduli (GPa) = 80.93600 31.43703 40.86156
#
# Poissons Ratio (x) = 0.34330 0.24856
# Poissons Ratio (y) = 0.88385 -0.20586
# Poissons Ratio (z) = 0.49234 -0.15838
#
# Static dielectric constant tensor:
#      x y z
#    x 1.834230 0.000000 -0.027780 
#    y 0.000000 1.730980 0.000000 
#    z -0.027780 0.000000 1.715210 
# 
# From -- ./inp_files/144401.got.cif
#   From: 2010.05.17/outbox.cif.g08.bks.cpg/sg15_73_cif.got.tgz:144401.got - 2010.06.03 18:47:42.
