data_PCOD9281131
_publ_section_title
;
Structure prediction by ZEFSAII (Michael W. Deem and Ramdas Pophale) SiO2 
 PCOD9281131
Probable space group: C 2/C
;
_chemical_formula_sum "Si O2"
_cell_formula_units_Z 64
_cell_length_a 15.270925
_cell_length_b 11.453746
_cell_length_c 24.629686
_cell_angle_alpha 90.000000
_cell_angle_beta 39.892247
_cell_angle_gamma 90.000000
_cell_volume 2762.892792
_symmetry_space_group_name_H-M "C 2/C"
_symmetry_group_IT_number 15
_symmetry_cell_setting 'monoclinic'
loop_
_space_group_symop_operation_xyz
x,y,z
-x,y,1/2-z
-x,-y,-z
x,-y,1/2+z
1/2+x,1/2+y,z
1/2-x,1/2+y,1/2-z
1/2-x,1/2-y,-z
1/2+x,1/2-y,1/2+z
loop_
_atom_site_type_symbol
_atom_site_label
_atom_site_fract_x
_atom_site_fract_y
_atom_site_fract_z
Si Si1 0.757074 0.737632 0.289512
Si Si2 0.209349 0.844145 0.625829
Si Si3 0.554461 0.760425 0.601757
Si Si4 0.080686 0.525071 0.160983
Si Si5 0.154123 0.885454 0.152100
Si Si6 0.171608 0.972499 0.882153
Si Si7 0.465981 0.230339 0.691660
Si Si8 0.464412 0.302160 0.034297
O O1 0.897185 0.762991 0.192640
O O2 0.767483 0.801183 0.342821
O O3 0.753208 0.597004 0.297956
O O4 0.623806 0.772046 0.319462
O O5 0.130123 0.792159 0.716886
O O6 0.358779 0.786190 0.556968
O O7 0.108747 0.801459 0.625253
O O8 0.213332 0.983868 0.624046
O O9 0.583975 0.890042 0.608910
O O10 0.639756 0.671937 0.599203
O O11 0.561278 0.751897 0.533980
O O12 0.233057 0.510013 0.110905
O O13 0.000000 0.585149 0.250000
O O14 0.007830 0.401879 0.186227
O O15 0.000000 0.895368 0.250000
O O16 0.121044 0.099222 0.892429
O O17 0.049278 0.883332 0.953183
#
# Coordination Sequence:
#
# PCOD9281131 Si02
#       8
#     8   8   8   8   8   8   8   8
#     4  11  23  38  62  97 123 164 210 262 315 368
#     4  11  21  40  58  94 129 160 207 262 313 374
#     4  11  23  38  66  96 121 164 210 262 318 371
#     4  12  20  41  65  94 126 160 214 273 305 364
#     4  10  21  38  58  92 131 157 201 269 321 365
#     4  11  24  45  65  89 137 166 214 261 316 381
#     4  11  22  35  64  94 124 163 211 263 312 364
#     4  11  25  43  65  94 127 177 206 257 325 384
#
# _framework density 23.164126
#
# number of rings (size 3 to 8) (size 9 to 14) (size 15 to 20)
#    0.000    1.000    7.500    0.375    3.500    0.500 
#    0.000    2.500    0.000    0.000    0.000    0.000 
#    0.000    0.000    0.000    0.000    0.000    0.000 
#
# Total GULP energy -178939.848914 kJ/mol
# GULP energy per Si atom -5591.870279 kJ/mol
# Density = 2.311140 g / cm^3
# Si number density = 23.164126 Si / 1000 Ang^3
#
#
#
# Elastic Constant Matrix: (Units=GPa)
#
#
# Indices 1 2 3 4 5 6 
#
# 1 121.4002 20.5942 26.1681 0.0000 -27.0021 0.0000
# 2 20.5942 111.9298 5.0223 0.0000 -13.5229 0.0000
# 3 26.1681 5.0223 34.7287 0.0000 -13.7088 0.0000
# 4 0.0000 0.0000 0.0000 15.5470 0.0000 -14.9545
# 5 -27.0021 -13.5229 -13.7088 0.0000 22.9069 0.0000
# 6 0.0000 0.0000 0.0000 -14.9545 0.0000 35.6405
#
#
#
# Elastic Compliance Matrix: (Units=1/GPa)
#
#
# Indices 1 2 3 4 5 6 
#
# 1 0.011700 -0.000656 -0.004491 0.000000 0.010717 0.000000
# 2 -0.000656 0.009690 0.001369 0.000000 0.005766 0.000000
# 3 -0.004491 0.001369 0.039554 0.000000 0.019186 0.000000
# 4 0.000000 0.000000 0.000000 0.107849 0.000000 0.045253
# 5 0.010717 0.005766 0.019186 0.000000 0.071174 0.000000
# 6 0.000000 0.000000 0.000000 0.045253 0.000000 0.047046
#
#
# Mechanical properties :
#
#
# Convention : Reuss Voigt Hill
#
# Bulk Modulus (GPa) = 18.73061 41.29198 30.01129
# Shear Modulus (GPa) = 16.00691 29.23715 22.62203
#
# Velocity S-wave (km/s) = 2.63158 3.55656 3.12845
# Velocity P-wave (km/s) = 4.16380 5.89322 5.10232
#
# Compressibility (1/GPa) = 0.05338856
#
# Stress axis : x y z
#
# Youngs Moduli (GPa) = 85.46822 103.19747 25.28192
#
# Poissons Ratio (x) = 0.06775 0.11354
# Poissons Ratio (y) = 0.05611 -0.03462
# Poissons Ratio (z) = 0.38383 -0.14133
#
# Static dielectric constant tensor:
#      x y z
#    x 1.895370 0.000000 -0.013750 
#    y 0.000000 1.829960 0.000000 
#    z -0.013750 0.000000 1.952630 
# 
# From -- ./inp_files/296130.got.cif
#   From: 2010.05.17/outbox.cif.g08.bks.cpg/sg15_149_cif.got.tgz:296130.got - 2010.06.03 18:47:42.
