data_PCOD9281983
_publ_section_title
;
Structure prediction by ZEFSAII (Michael W. Deem and Ramdas Pophale) SiO2 
 PCOD9281983
Probable space group: C 2/C
;
_chemical_formula_sum "Si O2"
_cell_formula_units_Z 64
_cell_length_a 25.108095
_cell_length_b 8.340738
_cell_length_c 13.231695
_cell_angle_alpha 90.000000
_cell_angle_beta 109.610766
_cell_angle_gamma 90.000000
_cell_volume 2610.249654
_symmetry_space_group_name_H-M "C 2/C"
_symmetry_group_IT_number 15
_symmetry_cell_setting 'monoclinic'
loop_
_space_group_symop_operation_xyz
x,y,z
-x,y,1/2-z
-x,-y,-z
x,-y,1/2+z
1/2+x,1/2+y,z
1/2-x,1/2+y,1/2-z
1/2-x,1/2-y,-z
1/2+x,1/2-y,1/2+z
loop_
_atom_site_type_symbol
_atom_site_label
_atom_site_fract_x
_atom_site_fract_y
_atom_site_fract_z
Si Si1 0.392783 0.046117 0.444253
Si Si2 0.654004 0.649738 0.269944
Si Si3 0.118950 0.167129 0.024965
Si Si4 0.762867 0.945318 0.910528
Si Si5 0.643808 0.035465 0.872324
Si Si6 0.055606 0.989715 0.313053
Si Si7 0.551448 0.841166 0.713749
Si Si8 0.225084 0.293993 0.686360
O O1 0.391170 0.855820 0.464001
O O2 0.391258 0.111890 0.557870
O O3 0.441050 0.097571 0.395710
O O4 0.333632 0.116074 0.365307
O O5 0.630672 0.602380 0.145468
O O6 0.648688 0.840415 0.283396
O O7 0.613171 0.576010 0.324643
O O8 0.720158 0.618928 0.327972
O O9 0.179121 0.126628 0.009875
O O10 0.067699 0.089230 0.929994
O O11 0.707679 0.987278 0.941566
O O12 0.776504 0.115328 0.861628
O O13 0.741694 0.813626 0.814638
O O14 0.608410 0.888681 0.808147
O O15 0.048347 0.848670 0.224675
O O16 0.000000 0.092590 0.250000
O O17 0.500000 0.907131 0.750000
#
# Coordination Sequence:
#
# PCOD9281983 Si02
#       8
#     8   8   8   8   8   8   8   8
#     4  12  24  42  71 103 141 188 236 284 353 424
#     4  10  24  43  68 103 148 182 231 290 346 429
#     4  11  24  44  69 103 140 188 235 285 356 419
#     4  10  22  39  67 107 148 182 230 286 346 425
#     4  11  23  42  68 106 139 185 231 286 348 422
#     4  11  27  48  69 100 137 181 242 302 354 417
#     4  11  25  47  68  96 138 181 242 297 348 407
#     4  10  21  38  67 103 149 184 225 284 351 420
#
# _framework density 24.518727999999999
#
# number of rings (size 3 to 8) (size 9 to 14) (size 15 to 20)
#    0.000    1.250    3.750    1.500    7.000    4.000 
#    0.000    0.000    0.000    0.000    0.000    0.000 
#    0.000    0.000    0.000    0.000    0.000    0.000 
#
# Total GULP energy -178637.718837 kJ/mol
# GULP energy per Si atom -5582.428714 kJ/mol
# Density = 2.446292 g / cm^3
# Si number density = 24.518728 Si / 1000 Ang^3
#
#
#
# Elastic Constant Matrix: (Units=GPa)
#
#
# Indices 1 2 3 4 5 6 
#
# 1 105.0071 25.2252 17.7409 0.0000 -19.4536 0.0000
# 2 25.2252 52.4422 9.0509 0.0000 -3.9129 0.0000
# 3 17.7409 9.0509 77.3824 0.0000 0.8366 0.0000
# 4 0.0000 0.0000 0.0000 25.8266 0.0000 -5.1250
# 5 -19.4536 -3.9129 0.8366 0.0000 43.1699 0.0000
# 6 0.0000 0.0000 0.0000 -5.1250 0.0000 25.1094
#
#
#
# Elastic Compliance Matrix: (Units=1/GPa)
#
#
# Indices 1 2 3 4 5 6 
#
# 1 0.012036 -0.005032 -0.002225 0.000000 0.005011 0.000000
# 2 -0.005032 0.021707 -0.001382 0.000000 -0.000273 0.000000
# 3 -0.002225 -0.001382 0.013610 0.000000 -0.001392 0.000000
# 4 0.000000 0.000000 0.000000 0.040354 0.000000 0.008236
# 5 0.005011 -0.000273 -0.001392 0.000000 0.025425 0.000000
# 6 0.000000 0.000000 0.000000 0.008236 0.000000 0.041507
#
#
# Mechanical properties :
#
#
# Convention : Reuss Voigt Hill
#
# Bulk Modulus (GPa) = 33.25054 37.65173 35.45114
# Shear Modulus (GPa) = 27.48135 31.00883 29.24509
#
# Velocity S-wave (km/s) = 3.35151 3.56012 3.45739
# Velocity P-wave (km/s) = 5.34486 5.68233 5.51618
#
# Compressibility (1/GPa) = 0.03007470
#
# Stress axis : x y z
#
# Youngs Moduli (GPa) = 83.08324 46.06793 73.47701
#
# Poissons Ratio (x) = 0.23179 0.16349
# Poissons Ratio (y) = 0.41804 0.10158
# Poissons Ratio (z) = 0.18487 0.06369
#
# Static dielectric constant tensor:
#      x y z
#    x 2.031970 0.000000 -0.056530 
#    y 0.000000 1.965100 0.000000 
#    z -0.056530 0.000000 1.963070 
# 
# From -- ./inp_files/176648.got.cif
#   From: 2010.05.17/outbox.cif.g08.bks.cpg/sg15_89_cif.got.tgz:176648.got - 2010.06.03 18:47:42.
