data_PCOD9281850
_publ_section_title
;
Structure prediction by ZEFSAII (Michael W. Deem and Ramdas Pophale) SiO2 
 PCOD9281850
Probable space group: C 2/C
;
_chemical_formula_sum "Si O2"
_cell_formula_units_Z 40
_cell_length_a 24.127800
_cell_length_b 12.807409
_cell_length_c 5.031052
_cell_angle_alpha 90.000000
_cell_angle_beta 94.711948
_cell_angle_gamma 90.000000
_cell_volume 1549.414189
_symmetry_space_group_name_H-M "C 2/C"
_symmetry_group_IT_number 15
_symmetry_cell_setting 'monoclinic'
loop_
_space_group_symop_operation_xyz
x,y,z
-x,y,1/2-z
-x,-y,-z
x,-y,1/2+z
1/2+x,1/2+y,z
1/2-x,1/2+y,1/2-z
1/2-x,1/2-y,-z
1/2+x,1/2-y,1/2+z
loop_
_atom_site_type_symbol
_atom_site_label
_atom_site_fract_x
_atom_site_fract_y
_atom_site_fract_z
Si Si1 0.943605 0.879537 0.138258
Si Si2 0.201901 0.253601 0.267016
Si Si3 0.684186 0.563930 0.889925
Si Si4 0.376055 0.066344 0.879023
Si Si5 0.580314 0.258492 0.875487
O O1 0.940654 0.780068 0.339540
O O2 0.000000 0.935652 0.250000
O O3 0.883629 0.933300 0.144402
O O4 0.945489 0.838565 0.841852
O O5 0.250000 0.250000 0.500000
O O6 0.204536 0.175114 0.016230
O O7 0.181466 0.369089 0.174435
O O8 0.146073 0.216511 0.400965
O O9 0.702927 0.479020 0.115249
O O10 0.421169 0.146228 0.769906
O O11 0.379363 0.966998 0.685772
#
# Coordination Sequence:
#
# PCOD9281850 Si02
#       5
#     8   8   8   8   8
#     4  11  21  40  66  93 126 175 216 262 328 389
#     4   9  22  41  64  93 129 170 210 265 325 377
#     4  11  24  41  62  95 134 169 215 265 316 381
#     4  10  21  38  65  92 120 164 213 257 315 386
#     4   9  21  38  62  92 127 165 210 265 320 374
#
# _framework density 25.816210000000002
#
# number of rings (size 3 to 8) (size 9 to 14) (size 15 to 20)
#    1.200    0.800    0.000    4.200    0.000    2.400 
#    0.000   14.000    0.000   12.000    0.000    0.000 
#    0.000    0.000    0.000    0.000    0.000    0.000 
#
# Total GULP energy -111853.090744 kJ/mol
# GULP energy per Si atom -5592.654537 kJ/mol
# Density = 2.575745 g / cm^3
# Si number density = 25.816210 Si / 1000 Ang^3
#
#
#
# Elastic Constant Matrix: (Units=GPa)
#
#
# Indices 1 2 3 4 5 6 
#
# 1 85.4152 14.9878 38.5001 0.0000 22.5771 0.0000
# 2 14.9878 95.9427 10.1410 0.0000 9.2553 0.0000
# 3 38.5001 10.1410 98.1930 0.0000 11.3621 0.0000
# 4 0.0000 0.0000 0.0000 58.5413 0.0000 -5.0270
# 5 22.5771 9.2553 11.3621 0.0000 43.5747 0.0000
# 6 0.0000 0.0000 0.0000 -5.0270 0.0000 11.0771
#
#
#
# Elastic Compliance Matrix: (Units=1/GPa)
#
#
# Indices 1 2 3 4 5 6 
#
# 1 0.016145 -0.001305 -0.005423 0.000000 -0.006674 0.000000
# 2 -0.001305 0.010818 -0.000431 0.000000 -0.001509 0.000000
# 3 -0.005423 -0.000431 0.012393 0.000000 -0.000330 0.000000
# 4 0.000000 0.000000 0.000000 0.017775 0.000000 0.008067
# 5 -0.006674 -0.001509 -0.000330 0.000000 0.026814 0.000000
# 6 0.000000 0.000000 0.000000 0.008067 0.000000 0.093938
#
#
# Mechanical properties :
#
#
# Convention : Reuss Voigt Hill
#
# Bulk Modulus (GPa) = 39.93991 45.20097 42.57044
# Shear Modulus (GPa) = 24.93193 37.03339 30.98266
#
# Velocity S-wave (km/s) = 3.11102 3.79159 3.46804
# Velocity P-wave (km/s) = 5.33001 6.05929 5.70631
#
# Compressibility (1/GPa) = 0.02503761
#
# Stress axis : x y z
#
# Youngs Moduli (GPa) = 61.93864 92.43941 80.69010
#
# Poissons Ratio (x) = 0.12064 0.43760
# Poissons Ratio (y) = 0.08084 0.03477
# Poissons Ratio (z) = 0.33591 0.03983
#
# Static dielectric constant tensor:
#      x y z
#    x 2.120080 0.000000 -0.036590 
#    y 0.000000 2.091670 0.000000 
#    z -0.036590 0.000000 1.946690 
# 
# From -- ./inp_files/16803.got.cif
#   From: 2010.05.17/outbox.cif.g08.bks.cpg/sg15_9_cif.got.tgz:16803.got - 2010.06.03 18:47:42.
