data_PCOD9281418
_publ_section_title
;
Structure prediction by ZEFSAII (Michael W. Deem and Ramdas Pophale) SiO2 
 PCOD9281418
Probable space group: C 2/C
;
_chemical_formula_sum "Si O2"
_cell_formula_units_Z 56
_cell_length_a 12.433947
_cell_length_b 8.609503
_cell_length_c 31.391773
_cell_angle_alpha 90.000000
_cell_angle_beta 55.185214
_cell_angle_gamma 90.000000
_cell_volume 2758.970783
_symmetry_space_group_name_H-M "C 2/C"
_symmetry_group_IT_number 15
_symmetry_cell_setting 'monoclinic'
loop_
_space_group_symop_operation_xyz
x,y,z
-x,y,1/2-z
-x,-y,-z
x,-y,1/2+z
1/2+x,1/2+y,z
1/2-x,1/2+y,1/2-z
1/2-x,1/2-y,-z
1/2+x,1/2-y,1/2+z
loop_
_atom_site_type_symbol
_atom_site_label
_atom_site_fract_x
_atom_site_fract_y
_atom_site_fract_z
Si Si1 0.966261 0.063999 0.960391
Si Si2 0.089457 0.070447 0.771251
Si Si3 0.119705 0.081365 0.346467
Si Si4 0.702497 0.913121 0.989687
Si Si5 0.389768 0.075646 0.240400
Si Si6 0.936138 0.588242 0.065779
Si Si7 0.139909 0.554566 0.831720
O O1 0.059947 0.987145 0.903085
O O2 0.816846 0.027756 0.980048
O O3 0.995148 0.246183 0.954562
O O4 0.000000 0.000000 0.000000
O O5 0.037196 0.976434 0.823776
O O6 0.226054 0.006725 0.722154
O O7 0.000000 0.066508 0.750000
O O8 0.121979 0.248960 0.775565
O O9 0.262800 0.027721 0.297345
O O10 0.132748 0.267282 0.347444
O O11 0.678761 0.917415 0.943893
O O12 0.750000 0.750000 0.000000
O O13 0.554102 0.961386 0.036027
O O14 0.500000 0.090331 0.250000
O O15 0.449026 0.968670 0.189537
O O16 0.881113 0.558653 0.124750
#
# Coordination Sequence:
#
# PCOD9281418 Si02
#       7
#     8   8   8   8   8   8   8
#     4  12  25  44  67  95 133 180 224 273 334 397
#     4   9  19  37  61  90 121 165 209 257 323 390
#     4  10  22  38  60  91 129 165 214 269 319 392
#     4  11  24  46  69  95 132 171 228 276 331 390
#     4   9  19  39  61  90 127 167 212 264 328 397
#     4  11  25  44  68  96 133 175 218 281 330 397
#     4  10  21  38  61  92 128 162 214 268 326 389
#
# _framework density 20.297425
#
# number of rings (size 3 to 8) (size 9 to 14) (size 15 to 20)
#    0.000    1.714    1.429    2.143    4.000    2.857 
#    5.143    0.000    0.000    0.000    0.000    0.000 
#    0.000    0.000    0.000    0.000    0.000    0.000 
#
# Total GULP energy -155869.302925 kJ/mol
# GULP energy per Si atom -5566.760819 kJ/mol
# Density = 2.025123 g / cm^3
# Si number density = 20.297425 Si / 1000 Ang^3
#
#
#
# Elastic Constant Matrix: (Units=GPa)
#
#
# Indices 1 2 3 4 5 6 
#
# 1 79.7952 23.9794 37.8073 0.0000 24.2123 0.0000
# 2 23.9794 53.9376 30.6223 0.0000 14.7171 0.0000
# 3 37.8073 30.6223 146.7336 0.0000 17.6374 0.0000
# 4 0.0000 0.0000 0.0000 38.3466 0.0000 1.0934
# 5 24.2123 14.7171 17.6374 0.0000 23.9768 0.0000
# 6 0.0000 0.0000 0.0000 1.0934 0.0000 36.8977
#
#
#
# Elastic Compliance Matrix: (Units=1/GPa)
#
#
# Indices 1 2 3 4 5 6 
#
# 1 0.019436 -0.002851 -0.002484 0.000000 -0.016049 0.000000
# 2 -0.002851 0.024242 -0.003162 0.000000 -0.009675 0.000000
# 3 -0.002484 -0.003162 0.008315 0.000000 -0.001668 0.000000
# 4 0.000000 0.000000 0.000000 0.026100 0.000000 -0.000773
# 5 -0.016049 -0.009675 -0.001668 0.000000 0.065080 0.000000
# 6 0.000000 0.000000 0.000000 -0.000773 0.000000 0.027125
#
#
# Mechanical properties :
#
#
# Convention : Reuss Voigt Hill
#
# Bulk Modulus (GPa) = 28.57135 51.69827 40.13481
# Shear Modulus (GPa) = 25.13098 32.38137 28.75617
#
# Velocity S-wave (km/s) = 3.52253 3.99851 3.76804
# Velocity P-wave (km/s) = 5.53635 6.84420 6.22472
#
# Compressibility (1/GPa) = 0.03500010
#
# Stress axis : x y z
#
# Youngs Moduli (GPa) = 51.45208 41.24998 120.26014
#
# Poissons Ratio (x) = 0.11762 0.29867
# Poissons Ratio (y) = 0.14671 0.38021
# Poissons Ratio (z) = 0.12778 0.13042
#
# Static dielectric constant tensor:
#      x y z
#    x 0.988910 0.000000 -0.497350 
#    y 0.000000 1.783620 0.000000 
#    z -0.497350 0.000000 1.403150 
# 
# From -- ./inp_files/272656.got.cif
#   From: 2010.05.17/outbox.cif.g08.bks.cpg/sg15_137_cif.got.tgz:272656.got - 2010.06.03 18:47:42.
