data_PCOD9281045
_publ_section_title
;
Structure prediction by ZEFSAII (Michael W. Deem and Ramdas Pophale) SiO2 
 PCOD9281045
Probable space group: C 2/C
;
_chemical_formula_sum "Si O2"
_cell_formula_units_Z 56
_cell_length_a 12.213306
_cell_length_b 29.381559
_cell_length_c 14.603459
_cell_angle_alpha 90.000000
_cell_angle_beta 31.154066
_cell_angle_gamma 90.000000
_cell_volume 2711.070369
_symmetry_space_group_name_H-M "C 2/C"
_symmetry_group_IT_number 15
_symmetry_cell_setting 'monoclinic'
loop_
_space_group_symop_operation_xyz
x,y,z
-x,y,1/2-z
-x,-y,-z
x,-y,1/2+z
1/2+x,1/2+y,z
1/2-x,1/2+y,1/2-z
1/2-x,1/2-y,-z
1/2+x,1/2-y,1/2+z
loop_
_atom_site_type_symbol
_atom_site_label
_atom_site_fract_x
_atom_site_fract_y
_atom_site_fract_z
Si Si1 0.317417 0.017797 0.751786
Si Si2 0.072277 0.195507 0.805034
Si Si3 0.249187 0.064534 0.411254
Si Si4 0.122089 0.612606 0.355826
Si Si5 0.314781 0.403006 0.263597
Si Si6 0.230215 0.960866 0.627990
Si Si7 0.337799 0.799044 0.781015
O O1 0.230904 0.067935 0.794944
O O2 0.571492 0.022464 0.575108
O O3 0.222879 0.987879 0.900527
O O4 0.259469 0.990811 0.699432
O O5 0.205015 0.150972 0.732546
O O6 0.159502 0.246429 0.750529
O O7 0.000000 0.190916 0.750000
O O8 0.881169 0.192009 0.012399
O O9 0.500000 0.071175 0.250000
O O10 0.234410 0.093518 0.328707
O O11 0.058080 0.082776 0.611082
O O12 0.224971 0.591595 0.373786
O O13 0.109844 0.665692 0.337484
O O14 0.887727 0.588734 0.525178
O O15 0.000000 0.966808 0.750000
O O16 0.500000 0.804905 0.750000
#
# Coordination Sequence:
#
# PCOD9281045 Si02
#       7
#     8   8   8   8   8   8   8
#     4   9  21  38  54  85 117 155 205 241 293 356
#     4  11  22  33  55  84 116 160 193 233 297 352
#     4  11  23  36  54  85 116 156 200 241 292 348
#     4  10  21  38  57  83 118 152 199 240 294 358
#     4  11  22  36  56  77 118 155 192 246 286 337
#     4   9  19  37  61  85 115 157 201 249 299 343
#     4  11  20  37  54  85 123 152 196 236 288 370
#
# _framework density 20.656047999999998
#
# number of rings (size 3 to 8) (size 9 to 14) (size 15 to 20)
#    0.000    1.714    1.429    5.143    4.000    0.571 
#    0.000    0.000    0.000    0.000    0.000   10.000 
#    0.000    0.000    0.000    0.000    0.000    0.000 
#
# Total GULP energy -156091.613158 kJ/mol
# GULP energy per Si atom -5574.700470 kJ/mol
# Density = 2.060903 g / cm^3
# Si number density = 20.656048 Si / 1000 Ang^3
#
#
#
# Elastic Constant Matrix: (Units=GPa)
#
#
# Indices 1 2 3 4 5 6 
#
# 1 55.3390 36.4442 31.7754 0.0000 -19.1541 0.0000
# 2 36.4442 162.0964 34.8477 0.0000 4.5989 0.0000
# 3 31.7754 34.8477 162.6732 0.0000 -5.9563 0.0000
# 4 0.0000 0.0000 0.0000 16.6787 0.0000 -27.7892
# 5 -19.1541 4.5989 -5.9563 0.0000 32.8538 0.0000
# 6 0.0000 0.0000 0.0000 -27.7892 0.0000 -25.2286
#
#
#
# Elastic Compliance Matrix: (Units=1/GPa)
#
#
# Indices 1 2 3 4 5 6 
#
# 1 0.031078 -0.006653 -0.003974 0.000000 0.018330 0.000000
# 2 -0.006653 0.007936 -0.000587 0.000000 -0.005096 0.000000
# 3 -0.003974 -0.000587 0.007014 0.000000 -0.000963 0.000000
# 4 0.000000 0.000000 0.000000 0.021147 0.000000 -0.023293
# 5 0.018330 -0.005096 -0.000963 0.000000 0.041663 0.000000
# 6 0.000000 0.000000 0.000000 -0.023293 0.000000 -0.013980
#
#
# Mechanical properties :
#
#
# Convention : Reuss Voigt Hill
#
# Bulk Modulus (GPa) = 42.37381 65.13814 53.75598
# Shear Modulus (GPa) = 39.95129 23.33020 31.64075
#
# Velocity S-wave (km/s) = 4.40263 3.36439 3.91806
# Velocity P-wave (km/s) = 6.81196 6.83340 6.82269
#
# Compressibility (1/GPa) = 0.02359948
#
# Stress axis : x y z
#
# Youngs Moduli (GPa) = 32.17697 126.01226 142.57037
#
# Poissons Ratio (x) = 0.83835 0.56661
# Poissons Ratio (y) = 0.21407 0.08369
# Poissons Ratio (z) = 0.12788 0.07397
#
# Static dielectric constant tensor:
#      x y z
#    x 1.720330 0.000000 0.080470 
#    y 0.000000 1.862490 0.000000 
#    z 0.080470 0.000000 1.515930 
# 
# From -- ./inp_files/149247.got.cif
#   From: 2010.05.17/outbox.cif.g08.bks.cpg/sg15_75_cif.got.tgz:149247.got - 2010.06.03 18:47:42.
