data_PCOD9281346
_publ_section_title
;
Structure prediction by ZEFSAII (Michael W. Deem and Ramdas Pophale) SiO2 
 PCOD9281346
Probable space group: C 2/C
;
_chemical_formula_sum "Si O2"
_cell_formula_units_Z 44
_cell_length_a 7.780561
_cell_length_b 19.566121
_cell_length_c 13.971937
_cell_angle_alpha 90.000000
_cell_angle_beta 117.429611
_cell_angle_gamma 90.000000
_cell_volume 1887.897956
_symmetry_space_group_name_H-M "C 2/C"
_symmetry_group_IT_number 15
_symmetry_cell_setting 'monoclinic'
loop_
_space_group_symop_operation_xyz
x,y,z
-x,y,1/2-z
-x,-y,-z
x,-y,1/2+z
1/2+x,1/2+y,z
1/2-x,1/2+y,1/2-z
1/2-x,1/2-y,-z
1/2+x,1/2-y,1/2+z
loop_
_atom_site_type_symbol
_atom_site_label
_atom_site_fract_x
_atom_site_fract_y
_atom_site_fract_z
Si Si1 0.770174 0.580374 0.794294
Si Si2 0.014841 0.218256 0.042883
Si Si3 0.186225 0.644113 0.507070
Si Si4 0.701834 0.067973 0.114346
Si Si5 0.773769 0.390319 0.084179
Si Si6 0.500000 0.318588 0.750000
O O1 0.758606 0.501503 0.820745
O O2 0.696827 0.588786 0.667950
O O3 0.995192 0.603905 0.850376
O O4 0.697379 0.623804 0.866576
O O5 0.172401 0.163567 0.042789
O O6 0.032048 0.223133 0.161324
O O7 0.063475 0.288103 0.001966
O O8 0.811004 0.184146 0.962280
O O9 0.027125 0.586000 0.443866
O O10 0.817810 0.131069 0.188923
O O11 0.773109 0.064944 0.022063
#
# Coordination Sequence:
#
# PCOD9281346 Si02
#       6
#     8   8   8   8   8   4
#     4  10  21  38  61  87 116 159 195 238 299 350
#     4  10  23  40  59  90 118 156 197 242 300 349
#     4  10  22  40  61  85 122 152 196 251 292 351
#     4  10  22  40  59  88 120 156 199 246 295 350
#     4   9  20  38  59  85 119 153 197 239 288 355
#     4  10  24  40  62  88 120 160 200 242 298 358
#
# _framework density 23.306342999999998
#
# number of rings (size 3 to 8) (size 9 to 14) (size 15 to 20)
#    0.000    2.182    0.000    2.182    0.000   18.182 
#    0.000   10.000    0.000    0.000    0.000    0.000 
#    0.000    0.000    0.000    0.000    0.000    0.000 
#
# Total GULP energy -123001.942807 kJ/mol
# GULP energy per Si atom -5590.997400 kJ/mol
# Density = 2.325330 g / cm^3
# Si number density = 23.306343 Si / 1000 Ang^3
#
#
#
# Elastic Constant Matrix: (Units=GPa)
#
#
# Indices 1 2 3 4 5 6 
#
# 1 105.2715 14.5077 33.7257 0.0000 -16.9822 0.0000
# 2 14.5077 78.2219 30.4976 0.0000 -11.3640 0.0000
# 3 33.7257 30.4976 140.7665 0.0000 -29.1651 0.0000
# 4 0.0000 0.0000 0.0000 26.0585 0.0000 -3.6434
# 5 -16.9822 -11.3640 -29.1651 0.0000 30.7177 0.0000
# 6 0.0000 0.0000 0.0000 -3.6434 0.0000 -16.1476
#
#
#
# Elastic Compliance Matrix: (Units=1/GPa)
#
#
# Indices 1 2 3 4 5 6 
#
# 1 0.010780 -0.000788 -0.001541 0.000000 0.004205 0.000000
# 2 -0.000788 0.014225 -0.002357 0.000000 0.002590 0.000000
# 3 -0.001541 -0.002357 0.009494 0.000000 0.007291 0.000000
# 4 0.000000 0.000000 0.000000 0.037202 0.000000 -0.008394
# 5 0.004205 0.002590 0.007291 0.000000 0.042760 0.000000
# 6 0.000000 0.000000 0.000000 -0.008394 0.000000 -0.060035
#
#
# Mechanical properties :
#
#
# Convention : Reuss Voigt Hill
#
# Bulk Modulus (GPa) = 39.79457 53.52465 46.65961
# Shear Modulus (GPa) = 69.27876 24.49433 46.88654
#
# Velocity S-wave (km/s) = 5.45800 3.24539 4.49012
# Velocity P-wave (km/s) = 7.53866 6.08761 6.85165
#
# Compressibility (1/GPa) = 0.02512906
#
# Stress axis : x y z
#
# Youngs Moduli (GPa) = 92.76618 70.29735 105.32707
#
# Poissons Ratio (x) = 0.05537 0.16228
# Poissons Ratio (y) = 0.07307 0.24823
# Poissons Ratio (z) = 0.14293 0.16567
#
# Static dielectric constant tensor:
#      x y z
#    x 1.938480 0.000000 0.000910 
#    y 0.000000 1.850820 0.000000 
#    z 0.000910 0.000000 1.891570 
# 
# From -- ./inp_files/134573.got.cif
#   From: 2010.05.17/outbox.cif.g08.bks.cpg/sg15_68_cif.got.tgz:134573.got - 2010.06.03 18:47:42.
