data_PCOD9281732
_publ_section_title
;
Structure prediction by ZEFSAII (Michael W. Deem and Ramdas Pophale) SiO2 
 PCOD9281732
Probable space group: C 2/C
;
_chemical_formula_sum "Si O2"
_cell_formula_units_Z 64
_cell_length_a 16.350133
_cell_length_b 15.087602
_cell_length_c 23.818080
_cell_angle_alpha 90.000000
_cell_angle_beta 30.918335
_cell_angle_gamma 90.000000
_cell_volume 3018.948631
_symmetry_space_group_name_H-M "C 2/C"
_symmetry_group_IT_number 15
_symmetry_cell_setting 'monoclinic'
loop_
_space_group_symop_operation_xyz
x,y,z
-x,y,1/2-z
-x,-y,-z
x,-y,1/2+z
1/2+x,1/2+y,z
1/2-x,1/2+y,1/2-z
1/2-x,1/2-y,-z
1/2+x,1/2-y,1/2+z
loop_
_atom_site_type_symbol
_atom_site_label
_atom_site_fract_x
_atom_site_fract_y
_atom_site_fract_z
Si Si1 0.222612 0.037462 0.438687
Si Si2 0.900887 0.287864 0.548070
Si Si3 0.054864 0.248021 0.277658
Si Si4 0.632211 0.883425 0.330616
Si Si5 0.529125 0.815134 0.670347
Si Si6 0.419546 0.633879 0.445699
Si Si7 0.981134 0.816229 0.111437
Si Si8 0.259719 0.060812 0.286824
O O1 0.358815 0.100322 0.383714
O O2 0.237138 0.022939 0.363358
O O3 0.063462 0.093834 0.543007
O O4 0.208291 0.943539 0.476640
O O5 0.719215 0.306644 0.672349
O O6 0.888749 0.207077 0.511081
O O7 0.976497 0.247451 0.559966
O O8 0.009990 0.360551 0.452784
O O9 0.078659 0.328268 0.306954
O O10 0.000000 0.280906 0.250000
O O11 0.930252 0.182013 0.379945
O O12 0.807576 0.841732 0.237350
O O13 0.657672 0.985964 0.299899
O O14 0.500000 0.779547 0.750000
O O15 0.577878 0.734632 0.602231
O O16 0.373010 0.855100 0.731739
O O17 0.592481 0.592962 0.359947
#
# Coordination Sequence:
#
# PCOD9281732 Si02
#       8
#     8   8   8   8   8   8   8   8
#     4  11  21  36  63  90 114 160 201 249 302 341
#     4  10  21  38  64  89 113 162 199 246 304 356
#     4  10  23  39  56  85 122 156 193 245 304 362
#     4  10  22  36  65  90 115 156 202 252 293 357
#     4  10  24  37  58  91 127 155 194 255 303 354
#     4  11  21  39  63  86 117 156 204 247 292 357
#     4  11  20  40  61  88 121 156 208 240 300 365
#     4  11  20  39  61  90 118 149 202 250 294 355
#
# _framework density 21.199432999999999
#
# number of rings (size 3 to 8) (size 9 to 14) (size 15 to 20)
#    0.000    1.500    2.500    4.500    1.750    5.500 
#    0.000    4.375    0.000    0.000    0.000    0.000 
#    0.000    0.000    0.000    0.000    0.000    0.000 
#
# Total GULP energy -178815.680341 kJ/mol
# GULP energy per Si atom -5587.990011 kJ/mol
# Density = 2.115118 g / cm^3
# Si number density = 21.199433 Si / 1000 Ang^3
#
#
#
# Elastic Constant Matrix: (Units=GPa)
#
#
# Indices 1 2 3 4 5 6 
#
# 1 51.1771 1.2172 2.3002 0.0004 10.1347 -0.0001
# 2 1.2172 52.0259 12.7774 -0.0004 17.4475 -0.0003
# 3 2.3002 12.7774 67.9692 0.0003 19.0609 -0.0013
# 4 0.0004 -0.0004 0.0003 28.8809 -0.0006 10.9233
# 5 10.1347 17.4475 19.0609 -0.0006 27.7181 0.0007
# 6 -0.0001 -0.0003 -0.0013 10.9233 0.0007 5.8187
#
#
#
# Elastic Compliance Matrix: (Units=1/GPa)
#
#
# Indices 1 2 3 4 5 6 
#
# 1 0.021533 0.002674 0.001795 -0.000005 -0.010790 0.000011
# 2 0.002674 0.024703 -0.000123 -0.000004 -0.016443 0.000010
# 3 0.001795 -0.000123 0.018382 -0.000009 -0.013219 0.000023
# 4 -0.000005 -0.000004 -0.000009 0.119402 0.000018 -0.224148
# 5 -0.010790 -0.016443 -0.013219 0.000018 0.059464 -0.000045
# 6 0.000011 0.000010 0.000023 -0.224148 -0.000045 0.592644
#
#
# Mechanical properties :
#
#
# Convention : Reuss Voigt Hill
#
# Bulk Modulus (GPa) = 13.64089 22.64018 18.14054
# Shear Modulus (GPa) = 5.86942 22.80870 14.33906
#
# Velocity S-wave (km/s) = 1.66574 3.28367 2.60357
# Velocity P-wave (km/s) = 3.18561 5.00794 4.19688
#
# Compressibility (1/GPa) = 0.07330901
#
# Stress axis : x y z
#
# Youngs Moduli (GPa) = 46.44119 40.48056 54.40055
#
# Poissons Ratio (x) = -0.10825 -0.09763
# Poissons Ratio (y) = -0.12419 0.00671
# Poissons Ratio (z) = -0.08334 0.00499
#
# Static dielectric constant tensor:
#      x y z
#    x 1.753430 0.000000 -0.041960 
#    y 0.000000 1.748720 0.000000 
#    z -0.041960 0.000000 1.815890 
# 
# From -- ./inp_files/123541.got.cif
#   From: 2010.05.17/outbox.cif.g08.bks.cpg/sg15_62_cif.got.tgz:123541.got - 2010.06.03 18:47:42.
