data_PCOD9281837
_publ_section_title
;
Structure prediction by ZEFSAII (Michael W. Deem and Ramdas Pophale) SiO2 
 PCOD9281837
Probable space group: C 2/C
;
_chemical_formula_sum "Si O2"
_cell_formula_units_Z 40
_cell_length_a 18.133173
_cell_length_b 18.099412
_cell_length_c 8.105130
_cell_angle_alpha 90.000000
_cell_angle_beta 45.962867
_cell_angle_gamma 90.000000
_cell_volume 1912.319105
_symmetry_space_group_name_H-M "C 2/C"
_symmetry_group_IT_number 15
_symmetry_cell_setting 'monoclinic'
loop_
_space_group_symop_operation_xyz
x,y,z
-x,y,1/2-z
-x,-y,-z
x,-y,1/2+z
1/2+x,1/2+y,z
1/2-x,1/2+y,1/2-z
1/2-x,1/2-y,-z
1/2+x,1/2-y,1/2+z
loop_
_atom_site_type_symbol
_atom_site_label
_atom_site_fract_x
_atom_site_fract_y
_atom_site_fract_z
Si Si1 0.500000 0.483662 0.250000
Si Si2 0.114093 0.907356 0.362390
Si Si3 0.660320 0.953895 0.573611
Si Si4 0.646842 0.241360 0.270521
Si Si5 0.612254 0.896692 0.004264
Si Si6 0.000000 0.654603 0.250000
O O1 0.532755 0.432378 0.350392
O O2 0.409661 0.539325 0.446826
O O3 0.112212 0.820121 0.394214
O O4 0.225365 0.924688 0.116745
O O5 0.612210 0.936542 0.825993
O O6 0.590534 0.903280 0.560167
O O7 0.661601 0.040675 0.540019
O O8 0.666174 0.181018 0.383384
O O9 0.555539 0.206644 0.298831
O O10 0.750000 0.250000 0.000000
O O11 0.500000 0.882301 0.250000
#
# Coordination Sequence:
#
# PCOD9281837 Si02
#       6
#     4   8   8   8   8   4
#     4  10  25  42  69  88 120 174 218 270 291 392
#     4  11  22  45  65  91 125 168 219 257 324 369
#     4  11  22  40  68  93 130 168 216 261 323 385
#     4  11  23  41  62  91 130 172 202 262 321 377
#     4  11  23  38  64  96 131 166 209 263 318 378
#     4  10  21  38  65  90 126 170 210 252 323 374
#
# _framework density 20.917013000000001
#
# number of rings (size 3 to 8) (size 9 to 14) (size 15 to 20)
#    0.000    1.200    5.000    2.400    4.200    0.000 
#    0.000    0.000    0.000    8.400    0.000    0.000 
#    0.000    0.000    0.000    0.000    0.000    0.000 
#
# Total GULP energy -111563.831637 kJ/mol
# GULP energy per Si atom -5578.191582 kJ/mol
# Density = 2.086940 g / cm^3
# Si number density = 20.917013 Si / 1000 Ang^3
#
#
#
# Elastic Constant Matrix: (Units=GPa)
#
#
# Indices 1 2 3 4 5 6 
#
# 1 19.0294 8.3963 3.0615 0.0000 -8.5405 0.0000
# 2 8.3963 186.0651 32.7168 0.0000 4.9271 0.0000
# 3 3.0615 32.7168 94.6792 0.0000 -0.2339 0.0000
# 4 0.0000 0.0000 0.0000 38.7462 0.0000 10.8281
# 5 -8.5405 4.9271 -0.2339 0.0000 24.7093 0.0000
# 6 0.0000 0.0000 0.0000 10.8281 0.0000 -5.2731
#
#
#
# Elastic Compliance Matrix: (Units=1/GPa)
#
#
# Indices 1 2 3 4 5 6 
#
# 1 0.064473 -0.003365 -0.000865 0.000000 0.022947 0.000000
# 2 -0.003365 0.005931 -0.001947 0.000000 -0.002364 0.000000
# 3 -0.000865 -0.001947 0.011263 0.000000 0.000196 0.000000
# 4 0.000000 0.000000 0.000000 0.016398 0.000000 0.033674
# 5 0.022947 -0.002364 0.000196 0.000000 0.048875 0.000000
# 6 0.000000 0.000000 0.000000 0.033674 0.000000 -0.120494
#
#
# Mechanical properties :
#
#
# Convention : Reuss Voigt Hill
#
# Bulk Modulus (GPa) = 14.42713 43.12477 28.77595
# Shear Modulus (GPa) = 80.76880 28.67643 54.72262
#
# Velocity S-wave (km/s) = 6.22075 3.70667 5.12041
# Velocity P-wave (km/s) = 7.64914 6.24348 6.98177
#
# Compressibility (1/GPa) = 0.06931384
#
# Stress axis : x y z
#
# Youngs Moduli (GPa) = 15.51034 168.60033 88.78557
#
# Poissons Ratio (x) = 0.56732 0.07683
# Poissons Ratio (y) = 0.05219 0.17283
# Poissons Ratio (z) = 0.01342 0.32819
#
# Static dielectric constant tensor:
#      x y z
#    x 1.802500 0.000000 0.035490 
#    y 0.000000 1.782420 0.000000 
#    z 0.035490 0.000000 1.757530 
# 
# From -- ./inp_files/29393.got.cif
#   From: 2010.05.17/outbox.cif.g08.bks.cpg/sg15_15_cif.got.tgz:29393.got - 2010.06.03 18:47:42.
