data_PCOD9281946
_publ_section_title
;
Structure prediction by ZEFSAII (Michael W. Deem and Ramdas Pophale) SiO2 
 PCOD9281946
Probable space group: C 2/C
;
_chemical_formula_sum "Si O2"
_cell_formula_units_Z 32
_cell_length_a 9.251570
_cell_length_b 17.975037
_cell_length_c 9.413113
_cell_angle_alpha 90.000000
_cell_angle_beta 68.168980
_cell_angle_gamma 90.000000
_cell_volume 1453.113926
_symmetry_space_group_name_H-M "C 2/C"
_symmetry_group_IT_number 15
_symmetry_cell_setting 'monoclinic'
loop_
_space_group_symop_operation_xyz
x,y,z
-x,y,1/2-z
-x,-y,-z
x,-y,1/2+z
1/2+x,1/2+y,z
1/2-x,1/2+y,1/2-z
1/2-x,1/2-y,-z
1/2+x,1/2-y,1/2+z
loop_
_atom_site_type_symbol
_atom_site_label
_atom_site_fract_x
_atom_site_fract_y
_atom_site_fract_z
Si Si1 0.856705 0.468954 0.693833
Si Si2 0.041344 0.926560 0.900592
Si Si3 0.957572 0.617843 0.601094
Si Si4 0.934231 0.229484 0.433876
O O1 0.727020 0.423901 0.824644
O O2 0.822949 0.554545 0.657676
O O3 0.000000 0.473629 0.750000
O O4 0.907883 0.424593 0.535390
O O5 0.000000 0.937850 0.750000
O O6 0.962847 0.851854 0.988814
O O7 0.000000 0.000000 0.000000
O O8 0.000000 0.629543 0.750000
O O9 0.963749 0.702062 0.540142
O O10 0.750000 0.250000 0.500000
O O11 0.000000 0.218692 0.250000
#
# Coordination Sequence:
#
# PCOD9281946 Si02
#       4
#     8   8   8   8
#     4  10  22  39  63  93 132 170 215 266 327 394
#     4  11  26  42  64  96 133 165 222 273 324 382
#     4   9  19  35  66  87 119 169 223 250 319 383
#     4  10  21  38  66  94 127 170 224 264 314 395
#
# _framework density 22.021674000000001
#
# number of rings (size 3 to 8) (size 9 to 14) (size 15 to 20)
#    0.000    2.000    0.000    3.000   21.000    0.000 
#    0.000    2.500    0.000    0.000    0.000    0.000 
#    0.000    0.000    0.000    0.000    0.000    0.000 
#
# Total GULP energy -89099.738704 kJ/mol
# GULP energy per Si atom -5568.733669 kJ/mol
# Density = 2.197155 g / cm^3
# Si number density = 22.021674 Si / 1000 Ang^3
#
#
#
# Elastic Constant Matrix: (Units=GPa)
#
#
# Indices 1 2 3 4 5 6 
#
# 1 46.1020 25.2866 11.3993 0.0000 -14.4754 0.0000
# 2 25.2866 231.8939 32.7682 0.0000 -1.3731 0.0000
# 3 11.3993 32.7682 93.4627 0.0000 -11.4350 0.0000
# 4 0.0000 0.0000 0.0000 53.5357 0.0000 1.7809
# 5 -14.4754 -1.3731 -11.4350 0.0000 33.0941 0.0000
# 6 0.0000 0.0000 0.0000 1.7809 0.0000 26.3941
#
#
#
# Elastic Compliance Matrix: (Units=1/GPa)
#
#
# Indices 1 2 3 4 5 6 
#
# 1 0.026999 -0.002744 -0.000940 0.000000 0.011371 0.000000
# 2 -0.002744 0.004820 -0.001543 0.000000 -0.001533 0.000000
# 3 -0.000940 -0.001543 0.011796 0.000000 0.003601 0.000000
# 4 0.000000 0.000000 0.000000 0.018721 0.000000 -0.001263
# 5 0.011371 -0.001533 0.003601 0.000000 0.036371 0.000000
# 6 0.000000 0.000000 0.000000 -0.001263 0.000000 0.037972
#
#
# Mechanical properties :
#
#
# Convention : Reuss Voigt Hill
#
# Bulk Modulus (GPa) = 30.15553 56.70740 43.43146
# Shear Modulus (GPa) = 31.60830 42.73842 37.17336
#
# Velocity S-wave (km/s) = 3.79268 4.41017 4.11303
# Velocity P-wave (km/s) = 5.73607 7.19301 6.50546
#
# Compressibility (1/GPa) = 0.03316142
#
# Stress axis : x y z
#
# Youngs Moduli (GPa) = 37.03892 207.44812 84.77746
#
# Poissons Ratio (x) = 0.56922 0.07967
# Poissons Ratio (y) = 0.10163 0.13081
# Poissons Ratio (z) = 0.03481 0.32009
#
# Static dielectric constant tensor:
#      x y z
#    x 1.944320 0.000000 -0.183560 
#    y 0.000000 1.950600 0.000000 
#    z -0.183560 0.000000 1.974110 
# 
# From -- ./inp_files/87002.got.cif
#   From: 2010.05.17/outbox.cif.g08.bks.cpg/sg15_44_cif.got.tgz:87002.got - 2010.06.03 18:47:42.
