data_PCOD9281143
_publ_section_title
;
Structure prediction by ZEFSAII (Michael W. Deem and Ramdas Pophale) SiO2 
 PCOD9281143
Probable space group: C 2/C
;
_chemical_formula_sum "Si O2"
_cell_formula_units_Z 64
_cell_length_a 30.798447
_cell_length_b 28.438887
_cell_length_c 9.044282
_cell_angle_alpha 90.000000
_cell_angle_beta 151.768786
_cell_angle_gamma 90.000000
_cell_volume 3747.183354
_symmetry_space_group_name_H-M "C 2/C"
_symmetry_group_IT_number 15
_symmetry_cell_setting 'monoclinic'
loop_
_space_group_symop_operation_xyz
x,y,z
-x,y,1/2-z
-x,-y,-z
x,-y,1/2+z
1/2+x,1/2+y,z
1/2-x,1/2+y,1/2-z
1/2-x,1/2-y,-z
1/2+x,1/2-y,1/2+z
loop_
_atom_site_type_symbol
_atom_site_label
_atom_site_fract_x
_atom_site_fract_y
_atom_site_fract_z
Si Si1 0.607450 0.050649 0.896206
Si Si2 0.392486 0.050632 0.251394
Si Si3 0.719709 0.134170 0.084316
Si Si4 0.106991 0.173796 0.747354
Si Si5 0.893145 0.826219 0.605958
Si Si6 0.890232 0.716159 0.248690
Si Si7 0.109632 0.283826 0.406686
Si Si8 0.219845 0.365860 0.234245
O O1 0.499959 0.062898 0.548007
O O2 0.623779 0.000015 0.871270
O O3 0.621461 0.048080 0.114339
O O4 0.671168 0.090065 0.016134
O O5 0.328688 0.090026 0.988796
O O6 0.822343 0.142142 0.451964
O O7 0.663389 0.180403 0.965597
O O8 0.717911 0.128894 0.903685
O O9 0.118155 0.166964 0.604390
O O10 0.127446 0.229049 0.837799
O O11 0.000081 0.165631 0.462618
O O12 0.872718 0.770967 0.573820
O O13 0.822528 0.857895 0.482794
O O14 0.864333 0.707714 0.343125
O O15 0.999929 0.708881 0.566231
O O16 0.836412 0.680373 0.984981
#
# Coordination Sequence:
#
# PCOD9281143 Si02
#       8
#     8   8   8   8   8   8   8   8
#     4  10  21  38  59  81 106 135 168 209 256 306
#     4  10  21  38  59  81 106 135 168 209 256 306
#     4  12  23  32  49  78 109 140 173 210 256 311
#     4   9  19  36  55  73  98 137 182 223 261 302
#     4   9  19  36  55  73  98 137 182 223 261 302
#     4   9  18  33  52  74 102 138 179 219 258 303
#     4   9  18  33  52  74 102 138 179 219 258 303
#     4  12  23  32  49  78 109 140 173 210 256 311
#
# _framework density 17.079495000000001
#
# number of rings (size 3 to 8) (size 9 to 14) (size 15 to 20)
#    0.000    2.000    0.000    6.000    0.000    9.500 
#    0.000    2.500    0.000    0.750    0.000    0.000 
#    0.000    0.000    0.000    0.000    0.000    0.000 
#
# Total GULP energy -178792.945656 kJ/mol
# GULP energy per Si atom -5587.279552 kJ/mol
# Density = 1.704062 g / cm^3
# Si number density = 17.079495 Si / 1000 Ang^3
#
#
#
# Elastic Constant Matrix: (Units=GPa)
#
#
# Indices 1 2 3 4 5 6 
#
# 1 108.6107 81.8274 81.3462 0.0000 -1.7975 0.0000
# 2 81.8274 93.4862 83.3550 0.0000 1.4878 0.0000
# 3 81.3462 83.3550 104.4305 0.0000 -0.3390 0.0000
# 4 0.0000 0.0000 0.0000 30.3889 0.0000 1.9013
# 5 -1.7975 1.4878 -0.3390 0.0000 13.1296 0.0000
# 6 0.0000 0.0000 0.0000 1.9013 0.0000 27.8380
#
#
#
# Elastic Compliance Matrix: (Units=1/GPa)
#
#
# Indices 1 2 3 4 5 6 
#
# 1 0.029310 -0.018763 -0.007836 0.000000 0.005937 0.000000
# 2 -0.018763 0.049439 -0.024875 0.000000 -0.008813 0.000000
# 3 -0.007836 -0.024875 0.035543 0.000000 0.002664 0.000000
# 4 0.000000 0.000000 0.000000 0.033048 0.000000 -0.002257
# 5 0.005937 -0.008813 0.002664 0.000000 0.078044 0.000000
# 6 0.000000 0.000000 0.000000 -0.002257 0.000000 0.036076
#
#
# Mechanical properties :
#
#
# Convention : Reuss Voigt Hill
#
# Bulk Modulus (GPa) = 88.14255 88.84275 88.49265
# Shear Modulus (GPa) = 13.58001 18.27122 15.92562
#
# Velocity S-wave (km/s) = 2.82282 3.27429 3.05690
# Velocity P-wave (km/s) = 7.89580 8.15014 8.02398
#
# Compressibility (1/GPa) = 0.01134526
#
# Stress axis : x y z
#
# Youngs Moduli (GPa) = 34.11828 20.22693 28.13509
#
# Poissons Ratio (x) = 0.37951 0.22045
# Poissons Ratio (y) = 0.64015 0.69986
# Poissons Ratio (z) = 0.26734 0.50315
#
# Static dielectric constant tensor:
#      x y z
#    x 1.567470 0.000000 0.010230 
#    y 0.000000 1.552490 0.000000 
#    z 0.010230 0.000000 1.581230 
# 
# From -- ./inp_files/70977.got.cif
#   From: 2010.05.17/outbox.cif.g08.bks.cpg/sg15_36_cif.got.tgz:70977.got - 2010.06.03 18:47:42.
