data_PCOD9281238
_publ_section_title
;
Structure prediction by ZEFSAII (Michael W. Deem and Ramdas Pophale) SiO2 
 PCOD9281238
Probable space group: C 2/C
;
_chemical_formula_sum "Si O2"
_cell_formula_units_Z 48
_cell_length_a 26.957289
_cell_length_b 7.976534
_cell_length_c 9.341585
_cell_angle_alpha 90.000000
_cell_angle_beta 88.445558
_cell_angle_gamma 90.000000
_cell_volume 2007.941962
_symmetry_space_group_name_H-M "C 2/C"
_symmetry_group_IT_number 15
_symmetry_cell_setting 'monoclinic'
loop_
_space_group_symop_operation_xyz
x,y,z
-x,y,1/2-z
-x,-y,-z
x,-y,1/2+z
1/2+x,1/2+y,z
1/2-x,1/2+y,1/2-z
1/2-x,1/2-y,-z
1/2+x,1/2-y,1/2+z
loop_
_atom_site_type_symbol
_atom_site_label
_atom_site_fract_x
_atom_site_fract_y
_atom_site_fract_z
Si Si1 0.444057 0.858712 0.746662
Si Si2 0.053099 0.007063 0.919584
Si Si3 0.387164 0.012364 0.494762
Si Si4 0.394301 0.341011 0.827410
Si Si5 0.282475 0.331352 0.786926
Si Si6 0.773795 0.482072 0.958415
O O1 0.500000 0.926492 0.750000
O O2 0.446276 0.676539 0.675382
O O3 0.408911 0.968420 0.646982
O O4 0.420491 0.857385 0.905270
O O5 0.066733 0.864183 0.804336
O O6 0.092467 0.033941 0.043715
O O7 0.000000 0.000000 0.000000
O O8 0.393090 0.839291 0.404148
O O9 0.329668 0.062564 0.500872
O O10 0.340140 0.376207 0.767778
O O11 0.253333 0.349134 0.640801
O O12 0.278641 0.148004 0.857278
O O13 0.257847 0.455718 0.904678
#
# Coordination Sequence:
#
# PCOD9281238 Si02
#       6
#     8   8   8   8   8   8
#     4  11  23  40  62  88 118 158 200 243 296 352
#     4  11  23  41  62  87 118 155 199 246 297 352
#     4  10  23  39  59  88 122 156 194 245 296 351
#     4  10  22  39  60  86 118 155 198 245 295 352
#     4  10  21  38  60  86 118 157 197 243 295 350
#     4  10  21  39  60  87 121 156 197 243 295 351
#
# _framework density 23.905073999999999
#
# number of rings (size 3 to 8) (size 9 to 14) (size 15 to 20)
#    0.000    1.667    0.000    4.000    0.000   10.000 
#    0.000    0.000    0.000    0.000    0.000    0.000 
#    0.000    0.000    0.000    0.000    0.000    0.000 
#
# Total GULP energy -134475.374357 kJ/mol
# GULP energy per Si atom -5603.140598 kJ/mol
# Density = 2.385066 g / cm^3
# Si number density = 23.905074 Si / 1000 Ang^3
#
#
#
# Elastic Constant Matrix: (Units=GPa)
#
#
# Indices 1 2 3 4 5 6 
#
# 1 112.6606 1.3143 14.6947 0.0000 16.9955 0.0000
# 2 1.3143 44.5724 6.2792 0.0000 3.1683 0.0000
# 3 14.6947 6.2792 105.3813 0.0000 13.1573 0.0000
# 4 0.0000 0.0000 0.0000 30.8187 0.0000 4.2453
# 5 16.9955 3.1683 13.1573 0.0000 52.7818 0.0000
# 6 0.0000 0.0000 0.0000 4.2453 0.0000 18.9309
#
#
#
# Elastic Compliance Matrix: (Units=1/GPa)
#
#
# Indices 1 2 3 4 5 6 
#
# 1 0.009424 0.000057 -0.000968 0.000000 -0.002796 0.000000
# 2 0.000057 0.022683 -0.001225 0.000000 -0.001075 0.000000
# 3 -0.000968 -0.001225 0.009959 0.000000 -0.002097 0.000000
# 4 0.000000 0.000000 0.000000 0.033482 0.000000 -0.007508
# 5 -0.002796 -0.001075 -0.002097 0.000000 0.020434 0.000000
# 6 0.000000 0.000000 0.000000 -0.007508 0.000000 0.054507
#
#
# Mechanical properties :
#
#
# Convention : Reuss Voigt Hill
#
# Bulk Modulus (GPa) = 26.46002 34.13228 30.29615
# Shear Modulus (GPa) = 29.87585 36.52803 33.20194
#
# Velocity S-wave (km/s) = 3.53904 3.91326 3.73085
# Velocity P-wave (km/s) = 5.27187 5.89300 5.59107
#
# Compressibility (1/GPa) = 0.03779286
#
# Stress axis : x y z
#
# Youngs Moduli (GPa) = 106.11534 44.08644 100.40922
#
# Poissons Ratio (x) = -0.00253 0.09723
# Poissons Ratio (y) = -0.00608 0.12304
# Poissons Ratio (z) = 0.10276 0.05402
#
# Static dielectric constant tensor:
#      x y z
#    x 1.859200 0.000000 0.012300 
#    y 0.000000 1.963090 0.000000 
#    z 0.012300 0.000000 1.887050 
# 
# From -- ./inp_files/68594.got.cif
#   From: 2010.05.17/outbox.cif.g08.bks.cpg/sg15_35_cif.got.tgz:68594.got - 2010.06.03 18:47:42.
