data_PCOD9281564
_publ_section_title
;
Structure prediction by ZEFSAII (Michael W. Deem and Ramdas Pophale) SiO2 
 PCOD9281564
Probable space group: C 2/C
;
_chemical_formula_sum "Si O2"
_cell_formula_units_Z 40
_cell_length_a 12.897835
_cell_length_b 21.119700
_cell_length_c 9.124527
_cell_angle_alpha 90.000000
_cell_angle_beta 54.100291
_cell_angle_gamma 90.000000
_cell_volume 2013.371253
_symmetry_space_group_name_H-M "C 2/C"
_symmetry_group_IT_number 15
_symmetry_cell_setting 'monoclinic'
loop_
_space_group_symop_operation_xyz
x,y,z
-x,y,1/2-z
-x,-y,-z
x,-y,1/2+z
1/2+x,1/2+y,z
1/2-x,1/2+y,1/2-z
1/2-x,1/2-y,-z
1/2+x,1/2-y,1/2+z
loop_
_atom_site_type_symbol
_atom_site_label
_atom_site_fract_x
_atom_site_fract_y
_atom_site_fract_z
Si Si1 0.870874 0.687231 0.905156
Si Si2 0.643264 0.337778 0.099001
Si Si3 0.748762 0.250561 0.245292
Si Si4 0.655956 0.585399 0.122089
Si Si5 0.866367 0.969662 0.552355
O O1 0.850086 0.736262 0.789533
O O2 0.000000 0.652227 0.750000
O O3 0.870149 0.722143 0.063163
O O4 0.744679 0.644145 0.011910
O O5 0.500000 0.314782 0.250000
O O6 0.719702 0.314876 0.179578
O O7 0.702708 0.300281 0.912511
O O8 0.631371 0.411631 0.065435
O O9 0.500000 0.597092 0.250000
O O10 0.691586 0.560192 0.253738
O O11 0.691375 0.529786 0.980289
O O12 0.000000 0.000000 0.500000
#
# Coordination Sequence:
#
# PCOD9281564 Si02
#       5
#     8   8   8   8   8
#     4  11  23  42  62  91 129 167 214 254 318 385
#     4  11  21  38  63  91 125 157 213 266 319 376
#     4  10  24  38  61  89 124 173 207 258 314 386
#     4  10  22  38  65  92 122 159 215 271 320 370
#     4  10  21  38  62  97 120 158 210 273 319 369
#
# _framework density 19.867176000000001
#
# number of rings (size 3 to 8) (size 9 to 14) (size 15 to 20)
#    0.000    1.600    2.000    3.000    8.400    3.200 
#    0.000    1.000    0.000    0.000    0.000    0.000 
#    0.000    0.000    0.000    0.000    0.000    0.000 
#
# Total GULP energy -111412.016848 kJ/mol
# GULP energy per Si atom -5570.600842 kJ/mol
# Density = 1.982196 g / cm^3
# Si number density = 19.867176 Si / 1000 Ang^3
#
#
#
# Elastic Constant Matrix: (Units=GPa)
#
#
# Indices 1 2 3 4 5 6 
#
# 1 39.1666 40.8477 40.8776 0.0000 8.2853 0.0000
# 2 40.8477 110.0074 34.2540 0.0000 8.8149 0.0000
# 3 40.8776 34.2540 120.0294 0.0000 5.8770 0.0000
# 4 0.0000 0.0000 0.0000 13.3960 0.0000 13.9443
# 5 8.2853 8.8149 5.8770 0.0000 36.2545 0.0000
# 6 0.0000 0.0000 0.0000 13.9443 0.0000 30.3358
#
#
#
# Elastic Compliance Matrix: (Units=1/GPa)
#
#
# Indices 1 2 3 4 5 6 
#
# 1 0.061538 -0.017397 -0.015636 0.000000 -0.007299 0.000000
# 2 -0.017397 0.015038 0.001630 0.000000 0.000055 0.000000
# 3 -0.015636 0.001630 0.013140 0.000000 0.001047 0.000000
# 4 0.000000 0.000000 0.000000 0.143138 0.000000 -0.065795
# 5 -0.007299 0.000055 0.001047 0.000000 0.029068 0.000000
# 6 0.000000 0.000000 0.000000 -0.065795 0.000000 0.063208
#
#
# Mechanical properties :
#
#
# Convention : Reuss Voigt Hill
#
# Bulk Modulus (GPa) = 37.15821 55.68469 46.42145
# Shear Modulus (GPa) = 12.59753 26.21219 19.40486
#
# Velocity S-wave (km/s) = 2.52084 3.63626 3.12866
# Velocity P-wave (km/s) = 5.21697 6.76159 6.03887
#
# Compressibility (1/GPa) = 0.02691195
#
# Stress axis : x y z
#
# Youngs Moduli (GPa) = 16.25012 66.49864 76.10565
#
# Poissons Ratio (x) = 1.15686 1.18995
# Poissons Ratio (y) = 0.28270 -0.12409
# Poissons Ratio (z) = 0.25408 -0.10842
#
# Static dielectric constant tensor:
#      x y z
#    x 1.742610 0.000000 -0.003080 
#    y 0.000000 1.750070 0.000000 
#    z -0.003080 0.000000 1.734360 
# 
# From -- ./inp_files/40545.got.cif
#   From: 2010.05.17/outbox.cif.g08.bks.cpg/sg15_21_cif.got.tgz:40545.got - 2010.06.03 18:47:42.
