data_PCOD9281496
_publ_section_title
;
Structure prediction by ZEFSAII (Michael W. Deem and Ramdas Pophale) SiO2 
 PCOD9281496
Probable space group: C 2/C
;
_chemical_formula_sum "Si O2"
_cell_formula_units_Z 48
_cell_length_a 16.360108
_cell_length_b 8.612038
_cell_length_c 30.015746
_cell_angle_alpha 90.000000
_cell_angle_beta 149.926302
_cell_angle_gamma 90.000000
_cell_volume 2119.226495
_symmetry_space_group_name_H-M "C 2/C"
_symmetry_group_IT_number 15
_symmetry_cell_setting 'monoclinic'
loop_
_space_group_symop_operation_xyz
x,y,z
-x,y,1/2-z
-x,-y,-z
x,-y,1/2+z
1/2+x,1/2+y,z
1/2-x,1/2+y,1/2-z
1/2-x,1/2-y,-z
1/2+x,1/2-y,1/2+z
loop_
_atom_site_type_symbol
_atom_site_label
_atom_site_fract_x
_atom_site_fract_y
_atom_site_fract_z
Si Si1 0.332154 0.408190 0.925297
Si Si2 0.275179 0.377023 0.568762
Si Si3 0.684958 0.050933 0.773925
Si Si4 0.817630 0.531832 0.567159
Si Si5 0.661349 0.392519 0.733783
Si Si6 0.804306 0.087474 0.665898
O O1 0.209139 0.510519 0.836791
O O2 0.281712 0.403180 0.953196
O O3 0.308579 0.235378 0.895962
O O4 0.500000 0.500000 0.000000
O O5 0.184829 0.469912 0.487084
O O6 0.236151 0.195411 0.544515
O O7 0.466841 0.385405 0.647158
O O8 0.258209 0.452215 0.609019
O O9 0.500350 0.026949 0.671280
O O10 0.729043 0.227550 0.782377
O O11 0.791590 0.936154 0.793876
O O12 0.717517 0.524781 0.794632
O O13 0.000000 0.122859 0.750000
#
# Coordination Sequence:
#
# PCOD9281496 Si02
#       6
#     8   8   8   8   8   8
#     4  12  25  39  58  85 118 154 199 247 290 344
#     4   9  20  39  62  88 118 152 193 238 290 349
#     4  11  22  38  60  86 118 156 195 239 293 348
#     4  10  21  39  61  85 117 155 191 237 295 351
#     4  10  21  38  62  90 120 153 193 239 289 349
#     4  10  21  39  62  87 118 155 195 241 291 345
#
# _framework density 22.649774000000001
#
# number of rings (size 3 to 8) (size 9 to 14) (size 15 to 20)
#    0.000    1.667    0.000    4.500    0.000    8.667 
#    0.000    2.500    0.000    0.000    0.000    0.000 
#    0.000    0.000    0.000    0.000    0.000    0.000 
#
# Total GULP energy -134205.656371 kJ/mol
# GULP energy per Si atom -5591.902349 kJ/mol
# Density = 2.259822 g / cm^3
# Si number density = 22.649774 Si / 1000 Ang^3
#
#
#
# Elastic Constant Matrix: (Units=GPa)
#
#
# Indices 1 2 3 4 5 6 
#
# 1 51.0471 -6.7803 -7.9651 0.0000 -13.3235 0.0000
# 2 -6.7803 59.7652 -6.0561 -0.0001 7.0213 0.0001
# 3 -7.9651 -6.0561 64.4542 -0.0002 -21.2719 0.0000
# 4 0.0000 -0.0001 -0.0002 25.8584 0.0000 -12.3050
# 5 -13.3235 7.0213 -21.2719 0.0000 23.6096 0.0000
# 6 0.0000 0.0001 0.0000 -12.3050 0.0000 25.8976
#
#
#
# Elastic Compliance Matrix: (Units=1/GPa)
#
#
# Indices 1 2 3 4 5 6 
#
# 1 0.028904 0.001353 0.012737 0.000000 0.027385 0.000000
# 2 0.001353 0.017402 0.000493 0.000000 -0.003968 0.000000
# 3 0.012737 0.000493 0.027694 0.000000 0.031993 0.000000
# 4 0.000000 0.000000 0.000000 0.049970 0.000000 0.023743
# 5 0.027385 -0.003968 0.031993 0.000000 0.087815 0.000000
# 6 0.000000 0.000000 0.000000 0.023743 0.000000 0.049895
#
#
# Mechanical properties :
#
#
# Convention : Reuss Voigt Hill
#
# Bulk Modulus (GPa) = 9.69328 14.85148 12.27238
# Shear Modulus (GPa) = 18.73335 28.14433 23.43884
#
# Velocity S-wave (km/s) = 2.87903 3.52886 3.22038
# Velocity P-wave (km/s) = 3.91672 4.81405 4.38838
#
# Compressibility (1/GPa) = 0.10316426
#
# Stress axis : x y z
#
# Youngs Moduli (GPa) = 34.59688 57.46569 36.10908
#
# Poissons Ratio (x) = -0.07773 -0.45992
# Poissons Ratio (y) = -0.04680 -0.01779
# Poissons Ratio (z) = -0.44066 -0.02831
#
# Static dielectric constant tensor:
#      x y z
#    x 1.791090 0.000000 0.021730 
#    y 0.000000 1.853830 0.000000 
#    z 0.021730 0.000000 1.832900 
# 
# From -- ./inp_files/224692.got.cif
#   From: 2010.05.17/outbox.cif.g08.bks.cpg/sg15_113_cif.got.tgz:224692.got - 2010.06.03 18:47:42.
