data_PCOD9281665
_publ_section_title
;
Structure prediction by ZEFSAII (Michael W. Deem and Ramdas Pophale) SiO2 
 PCOD9281665
Probable space group: C 2/C
;
_chemical_formula_sum "Si O2"
_cell_formula_units_Z 48
_cell_length_a 31.878737
_cell_length_b 9.397566
_cell_length_c 9.078467
_cell_angle_alpha 90.000000
_cell_angle_beta 64.376325
_cell_angle_gamma 90.000000
_cell_volume 2452.273360
_symmetry_space_group_name_H-M "C 2/C"
_symmetry_group_IT_number 15
_symmetry_cell_setting 'monoclinic'
loop_
_space_group_symop_operation_xyz
x,y,z
-x,y,1/2-z
-x,-y,-z
x,-y,1/2+z
1/2+x,1/2+y,z
1/2-x,1/2+y,1/2-z
1/2-x,1/2-y,-z
1/2+x,1/2-y,1/2+z
loop_
_atom_site_type_symbol
_atom_site_label
_atom_site_fract_x
_atom_site_fract_y
_atom_site_fract_z
Si Si1 0.500000 0.446333 0.250000
Si Si2 0.156525 0.595318 0.695973
Si Si3 0.784066 0.851211 0.853688
Si Si4 0.597094 0.075538 0.503354
Si Si5 0.749500 0.902657 0.578386
Si Si6 0.036244 0.814306 0.485074
Si Si7 0.500000 0.100682 0.750000
O O1 0.527617 0.355875 0.330194
O O2 0.468072 0.548799 0.401503
O O3 0.171333 0.751310 0.728012
O O4 0.200186 0.485538 0.637877
O O5 0.116049 0.534616 0.858462
O O6 0.286968 0.496106 0.940597
O O7 0.862998 0.602073 0.938641
O O8 0.761971 0.884692 0.729833
O O9 0.750000 0.750000 0.000000
O O10 0.582297 0.223112 0.447285
O O11 0.548868 0.023830 0.653355
O O12 0.750000 0.750000 0.500000
O O13 0.997385 0.704943 0.611124
#
# Coordination Sequence:
#
# PCOD9281665 Si02
#       7
#     4   8   8   8   8   8   4
#     4   9  14  34  65  82 118 167 225 252 318 391
#     4  11  22  40  64  88 130 166 209 274 313 382
#     4  10  21  38  63  94 122 164 205 252 326 392
#     4  10  21  40  55  89 126 162 220 271 313 370
#     4  11  21  39  67  93 124 164 207 259 330 396
#     4   8  17  34  59  88 118 165 217 260 316 380
#     4   7  18  38  53  86 122 167 205 268 308 375
#
# _framework density 19.573674
#
# number of rings (size 3 to 8) (size 9 to 14) (size 15 to 20)
#    1.000    1.333    0.000    5.000    0.000    0.667 
#    3.000    3.333    0.000    0.000    0.000    0.000 
#    0.000    0.167    0.000    0.000    0.000    0.000 
#
# Total GULP energy -133705.055407 kJ/mol
# GULP energy per Si atom -5571.043975 kJ/mol
# Density = 1.952912 g / cm^3
# Si number density = 19.573674 Si / 1000 Ang^3
#
#
#
# Elastic Constant Matrix: (Units=GPa)
#
#
# Indices 1 2 3 4 5 6 
#
# 1 88.3742 49.8710 56.7792 0.0000 28.2699 0.0000
# 2 49.8710 118.7874 58.1358 0.0000 10.8066 0.0000
# 3 56.7792 58.1358 109.6842 0.0000 33.1990 0.0000
# 4 0.0000 0.0000 0.0000 24.5796 0.0000 -3.8401
# 5 28.2699 10.8066 33.1990 0.0000 43.2416 0.0000
# 6 0.0000 0.0000 0.0000 -3.8401 0.0000 41.8527
#
#
#
# Elastic Compliance Matrix: (Units=1/GPa)
#
#
# Indices 1 2 3 4 5 6 
#
# 1 0.020133 -0.005126 -0.005353 0.000000 -0.007772 0.000000
# 2 -0.005126 0.012854 -0.005474 0.000000 0.004341 0.000000
# 3 -0.005353 -0.005474 0.017347 0.000000 -0.008451 0.000000
# 4 0.000000 0.000000 0.000000 0.041276 0.000000 0.003787
# 5 -0.007772 0.004341 -0.008451 0.000000 0.033610 0.000000
# 6 0.000000 0.000000 0.000000 0.003787 0.000000 0.024241
#
#
# Mechanical properties :
#
#
# Convention : Reuss Voigt Hill
#
# Bulk Modulus (GPa) = 54.26004 71.82422 63.04213
# Shear Modulus (GPa) = 26.66519 32.07210 29.36865
#
# Velocity S-wave (km/s) = 3.69494 4.05227 3.87772
# Velocity P-wave (km/s) = 6.78119 7.65954 7.23371
#
# Compressibility (1/GPa) = 0.01842977
#
# Stress axis : x y z
#
# Youngs Moduli (GPa) = 49.66848 77.79470 57.64580
#
# Poissons Ratio (x) = 0.39876 0.30859
# Poissons Ratio (y) = 0.25459 0.31554
# Poissons Ratio (z) = 0.26589 0.42583
#
# Static dielectric constant tensor:
#      x y z
#    x 1.693280 0.000000 -0.036970 
#    y 0.000000 1.699770 0.000000 
#    z -0.036970 0.000000 1.695180 
# 
# From -- ./inp_files/68844.got.cif
#   From: 2010.05.17/outbox.cif.g08.bks.cpg/sg15_35_cif.got.tgz:68844.got - 2010.06.03 18:47:42.
