data_PCOD9281429
_publ_section_title
;
Structure prediction by ZEFSAII (Michael W. Deem and Ramdas Pophale) SiO2 
 PCOD9281429
Probable space group: C 2/C
;
_chemical_formula_sum "Si O2"
_cell_formula_units_Z 64
_cell_length_a 21.687206
_cell_length_b 21.391516
_cell_length_c 10.978515
_cell_angle_alpha 90.000000
_cell_angle_beta 42.649895
_cell_angle_gamma 90.000000
_cell_volume 3450.712617
_symmetry_space_group_name_H-M "C 2/C"
_symmetry_group_IT_number 15
_symmetry_cell_setting 'monoclinic'
loop_
_space_group_symop_operation_xyz
x,y,z
-x,y,1/2-z
-x,-y,-z
x,-y,1/2+z
1/2+x,1/2+y,z
1/2-x,1/2+y,1/2-z
1/2-x,1/2-y,-z
1/2+x,1/2-y,1/2+z
loop_
_atom_site_type_symbol
_atom_site_label
_atom_site_fract_x
_atom_site_fract_y
_atom_site_fract_z
Si Si1 0.628324 0.116339 0.321734
Si Si2 0.261199 0.466052 0.777559
Si Si3 0.448005 0.522790 0.453122
Si Si4 0.156175 0.851864 0.412570
Si Si5 0.783759 0.378974 0.452498
Si Si6 0.559599 0.936211 0.422001
Si Si7 0.187683 0.403942 0.462471
Si Si8 0.394682 0.213239 0.941023
O O1 0.680924 0.056467 0.303972
O O2 0.520124 0.112208 0.486642
O O3 0.644936 0.174641 0.385714
O O4 0.654306 0.116441 0.142869
O O5 0.354697 0.483209 0.577398
O O6 0.235181 0.528032 0.890612
O O7 0.269141 0.409422 0.859003
O O8 0.500000 0.515702 0.250000
O O9 0.500000 0.500000 0.500000
O O10 0.418519 0.595514 0.508952
O O11 0.213144 0.873269 0.447314
O O12 0.235668 0.855416 0.195296
O O13 0.116222 0.785076 0.505477
O O14 0.863579 0.426548 0.292322
O O15 0.832755 0.314674 0.421068
O O16 0.607411 0.916919 0.480032
O O17 0.500000 0.000000 0.500000
O O18 0.500000 0.201446 0.750000
#
# Coordination Sequence:
#
# PCOD9281429 Si02
#       8
#     8   8   8   8   8   8   8   8
#     4  11  22  36  58  88 124 162 195 246 301 369
#     4  10  22  35  60  88 122 155 192 250 309 376
#     4  11  24  41  66  92 122 156 210 270 329 379
#     4  10  23  40  64  88 116 167 207 265 306 364
#     4  10  21  38  61  94 124 161 209 248 305 374
#     4  11  19  34  58  91 129 161 191 241 298 372
#     4  10  22  35  57  88 126 159 201 235 310 365
#     4  11  22  40  61  86 122 163 218 256 298 365
#
# _framework density 18.546894000000002
#
# number of rings (size 3 to 8) (size 9 to 14) (size 15 to 20)
#    0.000    1.500    2.500    2.625    7.000    0.500 
#    0.000    0.000    0.000    0.000    0.000    0.000 
#    0.000    0.000    0.000    0.000    0.000    0.000 
#
# Total GULP energy -178294.105105 kJ/mol
# GULP energy per Si atom -5571.690785 kJ/mol
# Density = 1.850468 g / cm^3
# Si number density = 18.546894 Si / 1000 Ang^3
#
#
#
# Elastic Constant Matrix: (Units=GPa)
#
#
# Indices 1 2 3 4 5 6 
#
# 1 68.9432 26.6705 34.0888 0.0000 2.2206 0.0000
# 2 26.6705 86.2108 44.8096 0.0000 -0.8926 0.0000
# 3 34.0888 44.8096 102.5277 0.0000 7.6973 0.0000
# 4 0.0000 0.0000 0.0000 31.7976 0.0000 -1.3399
# 5 2.2206 -0.8926 7.6973 0.0000 25.7124 0.0000
# 6 0.0000 0.0000 0.0000 -1.3399 0.0000 17.2366
#
#
#
# Elastic Compliance Matrix: (Units=1/GPa)
#
#
# Indices 1 2 3 4 5 6 
#
# 1 0.018011 -0.003201 -0.004567 0.000000 -0.000300 0.000000
# 2 -0.003201 0.015742 -0.006013 0.000000 0.002623 0.000000
# 3 -0.004567 -0.006013 0.014205 0.000000 -0.004067 0.000000
# 4 0.000000 0.000000 0.000000 0.031552 0.000000 0.002453
# 5 -0.000300 0.002623 -0.004067 0.000000 0.040226 0.000000
# 6 0.000000 0.000000 0.000000 0.002453 0.000000 0.058207
#
#
# Mechanical properties :
#
#
# Convention : Reuss Voigt Hill
#
# Bulk Modulus (GPa) = 49.02781 52.09106 50.55943
# Shear Modulus (GPa) = 23.55121 25.09016 24.32069
#
# Velocity S-wave (km/s) = 3.56732 3.68203 3.62513
# Velocity P-wave (km/s) = 6.59239 6.79879 6.69638
#
# Compressibility (1/GPa) = 0.02039659
#
# Stress axis : x y z
#
# Youngs Moduli (GPa) = 55.52239 63.52354 70.39820
#
# Poissons Ratio (x) = 0.20336 0.32148
# Poissons Ratio (y) = 0.17775 0.42328
# Poissons Ratio (z) = 0.25355 0.38194
#
# Static dielectric constant tensor:
#      x y z
#    x 1.671940 0.000000 0.006930 
#    y 0.000000 1.667730 0.000000 
#    z 0.006930 0.000000 1.653480 
# 
# From -- ./inp_files/114260.got.cif
#   From: 2010.05.17/outbox.cif.g08.bks.cpg/sg15_58_cif.got.tgz:114260.got - 2010.06.03 18:47:42.
