data_PCOD9281051
_publ_section_title
;
Structure prediction by ZEFSAII (Michael W. Deem and Ramdas Pophale) SiO2 
 PCOD9281051
Probable space group: C 2/C
;
_chemical_formula_sum "Si O2"
_cell_formula_units_Z 48
_cell_length_a 7.605629
_cell_length_b 23.168685
_cell_length_c 11.841812
_cell_angle_alpha 90.000000
_cell_angle_beta 98.028802
_cell_angle_gamma 90.000000
_cell_volume 2066.220761
_symmetry_space_group_name_H-M "C 2/C"
_symmetry_group_IT_number 15
_symmetry_cell_setting 'monoclinic'
loop_
_space_group_symop_operation_xyz
x,y,z
-x,y,1/2-z
-x,-y,-z
x,-y,1/2+z
1/2+x,1/2+y,z
1/2-x,1/2+y,1/2-z
1/2-x,1/2-y,-z
1/2+x,1/2-y,1/2+z
loop_
_atom_site_type_symbol
_atom_site_label
_atom_site_fract_x
_atom_site_fract_y
_atom_site_fract_z
Si Si1 0.657586 0.082617 0.553835
Si Si2 0.710364 0.260061 0.805247
Si Si3 0.239995 0.308327 0.929837
Si Si4 0.147668 0.166259 0.512695
Si Si5 0.614569 0.007334 0.848897
Si Si6 0.545762 0.550719 0.590395
O O1 0.628104 0.143694 0.488184
O O2 0.513527 0.061431 0.631095
O O3 0.863616 0.080330 0.613228
O O4 0.643972 0.033086 0.458243
O O5 0.500000 0.250742 0.750000
O O6 0.796980 0.288509 0.701617
O O7 0.795349 0.202140 0.869301
O O8 0.735461 0.304531 0.911557
O O9 0.250000 0.250000 0.000000
O O10 0.441552 0.330442 0.957165
O O11 0.165368 0.098881 0.537970
O O12 0.500000 0.971678 0.750000
O O13 0.807471 0.022229 0.816355
O O14 0.500000 0.500000 0.500000
#
# Coordination Sequence:
#
# PCOD9281051 Si02
#       6
#     8   8   8   8   8   8
#     4   9  21  42  58  86 126 154 203 256 298 372
#     4   9  19  36  58  88 121 160 206 253 314 366
#     4  10  21  38  57  85 123 161 203 252 309 369
#     4   9  19  37  59  86 123 157 207 252 303 380
#     4  10  21  39  62  89 117 160 207 250 309 360
#     4   9  19  38  62  84 122 161 197 251 308 360
#
# _framework density 23.230817999999999
#
# number of rings (size 3 to 8) (size 9 to 14) (size 15 to 20)
#    0.000    2.667    0.000    0.000    0.000    7.333 
#   12.000    3.333    0.000    0.000    0.000    0.000 
#    0.000    0.000    0.000    0.000    0.000    0.000 
#
# Total GULP energy -133623.961812 kJ/mol
# GULP energy per Si atom -5567.665076 kJ/mol
# Density = 2.317794 g / cm^3
# Si number density = 23.230818 Si / 1000 Ang^3
#
#
#
# Elastic Constant Matrix: (Units=GPa)
#
#
# Indices 1 2 3 4 5 6 
#
# 1 71.6777 4.7493 28.9560 0.0000 29.5065 0.0000
# 2 4.7493 102.3688 7.5987 0.0000 -7.1413 0.0000
# 3 28.9560 7.5987 101.9164 0.0000 7.0659 0.0000
# 4 0.0000 0.0000 0.0000 18.5504 0.0000 5.4774
# 5 29.5065 -7.1413 7.0659 0.0000 43.3476 0.0000
# 6 0.0000 0.0000 0.0000 5.4774 0.0000 32.0326
#
#
#
# Elastic Compliance Matrix: (Units=1/GPa)
#
#
# Indices 1 2 3 4 5 6 
#
# 1 0.022102 -0.001653 -0.005153 0.000000 -0.014477 0.000000
# 2 -0.001653 0.010081 -0.000481 0.000000 0.002864 0.000000
# 3 -0.005153 -0.000481 0.011201 0.000000 0.001602 0.000000
# 4 0.000000 0.000000 0.000000 0.056774 0.000000 -0.009708
# 5 -0.014477 0.002864 0.001602 0.000000 0.033134 0.000000
# 6 0.000000 0.000000 0.000000 -0.009708 0.000000 0.032878
#
#
# Mechanical properties :
#
#
# Convention : Reuss Voigt Hill
#
# Bulk Modulus (GPa) = 34.70856 39.84121 37.27488
# Shear Modulus (GPa) = 26.26805 34.43006 30.34906
#
# Velocity S-wave (km/s) = 3.36630 3.85396 3.61836
# Velocity P-wave (km/s) = 5.48475 6.08206 5.79111
#
# Compressibility (1/GPa) = 0.02881134
#
# Stress axis : x y z
#
# Youngs Moduli (GPa) = 45.24487 99.19884 89.28071
#
# Poissons Ratio (x) = 0.16396 0.46003
# Poissons Ratio (y) = 0.07478 0.04291
# Poissons Ratio (z) = 0.23313 0.04767
#
# Static dielectric constant tensor:
#      x y z
#    x 1.923440 0.000000 0.008420 
#    y 0.000000 1.795000 0.000000 
#    z 0.008420 0.000000 1.853680 
# 
# From -- ./inp_files/79893.got.cif
#   From: 2010.05.17/outbox.cif.g08.bks.cpg/sg15_40_cif.got.tgz:79893.got - 2010.06.03 18:47:42.
