data_PCOD9281658
_publ_section_title
;
Structure prediction by ZEFSAII (Michael W. Deem and Ramdas Pophale) SiO2 
 PCOD9281658
Probable space group: C 2/C
;
_chemical_formula_sum "Si O2"
_cell_formula_units_Z 64
_cell_length_a 25.601872
_cell_length_b 16.252155
_cell_length_c 21.841369
_cell_angle_alpha 90.000000
_cell_angle_beta 19.489233
_cell_angle_gamma 90.000000
_cell_volume 3031.986442
_symmetry_space_group_name_H-M "C 2/C"
_symmetry_group_IT_number 15
_symmetry_cell_setting 'monoclinic'
loop_
_space_group_symop_operation_xyz
x,y,z
-x,y,1/2-z
-x,-y,-z
x,-y,1/2+z
1/2+x,1/2+y,z
1/2-x,1/2+y,1/2-z
1/2-x,1/2-y,-z
1/2+x,1/2-y,1/2+z
loop_
_atom_site_type_symbol
_atom_site_label
_atom_site_fract_x
_atom_site_fract_y
_atom_site_fract_z
Si Si1 0.574991 0.338185 0.102789
Si Si2 0.809976 0.364425 0.128276
Si Si3 0.462477 0.847641 0.362127
Si Si4 0.882771 0.525518 0.431431
Si Si5 0.164359 0.244424 0.234990
Si Si6 0.109199 0.726873 0.290742
Si Si7 0.035382 0.024729 0.278567
Si Si8 0.604724 0.630314 0.955086
O O1 0.500000 0.311672 0.250000
O O2 0.486071 0.288119 0.148196
O O3 0.543549 0.434921 0.131496
O O4 0.758724 0.320108 0.894364
O O5 0.707077 0.282987 0.229010
O O6 0.699760 0.415663 0.296371
O O7 0.838105 0.410263 0.033064
O O8 0.982166 0.335611 0.959299
O O9 0.500000 0.832454 0.250000
O O10 0.288798 0.815711 0.566451
O O11 0.573838 0.796809 0.283807
O O12 0.468238 0.945623 0.365622
O O13 0.720944 0.491637 0.581204
O O14 0.000000 0.559379 0.250000
O O15 0.263456 0.307284 0.165665
O O16 0.040968 0.186125 0.405772
O O17 0.000000 0.060807 0.250000
O O18 0.963104 0.077738 0.413625
#
# Coordination Sequence:
#
# PCOD9281658 Si02
#       8
#     8   8   8   8   8   8   8   8
#     4  10  21  38  63  93 127 163 212 259 320 374
#     4  11  24  43  66  93 127 170 213 260 315 376
#     4  10  21  38  63  93 127 163 212 259 320 374
#     4  11  25  43  65  94 131 169 208 264 317 375
#     4  10  22  40  63  93 125 166 211 266 312 372
#     4  10  22  40  63  93 125 166 211 266 312 372
#     4  11  25  43  65  94 131 169 208 264 317 375
#     4  11  24  43  66  93 127 170 213 260 315 376
#
# _framework density 21.108274000000002
#
# number of rings (size 3 to 8) (size 9 to 14) (size 15 to 20)
#    0.000    1.500    2.500    1.500    7.000    4.500 
#    0.000    3.750    0.000    0.000    0.000    0.000 
#    0.000    0.000    0.000    0.000    0.000    0.000 
#
# Total GULP energy -178773.632462 kJ/mol
# GULP energy per Si atom -5586.676014 kJ/mol
# Density = 2.106023 g / cm^3
# Si number density = 21.108274 Si / 1000 Ang^3
#
#
#
# Elastic Constant Matrix: (Units=GPa)
#
#
# Indices 1 2 3 4 5 6 
#
# 1 43.6055 12.3177 53.2885 -0.0026 10.6278 0.0002
# 2 12.3177 32.8981 26.3253 -0.0005 8.3897 -0.0021
# 3 53.2885 26.3253 180.8967 -0.0116 25.5650 -0.0011
# 4 -0.0026 -0.0005 -0.0116 31.6569 0.0034 11.9116
# 5 10.6278 8.3897 25.5650 0.0034 39.8608 0.0005
# 6 0.0002 -0.0021 -0.0011 11.9116 0.0005 34.8079
#
#
#
# Elastic Compliance Matrix: (Units=1/GPa)
#
#
# Indices 1 2 3 4 5 6 
#
# 1 0.036990 -0.005411 -0.009761 0.000000 -0.002463 -0.000001
# 2 -0.005411 0.035922 -0.003045 -0.000002 -0.004165 0.000003
# 3 -0.009761 -0.003045 0.009224 0.000003 -0.002673 -0.000001
# 4 0.000000 -0.000002 0.000003 0.036257 -0.000005 -0.012408
# 5 -0.002463 -0.004165 -0.002673 -0.000005 0.028335 0.000001
# 6 -0.000001 0.000003 -0.000001 -0.012408 0.000001 0.032975
#
#
# Mechanical properties :
#
#
# Convention : Reuss Voigt Hill
#
# Bulk Modulus (GPa) = 21.88067 49.02926 35.45497
# Shear Modulus (GPa) = 21.61028 32.29638 26.95333
#
# Velocity S-wave (km/s) = 3.20313 3.91581 3.57726
# Velocity P-wave (km/s) = 4.90596 6.61231 5.82199
#
# Compressibility (1/GPa) = 0.04570243
#
# Stress axis : x y z
#
# Youngs Moduli (GPa) = 27.03413 27.83833 108.40979
#
# Poissons Ratio (x) = 0.15063 1.05819
# Poissons Ratio (y) = 0.14628 0.33011
# Poissons Ratio (z) = 0.26388 0.08477
#
# Static dielectric constant tensor:
#      x y z
#    x 1.805810 0.000000 0.035460 
#    y 0.000000 1.760610 0.000000 
#    z 0.035460 0.000000 1.781260 
# 
# From -- ./inp_files/70610.got.cif
#   From: 2010.05.17/outbox.cif.g08.bks.cpg/sg15_36_cif.got.tgz:70610.got - 2010.06.03 18:47:42.
