data_PCOD9281532
_publ_section_title
;
Structure prediction by ZEFSAII (Michael W. Deem and Ramdas Pophale) SiO2 
 PCOD9281532
Probable space group: C 2/C
;
_chemical_formula_sum "Si O2"
_cell_formula_units_Z 56
_cell_length_a 9.019893
_cell_length_b 24.236418
_cell_length_c 14.168666
_cell_angle_alpha 90.000000
_cell_angle_beta 115.446386
_cell_angle_gamma 90.000000
_cell_volume 2796.923799
_symmetry_space_group_name_H-M "C 2/C"
_symmetry_group_IT_number 15
_symmetry_cell_setting 'monoclinic'
loop_
_space_group_symop_operation_xyz
x,y,z
-x,y,1/2-z
-x,-y,-z
x,-y,1/2+z
1/2+x,1/2+y,z
1/2-x,1/2+y,1/2-z
1/2-x,1/2-y,-z
1/2+x,1/2-y,1/2+z
loop_
_atom_site_type_symbol
_atom_site_label
_atom_site_fract_x
_atom_site_fract_y
_atom_site_fract_z
Si Si1 0.507843 0.210805 0.359519
Si Si2 0.395017 0.085536 0.500318
Si Si3 0.462571 0.293403 0.497375
Si Si4 0.811942 0.145256 0.191821
Si Si5 0.073270 0.693071 0.874866
Si Si6 0.079453 0.523002 0.377534
Si Si7 0.278298 0.381636 0.893426
O O1 0.500000 0.229952 0.250000
O O2 0.552090 0.261066 0.437646
O O3 0.327573 0.192307 0.347239
O O4 0.630285 0.158616 0.388852
O O5 0.225160 0.107226 0.408129
O O6 0.471984 0.140742 0.569835
O O7 0.479115 0.055848 0.432315
O O8 0.392866 0.038933 0.579586
O O9 0.271617 0.304695 0.425702
O O10 0.478000 0.250425 0.588788
O O11 0.557454 0.349888 0.537523
O O12 0.770033 0.115500 0.278176
O O13 0.000000 0.162772 0.250000
O O14 0.000000 0.687993 0.750000
O O15 0.247785 0.557562 0.421545
O O16 0.000000 0.525191 0.250000
#
# Coordination Sequence:
#
# PCOD9281532 Si02
#       7
#     8   8   8   8   8   8   8
#     4  10  21  38  62  92 127 171 214 259 319 380
#     4  11  22  41  68  94 129 167 214 273 324 388
#     4  11  24  39  64  92 133 174 211 267 321 381
#     4  11  21  37  64  94 129 165 215 268 312 390
#     4  11  25  41  59  97 134 171 213 258 330 393
#     4  11  21  42  71  95 120 171 223 267 328 388
#     4  11  21  38  65  95 126 164 223 270 309 390
#
# _framework density 20.021996999999999
#
# number of rings (size 3 to 8) (size 9 to 14) (size 15 to 20)
#    0.000    1.143    4.286    2.143    6.000    0.000 
#    0.000    2.857    0.000    0.000    0.000    0.000 
#    0.000    0.000    0.000    0.000    0.000    0.000 
#
# Total GULP energy -156221.578709 kJ/mol
# GULP energy per Si atom -5579.342097 kJ/mol
# Density = 1.997643 g / cm^3
# Si number density = 20.021997 Si / 1000 Ang^3
#
#
#
# Elastic Constant Matrix: (Units=GPa)
#
#
# Indices 1 2 3 4 5 6 
#
# 1 77.9563 48.1236 33.6474 0.0000 4.2036 0.0000
# 2 48.1236 94.3700 63.4061 0.0000 -4.4851 0.0000
# 3 33.6474 63.4061 129.4590 0.0000 -10.0689 0.0000
# 4 0.0000 0.0000 0.0000 34.6808 0.0000 -3.2808
# 5 4.2036 -4.4851 -10.0689 0.0000 24.2364 0.0000
# 6 0.0000 0.0000 0.0000 -3.2808 0.0000 20.4332
#
#
#
# Elastic Compliance Matrix: (Units=1/GPa)
#
#
# Indices 1 2 3 4 5 6 
#
# 1 0.019402 -0.009659 -0.000737 0.000000 -0.005459 0.000000
# 2 -0.009659 0.020604 -0.007393 0.000000 0.002417 0.000000
# 3 -0.000737 -0.007393 0.011823 0.000000 0.003671 0.000000
# 4 0.000000 0.000000 0.000000 0.029279 0.000000 0.004701
# 5 -0.005459 0.002417 0.003671 0.000000 0.044179 0.000000
# 6 0.000000 0.000000 0.000000 0.004701 0.000000 0.049695
#
#
# Mechanical properties :
#
#
# Convention : Reuss Voigt Hill
#
# Bulk Modulus (GPa) = 61.53096 65.79327 63.66211
# Shear Modulus (GPa) = 23.15061 26.31062 24.73062
#
# Velocity S-wave (km/s) = 3.40407 3.62896 3.51831
# Velocity P-wave (km/s) = 6.80064 7.10570 6.95484
#
# Compressibility (1/GPa) = 0.01625198
#
# Stress axis : x y z
#
# Youngs Moduli (GPa) = 51.53986 48.53388 84.58436
#
# Poissons Ratio (x) = 0.46877 0.06233
# Poissons Ratio (y) = 0.49780 0.62535
# Poissons Ratio (z) = 0.03798 0.35882
#
# Static dielectric constant tensor:
#      x y z
#    x 1.744290 0.000000 -0.018290 
#    y 0.000000 1.714260 0.000000 
#    z -0.018290 0.000000 1.744780 
# 
# From -- ./inp_files/137443.got.cif
#   From: 2010.05.17/outbox.cif.g08.bks.cpg/sg15_69_cif.got.tgz:137443.got - 2010.06.03 18:47:42.
