data_PCOD9281675
_publ_section_title
;
Structure prediction by ZEFSAII (Michael W. Deem and Ramdas Pophale) SiO2 
 PCOD9281675
Probable space group: C 2/C
;
_chemical_formula_sum "Si O2"
_cell_formula_units_Z 56
_cell_length_a 15.866661
_cell_length_b 14.707270
_cell_length_c 11.231080
_cell_angle_alpha 90.000000
_cell_angle_beta 58.573348
_cell_angle_gamma 90.000000
_cell_volume 2236.377551
_symmetry_space_group_name_H-M "C 2/C"
_symmetry_group_IT_number 15
_symmetry_cell_setting 'monoclinic'
loop_
_space_group_symop_operation_xyz
x,y,z
-x,y,1/2-z
-x,-y,-z
x,-y,1/2+z
1/2+x,1/2+y,z
1/2-x,1/2+y,1/2-z
1/2-x,1/2-y,-z
1/2+x,1/2-y,1/2+z
loop_
_atom_site_type_symbol
_atom_site_label
_atom_site_fract_x
_atom_site_fract_y
_atom_site_fract_z
Si Si1 0.724799 0.644114 0.024354
Si Si2 0.045504 0.807833 0.540292
Si Si3 0.341996 0.663158 0.058627
Si Si4 0.414140 0.885160 0.474820
Si Si5 0.182149 0.825970 0.201555
Si Si6 0.228831 0.483292 0.221952
Si Si7 0.512772 0.065009 0.357288
O O1 0.750000 0.750000 0.000000
O O2 0.608982 0.627888 0.084023
O O3 0.794840 0.614013 0.081738
O O4 0.775760 0.594259 0.876330
O O5 0.059648 0.711926 0.597066
O O6 0.108789 0.807448 0.368079
O O7 0.935892 0.827917 0.577376
O O8 0.262980 0.744378 0.141335
O O9 0.296950 0.564046 0.121121
O O10 0.361855 0.669410 0.900508
O O11 0.497379 0.878689 0.518001
O O12 0.439986 0.980937 0.397294
O O13 0.231930 0.924149 0.195237
O O14 0.119443 0.524241 0.306181
O O15 0.500000 0.123424 0.250000
#
# Coordination Sequence:
#
# PCOD9281675 Si02
#       7
#     8   8   8   8   8   8   8
#     4   9  20  39  62  90 126 173 209 273 330 393
#     4  10  21  42  68  92 132 181 225 275 337 404
#     4  11  24  43  70  99 137 183 229 284 343 411
#     4  10  21  38  63  95 131 169 221 275 347 398
#     4  10  24  43  66 101 137 176 228 288 337 407
#     4  11  23  40  65  96 138 173 228 276 334 410
#     4  11  22  35  62  96 129 170 215 281 341 404
#
# _framework density 25.040493999999999
#
# number of rings (size 3 to 8) (size 9 to 14) (size 15 to 20)
#    0.000    1.714    1.429    2.143    2.000    5.714 
#    0.000    0.000    0.000    0.000    0.000    0.000 
#    0.000    0.000    0.000    0.000    0.000    0.000 
#
# Total GULP energy -156003.750639 kJ/mol
# GULP energy per Si atom -5571.562523 kJ/mol
# Density = 2.498350 g / cm^3
# Si number density = 25.040494 Si / 1000 Ang^3
#
#
#
# Elastic Constant Matrix: (Units=GPa)
#
#
# Indices 1 2 3 4 5 6 
#
# 1 192.6967 43.5110 21.0610 0.0000 14.9804 0.0000
# 2 43.5110 110.4433 12.0154 0.0000 -12.1854 0.0000
# 3 21.0610 12.0154 64.0934 0.0000 12.4887 0.0000
# 4 0.0000 0.0000 0.0000 1.1262 0.0000 -3.3686
# 5 14.9804 -12.1854 12.4887 0.0000 39.0710 0.0000
# 6 0.0000 0.0000 0.0000 -3.3686 0.0000 36.5546
#
#
#
# Elastic Compliance Matrix: (Units=1/GPa)
#
#
# Indices 1 2 3 4 5 6 
#
# 1 0.006107 -0.002616 -0.000961 0.000000 -0.002850 0.000000
# 2 -0.002616 0.010883 -0.002173 0.000000 0.005092 0.000000
# 3 -0.000961 -0.002173 0.017474 0.000000 -0.005895 0.000000
# 4 0.000000 0.000000 0.000000 1.225885 0.000000 0.112968
# 5 -0.002850 0.005092 -0.005895 0.000000 0.030159 0.000000
# 6 0.000000 0.000000 0.000000 0.112968 0.000000 0.037767
#
#
# Mechanical properties :
#
#
# Convention : Reuss Voigt Hill
#
# Bulk Modulus (GPa) = 43.54512 57.82313 50.68412
# Shear Modulus (GPa) = 3.71077 34.72677 19.21877
#
# Velocity S-wave (km/s) = 1.21866 3.72805 2.77340
# Velocity P-wave (km/s) = 4.40543 6.45547 5.52634
#
# Compressibility (1/GPa) = 0.02296468
#
# Stress axis : x y z
#
# Youngs Moduli (GPa) = 163.75357 91.88558 57.22821
#
# Poissons Ratio (x) = 0.24035 0.05499
# Poissons Ratio (y) = 0.42834 0.12435
# Poissons Ratio (z) = 0.15736 0.19965
#
# Static dielectric constant tensor:
#      x y z
#    x 2.167940 0.000000 0.197620 
#    y 0.000000 2.001130 0.000000 
#    z 0.197620 0.000000 2.360180 
# 
# From -- ./inp_files/105646.got.cif
#   From: 2010.05.17/outbox.cif.g08.bks.cpg/sg15_53_cif.got.tgz:105646.got - 2010.06.03 18:47:42.
