data_PCOD9281985
_publ_section_title
;
Structure prediction by ZEFSAII (Michael W. Deem and Ramdas Pophale) SiO2 
 PCOD9281985
Probable space group: C 2/C
;
_chemical_formula_sum "Si O2"
_cell_formula_units_Z 64
_cell_length_a 21.280574
_cell_length_b 9.300628
_cell_length_c 20.953897
_cell_angle_alpha 90.000000
_cell_angle_beta 143.314136
_cell_angle_gamma 90.000000
_cell_volume 2477.681579
_symmetry_space_group_name_H-M "C 2/C"
_symmetry_group_IT_number 15
_symmetry_cell_setting 'monoclinic'
loop_
_space_group_symop_operation_xyz
x,y,z
-x,y,1/2-z
-x,-y,-z
x,-y,1/2+z
1/2+x,1/2+y,z
1/2-x,1/2+y,1/2-z
1/2-x,1/2-y,-z
1/2+x,1/2-y,1/2+z
loop_
_atom_site_type_symbol
_atom_site_label
_atom_site_fract_x
_atom_site_fract_y
_atom_site_fract_z
Si Si1 0.037861 0.885255 0.349623
Si Si2 0.169525 0.329056 0.092302
Si Si3 0.269845 0.238284 0.426112
Si Si4 0.247718 0.039809 0.968120
Si Si5 0.295741 0.722143 0.811307
Si Si6 0.867656 0.004959 0.964201
Si Si7 0.954090 0.384494 0.855621
Si Si8 0.957532 0.608253 0.648970
O O1 0.163838 0.870906 0.439854
O O2 0.000000 0.934971 0.250000
O O3 0.981112 0.741731 0.326607
O O4 0.035168 0.991532 0.407801
O O5 0.241105 0.390141 0.093203
O O6 0.214096 0.355316 0.198529
O O7 0.158196 0.156926 0.075737
O O8 0.055063 0.393305 0.984482
O O9 0.248969 0.200168 0.335570
O O10 0.273468 0.410742 0.425662
O O11 0.209800 0.127479 0.423035
O O12 0.390282 0.204279 0.545627
O O13 0.367531 0.014733 0.089509
O O14 0.375150 0.606331 0.908489
O O15 0.357318 0.831871 0.817280
O O16 0.949620 0.532006 0.813754
O O17 0.000000 0.668023 0.750000
#
# Coordination Sequence:
#
# PCOD9281985 Si02
#       8
#     8   8   8   8   8   8   8   8
#     4  11  22  39  63  90 127 165 210 255 321 351
#     4  10  21  38  67  89 120 170 202 256 324 348
#     4   8  21  41  57  88 128 158 196 262 305 368
#     4   9  21  40  62  92 125 156 215 258 293 388
#     4  10  22  42  59  86 137 155 212 259 304 371
#     4   9  23  39  59  95 120 158 213 248 307 386
#     4  10  22  37  61  97 119 162 217 262 293 378
#     4   9  19  37  62  90 123 162 205 252 319 357
#
# _framework density 25.8306
#
# number of rings (size 3 to 8) (size 9 to 14) (size 15 to 20)
#    1.500    1.000    0.000    1.125    1.750   10.000 
#    2.250    1.250    2.750    0.000    0.000    0.000 
#    0.000    0.000    0.000    0.000    0.000    0.000 
#
# Total GULP energy -178559.820622 kJ/mol
# GULP energy per Si atom -5579.994394 kJ/mol
# Density = 2.577181 g / cm^3
# Si number density = 25.830600 Si / 1000 Ang^3
#
#
#
# Elastic Constant Matrix: (Units=GPa)
#
#
# Indices 1 2 3 4 5 6 
#
# 1 55.9203 8.3061 13.1303 0.0000 -12.2488 0.0000
# 2 8.3061 73.3020 0.8063 0.0000 -2.9142 0.0000
# 3 13.1303 0.8063 169.1977 0.0000 -34.8895 0.0000
# 4 0.0000 0.0000 0.0000 14.4321 0.0000 -4.9475
# 5 -12.2488 -2.9142 -34.8895 0.0000 32.4975 0.0000
# 6 0.0000 0.0000 0.0000 -4.9475 0.0000 33.6988
#
#
#
# Elastic Compliance Matrix: (Units=1/GPa)
#
#
# Indices 1 2 3 4 5 6 
#
# 1 0.019766 -0.001952 -0.000031 0.000000 0.007241 0.000000
# 2 -0.001952 0.013891 0.000245 0.000000 0.000773 0.000000
# 3 -0.000031 0.000245 0.007595 0.000000 0.008164 0.000000
# 4 0.000000 0.000000 0.000000 0.072962 0.000000 0.010712
# 5 0.007241 0.000773 0.008164 0.000000 0.042335 0.000000
# 6 0.000000 0.000000 0.000000 0.010712 0.000000 0.031247
#
#
# Mechanical properties :
#
#
# Convention : Reuss Voigt Hill
#
# Bulk Modulus (GPa) = 26.47203 38.10060 32.28632
# Shear Modulus (GPa) = 24.52597 34.53751 29.53174
#
# Velocity S-wave (km/s) = 3.08473 3.66057 3.38492
# Velocity P-wave (km/s) = 4.79145 5.71390 5.27288
#
# Compressibility (1/GPa) = 0.03777572
#
# Stress axis : x y z
#
# Youngs Moduli (GPa) = 50.59200 71.98722 131.66542
#
# Poissons Ratio (x) = 0.14048 0.00413
# Poissons Ratio (y) = 0.09873 -0.03220
# Poissons Ratio (z) = 0.00159 -0.01761
#
# Static dielectric constant tensor:
#      x y z
#    x 2.080000 0.000000 -0.018150 
#    y 0.000000 2.069560 0.000000 
#    z -0.018150 0.000000 2.066740 
# 
# From -- ./inp_files/255370.got.cif
#   From: 2010.05.17/outbox.cif.g08.bks.cpg/sg15_128_cif.got.tgz:255370.got - 2010.06.03 18:47:42.
