data_PCOD9281804
_publ_section_title
;
Structure prediction by ZEFSAII (Michael W. Deem and Ramdas Pophale) SiO2 
 PCOD9281804
Probable space group: C 2/C
;
_chemical_formula_sum "Si O2"
_cell_formula_units_Z 60
_cell_length_a 22.084736
_cell_length_b 9.683920
_cell_length_c 20.565795
_cell_angle_alpha 90.000000
_cell_angle_beta 33.338883
_cell_angle_gamma 90.000000
_cell_volume 2417.283853
_symmetry_space_group_name_H-M "C 2/C"
_symmetry_group_IT_number 15
_symmetry_cell_setting 'monoclinic'
loop_
_space_group_symop_operation_xyz
x,y,z
-x,y,1/2-z
-x,-y,-z
x,-y,1/2+z
1/2+x,1/2+y,z
1/2-x,1/2+y,1/2-z
1/2-x,1/2-y,-z
1/2+x,1/2-y,1/2+z
loop_
_atom_site_type_symbol
_atom_site_label
_atom_site_fract_x
_atom_site_fract_y
_atom_site_fract_z
Si Si1 0.751387 0.642032 0.751794
Si Si2 0.625017 0.387667 0.888264
Si Si3 0.066099 0.295169 0.974673
Si Si4 0.652843 0.926054 0.630987
Si Si5 0.382525 0.217042 0.895354
Si Si6 0.902524 0.999667 0.945457
Si Si7 0.000000 0.824015 0.250000
Si Si8 0.049769 0.473891 0.863815
O O1 0.677024 0.512124 0.799714
O O2 0.790392 0.763289 0.669798
O O3 0.684711 0.727695 0.865329
O O4 0.854171 0.568262 0.691988
O O5 0.531213 0.313875 0.931740
O O6 0.586948 0.450772 0.990061
O O7 0.043966 0.348120 0.919423
O O8 0.055460 0.427820 0.030049
O O9 0.781338 0.945491 0.531861
O O10 0.605632 0.778238 0.651568
O O11 0.624192 0.050185 0.606943
O O12 0.586720 0.945642 0.758394
O O13 0.500000 0.242299 0.750000
O O14 0.402951 0.334273 0.932389
O O15 0.250000 0.250000 0.000000
O O16 0.991495 0.076763 0.820178
#
# Coordination Sequence:
#
# PCOD9281804 Si02
#       8
#     8   8   8   8   8   8   4   8
#     4  11  20  41  63  95 130 167 213 267 323 405
#     4  11  23  39  68  93 135 169 213 267 334 389
#     4  10  21  38  64  97 125 167 215 265 323 404
#     4  11  22  43  65  92 128 176 220 276 335 402
#     4  10  22  43  70  94 136 175 233 284 338 402
#     4  11  23  43  66  94 131 179 213 285 336 391
#     4  12  24  40  68  92 132 166 234 272 332 402
#     4  10  21  40  65  90 132 168 209 275 333 382
#
# _framework density 24.821245999999999
#
# number of rings (size 3 to 8) (size 9 to 14) (size 15 to 20)
#    0.000    1.333    4.000    1.600    0.000    1.067 
#    0.000    0.000    5.867    0.000    0.000    0.000 
#    0.000    0.000    0.000    0.000    0.000    0.000 
#
# Total GULP energy -167274.606153 kJ/mol
# GULP energy per Si atom -5575.820205 kJ/mol
# Density = 2.476475 g / cm^3
# Si number density = 24.821246 Si / 1000 Ang^3
#
#
#
# Elastic Constant Matrix: (Units=GPa)
#
#
# Indices 1 2 3 4 5 6 
#
# 1 58.2177 21.0460 17.9749 0.0000 5.6449 0.0000
# 2 21.0460 138.5709 31.1033 -0.0001 17.7371 0.0001
# 3 17.9749 31.1033 89.0759 0.0000 -5.5297 0.0000
# 4 0.0000 -0.0001 0.0000 65.6215 0.0000 -13.4261
# 5 5.6449 17.7371 -5.5297 0.0000 40.8803 0.0000
# 6 0.0000 0.0001 0.0000 -13.4261 0.0000 14.7974
#
#
#
# Elastic Compliance Matrix: (Units=1/GPa)
#
#
# Indices 1 2 3 4 5 6 
#
# 1 0.019104 -0.001857 -0.003348 0.000000 -0.002285 0.000000
# 2 -0.001857 0.008643 -0.002884 0.000000 -0.003884 0.000000
# 3 -0.003348 -0.002884 0.013126 0.000000 0.003489 0.000000
# 4 0.000000 0.000000 0.000000 0.018713 0.000000 0.016979
# 5 -0.002285 -0.003884 0.003489 0.000000 0.026934 0.000000
# 6 0.000000 0.000000 0.000000 0.016979 0.000000 0.082985
#
#
# Mechanical properties :
#
#
# Convention : Reuss Voigt Hill
#
# Bulk Modulus (GPa) = 40.49781 47.34587 43.92184
# Shear Modulus (GPa) = 25.78448 38.64254 32.21351
#
# Velocity S-wave (km/s) = 3.22655 3.94995 3.60644
# Velocity P-wave (km/s) = 5.49837 6.31815 5.92246
#
# Compressibility (1/GPa) = 0.02469270
#
# Stress axis : x y z
#
# Youngs Moduli (GPa) = 52.34579 115.69867 76.18602
#
# Poissons Ratio (x) = 0.21490 0.25509
# Poissons Ratio (y) = 0.09723 0.21974
# Poissons Ratio (z) = 0.17527 0.33371
#
# Static dielectric constant tensor:
#      x y z
#    x 2.027760 0.000000 -0.020060 
#    y 0.000000 2.016080 0.000000 
#    z -0.020060 0.000000 2.050050 
# 
# From -- ./inp_files/283359.got.cif
#   From: 2010.05.17/outbox.cif.g08.bks.cpg/sg15_142_cif.got.tgz:283359.got - 2010.06.03 18:47:42.
