data_PCOD9281134
_publ_section_title
;
Structure prediction by ZEFSAII (Michael W. Deem and Ramdas Pophale) SiO2 
 PCOD9281134
Probable space group: C 2/C
;
_chemical_formula_sum "Si O2"
_cell_formula_units_Z 60
_cell_length_a 24.743624
_cell_length_b 5.414769
_cell_length_c 19.058230
_cell_angle_alpha 90.000000
_cell_angle_beta 89.971372
_cell_angle_gamma 90.000000
_cell_volume 2553.440551
_symmetry_space_group_name_H-M "C 2/C"
_symmetry_group_IT_number 15
_symmetry_cell_setting 'monoclinic'
loop_
_space_group_symop_operation_xyz
x,y,z
-x,y,1/2-z
-x,-y,-z
x,-y,1/2+z
1/2+x,1/2+y,z
1/2-x,1/2+y,1/2-z
1/2-x,1/2-y,-z
1/2+x,1/2-y,1/2+z
loop_
_atom_site_type_symbol
_atom_site_label
_atom_site_fract_x
_atom_site_fract_y
_atom_site_fract_z
Si Si1 0.332998 0.292037 0.213018
Si Si2 0.000000 0.218539 0.750000
Si Si3 0.237911 0.681360 0.615804
Si Si4 0.063537 0.035572 0.366432
Si Si5 0.376951 0.498378 0.501427
Si Si6 0.867951 0.058915 0.343114
Si Si7 0.590463 0.906788 0.267529
Si Si8 0.693170 0.007167 0.980901
O O1 0.277610 0.378274 0.179143
O O2 0.380578 0.421516 0.166810
O O3 0.338583 0.359843 0.294322
O O4 0.350354 0.005759 0.212326
O O5 0.984574 0.080103 0.678380
O O6 0.947167 0.382586 0.763539
O O7 0.178541 0.742791 0.641304
O O8 0.266038 0.924286 0.580610
O O9 0.229047 0.491371 0.552057
O O10 0.070803 0.001236 0.448493
O O11 0.064642 0.316971 0.340246
O O12 0.388310 0.473445 0.418519
O O13 0.345412 0.760309 0.512857
O O14 0.341132 0.258197 0.523973
O O15 0.908729 0.191894 0.289835
#
# Coordination Sequence:
#
# PCOD9281134 Si02
#       8
#     8   4   8   8   8   8   8   8
#     4  10  21  39  58  91 130 180 224 270 324 392
#     4  10  22  42  76  96 120 158 228 284 346 406
#     4  10  21  38  58  93 133 191 227 274 312 386
#     4  10  21  41  68  96 121 168 222 277 333 403
#     4  11  23  43  65  95 136 182 225 278 329 392
#     4  10  25  36  58  96 137 177 217 274 332 394
#     4  10  22  43  66  95 132 165 218 288 338 403
#     4  10  23  40  61  93 135 183 239 271 312 385
#
# _framework density 23.497707999999999
#
# number of rings (size 3 to 8) (size 9 to 14) (size 15 to 20)
#    0.000    1.867    1.333    1.200    7.467    4.800 
#    7.200    0.667    0.000   11.200    0.000    0.000 
#    0.000    0.000    0.000    0.000    0.000    0.000 
#
# Total GULP energy -167488.569990 kJ/mol
# GULP energy per Si atom -5582.952333 kJ/mol
# Density = 2.344423 g / cm^3
# Si number density = 23.497708 Si / 1000 Ang^3
#
#
#
# Elastic Constant Matrix: (Units=GPa)
#
#
# Indices 1 2 3 4 5 6 
#
# 1 59.6027 6.6376 37.2237 0.0000 42.2252 0.0000
# 2 6.6376 78.9122 13.4820 0.0000 21.1878 0.0000
# 3 37.2237 13.4820 151.9980 0.0000 52.8607 0.0000
# 4 0.0000 0.0000 0.0000 18.0357 0.0000 0.7936
# 5 42.2252 21.1878 52.8607 0.0000 49.6065 0.0000
# 6 0.0000 0.0000 0.0000 0.7936 0.0000 25.9380
#
#
#
# Elastic Compliance Matrix: (Units=1/GPa)
#
#
# Indices 1 2 3 4 5 6 
#
# 1 0.047860 0.008418 0.004688 0.000000 -0.049329 0.000000
# 2 0.008418 0.015974 0.002203 0.000000 -0.016335 0.000000
# 3 0.004688 0.002203 0.011043 0.000000 -0.016699 0.000000
# 4 0.000000 0.000000 0.000000 0.055520 0.000000 -0.001699
# 5 -0.049329 -0.016335 -0.016699 0.000000 0.086919 0.000000
# 6 0.000000 0.000000 0.000000 -0.001699 0.000000 0.038605
#
#
# Mechanical properties :
#
#
# Convention : Reuss Voigt Hill
#
# Bulk Modulus (GPa) = 9.47920 45.02219 27.25069
# Shear Modulus (GPa) = 19.19621 34.26069 26.72845
#
# Velocity S-wave (km/s) = 2.86132 3.82258 3.37633
# Velocity P-wave (km/s) = 3.86769 6.21970 5.17898
#
# Compressibility (1/GPa) = 0.10549412
#
# Stress axis : x y z
#
# Youngs Moduli (GPa) = 20.89446 62.60195 90.55633
#
# Poissons Ratio (x) = -0.52700 -0.42454
# Poissons Ratio (y) = -0.17589 -0.19945
# Poissons Ratio (z) = -0.09795 -0.13788
#
# Static dielectric constant tensor:
#      x y z
#    x 1.926060 0.000000 -0.005320 
#    y 0.000000 2.003130 0.000000 
#    z -0.005320 0.000000 1.917300 
# 
# From -- ./inp_files/221263.got.cif
#   From: 2010.05.17/outbox.cif.g08.bks.cpg/sg15_111_cif.got.tgz:221263.got - 2010.06.03 18:47:42.
