data_PCOD9281080
_publ_section_title
;
Structure prediction by ZEFSAII (Michael W. Deem and Ramdas Pophale) SiO2 
 PCOD9281080
Probable space group: C 2/C
;
_chemical_formula_sum "Si O2"
_cell_formula_units_Z 64
_cell_length_a 29.882387
_cell_length_b 13.835068
_cell_length_c 9.327658
_cell_angle_alpha 90.000000
_cell_angle_beta 109.784920
_cell_angle_gamma 90.000000
_cell_volume 3628.648702
_symmetry_space_group_name_H-M "C 2/C"
_symmetry_group_IT_number 15
_symmetry_cell_setting 'monoclinic'
loop_
_space_group_symop_operation_xyz
x,y,z
-x,y,1/2-z
-x,-y,-z
x,-y,1/2+z
1/2+x,1/2+y,z
1/2-x,1/2+y,1/2-z
1/2-x,1/2-y,-z
1/2+x,1/2-y,1/2+z
loop_
_atom_site_type_symbol
_atom_site_label
_atom_site_fract_x
_atom_site_fract_y
_atom_site_fract_z
Si Si1 0.224847 0.090792 0.944461
Si Si2 0.693312 0.898130 0.191711
Si Si3 0.802676 0.715232 0.531824
Si Si4 0.853392 0.257493 0.575835
Si Si5 0.313869 0.109003 0.256099
Si Si6 0.052530 0.132461 0.798867
Si Si7 0.348615 0.416644 0.617906
Si Si8 0.587996 0.488968 0.071814
O O1 0.254953 0.102379 0.830080
O O2 0.186409 0.176361 0.926005
O O3 0.196278 0.989910 0.918925
O O4 0.264910 0.096537 0.112213
O O5 0.692060 0.874970 0.357485
O O6 0.674016 0.006617 0.159577
O O7 0.663777 0.812829 0.084560
O O8 0.750000 0.750000 0.500000
O O9 0.807584 0.684830 0.374842
O O10 0.835187 0.805438 0.606657
O O11 0.851526 0.343254 0.690251
O O12 0.903690 0.204485 0.624953
O O13 0.062034 0.083830 0.653214
O O14 0.000000 0.175945 0.750000
O O15 0.055841 0.050734 0.927506
O O16 0.374844 0.438102 0.495818
O O17 0.382385 0.443045 0.787877
#
# Coordination Sequence:
#
# PCOD9281080 Si02
#       8
#     8   8   8   8   8   8   8   8
#     4  11  22  35  55  77 118 159 186 220 279 336
#     4  11  23  36  52  78 111 153 192 235 269 317
#     4  12  22  30  48  78 106 142 200 230 262 311
#     4  11  21  40  57  77 114 153 186 226 288 341
#     4  11  23  36  52  78 111 153 192 235 269 317
#     4  11  22  38  62  88 111 142 182 230 288 353
#     4  11  23  35  57  80 115 154 186 228 275 339
#     4  10  21  38  58  82 116 146 176 226 287 346
#
# _framework density 17.637419999999999
#
# number of rings (size 3 to 8) (size 9 to 14) (size 15 to 20)
#    0.000    1.000    2.500    7.875    5.250    0.000 
#    0.000    0.000    0.000    0.750    0.000    0.000 
#    0.000    0.000    0.000    0.000    0.000    0.000 
#
# Total GULP energy -178726.105064 kJ/mol
# GULP energy per Si atom -5585.190783 kJ/mol
# Density = 1.759728 g / cm^3
# Si number density = 17.637420 Si / 1000 Ang^3
#
#
#
# Elastic Constant Matrix: (Units=GPa)
#
#
# Indices 1 2 3 4 5 6 
#
# 1 73.4505 20.6831 26.4149 0.0000 7.5732 0.0000
# 2 20.6831 74.3252 2.9431 0.0000 4.8911 0.0000
# 3 26.4149 2.9431 56.2337 0.0000 -20.8481 0.0000
# 4 0.0000 0.0000 0.0000 27.2918 0.0000 -3.9466
# 5 7.5732 4.8911 -20.8481 0.0000 20.6758 0.0000
# 6 0.0000 0.0000 0.0000 -3.9466 0.0000 20.3740
#
#
#
# Elastic Compliance Matrix: (Units=1/GPa)
#
#
# Indices 1 2 3 4 5 6 
#
# 1 0.027803 -0.004391 -0.025905 0.000000 -0.035266 0.000000
# 2 -0.004391 0.014698 0.000959 0.000000 -0.000902 0.000000
# 3 -0.025905 0.000959 0.053236 0.000000 0.062941 0.000000
# 4 0.000000 0.000000 0.000000 0.037697 0.000000 0.007302
# 5 -0.035266 -0.000902 0.062941 0.000000 0.124962 0.000000
# 6 0.000000 0.000000 0.000000 0.007302 0.000000 0.050497
#
#
# Mechanical properties :
#
#
# Convention : Reuss Voigt Hill
#
# Bulk Modulus (GPa) = 26.98067 33.78797 30.38432
# Shear Modulus (GPa) = 13.16069 23.93287 18.54678
#
# Velocity S-wave (km/s) = 2.73459 3.68766 3.24629
# Velocity P-wave (km/s) = 5.03004 6.10986 5.59605
#
# Compressibility (1/GPa) = 0.03706357
#
# Stress axis : x y z
#
# Youngs Moduli (GPa) = 35.96718 68.03851 18.78436
#
# Poissons Ratio (x) = 0.29873 0.48660
# Poissons Ratio (y) = 0.15792 -0.01801
# Poissons Ratio (z) = 0.93172 -0.06523
#
# Static dielectric constant tensor:
#      x y z
#    x 1.589990 0.000000 -0.012730 
#    y 0.000000 1.545140 0.000000 
#    z -0.012730 0.000000 1.614990 
# 
# From -- ./inp_files/69961.got.cif
#   From: 2010.05.17/outbox.cif.g08.bks.cpg/sg15_35_cif.got.tgz:69961.got - 2010.06.03 18:47:42.
