data_PCOD9281474
_publ_section_title
;
Structure prediction by ZEFSAII (Michael W. Deem and Ramdas Pophale) SiO2 
 PCOD9281474
Probable space group: C 2/C
;
_chemical_formula_sum "Si O2"
_cell_formula_units_Z 56
_cell_length_a 12.531907
_cell_length_b 20.589967
_cell_length_c 21.872915
_cell_angle_alpha 90.000000
_cell_angle_beta 32.403181
_cell_angle_gamma 90.000000
_cell_volume 3024.418584
_symmetry_space_group_name_H-M "C 2/C"
_symmetry_group_IT_number 15
_symmetry_cell_setting 'monoclinic'
loop_
_space_group_symop_operation_xyz
x,y,z
-x,y,1/2-z
-x,-y,-z
x,-y,1/2+z
1/2+x,1/2+y,z
1/2-x,1/2+y,1/2-z
1/2-x,1/2-y,-z
1/2+x,1/2-y,1/2+z
loop_
_atom_site_type_symbol
_atom_site_label
_atom_site_fract_x
_atom_site_fract_y
_atom_site_fract_z
Si Si1 0.956180 0.943742 0.070618
Si Si2 0.887624 0.806256 0.040367
Si Si3 0.061781 0.282384 0.560610
Si Si4 0.217934 0.472335 0.779854
Si Si5 0.666762 0.327644 0.792764
Si Si6 0.000000 0.013741 0.750000
Si Si7 0.291472 0.927588 0.009377
Si Si8 0.000000 0.227430 0.250000
O O1 0.887230 0.877689 0.071119
O O2 0.154891 0.929128 0.014550
O O3 0.793752 0.972399 0.196786
O O4 0.000000 0.000000 0.000000
O O5 0.671249 0.774217 0.140899
O O6 0.007081 0.758122 0.027390
O O7 0.000433 0.809642 0.921774
O O8 0.250000 0.250000 0.500000
O O9 0.116975 0.357002 0.521921
O O10 0.866495 0.284149 0.698281
O O11 0.267944 0.401817 0.727529
O O12 0.352340 0.476119 0.775809
O O13 0.983315 0.474149 0.908143
O O14 0.585897 0.315982 0.763386
O O15 0.853456 0.053371 0.865308
#
# Coordination Sequence:
#
# PCOD9281474 Si02
#       8
#     8   8   8   8   8   4   8   4
#     4  11  22  39  60  88 124 157 205 252 298 368
#     4  11  22  40  61  90 120 159 204 251 307 360
#     4  10  21  39  59  88 122 153 204 250 307 356
#     4  10  21  39  61  88 122 160 201 249 305 362
#     4  10  21  39  63  86 119 160 200 251 304 366
#     4  10  21  38  62  88 123 158 206 244 302 370
#     4  10  22  39  61  89 121 161 202 254 303 361
#     4  10  23  40  62  88 121 154 204 254 306 360
#
# _framework density 18.515955000000002
#
# number of rings (size 3 to 8) (size 9 to 14) (size 15 to 20)
#    0.000    1.714    2.857    1.286    0.000    3.429 
#    2.571    0.000    0.000    0.000    0.000    0.000 
#    0.000    0.000    0.000    0.000    0.000    0.000 
#
# Total GULP energy -156230.780100 kJ/mol
# GULP energy per Si atom -5579.670718 kJ/mol
# Density = 1.847381 g / cm^3
# Si number density = 18.515955 Si / 1000 Ang^3
#
#
#
# Elastic Constant Matrix: (Units=GPa)
#
#
# Indices 1 2 3 4 5 6 
#
# 1 32.6503 14.0173 28.0470 -0.0041 -0.5062 0.0032
# 2 14.0173 76.9275 28.1395 0.0057 4.6562 0.0027
# 3 28.0470 28.1395 138.7536 0.0134 -1.0042 0.0016
# 4 -0.0041 0.0057 0.0134 22.3258 -0.0020 -1.3806
# 5 -0.5062 4.6562 -1.0042 -0.0020 31.5245 -0.0010
# 6 0.0032 0.0027 0.0016 -1.3806 -0.0010 26.1813
#
#
#
# Elastic Compliance Matrix: (Units=1/GPa)
#
#
# Indices 1 2 3 4 5 6 
#
# 1 0.038487 -0.004575 -0.006844 0.000012 0.001076 -0.000003
# 2 -0.004575 0.014734 -0.002080 -0.000004 -0.002316 -0.000001
# 3 -0.006844 -0.002080 0.009016 -0.000006 0.000485 0.000000
# 4 0.000012 -0.000004 -0.000006 0.044938 0.000003 0.002370
# 5 0.001076 -0.002316 0.000485 0.000003 0.032096 0.000001
# 6 -0.000003 -0.000001 0.000000 0.002370 0.000001 0.038320
#
#
# Mechanical properties :
#
#
# Convention : Reuss Voigt Hill
#
# Bulk Modulus (GPa) = 28.37731 43.19323 35.78527
# Shear Modulus (GPa) = 23.11228 27.88149 25.49689
#
# Velocity S-wave (km/s) = 3.53687 3.88469 3.71485
# Velocity P-wave (km/s) = 5.66025 6.59540 6.14564
#
# Compressibility (1/GPa) = 0.03523942
#
# Stress axis : x y z
#
# Youngs Moduli (GPa) = 25.98257 67.87081 110.91605
#
# Poissons Ratio (x) = 0.31048 0.75912
# Poissons Ratio (y) = 0.11886 0.23072
# Poissons Ratio (z) = 0.17783 0.14118
#
# Static dielectric constant tensor:
#      x y z
#    x 1.621660 -0.000020 -0.015590 
#    y -0.000020 1.652250 -0.000010 
#    z -0.015590 -0.000010 1.627050 
# 
# From -- ./inp_files/114777.got.cif
#   From: 2010.05.17/outbox.cif.g08.bks.cpg/sg15_58_cif.got.tgz:114777.got - 2010.06.03 18:47:42.
