data_PCOD9281672
_publ_section_title
;
Structure prediction by ZEFSAII (Michael W. Deem and Ramdas Pophale) SiO2 
 PCOD9281672
Probable space group: C 2/C
;
_chemical_formula_sum "Si O2"
_cell_formula_units_Z 48
_cell_length_a 18.594741
_cell_length_b 16.296851
_cell_length_c 14.629155
_cell_angle_alpha 90.000000
_cell_angle_beta 31.875654
_cell_angle_gamma 90.000000
_cell_volume 2341.050432
_symmetry_space_group_name_H-M "C 2/C"
_symmetry_group_IT_number 15
_symmetry_cell_setting 'monoclinic'
loop_
_space_group_symop_operation_xyz
x,y,z
-x,y,1/2-z
-x,-y,-z
x,-y,1/2+z
1/2+x,1/2+y,z
1/2-x,1/2+y,1/2-z
1/2-x,1/2-y,-z
1/2+x,1/2-y,1/2+z
loop_
_atom_site_type_symbol
_atom_site_label
_atom_site_fract_x
_atom_site_fract_y
_atom_site_fract_z
Si Si1 0.672321 0.206470 0.706518
Si Si2 0.343825 0.475265 0.690242
Si Si3 0.134131 0.128151 0.153586
Si Si4 0.973861 0.287239 0.672688
Si Si5 0.412817 0.077499 0.565882
Si Si6 0.280393 0.695461 0.173546
O O1 0.755077 0.154793 0.541724
O O2 0.599868 0.284137 0.738082
O O3 0.578388 0.143078 0.861653
O O4 0.759269 0.251930 0.693015
O O5 0.500000 0.500000 0.500000
O O6 0.327024 0.436649 0.810008
O O7 0.242684 0.550852 0.782641
O O8 0.290645 0.400486 0.684261
O O9 0.000000 0.095445 0.250000
O O10 0.821646 0.283761 0.798244
O O11 0.000000 0.272104 0.750000
O O12 0.029321 0.377047 0.585021
O O13 0.068688 0.224397 0.515153
O O14 0.500000 0.000000 0.500000
#
# Coordination Sequence:
#
# PCOD9281672 Si02
#       6
#     8   8   8   8   8   8
#     4   9  22  37  64  90 121 163 212 260 315 368
#     4  11  24  42  63  94 133 173 205 259 330 387
#     4  10  21  38  63  95 121 158 221 263 305 373
#     4  11  24  43  66  94 124 166 225 262 316 388
#     4  11  23  41  64  88 131 170 201 258 328 382
#     4  10  23  42  69  90 126 169 214 267 320 382
#
# _framework density 20.503616000000001
#
# number of rings (size 3 to 8) (size 9 to 14) (size 15 to 20)
#    0.000    1.667    1.667    1.500   11.667    2.667 
#    3.000    0.000    0.000    0.000    0.000    0.000 
#    0.000    0.000    0.000    0.000    0.000    0.000 
#
# Total GULP energy -133968.298330 kJ/mol
# GULP energy per Si atom -5582.012430 kJ/mol
# Density = 2.045695 g / cm^3
# Si number density = 20.503616 Si / 1000 Ang^3
#
#
#
# Elastic Constant Matrix: (Units=GPa)
#
#
# Indices 1 2 3 4 5 6 
#
# 1 81.5621 -3.5733 4.4149 0.0001 6.8208 -0.0001
# 2 -3.5733 51.9386 3.2079 0.0001 9.7205 -0.0001
# 3 4.4149 3.2079 48.5615 0.0002 4.2901 -0.0002
# 4 0.0001 0.0001 0.0002 10.2282 -0.0001 -7.6093
# 5 6.8208 9.7205 4.2901 -0.0001 39.9039 0.0001
# 6 -0.0001 -0.0001 -0.0002 -7.6093 0.0001 19.9755
#
#
#
# Elastic Compliance Matrix: (Units=1/GPa)
#
#
# Indices 1 2 3 4 5 6 
#
# 1 0.012575 0.001373 -0.001024 0.000000 -0.002374 0.000000
# 2 0.001373 0.020363 -0.001021 0.000000 -0.005085 0.000000
# 3 -0.001024 -0.001021 0.020914 0.000000 -0.001825 0.000000
# 4 0.000000 0.000000 0.000000 0.136434 0.000000 0.051972
# 5 -0.002374 -0.005085 -0.001825 0.000000 0.026901 0.000000
# 6 0.000000 0.000000 0.000000 0.051972 0.000000 0.069859
#
#
# Mechanical properties :
#
#
# Convention : Reuss Voigt Hill
#
# Bulk Modulus (GPa) = 19.04506 21.12902 20.08704
# Shear Modulus (GPa) = 16.34563 25.88902 21.11732
#
# Velocity S-wave (km/s) = 2.82655 3.55724 3.21274
# Velocity P-wave (km/s) = 4.46781 5.21530 4.85596
#
# Compressibility (1/GPa) = 0.05250706
#
# Stress axis : x y z
#
# Youngs Moduli (GPa) = 79.52490 49.10943 47.81444
#
# Poissons Ratio (x) = -0.06741 0.04897
# Poissons Ratio (y) = -0.10916 0.04880
# Poissons Ratio (z) = 0.08145 0.05012
#
# Static dielectric constant tensor:
#      x y z
#    x 1.765170 0.000000 0.028080 
#    y 0.000000 1.747060 0.000000 
#    z 0.028080 0.000000 1.748300 
# 
# From -- ./inp_files/163169.got.cif
#   From: 2010.05.17/outbox.cif.g08.bks.cpg/sg15_82_cif.got.tgz:163169.got - 2010.06.03 18:47:42.
