data_PCOD9281120
_publ_section_title
;
Structure prediction by ZEFSAII (Michael W. Deem and Ramdas Pophale) SiO2 
 PCOD9281120
Probable space group: C 2/C
;
_chemical_formula_sum "Si O2"
_cell_formula_units_Z 64
_cell_length_a 25.024586
_cell_length_b 14.262007
_cell_length_c 20.506350
_cell_angle_alpha 90.000000
_cell_angle_beta 28.215550
_cell_angle_gamma 90.000000
_cell_volume 3460.223346
_symmetry_space_group_name_H-M "C 2/C"
_symmetry_group_IT_number 15
_symmetry_cell_setting 'monoclinic'
loop_
_space_group_symop_operation_xyz
x,y,z
-x,y,1/2-z
-x,-y,-z
x,-y,1/2+z
1/2+x,1/2+y,z
1/2-x,1/2+y,1/2-z
1/2-x,1/2-y,-z
1/2+x,1/2-y,1/2+z
loop_
_atom_site_type_symbol
_atom_site_label
_atom_site_fract_x
_atom_site_fract_y
_atom_site_fract_z
Si Si1 0.744501 0.365042 0.359727
Si Si2 0.230053 0.359200 0.731577
Si Si3 0.682715 0.960721 0.920631
Si Si4 0.979111 0.936580 0.458898
Si Si5 0.012081 0.072475 0.166673
Si Si6 0.293430 0.691281 0.389809
Si Si7 0.053665 0.509520 0.369838
Si Si8 0.807971 0.146772 0.734354
O O1 0.640091 0.394712 0.517392
O O2 0.783931 0.263485 0.340280
O O3 0.853118 0.430963 0.244638
O O4 0.697015 0.370717 0.337723
O O5 0.198556 0.392827 0.839521
O O6 0.349641 0.408610 0.590052
O O7 0.129142 0.396944 0.794035
O O8 0.245566 0.249182 0.702805
O O9 0.724458 0.900971 0.938505
O O10 0.750052 0.057231 0.831529
O O11 0.552202 0.993473 0.063567
O O12 0.063320 0.850283 0.379230
O O13 0.000000 0.000000 0.500000
O O14 0.016220 0.999055 0.358555
O O15 0.000000 0.027355 0.250000
O O16 0.922141 0.157209 0.260986
O O17 0.250000 0.750000 0.500000
O O18 0.000000 0.500000 0.500000
#
# Coordination Sequence:
#
# PCOD9281120 Si02
#       8
#     8   8   8   8   8   8   8   8
#     4  12  23  38  62  93 132 177 216 272 335 403
#     4  11  22  36  60  94 130 168 218 270 340 399
#     4  11  22  40  57  92 134 169 212 271 332 402
#     4  12  21  41  63  93 130 169 224 286 334 390
#     4  12  24  42  66  92 133 177 227 272 332 403
#     4  12  26  41  62  96 136 179 221 264 334 411
#     4  10  21  38  58  87 131 170 213 270 344 394
#     4  12  23  35  64  96 130 171 216 276 344 391
#
# _framework density 18.495916000000001
#
# number of rings (size 3 to 8) (size 9 to 14) (size 15 to 20)
#    0.000    0.500   10.000    0.000    3.500    0.000 
#    0.000    0.000    0.000    0.750    0.000    0.000 
#    0.000    0.000    0.000    0.000    0.000    0.000 
#
# Total GULP energy -178432.584863 kJ/mol
# GULP energy per Si atom -5576.018277 kJ/mol
# Density = 1.845382 g / cm^3
# Si number density = 18.495916 Si / 1000 Ang^3
#
#
#
# Elastic Constant Matrix: (Units=GPa)
#
#
# Indices 1 2 3 4 5 6 
#
# 1 79.5567 37.3592 50.8108 0.0000 -1.7404 0.0000
# 2 37.3592 111.6643 38.6572 0.0000 5.4293 0.0000
# 3 50.8108 38.6572 107.8711 0.0000 -14.4223 0.0000
# 4 0.0000 0.0000 0.0000 26.5127 0.0000 -3.6234
# 5 -1.7404 5.4293 -14.4223 0.0000 29.1497 0.0000
# 6 0.0000 0.0000 0.0000 -3.6234 0.0000 34.4547
#
#
#
# Elastic Compliance Matrix: (Units=1/GPa)
#
#
# Indices 1 2 3 4 5 6 
#
# 1 0.019405 -0.003559 -0.008161 0.000000 -0.002216 0.000000
# 2 -0.003559 0.011327 -0.002884 0.000000 -0.003749 0.000000
# 3 -0.008161 -0.002884 0.015157 0.000000 0.007549 0.000000
# 4 0.000000 0.000000 0.000000 0.038268 0.000000 0.004024
# 5 -0.002216 -0.003749 0.007549 0.000000 0.038607 0.000000
# 6 0.000000 0.000000 0.000000 0.004024 0.000000 0.029447
#
#
# Mechanical properties :
#
#
# Convention : Reuss Voigt Hill
#
# Bulk Modulus (GPa) = 59.95004 61.41628 60.68316
# Shear Modulus (GPa) = 26.74096 29.50774 28.12435
#
# Velocity S-wave (km/s) = 3.80646 3.99854 3.90368
# Velocity P-wave (km/s) = 7.19735 7.38885 7.29373
#
# Compressibility (1/GPa) = 0.01668056
#
# Stress axis : x y z
#
# Youngs Moduli (GPa) = 51.53355 88.28576 65.97463
#
# Poissons Ratio (x) = 0.31422 0.53843
# Poissons Ratio (y) = 0.18341 0.19027
# Poissons Ratio (z) = 0.42057 0.25461
#
# Static dielectric constant tensor:
#      x y z
#    x 1.345690 0.000000 0.412660 
#    y 0.000000 1.675200 0.000000 
#    z 0.412660 0.000000 1.075460 
# 
# From -- ./inp_files/219728.got.cif
#   From: 2010.05.17/outbox.cif.g08.bks.cpg/sg15_110_cif.got.tgz:219728.got - 2010.06.03 18:47:42.
