data_PCOD9281922
_publ_section_title
;
Structure prediction by ZEFSAII (Michael W. Deem and Ramdas Pophale) SiO2 
 PCOD9281922
Probable space group: C 2/C
;
_chemical_formula_sum "Si O2"
_cell_formula_units_Z 48
_cell_length_a 14.685459
_cell_length_b 8.955923
_cell_length_c 21.496545
_cell_angle_alpha 90.000000
_cell_angle_beta 138.465643
_cell_angle_gamma 90.000000
_cell_volume 1874.671976
_symmetry_space_group_name_H-M "C 2/C"
_symmetry_group_IT_number 15
_symmetry_cell_setting 'monoclinic'
loop_
_space_group_symop_operation_xyz
x,y,z
-x,y,1/2-z
-x,-y,-z
x,-y,1/2+z
1/2+x,1/2+y,z
1/2-x,1/2+y,1/2-z
1/2-x,1/2-y,-z
1/2+x,1/2-y,1/2+z
loop_
_atom_site_type_symbol
_atom_site_label
_atom_site_fract_x
_atom_site_fract_y
_atom_site_fract_z
Si Si1 0.433708 0.523594 0.149023
Si Si2 0.295502 0.199735 0.637277
Si Si3 0.941914 0.578928 0.275801
Si Si4 0.484465 0.213815 0.519091
Si Si5 0.639197 0.083508 0.492105
Si Si6 0.672376 0.344156 0.713006
O O1 0.500000 0.496019 0.250000
O O2 0.374053 0.696236 0.126795
O O3 0.560015 0.524512 0.165387
O O4 0.303076 0.420318 0.068184
O O5 0.292206 0.292504 0.699841
O O6 0.138222 0.166068 0.539348
O O7 0.375840 0.054746 0.700546
O O8 0.811685 0.626442 0.249064
O O9 0.000000 0.681417 0.250000
O O10 0.061744 0.561427 0.387747
O O11 0.397445 0.062702 0.485203
O O12 0.591087 0.224918 0.629808
O O13 0.570046 0.211845 0.498916
#
# Coordination Sequence:
#
# PCOD9281922 Si02
#       6
#     8   8   8   8   8   8
#     4   9  21  38  62  96 122 156 205 255 298 356
#     4  10  21  40  63  93 124 155 206 255 303 354
#     4  12  25  41  63  92 125 161 202 257 307 358
#     4  10  21  38  66  91 121 166 201 249 300 369
#     4  10  21  40  66  90 120 163 212 240 301 367
#     4  11  22  40  62  92 124 157 205 256 304 355
#
# _framework density 25.604478
#
# number of rings (size 3 to 8) (size 9 to 14) (size 15 to 20)
#    0.000    1.667    3.333    1.500    4.667    2.000 
#    0.000    3.333    0.000    0.000    0.000    0.000 
#    0.000    0.000    0.000    0.000    0.000    0.000 
#
# Total GULP energy -134148.401239 kJ/mol
# GULP energy per Si atom -5589.516718 kJ/mol
# Density = 2.554620 g / cm^3
# Si number density = 25.604478 Si / 1000 Ang^3
#
#
#
# Elastic Constant Matrix: (Units=GPa)
#
#
# Indices 1 2 3 4 5 6 
#
# 1 176.3883 1.6863 50.0024 0.0000 9.4616 0.0000
# 2 1.6863 31.2841 7.1515 0.0000 2.9881 0.0000
# 3 50.0024 7.1515 169.4819 0.0000 15.8695 0.0000
# 4 0.0000 0.0000 0.0000 9.0120 0.0000 -1.2849
# 5 9.4616 2.9881 15.8695 0.0000 47.8933 0.0000
# 6 0.0000 0.0000 0.0000 -1.2849 0.0000 6.8524
#
#
#
# Elastic Compliance Matrix: (Units=1/GPa)
#
#
# Indices 1 2 3 4 5 6 
#
# 1 0.006206 0.000133 -0.001776 0.000000 -0.000646 0.000000
# 2 0.000133 0.032400 -0.001254 0.000000 -0.001632 0.000000
# 3 -0.001776 -0.001254 0.006643 0.000000 -0.001772 0.000000
# 4 0.000000 0.000000 0.000000 0.114011 0.000000 0.021379
# 5 -0.000646 -0.001632 -0.001772 0.000000 0.021696 0.000000
# 6 0.000000 0.000000 0.000000 0.021379 0.000000 0.149944
#
#
# Mechanical properties :
#
#
# Convention : Reuss Voigt Hill
#
# Bulk Modulus (GPa) = 25.34430 54.98163 40.16296
# Shear Modulus (GPa) = 14.29199 33.97250 24.13224
#
# Velocity S-wave (km/s) = 2.36515 3.64650 3.07335
# Velocity P-wave (km/s) = 4.16875 6.26493 5.32108
#
# Compressibility (1/GPa) = 0.03945661
#
# Stress axis : x y z
#
# Youngs Moduli (GPa) = 161.12962 30.86380 150.53015
#
# Poissons Ratio (x) = -0.00411 0.26737
# Poissons Ratio (y) = -0.02146 0.18871
# Poissons Ratio (z) = 0.28619 0.03869
#
# Static dielectric constant tensor:
#      x y z
#    x 2.153440 0.000000 0.079440 
#    y 0.000000 2.168910 0.000000 
#    z 0.079440 0.000000 1.958270 
# 
# From -- ./inp_files/243922.got.cif
#   From: 2010.05.17/outbox.cif.g08.bks.cpg/sg15_122_cif.got.tgz:243922.got - 2010.06.03 18:47:42.
