data_PCOD9281405
_publ_section_title
;
Structure prediction by ZEFSAII (Michael W. Deem and Ramdas Pophale) SiO2 
 PCOD9281405
Probable space group: C 2/C
;
_chemical_formula_sum "Si O2"
_cell_formula_units_Z 52
_cell_length_a 7.685055
_cell_length_b 12.879431
_cell_length_c 25.380216
_cell_angle_alpha 90.000000
_cell_angle_beta 64.554106
_cell_angle_gamma 90.000000
_cell_volume 2268.415452
_symmetry_space_group_name_H-M "C 2/C"
_symmetry_group_IT_number 15
_symmetry_cell_setting 'monoclinic'
loop_
_space_group_symop_operation_xyz
x,y,z
-x,y,1/2-z
-x,-y,-z
x,-y,1/2+z
1/2+x,1/2+y,z
1/2-x,1/2+y,1/2-z
1/2-x,1/2-y,-z
1/2+x,1/2-y,1/2+z
loop_
_atom_site_type_symbol
_atom_site_label
_atom_site_fract_x
_atom_site_fract_y
_atom_site_fract_z
Si Si1 0.962264 0.294867 0.964208
Si Si2 0.790939 0.397508 0.248872
Si Si3 0.227172 0.724136 0.336699
Si Si4 0.026821 0.323699 0.377557
Si Si5 0.675448 0.992026 0.023055
Si Si6 0.514762 0.636588 0.455594
Si Si7 0.000000 0.056012 0.250000
O O1 0.949125 0.413212 0.984405
O O2 0.037665 0.297109 0.895081
O O3 0.750000 0.250000 0.000000
O O4 0.070306 0.212038 0.986920
O O5 0.705004 0.297661 0.289485
O O6 0.635985 0.488811 0.270565
O O7 0.000000 0.419951 0.250000
O O8 0.819941 0.369785 0.183546
O O9 0.358915 0.786413 0.360548
O O10 0.351407 0.626306 0.302234
O O11 0.947199 0.414294 0.425091
O O12 0.081502 0.220536 0.403663
O O13 0.831890 0.934972 0.965213
O O14 0.820149 0.059162 0.044269
#
# Coordination Sequence:
#
# PCOD9281405 Si02
#       7
#     8   8   8   8   8   8   4
#     4  10  22  41  64  95 136 175 226 287 337 416
#     4  10  25  48  70 103 138 179 237 289 351 426
#     4  11  23  46  66  99 141 172 237 296 334 425
#     4  11  21  42  66  91 135 173 217 289 339 403
#     4  10  21  38  61  91 126 172 221 265 340 406
#     4  10  22  39  60  92 128 172 218 270 339 397
#     4  12  24  48  76 102 136 194 228 290 366 408
#
# _framework density 22.923487999999999
#
# number of rings (size 3 to 8) (size 9 to 14) (size 15 to 20)
#    0.000    1.538    3.846    1.385    0.000    5.538 
#    4.154    0.000    0.000    0.000    0.000    0.000 
#    0.000    0.000    0.000    0.000    0.000    0.000 
#
# Total GULP energy -145186.515212 kJ/mol
# GULP energy per Si atom -5584.096739 kJ/mol
# Density = 2.287131 g / cm^3
# Si number density = 22.923488 Si / 1000 Ang^3
#
#
#
# Elastic Constant Matrix: (Units=GPa)
#
#
# Indices 1 2 3 4 5 6 
#
# 1 62.5378 28.7482 31.1628 0.0000 -11.5637 0.0000
# 2 28.7482 139.7927 59.0371 0.0000 -8.3486 0.0000
# 3 31.1628 59.0371 136.4750 0.0000 -13.5745 0.0000
# 4 0.0000 0.0000 0.0000 -6.6889 0.0000 0.5462
# 5 -11.5637 -8.3486 -13.5745 0.0000 29.5412 0.0000
# 6 0.0000 0.0000 0.0000 0.5462 0.0000 45.4962
#
#
#
# Elastic Compliance Matrix: (Units=1/GPa)
#
#
# Indices 1 2 3 4 5 6 
#
# 1 0.019596 -0.002496 -0.002832 0.000000 0.005664 0.000000
# 2 -0.002496 0.009087 -0.003356 0.000000 0.000049 0.000000
# 3 -0.002832 -0.003356 0.009663 0.000000 0.002383 0.000000
# 4 0.000000 0.000000 0.000000 -0.149355 0.000000 0.001793
# 5 0.005664 0.000049 0.002383 0.000000 0.037177 0.000000
# 6 0.000000 0.000000 0.000000 0.001793 0.000000 0.021958
#
#
# Mechanical properties :
#
#
# Convention : Reuss Voigt Hill
#
# Bulk Modulus (GPa) = 47.66719 64.07799 55.87259
# Shear Modulus (GPa) = -181.72704 28.32685 -76.70010
#
# Velocity S-wave (km/s) = -8.91334 3.51908 -5.79067
# Velocity P-wave (km/s) = 9.22447 6.67275 4.50363
#
# Compressibility (1/GPa) = 0.02097879
#
# Stress axis : x y z
#
# Youngs Moduli (GPa) = 51.03099 110.04737 103.48990
#
# Poissons Ratio (x) = 0.27466 0.29303
# Poissons Ratio (y) = 0.12736 0.34733
# Poissons Ratio (z) = 0.14449 0.36934
#
# Static dielectric constant tensor:
#      x y z
#    x 2.086010 0.000000 -0.055990 
#    y 0.000000 1.920800 0.000000 
#    z -0.055990 0.000000 1.914490 
# 
# From -- ./inp_files/287909.got.cif
#   From: 2010.05.17/outbox.cif.g08.bks.cpg/sg15_144_cif.got.tgz:287909.got - 2010.06.03 18:47:42.
