data_PCOD9281420
_publ_section_title
;
Structure prediction by ZEFSAII (Michael W. Deem and Ramdas Pophale) SiO2 
 PCOD9281420
Probable space group: C 2/C
;
_chemical_formula_sum "Si O2"
_cell_formula_units_Z 48
_cell_length_a 13.756233
_cell_length_b 11.228329
_cell_length_c 12.501051
_cell_angle_alpha 90.000000
_cell_angle_beta 76.064834
_cell_angle_gamma 90.000000
_cell_volume 1874.077432
_symmetry_space_group_name_H-M "C 2/C"
_symmetry_group_IT_number 15
_symmetry_cell_setting 'monoclinic'
loop_
_space_group_symop_operation_xyz
x,y,z
-x,y,1/2-z
-x,-y,-z
x,-y,1/2+z
1/2+x,1/2+y,z
1/2-x,1/2+y,1/2-z
1/2-x,1/2-y,-z
1/2+x,1/2-y,1/2+z
loop_
_atom_site_type_symbol
_atom_site_label
_atom_site_fract_x
_atom_site_fract_y
_atom_site_fract_z
Si Si1 0.065735 0.946348 0.823085
Si Si2 0.459780 0.674119 0.952624
Si Si3 0.270087 0.071437 0.757763
Si Si4 0.578193 0.988968 0.912598
Si Si5 0.817664 0.728912 0.082271
Si Si6 0.583393 0.906601 0.658630
O O1 0.000000 0.880553 0.750000
O O2 0.994828 0.057770 0.878089
O O3 0.168292 0.003022 0.753575
O O4 0.088054 0.872389 0.924957
O O5 0.565544 0.734730 0.961690
O O6 0.403400 0.772039 0.893009
O O7 0.229155 0.196747 0.810417
O O8 0.366784 0.100678 0.656742
O O9 0.319209 0.989698 0.839607
O O10 0.676408 0.910373 0.906140
O O11 0.550893 0.910028 0.801429
O O12 0.449498 0.981015 0.949162
O O13 0.750000 0.750000 0.000000
#
# Coordination Sequence:
#
# PCOD9281420 Si02
#       6
#     8   8   8   8   8   8
#     4  10  21  38  61  92 138 176 226 290 356 427
#     4   9  20  38  60  91 128 187 224 281 359 413
#     4  10  22  40  66  98 133 181 231 285 357 417
#     4  10  21  40  63  96 136 179 224 288 352 417
#     4  10  21  39  64  96 135 176 229 291 347 418
#     4   9  18  37  63  88 129 172 231 282 332 420
#
# _framework density 25.612604000000001
#
# number of rings (size 3 to 8) (size 9 to 14) (size 15 to 20)
#    0.000    2.333    0.000    1.500    2.333    2.000 
#    9.000    0.000    0.000    0.000    0.000    0.000 
#    0.000    0.000    0.000    0.000    0.000    0.000 
#
# Total GULP energy -133664.839776 kJ/mol
# GULP energy per Si atom -5569.368324 kJ/mol
# Density = 2.555431 g / cm^3
# Si number density = 25.612604 Si / 1000 Ang^3
#
#
#
# Elastic Constant Matrix: (Units=GPa)
#
#
# Indices 1 2 3 4 5 6 
#
# 1 107.4437 34.3966 76.2950 0.0000 -15.5334 0.0000
# 2 34.3966 87.6679 24.9449 0.0000 -19.7501 0.0000
# 3 76.2950 24.9449 151.3399 0.0000 -3.9318 0.0000
# 4 0.0000 0.0000 0.0000 18.9438 0.0000 6.3021
# 5 -15.5334 -19.7501 -3.9318 0.0000 68.2638 0.0000
# 6 0.0000 0.0000 0.0000 6.3021 0.0000 42.7851
#
#
#
# Elastic Compliance Matrix: (Units=1/GPa)
#
#
# Indices 1 2 3 4 5 6 
#
# 1 0.016094 -0.003709 -0.007446 0.000000 0.002160 0.000000
# 2 -0.003709 0.013642 -0.000298 0.000000 0.003086 0.000000
# 3 -0.007446 -0.000298 0.010380 0.000000 -0.001183 0.000000
# 4 0.000000 0.000000 0.000000 0.055508 0.000000 -0.008176
# 5 0.002160 0.003086 -0.001183 0.000000 0.015965 0.000000
# 6 0.000000 0.000000 0.000000 -0.008176 0.000000 0.024577
#
#
# Mechanical properties :
#
#
# Convention : Reuss Voigt Hill
#
# Bulk Modulus (GPa) = 58.11028 68.63605 63.37316
# Shear Modulus (GPa) = 30.33786 40.05287 35.19537
#
# Velocity S-wave (km/s) = 3.44538 3.95878 3.71096
# Velocity P-wave (km/s) = 6.21006 6.91027 6.56950
#
# Compressibility (1/GPa) = 0.01720866
#
# Stress axis : x y z
#
# Youngs Moduli (GPa) = 62.13308 73.30245 96.33949
#
# Poissons Ratio (x) = 0.27190 0.71736
# Poissons Ratio (y) = 0.23047 0.02875
# Poissons Ratio (z) = 0.46266 0.02188
#
# Static dielectric constant tensor:
#      x y z
#    x 1.999560 0.000000 -0.130190 
#    y 0.000000 2.105860 0.000000 
#    z -0.130190 0.000000 2.448550 
# 
# From -- ./inp_files/153054.got.cif
#   From: 2010.05.17/outbox.cif.g08.bks.cpg/sg15_77_cif.got.tgz:153054.got - 2010.06.03 18:47:42.
