data_PCOD9281477
_publ_section_title
;
Structure prediction by ZEFSAII (Michael W. Deem and Ramdas Pophale) SiO2 
 PCOD9281477
Probable space group: C 2/C
;
_chemical_formula_sum "Si O2"
_cell_formula_units_Z 48
_cell_length_a 12.714352
_cell_length_b 12.936735
_cell_length_c 17.458392
_cell_angle_alpha 90.000000
_cell_angle_beta 125.874607
_cell_angle_gamma 90.000000
_cell_volume 2326.857365
_symmetry_space_group_name_H-M "C 2/C"
_symmetry_group_IT_number 15
_symmetry_cell_setting 'monoclinic'
loop_
_space_group_symop_operation_xyz
x,y,z
-x,y,1/2-z
-x,-y,-z
x,-y,1/2+z
1/2+x,1/2+y,z
1/2-x,1/2+y,1/2-z
1/2-x,1/2-y,-z
1/2+x,1/2-y,1/2+z
loop_
_atom_site_type_symbol
_atom_site_label
_atom_site_fract_x
_atom_site_fract_y
_atom_site_fract_z
Si Si1 0.721690 0.711377 0.807397
Si Si2 0.538953 0.928600 0.087512
Si Si3 0.212360 0.558957 0.940801
Si Si4 0.333331 0.352050 0.056554
Si Si5 0.109242 0.115433 0.608368
Si Si6 0.201813 0.453711 0.785102
O O1 0.864085 0.665876 0.886371
O O2 0.638231 0.662008 0.841062
O O3 0.685626 0.679639 0.705588
O O4 0.705546 0.833334 0.800759
O O5 0.404033 0.887302 0.064867
O O6 0.620069 0.004436 0.179063
O O7 0.500000 0.000000 0.000000
O O8 0.329203 0.622761 0.950416
O O9 0.147397 0.507908 0.837902
O O10 0.262429 0.461120 0.011134
O O11 0.460743 0.358429 0.058195
O O12 0.250000 0.250000 0.000000
O O13 0.150291 0.998688 0.651464
#
# Coordination Sequence:
#
# PCOD9281477 Si02
#       6
#     8   8   8   8   8   8
#     4  11  22  38  65  92 122 164 211 262 313 381
#     4  11  22  39  66  95 125 160 218 261 315 379
#     4  10  21  38  62  88 125 163 200 265 323 371
#     4  12  21  36  65  97 117 160 215 270 310 373
#     4   9  23  38  59  87 129 161 203 255 324 368
#     4   9  22  40  61  91 120 166 205 262 319 372
#
# _framework density 20.628681
#
# number of rings (size 3 to 8) (size 9 to 14) (size 15 to 20)
#    1.000    0.667    3.333    1.500    2.333    1.333 
#    0.000    0.000   14.667    3.000    0.000    0.000 
#    0.000    0.000    0.000    0.000    0.000    0.000 
#
# Total GULP energy -133665.963160 kJ/mol
# GULP energy per Si atom -5569.415132 kJ/mol
# Density = 2.058173 g / cm^3
# Si number density = 20.628681 Si / 1000 Ang^3
#
#
#
# Elastic Constant Matrix: (Units=GPa)
#
#
# Indices 1 2 3 4 5 6 
#
# 1 136.8658 24.6221 22.8390 0.0000 18.7484 0.0000
# 2 24.6221 15.2941 11.5906 0.0000 -3.2539 0.0000
# 3 22.8390 11.5906 56.8921 0.0000 7.4095 0.0000
# 4 0.0000 0.0000 0.0000 5.4815 0.0000 -2.5023
# 5 18.7484 -3.2539 7.4095 0.0000 33.1540 0.0000
# 6 0.0000 0.0000 0.0000 -2.5023 0.0000 13.1337
#
#
#
# Elastic Compliance Matrix: (Units=1/GPa)
#
#
# Indices 1 2 3 4 5 6 
#
# 1 0.012613 -0.023005 0.000872 0.000000 -0.009585 0.000000
# 2 -0.023005 0.123742 -0.019828 0.000000 0.029585 0.000000
# 3 0.000872 -0.019828 0.022231 0.000000 -0.007407 0.000000
# 4 0.000000 0.000000 0.000000 0.199810 0.000000 0.038068
# 5 -0.009585 0.029585 -0.007407 0.000000 0.040142 0.000000
# 6 0.000000 0.000000 0.000000 0.038068 0.000000 0.083393
#
#
# Mechanical properties :
#
#
# Convention : Reuss Voigt Hill
#
# Bulk Modulus (GPa) = 13.39335 36.35059 24.87197
# Shear Modulus (GPa) = 8.46397 20.35385 14.40891
#
# Velocity S-wave (km/s) = 2.02779 3.14455 2.64576
# Velocity P-wave (km/s) = 3.46255 5.55373 4.62780
#
# Compressibility (1/GPa) = 0.07466394
#
# Stress axis : x y z
#
# Youngs Moduli (GPa) = 79.28608 8.08135 44.98169
#
# Poissons Ratio (x) = 0.18591 -0.03922
# Poissons Ratio (y) = 1.82399 0.89188
# Poissons Ratio (z) = -0.06913 0.16023
#
# Static dielectric constant tensor:
#      x y z
#    x 1.806440 0.000000 0.004530 
#    y 0.000000 1.741470 0.000000 
#    z 0.004530 0.000000 1.771660 
# 
# From -- ./inp_files/238494.got.cif
#   From: 2010.05.17/outbox.cif.g08.bks.cpg/sg15_120_cif.got.tgz:238494.got - 2010.06.03 18:47:42.
