data_PCOD9281660
_publ_section_title
;
Structure prediction by ZEFSAII (Michael W. Deem and Ramdas Pophale) SiO2 
 PCOD9281660
Probable space group: C 2/C
;
_chemical_formula_sum "Si O2"
_cell_formula_units_Z 56
_cell_length_a 22.377988
_cell_length_b 16.656858
_cell_length_c 16.309646
_cell_angle_alpha 90.000000
_cell_angle_beta 25.501044
_cell_angle_gamma 90.000000
_cell_volume 2617.336704
_symmetry_space_group_name_H-M "C 2/C"
_symmetry_group_IT_number 15
_symmetry_cell_setting 'monoclinic'
loop_
_space_group_symop_operation_xyz
x,y,z
-x,y,1/2-z
-x,-y,-z
x,-y,1/2+z
1/2+x,1/2+y,z
1/2-x,1/2+y,1/2-z
1/2-x,1/2-y,-z
1/2+x,1/2-y,1/2+z
loop_
_atom_site_type_symbol
_atom_site_label
_atom_site_fract_x
_atom_site_fract_y
_atom_site_fract_z
Si Si1 0.218001 0.441625 0.761872
Si Si2 0.995831 0.616677 0.660977
Si Si3 0.163516 0.781000 0.911520
Si Si4 0.580403 0.942030 0.765098
Si Si5 0.517817 0.741190 0.019213
Si Si6 0.095817 0.072917 0.908736
Si Si7 0.689297 0.862882 0.482057
O O1 0.334700 0.376975 0.591320
O O2 0.103021 0.433065 0.833326
O O3 0.285000 0.529399 0.685207
O O4 0.141923 0.415659 0.940417
O O5 0.953031 0.692688 0.659338
O O6 0.000000 0.641445 0.750000
O O7 0.903114 0.536380 0.772864
O O8 0.318288 0.760317 0.687366
O O9 0.154697 0.729827 0.005522
O O10 0.052449 0.750995 0.982875
O O11 0.685125 0.889074 0.581132
O O12 0.432681 0.912187 0.913765
O O13 0.512276 0.647311 0.051146
O O14 0.171393 0.111212 0.736020
O O15 0.000000 0.000000 0.000000
#
# Coordination Sequence:
#
# PCOD9281660 Si02
#       7
#     8   8   8   8   8   8   8
#     4  11  22  37  66  94 123 168 209 253 325 385
#     4  11  21  40  63  94 126 158 213 274 312 365
#     4  10  21  40  61  93 127 161 205 258 316 381
#     4  11  21  38  65  99 120 159 216 266 313 372
#     4  10  23  37  63  94 124 165 209 254 321 373
#     4  11  21  40  64  85 130 175 206 251 318 391
#     4  10  21  38  63  93 129 160 208 267 317 368
#
# _framework density 21.395796000000001
#
# number of rings (size 3 to 8) (size 9 to 14) (size 15 to 20)
#    0.000    1.429    4.286    2.143    4.000    0.571 
#    0.000    6.429    0.000    0.000    0.000    0.000 
#    0.000    0.000    0.000    0.000    0.000    0.000 
#
# Total GULP energy -156185.655062 kJ/mol
# GULP energy per Si atom -5578.059109 kJ/mol
# Density = 2.134710 g / cm^3
# Si number density = 21.395796 Si / 1000 Ang^3
#
#
#
# Elastic Constant Matrix: (Units=GPa)
#
#
# Indices 1 2 3 4 5 6 
#
# 1 66.5318 13.6391 28.2183 0.0000 1.7012 0.0001
# 2 13.6391 135.2037 14.4664 -0.0001 22.3962 0.0002
# 3 28.2183 14.4664 40.5959 -0.0001 12.7176 0.0002
# 4 0.0000 -0.0001 -0.0001 25.7970 0.0001 -2.8408
# 5 1.7012 22.3962 12.7176 0.0001 29.5826 -0.0001
# 6 0.0001 0.0002 0.0002 -2.8408 -0.0001 29.6047
#
#
#
# Elastic Compliance Matrix: (Units=1/GPa)
#
#
# Indices 1 2 3 4 5 6 
#
# 1 0.022572 -0.001644 -0.017435 0.000000 0.007442 0.000000
# 2 -0.001644 0.008625 0.000099 0.000000 -0.006477 0.000000
# 3 -0.017435 0.000099 0.042096 0.000000 -0.017169 0.000000
# 4 0.000000 0.000000 0.000000 0.039178 0.000000 0.003759
# 5 0.007442 -0.006477 -0.017169 0.000000 0.045661 0.000000
# 6 0.000000 0.000000 0.000000 0.003759 0.000000 0.034139
#
#
# Mechanical properties :
#
#
# Convention : Reuss Voigt Hill
#
# Bulk Modulus (GPa) = 28.30411 39.44210 33.87310
# Shear Modulus (GPa) = 20.66036 29.39737 25.02886
#
# Velocity S-wave (km/s) = 3.11083 3.71074 3.42395
# Velocity P-wave (km/s) = 5.11473 6.06910 5.61224
#
# Compressibility (1/GPa) = 0.03533056
#
# Stress axis : x y z
#
# Youngs Moduli (GPa) = 44.30242 115.94862 23.75527
#
# Poissons Ratio (x) = 0.19066 0.41418
# Poissons Ratio (y) = 0.07285 -0.00235
# Poissons Ratio (z) = 0.77243 -0.01145
#
# Static dielectric constant tensor:
#      x y z
#    x 1.790080 0.000000 -0.024450 
#    y 0.000000 1.874080 0.000000 
#    z -0.024450 0.000000 1.830040 
# 
# From -- ./inp_files/169134.got.cif
#   From: 2010.05.17/outbox.cif.g08.bks.cpg/sg15_85_cif.got.tgz:169134.got - 2010.06.03 18:47:42.
