data_PCOD9281873
_publ_section_title
;
Structure prediction by ZEFSAII (Michael W. Deem and Ramdas Pophale) SiO2 
 PCOD9281873
Probable space group: C 2/C
;
_chemical_formula_sum "Si O2"
_cell_formula_units_Z 48
_cell_length_a 11.387252
_cell_length_b 8.627236
_cell_length_c 21.885687
_cell_angle_alpha 90.000000
_cell_angle_beta 74.579302
_cell_angle_gamma 90.000000
_cell_volume 2072.657594
_symmetry_space_group_name_H-M "C 2/C"
_symmetry_group_IT_number 15
_symmetry_cell_setting 'monoclinic'
loop_
_space_group_symop_operation_xyz
x,y,z
-x,y,1/2-z
-x,-y,-z
x,-y,1/2+z
1/2+x,1/2+y,z
1/2-x,1/2+y,1/2-z
1/2-x,1/2-y,-z
1/2+x,1/2-y,1/2+z
loop_
_atom_site_type_symbol
_atom_site_label
_atom_site_fract_x
_atom_site_fract_y
_atom_site_fract_z
Si Si1 0.335488 0.721034 0.929458
Si Si2 0.737850 0.765918 0.225759
Si Si3 0.821497 0.573530 0.315389
Si Si4 0.673034 0.365676 0.605662
Si Si5 0.931812 0.397410 0.559287
Si Si6 0.029639 0.634365 0.846271
O O1 0.345094 0.542222 0.910321
O O2 0.470263 0.779825 0.927608
O O3 0.287782 0.823090 0.878651
O O4 0.250000 0.750000 0.000000
O O5 0.837512 0.682915 0.254186
O O6 0.769233 0.935513 0.194152
O O7 0.693713 0.662884 0.175275
O O8 0.625152 0.788781 0.287722
O O9 0.937535 0.475260 0.321328
O O10 0.804341 0.320577 0.558634
O O11 0.557602 0.257408 0.607428
O O12 0.000000 0.500000 0.500000
O O13 0.903140 0.524330 0.615398
#
# Coordination Sequence:
#
# PCOD9281873 Si02
#       6
#     8   8   8   8   8   8
#     4  11  23  42  65  94 133 175 220 273 323 389
#     4  11  22  42  69  97 136 171 217 277 334 402
#     4  10  21  38  65  95 127 170 215 262 332 386
#     4  11  23  42  67  98 127 174 219 272 331 387
#     4  11  23  43  68  93 133 180 217 268 332 391
#     4  10  24  43  65  99 134 168 217 278 328 391
#
# _framework density 23.158670999999998
#
# number of rings (size 3 to 8) (size 9 to 14) (size 15 to 20)
#    0.000    1.333    1.667    5.000    0.000    4.667 
#    3.000   10.833    0.000    0.000    0.000    0.000 
#    0.000    0.000    0.000    0.000    0.000    0.000 
#
# Total GULP energy -134216.908705 kJ/mol
# GULP energy per Si atom -5592.371196 kJ/mol
# Density = 2.310596 g / cm^3
# Si number density = 23.158671 Si / 1000 Ang^3
#
#
#
# Elastic Constant Matrix: (Units=GPa)
#
#
# Indices 1 2 3 4 5 6 
#
# 1 70.8269 49.4817 8.3826 0.0000 -12.1138 0.0000
# 2 49.4817 132.7395 30.0795 0.0000 0.5538 0.0000
# 3 8.3826 30.0795 76.6101 0.0000 -7.7777 0.0000
# 4 0.0000 0.0000 0.0000 48.2684 0.0000 2.6830
# 5 -12.1138 0.5538 -7.7777 0.0000 41.8827 0.0000
# 6 0.0000 0.0000 0.0000 2.6830 0.0000 40.3239
#
#
#
# Elastic Compliance Matrix: (Units=1/GPa)
#
#
# Indices 1 2 3 4 5 6 
#
# 1 0.020675 -0.008087 0.001560 0.000000 0.006376 0.000000
# 2 -0.008087 0.011454 -0.003940 0.000000 -0.003222 0.000000
# 3 0.001560 -0.003940 0.014759 0.000000 0.003244 0.000000
# 4 0.000000 0.000000 0.000000 0.020794 0.000000 -0.001384
# 5 0.006376 -0.003222 0.003244 0.000000 0.026365 0.000000
# 6 0.000000 0.000000 0.000000 -0.001384 0.000000 0.024891
#
#
# Mechanical properties :
#
#
# Convention : Reuss Voigt Hill
#
# Bulk Modulus (GPa) = 38.52821 50.67380 44.60100
# Shear Modulus (GPa) = 33.66475 38.91050 36.28763
#
# Velocity S-wave (km/s) = 3.81682 4.10343 3.96272
# Velocity P-wave (km/s) = 6.00807 6.66180 6.34336
#
# Compressibility (1/GPa) = 0.02595501
#
# Stress axis : x y z
#
# Youngs Moduli (GPa) = 48.36808 87.30259 67.75743
#
# Poissons Ratio (x) = 0.70603 -0.10573
# Poissons Ratio (y) = 0.39116 0.26694
# Poissons Ratio (z) = -0.07547 0.34394
#
# Static dielectric constant tensor:
#      x y z
#    x 1.900540 0.000000 0.005280 
#    y 0.000000 1.881180 0.000000 
#    z 0.005280 0.000000 1.876800 
# 
# From -- ./inp_files/268025.got.cif
#   From: 2010.05.17/outbox.cif.g08.bks.cpg/sg15_135_cif.got.tgz:268025.got - 2010.06.03 18:47:42.
