data_PCOD9281803
_publ_section_title
;
Structure prediction by ZEFSAII (Michael W. Deem and Ramdas Pophale) SiO2 
 PCOD9281803
Probable space group: C 2/C
;
_chemical_formula_sum "Si O2"
_cell_formula_units_Z 56
_cell_length_a 18.962536
_cell_length_b 18.615040
_cell_length_c 13.384127
_cell_angle_alpha 90.000000
_cell_angle_beta 148.347092
_cell_angle_gamma 90.000000
_cell_volume 2479.255282
_symmetry_space_group_name_H-M "C 2/C"
_symmetry_group_IT_number 15
_symmetry_cell_setting 'monoclinic'
loop_
_space_group_symop_operation_xyz
x,y,z
-x,y,1/2-z
-x,-y,-z
x,-y,1/2+z
1/2+x,1/2+y,z
1/2-x,1/2+y,1/2-z
1/2-x,1/2-y,-z
1/2+x,1/2-y,1/2+z
loop_
_atom_site_type_symbol
_atom_site_label
_atom_site_fract_x
_atom_site_fract_y
_atom_site_fract_z
Si Si1 0.766525 0.843335 0.728983
Si Si2 0.347187 0.452814 0.163889
Si Si3 0.475559 0.597515 0.336485
Si Si4 0.164119 0.461184 0.757787
Si Si5 0.121968 0.417865 0.052574
Si Si6 0.812273 0.203649 0.811123
Si Si7 0.020681 0.202916 0.667300
O O1 0.836938 0.872112 0.714685
O O2 0.694259 0.905715 0.704001
O O3 0.684960 0.770447 0.610743
O O4 0.883162 0.814497 0.944380
O O5 0.456927 0.512020 0.327329
O O6 0.225632 0.449506 0.096627
O O7 0.411405 0.374794 0.232553
O O8 0.283720 0.470130 0.980160
O O9 0.500000 0.611958 0.250000
O O10 0.591189 0.638400 0.537368
O O11 0.138412 0.537717 0.675252
O O12 0.033906 0.430594 0.658840
O O13 0.169818 0.335966 0.124777
O O14 0.873937 0.236510 0.783361
O O15 0.000000 0.238475 0.750000
#
# Coordination Sequence:
#
# PCOD9281803 Si02
#       7
#     8   8   8   8   8   8   8
#     4  11  24  42  63  94 131 172 215 264 328 386
#     4  11  21  40  67 103 125 159 224 270 321 382
#     4  11  24  42  72  96 123 169 219 283 318 371
#     4  11  22  40  66  92 134 172 210 268 327 383
#     4  10  23  40  62  95 131 176 211 262 325 384
#     4  10  25  41  64  94 131 173 219 259 324 390
#     4  10  21  38  64  97 125 167 211 270 321 374
#
# _framework density 22.587427999999999
#
# number of rings (size 3 to 8) (size 9 to 14) (size 15 to 20)
#    0.000    1.429    2.857    1.714    6.000    2.857 
#    0.000    0.000    0.000    0.000    0.000    0.000 
#    0.000    0.000    0.000    0.000    0.000    0.000 
#
# Total GULP energy -156519.410530 kJ/mol
# GULP energy per Si atom -5589.978948 kJ/mol
# Density = 2.253602 g / cm^3
# Si number density = 22.587428 Si / 1000 Ang^3
#
#
#
# Elastic Constant Matrix: (Units=GPa)
#
#
# Indices 1 2 3 4 5 6 
#
# 1 149.2170 15.6271 6.2194 0.0000 15.1783 0.0000
# 2 15.6271 47.9228 1.4432 0.0000 6.7304 0.0000
# 3 6.2194 1.4432 43.5189 0.0000 1.9987 0.0000
# 4 0.0000 0.0000 0.0000 12.8717 0.0000 2.3063
# 5 15.1783 6.7304 1.9987 0.0000 32.8309 0.0000
# 6 0.0000 0.0000 0.0000 2.3063 0.0000 24.3925
#
#
#
# Elastic Compliance Matrix: (Units=1/GPa)
#
#
# Indices 1 2 3 4 5 6 
#
# 1 0.007233 -0.001926 -0.000837 0.000000 -0.002898 0.000000
# 2 -0.001926 0.022010 -0.000289 0.000000 -0.003604 0.000000
# 3 -0.000837 -0.000289 0.023152 0.000000 -0.000963 0.000000
# 4 0.000000 0.000000 0.000000 0.079029 0.000000 -0.007472
# 5 -0.002898 -0.003604 -0.000963 0.000000 0.032596 0.000000
# 6 0.000000 0.000000 0.000000 -0.007472 0.000000 0.041703
#
#
# Mechanical properties :
#
#
# Convention : Reuss Voigt Hill
#
# Bulk Modulus (GPa) = 21.60272 31.91536 26.75904
# Shear Modulus (GPa) = 22.00148 28.51027 25.25588
#
# Velocity S-wave (km/s) = 3.12438 3.55663 3.34749
# Velocity P-wave (km/s) = 4.75399 5.57014 5.17817
#
# Compressibility (1/GPa) = 0.04629047
#
# Stress axis : x y z
#
# Youngs Moduli (GPa) = 138.25391 45.43411 43.19292
#
# Poissons Ratio (x) = 0.08752 0.03614
# Poissons Ratio (y) = 0.26633 0.01249
# Poissons Ratio (z) = 0.11568 0.01313
#
# Static dielectric constant tensor:
#      x y z
#    x 1.883080 0.000000 0.044620 
#    y 0.000000 1.870090 0.000000 
#    z 0.044620 0.000000 1.873250 
# 
# From -- ./inp_files/169169.got.cif
#   From: 2010.05.17/outbox.cif.g08.bks.cpg/sg15_85_cif.got.tgz:169169.got - 2010.06.03 18:47:42.
