data_PCOD9281257
_publ_section_title
;
Structure prediction by ZEFSAII (Michael W. Deem and Ramdas Pophale) SiO2 
 PCOD9281257
Probable space group: C 2/C
;
_chemical_formula_sum "Si O2"
_cell_formula_units_Z 48
_cell_length_a 8.911188
_cell_length_b 16.736789
_cell_length_c 21.473399
_cell_angle_alpha 90.000000
_cell_angle_beta 119.889941
_cell_angle_gamma 90.000000
_cell_volume 2776.641112
_symmetry_space_group_name_H-M "C 2/C"
_symmetry_group_IT_number 15
_symmetry_cell_setting 'monoclinic'
loop_
_space_group_symop_operation_xyz
x,y,z
-x,y,1/2-z
-x,-y,-z
x,-y,1/2+z
1/2+x,1/2+y,z
1/2-x,1/2+y,1/2-z
1/2-x,1/2-y,-z
1/2+x,1/2-y,1/2+z
loop_
_atom_site_type_symbol
_atom_site_label
_atom_site_fract_x
_atom_site_fract_y
_atom_site_fract_z
Si Si1 0.844070 0.594141 0.169079
Si Si2 0.826886 0.409484 0.174860
Si Si3 0.589811 0.217979 0.426840
Si Si4 0.255454 0.241566 0.575090
Si Si5 0.103728 0.181892 0.709527
Si Si6 0.592779 0.315755 0.705341
O O1 0.842987 0.499850 0.155981
O O2 0.866502 0.643012 0.109278
O O3 0.680813 0.621681 0.176651
O O4 0.000000 0.611551 0.250000
O O5 0.771238 0.347538 0.109013
O O6 0.682824 0.398108 0.197970
O O7 0.000000 0.387298 0.250000
O O8 0.750000 0.250000 0.500000
O O9 0.414262 0.213654 0.431964
O O10 0.536886 0.285377 0.367074
O O11 0.250000 0.250000 0.500000
O O12 0.434376 0.278297 0.635337
O O13 0.258081 0.248849 0.747853
O O14 0.000000 0.169899 0.750000
O O15 0.500000 0.344831 0.750000
#
# Coordination Sequence:
#
# PCOD9281257 Si02
#       6
#     8   8   8   8   8   8
#     4  11  21  37  61  91 119 153 191 250 300 339
#     4  10  21  38  60  88 122 149 194 249 299 337
#     4  11  21  37  57  89 116 157 198 238 291 356
#     4  11  22  37  61  87 114 160 201 239 291 353
#     4  11  19  36  60  86 114 154 202 235 282 355
#     4  12  18  36  61  86 115 149 205 238 279 355
#
# _framework density 17.287072999999999
#
# number of rings (size 3 to 8) (size 9 to 14) (size 15 to 20)
#    0.000    1.000    8.333    1.000    0.000    0.667 
#    0.000    8.333    0.000    0.000    0.000    0.000 
#    0.000    0.000    0.000    0.000    0.000    0.000 
#
# Total GULP energy -133613.451417 kJ/mol
# GULP energy per Si atom -5567.227142 kJ/mol
# Density = 1.724773 g / cm^3
# Si number density = 17.287073 Si / 1000 Ang^3
#
#
#
# Elastic Constant Matrix: (Units=GPa)
#
#
# Indices 1 2 3 4 5 6 
#
# 1 129.3077 52.1720 67.7515 0.0000 -17.7874 0.0000
# 2 52.1720 70.2734 39.6462 0.0000 -4.0151 0.0000
# 3 67.7515 39.6462 140.9641 0.0000 -3.4595 0.0000
# 4 0.0000 0.0000 0.0000 20.3689 0.0000 -3.8025
# 5 -17.7874 -4.0151 -3.4595 0.0000 42.9868 0.0000
# 6 0.0000 0.0000 0.0000 -3.8025 0.0000 22.7650
#
#
#
# Elastic Compliance Matrix: (Units=1/GPa)
#
#
# Indices 1 2 3 4 5 6 
#
# 1 0.013637 -0.007402 -0.004360 0.000000 0.004601 0.000000
# 2 -0.007402 0.020993 -0.002379 0.000000 -0.001293 0.000000
# 3 -0.004360 -0.002379 0.009828 0.000000 -0.001235 0.000000
# 4 0.000000 0.000000 0.000000 0.050675 0.000000 0.008464
# 5 0.004601 -0.001293 -0.001235 0.000000 0.024946 0.000000
# 6 0.000000 0.000000 0.000000 0.008464 0.000000 0.045341
#
#
# Mechanical properties :
#
#
# Convention : Reuss Voigt Hill
#
# Bulk Modulus (GPa) = 61.81139 73.29828 67.55484
# Shear Modulus (GPa) = 25.11380 29.28918 27.20149
#
# Velocity S-wave (km/s) = 3.81563 4.12063 3.97106
# Velocity P-wave (km/s) = 7.43273 8.07045 7.75815
#
# Compressibility (1/GPa) = 0.01617825
#
# Stress axis : x y z
#
# Youngs Moduli (GPa) = 73.32930 47.63384 101.74943
#
# Poissons Ratio (x) = 0.35258 0.44360
# Poissons Ratio (y) = 0.54278 0.24202
# Poissons Ratio (z) = 0.31969 0.11330
#
# Static dielectric constant tensor:
#      x y z
#    x 1.588520 0.000000 0.104240 
#    y 0.000000 1.595530 0.000000 
#    z 0.104240 0.000000 1.400240 
# 
# From -- ./inp_files/189727.got.cif
#   From: 2010.05.17/outbox.cif.g08.bks.cpg/sg15_95_cif.got.tgz:189727.got - 2010.06.03 18:47:42.
