data_PCOD9281267
_publ_section_title
;
Structure prediction by ZEFSAII (Michael W. Deem and Ramdas Pophale) SiO2 
 PCOD9281267
Probable space group: C 2/C
;
_chemical_formula_sum "Si O2"
_cell_formula_units_Z 48
_cell_length_a 15.371093
_cell_length_b 34.697436
_cell_length_c 5.083484
_cell_angle_alpha 90.000000
_cell_angle_beta 116.661289
_cell_angle_gamma 90.000000
_cell_volume 2422.942383
_symmetry_space_group_name_H-M "C 2/C"
_symmetry_group_IT_number 15
_symmetry_cell_setting 'monoclinic'
loop_
_space_group_symop_operation_xyz
x,y,z
-x,y,1/2-z
-x,-y,-z
x,-y,1/2+z
1/2+x,1/2+y,z
1/2-x,1/2+y,1/2-z
1/2-x,1/2-y,-z
1/2+x,1/2-y,1/2+z
loop_
_atom_site_type_symbol
_atom_site_label
_atom_site_fract_x
_atom_site_fract_y
_atom_site_fract_z
Si Si1 0.500000 0.775278 0.250000
Si Si2 0.712473 0.794755 0.449903
Si Si3 0.400434 0.973688 0.534822
Si Si4 0.932280 0.896852 0.411071
Si Si5 0.682880 0.526568 0.791384
Si Si6 0.690955 0.672606 0.918292
Si Si7 0.500000 0.722007 0.750000
O O1 0.601751 0.797476 0.401837
O O2 0.480089 0.748835 0.475260
O O3 0.750000 0.750000 0.500000
O O4 0.732486 0.809311 0.182438
O O5 0.772418 0.821201 0.735424
O O6 0.500000 0.951795 0.750000
O O7 0.403103 0.990209 0.243395
O O8 0.293256 0.956576 0.425480
O O9 0.892762 0.940199 0.377891
O O10 0.841182 0.868994 0.229846
O O11 0.000000 0.893945 0.250000
O O12 0.000000 0.885929 0.750000
O O13 0.672647 0.492370 0.564359
O O14 0.590833 0.696709 0.783134
#
# Coordination Sequence:
#
# PCOD9281267 Si02
#       7
#     4   8   8   8   8   8   4
#     4  12  24  36  64  94 122 155 204 255 304 360
#     4  12  23  40  62  93 122 161 202 254 309 352
#     4   8  14  27  51  80 106 137 181 232 285 342
#     4  12  26  41  62  90 120 165 208 250 310 371
#     4  10  21  38  60  89 121 155 198 254 310 365
#     4  12  24  40  61  89 122 164 207 257 297 362
#     4  12  20  36  62  90 120 157 214 249 292 358
#
# _framework density 19.810625999999999
#
# number of rings (size 3 to 8) (size 9 to 14) (size 15 to 20)
#    0.000    1.000    4.167    3.500    1.167    2.000 
#    0.000    0.000    3.667    0.000    4.333    0.000 
#    0.000    0.000    0.000    0.000    0.000    0.000 
#
# Total GULP energy -133911.773722 kJ/mol
# GULP energy per Si atom -5579.657238 kJ/mol
# Density = 1.976554 g / cm^3
# Si number density = 19.810626 Si / 1000 Ang^3
#
#
#
# Elastic Constant Matrix: (Units=GPa)
#
#
# Indices 1 2 3 4 5 6 
#
# 1 75.3150 14.0504 5.5451 0.0000 -0.7924 0.0000
# 2 14.0504 41.6770 8.9900 0.0000 4.8024 0.0000
# 3 5.5451 8.9900 87.3488 0.0000 -9.4221 0.0000
# 4 0.0000 0.0000 0.0000 25.5340 0.0000 3.1827
# 5 -0.7924 4.8024 -9.4221 0.0000 42.0472 0.0000
# 6 0.0000 0.0000 0.0000 3.1827 0.0000 15.9525
#
#
#
# Elastic Compliance Matrix: (Units=1/GPa)
#
#
# Indices 1 2 3 4 5 6 
#
# 1 0.014206 -0.004804 -0.000327 0.000000 0.000743 0.000000
# 2 -0.004804 0.026662 -0.002846 0.000000 -0.003774 0.000000
# 3 -0.000327 -0.002846 0.012089 0.000000 0.003028 0.000000
# 4 0.000000 0.000000 0.000000 0.040162 0.000000 -0.008013
# 5 0.000743 -0.003774 0.003028 0.000000 0.024906 0.000000
# 6 0.000000 0.000000 0.000000 -0.008013 0.000000 0.064285
#
#
# Mechanical properties :
#
#
# Convention : Reuss Voigt Hill
#
# Bulk Modulus (GPa) = 27.02579 29.05687 28.04133
# Shear Modulus (GPa) = 23.74178 28.42376 26.08277
#
# Velocity S-wave (km/s) = 3.46560 3.79195 3.63244
# Velocity P-wave (km/s) = 5.44844 5.81988 5.63722
#
# Compressibility (1/GPa) = 0.03700170
#
# Stress axis : x y z
#
# Youngs Moduli (GPa) = 70.39422 37.50596 82.72218
#
# Poissons Ratio (x) = 0.18019 0.02707
# Poissons Ratio (y) = 0.33819 0.23544
# Poissons Ratio (z) = 0.02303 0.10675
#
# Static dielectric constant tensor:
#      x y z
#    x 1.721930 0.000000 0.058960 
#    y 0.000000 1.697110 0.000000 
#    z 0.058960 0.000000 1.714920 
# 
# From -- ./inp_files/9176.got.cif
#   From: 2010.05.17/outbox.cif.g08.bks.cpg/sg15_5_cif.got.tgz:9176.got - 2010.06.03 18:47:42.
