data_PCOD9281914
_publ_section_title
;
Structure prediction by ZEFSAII (Michael W. Deem and Ramdas Pophale) SiO2 
 PCOD9281914
Probable space group: C 2/C
;
_chemical_formula_sum "Si O2"
_cell_formula_units_Z 60
_cell_length_a 15.783045
_cell_length_b 24.850805
_cell_length_c 11.093054
_cell_angle_alpha 90.000000
_cell_angle_beta 44.526910
_cell_angle_gamma 90.000000
_cell_volume 3051.066349
_symmetry_space_group_name_H-M "C 2/C"
_symmetry_group_IT_number 15
_symmetry_cell_setting 'monoclinic'
loop_
_space_group_symop_operation_xyz
x,y,z
-x,y,1/2-z
-x,-y,-z
x,-y,1/2+z
1/2+x,1/2+y,z
1/2-x,1/2+y,1/2-z
1/2-x,1/2-y,-z
1/2+x,1/2-y,1/2+z
loop_
_atom_site_type_symbol
_atom_site_label
_atom_site_fract_x
_atom_site_fract_y
_atom_site_fract_z
Si Si1 0.490569 0.146142 0.894176
Si Si2 0.000000 0.973992 0.750000
Si Si3 0.224674 0.951633 0.957141
Si Si4 0.693370 0.400936 0.230941
Si Si5 0.930230 0.095421 0.089458
Si Si6 0.771747 0.694418 0.814988
Si Si7 0.605735 0.032047 0.825159
Si Si8 0.767412 0.820033 0.861149
O O1 0.500000 0.168823 0.750000
O O2 0.588126 0.182807 0.861319
O O3 0.543682 0.086254 0.839843
O O4 0.351682 0.149798 0.067918
O O5 0.035268 0.938332 0.828288
O O6 0.116237 0.009591 0.606197
O O7 0.234767 0.906688 0.050649
O O8 0.181068 0.928005 0.874204
O O9 0.339853 0.990017 0.825212
O O10 0.549783 0.410143 0.386479
O O11 0.706420 0.343850 0.285579
O O12 0.778935 0.444470 0.214905
O O13 0.886077 0.153156 0.183943
O O14 0.752444 0.757904 0.840088
O O15 0.736843 0.674952 0.987521
O O16 0.500000 0.000000 0.000000
#
# Coordination Sequence:
#
# PCOD9281914 Si02
#       8
#     8   4   8   8   8   8   8   8
#     4   9  20  36  53  86 122 151 206 262 310 383
#     4  12  22  38  60  92 134 162 210 266 306 382
#     4  12  24  40  62  91 131 174 207 259 325 386
#     4  11  23  41  60  91 132 165 217 264 314 402
#     4  12  23  38  62  96 122 166 216 261 317 386
#     4   9  21  40  61  93 121 166 210 273 336 381
#     4  11  24  39  60  88 125 173 216 258 315 376
#     4  10  21  38  66  89 126 160 213 279 333 373
#
# _framework density 19.665255999999999
#
# number of rings (size 3 to 8) (size 9 to 14) (size 15 to 20)
#    0.000    1.333    2.667    2.800    7.467    0.000 
#    1.200    0.667    0.000    0.000    0.000    0.000 
#    0.000    0.000    0.000    0.000    0.000    0.000 
#
# Total GULP energy -167256.934170 kJ/mol
# GULP energy per Si atom -5575.231139 kJ/mol
# Density = 1.962050 g / cm^3
# Si number density = 19.665256 Si / 1000 Ang^3
#
#
#
# Elastic Constant Matrix: (Units=GPa)
#
#
# Indices 1 2 3 4 5 6 
#
# 1 61.2764 33.0411 19.0182 0.0000 2.3467 0.0000
# 2 33.0411 85.1855 41.1557 0.0000 -1.9503 0.0000
# 3 19.0182 41.1557 102.5893 0.0000 -17.5809 0.0000
# 4 0.0000 0.0000 0.0000 7.4777 0.0000 5.2345
# 5 2.3467 -1.9503 -17.5809 0.0000 30.2362 0.0000
# 6 0.0000 0.0000 0.0000 5.2345 0.0000 19.9523
#
#
#
# Elastic Compliance Matrix: (Units=1/GPa)
#
#
# Indices 1 2 3 4 5 6 
#
# 1 0.020906 -0.007521 -0.001355 0.000000 -0.002895 0.000000
# 2 -0.007521 0.017472 -0.005911 0.000000 -0.001726 0.000000
# 3 -0.001355 -0.005911 0.013687 0.000000 0.007682 0.000000
# 4 0.000000 0.000000 0.000000 0.163815 0.000000 -0.042977
# 5 -0.002895 -0.001726 0.007682 0.000000 0.037653 0.000000
# 6 0.000000 0.000000 0.000000 -0.042977 0.000000 0.061395
#
#
# Mechanical properties :
#
#
# Convention : Reuss Voigt Hill
#
# Bulk Modulus (GPa) = 44.45992 48.38681 46.42337
# Shear Modulus (GPa) = 14.20462 21.92232 18.06347
#
# Velocity S-wave (km/s) = 2.69052 3.34245 3.03404
# Velocity P-wave (km/s) = 5.68413 6.28924 5.99432
#
# Compressibility (1/GPa) = 0.02249217
#
# Stress axis : x y z
#
# Youngs Moduli (GPa) = 47.83286 57.23301 73.06443
#
# Poissons Ratio (x) = 0.43043 0.09898
# Poissons Ratio (y) = 0.35974 0.43189
# Poissons Ratio (z) = 0.06480 0.33831
#
# Static dielectric constant tensor:
#      x y z
#    x 1.737140 0.000000 0.031300 
#    y 0.000000 1.705630 0.000000 
#    z 0.031300 0.000000 1.631340 
# 
# From -- ./inp_files/100647.got.cif
#   From: 2010.05.17/outbox.cif.g08.bks.cpg/sg15_51_cif.got.tgz:100647.got - 2010.06.03 18:47:42.
