data_PCOD9281821
_publ_section_title
;
Structure prediction by ZEFSAII (Michael W. Deem and Ramdas Pophale) SiO2 
 PCOD9281821
Probable space group: C 2/C
;
_chemical_formula_sum "Si O2"
_cell_formula_units_Z 56
_cell_length_a 7.690240
_cell_length_b 21.232844
_cell_length_c 17.211113
_cell_angle_alpha 90.000000
_cell_angle_beta 56.046641
_cell_angle_gamma 90.000000
_cell_volume 2331.146050
_symmetry_space_group_name_H-M "C 2/C"
_symmetry_group_IT_number 15
_symmetry_cell_setting 'monoclinic'
loop_
_space_group_symop_operation_xyz
x,y,z
-x,y,1/2-z
-x,-y,-z
x,-y,1/2+z
1/2+x,1/2+y,z
1/2-x,1/2+y,1/2-z
1/2-x,1/2-y,-z
1/2+x,1/2-y,1/2+z
loop_
_atom_site_type_symbol
_atom_site_label
_atom_site_fract_x
_atom_site_fract_y
_atom_site_fract_z
Si Si1 0.260200 0.944840 0.276999
Si Si2 0.888530 0.653868 0.197904
Si Si3 0.978323 0.741266 0.477641
Si Si4 0.963919 0.436822 0.559356
Si Si5 0.032172 0.074056 0.345300
Si Si6 0.613865 0.383655 0.462634
Si Si7 0.083369 0.363340 0.397430
O O1 0.500000 0.952546 0.250000
O O2 0.116617 0.914965 0.378840
O O3 0.271754 0.894878 0.203157
O O4 0.152170 0.011488 0.287624
O O5 0.900740 0.701108 0.120458
O O6 0.344089 0.634040 0.218471
O O7 0.000000 0.675936 0.250000
O O8 0.997325 0.588431 0.138951
O O9 0.750000 0.750000 0.500000
O O10 0.070912 0.809965 0.467075
O O11 0.949279 0.708829 0.569987
O O12 0.712545 0.426491 0.615669
O O13 0.121138 0.391721 0.472777
O O14 0.000000 0.500000 0.500000
O O15 0.027690 0.080943 0.439591
O O16 0.853749 0.388298 0.431826
#
# Coordination Sequence:
#
# PCOD9281821 Si02
#       7
#     8   8   8   8   8   8   8
#     4  10  21  38  64  99 131 166 211 263 324 392
#     4  11  24  41  63  94 130 170 218 272 326 389
#     4  11  24  42  63  91 125 168 220 273 324 375
#     4  10  22  41  64  94 130 170 213 263 324 394
#     4  11  22  39  66  97 130 170 211 262 328 394
#     4  10  22  40  63  92 127 168 212 260 324 392
#     4   9  21  41  62  87 126 168 211 261 321 390
#
# _framework density 24.02252
#
# number of rings (size 3 to 8) (size 9 to 14) (size 15 to 20)
#    0.000    1.714    0.000    3.429    0.000    8.000 
#    0.000   10.000    0.000    0.000    0.000    0.000 
#    0.000    0.000    0.000    0.000    0.000    0.000 
#
# Total GULP energy -156124.599700 kJ/mol
# GULP energy per Si atom -5575.878561 kJ/mol
# Density = 2.396784 g / cm^3
# Si number density = 24.022520 Si / 1000 Ang^3
#
#
#
# Elastic Constant Matrix: (Units=GPa)
#
#
# Indices 1 2 3 4 5 6 
#
# 1 72.0136 -1.8073 25.9654 0.0000 -17.0567 0.0000
# 2 -1.8073 90.0179 34.2482 0.0000 6.4838 0.0000
# 3 25.9654 34.2482 152.6150 0.0000 18.5367 0.0000
# 4 0.0000 0.0000 0.0000 43.1257 0.0000 -8.5963
# 5 -17.0567 6.4838 18.5367 0.0000 34.9507 0.0000
# 6 0.0000 0.0000 0.0000 -8.5963 0.0000 18.6573
#
#
#
# Elastic Compliance Matrix: (Units=1/GPa)
#
#
# Indices 1 2 3 4 5 6 
#
# 1 0.018303 0.001381 -0.004786 0.000000 0.011214 0.000000
# 2 0.001381 0.012274 -0.002987 0.000000 -0.000019 0.000000
# 3 -0.004786 -0.002987 0.008822 0.000000 -0.006460 0.000000
# 4 0.000000 0.000000 0.000000 0.025533 0.000000 0.011764
# 5 0.011214 -0.000019 -0.006460 0.000000 0.037514 0.000000
# 6 0.000000 0.000000 0.000000 0.011764 0.000000 0.059019
#
#
# Mechanical properties :
#
#
# Convention : Reuss Voigt Hill
#
# Bulk Modulus (GPa) = 37.57410 47.93989 42.75700
# Shear Modulus (GPa) = 27.30438 36.42942 31.86690
#
# Velocity S-wave (km/s) = 3.37503 3.89841 3.64612
# Velocity P-wave (km/s) = 5.55544 6.34532 5.96347
#
# Compressibility (1/GPa) = 0.02661407
#
# Stress axis : x y z
#
# Youngs Moduli (GPa) = 54.63679 81.47006 113.35718
#
# Poissons Ratio (x) = -0.11247 0.54251
# Poissons Ratio (y) = -0.07543 0.33861
# Poissons Ratio (z) = 0.26148 0.24336
#
# Static dielectric constant tensor:
#      x y z
#    x 0.223440 0.000000 1.158960 
#    y 0.000000 2.078850 0.000000 
#    z 1.158960 0.000000 1.329320 
# 
# From -- ./inp_files/192023.got.cif
#   From: 2010.05.17/outbox.cif.g08.bks.cpg/sg15_97_cif.got.tgz:192023.got - 2010.06.03 18:47:42.
