data_PCOD9281225
_publ_section_title
;
Structure prediction by ZEFSAII (Michael W. Deem and Ramdas Pophale) SiO2 
 PCOD9281225
Probable space group: C 2/C
;
_chemical_formula_sum "Si O2"
_cell_formula_units_Z 40
_cell_length_a 14.420540
_cell_length_b 28.590484
_cell_length_c 5.272284
_cell_angle_alpha 90.000000
_cell_angle_beta 111.695990
_cell_angle_gamma 90.000000
_cell_volume 2019.722049
_symmetry_space_group_name_H-M "C 2/C"
_symmetry_group_IT_number 15
_symmetry_cell_setting 'monoclinic'
loop_
_space_group_symop_operation_xyz
x,y,z
-x,y,1/2-z
-x,-y,-z
x,-y,1/2+z
1/2+x,1/2+y,z
1/2-x,1/2+y,1/2-z
1/2-x,1/2-y,-z
1/2+x,1/2-y,1/2+z
loop_
_atom_site_type_symbol
_atom_site_label
_atom_site_fract_x
_atom_site_fract_y
_atom_site_fract_z
Si Si1 0.684484 0.883108 0.915744
Si Si2 0.881596 0.160505 0.640964
Si Si3 0.886065 0.482637 0.830615
Si Si4 0.880908 0.671704 0.648303
Si Si5 0.879810 0.778661 0.640146
O O1 0.630199 0.932259 0.810995
O O2 0.657980 0.852461 0.644224
O O3 0.805108 0.882903 0.056980
O O4 0.646407 0.857693 0.130240
O O5 0.859136 0.192830 0.374784
O O6 0.000000 0.149093 0.750000
O O7 0.856990 0.191051 0.866570
O O8 0.841525 0.516557 0.569029
O O9 0.000000 0.500000 0.000000
O O10 0.843165 0.725234 0.617315
O O11 0.000000 0.672358 0.750000
O O12 0.000000 0.774194 0.750000
#
# Coordination Sequence:
#
# PCOD9281225 Si02
#       5
#     8   8   8   8   8
#     4  12  24  37  61  90 110 159 206 238 303 357
#     4  10  21  38  60  82 119 157 206 248 279 351
#     4  10  23  40  61  82 114 153 182 244 310 376
#     4  11  24  36  56  88 128 155 197 251 281 363
#     4   9  19  37  55  82 122 168 194 238 305 322
#
# _framework density 19.804704000000001
#
# number of rings (size 3 to 8) (size 9 to 14) (size 15 to 20)
#    0.000    1.600    0.000    4.200    8.400    8.000 
#    0.000    0.000    0.000    1.200    0.000    0.000 
#    0.000    0.000    0.000    0.000    0.000    0.000 
#
# Total GULP energy -111618.056041 kJ/mol
# GULP energy per Si atom -5580.902802 kJ/mol
# Density = 1.975963 g / cm^3
# Si number density = 19.804704 Si / 1000 Ang^3
#
#
#
# Elastic Constant Matrix: (Units=GPa)
#
#
# Indices 1 2 3 4 5 6 
#
# 1 93.0044 34.2869 47.9901 0.0000 15.5957 0.0000
# 2 34.2869 109.8793 60.5709 0.0000 14.0701 0.0000
# 3 47.9901 60.5709 166.5637 0.0000 -27.6657 0.0000
# 4 0.0000 0.0000 0.0000 35.4481 0.0000 4.1645
# 5 15.5957 14.0701 -27.6657 0.0000 41.2265 0.0000
# 6 0.0000 0.0000 0.0000 4.1645 0.0000 15.3275
#
#
#
# Elastic Compliance Matrix: (Units=1/GPa)
#
#
# Indices 1 2 3 4 5 6 
#
# 1 0.015627 -0.000285 -0.006038 0.000000 -0.009866 0.000000
# 2 -0.000285 0.013902 -0.006464 0.000000 -0.008975 0.000000
# 3 -0.006038 -0.006464 0.012200 0.000000 0.012677 0.000000
# 4 0.000000 0.000000 0.000000 0.029140 0.000000 -0.007917
# 5 -0.009866 -0.008975 0.012677 0.000000 0.039559 0.000000
# 6 0.000000 0.000000 0.000000 -0.007917 0.000000 0.067393
#
#
# Mechanical properties :
#
#
# Convention : Reuss Voigt Hill
#
# Bulk Modulus (GPa) = 61.89742 72.79370 67.34556
# Shear Modulus (GPa) = 23.94867 33.50705 28.72786
#
# Velocity S-wave (km/s) = 3.48119 4.11770 3.81275
# Velocity P-wave (km/s) = 6.89057 7.70992 7.31173
#
# Compressibility (1/GPa) = 0.01615576
#
# Stress axis : x y z
#
# Youngs Moduli (GPa) = 63.99201 71.92990 81.96996
#
# Poissons Ratio (x) = 0.02048 0.49490
# Poissons Ratio (y) = 0.01822 0.52988
# Poissons Ratio (z) = 0.38636 0.46498
#
# Static dielectric constant tensor:
#      x y z
#    x 1.808080 0.000000 0.001500 
#    y 0.000000 1.711260 0.000000 
#    z 0.001500 0.000000 1.695690 
# 
# From -- ./inp_files/8147.got.cif
#   From: 2010.05.17/outbox.cif.g08.bks.cpg/sg15_5_cif.got.tgz:8147.got - 2010.06.03 18:47:42.
