data_PCOD9281570
_publ_section_title
;
Structure prediction by ZEFSAII (Michael W. Deem and Ramdas Pophale) SiO2 
 PCOD9281570
Probable space group: C 2/C
;
_chemical_formula_sum "Si O2"
_cell_formula_units_Z 56
_cell_length_a 16.065949
_cell_length_b 7.804644
_cell_length_c 16.994630
_cell_angle_alpha 90.000000
_cell_angle_beta 84.583582
_cell_angle_gamma 90.000000
_cell_volume 2121.425135
_symmetry_space_group_name_H-M "C 2/C"
_symmetry_group_IT_number 15
_symmetry_cell_setting 'monoclinic'
loop_
_space_group_symop_operation_xyz
x,y,z
-x,y,1/2-z
-x,-y,-z
x,-y,1/2+z
1/2+x,1/2+y,z
1/2-x,1/2+y,1/2-z
1/2-x,1/2-y,-z
1/2+x,1/2-y,1/2+z
loop_
_atom_site_type_symbol
_atom_site_label
_atom_site_fract_x
_atom_site_fract_y
_atom_site_fract_z
Si Si1 0.084549 0.317062 0.586351
Si Si2 0.000000 0.000000 0.500000
Si Si3 0.658426 0.948694 0.963829
Si Si4 0.926928 0.081008 0.162496
Si Si5 0.321121 0.278799 0.790073
Si Si6 0.285169 0.590814 0.582261
Si Si7 0.500000 0.268156 0.250000
Si Si8 0.263683 0.646136 0.849507
O O1 0.090932 0.481593 0.530027
O O2 0.043010 0.336608 0.675942
O O3 0.179244 0.256182 0.597757
O O4 0.041257 0.165654 0.541162
O O5 0.004986 0.100160 0.411368
O O6 0.748224 0.951433 0.001111
O O7 0.652806 0.754128 0.935272
O O8 0.675279 0.080283 0.892222
O O9 0.842490 0.047492 0.118671
O O10 0.941701 0.902709 0.207996
O O11 0.906085 0.217087 0.232500
O O12 0.294832 0.146998 0.859537
O O13 0.309984 0.467239 0.826435
O O14 0.249908 0.242969 0.731121
#
# Coordination Sequence:
#
# PCOD9281570 Si02
#       8
#     8   4   8   8   8   8   4   8
#     4  11  20  39  59  90 123 172 214 262 308 395
#     4  10  24  36  64  86 120 176 224 252 298 386
#     4  10  22  37  62  94 127 157 205 271 345 382
#     4  11  20  40  59  88 125 162 212 259 314 389
#     4  11  20  35  63  97 123 161 201 270 330 392
#     4  10  21  38  62  98 127 158 200 286 339 384
#     4  10  22  36  58  84 120 176 208 248 304 368
#     4  11  21  35  63  94 124 158 204 267 338 381
#
# _framework density 26.397349999999999
#
# number of rings (size 3 to 8) (size 9 to 14) (size 15 to 20)
#    0.000    1.429    2.857    3.000    0.000    0.000 
#    0.000    2.857    3.143    0.000    0.000    0.000 
#    0.000    0.000    0.000    0.000    0.000    0.000 
#
# Total GULP energy -156105.541315 kJ/mol
# GULP energy per Si atom -5575.197904 kJ/mol
# Density = 2.633727 g / cm^3
# Si number density = 26.397350 Si / 1000 Ang^3
#
#
#
# Elastic Constant Matrix: (Units=GPa)
#
#
# Indices 1 2 3 4 5 6 
#
# 1 51.6686 -0.7207 10.8249 0.0000 6.3026 0.0000
# 2 -0.7207 61.6114 24.2788 0.0000 -2.8270 0.0000
# 3 10.8249 24.2788 157.9694 0.0000 -25.2189 0.0000
# 4 0.0000 0.0000 0.0000 33.7606 0.0000 6.8283
# 5 6.3026 -2.8270 -25.2189 0.0000 41.0626 0.0000
# 6 0.0000 0.0000 0.0000 6.8283 0.0000 13.7271
#
#
#
# Elastic Compliance Matrix: (Units=1/GPa)
#
#
# Indices 1 2 3 4 5 6 
#
# 1 0.020380 0.000920 -0.002248 0.000000 -0.004445 0.000000
# 2 0.000920 0.017328 -0.002836 0.000000 -0.000690 0.000000
# 3 -0.002248 -0.002836 0.007699 0.000000 0.004878 0.000000
# 4 0.000000 0.000000 0.000000 0.032934 0.000000 -0.016382
# 5 -0.004445 -0.000690 0.004878 0.000000 0.027984 0.000000
# 6 0.000000 0.000000 0.000000 -0.016382 0.000000 0.080998
#
#
# Mechanical properties :
#
#
# Convention : Reuss Voigt Hill
#
# Bulk Modulus (GPa) = 26.96945 37.77949 32.37447
# Shear Modulus (GPa) = 24.03742 33.50117 28.76930
#
# Velocity S-wave (km/s) = 3.02089 3.56632 3.30488
# Velocity P-wave (km/s) = 4.73356 5.59474 5.18207
#
# Compressibility (1/GPa) = 0.03707900
#
# Stress axis : x y z
#
# Youngs Moduli (GPa) = 49.06763 57.71148 129.88615
#
# Poissons Ratio (x) = -0.05310 0.29193
# Poissons Ratio (y) = -0.04515 0.36841
# Poissons Ratio (z) = 0.11028 0.16369
#
# Static dielectric constant tensor:
#      x y z
#    x 2.206160 0.000000 -0.083530 
#    y 0.000000 2.184550 0.000000 
#    z -0.083530 0.000000 2.068980 
# 
# From -- ./inp_files/213394.got.cif
#   From: 2010.05.17/outbox.cif.g08.bks.cpg/sg15_107_cif.got.tgz:213394.got - 2010.06.03 18:47:42.
