data_PCOD9281632
_publ_section_title
;
Structure prediction by ZEFSAII (Michael W. Deem and Ramdas Pophale) SiO2 
 PCOD9281632
Probable space group: C 2/C
;
_chemical_formula_sum "Si O2"
_cell_formula_units_Z 40
_cell_length_a 15.842330
_cell_length_b 15.563317
_cell_length_c 14.359463
_cell_angle_alpha 90.000000
_cell_angle_beta 145.861907
_cell_angle_gamma 90.000000
_cell_volume 1986.867387
_symmetry_space_group_name_H-M "C 2/C"
_symmetry_group_IT_number 15
_symmetry_cell_setting 'monoclinic'
loop_
_space_group_symop_operation_xyz
x,y,z
-x,y,1/2-z
-x,-y,-z
x,-y,1/2+z
1/2+x,1/2+y,z
1/2-x,1/2+y,1/2-z
1/2-x,1/2-y,-z
1/2+x,1/2-y,1/2+z
loop_
_atom_site_type_symbol
_atom_site_label
_atom_site_fract_x
_atom_site_fract_y
_atom_site_fract_z
Si Si1 0.500000 0.997180 0.250000
Si Si2 0.500000 0.278364 0.750000
Si Si3 0.703093 0.112718 0.527001
Si Si4 0.396579 0.301270 0.062018
Si Si5 0.770669 0.359349 0.111686
Si Si6 0.905838 0.079704 0.874176
O O1 0.358519 0.938175 0.144918
O O2 0.551868 0.059369 0.379901
O O3 0.380136 0.332663 0.581468
O O4 0.607045 0.217693 0.783598
O O5 0.672157 0.210421 0.530504
O O6 0.775449 0.130953 0.491420
O O7 0.817164 0.062333 0.697144
O O8 0.500000 0.286165 0.250000
O O9 0.484337 0.343852 0.057836
O O10 0.715018 0.387035 0.162047
O O11 0.000000 0.000000 0.000000
#
# Coordination Sequence:
#
# PCOD9281632 Si02
#       6
#     4   4   8   8   8   8
#     4  11  22  40  64  91 126 168 210 263 320 376
#     4   9  22  46  64  81 122 172 222 249 312 382
#     4  10  21  38  63  91 127 169 204 258 316 389
#     4   9  19  40  63  90 126 168 211 250 320 380
#     4  10  23  41  64  90 120 171 212 263 313 371
#     4  11  24  38  60  99 128 162 207 264 316 372
#
# _framework density 20.132193000000001
#
# number of rings (size 3 to 8) (size 9 to 14) (size 15 to 20)
#    0.000    2.000    1.000    1.200    5.600    0.800 
#    0.000    0.000    0.000    0.000    0.000    0.000 
#    0.000    0.000    0.000    0.000    0.000    0.000 
#
# Total GULP energy -111535.643711 kJ/mol
# GULP energy per Si atom -5576.782186 kJ/mol
# Density = 2.008637 g / cm^3
# Si number density = 20.132193 Si / 1000 Ang^3
#
#
#
# Elastic Constant Matrix: (Units=GPa)
#
#
# Indices 1 2 3 4 5 6 
#
# 1 108.9781 33.7606 14.7459 0.0001 12.6890 0.0001
# 2 33.7606 82.7767 57.6655 0.0001 3.0972 0.0001
# 3 14.7459 57.6655 108.7217 0.0001 19.2251 0.0002
# 4 0.0001 0.0001 0.0001 35.2200 0.0001 2.0892
# 5 12.6890 3.0972 19.2251 0.0001 24.5821 0.0001
# 6 0.0001 0.0001 0.0002 2.0892 0.0001 8.5378
#
#
#
# Elastic Compliance Matrix: (Units=1/GPa)
#
#
# Indices 1 2 3 4 5 6 
#
# 1 0.011775 -0.006931 0.003481 0.000000 -0.007927 0.000000
# 2 -0.006931 0.024155 -0.013887 0.000000 0.011395 0.000000
# 3 0.003481 -0.013887 0.018683 0.000000 -0.014659 0.000000
# 4 0.000000 0.000000 0.000000 0.028811 0.000000 -0.007050
# 5 -0.007927 0.011395 -0.014659 0.000000 0.054800 0.000000
# 6 0.000000 0.000000 0.000000 -0.007050 0.000000 0.118852
#
#
# Mechanical properties :
#
#
# Convention : Reuss Voigt Hill
#
# Bulk Modulus (GPa) = 50.14986 56.98004 53.56495
# Shear Modulus (GPa) = 16.75623 26.62161 21.68892
#
# Velocity S-wave (km/s) = 2.88811 3.64034 3.28582
# Velocity P-wave (km/s) = 6.00716 6.78483 6.40780
#
# Compressibility (1/GPa) = 0.01994023
#
# Stress axis : x y z
#
# Youngs Moduli (GPa) = 84.92363 41.39933 53.52416
#
# Poissons Ratio (x) = 0.28693 -0.18630
# Poissons Ratio (y) = 0.58859 0.74327
# Poissons Ratio (z) = -0.29560 0.57489
#
# Static dielectric constant tensor:
#      x y z
#    x 1.722410 0.000000 0.026850 
#    y 0.000000 1.707130 0.000000 
#    z 0.026850 0.000000 1.776450 
# 
# From -- ./inp_files/55517.got.cif
#   From: 2010.05.17/outbox.cif.g08.bks.cpg/sg15_28_cif.got.tgz:55517.got - 2010.06.03 18:47:42.
