data_PCOD9281280
_publ_section_title
;
Structure prediction by ZEFSAII (Michael W. Deem and Ramdas Pophale) SiO2 
 PCOD9281280
Probable space group: C 2/C
;
_chemical_formula_sum "Si O2"
_cell_formula_units_Z 56
_cell_length_a 24.011710
_cell_length_b 12.915595
_cell_length_c 9.441232
_cell_angle_alpha 90.000000
_cell_angle_beta 67.775884
_cell_angle_gamma 90.000000
_cell_volume 2710.452629
_symmetry_space_group_name_H-M "C 2/C"
_symmetry_group_IT_number 15
_symmetry_cell_setting 'monoclinic'
loop_
_space_group_symop_operation_xyz
x,y,z
-x,y,1/2-z
-x,-y,-z
x,-y,1/2+z
1/2+x,1/2+y,z
1/2-x,1/2+y,1/2-z
1/2-x,1/2-y,-z
1/2+x,1/2-y,1/2+z
loop_
_atom_site_type_symbol
_atom_site_label
_atom_site_fract_x
_atom_site_fract_y
_atom_site_fract_z
Si Si1 0.500000 0.767442 0.250000
Si Si2 0.897925 0.430951 0.357307
Si Si3 0.182837 0.511439 0.809767
Si Si4 0.974671 0.218144 0.966792
Si Si5 0.441799 0.452880 0.134157
Si Si6 0.500000 0.095376 0.250000
Si Si7 0.881015 0.948661 0.463089
Si Si8 0.250128 0.123914 0.496924
O O1 0.442525 0.837101 0.343517
O O2 0.480661 0.710180 0.128486
O O3 0.861811 0.457697 0.534356
O O4 0.853656 0.416317 0.266126
O O5 0.942865 0.524345 0.270364
O O6 0.213048 0.426993 0.672694
O O7 0.225119 0.577308 0.877248
O O8 0.915277 0.155360 0.981171
O O9 0.035622 0.162073 0.854357
O O10 0.978689 0.332351 0.900146
O O11 0.422540 0.498122 0.301574
O O12 0.500000 0.500000 0.000000
O O13 0.385374 0.470576 0.086775
O O14 0.817001 0.918215 0.465462
O O15 0.250000 0.250000 0.500000
#
# Coordination Sequence:
#
# PCOD9281280 Si02
#       8
#     4   8   8   8   8   4   8   8
#     4  11  24  34  57 100 126 162 203 248 340 397
#     4  10  22  40  65  89 134 164 198 278 332 382
#     4  10  23  45  66  95 131 168 232 280 322 387
#     4  11  22  35  59  95 128 157 211 247 312 415
#     4  10  21  38  60  90 124 164 197 257 328 387
#     4  11  20  38  65  98 124 170 205 246 340 413
#     4  11  23  40  64  86 128 169 209 264 319 377
#     4  11  26  45  71  96 127 183 236 276 331 382
#
# _framework density 20.660757
#
# number of rings (size 3 to 8) (size 9 to 14) (size 15 to 20)
#    0.000    1.429    1.429    3.857   10.000    3.429 
#    0.000    2.857    0.000    0.000    0.000    0.000 
#    0.000    0.000    0.000    0.000    0.000    0.000 
#
# Total GULP energy -156145.768435 kJ/mol
# GULP energy per Si atom -5576.634587 kJ/mol
# Density = 2.061373 g / cm^3
# Si number density = 20.660757 Si / 1000 Ang^3
#
#
#
# Elastic Constant Matrix: (Units=GPa)
#
#
# Indices 1 2 3 4 5 6 
#
# 1 137.7234 34.9066 48.1834 0.0000 16.3030 0.0000
# 2 34.9066 59.8324 7.8852 0.0000 0.8538 0.0000
# 3 48.1834 7.8852 114.0654 0.0000 13.6420 0.0000
# 4 0.0000 0.0000 0.0000 23.1843 0.0000 5.3417
# 5 16.3030 0.8538 13.6420 0.0000 34.1021 0.0000
# 6 0.0000 0.0000 0.0000 5.3417 0.0000 7.4137
#
#
#
# Elastic Compliance Matrix: (Units=1/GPa)
#
#
# Indices 1 2 3 4 5 6 
#
# 1 0.010299 -0.005490 -0.003569 0.000000 -0.003358 0.000000
# 2 -0.005490 0.019794 0.000731 0.000000 0.001837 0.000000
# 3 -0.003569 0.000731 0.010526 0.000000 -0.002523 0.000000
# 4 0.000000 0.000000 0.000000 0.051718 0.000000 -0.037264
# 5 -0.003358 0.001837 -0.002523 0.000000 0.031892 0.000000
# 6 0.000000 0.000000 0.000000 -0.037264 0.000000 0.161736
#
#
# Mechanical properties :
#
#
# Convention : Reuss Voigt Hill
#
# Bulk Modulus (GPa) = 41.73286 54.84130 48.28708
# Shear Modulus (GPa) = 16.09747 27.64975 21.87361
#
# Velocity S-wave (km/s) = 2.79432 3.66221 3.25730
# Velocity P-wave (km/s) = 5.53660 6.66961 6.12934
#
# Compressibility (1/GPa) = 0.02396193
#
# Stress axis : x y z
#
# Youngs Moduli (GPa) = 97.10050 50.52123 95.00505
#
# Poissons Ratio (x) = 0.27736 0.33909
# Poissons Ratio (y) = 0.53308 -0.06946
# Poissons Ratio (z) = 0.34657 -0.03694
#
# Static dielectric constant tensor:
#      x y z
#    x 1.763240 0.000000 0.002120 
#    y 0.000000 1.792670 0.000000 
#    z 0.002120 0.000000 1.897140 
# 
# From -- ./inp_files/61502.got.cif
#   From: 2010.05.17/outbox.cif.g08.bks.cpg/sg15_31_cif.got.tgz:61502.got - 2010.06.03 18:47:42.
