data_PCOD9281626
_publ_section_title
;
Structure prediction by ZEFSAII (Michael W. Deem and Ramdas Pophale) SiO2 
 PCOD9281626
Probable space group: C 2/C
;
_chemical_formula_sum "Si O2"
_cell_formula_units_Z 48
_cell_length_a 9.152967
_cell_length_b 21.415625
_cell_length_c 20.141738
_cell_angle_alpha 90.000000
_cell_angle_beta 143.899770
_cell_angle_gamma 90.000000
_cell_volume 2326.226702
_symmetry_space_group_name_H-M "C 2/C"
_symmetry_group_IT_number 15
_symmetry_cell_setting 'monoclinic'
loop_
_space_group_symop_operation_xyz
x,y,z
-x,y,1/2-z
-x,-y,-z
x,-y,1/2+z
1/2+x,1/2+y,z
1/2-x,1/2+y,1/2-z
1/2-x,1/2-y,-z
1/2+x,1/2-y,1/2+z
loop_
_atom_site_type_symbol
_atom_site_label
_atom_site_fract_x
_atom_site_fract_y
_atom_site_fract_z
Si Si1 0.102753 0.633775 0.358431
Si Si2 0.344516 0.318256 0.431958
Si Si3 0.964617 0.610112 0.576177
Si Si4 0.063259 0.123033 0.665964
Si Si5 0.800326 0.017227 0.483081
Si Si6 0.040691 0.681266 0.477332
O O1 0.393336 0.647924 0.459731
O O2 0.091419 0.560737 0.372120
O O3 0.996754 0.669371 0.383374
O O4 0.000000 0.650692 0.250000
O O5 0.164998 0.337517 0.425162
O O6 0.275830 0.347017 0.335027
O O7 0.416668 0.246038 0.452110
O O8 0.826162 0.545245 0.537556
O O9 0.250533 0.608488 0.705916
O O10 0.942511 0.629268 0.491624
O O11 0.928938 0.060875 0.586833
O O12 0.840820 0.173302 0.596208
O O13 0.000000 0.000000 0.500000
#
# Coordination Sequence:
#
# PCOD9281626 Si02
#       6
#     8   8   8   8   8   8
#     4  10  22  39  65  85 122 172 203 253 320 365
#     4  10  21  39  62  91 127 164 212 255 300 375
#     4  12  22  38  70  94 128 165 208 258 318 368
#     4  10  22  39  64  92 124 173 205 253 315 372
#     4  10  21  38  63  91 124 156 215 258 297 376
#     4  10  23  42  58  95 129 160 211 262 305 372
#
# _framework density 20.634274000000001
#
# number of rings (size 3 to 8) (size 9 to 14) (size 15 to 20)
#    0.000    2.000    3.333    3.500    2.333    5.333 
#    0.000    2.500    0.000    0.000    0.000    0.000 
#    0.000    0.000    0.000    0.000    0.000    0.000 
#
# Total GULP energy -133891.035644 kJ/mol
# GULP energy per Si atom -5578.793152 kJ/mol
# Density = 2.058731 g / cm^3
# Si number density = 20.634274 Si / 1000 Ang^3
#
#
#
# Elastic Constant Matrix: (Units=GPa)
#
#
# Indices 1 2 3 4 5 6 
#
# 1 97.2225 29.4617 32.1023 0.0006 -7.5137 0.0008
# 2 29.4617 103.4952 38.9067 -0.0001 1.2193 0.0003
# 3 32.1023 38.9067 79.2055 0.0013 -25.7891 0.0008
# 4 0.0006 -0.0001 0.0013 1.0689 0.0010 7.4887
# 5 -7.5137 1.2193 -25.7891 0.0010 25.6485 0.0007
# 6 0.0008 0.0003 0.0008 7.4887 0.0007 30.6177
#
#
#
# Elastic Compliance Matrix: (Units=1/GPa)
#
#
# Indices 1 2 3 4 5 6 
#
# 1 0.012201 -0.001888 -0.004200 0.000000 -0.000559 0.000000
# 2 -0.001888 0.013952 -0.009641 -0.000031 -0.010910 0.000008
# 3 -0.004200 -0.009641 0.027968 0.000072 0.027349 -0.000019
# 4 0.000000 -0.000031 0.000072 -1.311056 0.000118 0.320669
# 5 -0.000559 -0.010910 0.027349 0.000118 0.066843 -0.000031
# 6 0.000000 0.000008 -0.000019 0.320669 -0.000031 -0.045771
#
#
# Mechanical properties :
#
#
# Convention : Reuss Voigt Hill
#
# Bulk Modulus (GPa) = 44.12061 53.42939 48.77500
# Shear Modulus (GPa) = -4.17763 23.43052 9.62644
#
# Velocity S-wave (km/s) = -1.42443 3.37340 2.16227
# Velocity P-wave (km/s) = 4.32704 6.41271 5.47020
#
# Compressibility (1/GPa) = 0.02266515
#
# Stress axis : x y z
#
# Youngs Moduli (GPa) = 81.95807 71.67210 35.75507
#
# Poissons Ratio (x) = 0.13531 0.15016
# Poissons Ratio (y) = 0.15473 0.34470
# Poissons Ratio (z) = 0.34421 0.69096
#
# Static dielectric constant tensor:
#      x y z
#    x 1.761190 0.000000 -0.027440 
#    y 0.000000 1.799790 0.000000 
#    z -0.027440 0.000000 1.776480 
# 
# From -- ./inp_files/233994.got.cif
#   From: 2010.05.17/outbox.cif.g08.bks.cpg/sg15_117_cif.got.tgz:233994.got - 2010.06.03 18:47:42.
