data_PCOD9281835
_publ_section_title
;
Structure prediction by ZEFSAII (Michael W. Deem and Ramdas Pophale) SiO2 
 PCOD9281835
Probable space group: C 2/C
;
_chemical_formula_sum "Si O2"
_cell_formula_units_Z 64
_cell_length_a 26.271464
_cell_length_b 13.192975
_cell_length_c 19.084109
_cell_angle_alpha 90.000000
_cell_angle_beta 24.850950
_cell_angle_gamma 90.000000
_cell_volume 2779.816216
_symmetry_space_group_name_H-M "C 2/C"
_symmetry_group_IT_number 15
_symmetry_cell_setting 'monoclinic'
loop_
_space_group_symop_operation_xyz
x,y,z
-x,y,1/2-z
-x,-y,-z
x,-y,1/2+z
1/2+x,1/2+y,z
1/2-x,1/2+y,1/2-z
1/2-x,1/2-y,-z
1/2+x,1/2-y,1/2+z
loop_
_atom_site_type_symbol
_atom_site_label
_atom_site_fract_x
_atom_site_fract_y
_atom_site_fract_z
Si Si1 0.293152 0.016432 0.268381
Si Si2 0.226856 0.371229 0.320495
Si Si3 0.057761 0.640764 0.606838
Si Si4 0.428154 0.220175 0.054660
Si Si5 0.998058 0.250430 0.878955
Si Si6 0.216702 0.037165 0.137146
Si Si7 0.989222 0.978860 0.346694
Si Si8 0.609675 0.957889 0.701395
O O1 0.347253 0.121097 0.172707
O O2 0.340550 0.005001 0.286917
O O3 0.147983 0.013717 0.454134
O O4 0.340924 0.930078 0.156879
O O5 0.336122 0.309311 0.152449
O O6 0.280941 0.455248 0.304085
O O7 0.136035 0.292543 0.470630
O O8 0.010431 0.693746 0.595819
O O9 0.203072 0.631884 0.435444
O O10 0.000000 0.683896 0.750000
O O11 0.011356 0.523623 0.660098
O O12 0.491127 0.249776 0.049488
O O13 0.023913 0.139658 0.816822
O O14 0.083811 0.338502 0.740454
O O15 0.082069 0.047757 0.275237
O O16 0.294074 0.988620 0.977055
O O17 0.000000 0.999593 0.250000
#
# Coordination Sequence:
#
# PCOD9281835 Si02
#       8
#     8   8   8   8   8   8   8   8
#     4  11  23  41  63  88 126 171 204 255 310 375
#     4  12  23  39  62  93 124 160 215 254 314 373
#     4  10  21  40  68  89 120 160 214 266 308 355
#     4  11  22  41  62  94 125 161 213 259 312 368
#     4  11  23  36  62  94 127 159 202 263 319 376
#     4  11  22  39  61  94 121 163 206 256 316 376
#     4  12  25  40  60  92 136 169 202 248 322 388
#     4  10  21  38  65  90 122 160 207 261 314 370
#
# _framework density 23.023105999999999
#
# number of rings (size 3 to 8) (size 9 to 14) (size 15 to 20)
#    0.000    1.000    6.250    0.750    1.750    3.000 
#    2.250    0.625    0.000    2.250    0.000    0.000 
#    0.000    0.000    0.000    0.000    0.000    0.000 
#
# Total GULP energy -178925.142999 kJ/mol
# GULP energy per Si atom -5591.410719 kJ/mol
# Density = 2.297070 g / cm^3
# Si number density = 23.023106 Si / 1000 Ang^3
#
#
#
# Elastic Constant Matrix: (Units=GPa)
#
#
# Indices 1 2 3 4 5 6 
#
# 1 87.7002 7.1672 9.2669 0.0000 1.8733 0.0000
# 2 7.1672 29.5566 -10.9233 0.0000 6.6637 0.0000
# 3 9.2669 -10.9233 49.2702 0.0000 -3.3714 0.0000
# 4 0.0000 0.0000 0.0000 15.8529 0.0000 -1.5826
# 5 1.8733 6.6637 -3.3714 0.0000 45.4941 0.0000
# 6 0.0000 0.0000 0.0000 -1.5826 0.0000 11.9047
#
#
#
# Elastic Compliance Matrix: (Units=1/GPa)
#
#
# Indices 1 2 3 4 5 6 
#
# 1 0.012075 -0.004074 -0.003184 0.000000 -0.000136 0.000000
# 2 -0.004074 0.039308 0.009145 0.000000 -0.004912 0.000000
# 3 -0.003184 0.009145 0.022956 0.000000 0.000493 0.000000
# 4 0.000000 0.000000 0.000000 0.063928 0.000000 0.008499
# 5 -0.000136 -0.004912 0.000493 0.000000 0.022743 0.000000
# 6 0.000000 0.000000 0.000000 0.008499 0.000000 0.085130
#
#
# Mechanical properties :
#
#
# Convention : Reuss Voigt Hill
#
# Bulk Modulus (GPa) = 12.80176 19.72764 16.26470
# Shear Modulus (GPa) = 18.62866 25.38475 22.00670
#
# Velocity S-wave (km/s) = 2.84761 3.32411 3.09504
# Velocity P-wave (km/s) = 4.04775 4.82910 4.45558
#
# Compressibility (1/GPa) = 0.07811425
#
# Stress axis : x y z
#
# Youngs Moduli (GPa) = 82.81764 25.43983 43.56125
#
# Poissons Ratio (x) = 0.10364 0.13868
# Poissons Ratio (y) = 0.33738 -0.39836
# Poissons Ratio (z) = 0.26366 -0.23264
#
# Static dielectric constant tensor:
#      x y z
#    x 1.882320 0.000000 -0.025920 
#    y 0.000000 1.842450 0.000000 
#    z -0.025920 0.000000 1.893270 
# 
# From -- ./inp_files/219708.got.cif
#   From: 2010.05.17/outbox.cif.g08.bks.cpg/sg15_110_cif.got.tgz:219708.got - 2010.06.03 18:47:42.
