data_PCOD9281757
_publ_section_title
;
Structure prediction by ZEFSAII (Michael W. Deem and Ramdas Pophale) SiO2 
 PCOD9281757
Probable space group: C 2/C
;
_chemical_formula_sum "Si O2"
_cell_formula_units_Z 56
_cell_length_a 7.943127
_cell_length_b 19.700448
_cell_length_c 17.633697
_cell_angle_alpha 90.000000
_cell_angle_beta 107.425069
_cell_angle_gamma 90.000000
_cell_volume 2632.747176
_symmetry_space_group_name_H-M "C 2/C"
_symmetry_group_IT_number 15
_symmetry_cell_setting 'monoclinic'
loop_
_space_group_symop_operation_xyz
x,y,z
-x,y,1/2-z
-x,-y,-z
x,-y,1/2+z
1/2+x,1/2+y,z
1/2-x,1/2+y,1/2-z
1/2-x,1/2-y,-z
1/2+x,1/2-y,1/2+z
loop_
_atom_site_type_symbol
_atom_site_label
_atom_site_fract_x
_atom_site_fract_y
_atom_site_fract_z
Si Si1 0.020421 0.679961 0.935992
Si Si2 0.558687 0.670593 0.489330
Si Si3 0.701521 0.103072 0.707221
Si Si4 0.651612 0.947766 0.716316
Si Si5 0.876653 0.952335 0.888473
Si Si6 0.035853 0.565710 0.452215
Si Si7 0.019087 0.898411 0.130927
O O1 0.988617 0.758923 0.947196
O O2 0.937775 0.655323 0.845554
O O3 0.231109 0.671313 0.970222
O O4 0.943324 0.629738 0.989942
O O5 0.504574 0.607311 0.430527
O O6 0.482101 0.656405 0.562193
O O7 0.801394 0.118171 0.799054
O O8 0.860060 0.097473 0.668100
O O9 0.618753 0.028387 0.701401
O O10 0.500000 0.917738 0.750000
O O11 0.822351 0.943078 0.792486
O O12 0.625745 0.920493 0.628344
O O13 0.704969 0.947559 0.920606
O O14 0.955187 0.027840 0.903722
O O15 0.000000 0.500000 0.500000
#
# Coordination Sequence:
#
# PCOD9281757 Si02
#       7
#     8   8   8   8   8   8   8
#     4  11  25  41  61  87 123 170 212 248 303 373
#     4  11  25  42  59  89 125 167 210 253 307 363
#     4  10  21  38  64  92 119 161 200 254 308 363
#     4   9  20  36  61  95 120 155 196 251 312 362
#     4  10  22  40  62  92 128 158 198 262 308 362
#     4  11  20  36  66  94 119 160 207 253 306 365
#     4  10  22  39  64  95 121 156 206 256 311 364
#
# _framework density 21.270557
#
# number of rings (size 3 to 8) (size 9 to 14) (size 15 to 20)
#    0.000    1.714    1.429    2.143    6.000    2.286 
#    2.571    0.000    0.000    0.000    0.000    0.000 
#    0.000    0.000    0.000    0.000    0.000    0.000 
#
# Total GULP energy -156478.384217 kJ/mol
# GULP energy per Si atom -5588.513722 kJ/mol
# Density = 2.122214 g / cm^3
# Si number density = 21.270557 Si / 1000 Ang^3
#
#
#
# Elastic Constant Matrix: (Units=GPa)
#
#
# Indices 1 2 3 4 5 6 
#
# 1 63.8531 30.3075 11.2761 0.0000 -10.3338 0.0000
# 2 30.3075 114.0647 64.8998 0.0000 15.1294 0.0000
# 3 11.2761 64.8998 123.2483 0.0000 11.4075 0.0000
# 4 0.0000 0.0000 0.0000 32.5364 0.0000 6.0690
# 5 -10.3338 15.1294 11.4075 0.0000 31.6645 0.0000
# 6 0.0000 0.0000 0.0000 6.0690 0.0000 18.8970
#
#
#
# Elastic Compliance Matrix: (Units=1/GPa)
#
#
# Indices 1 2 3 4 5 6 
#
# 1 0.020574 -0.007401 0.001103 0.000000 0.009853 0.000000
# 2 -0.007401 0.015621 -0.006863 0.000000 -0.007406 0.000000
# 3 0.001103 -0.006863 0.011679 0.000000 -0.000569 0.000000
# 4 0.000000 0.000000 0.000000 0.032693 0.000000 -0.010500
# 5 0.009853 -0.007406 -0.000569 0.000000 0.038540 0.000000
# 6 0.000000 0.000000 0.000000 -0.010500 0.000000 0.056291
#
#
# Mechanical properties :
#
#
# Convention : Reuss Voigt Hill
#
# Bulk Modulus (GPa) = 46.40005 57.12588 51.76297
# Shear Modulus (GPa) = 23.93454 29.59843 26.76648
#
# Velocity S-wave (km/s) = 3.35810 3.73436 3.55122
# Velocity P-wave (km/s) = 6.07432 6.74603 6.41897
#
# Compressibility (1/GPa) = 0.02155170
#
# Stress axis : x y z
#
# Youngs Moduli (GPa) = 48.60603 64.01835 85.62223
#
# Poissons Ratio (x) = 0.47379 -0.09443
# Poissons Ratio (y) = 0.35973 0.58761
# Poissons Ratio (z) = -0.05361 0.43934
#
# Static dielectric constant tensor:
#      x y z
#    x 1.836850 0.000000 0.028680 
#    y 0.000000 1.700780 0.000000 
#    z 0.028680 0.000000 1.828240 
# 
# From -- ./inp_files/191052.got.cif
#   From: 2010.05.17/outbox.cif.g08.bks.cpg/sg15_96_cif.got.tgz:191052.got - 2010.06.03 18:47:42.
