data_PCOD9281611
_publ_section_title
;
Structure prediction by ZEFSAII (Michael W. Deem and Ramdas Pophale) SiO2 
 PCOD9281611
Probable space group: C 2/C
;
_chemical_formula_sum "Si O2"
_cell_formula_units_Z 48
_cell_length_a 22.952779
_cell_length_b 13.561914
_cell_length_c 12.610789
_cell_angle_alpha 90.000000
_cell_angle_beta 33.947948
_cell_angle_gamma 90.000000
_cell_volume 2192.172158
_symmetry_space_group_name_H-M "C 2/C"
_symmetry_group_IT_number 15
_symmetry_cell_setting 'monoclinic'
loop_
_space_group_symop_operation_xyz
x,y,z
-x,y,1/2-z
-x,-y,-z
x,-y,1/2+z
1/2+x,1/2+y,z
1/2-x,1/2+y,1/2-z
1/2-x,1/2-y,-z
1/2+x,1/2-y,1/2+z
loop_
_atom_site_type_symbol
_atom_site_label
_atom_site_fract_x
_atom_site_fract_y
_atom_site_fract_z
Si Si1 0.415973 0.719647 0.524493
Si Si2 0.409467 0.889006 0.688951
Si Si3 0.629589 0.935165 0.408277
Si Si4 0.769165 0.239490 0.345585
Si Si5 0.765865 0.087955 0.898232
Si Si6 0.417494 0.572786 0.182002
O O1 0.452855 0.810485 0.539877
O O2 0.343231 0.763419 0.542409
O O3 0.342108 0.657997 0.716709
O O4 0.511678 0.646301 0.354946
O O5 0.507226 0.918458 0.612874
O O6 0.368253 0.980646 0.683302
O O7 0.312328 0.855766 0.906178
O O8 0.678249 0.835906 0.285240
O O9 0.693211 0.961286 0.417532
O O10 0.750000 0.250000 0.500000
O O11 0.847611 0.146337 0.214636
O O12 0.833576 0.004057 0.855516
O O13 0.500000 0.500000 0.000000
#
# Coordination Sequence:
#
# PCOD9281611 Si02
#       6
#     8   8   8   8   8   8
#     4  10  22  39  63  91 126 164 209 268 316 378
#     4  11  20  38  60  89 123 164 211 257 319 376
#     4  10  22  36  59  89 124 164 212 264 310 381
#     4  11  22  40  62  90 128 169 212 260 324 379
#     4  10  21  38  63  89 123 166 209 261 320 380
#     4  10  21  41  63  91 127 164 209 264 315 377
#
# _framework density 21.896090000000001
#
# number of rings (size 3 to 8) (size 9 to 14) (size 15 to 20)
#    0.000    1.667    1.667    3.000    0.000    0.667 
#    0.000    5.000    0.000   10.000    0.000    0.000 
#    0.000    0.000    0.000    0.000    0.000    0.000 
#
# Total GULP energy -133875.344412 kJ/mol
# GULP energy per Si atom -5578.139351 kJ/mol
# Density = 2.184625 g / cm^3
# Si number density = 21.896090 Si / 1000 Ang^3
#
#
#
# Elastic Constant Matrix: (Units=GPa)
#
#
# Indices 1 2 3 4 5 6 
#
# 1 114.8548 29.4177 29.9657 0.0000 -21.9802 0.0000
# 2 29.4177 70.0431 12.7345 0.0000 -8.0272 0.0000
# 3 29.9657 12.7345 74.4439 0.0000 -8.4228 0.0000
# 4 0.0000 0.0000 0.0000 -1.0585 0.0000 -29.0409
# 5 -21.9802 -8.0272 -8.4228 0.0000 28.2440 0.0000
# 6 0.0000 0.0000 0.0000 -29.0409 0.0000 33.4304
#
#
#
# Elastic Compliance Matrix: (Units=1/GPa)
#
#
# Indices 1 2 3 4 5 6 
#
# 1 0.011875 -0.003549 -0.003355 0.000000 0.007232 0.000000
# 2 -0.003549 0.016149 -0.001167 0.000000 0.001480 0.000000
# 3 -0.003355 -0.001167 0.015161 0.000000 0.001579 0.000000
# 4 0.000000 0.000000 0.000000 -0.038043 0.000000 -0.033048
# 5 0.007232 0.001480 0.001579 0.000000 0.041926 0.000000
# 6 0.000000 0.000000 0.000000 -0.033048 0.000000 0.001205
#
#
# Mechanical properties :
#
#
# Convention : Reuss Voigt Hill
#
# Bulk Modulus (GPa) = 36.97442 44.84196 40.90819
# Shear Modulus (GPa) = 68.09409 24.60478 46.34944
#
# Velocity S-wave (km/s) = 5.58267 3.35581 4.60585
# Velocity P-wave (km/s) = 7.64709 5.96147 6.85628
#
# Compressibility (1/GPa) = 0.02704573
#
# Stress axis : x y z
#
# Youngs Moduli (GPa) = 84.21159 61.92313 65.95657
#
# Poissons Ratio (x) = 0.21974 0.22126
# Poissons Ratio (y) = 0.29883 0.07695
# Poissons Ratio (z) = 0.28250 0.07224
#
# Static dielectric constant tensor:
#      x y z
#    x 1.799920 0.000000 -0.027800 
#    y 0.000000 1.815220 0.000000 
#    z -0.027800 0.000000 1.817290 
# 
# From -- ./inp_files/96862.got.cif
#   From: 2010.05.17/outbox.cif.g08.bks.cpg/sg15_49_cif.got.tgz:96862.got - 2010.06.03 18:47:42.
