data_PCOD9281969
_publ_section_title
;
Structure prediction by ZEFSAII (Michael W. Deem and Ramdas Pophale) SiO2 
 PCOD9281969
Probable space group: C 2/C
;
_chemical_formula_sum "Si O2"
_cell_formula_units_Z 32
_cell_length_a 8.546899
_cell_length_b 12.261502
_cell_length_c 20.045549
_cell_angle_alpha 90.000000
_cell_angle_beta 41.478105
_cell_angle_gamma 90.000000
_cell_volume 1391.384352
_symmetry_space_group_name_H-M "C 2/C"
_symmetry_group_IT_number 15
_symmetry_cell_setting 'monoclinic'
loop_
_space_group_symop_operation_xyz
x,y,z
-x,y,1/2-z
-x,-y,-z
x,-y,1/2+z
1/2+x,1/2+y,z
1/2-x,1/2+y,1/2-z
1/2-x,1/2-y,-z
1/2+x,1/2-y,1/2+z
loop_
_atom_site_type_symbol
_atom_site_label
_atom_site_fract_x
_atom_site_fract_y
_atom_site_fract_z
Si Si1 0.012734 0.065894 0.564650
Si Si2 0.000000 0.185339 0.750000
Si Si3 0.500000 0.052568 0.750000
Si Si4 0.750004 0.987893 0.886162
Si Si5 0.009455 0.635206 0.358851
O O1 0.064895 0.988740 0.612192
O O2 0.250403 0.136393 0.477281
O O3 0.000000 0.000000 0.500000
O O4 0.750664 0.113487 0.660981
O O5 0.794030 0.099704 0.831796
O O6 0.963228 0.262081 0.698195
O O7 0.487065 0.970668 0.690799
O O8 0.714602 0.888058 0.847089
O O9 0.500000 0.000000 0.000000
#
# Coordination Sequence:
#
# PCOD9281969 Si02
#       5
#     8   4   4   8   8
#     4   9  18  34  61  91 127 173 217 271 333 389
#     4  11  22  40  72  99 132 181 218 274 350 399
#     4   9  16  32  60  87 126 177 210 264 338 383
#     4  10  21  38  66  97 130 175 223 276 336 398
#     4   9  20  37  62  95 129 173 225 271 332 406
#
# _framework density 22.998677000000001
#
# number of rings (size 3 to 8) (size 9 to 14) (size 15 to 20)
#    0.000    2.500    0.000    1.500    0.000    4.000 
#    0.000    0.000    0.000  219.000    0.000    0.000 
#    0.000    0.000    0.000    0.000    0.000    0.000 
#
# Total GULP energy -89206.776406 kJ/mol
# GULP energy per Si atom -5575.423525 kJ/mol
# Density = 2.294633 g / cm^3
# Si number density = 22.998677 Si / 1000 Ang^3
#
#
#
# Elastic Constant Matrix: (Units=GPa)
#
#
# Indices 1 2 3 4 5 6 
#
# 1 156.7444 63.2817 74.6852 0.0000 -5.7200 -0.0001
# 2 63.2817 117.8635 50.4292 -0.0005 13.4439 0.0000
# 3 74.6852 50.4292 168.6312 -0.0018 6.6895 0.0002
# 4 0.0000 -0.0005 -0.0018 13.1705 0.0004 15.1791
# 5 -5.7200 13.4439 6.6895 0.0004 12.1423 0.0001
# 6 -0.0001 0.0000 0.0002 15.1791 0.0001 32.5529
#
#
#
# Elastic Compliance Matrix: (Units=1/GPa)
#
#
# Indices 1 2 3 4 5 6 
#
# 1 0.011011 -0.005918 -0.003653 -0.000002 0.013751 0.000001
# 2 -0.005918 0.014079 -0.000880 0.000002 -0.017891 -0.000001
# 3 -0.003653 -0.000880 0.008016 0.000003 -0.005163 -0.000001
# 4 -0.000002 0.000002 0.000003 0.164134 -0.000010 -0.076534
# 5 0.013751 -0.017891 -0.005163 -0.000010 0.111487 0.000004
# 6 0.000001 -0.000001 -0.000001 -0.076534 0.000004 0.066406
#
#
# Mechanical properties :
#
#
# Convention : Reuss Voigt Hill
#
# Bulk Modulus (GPa) = 81.92880 91.11459 86.52169
# Shear Modulus (GPa) = 12.49683 28.56268 20.52975
#
# Velocity S-wave (km/s) = 2.33356 3.52792 2.99096
# Velocity P-wave (km/s) = 6.55449 7.50322 7.04484
#
# Compressibility (1/GPa) = 0.01220572
#
# Stress axis : x y z
#
# Youngs Moduli (GPa) = 90.81739 71.02944 124.75619
#
# Poissons Ratio (x) = 0.42033 0.45568
# Poissons Ratio (y) = 0.53743 0.10974
# Poissons Ratio (z) = 0.33171 0.06248
#
# Static dielectric constant tensor:
#      x y z
#    x 1.911500 0.000000 -0.001250 
#    y 0.000000 1.877450 0.000000 
#    z -0.001250 0.000000 1.878140 
# 
# From -- ./inp_files/132037.got.cif
#   From: 2010.05.17/outbox.cif.g08.bks.cpg/sg15_67_cif.got.tgz:132037.got - 2010.06.03 18:47:42.
