data_PCOD9281126
_publ_section_title
;
Structure prediction by ZEFSAII (Michael W. Deem and Ramdas Pophale) SiO2 
 PCOD9281126
Probable space group: C 2/C
;
_chemical_formula_sum "Si O2"
_cell_formula_units_Z 60
_cell_length_a 5.220849
_cell_length_b 19.770914
_cell_length_c 25.720702
_cell_angle_alpha 90.000000
_cell_angle_beta 112.533751
_cell_angle_gamma 90.000000
_cell_volume 2452.223146
_symmetry_space_group_name_H-M "C 2/C"
_symmetry_group_IT_number 15
_symmetry_cell_setting 'monoclinic'
loop_
_space_group_symop_operation_xyz
x,y,z
-x,y,1/2-z
-x,-y,-z
x,-y,1/2+z
1/2+x,1/2+y,z
1/2-x,1/2+y,1/2-z
1/2-x,1/2-y,-z
1/2+x,1/2-y,1/2+z
loop_
_atom_site_type_symbol
_atom_site_label
_atom_site_fract_x
_atom_site_fract_y
_atom_site_fract_z
Si Si1 0.489861 0.082249 0.097507
Si Si2 0.643850 0.204073 0.944632
Si Si3 0.869851 0.067168 0.328735
Si Si4 0.691903 0.705098 0.714763
Si Si5 0.461336 0.572520 0.646638
Si Si6 0.378448 0.235750 0.066689
Si Si7 0.500000 0.667537 0.250000
Si Si8 0.175366 0.442815 0.425626
O O1 0.368846 0.073963 0.146696
O O2 0.400922 0.156115 0.073090
O O3 0.823383 0.078231 0.121654
O O4 0.348287 0.019483 0.055341
O O5 0.334484 0.229429 0.910813
O O6 0.682635 0.125161 0.960591
O O7 0.831015 0.225829 0.911050
O O8 0.750000 0.250000 0.000000
O O9 0.855860 0.120474 0.281401
O O10 0.891818 0.989524 0.311866
O O11 0.500000 0.715050 0.750000
O O12 0.552340 0.644826 0.672988
O O13 0.776501 0.782173 0.705167
O O14 0.000000 0.677398 0.750000
O O15 0.575401 0.562601 0.596394
O O16 0.129278 0.565319 0.624677
O O17 0.250000 0.250000 0.000000
#
# Coordination Sequence:
#
# PCOD9281126 Si02
#       8
#     8   8   8   8   8   8   4   8
#     4  10  22  41  61  89 120 159 206 253 305 359
#     4  10  21  38  58  90 122 155 197 243 306 365
#     4  10  23  39  63  86 123 160 208 252 305 359
#     4  10  23  39  56  86 122 153 200 247 305 354
#     4  10  21  40  61  89 114 164 205 249 300 358
#     4  10  21  39  61  90 123 156 198 248 310 373
#     4  10  26  40  58  90 122 162 202 252 308 354
#     4  10  21  39  62  88 118 157 206 250 295 361
#
# _framework density 24.467593999999998
#
# number of rings (size 3 to 8) (size 9 to 14) (size 15 to 20)
#    0.400    1.600    0.000    2.400    2.800    3.200 
#    0.000    5.333    0.000    0.000    0.000    0.000 
#    0.000    0.000    0.000    0.000    0.000    0.000 
#
# Total GULP energy -167558.971344 kJ/mol
# GULP energy per Si atom -5585.299045 kJ/mol
# Density = 2.441191 g / cm^3
# Si number density = 24.467594 Si / 1000 Ang^3
#
#
#
# Elastic Constant Matrix: (Units=GPa)
#
#
# Indices 1 2 3 4 5 6 
#
# 1 159.5913 21.1818 -2.3637 0.0000 -0.5201 0.0000
# 2 21.1818 199.0816 45.0753 0.0000 1.1650 0.0000
# 3 -2.3637 45.0753 23.4688 0.0000 2.1820 0.0000
# 4 0.0000 0.0000 0.0000 39.1242 0.0000 -6.0078
# 5 -0.5201 1.1650 2.1820 0.0000 11.2743 0.0000
# 6 0.0000 0.0000 0.0000 -6.0078 0.0000 40.0878
#
#
#
# Elastic Compliance Matrix: (Units=1/GPa)
#
#
# Indices 1 2 3 4 5 6 
#
# 1 0.006516 -0.001496 0.003551 0.000000 -0.000232 0.000000
# 2 -0.001496 0.009298 -0.018240 0.000000 0.002500 0.000000
# 3 0.003551 -0.018240 0.079236 0.000000 -0.013286 0.000000
# 4 0.000000 0.000000 0.000000 0.026162 0.000000 0.003921
# 5 -0.000232 0.002500 -0.013286 0.000000 0.090999 0.000000
# 6 0.000000 0.000000 0.000000 0.003921 0.000000 0.025533
#
#
# Mechanical properties :
#
#
# Convention : Reuss Voigt Hill
#
# Bulk Modulus (GPa) = 15.95413 56.65870 36.30641
# Shear Modulus (GPa) = 17.18167 39.31382 28.24774
#
# Velocity S-wave (km/s) = 2.65282 4.01280 3.40147
# Velocity P-wave (km/s) = 3.98973 6.68409 5.50431
#
# Compressibility (1/GPa) = 0.06267971
#
# Stress axis : x y z
#
# Youngs Moduli (GPa) = 153.45880 107.55532 12.62049
#
# Poissons Ratio (x) = 0.16091 -0.04482
# Poissons Ratio (y) = 0.22958 0.23020
# Poissons Ratio (z) = -0.54497 1.96186
#
# Static dielectric constant tensor:
#      x y z
#    x 2.123700 0.000000 0.069660 
#    y 0.000000 1.953560 0.000000 
#    z 0.069660 0.000000 1.942270 
# 
# From -- ./inp_files/305812.got.cif
#   From: 2010.05.17/outbox.cif.g08.bks.cpg/sg15_153_cif.got.tgz:305812.got - 2010.06.03 18:47:42.
