data_PCOD9281661
_publ_section_title
;
Structure prediction by ZEFSAII (Michael W. Deem and Ramdas Pophale) SiO2 
 PCOD9281661
Probable space group: C 2/C
;
_chemical_formula_sum "Si O2"
_cell_formula_units_Z 56
_cell_length_a 23.618708
_cell_length_b 17.472068
_cell_length_c 16.519363
_cell_angle_alpha 90.000000
_cell_angle_beta 19.318585
_cell_angle_gamma 90.000000
_cell_volume 2255.205795
_symmetry_space_group_name_H-M "C 2/C"
_symmetry_group_IT_number 15
_symmetry_cell_setting 'monoclinic'
loop_
_space_group_symop_operation_xyz
x,y,z
-x,y,1/2-z
-x,-y,-z
x,-y,1/2+z
1/2+x,1/2+y,z
1/2-x,1/2+y,1/2-z
1/2-x,1/2-y,-z
1/2+x,1/2-y,1/2+z
loop_
_atom_site_type_symbol
_atom_site_label
_atom_site_fract_x
_atom_site_fract_y
_atom_site_fract_z
Si Si1 0.759744 0.145423 0.410923
Si Si2 0.129538 0.683196 0.755757
Si Si3 0.301400 0.214337 0.573066
Si Si4 0.681948 0.159075 0.109972
Si Si5 0.132133 0.430520 0.815428
Si Si6 0.185795 0.019091 0.285213
Si Si7 0.643748 0.369675 0.418915
O O1 0.814574 0.229027 0.302238
O O2 0.632420 0.166095 0.656010
O O3 0.716353 0.077351 0.406858
O O4 0.943668 0.117500 0.195788
O O5 0.280997 0.636688 0.594465
O O6 0.967545 0.644983 0.017886
O O7 0.492518 0.195387 0.347893
O O8 0.241790 0.155186 0.582578
O O9 0.280792 0.289606 0.544025
O O10 0.183787 0.205162 0.810370
O O11 0.671734 0.079020 0.167916
O O12 0.296268 0.440840 0.651272
O O13 0.000000 0.500000 0.000000
O O14 0.244594 0.934116 0.231223
O O15 0.000000 0.000000 0.500000
#
# Coordination Sequence:
#
# PCOD9281661 Si02
#       7
#     8   8   8   8   8   8   8
#     4  10  25  41  66  98 138 178 228 279 348 409
#     4  11  23  41  66 102 134 179 227 287 340 413
#     4  10  21  38  63  93 130 171 222 278 342 394
#     4  10  22  38  61  97 130 168 222 282 334 407
#     4  12  23  41  67  97 132 175 225 275 343 403
#     4  10  24  44  65  93 131 176 223 275 342 412
#     4  11  21  42  65  92 134 180 224 281 340 404
#
# _framework density 24.831437999999999
#
# number of rings (size 3 to 8) (size 9 to 14) (size 15 to 20)
#    0.000    1.429    2.857    1.286    4.000    2.857 
#    0.000    0.000    0.000    0.000    0.000    0.000 
#    0.000    0.000    0.000    0.000    0.000    0.000 
#
# Total GULP energy -155997.119500 kJ/mol
# GULP energy per Si atom -5571.325696 kJ/mol
# Density = 2.477492 g / cm^3
# Si number density = 24.831438 Si / 1000 Ang^3
#
#
#
# Elastic Constant Matrix: (Units=GPa)
#
#
# Indices 1 2 3 4 5 6 
#
# 1 121.7015 26.0788 4.8008 -0.0011 -2.4458 0.0034
# 2 26.0788 114.5890 -4.6909 0.0007 11.9372 0.0042
# 3 4.8008 -4.6909 37.3916 0.0014 2.4266 0.0060
# 4 -0.0011 0.0007 0.0014 27.7278 0.0028 -0.8240
# 5 -2.4458 11.9372 2.4266 0.0028 45.7625 -0.0033
# 6 0.0034 0.0042 0.0060 -0.8240 -0.0033 36.7104
#
#
#
# Elastic Compliance Matrix: (Units=1/GPa)
#
#
# Indices 1 2 3 4 5 6 
#
# 1 0.008762 -0.002170 -0.001469 0.000000 0.001112 0.000000
# 2 -0.002170 0.009570 0.001654 0.000000 -0.002700 -0.000001
# 3 -0.001469 0.001654 0.027267 -0.000001 -0.001956 -0.000005
# 4 0.000000 0.000000 -0.000001 0.036089 -0.000002 0.000810
# 5 0.001112 -0.002700 -0.001956 -0.000002 0.022719 0.000003
# 6 0.000000 -0.000001 -0.000005 0.000810 0.000003 0.027258
#
#
# Mechanical properties :
#
#
# Convention : Reuss Voigt Hill
#
# Bulk Modulus (GPa) = 24.02194 36.22883 30.12539
# Shear Modulus (GPa) = 33.44204 38.53971 35.99087
#
# Velocity S-wave (km/s) = 3.67381 3.94388 3.81124
# Velocity P-wave (km/s) = 5.26221 5.94647 5.61477
#
# Compressibility (1/GPa) = 0.04162860
#
# Stress axis : x y z
#
# Youngs Moduli (GPa) = 114.12679 104.49605 36.67424
#
# Poissons Ratio (x) = 0.22677 0.05389
# Poissons Ratio (y) = 0.24768 -0.06067
# Poissons Ratio (z) = 0.16770 -0.17288
#
# Static dielectric constant tensor:
#      x y z
#    x 1.964730 0.000000 -0.006040 
#    y 0.000000 2.148890 0.000000 
#    z -0.006040 0.000000 2.003830 
# 
# From -- ./inp_files/169120.got.cif
#   From: 2010.05.17/outbox.cif.g08.bks.cpg/sg15_85_cif.got.tgz:169120.got - 2010.06.03 18:47:42.
