data_PCOD9281575
_publ_section_title
;
Structure prediction by ZEFSAII (Michael W. Deem and Ramdas Pophale) SiO2 
 PCOD9281575
Probable space group: C 2/C
;
_chemical_formula_sum "Si O2"
_cell_formula_units_Z 56
_cell_length_a 13.991097
_cell_length_b 20.963089
_cell_length_c 8.639662
_cell_angle_alpha 90.000000
_cell_angle_beta 83.337141
_cell_angle_gamma 90.000000
_cell_volume 2516.869244
_symmetry_space_group_name_H-M "C 2/C"
_symmetry_group_IT_number 15
_symmetry_cell_setting 'monoclinic'
loop_
_space_group_symop_operation_xyz
x,y,z
-x,y,1/2-z
-x,-y,-z
x,-y,1/2+z
1/2+x,1/2+y,z
1/2-x,1/2+y,1/2-z
1/2-x,1/2-y,-z
1/2+x,1/2-y,1/2+z
loop_
_atom_site_type_symbol
_atom_site_label
_atom_site_fract_x
_atom_site_fract_y
_atom_site_fract_z
Si Si1 0.642964 0.442626 0.014456
Si Si2 0.092176 0.511342 0.828409
Si Si3 0.306579 0.296994 0.100739
Si Si4 0.142299 0.409670 0.617940
Si Si5 0.708597 0.436277 0.340946
Si Si6 0.514859 0.332994 0.927916
Si Si7 0.599712 0.763428 0.634443
O O1 0.742516 0.414554 0.924680
O O2 0.654619 0.517505 0.971425
O O3 0.555130 0.403223 0.960271
O O4 0.644493 0.431818 0.197998
O O5 0.103741 0.435276 0.791684
O O6 0.191993 0.532792 0.732347
O O7 0.000000 0.534749 0.750000
O O8 0.096105 0.542246 0.997613
O O9 0.260412 0.366572 0.112253
O O10 0.319556 0.264782 0.265893
O O11 0.250000 0.250000 0.000000
O O12 0.412923 0.315714 0.022157
O O13 0.115819 0.336981 0.592434
O O14 0.500000 0.326211 0.750000
O O15 0.588436 0.282390 0.989457
O O16 0.500000 0.760419 0.750000
#
# Coordination Sequence:
#
# PCOD9281575 Si02
#       7
#     8   8   8   8   8   8   8
#     4  10  23  43  68  98 139 175 228 289 338 414
#     4  10  21  38  62  99 134 173 226 281 325 409
#     4  11  26  45  68  94 136 181 223 282 340 414
#     4  10  22  38  67  94 134 182 217 280 345 398
#     4  10  23  43  67 100 134 184 228 279 353 400
#     4  11  26  45  67 103 133 176 234 284 345 416
#     4  10  23  44  66  92 133 179 223 279 340 410
#
# _framework density 22.249863999999999
#
# number of rings (size 3 to 8) (size 9 to 14) (size 15 to 20)
#    0.000    1.714    1.429    0.857    4.000    9.714 
#    0.000    0.000    0.000    0.000    0.000    0.000 
#    0.000    0.000    0.000    0.000    0.000    0.000 
#
# Total GULP energy -156430.849290 kJ/mol
# GULP energy per Si atom -5586.816046 kJ/mol
# Density = 2.219922 g / cm^3
# Si number density = 22.249864 Si / 1000 Ang^3
#
#
#
# Elastic Constant Matrix: (Units=GPa)
#
#
# Indices 1 2 3 4 5 6 
#
# 1 64.6993 5.7998 18.3850 0.0000 16.6650 0.0000
# 2 5.7998 131.1776 28.6426 0.0000 14.8609 0.0000
# 3 18.3850 28.6426 65.9977 0.0000 23.7156 0.0000
# 4 0.0000 0.0000 0.0000 26.0730 0.0000 9.3790
# 5 16.6650 14.8609 23.7156 0.0000 30.2838 0.0000
# 6 0.0000 0.0000 0.0000 9.3790 0.0000 32.4186
#
#
#
# Elastic Compliance Matrix: (Units=1/GPa)
#
#
# Indices 1 2 3 4 5 6 
#
# 1 0.018257 0.000665 -0.002292 0.000000 -0.008578 0.000000
# 2 0.000665 0.008514 -0.003128 0.000000 -0.002095 0.000000
# 3 -0.002292 -0.003128 0.022465 0.000000 -0.014796 0.000000
# 4 0.000000 0.000000 0.000000 0.042809 0.000000 -0.012385
# 5 -0.008578 -0.002095 -0.014796 0.000000 0.050357 0.000000
# 6 0.000000 0.000000 0.000000 -0.012385 0.000000 0.034430
#
#
# Mechanical properties :
#
#
# Convention : Reuss Voigt Hill
#
# Bulk Modulus (GPa) = 25.17171 40.83659 33.00415
# Shear Modulus (GPa) = 25.05221 31.69157 28.37189
#
# Velocity S-wave (km/s) = 3.35916 3.77815 3.57480
# Velocity P-wave (km/s) = 5.13644 6.11768 5.64841
#
# Compressibility (1/GPa) = 0.03972714
#
# Stress axis : x y z
#
# Youngs Moduli (GPa) = 54.77237 117.45261 44.51396
#
# Poissons Ratio (x) = -0.07812 0.10203
# Poissons Ratio (y) = -0.03643 0.13922
# Poissons Ratio (z) = 0.12554 0.36735
#
# Static dielectric constant tensor:
#      x y z
#    x 1.904460 0.000000 -0.023190 
#    y 0.000000 1.843680 0.000000 
#    z -0.023190 0.000000 1.860750 
# 
# From -- ./inp_files/41254.got.cif
#   From: 2010.05.17/outbox.cif.g08.bks.cpg/sg15_21_cif.got.tgz:41254.got - 2010.06.03 18:47:42.
