data_PCOD9281901
_publ_section_title
;
Structure prediction by ZEFSAII (Michael W. Deem and Ramdas Pophale) SiO2 
 PCOD9281901
Probable space group: C 2/C
;
_chemical_formula_sum "Si O2"
_cell_formula_units_Z 56
_cell_length_a 19.504616
_cell_length_b 21.322327
_cell_length_c 11.487846
_cell_angle_alpha 90.000000
_cell_angle_beta 34.426707
_cell_angle_gamma 90.000000
_cell_volume 2701.028674
_symmetry_space_group_name_H-M "C 2/C"
_symmetry_group_IT_number 15
_symmetry_cell_setting 'monoclinic'
loop_
_space_group_symop_operation_xyz
x,y,z
-x,y,1/2-z
-x,-y,-z
x,-y,1/2+z
1/2+x,1/2+y,z
1/2-x,1/2+y,1/2-z
1/2-x,1/2-y,-z
1/2+x,1/2-y,1/2+z
loop_
_atom_site_type_symbol
_atom_site_label
_atom_site_fract_x
_atom_site_fract_y
_atom_site_fract_z
Si Si1 0.596448 0.341060 0.911939
Si Si2 0.886334 0.474194 0.490590
Si Si3 0.027577 0.294046 0.575536
Si Si4 0.811493 0.625801 0.272078
Si Si5 0.223484 0.598475 0.776575
Si Si6 0.332996 0.435280 0.872221
Si Si7 0.885446 0.072848 0.772145
O O1 0.724999 0.340377 0.798986
O O2 0.608580 0.374668 0.770179
O O3 0.545167 0.271431 0.984943
O O4 0.506893 0.386749 0.108728
O O5 0.882855 0.428520 0.604768
O O6 0.872142 0.544491 0.555049
O O7 0.772796 0.456103 0.568688
O O8 0.000000 0.466211 0.250000
O O9 0.148039 0.337015 0.391320
O O10 0.000000 0.281488 0.750000
O O11 0.909671 0.329576 0.692455
O O12 0.720640 0.594665 0.492098
O O13 0.278997 0.582650 0.572729
O O14 0.329257 0.589259 0.723928
O O15 0.411592 0.499305 0.759301
#
# Coordination Sequence:
#
# PCOD9281901 Si02
#       7
#     8   8   8   8   8   8   8
#     4  11  27  44  65  93 135 175 217 266 322 396
#     4  10  21  38  66 100 135 170 212 272 333 379
#     4  12  25  41  68  98 129 173 217 266 325 390
#     4  11  23  43  68  97 130 170 217 272 328 378
#     4  11  23  39  69 100 133 167 216 277 317 387
#     4  10  23  43  65  99 131 172 217 269 333 379
#     4  11  22  43  69  98 128 169 222 270 327 376
#
# _framework density 20.732839999999999
#
# number of rings (size 3 to 8) (size 9 to 14) (size 15 to 20)
#    0.000    1.143    2.857    3.000    4.000    3.429 
#    2.571    0.000    6.286    0.000    0.000    0.000 
#    0.000    0.000    0.000    0.000    0.000    0.000 
#
# Total GULP energy -156599.332707 kJ/mol
# GULP energy per Si atom -5592.833311 kJ/mol
# Density = 2.068565 g / cm^3
# Si number density = 20.732840 Si / 1000 Ang^3
#
#
#
# Elastic Constant Matrix: (Units=GPa)
#
#
# Indices 1 2 3 4 5 6 
#
# 1 66.1971 18.2220 18.5582 0.0000 1.1711 0.0003
# 2 18.2220 114.6097 33.9379 0.0000 0.2506 0.0000
# 3 18.5582 33.9379 90.5233 -0.0001 14.9826 0.0001
# 4 0.0000 0.0000 -0.0001 47.6529 0.0001 46.5566
# 5 1.1711 0.2506 14.9826 0.0001 37.0468 -0.0001
# 6 0.0003 0.0000 0.0001 46.5566 -0.0001 125.4363
#
#
#
# Elastic Compliance Matrix: (Units=1/GPa)
#
#
# Indices 1 2 3 4 5 6 
#
# 1 0.016367 -0.001777 -0.002793 0.000000 0.000624 0.000000
# 2 -0.001777 0.010089 -0.003661 0.000000 0.001469 0.000000
# 3 -0.002793 -0.003661 0.013904 0.000000 -0.005510 0.000000
# 4 0.000000 0.000000 0.000000 0.032924 0.000000 -0.012220
# 5 0.000624 0.001469 -0.005510 0.000000 0.029192 0.000000
# 6 0.000000 0.000000 0.000000 -0.012220 0.000000 0.012508
#
#
# Mechanical properties :
#
#
# Convention : Reuss Voigt Hill
#
# Bulk Modulus (GPa) = 41.84280 45.86294 43.85287
# Shear Modulus (GPa) = 35.86529 55.40133 45.63331
#
# Velocity S-wave (km/s) = 4.16369 5.17490 4.69659
# Velocity P-wave (km/s) = 6.58337 7.60756 7.11392
#
# Compressibility (1/GPa) = 0.02389898
#
# Stress axis : x y z
#
# Youngs Moduli (GPa) = 61.09725 99.12122 71.92193
#
# Poissons Ratio (x) = 0.17611 0.20085
# Poissons Ratio (y) = 0.10855 0.26332
# Poissons Ratio (z) = 0.17062 0.36290
#
# Static dielectric constant tensor:
#      x y z
#    x 1.763490 0.000000 -0.005230 
#    y 0.000000 1.738460 0.000000 
#    z -0.005230 0.000000 1.719250 
# 
# From -- ./inp_files/114691.got.cif
#   From: 2010.05.17/outbox.cif.g08.bks.cpg/sg15_58_cif.got.tgz:114691.got - 2010.06.03 18:47:42.
