data_PCOD9281953
_publ_section_title
;
Structure prediction by ZEFSAII (Michael W. Deem and Ramdas Pophale) SiO2 
 PCOD9281953
Probable space group: C 2/C
;
_chemical_formula_sum "Si O2"
_cell_formula_units_Z 56
_cell_length_a 7.762979
_cell_length_b 14.680721
_cell_length_c 28.194714
_cell_angle_alpha 90.000000
_cell_angle_beta 47.814329
_cell_angle_gamma 90.000000
_cell_volume 2380.924461
_symmetry_space_group_name_H-M "C 2/C"
_symmetry_group_IT_number 15
_symmetry_cell_setting 'monoclinic'
loop_
_space_group_symop_operation_xyz
x,y,z
-x,y,1/2-z
-x,-y,-z
x,-y,1/2+z
1/2+x,1/2+y,z
1/2-x,1/2+y,1/2-z
1/2-x,1/2-y,-z
1/2+x,1/2-y,1/2+z
loop_
_atom_site_type_symbol
_atom_site_label
_atom_site_fract_x
_atom_site_fract_y
_atom_site_fract_z
Si Si1 0.619887 0.236171 0.474112
Si Si2 0.000000 0.635161 0.750000
Si Si3 0.500000 0.186487 0.250000
Si Si4 0.992658 0.788325 0.824720
Si Si5 0.826783 0.070172 0.554568
Si Si6 0.910731 0.573576 0.554508
Si Si7 0.996106 0.479966 0.818645
Si Si8 0.112813 0.987749 0.683485
O O1 0.750000 0.250000 0.500000
O O2 0.548510 0.333132 0.466917
O O3 0.415252 0.167011 0.524410
O O4 0.816210 0.202173 0.401017
O O5 0.899544 0.710716 0.805794
O O6 0.883236 0.557013 0.737633
O O7 0.741100 0.239901 0.212617
O O8 0.548039 0.115119 0.198614
O O9 0.016799 0.892178 0.801621
O O10 0.604656 0.082093 0.560491
O O11 0.734706 0.030563 0.620906
O O12 0.000000 0.000000 0.500000
O O13 0.000000 0.500000 0.500000
O O14 0.676719 0.543906 0.624944
O O15 0.141194 0.458463 0.838834
O O16 0.000000 0.035936 0.750000
#
# Coordination Sequence:
#
# PCOD9281953 Si02
#       8
#     8   4   4   8   8   8   8   8
#     4  10  22  41  65  94 132 179 221 276 335 398
#     4  11  22  42  62  95 136 172 216 281 336 398
#     4  11  24  38  64  99 126 170 226 263 342 418
#     4  12  22  42  71  95 136 178 221 283 340 400
#     4  10  22  40  67  88 129 174 220 274 337 389
#     4  10  21  38  66  95 127 172 227 267 334 408
#     4  10  22  40  62  94 131 170 222 269 338 410
#     4  11  21  41  67  94 133 182 217 273 344 404
#
# _framework density 23.520275999999999
#
# number of rings (size 3 to 8) (size 9 to 14) (size 15 to 20)
#    0.000    1.429    5.000    0.000    4.000    0.000 
#    1.286    0.714    6.286    0.000    0.000    0.000 
#    0.000    0.000    0.000    0.000    0.000    0.000 
#
# Total GULP energy -156035.330020 kJ/mol
# GULP energy per Si atom -5572.690358 kJ/mol
# Density = 2.346674 g / cm^3
# Si number density = 23.520276 Si / 1000 Ang^3
#
#
#
# Elastic Constant Matrix: (Units=GPa)
#
#
# Indices 1 2 3 4 5 6 
#
# 1 46.1579 -4.0006 -1.6589 0.0002 3.7511 -0.0008
# 2 -4.0006 66.2810 20.2662 0.0000 -15.2809 -0.0001
# 3 -1.6589 20.2662 140.3395 -0.0003 5.3771 -0.0006
# 4 0.0002 0.0000 -0.0003 37.6679 -0.0001 -1.3457
# 5 3.7511 -15.2809 5.3771 -0.0001 23.7320 0.0006
# 6 -0.0008 -0.0001 -0.0006 -1.3457 0.0006 17.8138
#
#
#
# Elastic Compliance Matrix: (Units=1/GPa)
#
#
# Indices 1 2 3 4 5 6 
#
# 1 0.021981 0.000486 0.000314 0.000000 -0.003233 0.000001
# 2 0.000486 0.019097 -0.003248 0.000000 0.012956 0.000000
# 3 0.000314 -0.003248 0.007748 0.000000 -0.003897 0.000000
# 4 0.000000 0.000000 0.000000 0.026620 0.000000 0.002011
# 5 -0.003233 0.012956 -0.003897 0.000000 0.051873 -0.000002
# 6 0.000001 0.000000 0.000000 0.002011 -0.000002 0.056288
#
#
# Mechanical properties :
#
#
# Convention : Reuss Voigt Hill
#
# Bulk Modulus (GPa) = 22.76519 31.33242 27.04881
# Shear Modulus (GPa) = 24.61275 31.72086 28.16681
#
# Velocity S-wave (km/s) = 3.23839 3.67639 3.46432
# Velocity P-wave (km/s) = 4.86651 5.60103 5.24664
#
# Compressibility (1/GPa) = 0.04392671
#
# Stress axis : x y z
#
# Youngs Moduli (GPa) = 45.49417 52.36511 129.07096
#
# Poissons Ratio (x) = -0.02543 -0.04047
# Poissons Ratio (y) = -0.02209 0.41927
# Poissons Ratio (z) = -0.01427 0.17010
#
# Static dielectric constant tensor:
#      x y z
#    x 1.931660 0.000000 0.002760 
#    y 0.000000 1.908540 0.000000 
#    z 0.002760 0.000000 2.030290 
# 
# From -- ./inp_files/307975.got.cif
#   From: 2010.05.17/outbox.cif.g08.bks.cpg/sg15_154_cif.got.tgz:307975.got - 2010.06.03 18:47:42.
