data_PCOD9281567
_publ_section_title
;
Structure prediction by ZEFSAII (Michael W. Deem and Ramdas Pophale) SiO2 
 PCOD9281567
Probable space group: C 2/C
;
_chemical_formula_sum "Si O2"
_cell_formula_units_Z 40
_cell_length_a 16.472528
_cell_length_b 10.009915
_cell_length_c 15.397445
_cell_angle_alpha 90.000000
_cell_angle_beta 52.336193
_cell_angle_gamma 90.000000
_cell_volume 2009.788679
_symmetry_space_group_name_H-M "C 2/C"
_symmetry_group_IT_number 15
_symmetry_cell_setting 'monoclinic'
loop_
_space_group_symop_operation_xyz
x,y,z
-x,y,1/2-z
-x,-y,-z
x,-y,1/2+z
1/2+x,1/2+y,z
1/2-x,1/2+y,1/2-z
1/2-x,1/2-y,-z
1/2+x,1/2-y,1/2+z
loop_
_atom_site_type_symbol
_atom_site_label
_atom_site_fract_x
_atom_site_fract_y
_atom_site_fract_z
Si Si1 0.551171 0.860317 0.353735
Si Si2 0.641661 0.678027 0.064436
Si Si3 0.070286 0.642432 0.395119
Si Si4 0.896094 0.068984 0.597298
Si Si5 0.198991 0.869671 0.706524
O O1 0.454942 0.779953 0.375008
O O2 0.523566 0.855802 0.474827
O O3 0.652293 0.776600 0.262425
O O4 0.558447 0.020262 0.335513
O O5 0.642986 0.594169 0.152687
O O6 0.750000 0.750000 0.000000
O O7 0.647506 0.604901 0.968746
O O8 0.082949 0.796660 0.360696
O O9 0.177988 0.619997 0.376386
O O10 0.833333 0.967175 0.695593
O O11 0.000000 0.000000 0.500000
#
# Coordination Sequence:
#
# PCOD9281567 Si02
#       5
#     8   8   8   8   8
#     4  10  21  38  64  92 130 168 214 266 315 383
#     4  11  22  42  67 100 125 172 226 258 313 408
#     4  10  21  38  62  97 128 165 219 260 325 384
#     4  11  22  40  64  98 130 168 212 270 327 377
#     4  12  21  40  71  91 129 177 213 268 327 383
#
# _framework density 19.902588000000002
#
# number of rings (size 3 to 8) (size 9 to 14) (size 15 to 20)
#    0.000    1.200    8.000    1.800    0.000    0.000 
#    0.000    0.000    8.800    6.000    0.000    0.000 
#    0.000    0.000    0.000    0.000    0.000    0.000 
#
# Total GULP energy -111375.796413 kJ/mol
# GULP energy per Si atom -5568.789821 kJ/mol
# Density = 1.985729 g / cm^3
# Si number density = 19.902588 Si / 1000 Ang^3
#
#
#
# Elastic Constant Matrix: (Units=GPa)
#
#
# Indices 1 2 3 4 5 6 
#
# 1 91.4173 29.0242 27.3420 0.0000 7.1159 0.0000
# 2 29.0242 94.7475 24.5788 0.0000 16.3258 0.0000
# 3 27.3420 24.5788 85.9351 0.0000 8.2555 0.0000
# 4 0.0000 0.0000 0.0000 36.8619 0.0000 1.0114
# 5 7.1159 16.3258 8.2555 0.0000 31.4711 0.0000
# 6 0.0000 0.0000 0.0000 1.0114 0.0000 31.7163
#
#
#
# Elastic Compliance Matrix: (Units=1/GPa)
#
#
# Indices 1 2 3 4 5 6 
#
# 1 0.012895 -0.003037 -0.003186 0.000000 -0.000505 0.000000
# 2 -0.003037 0.013006 -0.002228 0.000000 -0.005476 0.000000
# 3 -0.003186 -0.002228 0.013446 0.000000 -0.001651 0.000000
# 4 0.000000 0.000000 0.000000 0.027152 0.000000 -0.000866
# 5 -0.000505 -0.005476 -0.001651 0.000000 0.035163 0.000000
# 6 0.000000 0.000000 0.000000 -0.000866 0.000000 0.031557
#
#
# Mechanical properties :
#
#
# Convention : Reuss Voigt Hill
#
# Bulk Modulus (GPa) = 44.54986 48.22113 46.38550
# Shear Modulus (GPa) = 31.72541 32.75352 32.23947
#
# Velocity S-wave (km/s) = 3.99687 4.06111 4.02912
# Velocity P-wave (km/s) = 6.61305 6.80231 6.70835
#
# Compressibility (1/GPa) = 0.02244676
#
# Stress axis : x y z
#
# Youngs Moduli (GPa) = 77.54866 76.88709 74.37108
#
# Poissons Ratio (x) = 0.23349 0.23693
# Poissons Ratio (y) = 0.23550 0.16567
# Poissons Ratio (z) = 0.24705 0.17128
#
# Static dielectric constant tensor:
#      x y z
#    x 1.702120 0.000000 0.000090 
#    y 0.000000 1.771380 0.000000 
#    z 0.000090 0.000000 1.749710 
# 
# From -- ./inp_files/151693.got.cif
#   From: 2010.05.17/outbox.cif.g08.bks.cpg/sg15_76_cif.got.tgz:151693.got - 2010.06.03 18:47:42.
