data_PCOD9281251
_publ_section_title
;
Structure prediction by ZEFSAII (Michael W. Deem and Ramdas Pophale) SiO2 
 PCOD9281251
Probable space group: C 2/C
;
_chemical_formula_sum "Si O2"
_cell_formula_units_Z 56
_cell_length_a 21.381416
_cell_length_b 15.160771
_cell_length_c 9.396392
_cell_angle_alpha 90.000000
_cell_angle_beta 75.009263
_cell_angle_gamma 90.000000
_cell_volume 2942.262814
_symmetry_space_group_name_H-M "C 2/C"
_symmetry_group_IT_number 15
_symmetry_cell_setting 'monoclinic'
loop_
_space_group_symop_operation_xyz
x,y,z
-x,y,1/2-z
-x,-y,-z
x,-y,1/2+z
1/2+x,1/2+y,z
1/2-x,1/2+y,1/2-z
1/2-x,1/2-y,-z
1/2+x,1/2-y,1/2+z
loop_
_atom_site_type_symbol
_atom_site_label
_atom_site_fract_x
_atom_site_fract_y
_atom_site_fract_z
Si Si1 0.657696 0.774252 0.473703
Si Si2 0.740868 0.459974 0.614333
Si Si3 0.680526 0.704121 0.015980
Si Si4 0.794115 0.158935 0.806790
Si Si5 0.931314 0.284780 0.232818
Si Si6 0.954637 0.490722 0.161090
Si Si7 0.322728 0.938835 0.832456
O O1 0.721799 0.799030 0.345222
O O2 0.674082 0.693353 0.566806
O O3 0.597787 0.758336 0.404364
O O4 0.654305 0.858755 0.581118
O O5 0.689463 0.392452 0.580250
O O6 0.713178 0.554079 0.680515
O O7 0.771195 0.417074 0.739327
O O8 0.792235 0.487681 0.458282
O O9 0.623884 0.759038 0.122432
O O10 0.750000 0.750000 0.000000
O O11 0.669918 0.691449 0.854484
O O12 0.941295 0.389587 0.210706
O O13 0.000000 0.248689 0.250000
O O14 0.883965 0.530863 0.204507
O O15 0.000000 0.536317 0.250000
O O16 0.000000 0.500000 0.000000
#
# Coordination Sequence:
#
# PCOD9281251 Si02
#       7
#     8   8   8   8   8   8   8
#     4  10  21  38  60  87 130 160 212 262 329 375
#     4  11  22  36  61  95 128 155 211 271 334 377
#     4  12  22  39  65  92 125 166 220 267 324 381
#     4  10  21  38  60  96 120 165 205 275 327 378
#     4  11  25  41  61  91 129 171 213 265 317 387
#     4  11  22  38  56  82 126 171 209 247 309 389
#     4  11  21  37  59  95 127 165 208 267 324 386
#
# _framework density 19.032969999999999
#
# number of rings (size 3 to 8) (size 9 to 14) (size 15 to 20)
#    0.000    1.143    2.857    5.143    4.000    3.429 
#    0.000    2.143    0.000    3.429    0.000    0.000 
#    0.000    0.000    0.000    0.000    0.000    0.000 
#
# Total GULP energy -156270.853155 kJ/mol
# GULP energy per Si atom -5581.101898 kJ/mol
# Density = 1.898965 g / cm^3
# Si number density = 19.032970 Si / 1000 Ang^3
#
#
#
# Elastic Constant Matrix: (Units=GPa)
#
#
# Indices 1 2 3 4 5 6 
#
# 1 100.2445 23.7895 33.9472 0.0000 5.7037 0.0000
# 2 23.7895 68.8810 35.4758 0.0000 -9.4603 0.0000
# 3 33.9472 35.4758 116.6753 0.0000 -13.6369 0.0000
# 4 0.0000 0.0000 0.0000 26.2522 0.0000 0.0102
# 5 5.7037 -9.4603 -13.6369 0.0000 40.4606 0.0000
# 6 0.0000 0.0000 0.0000 0.0102 0.0000 15.7555
#
#
#
# Elastic Compliance Matrix: (Units=1/GPa)
#
#
# Indices 1 2 3 4 5 6 
#
# 1 0.011884 -0.003064 -0.002921 0.000000 -0.003376 0.000000
# 2 -0.003064 0.018221 -0.004269 0.000000 0.003254 0.000000
# 3 -0.002921 -0.004269 0.011087 0.000000 0.003150 0.000000
# 4 0.000000 0.000000 0.000000 0.038092 0.000000 -0.000025
# 5 -0.003376 0.003254 0.003150 0.000000 0.027014 0.000000
# 6 0.000000 0.000000 0.000000 -0.000025 0.000000 0.063470
#
#
# Mechanical properties :
#
#
# Convention : Reuss Voigt Hill
#
# Bulk Modulus (GPa) = 48.34258 52.46953 50.40605
# Shear Modulus (GPa) = 25.35895 29.33287 27.34591
#
# Velocity S-wave (km/s) = 3.65412 3.93002 3.79458
# Velocity P-wave (km/s) = 6.57708 6.94413 6.76310
#
# Compressibility (1/GPa) = 0.02068570
#
# Stress axis : x y z
#
# Youngs Moduli (GPa) = 84.14782 54.88103 90.19841
#
# Poissons Ratio (x) = 0.16814 0.26344
# Poissons Ratio (y) = 0.25781 0.38502
# Poissons Ratio (z) = 0.24577 0.23426
#
# Static dielectric constant tensor:
#      x y z
#    x 1.680340 0.000000 0.032180 
#    y 0.000000 1.676400 0.000000 
#    z 0.032180 0.000000 1.676670 
# 
# From -- ./inp_files/49042.got.cif
#   From: 2010.05.17/outbox.cif.g08.bks.cpg/sg15_25_cif.got.tgz:49042.got - 2010.06.03 18:47:42.
