data_PCOD9281029
_publ_section_title
;
Structure prediction by ZEFSAII (Michael W. Deem and Ramdas Pophale) SiO2 
 PCOD9281029
Probable space group: C 2/C
;
_chemical_formula_sum "Si O2"
_cell_formula_units_Z 40
_cell_length_a 27.361052
_cell_length_b 8.868443
_cell_length_c 11.803343
_cell_angle_alpha 90.000000
_cell_angle_beta 150.863580
_cell_angle_gamma 90.000000
_cell_volume 1394.494073
_symmetry_space_group_name_H-M "C 2/C"
_symmetry_group_IT_number 15
_symmetry_cell_setting 'monoclinic'
loop_
_space_group_symop_operation_xyz
x,y,z
-x,y,1/2-z
-x,-y,-z
x,-y,1/2+z
1/2+x,1/2+y,z
1/2-x,1/2+y,1/2-z
1/2-x,1/2-y,-z
1/2+x,1/2-y,1/2+z
loop_
_atom_site_type_symbol
_atom_site_label
_atom_site_fract_x
_atom_site_fract_y
_atom_site_fract_z
Si Si1 0.599754 0.299073 0.519478
Si Si2 0.557627 0.372706 0.023834
Si Si3 0.384379 0.930335 0.995586
Si Si4 0.859785 0.711924 0.674439
Si Si5 0.703376 0.661683 0.011746
O O1 0.605583 0.472382 0.574134
O O2 0.588484 0.181946 0.599835
O O3 0.679813 0.257579 0.584059
O O4 0.500000 0.303254 0.250000
O O5 0.595470 0.231799 0.025935
O O6 0.597763 0.370862 0.234535
O O7 0.437480 0.337155 0.781970
O O8 0.282112 0.965618 0.714451
O O9 0.500000 0.987948 0.250000
O O10 0.350594 0.909898 0.058151
O O11 0.750000 0.750000 0.500000
O O12 0.750000 0.750000 0.000000
#
# Coordination Sequence:
#
# PCOD9281029 Si02
#       5
#     8   8   8   8   8
#     4  12  22  35  59  91 126 156 204 272 322 362
#     4  10  22  36  59  87 126 156 203 267 320 365
#     4   9  19  36  56  82 117 163 207 254 312 377
#     4  11  20  33  53  86 121 158 201 245 312 382
#     4  10  21  38  56  87 123 166 207 259 318 380
#
# _framework density 28.684239000000002
#
# number of rings (size 3 to 8) (size 9 to 14) (size 15 to 20)
#    0.000    1.600    4.000    2.400    2.800    0.000 
#    0.000    0.000    0.000    1.200    0.000    0.000 
#    0.000    0.000    0.000    0.000    0.000    0.000 
#
# Total GULP energy -111380.118070 kJ/mol
# GULP energy per Si atom -5569.005904 kJ/mol
# Density = 2.861895 g / cm^3
# Si number density = 28.684239 Si / 1000 Ang^3
#
#
#
# Elastic Constant Matrix: (Units=GPa)
#
#
# Indices 1 2 3 4 5 6 
#
# 1 177.9428 18.5880 29.7831 0.0000 -1.0509 0.0000
# 2 18.5880 61.2893 -6.9632 0.0000 -4.9469 0.0000
# 3 29.7831 -6.9632 210.4725 0.0000 -17.3942 0.0000
# 4 0.0000 0.0000 0.0000 15.0682 0.0000 -1.6692
# 5 -1.0509 -4.9469 -17.3942 0.0000 81.7801 0.0000
# 6 0.0000 0.0000 0.0000 -1.6692 0.0000 30.0153
#
#
#
# Elastic Compliance Matrix: (Units=1/GPa)
#
#
# Indices 1 2 3 4 5 6 
#
# 1 0.005976 -0.001937 -0.000929 0.000000 -0.000238 0.000000
# 2 -0.001937 0.017108 0.000940 0.000000 0.001210 0.000000
# 3 -0.000929 0.000940 0.005006 0.000000 0.001110 0.000000
# 4 0.000000 0.000000 0.000000 0.066777 0.000000 0.003714
# 5 -0.000238 0.001210 0.001110 0.000000 0.012534 0.000000
# 6 0.000000 0.000000 0.000000 0.003714 0.000000 0.033523
#
#
# Mechanical properties :
#
#
# Convention : Reuss Voigt Hill
#
# Bulk Modulus (GPa) = 41.25983 59.16893 50.21438
# Shear Modulus (GPa) = 32.71061 52.59249 42.65155
#
# Velocity S-wave (km/s) = 3.38060 4.28658 3.86026
# Velocity P-wave (km/s) = 5.44548 6.72102 6.11660
#
# Compressibility (1/GPa) = 0.02423665
#
# Stress axis : x y z
#
# Youngs Moduli (GPa) = 167.32706 58.45192 199.77862
#
# Poissons Ratio (x) = 0.11324 0.18569
# Poissons Ratio (y) = 0.32417 -0.18782
# Poissons Ratio (z) = 0.15552 -0.05495
#
# Static dielectric constant tensor:
#      x y z
#    x 2.296130 0.000000 0.095340 
#    y 0.000000 2.662760 0.000000 
#    z 0.095340 0.000000 2.490750 
# 
# From -- ./inp_files/123200.got.cif
#   From: 2010.05.17/outbox.cif.g08.bks.cpg/sg15_62_cif.got.tgz:123200.got - 2010.06.03 18:47:42.
