data_PCOD9281639
_publ_section_title
;
Structure prediction by ZEFSAII (Michael W. Deem and Ramdas Pophale) SiO2 
 PCOD9281639
Probable space group: C 2/C
;
_chemical_formula_sum "Si O2"
_cell_formula_units_Z 48
_cell_length_a 15.155817
_cell_length_b 11.165506
_cell_length_c 24.236108
_cell_angle_alpha 90.000000
_cell_angle_beta 142.984244
_cell_angle_gamma 90.000000
_cell_volume 2469.119489
_symmetry_space_group_name_H-M "C 2/C"
_symmetry_group_IT_number 15
_symmetry_cell_setting 'monoclinic'
loop_
_space_group_symop_operation_xyz
x,y,z
-x,y,1/2-z
-x,-y,-z
x,-y,1/2+z
1/2+x,1/2+y,z
1/2-x,1/2+y,1/2-z
1/2-x,1/2-y,-z
1/2+x,1/2-y,1/2+z
loop_
_atom_site_type_symbol
_atom_site_label
_atom_site_fract_x
_atom_site_fract_y
_atom_site_fract_z
Si Si1 0.670038 0.022134 0.347597
Si Si2 0.824681 0.380933 0.529655
Si Si3 0.182012 0.229391 0.153615
Si Si4 0.175432 0.478455 0.088983
Si Si5 0.573736 0.630224 0.531599
Si Si6 0.859003 0.317781 0.848691
O O1 0.500000 0.012813 0.250000
O O2 0.705719 0.054005 0.428432
O O3 0.734480 0.127968 0.340879
O O4 0.754984 0.897891 0.382325
O O5 0.750000 0.250000 0.500000
O O6 0.774122 0.449152 0.448369
O O7 0.002334 0.377648 0.613065
O O8 0.207510 0.358721 0.139537
O O9 0.244557 0.225376 0.246095
O O10 0.010206 0.196601 0.059840
O O11 0.220228 0.594520 0.146872
O O12 0.000000 0.500000 0.000000
O O13 0.500000 0.500000 0.500000
O O14 0.556242 0.713793 0.575805
#
# Coordination Sequence:
#
# PCOD9281639 Si02
#       6
#     8   8   8   8   8   8
#     4  11  22  38  63  95 124 163 207 265 325 375
#     4  11  19  38  63  90 125 161 207 270 318 364
#     4  11  21  38  65  94 125 168 216 258 315 379
#     4  10  21  38  63  92 120 165 213 261 313 367
#     4  10  22  40  60  93 126 165 213 253 318 387
#     4  11  23  39  67  90 127 166 217 261 309 386
#
# _framework density 19.440127
#
# number of rings (size 3 to 8) (size 9 to 14) (size 15 to 20)
#    0.000    1.333    6.667    1.000    4.667    0.000 
#    0.000    0.833    0.000    0.000    0.000    0.000 
#    0.000    0.000    0.000    0.000    0.000    0.000 
#
# Total GULP energy -133686.276684 kJ/mol
# GULP energy per Si atom -5570.261528 kJ/mol
# Density = 1.939588 g / cm^3
# Si number density = 19.440127 Si / 1000 Ang^3
#
#
#
# Elastic Constant Matrix: (Units=GPa)
#
#
# Indices 1 2 3 4 5 6 
#
# 1 45.6854 9.4746 15.7923 0.0000 -12.1534 0.0000
# 2 9.4746 48.7784 30.6015 0.0000 -11.2684 0.0000
# 3 15.7923 30.6015 118.0830 0.0000 -24.3854 0.0000
# 4 0.0000 0.0000 0.0000 24.9960 0.0000 -3.5292
# 5 -12.1534 -11.2684 -24.3854 0.0000 40.3851 0.0000
# 6 0.0000 0.0000 0.0000 -3.5292 0.0000 33.9074
#
#
#
# Elastic Compliance Matrix: (Units=1/GPa)
#
#
# Indices 1 2 3 4 5 6 
#
# 1 0.024444 -0.002518 -0.001419 0.000000 0.005796 0.000000
# 2 -0.002518 0.025163 -0.005588 0.000000 0.002889 0.000000
# 3 -0.001419 -0.005588 0.011078 0.000000 0.004703 0.000000
# 4 0.000000 0.000000 0.000000 0.040603 0.000000 0.004226
# 5 0.005796 0.002889 0.004703 0.000000 0.030152 0.000000
# 6 0.000000 0.000000 0.000000 0.004226 0.000000 0.029932
#
#
# Mechanical properties :
#
#
# Convention : Reuss Voigt Hill
#
# Bulk Modulus (GPa) = 24.01914 36.03153 30.02533
# Shear Modulus (GPa) = 25.73344 30.30292 28.01818
#
# Velocity S-wave (km/s) = 3.64225 3.95242 3.80051
# Velocity P-wave (km/s) = 5.48364 6.27724 5.89381
#
# Compressibility (1/GPa) = 0.04163347
#
# Stress axis : x y z
#
# Youngs Moduli (GPa) = 40.91031 39.74100 90.27193
#
# Poissons Ratio (x) = 0.10008 0.12814
# Poissons Ratio (y) = 0.10303 0.50440
# Poissons Ratio (z) = 0.05807 0.22206
#
# Static dielectric constant tensor:
#      x y z
#    x 1.707360 0.000000 0.024020 
#    y 0.000000 1.749120 0.000000 
#    z 0.024020 0.000000 1.699130 
# 
# From -- ./inp_files/298799.got.cif
#   From: 2010.05.17/outbox.cif.g08.bks.cpg/sg15_150_cif.got.tgz:298799.got - 2010.06.03 18:47:42.
