data_PCOD9281467
_publ_section_title
;
Structure prediction by ZEFSAII (Michael W. Deem and Ramdas Pophale) SiO2 
 PCOD9281467
Probable space group: C 2/C
;
_chemical_formula_sum "Si O2"
_cell_formula_units_Z 56
_cell_length_a 9.099271
_cell_length_b 24.161896
_cell_length_c 20.757712
_cell_angle_alpha 90.000000
_cell_angle_beta 139.824695
_cell_angle_gamma 90.000000
_cell_volume 2944.172623
_symmetry_space_group_name_H-M "C 2/C"
_symmetry_group_IT_number 15
_symmetry_cell_setting 'monoclinic'
loop_
_space_group_symop_operation_xyz
x,y,z
-x,y,1/2-z
-x,-y,-z
x,-y,1/2+z
1/2+x,1/2+y,z
1/2-x,1/2+y,1/2-z
1/2-x,1/2-y,-z
1/2+x,1/2-y,1/2+z
loop_
_atom_site_type_symbol
_atom_site_label
_atom_site_fract_x
_atom_site_fract_y
_atom_site_fract_z
Si Si1 0.972969 0.636830 0.594572
Si Si2 0.007012 0.222263 0.905762
Si Si3 0.734145 0.746534 0.789698
Si Si4 0.624968 0.968251 0.357660
Si Si5 0.644203 0.564623 0.998335
Si Si6 0.637397 0.615699 0.863384
Si Si7 0.483089 0.666656 0.462842
O O1 0.000642 0.584635 0.652293
O O2 0.702333 0.643055 0.499771
O O3 0.095540 0.694032 0.656707
O O4 0.104214 0.624804 0.572666
O O5 0.042890 0.168285 0.872327
O O6 0.843421 0.260461 0.808614
O O7 0.250000 0.250000 0.000000
O O8 0.917331 0.203377 0.944755
O O9 0.500000 0.733152 0.750000
O O10 0.844987 0.795237 0.868000
O O11 0.500000 0.983194 0.250000
O O12 0.884891 0.951642 0.428764
O O13 0.665254 0.020723 0.416997
O O14 0.666625 0.620810 0.049027
O O15 0.639891 0.570412 0.919934
O O16 0.500000 0.606484 0.750000
#
# Coordination Sequence:
#
# PCOD9281467 Si02
#       7
#     8   8   8   8   8   8   8
#     4  11  21  35  59  87 120 150 197 249 296 351
#     4  11  20  35  56  84 114 156 199 237 286 368
#     4  12  21  36  58  88 119 156 195 241 303 357
#     4  10  21  38  62  88 116 149 203 250 297 355
#     4   9  22  40  58  87 116 157 199 247 297 359
#     4  11  19  36  60  84 118 153 196 245 298 355
#     4  10  23  37  58  85 121 157 196 246 296 357
#
# _framework density 19.020624999999999
#
# number of rings (size 3 to 8) (size 9 to 14) (size 15 to 20)
#    0.000    1.429    4.286    1.286    4.000    1.143 
#    0.000    0.000    0.000    0.000    3.714    0.000 
#    0.000    0.000    0.000    0.000    0.000    0.000 
#
# Total GULP energy -155980.021899 kJ/mol
# GULP energy per Si atom -5570.715068 kJ/mol
# Density = 1.897733 g / cm^3
# Si number density = 19.020625 Si / 1000 Ang^3
#
#
#
# Elastic Constant Matrix: (Units=GPa)
#
#
# Indices 1 2 3 4 5 6 
#
# 1 70.2013 12.9640 16.8627 -0.0001 -3.1642 0.0000
# 2 12.9640 71.6594 64.4807 -0.0001 -10.4861 -0.0001
# 3 16.8627 64.4807 116.8792 -0.0004 -27.8288 -0.0002
# 4 -0.0001 -0.0001 -0.0004 9.0867 -0.0002 -19.3809
# 5 -3.1642 -10.4861 -27.8288 -0.0002 26.0336 -0.0001
# 6 0.0000 -0.0001 -0.0002 -19.3809 -0.0001 12.5004
#
#
#
# Elastic Compliance Matrix: (Units=1/GPa)
#
#
# Indices 1 2 3 4 5 6 
#
# 1 0.014839 -0.001467 -0.001399 0.000000 -0.000283 0.000000
# 2 -0.001467 0.028826 -0.017397 0.000000 -0.007164 0.000000
# 3 -0.001399 -0.017397 0.022330 -0.000001 0.016692 -0.000001
# 4 0.000000 0.000000 -0.000001 -0.047706 -0.000001 -0.073964
# 5 -0.000283 -0.007164 0.016692 -0.000001 0.053335 -0.000001
# 6 0.000000 0.000000 -0.000001 -0.073964 -0.000001 -0.034678
#
#
# Mechanical properties :
#
#
# Convention : Reuss Voigt Hill
#
# Bulk Modulus (GPa) = 39.26380 49.70607 44.48493
# Shear Modulus (GPa) = 58.16492 20.48632 39.32562
#
# Velocity S-wave (km/s) = 5.53591 3.28542 4.55194
# Velocity P-wave (km/s) = 7.84534 6.37035 7.14600
#
# Compressibility (1/GPa) = 0.02546875
#
# Stress axis : x y z
#
# Youngs Moduli (GPa) = 67.39018 34.69037 44.78311
#
# Poissons Ratio (x) = 0.05090 0.06263
# Poissons Ratio (y) = 0.09889 0.77910
# Poissons Ratio (z) = 0.09425 0.60352
#
# Static dielectric constant tensor:
#      x y z
#    x 1.674430 0.000000 -0.009440 
#    y 0.000000 1.758380 0.000000 
#    z -0.009440 0.000000 1.678710 
# 
# From -- ./inp_files/193883.got.cif
#   From: 2010.05.17/outbox.cif.g08.bks.cpg/sg15_97_cif.got.tgz:193883.got - 2010.06.03 18:47:42.
