data_PCOD9281536
_publ_section_title
;
Structure prediction by ZEFSAII (Michael W. Deem and Ramdas Pophale) SiO2 
 PCOD9281536
Probable space group: C 2/C
;
_chemical_formula_sum "Si O2"
_cell_formula_units_Z 56
_cell_length_a 21.601442
_cell_length_b 12.012041
_cell_length_c 11.389523
_cell_angle_alpha 90.000000
_cell_angle_beta 75.250423
_cell_angle_gamma 90.000000
_cell_volume 2857.939525
_symmetry_space_group_name_H-M "C 2/C"
_symmetry_group_IT_number 15
_symmetry_cell_setting 'monoclinic'
loop_
_space_group_symop_operation_xyz
x,y,z
-x,y,1/2-z
-x,-y,-z
x,-y,1/2+z
1/2+x,1/2+y,z
1/2-x,1/2+y,1/2-z
1/2-x,1/2-y,-z
1/2+x,1/2-y,1/2+z
loop_
_atom_site_type_symbol
_atom_site_label
_atom_site_fract_x
_atom_site_fract_y
_atom_site_fract_z
Si Si1 0.327594 0.553829 0.947091
Si Si2 0.226870 0.833074 0.408721
Si Si3 0.498397 0.800733 0.618324
Si Si4 0.856441 0.297579 0.962320
Si Si5 0.360149 0.164761 0.180639
Si Si6 0.779550 0.555780 0.673207
Si Si7 0.480110 0.456916 0.382135
O O1 0.321935 0.678833 0.001848
O O2 0.293527 0.545537 0.836595
O O3 0.403723 0.543342 0.909208
O O4 0.296309 0.452632 0.033090
O O5 0.250000 0.750000 0.500000
O O6 0.169916 0.768488 0.372207
O O7 0.279850 0.862551 0.284825
O O8 0.500000 0.847764 0.750000
O O9 0.569548 0.809422 0.530388
O O10 0.433002 0.851041 0.599169
O O11 0.489948 0.667414 0.634084
O O12 0.860485 0.309378 0.819609
O O13 0.815472 0.390543 0.045441
O O14 0.314197 0.059499 0.184009
O O15 0.500000 0.514853 0.250000
O O16 0.500000 0.500000 0.500000
#
# Coordination Sequence:
#
# PCOD9281536 Si02
#       7
#     8   8   8   8   8   8   8
#     4  11  23  39  66  93 125 167 217 262 323 390
#     4  12  26  41  61  95 133 169 208 268 335 385
#     4   8  18  38  65  87 116 164 213 263 312 382
#     4  10  22  43  65  95 120 166 226 258 314 395
#     4  11  22  41  66  90 131 166 212 264 326 386
#     4  12  25  39  66  94 128 172 210 269 321 392
#     4  10  21  38  62  93 124 164 216 267 325 386
#
# _framework density 19.594538
#
# number of rings (size 3 to 8) (size 9 to 14) (size 15 to 20)
#    0.000    1.429    2.857    3.000    4.000    0.571 
#    2.571    0.000    0.000    0.000    0.000    0.000 
#    0.000    0.000    0.000    0.000    0.000    0.000 
#
# Total GULP energy -156068.558308 kJ/mol
# GULP energy per Si atom -5573.877082 kJ/mol
# Density = 1.954994 g / cm^3
# Si number density = 19.594538 Si / 1000 Ang^3
#
#
#
# Elastic Constant Matrix: (Units=GPa)
#
#
# Indices 1 2 3 4 5 6 
#
# 1 118.2514 43.1139 27.9404 0.0000 6.7944 0.0000
# 2 43.1139 67.8852 12.9842 0.0000 5.6430 0.0000
# 3 27.9404 12.9842 70.8416 0.0000 14.7673 0.0000
# 4 0.0000 0.0000 0.0000 33.2603 0.0000 0.6955
# 5 6.7944 5.6430 14.7673 0.0000 17.7955 0.0000
# 6 0.0000 0.0000 0.0000 0.6955 0.0000 8.4646
#
#
#
# Elastic Compliance Matrix: (Units=1/GPa)
#
#
# Indices 1 2 3 4 5 6 
#
# 1 0.011743 -0.006837 -0.003501 0.000000 0.000590 0.000000
# 2 -0.006837 0.019385 -0.000144 0.000000 -0.003417 0.000000
# 3 -0.003501 -0.000144 0.018422 0.000000 -0.013905 0.000000
# 4 0.000000 0.000000 0.000000 0.030118 0.000000 -0.002475
# 5 0.000590 -0.003417 -0.013905 0.000000 0.068590 0.000000
# 6 0.000000 0.000000 0.000000 -0.002475 0.000000 0.118343
#
#
# Mechanical properties :
#
#
# Convention : Reuss Voigt Hill
#
# Bulk Modulus (GPa) = 34.98430 47.22836 41.10633
# Shear Modulus (GPa) = 16.82974 23.43339 20.13156
#
# Velocity S-wave (km/s) = 2.93388 3.46195 3.20880
# Velocity P-wave (km/s) = 5.41938 6.33524 5.89513
#
# Compressibility (1/GPa) = 0.02858425
#
# Stress axis : x y z
#
# Youngs Moduli (GPa) = 85.15888 51.58719 54.28357
#
# Poissons Ratio (x) = 0.35271 0.19006
# Poissons Ratio (y) = 0.58225 0.00782
# Poissons Ratio (z) = 0.29817 0.00743
#
# Static dielectric constant tensor:
#      x y z
#    x 1.730890 0.000000 -0.008720 
#    y 0.000000 1.689970 0.000000 
#    z -0.008720 0.000000 1.742070 
# 
# From -- ./inp_files/111573.got.cif
#   From: 2010.05.17/outbox.cif.g08.bks.cpg/sg15_56_cif.got.tgz:111573.got - 2010.06.03 18:47:42.
