data_PCOD9281730
_publ_section_title
;
Structure prediction by ZEFSAII (Michael W. Deem and Ramdas Pophale) SiO2 
 PCOD9281730
Probable space group: C 2/C
;
_chemical_formula_sum "Si O2"
_cell_formula_units_Z 64
_cell_length_a 10.477960
_cell_length_b 28.547951
_cell_length_c 10.451353
_cell_angle_alpha 90.000000
_cell_angle_beta 82.788648
_cell_angle_gamma 90.000000
_cell_volume 3101.524396
_symmetry_space_group_name_H-M "C 2/C"
_symmetry_group_IT_number 15
_symmetry_cell_setting 'monoclinic'
loop_
_space_group_symop_operation_xyz
x,y,z
-x,y,1/2-z
-x,-y,-z
x,-y,1/2+z
1/2+x,1/2+y,z
1/2-x,1/2+y,1/2-z
1/2-x,1/2-y,-z
1/2+x,1/2-y,1/2+z
loop_
_atom_site_type_symbol
_atom_site_label
_atom_site_fract_x
_atom_site_fract_y
_atom_site_fract_z
Si Si1 0.672865 0.181472 0.501125
Si Si2 0.212158 0.020912 0.767057
Si Si3 0.355844 0.983710 0.506303
Si Si4 0.122628 0.603466 0.321887
Si Si5 0.452936 0.277113 0.900434
Si Si6 0.579315 0.649750 0.552076
Si Si7 0.890700 0.077317 0.165434
Si Si8 0.307591 0.631708 0.711539
O O1 0.610696 0.152698 0.393281
O O2 0.584734 0.225977 0.542839
O O3 0.815878 0.195948 0.433708
O O4 0.699882 0.151322 0.627991
O O5 0.178711 0.075336 0.784390
O O6 0.263187 0.011246 0.617235
O O7 0.114642 0.979243 0.820505
O O8 0.318784 0.013266 0.863501
O O9 0.354609 0.931837 0.563261
O O10 0.500000 0.000000 0.500000
O O11 0.251930 0.596964 0.224041
O O12 0.000000 0.592101 0.250000
O O13 0.500000 0.274134 0.750000
O O14 0.563896 0.305852 0.961367
O O15 0.582528 0.601088 0.473023
O O16 0.442050 0.649719 0.639111
O O17 0.693025 0.649950 0.642095
O O18 0.000000 0.094066 0.250000
#
# Coordination Sequence:
#
# PCOD9281730 Si02
#       8
#     8   8   8   8   8   8   8   8
#     4  10  21  43  65  91 129 166 215 283 332 401
#     4  11  23  37  61  93 132 169 228 267 324 395
#     4  11  22  41  60  87 127 184 218 265 322 389
#     4  11  23  43  65  93 129 172 225 268 330 398
#     4  10  21  42  68  93 123 168 219 273 347 401
#     4  10  21  38  64  88 131 166 212 268 337 394
#     4  11  23  38  66  98 130 180 222 269 328 398
#     4  10  21  39  59  95 131 169 204 277 338 387
#
# _framework density 20.635014000000002
#
# number of rings (size 3 to 8) (size 9 to 14) (size 15 to 20)
#    0.000    1.500    1.250    5.250    3.500    0.500 
#   11.250    0.625    0.000    0.000    0.000    0.000 
#    0.000    0.000    0.000    0.000    0.000    0.000 
#
# Total GULP energy -178496.140127 kJ/mol
# GULP energy per Si atom -5578.004379 kJ/mol
# Density = 2.058805 g / cm^3
# Si number density = 20.635014 Si / 1000 Ang^3
#
#
#
# Elastic Constant Matrix: (Units=GPa)
#
#
# Indices 1 2 3 4 5 6 
#
# 1 44.6965 -7.4534 4.2136 0.0000 16.4258 0.0000
# 2 -7.4534 73.3720 7.4534 0.0000 -3.2472 0.0000
# 3 4.2136 7.4534 33.7727 0.0000 0.6614 0.0000
# 4 0.0000 0.0000 0.0000 21.1971 0.0000 1.4264
# 5 16.4258 -3.2472 0.6614 0.0000 26.9595 0.0000
# 6 0.0000 0.0000 0.0000 1.4264 0.0000 -41.8319
#
#
#
# Elastic Compliance Matrix: (Units=1/GPa)
#
#
# Indices 1 2 3 4 5 6 
#
# 1 0.029676 0.002633 -0.003937 0.000000 -0.017667 0.000000
# 2 0.002633 0.014259 -0.003479 0.000000 0.000199 0.000000
# 3 -0.003937 -0.003479 0.030845 0.000000 0.001223 0.000000
# 4 0.000000 0.000000 0.000000 0.047068 0.000000 0.001605
# 5 -0.017667 0.000199 0.001223 0.000000 0.047851 0.000000
# 6 0.000000 0.000000 0.000000 0.001605 0.000000 -0.023850
#
#
# Mechanical properties :
#
#
# Convention : Reuss Voigt Hill
#
# Bulk Modulus (GPa) = 15.33469 17.80761 16.57115
# Shear Modulus (GPa) = 28.22416 11.10680 19.66548
#
# Velocity S-wave (km/s) = 3.70236 2.32254 3.09044
# Velocity P-wave (km/s) = 5.07190 3.98005 4.55878
#
# Compressibility (1/GPa) = 0.06521161
#
# Stress axis : x y z
#
# Youngs Moduli (GPa) = 33.69733 70.13199 32.42038
#
# Poissons Ratio (x) = -0.18463 0.12765
# Poissons Ratio (y) = -0.08871 0.11280
# Poissons Ratio (z) = 0.13268 0.24400
#
# Static dielectric constant tensor:
#      x y z
#    x 1.735160 0.000000 0.025110 
#    y 0.000000 1.729860 0.000000 
#    z 0.025110 0.000000 1.769990 
# 
# From -- ./inp_files/35673.got.cif
#   From: 2010.05.17/outbox.cif.g08.bks.cpg/sg15_18_cif.got.tgz:35673.got - 2010.06.03 18:47:42.
