data_PCOD9281058
_publ_section_title
;
Structure prediction by ZEFSAII (Michael W. Deem and Ramdas Pophale) SiO2 
 PCOD9281058
Probable space group: C 2/C
;
_chemical_formula_sum "Si O2"
_cell_formula_units_Z 56
_cell_length_a 27.530220
_cell_length_b 4.992185
_cell_length_c 24.296511
_cell_angle_alpha 90.000000
_cell_angle_beta 135.024255
_cell_angle_gamma 90.000000
_cell_volume 2360.181167
_symmetry_space_group_name_H-M "C 2/C"
_symmetry_group_IT_number 15
_symmetry_cell_setting 'monoclinic'
loop_
_space_group_symop_operation_xyz
x,y,z
-x,y,1/2-z
-x,-y,-z
x,-y,1/2+z
1/2+x,1/2+y,z
1/2-x,1/2+y,1/2-z
1/2-x,1/2-y,-z
1/2+x,1/2-y,1/2+z
loop_
_atom_site_type_symbol
_atom_site_label
_atom_site_fract_x
_atom_site_fract_y
_atom_site_fract_z
Si Si1 0.282779 0.193181 0.345274
Si Si2 0.461766 0.215916 0.930479
Si Si3 0.099978 0.959447 0.523730
Si Si4 0.924518 0.087733 0.614463
Si Si5 0.917663 0.407760 0.175402
Si Si6 0.420680 0.403053 0.784343
Si Si7 0.194897 0.700938 0.267069
O O1 0.345866 0.302721 0.430892
O O2 0.219992 0.403611 0.301588
O O3 0.305780 0.210555 0.299889
O O4 0.256091 0.898568 0.336102
O O5 0.397532 0.298076 0.917179
O O6 0.434109 0.195258 0.846033
O O7 0.522343 0.428213 0.966985
O O8 0.500000 0.000000 0.000000
O O9 0.101391 0.819582 0.466010
O O10 0.899410 0.793767 0.611308
O O11 0.007249 0.044695 0.676238
O O12 0.901832 0.294175 0.643225
O O13 0.892438 0.270280 0.210871
O O14 0.000000 0.408546 0.250000
O O15 0.371909 0.644284 0.764641
#
# Coordination Sequence:
#
# PCOD9281058 Si02
#       7
#     8   8   8   8   8   8   8
#     4  10  22  38  58  86 122 162 206 244 296 368
#     4  10  22  36  59  97 122 161 196 248 328 378
#     4  10  22  38  57  88 128 158 199 252 310 375
#     4  10  23  37  61  89 119 158 197 247 309 359
#     4  10  21  38  57  88 118 157 201 244 302 356
#     4  10  21  41  62  91 128 159 203 260 300 375
#     4  10  22  38  59  87 118 165 205 246 299 355
#
# _framework density 23.726990000000001
#
# number of rings (size 3 to 8) (size 9 to 14) (size 15 to 20)
#    0.000    2.000    1.429    1.286    8.000    4.571 
#    2.571    0.000    0.000    5.143    0.000    0.000 
#    0.000    0.000    0.000    0.000    0.000    0.000 
#
# Total GULP energy -156380.948689 kJ/mol
# GULP energy per Si atom -5585.033882 kJ/mol
# Density = 2.367299 g / cm^3
# Si number density = 23.726990 Si / 1000 Ang^3
#
#
#
# Elastic Constant Matrix: (Units=GPa)
#
#
# Indices 1 2 3 4 5 6 
#
# 1 68.6188 13.6229 31.7664 -0.0037 -17.3821 -0.0113
# 2 13.6229 89.2254 8.1837 0.0019 -11.8982 -0.0545
# 3 31.7664 8.1837 65.5661 -0.0164 -17.8486 -0.0110
# 4 -0.0037 0.0019 -0.0164 33.0894 0.0041 1.9916
# 5 -17.3821 -11.8982 -17.8486 0.0041 33.5082 0.0031
# 6 -0.0113 -0.0545 -0.0110 1.9916 0.0031 21.6953
#
#
#
# Elastic Compliance Matrix: (Units=1/GPa)
#
#
# Indices 1 2 3 4 5 6 
#
# 1 0.019986 -0.001579 -0.007972 -0.000002 0.005560 0.000002
# 2 -0.001579 0.011898 0.000242 -0.000003 0.003535 0.000029
# 3 -0.007972 0.000242 0.021031 0.000008 0.007153 0.000005
# 4 -0.000002 -0.000003 0.000008 0.030389 -0.000001 -0.002790
# 5 0.005560 0.003535 0.007153 -0.000001 0.037793 0.000010
# 6 0.000002 0.000029 0.000005 -0.002790 0.000010 0.046349
#
#
# Mechanical properties :
#
#
# Convention : Reuss Voigt Hill
#
# Bulk Modulus (GPa) = 29.15705 36.72847 32.94276
# Shear Modulus (GPa) = 25.31690 28.98108 27.14899
#
# Velocity S-wave (km/s) = 3.27005 3.49870 3.38631
# Velocity P-wave (km/s) = 5.15489 5.64220 5.40404
#
# Compressibility (1/GPa) = 0.03429702
#
# Stress axis : x y z
#
# Youngs Moduli (GPa) = 50.03523 84.04936 47.54810
#
# Poissons Ratio (x) = 0.13269 0.37907
# Poissons Ratio (y) = 0.07899 -0.01151
# Poissons Ratio (z) = 0.39890 -0.02035
#
# Static dielectric constant tensor:
#      x y z
#    x 1.924560 0.000000 -0.005320 
#    y 0.000000 1.997870 -0.000020 
#    z -0.005320 -0.000020 1.959530 
# 
# From -- ./inp_files/283021.got.cif
#   From: 2010.05.17/outbox.cif.g08.bks.cpg/sg15_142_cif.got.tgz:283021.got - 2010.06.03 18:47:42.
