data_PCOD9281174
_publ_section_title
;
Structure prediction by ZEFSAII (Michael W. Deem and Ramdas Pophale) SiO2 
 PCOD9281174
Probable space group: C 2/C
;
_chemical_formula_sum "Si O2"
_cell_formula_units_Z 52
_cell_length_a 8.580208
_cell_length_b 28.173443
_cell_length_c 12.929637
_cell_angle_alpha 90.000000
_cell_angle_beta 122.625801
_cell_angle_gamma 90.000000
_cell_volume 2632.354101
_symmetry_space_group_name_H-M "C 2/C"
_symmetry_group_IT_number 15
_symmetry_cell_setting 'monoclinic'
loop_
_space_group_symop_operation_xyz
x,y,z
-x,y,1/2-z
-x,-y,-z
x,-y,1/2+z
1/2+x,1/2+y,z
1/2-x,1/2+y,1/2-z
1/2-x,1/2-y,-z
1/2+x,1/2-y,1/2+z
loop_
_atom_site_type_symbol
_atom_site_label
_atom_site_fract_x
_atom_site_fract_y
_atom_site_fract_z
Si Si1 0.034550 0.569090 0.644620
Si Si2 0.411355 0.464306 0.321583
Si Si3 0.883007 0.060169 0.040626
Si Si4 0.860437 0.332648 0.400682
Si Si5 0.000000 0.863300 0.750000
Si Si6 0.000000 0.221264 0.750000
Si Si7 0.000000 0.281796 0.250000
Si Si8 0.807559 0.287553 0.850834
O O1 0.194504 0.530417 0.717603
O O2 0.112907 0.611026 0.600544
O O3 0.000000 0.587211 0.750000
O O4 0.837531 0.551847 0.533373
O O5 0.500000 0.442877 0.250000
O O6 0.507653 0.514367 0.379352
O O7 0.427913 0.434617 0.434041
O O8 0.933518 0.104324 0.130711
O O9 0.658107 0.312492 0.356410
O O10 0.905536 0.313128 0.302768
O O11 0.021023 0.309611 0.527032
O O12 0.170261 0.830661 0.772915
O O13 0.895137 0.256269 0.791042
O O14 0.838020 0.248250 0.145908
#
# Coordination Sequence:
#
# PCOD9281174 Si02
#       8
#     8   8   8   8   4   4   4   8
#     4  10  21  38  62  92 119 159 210 247 298 365
#     4  10  22  40  64  92 126 156 202 253 313 361
#     4  10  21  42  64  91 124 161 201 256 302 370
#     4  11  19  37  59  84 119 160 199 253 296 362
#     4  11  20  40  65  88 118 164 215 246 302 365
#     4  10  24  38  53  88 128 156 197 252 314 360
#     4   9  20  34  60  88 110 156 208 244 304 363
#     4  10  21  38  59  86 120 157 203 250 305 362
#
# _framework density 19.754180999999999
#
# number of rings (size 3 to 8) (size 9 to 14) (size 15 to 20)
#    0.000    1.846    3.077    0.923    1.077    0.615 
#    2.769    0.000    5.077    0.000    0.000    0.000 
#    0.000    0.000    0.000    0.000    0.000    0.000 
#
# Total GULP energy -144899.905397 kJ/mol
# GULP energy per Si atom -5573.073284 kJ/mol
# Density = 1.970922 g / cm^3
# Si number density = 19.754181 Si / 1000 Ang^3
#
#
#
# Elastic Constant Matrix: (Units=GPa)
#
#
# Indices 1 2 3 4 5 6 
#
# 1 97.5023 35.9409 46.6153 0.0000 15.7349 0.0000
# 2 35.9409 75.4040 45.8353 0.0000 24.8451 0.0000
# 3 46.6153 45.8353 122.5542 0.0000 37.3104 0.0000
# 4 0.0000 0.0000 0.0000 28.3241 0.0000 12.5514
# 5 15.7349 24.8451 37.3104 0.0000 41.6990 0.0000
# 6 0.0000 0.0000 0.0000 12.5514 0.0000 30.3118
#
#
#
# Elastic Compliance Matrix: (Units=1/GPa)
#
#
# Indices 1 2 3 4 5 6 
#
# 1 0.013557 -0.004478 -0.003761 0.000000 0.000918 0.000000
# 2 -0.004478 0.019878 -0.003628 0.000000 -0.006908 0.000000
# 3 -0.003761 -0.003628 0.013547 0.000000 -0.008541 0.000000
# 4 0.000000 0.000000 0.000000 0.043240 0.000000 -0.017905
# 5 0.000918 -0.006908 -0.008541 0.000000 0.035392 0.000000
# 6 0.000000 0.000000 0.000000 -0.017905 0.000000 0.040404
#
#
# Mechanical properties :
#
#
# Convention : Reuss Voigt Hill
#
# Bulk Modulus (GPa) = 43.01563 61.36040 52.18801
# Shear Modulus (GPa) = 25.31619 31.20490 28.26055
#
# Velocity S-wave (km/s) = 3.58377 3.97881 3.78645
# Velocity P-wave (km/s) = 6.24078 7.22754 6.75221
#
# Compressibility (1/GPa) = 0.02324737
#
# Stress axis : x y z
#
# Youngs Moduli (GPa) = 73.76304 50.30785 73.81546
#
# Poissons Ratio (x) = 0.22527 0.27764
# Poissons Ratio (y) = 0.33030 0.26781
# Poissons Ratio (z) = 0.27744 0.18252
#
# Static dielectric constant tensor:
#      x y z
#    x 1.711320 0.000000 0.000490 
#    y 0.000000 1.700650 0.000000 
#    z 0.000490 0.000000 1.698780 
# 
# From -- ./inp_files/80721.got.cif
#   From: 2010.05.17/outbox.cif.g08.bks.cpg/sg15_41_cif.got.tgz:80721.got - 2010.06.03 18:47:42.
