data_PCOD9281030
_publ_section_title
;
Structure prediction by ZEFSAII (Michael W. Deem and Ramdas Pophale) SiO2 
 PCOD9281030
Probable space group: C 2/C
;
_chemical_formula_sum "Si O2"
_cell_formula_units_Z 40
_cell_length_a 12.856021
_cell_length_b 16.159610
_cell_length_c 10.045328
_cell_angle_alpha 90.000000
_cell_angle_beta 116.459174
_cell_angle_gamma 90.000000
_cell_volume 1868.301253
_symmetry_space_group_name_H-M "C 2/C"
_symmetry_group_IT_number 15
_symmetry_cell_setting 'monoclinic'
loop_
_space_group_symop_operation_xyz
x,y,z
-x,y,1/2-z
-x,-y,-z
x,-y,1/2+z
1/2+x,1/2+y,z
1/2-x,1/2+y,1/2-z
1/2-x,1/2-y,-z
1/2+x,1/2-y,1/2+z
loop_
_atom_site_type_symbol
_atom_site_label
_atom_site_fract_x
_atom_site_fract_y
_atom_site_fract_z
Si Si1 0.225780 0.815379 0.371859
Si Si2 0.045269 0.413140 0.089211
Si Si3 0.397863 0.172554 0.302805
Si Si4 0.870457 0.018774 0.684971
Si Si5 0.782000 0.500628 0.146002
O O1 0.250000 0.750000 0.500000
O O2 0.340878 0.868156 0.408974
O O3 0.178199 0.755367 0.230092
O O4 0.130753 0.884015 0.354203
O O5 0.108037 0.441143 0.262708
O O6 0.000000 0.500000 0.000000
O O7 0.947102 0.351946 0.976120
O O8 0.500000 0.186754 0.250000
O O9 0.328334 0.093474 0.202222
O O10 0.776157 0.982923 0.528377
O O11 0.000000 0.984624 0.750000
O O12 0.818541 0.012703 0.802434
#
# Coordination Sequence:
#
# PCOD9281030 Si02
#       5
#     8   8   8   8   8
#     4  11  19  32  57  95 124 153 215 283 318 371
#     4   9  20  34  52  83 129 172 196 251 335 392
#     4  11  18  32  58  89 126 160 207 273 327 362
#     4  11  22  37  59  89 126 166 211 268 337 381
#     4  10  21  38  56  87 128 168 217 261 320 410
#
# _framework density 21.409822999999999
#
# number of rings (size 3 to 8) (size 9 to 14) (size 15 to 20)
#    0.000    1.600    4.000    2.400    0.000    0.000 
#    0.000    0.000    0.000    4.800    0.000   23.800 
#    0.000    0.000    0.000    0.000    0.000    0.000 
#
# Total GULP energy -111354.770214 kJ/mol
# GULP energy per Si atom -5567.738511 kJ/mol
# Density = 2.136109 g / cm^3
# Si number density = 21.409823 Si / 1000 Ang^3
#
#
#
# Elastic Constant Matrix: (Units=GPa)
#
#
# Indices 1 2 3 4 5 6 
#
# 1 85.9478 17.7139 2.7753 0.0000 20.0956 0.0000
# 2 17.7139 65.1742 24.8750 0.0000 15.0389 0.0000
# 3 2.7753 24.8750 108.8138 0.0000 30.3053 0.0000
# 4 0.0000 0.0000 0.0000 42.1047 0.0000 8.9822
# 5 20.0956 15.0389 30.3053 0.0000 34.8367 0.0000
# 6 0.0000 0.0000 0.0000 8.9822 0.0000 30.6858
#
#
#
# Elastic Compliance Matrix: (Units=1/GPa)
#
#
# Indices 1 2 3 4 5 6 
#
# 1 0.014377 -0.002811 0.002966 0.000000 -0.009661 0.000000
# 2 -0.002811 0.018095 -0.003089 0.000000 -0.003503 0.000000
# 3 0.002966 -0.003089 0.013099 0.000000 -0.011773 0.000000
# 4 0.000000 0.000000 0.000000 0.025332 0.000000 -0.007415
# 5 -0.009661 -0.003503 -0.011773 0.000000 0.046032 0.000000
# 6 0.000000 0.000000 0.000000 -0.007415 0.000000 0.034759
#
#
# Mechanical properties :
#
#
# Convention : Reuss Voigt Hill
#
# Bulk Modulus (GPa) = 25.18608 38.96268 32.07438
# Shear Modulus (GPa) = 29.27465 35.83022 32.55244
#
# Velocity S-wave (km/s) = 3.70178 4.09533 3.90352
# Velocity P-wave (km/s) = 5.48272 6.37184 5.94393
#
# Compressibility (1/GPa) = 0.03970447
#
# Stress axis : x y z
#
# Youngs Moduli (GPa) = 69.55437 55.26470 76.33920
#
# Poissons Ratio (x) = 0.15533 -0.22645
# Poissons Ratio (y) = 0.19549 0.23583
# Poissons Ratio (z) = -0.20633 0.17073
#
# Static dielectric constant tensor:
#      x y z
#    x 1.832150 0.000000 -0.014600 
#    y 0.000000 1.795600 0.000000 
#    z -0.014600 0.000000 1.899150 
# 
# From -- ./inp_files/95807.got.cif
#   From: 2010.05.17/outbox.cif.g08.bks.cpg/sg15_48_cif.got.tgz:95807.got - 2010.06.03 18:47:42.
