data_PCOD9281253
_publ_section_title
;
Structure prediction by ZEFSAII (Michael W. Deem and Ramdas Pophale) SiO2 
 PCOD9281253
Probable space group: C 2/C
;
_chemical_formula_sum "Si O2"
_cell_formula_units_Z 52
_cell_length_a 18.764888
_cell_length_b 15.347912
_cell_length_c 17.339527
_cell_angle_alpha 90.000000
_cell_angle_beta 146.088214
_cell_angle_gamma 90.000000
_cell_volume 2786.128937
_symmetry_space_group_name_H-M "C 2/C"
_symmetry_group_IT_number 15
_symmetry_cell_setting 'monoclinic'
loop_
_space_group_symop_operation_xyz
x,y,z
-x,y,1/2-z
-x,-y,-z
x,-y,1/2+z
1/2+x,1/2+y,z
1/2-x,1/2+y,1/2-z
1/2-x,1/2-y,-z
1/2+x,1/2-y,1/2+z
loop_
_atom_site_type_symbol
_atom_site_label
_atom_site_fract_x
_atom_site_fract_y
_atom_site_fract_z
Si Si1 0.236150 0.686060 0.837273
Si Si2 0.613971 0.258219 0.451293
Si Si3 0.338021 0.694114 0.756764
Si Si4 0.334768 0.045390 0.612886
Si Si5 0.000000 0.605667 0.250000
Si Si6 0.136586 0.925273 0.356943
Si Si7 0.550022 0.786450 0.372818
O O1 0.290295 0.684288 0.800212
O O2 0.235526 0.594662 0.881650
O O3 0.083405 0.708184 0.699875
O O4 0.331480 0.746011 0.974463
O O5 0.481931 0.270097 0.379172
O O6 0.735170 0.250828 0.615852
O O7 0.587805 0.169987 0.378938
O O8 0.631880 0.337892 0.407219
O O9 0.344813 0.605445 0.713567
O O10 0.399300 0.120704 0.616825
O O11 0.419904 0.966541 0.725289
O O12 0.241942 0.992432 0.475392
O O13 0.000000 0.967127 0.250000
O O14 0.500000 0.737795 0.250000
#
# Coordination Sequence:
#
# PCOD9281253 Si02
#       7
#     8   8   8   8   4   8   8
#     4  11  23  40  61  91 124 158 199 257 311 353
#     4  11  21  38  64  89 118 167 205 243 298 369
#     4  11  21  37  59  91 124 155 199 254 309 355
#     4  11  21  37  61  90 117 158 209 250 292 362
#     4  12  18  36  68  88 114 150 220 244 282 352
#     4  10  21  38  60  88 117 158 212 240 294 372
#     4  10  21  41  63  88 117 163 210 241 298 370
#
# _framework density 18.663889000000001
#
# number of rings (size 3 to 8) (size 9 to 14) (size 15 to 20)
#    0.000    1.231    6.154    4.154    0.000    1.846 
#    0.000    9.231    0.000    0.000    0.000    0.000 
#    0.000    0.000    0.000    0.000    0.000    0.000 
#
# Total GULP energy -144735.491667 kJ/mol
# GULP energy per Si atom -5566.749679 kJ/mol
# Density = 1.862141 g / cm^3
# Si number density = 18.663889 Si / 1000 Ang^3
#
#
#
# Elastic Constant Matrix: (Units=GPa)
#
#
# Indices 1 2 3 4 5 6 
#
# 1 156.7736 37.7401 45.0410 0.0000 -2.1141 0.0000
# 2 37.7401 75.3701 31.4608 0.0000 -1.0961 0.0000
# 3 45.0410 31.4608 83.0481 -0.0001 14.2052 0.0000
# 4 0.0000 0.0000 -0.0001 34.8102 0.0000 10.7277
# 5 -2.1141 -1.0961 14.2052 0.0000 29.6828 0.0000
# 6 0.0000 0.0000 0.0000 10.7277 0.0000 6.7977
#
#
#
# Elastic Compliance Matrix: (Units=1/GPa)
#
#
# Indices 1 2 3 4 5 6 
#
# 1 0.008105 -0.002402 -0.003888 0.000000 0.002349 0.000000
# 2 -0.002402 0.016863 -0.005623 0.000000 0.003143 0.000000
# 3 -0.003888 -0.005623 0.017822 0.000000 -0.009014 0.000000
# 4 0.000000 0.000000 0.000000 0.055927 0.000000 -0.088260
# 5 0.002349 0.003143 -0.009014 0.000000 0.038287 0.000000
# 6 0.000000 0.000000 0.000000 -0.088260 0.000000 0.286395
#
#
# Mechanical properties :
#
#
# Convention : Reuss Voigt Hill
#
# Bulk Modulus (GPa) = 52.72929 60.40840 56.56885
# Shear Modulus (GPa) = 11.02422 27.65480 19.33951
#
# Velocity S-wave (km/s) = 2.43301 3.85350 3.22250
# Velocity P-wave (km/s) = 6.01715 7.22745 6.64989
#
# Compressibility (1/GPa) = 0.01896479
#
# Stress axis : x y z
#
# Youngs Moduli (GPa) = 123.37343 59.29997 56.11055
#
# Poissons Ratio (x) = 0.14241 0.21816
# Poissons Ratio (y) = 0.29629 0.31553
# Poissons Ratio (z) = 0.47969 0.33347
#
# Static dielectric constant tensor:
#      x y z
#    x 1.687790 0.000000 0.078400 
#    y 0.000000 1.652110 0.000000 
#    z 0.078400 0.000000 1.718540 
# 
# From -- ./inp_files/162603.got.cif
#   From: 2010.05.17/outbox.cif.g08.bks.cpg/sg15_82_cif.got.tgz:162603.got - 2010.06.03 18:47:42.
