data_PCOD9281271
_publ_section_title
;
Structure prediction by ZEFSAII (Michael W. Deem and Ramdas Pophale) SiO2 
 PCOD9281271
Probable space group: C 2/C
;
_chemical_formula_sum "Si O2"
_cell_formula_units_Z 64
_cell_length_a 11.883736
_cell_length_b 30.334331
_cell_length_c 17.670187
_cell_angle_alpha 90.000000
_cell_angle_beta 29.078742
_cell_angle_gamma 90.000000
_cell_volume 3095.813590
_symmetry_space_group_name_H-M "C 2/C"
_symmetry_group_IT_number 15
_symmetry_cell_setting 'monoclinic'
loop_
_space_group_symop_operation_xyz
x,y,z
-x,y,1/2-z
-x,-y,-z
x,-y,1/2+z
1/2+x,1/2+y,z
1/2-x,1/2+y,1/2-z
1/2-x,1/2-y,-z
1/2+x,1/2-y,1/2+z
loop_
_atom_site_type_symbol
_atom_site_label
_atom_site_fract_x
_atom_site_fract_y
_atom_site_fract_z
Si Si1 0.782120 0.449562 0.149722
Si Si2 0.380515 0.064178 0.425751
Si Si3 0.423162 0.384665 0.971162
Si Si4 0.307890 0.703456 0.928678
Si Si5 0.630562 0.149065 0.352048
Si Si6 0.737273 0.906130 0.928654
Si Si7 0.991020 0.879684 0.100697
Si Si8 0.160818 0.020937 0.342261
O O1 0.669103 0.403143 0.242678
O O2 0.676343 0.488463 0.261655
O O3 0.760407 0.454165 0.072581
O O4 0.052020 0.443486 0.015146
O O5 0.511825 0.107282 0.380472
O O6 0.575065 0.029799 0.287745
O O7 0.203028 0.084829 0.470431
O O8 0.616085 0.348118 0.834840
O O9 0.231896 0.389998 0.018549
O O10 0.547558 0.432275 0.890513
O O11 0.369249 0.377651 0.090905
O O12 0.500000 0.707271 0.750000
O O13 0.407664 0.666298 0.928323
O O14 0.250000 0.750000 0.000000
O O15 0.060339 0.686287 0.043649
O O16 0.674971 0.134976 0.411663
O O17 0.000000 0.918461 0.750000
O O18 0.000000 0.000000 0.500000
#
# Coordination Sequence:
#
# PCOD9281271 Si02
#       8
#     8   8   8   8   8   8   8   8
#     4  11  21  39  60  82 120 164 221 267 314 376
#     4   9  20  36  60  78 115 167 204 255 317 382
#     4  10  21  38  60  89 123 167 216 259 319 377
#     4  11  24  40  67 103 131 159 201 259 325 395
#     4   8  18  38  63  84 121 160 207 245 306 384
#     4   9  19  38  62  86 111 167 221 256 303 380
#     4  11  22  40  63  91 128 165 212 259 335 387
#     4  11  22  39  52  89 125 160 218 277 317 372
#
# _framework density 20.673079999999999
#
# number of rings (size 3 to 8) (size 9 to 14) (size 15 to 20)
#    0.000    2.000    1.250    3.750    1.750    5.500 
#    2.250    3.750    0.000    1.500    6.500    0.000 
#    0.000    0.000    0.000    0.000    0.000    0.000 
#
# Total GULP energy -178670.259439 kJ/mol
# GULP energy per Si atom -5583.445607 kJ/mol
# Density = 2.062603 g / cm^3
# Si number density = 20.673080 Si / 1000 Ang^3
#
#
#
# Elastic Constant Matrix: (Units=GPa)
#
#
# Indices 1 2 3 4 5 6 
#
# 1 120.8988 22.2069 27.0327 0.0000 15.6062 0.0000
# 2 22.2069 94.0621 42.8487 0.0000 4.5027 -0.0001
# 3 27.0327 42.8487 90.4966 -0.0003 10.6775 -0.0002
# 4 0.0000 0.0000 -0.0003 29.4113 0.0001 -2.9648
# 5 15.6062 4.5027 10.6775 0.0001 32.2631 0.0000
# 6 0.0000 -0.0001 -0.0002 -2.9648 0.0000 24.7700
#
#
#
# Elastic Compliance Matrix: (Units=1/GPa)
#
#
# Indices 1 2 3 4 5 6 
#
# 1 0.009381 -0.001225 -0.001777 0.000000 -0.003779 0.000000
# 2 -0.001225 0.013717 -0.006216 0.000000 0.000735 0.000000
# 3 -0.001777 -0.006216 0.014902 0.000000 -0.003205 0.000000
# 4 0.000000 0.000000 0.000000 0.034416 0.000000 0.004119
# 5 -0.003779 0.000735 -0.003205 0.000000 0.033781 0.000000
# 6 0.000000 0.000000 0.000000 0.004119 0.000000 0.040864
#
#
# Mechanical properties :
#
#
# Convention : Reuss Voigt Hill
#
# Bulk Modulus (GPa) = 51.10803 54.40380 52.75591
# Shear Modulus (GPa) = 29.06688 31.51349 30.29018
#
# Velocity S-wave (km/s) = 3.75377 3.90856 3.83194
# Velocity P-wave (km/s) = 6.60026 6.83685 6.71959
#
# Compressibility (1/GPa) = 0.01956640
#
# Stress axis : x y z
#
# Youngs Moduli (GPa) = 106.59403 72.90436 67.10532
#
# Poissons Ratio (x) = 0.08928 0.11922
# Poissons Ratio (y) = 0.13053 0.41709
# Poissons Ratio (z) = 0.18938 0.45314
#
# Static dielectric constant tensor:
#      x y z
#    x 1.796510 0.000000 -0.012980 
#    y 0.000000 1.718700 0.000000 
#    z -0.012980 0.000000 1.841990 
# 
# From -- ./inp_files/201470.got.cif
#   From: 2010.05.17/outbox.cif.g08.bks.cpg/sg15_101_cif.got.tgz:201470.got - 2010.06.03 18:47:42.
