data_PCOD9281950
_publ_section_title
;
Structure prediction by ZEFSAII (Michael W. Deem and Ramdas Pophale) SiO2 
 PCOD9281950
Probable space group: C 2/C
;
_chemical_formula_sum "Si O2"
_cell_formula_units_Z 48
_cell_length_a 9.938306
_cell_length_b 15.241625
_cell_length_c 27.032404
_cell_angle_alpha 90.000000
_cell_angle_beta 38.367930
_cell_angle_gamma 90.000000
_cell_volume 2541.653646
_symmetry_space_group_name_H-M "C 2/C"
_symmetry_group_IT_number 15
_symmetry_cell_setting 'monoclinic'
loop_
_space_group_symop_operation_xyz
x,y,z
-x,y,1/2-z
-x,-y,-z
x,-y,1/2+z
1/2+x,1/2+y,z
1/2-x,1/2+y,1/2-z
1/2-x,1/2-y,-z
1/2+x,1/2-y,1/2+z
loop_
_atom_site_type_symbol
_atom_site_label
_atom_site_fract_x
_atom_site_fract_y
_atom_site_fract_z
Si Si1 0.163331 0.822376 0.062667
Si Si2 0.761302 0.050301 0.797979
Si Si3 0.580559 0.412563 0.925374
Si Si4 0.754036 0.576493 0.813374
Si Si5 0.224015 0.236103 0.658572
Si Si6 0.684161 0.969136 0.544732
O O1 0.186154 0.793642 0.112771
O O2 0.913272 0.846917 0.125234
O O3 0.250000 0.750000 0.000000
O O4 0.287877 0.912688 0.013089
O O5 0.778093 0.051554 0.734302
O O6 0.705979 0.148840 0.832527
O O7 0.000000 0.028299 0.750000
O O8 0.563675 0.989008 0.871600
O O9 0.698606 0.491211 0.861859
O O10 0.618647 0.319375 0.888993
O O11 0.696873 0.414669 0.945507
O O12 0.330970 0.442946 0.000477
O O13 0.000000 0.603341 0.750000
O O14 0.000000 0.264087 0.750000
#
# Coordination Sequence:
#
# PCOD9281950 Si02
#       6
#     8   8   8   8   8   8
#     4  11  22  40  65  92 129 164 210 260 319 368
#     4  11  23  42  63  92 133 168 204 259 326 374
#     4  10  21  38  66  95 118 165 220 258 303 379
#     4  11  21  40  67  91 125 168 213 259 309 379
#     4  11  22  39  64  91 131 171 205 257 321 376
#     4  10  22  39  65  93 124 164 214 260 312 374
#
# _framework density 18.885342999999999
#
# number of rings (size 3 to 8) (size 9 to 14) (size 15 to 20)
#    0.000    1.333    6.667    0.500    0.000    1.333 
#    0.000    0.833    0.000    0.000    0.000    0.000 
#    0.000    0.000    0.000    0.000    0.000    0.000 
#
# Total GULP energy -133953.590843 kJ/mol
# GULP energy per Si atom -5581.399618 kJ/mol
# Density = 1.884236 g / cm^3
# Si number density = 18.885343 Si / 1000 Ang^3
#
#
#
# Elastic Constant Matrix: (Units=GPa)
#
#
# Indices 1 2 3 4 5 6 
#
# 1 65.1471 19.1481 48.4347 -0.0002 5.0915 0.0002
# 2 19.1481 45.6277 28.7969 0.0010 -4.0608 0.0008
# 3 48.4347 28.7969 131.6514 0.0023 -10.0212 0.0022
# 4 -0.0002 0.0010 0.0023 57.7930 -0.0003 11.3562
# 5 5.0915 -4.0608 -10.0212 -0.0003 43.0608 -0.0005
# 6 0.0002 0.0008 0.0022 11.3562 -0.0005 21.9253
#
#
#
# Elastic Compliance Matrix: (Units=1/GPa)
#
#
# Indices 1 2 3 4 5 6 
#
# 1 0.023005 -0.005241 -0.007698 0.000000 -0.005006 0.000000
# 2 -0.005241 0.026674 -0.003734 0.000000 0.002266 0.000000
# 3 -0.007698 -0.003734 0.011491 0.000000 0.003232 -0.000001
# 4 0.000000 0.000000 0.000000 0.019264 0.000000 -0.009978
# 5 -0.005006 0.002266 0.003232 0.000000 0.024781 0.000000
# 6 0.000000 0.000000 -0.000001 -0.009978 0.000000 0.050777
#
#
# Mechanical properties :
#
#
# Convention : Reuss Voigt Hill
#
# Bulk Modulus (GPa) = 35.94091 48.35396 42.14744
# Shear Modulus (GPa) = 25.17461 34.29226 29.73344
#
# Velocity S-wave (km/s) = 3.65502 4.26586 3.97220
# Velocity P-wave (km/s) = 6.07327 7.06562 6.58816
#
# Compressibility (1/GPa) = 0.02782345
#
# Stress axis : x y z
#
# Youngs Moduli (GPa) = 43.46897 37.48929 87.02675
#
# Poissons Ratio (x) = 0.19649 0.66994
# Poissons Ratio (y) = 0.22783 0.32494
# Poissons Ratio (z) = 0.33463 0.13998
#
# Static dielectric constant tensor:
#      x y z
#    x 1.640670 -0.000010 0.013850 
#    y -0.000010 1.670450 0.000000 
#    z 0.013850 0.000000 1.668500 
# 
# From -- ./inp_files/189226.got.cif
#   From: 2010.05.17/outbox.cif.g08.bks.cpg/sg15_95_cif.got.tgz:189226.got - 2010.06.03 18:47:42.
