data_PCOD9281442
_publ_section_title
;
Structure prediction by ZEFSAII (Michael W. Deem and Ramdas Pophale) SiO2 
 PCOD9281442
Probable space group: C 2/C
;
_chemical_formula_sum "Si O2"
_cell_formula_units_Z 56
_cell_length_a 15.077258
_cell_length_b 16.062697
_cell_length_c 9.990094
_cell_angle_alpha 90.000000
_cell_angle_beta 96.125407
_cell_angle_gamma 90.000000
_cell_volume 2405.602113
_symmetry_space_group_name_H-M "C 2/C"
_symmetry_group_IT_number 15
_symmetry_cell_setting 'monoclinic'
loop_
_space_group_symop_operation_xyz
x,y,z
-x,y,1/2-z
-x,-y,-z
x,-y,1/2+z
1/2+x,1/2+y,z
1/2-x,1/2+y,1/2-z
1/2-x,1/2-y,-z
1/2+x,1/2-y,1/2+z
loop_
_atom_site_type_symbol
_atom_site_label
_atom_site_fract_x
_atom_site_fract_y
_atom_site_fract_z
Si Si1 0.173461 0.318457 0.494428
Si Si2 0.921961 0.577494 0.338299
Si Si3 0.913988 0.414494 0.460282
Si Si4 0.356636 0.476973 0.177825
Si Si5 0.000000 0.836087 0.250000
Si Si6 0.734182 0.000467 0.908216
Si Si7 0.500000 0.610061 0.250000
Si Si8 0.482850 0.255732 0.956327
O O1 0.250000 0.250000 0.500000
O O2 0.151247 0.353573 0.641420
O O3 0.206043 0.403575 0.429254
O O4 0.082013 0.275568 0.428013
O O5 0.893927 0.480430 0.338935
O O6 0.000000 0.599040 0.250000
O O7 0.981376 0.579124 0.485836
O O8 0.852560 0.442966 0.575730
O O9 0.909773 0.317290 0.428311
O O10 0.413176 0.396518 0.233333
O O11 0.287250 0.503684 0.280116
O O12 0.427265 0.550790 0.171483
O O13 0.302284 0.468704 0.033156
O O14 0.006435 0.782909 0.387170
O O15 0.459568 0.667041 0.359515
#
# Coordination Sequence:
#
# PCOD9281442 Si02
#       8
#     8   8   8   8   4   8   4   8
#     4  10  21  38  61  96 132 165 217 274 323 384
#     4   9  19  36  61  88 127 180 216 256 325 401
#     4   9  22  37  59  95 129 166 213 263 325 406
#     4  11  24  44  67  91 125 174 224 272 325 399
#     4  11  24  44  68  91 124 172 228 269 326 402
#     4  11  24  41  65  96 130 172 213 273 336 395
#     4  11  24  44  66  91 126 172 226 271 328 396
#     4  11  24  41  66  96 130 171 213 274 338 394
#
# _framework density 23.278994000000001
#
# number of rings (size 3 to 8) (size 9 to 14) (size 15 to 20)
#    0.000    1.714    0.000    4.286    9.000    3.429 
#    0.000    4.286    0.000    0.000    0.000    0.000 
#    0.000    0.000    0.000    0.000    0.000    0.000 
#
# Total GULP energy -156378.813885 kJ/mol
# GULP energy per Si atom -5584.957639 kJ/mol
# Density = 2.322601 g / cm^3
# Si number density = 23.278994 Si / 1000 Ang^3
#
#
#
# Elastic Constant Matrix: (Units=GPa)
#
#
# Indices 1 2 3 4 5 6 
#
# 1 105.6582 43.5194 8.6018 0.0000 -2.4743 0.0000
# 2 43.5194 127.7877 17.7355 0.0000 -17.7963 0.0000
# 3 8.6018 17.7355 71.7057 0.0000 -11.4528 0.0000
# 4 0.0000 0.0000 0.0000 15.4750 0.0000 -6.1838
# 5 -2.4743 -17.7963 -11.4528 0.0000 36.6761 0.0000
# 6 0.0000 0.0000 0.0000 -6.1838 0.0000 41.9271
#
#
#
# Elastic Compliance Matrix: (Units=1/GPa)
#
#
# Indices 1 2 3 4 5 6 
#
# 1 0.011077 -0.003875 -0.000580 0.000000 -0.001314 0.000000
# 2 -0.003875 0.009904 -0.001325 0.000000 0.004131 0.000000
# 3 -0.000580 -0.001325 0.014982 0.000000 0.003996 0.000000
# 4 0.000000 0.000000 0.000000 0.068667 0.000000 0.010128
# 5 -0.001314 0.004131 0.003996 0.000000 0.030429 0.000000
# 6 0.000000 0.000000 0.000000 0.010128 0.000000 0.025345
#
#
# Mechanical properties :
#
#
# Convention : Reuss Voigt Hill
#
# Bulk Modulus (GPa) = 40.97987 49.42944 45.20465
# Shear Modulus (GPa) = 27.76257 34.50197 31.13227
#
# Velocity S-wave (km/s) = 3.45715 3.85399 3.66095
# Velocity P-wave (km/s) = 5.79464 6.40967 6.10990
#
# Compressibility (1/GPa) = 0.02440223
#
# Stress axis : x y z
#
# Youngs Moduli (GPa) = 90.27756 100.96677 66.74894
#
# Poissons Ratio (x) = 0.39123 0.03873
# Poissons Ratio (y) = 0.34981 0.08845
# Poissons Ratio (z) = 0.05239 0.13379
#
# Static dielectric constant tensor:
#      x y z
#    x 1.875170 0.000000 0.061240 
#    y 0.000000 1.977710 0.000000 
#    z 0.061240 0.000000 2.029620 
# 
# From -- ./inp_files/97081.got.cif
#   From: 2010.05.17/outbox.cif.g08.bks.cpg/sg15_49_cif.got.tgz:97081.got - 2010.06.03 18:47:42.
