data_PCOD9281518
_publ_section_title
;
Structure prediction by ZEFSAII (Michael W. Deem and Ramdas Pophale) SiO2 
 PCOD9281518
Probable space group: C 2/C
;
_chemical_formula_sum "Si O2"
_cell_formula_units_Z 48
_cell_length_a 5.224690
_cell_length_b 27.084510
_cell_length_c 16.192959
_cell_angle_alpha 90.000000
_cell_angle_beta 107.846836
_cell_angle_gamma 90.000000
_cell_volume 2181.170208
_symmetry_space_group_name_H-M "C 2/C"
_symmetry_group_IT_number 15
_symmetry_cell_setting 'monoclinic'
loop_
_space_group_symop_operation_xyz
x,y,z
-x,y,1/2-z
-x,-y,-z
x,-y,1/2+z
1/2+x,1/2+y,z
1/2-x,1/2+y,1/2-z
1/2-x,1/2-y,-z
1/2+x,1/2-y,1/2+z
loop_
_atom_site_type_symbol
_atom_site_label
_atom_site_fract_x
_atom_site_fract_y
_atom_site_fract_z
Si Si1 0.500000 0.822513 0.250000
Si Si2 0.000000 0.243752 0.750000
Si Si3 0.712282 0.033070 0.413170
Si Si4 0.098743 0.726073 0.093426
Si Si5 0.500000 0.331037 0.750000
Si Si6 0.331405 0.829243 0.056044
Si Si7 0.201070 0.562196 0.992497
Si Si8 0.000000 0.398851 0.750000
O O1 0.241271 0.789325 0.242478
O O2 0.461991 0.846031 0.156184
O O3 0.084249 0.271504 0.842510
O O4 0.572455 0.054632 0.482782
O O5 0.566155 0.064987 0.330898
O O6 0.032294 0.040353 0.437844
O O7 0.664853 0.974180 0.410703
O O8 0.365009 0.701308 0.162504
O O9 0.153428 0.781140 0.063009
O O10 0.006494 0.692830 0.006993
O O11 0.257294 0.364918 0.757150
O O12 0.221704 0.881073 0.013444
#
# Coordination Sequence:
#
# PCOD9281518 Si02
#       8
#     4   4   8   8   4   8   8   4
#     4  10  23  39  58  86 121 162 211 255 297 362
#     4  10  21  40  58  83 125 163 205 260 299 352
#     4  10  22  41  64  92 120 155 204 260 311 366
#     4  10  21  38  62  91 126 166 206 248 306 372
#     4  12  25  40  61  93 127 157 202 262 305 362
#     4  10  21  39  63  90 124 168 207 248 308 373
#     4  10  22  41  63  89 124 158 201 256 310 364
#     4  12  23  39  65  90 119 158 204 251 313 368
#
# _framework density 22.006533999999998
#
# number of rings (size 3 to 8) (size 9 to 14) (size 15 to 20)
#    0.000    1.667    0.000    5.500    0.000    4.000 
#    0.000    8.333    0.000    7.000    0.000    0.000 
#    0.000    0.000    0.000    0.000    0.000    0.000 
#
# Total GULP energy -133649.486574 kJ/mol
# GULP energy per Si atom -5568.728607 kJ/mol
# Density = 2.195645 g / cm^3
# Si number density = 22.006534 Si / 1000 Ang^3
#
#
#
# Elastic Constant Matrix: (Units=GPa)
#
#
# Indices 1 2 3 4 5 6 
#
# 1 100.3075 15.2631 12.9377 0.0000 -4.9276 0.0000
# 2 15.2631 138.7514 17.7047 0.0000 -6.0097 0.0000
# 3 12.9377 17.7047 74.2482 0.0000 -23.1564 0.0000
# 4 0.0000 0.0000 0.0000 34.2683 0.0000 15.6077
# 5 -4.9276 -6.0097 -23.1564 0.0000 29.0127 0.0000
# 6 0.0000 0.0000 0.0000 15.6077 0.0000 62.2110
#
#
#
# Elastic Compliance Matrix: (Units=1/GPa)
#
#
# Indices 1 2 3 4 5 6 
#
# 1 0.010318 -0.000933 -0.001450 0.000000 0.000402 0.000000
# 2 -0.000933 0.007518 -0.001590 0.000000 0.000130 0.000000
# 3 -0.001450 -0.001590 0.018534 0.000000 0.014217 0.000000
# 4 0.000000 0.000000 0.000000 0.032946 0.000000 -0.008266
# 5 0.000402 0.000130 0.014217 0.000000 0.045910 0.000000
# 6 0.000000 0.000000 0.000000 -0.008266 0.000000 0.018148
#
#
# Mechanical properties :
#
#
# Convention : Reuss Voigt Hill
#
# Bulk Modulus (GPa) = 35.17960 45.01313 40.09637
# Shear Modulus (GPa) = 33.15759 42.92519 38.04139
#
# Velocity S-wave (km/s) = 3.88585 4.42131 4.16220
# Velocity P-wave (km/s) = 6.01281 6.82370 6.43105
#
# Compressibility (1/GPa) = 0.02842557
#
# Stress axis : x y z
#
# Youngs Moduli (GPa) = 96.91771 133.01065 53.95427
#
# Poissons Ratio (x) = 0.12404 0.07825
# Poissons Ratio (y) = 0.09038 0.08577
# Poissons Ratio (z) = 0.14055 0.21144
#
# Static dielectric constant tensor:
#      x y z
#    x 1.852700 0.000000 -0.028710 
#    y 0.000000 1.818040 0.000000 
#    z -0.028710 0.000000 1.926790 
# 
# From -- ./inp_files/185576.got.cif
#   From: 2010.05.17/outbox.cif.g08.bks.cpg/sg15_93_cif.got.tgz:185576.got - 2010.06.03 18:47:42.
