data_PCOD9281052
_publ_section_title
;
Structure prediction by ZEFSAII (Michael W. Deem and Ramdas Pophale) SiO2 
 PCOD9281052
Probable space group: C 2/C
;
_chemical_formula_sum "Si O2"
_cell_formula_units_Z 60
_cell_length_a 5.880950
_cell_length_b 28.098420
_cell_length_c 19.287770
_cell_angle_alpha 90.000000
_cell_angle_beta 65.996331
_cell_angle_gamma 90.000000
_cell_volume 2911.583066
_symmetry_space_group_name_H-M "C 2/C"
_symmetry_group_IT_number 15
_symmetry_cell_setting 'monoclinic'
loop_
_space_group_symop_operation_xyz
x,y,z
-x,y,1/2-z
-x,-y,-z
x,-y,1/2+z
1/2+x,1/2+y,z
1/2-x,1/2+y,1/2-z
1/2-x,1/2-y,-z
1/2+x,1/2-y,1/2+z
loop_
_atom_site_type_symbol
_atom_site_label
_atom_site_fract_x
_atom_site_fract_y
_atom_site_fract_z
Si Si1 0.572837 0.240014 0.390753
Si Si2 0.336220 0.079906 0.162301
Si Si3 0.500000 0.793336 0.750000
Si Si4 0.348264 0.513693 0.434322
Si Si5 0.780234 0.998578 0.224352
Si Si6 0.986360 0.167552 0.355537
Si Si7 0.813005 0.075037 0.022458
Si Si8 0.879211 0.824243 0.502006
O O1 0.504561 0.238428 0.318317
O O2 0.843587 0.217083 0.360723
O O3 0.380217 0.203270 0.451626
O O4 0.540675 0.289508 0.434224
O O5 0.281324 0.038484 0.113591
O O6 0.174736 0.125226 0.158509
O O7 0.264567 0.053205 0.242151
O O8 0.626475 0.088317 0.109211
O O9 0.741423 0.826952 0.711707
O O10 0.604959 0.496775 0.366244
O O11 0.431544 0.553871 0.478395
O O12 0.225163 0.468245 0.484638
O O13 0.500000 0.978257 0.250000
O O14 0.000000 0.979648 0.250000
O O15 0.004050 0.165237 0.436685
O O16 0.838007 0.123475 0.976829
#
# Coordination Sequence:
#
# PCOD9281052 Si02
#       8
#     8   8   4   8   8   8   8   8
#     4  10  21  39  61  85 122 158 193 259 311 380
#     4  11  21  37  59  87 124 159 203 254 327 372
#     4  10  24  38  58  90 126 156 208 242 326 382
#     4  10  22  36  55  86 121 163 202 253 309 373
#     4  10  21  38  57  85 124 165 207 258 322 384
#     4  11  21  39  59  93 123 159 195 256 320 383
#     4  11  20  38  60  84 120 155 209 256 307 368
#     4  10  21  38  61  89 117 153 210 252 309 375
#
# _framework density 20.607346
#
# number of rings (size 3 to 8) (size 9 to 14) (size 15 to 20)
#    0.000    1.600    4.000    1.200    0.000    3.200 
#    6.000    0.000    4.400    1.600    0.000    0.000 
#    0.000    0.000    0.000    0.000    0.000    0.000 
#
# Total GULP energy -167300.730833 kJ/mol
# GULP energy per Si atom -5576.691028 kJ/mol
# Density = 2.056044 g / cm^3
# Si number density = 20.607346 Si / 1000 Ang^3
#
#
#
# Elastic Constant Matrix: (Units=GPa)
#
#
# Indices 1 2 3 4 5 6 
#
# 1 74.8194 22.0376 22.4840 0.0000 -5.7008 0.0000
# 2 22.0376 112.7880 50.8675 0.0000 -1.4252 0.0000
# 3 22.4840 50.8675 105.5827 0.0000 -11.1363 0.0000
# 4 0.0000 0.0000 0.0000 27.9189 0.0000 -0.7703
# 5 -5.7008 -1.4252 -11.1363 0.0000 37.0521 0.0000
# 6 0.0000 0.0000 0.0000 -0.7703 0.0000 15.4939
#
#
#
# Elastic Compliance Matrix: (Units=1/GPa)
#
#
# Indices 1 2 3 4 5 6 
#
# 1 0.014663 -0.001931 -0.002026 0.000000 0.001573 0.000000
# 2 -0.001931 0.011638 -0.005349 0.000000 -0.001457 0.000000
# 3 -0.002026 -0.005349 0.012832 0.000000 0.003339 0.000000
# 4 0.000000 0.000000 0.000000 0.035867 0.000000 0.001783
# 5 0.001573 -0.001457 0.003339 0.000000 0.028179 0.000000
# 6 0.000000 0.000000 0.000000 0.001783 0.000000 0.064630
#
#
# Mechanical properties :
#
#
# Convention : Reuss Voigt Hill
#
# Bulk Modulus (GPa) = 48.73434 53.77426 51.25430
# Shear Modulus (GPa) = 25.87162 29.27970 27.57566
#
# Velocity S-wave (km/s) = 3.54709 3.77349 3.66204
# Velocity P-wave (km/s) = 6.36208 6.71841 6.54267
#
# Compressibility (1/GPa) = 0.02051941
#
# Stress axis : x y z
#
# Youngs Moduli (GPa) = 68.19835 85.92806 77.92979
#
# Poissons Ratio (x) = 0.16596 0.15790
# Poissons Ratio (y) = 0.13172 0.41686
# Poissons Ratio (z) = 0.13818 0.45965
#
# Static dielectric constant tensor:
#      x y z
#    x 1.863230 0.000000 -0.015090 
#    y 0.000000 1.728880 0.000000 
#    z -0.015090 0.000000 1.793770 
# 
# From -- ./inp_files/228614.got.cif
#   From: 2010.05.17/outbox.cif.g08.bks.cpg/sg15_115_cif.got.tgz:228614.got - 2010.06.03 18:47:42.
