data_PCOD9281971
_publ_section_title
;
Structure prediction by ZEFSAII (Michael W. Deem and Ramdas Pophale) SiO2 
 PCOD9281971
Probable space group: C 2/C
;
_chemical_formula_sum "Si O2"
_cell_formula_units_Z 64
_cell_length_a 17.905170
_cell_length_b 14.696951
_cell_length_c 16.832842
_cell_angle_alpha 90.000000
_cell_angle_beta 133.751367
_cell_angle_gamma 90.000000
_cell_volume 3199.700241
_symmetry_space_group_name_H-M "C 2/C"
_symmetry_group_IT_number 15
_symmetry_cell_setting 'monoclinic'
loop_
_space_group_symop_operation_xyz
x,y,z
-x,y,1/2-z
-x,-y,-z
x,-y,1/2+z
1/2+x,1/2+y,z
1/2-x,1/2+y,1/2-z
1/2-x,1/2-y,-z
1/2+x,1/2-y,1/2+z
loop_
_atom_site_type_symbol
_atom_site_label
_atom_site_fract_x
_atom_site_fract_y
_atom_site_fract_z
Si Si1 0.326685 0.658780 0.758719
Si Si2 0.495264 0.071669 0.924629
Si Si3 0.505537 0.765977 0.953724
Si Si4 0.912570 0.077058 0.418746
Si Si5 0.293939 0.964687 0.012451
Si Si6 0.403910 0.472265 0.738906
Si Si7 0.807654 0.326097 0.492868
Si Si8 0.223844 0.452504 0.319764
O O1 0.395161 0.743470 0.834513
O O2 0.389634 0.575323 0.763132
O O3 0.238985 0.678145 0.630189
O O4 0.278725 0.620910 0.804115
O O5 0.597833 0.064144 0.946773
O O6 0.393161 0.045322 0.799298
O O7 0.493143 0.168438 0.968856
O O8 0.500000 0.000000 0.000000
O O9 0.572494 0.808481 0.932241
O O10 0.554949 0.668836 0.013721
O O11 0.914815 0.088543 0.325369
O O12 0.799619 0.039735 0.361883
O O13 0.000000 0.000000 0.500000
O O14 0.277534 0.928249 0.088750
O O15 0.292154 0.074502 0.016961
O O16 0.199073 0.944178 0.883968
O O17 0.500000 0.469021 0.750000
O O18 0.750000 0.250000 0.500000
#
# Coordination Sequence:
#
# PCOD9281971 Si02
#       8
#     8   8   8   8   8   8   8   8
#     4  10  23  41  65  99 135 174 217 289 349 399
#     4  12  24  47  65  95 142 185 227 274 340 423
#     4  12  24  41  72  99 137 177 228 278 352 408
#     4  11  21  40  68  99 131 178 220 284 351 400
#     4  11  24  43  68  96 131 188 223 278 341 405
#     4  10  21  38  66  98 134 167 220 282 343 403
#     4  11  24  42  64 106 137 166 227 285 347 412
#     4  11  22  45  69  91 139 178 232 275 340 406
#
# _framework density 20.001874000000001
#
# number of rings (size 3 to 8) (size 9 to 14) (size 15 to 20)
#    0.000    1.000    5.000    3.375    3.500    3.000 
#    2.250    1.875    0.000    0.000    0.000    0.000 
#    0.000    0.000    0.000    0.000    0.000    0.000 
#
# Total GULP energy -178763.701260 kJ/mol
# GULP energy per Si atom -5586.365664 kJ/mol
# Density = 1.995635 g / cm^3
# Si number density = 20.001874 Si / 1000 Ang^3
#
#
#
# Elastic Constant Matrix: (Units=GPa)
#
#
# Indices 1 2 3 4 5 6 
#
# 1 131.6535 -10.1532 33.4718 0.0000 -3.4889 0.0000
# 2 -10.1532 31.4395 4.9736 0.0000 5.3955 0.0000
# 3 33.4718 4.9736 97.9363 0.0000 1.4586 0.0000
# 4 0.0000 0.0000 0.0000 30.3618 0.0000 4.6947
# 5 -3.4889 5.3955 1.4586 0.0000 43.1133 0.0000
# 6 0.0000 0.0000 0.0000 4.6947 0.0000 13.2623
#
#
#
# Elastic Compliance Matrix: (Units=1/GPa)
#
#
# Indices 1 2 3 4 5 6 
#
# 1 0.008649 0.003219 -0.003126 0.000000 0.000403 0.000000
# 2 0.003219 0.033953 -0.002766 0.000000 -0.003895 0.000000
# 3 -0.003126 -0.002766 0.011424 0.000000 -0.000293 0.000000
# 4 0.000000 0.000000 0.000000 0.034843 0.000000 -0.012334
# 5 0.000403 -0.003895 -0.000293 0.000000 0.023725 0.000000
# 6 0.000000 0.000000 0.000000 -0.012334 0.000000 0.079768
#
#
# Mechanical properties :
#
#
# Convention : Reuss Voigt Hill
#
# Bulk Modulus (GPa) = 20.54268 35.29041 27.91655
# Shear Modulus (GPa) = 23.37165 32.86329 28.11747
#
# Velocity S-wave (km/s) = 3.42200 4.05780 3.75339
# Velocity P-wave (km/s) = 5.08981 6.29573 5.72461
#
# Compressibility (1/GPa) = 0.04867914
#
# Stress axis : x y z
#
# Youngs Moduli (GPa) = 115.61729 29.45283 87.53676
#
# Poissons Ratio (x) = -0.09479 0.27360
# Poissons Ratio (y) = -0.37212 0.24215
# Poissons Ratio (z) = 0.36136 0.08147
#
# Static dielectric constant tensor:
#      x y z
#    x 1.696200 0.000000 0.032840 
#    y 0.000000 1.720430 0.000000 
#    z 0.032840 0.000000 1.717760 
# 
# From -- ./inp_files/162582.got.cif
#   From: 2010.05.17/outbox.cif.g08.bks.cpg/sg15_82_cif.got.tgz:162582.got - 2010.06.03 18:47:42.
