data_PCOD9281183
_publ_section_title
;
Structure prediction by ZEFSAII (Michael W. Deem and Ramdas Pophale) SiO2 
 PCOD9281183
Probable space group: C 2/C
;
_chemical_formula_sum "Si O2"
_cell_formula_units_Z 56
_cell_length_a 13.527388
_cell_length_b 8.853845
_cell_length_c 22.949960
_cell_angle_alpha 90.000000
_cell_angle_beta 105.355572
_cell_angle_gamma 90.000000
_cell_volume 2650.577002
_symmetry_space_group_name_H-M "C 2/C"
_symmetry_group_IT_number 15
_symmetry_cell_setting 'monoclinic'
loop_
_space_group_symop_operation_xyz
x,y,z
-x,y,1/2-z
-x,-y,-z
x,-y,1/2+z
1/2+x,1/2+y,z
1/2-x,1/2+y,1/2-z
1/2-x,1/2-y,-z
1/2+x,1/2-y,1/2+z
loop_
_atom_site_type_symbol
_atom_site_label
_atom_site_fract_x
_atom_site_fract_y
_atom_site_fract_z
Si Si1 0.603743 0.294498 0.996524
Si Si2 0.695799 0.257592 0.139802
Si Si3 0.297792 0.906916 0.337128
Si Si4 0.863728 0.779769 0.948167
Si Si5 0.619686 0.917541 0.277493
Si Si6 0.721974 0.002903 0.489012
Si Si7 0.884602 0.225919 0.741226
O O1 0.642610 0.300464 0.070260
O O2 0.637709 0.131413 0.974838
O O3 0.482064 0.321978 0.977817
O O4 0.674922 0.415167 0.973074
O O5 0.809995 0.329950 0.164524
O O6 0.642316 0.295570 0.194136
O O7 0.690261 0.075952 0.139133
O O8 0.357688 0.784739 0.383090
O O9 0.332330 0.881828 0.277079
O O10 0.179081 0.871401 0.314255
O O11 0.828976 0.636033 0.981629
O O12 0.775522 0.904824 0.944451
O O13 0.500000 0.880069 0.250000
O O14 0.629449 0.099563 0.281265
O O15 0.000000 0.184677 0.750000
#
# Coordination Sequence:
#
# PCOD9281183 Si02
#       7
#     8   8   8   8   8   8   8
#     4  11  23  43  63  93 129 166 205 260 308 367
#     4  10  21  38  59  87 124 153 197 253 302 363
#     4  10  21  38  59  87 124 153 197 253 302 363
#     4  11  23  43  63  93 129 166 205 260 308 367
#     4   9  20  39  61  89 115 156 201 244 305 366
#     4  10  24  40  62  90 124 166 216 246 306 372
#     4   9  20  39  61  89 115 156 201 244 305 366
#
# _framework density 21.127476000000001
#
# number of rings (size 3 to 8) (size 9 to 14) (size 15 to 20)
#    0.000    2.000    1.429    0.857    2.000    5.143 
#    5.143    0.000    0.000    0.000    0.000    0.000 
#    0.000    0.000    0.000    0.000    0.000    0.000 
#
# Total GULP energy -155895.857517 kJ/mol
# GULP energy per Si atom -5567.709197 kJ/mol
# Density = 2.107939 g / cm^3
# Si number density = 21.127476 Si / 1000 Ang^3
#
#
#
# Elastic Constant Matrix: (Units=GPa)
#
#
# Indices 1 2 3 4 5 6 
#
# 1 92.6130 10.1553 29.0112 0.0000 11.0471 0.0000
# 2 10.1553 35.6775 2.2131 0.0000 3.8961 0.0000
# 3 29.0112 2.2131 85.9236 0.0000 6.9353 0.0000
# 4 0.0000 0.0000 0.0000 12.4059 0.0000 1.5897
# 5 11.0471 3.8961 6.9353 0.0000 24.2492 0.0000
# 6 0.0000 0.0000 0.0000 1.5897 0.0000 23.9626
#
#
#
# Elastic Compliance Matrix: (Units=1/GPa)
#
#
# Indices 1 2 3 4 5 6 
#
# 1 0.012858 -0.002951 -0.003921 0.000000 -0.004262 0.000000
# 2 -0.002951 0.029219 0.000526 0.000000 -0.003501 0.000000
# 3 -0.003921 0.000526 0.013114 0.000000 -0.002049 0.000000
# 4 0.000000 0.000000 0.000000 0.081298 0.000000 -0.005393
# 5 -0.004262 -0.003501 -0.002049 0.000000 0.044328 0.000000
# 6 0.000000 0.000000 0.000000 -0.005393 0.000000 0.042090
#
#
# Mechanical properties :
#
#
# Convention : Reuss Voigt Hill
#
# Bulk Modulus (GPa) = 23.53039 32.99703 28.26371
# Shear Modulus (GPa) = 20.01881 23.64582 21.83232
#
# Velocity S-wave (km/s) = 3.08153 3.34907 3.21808
# Velocity P-wave (km/s) = 4.88084 5.53236 5.21678
#
# Compressibility (1/GPa) = 0.04249824
#
# Stress axis : x y z
#
# Youngs Moduli (GPa) = 77.77268 34.22485 76.25405
#
# Poissons Ratio (x) = 0.10101 0.29902
# Poissons Ratio (y) = 0.22953 -0.04014
# Poissons Ratio (z) = 0.30497 -0.01802
#
# Static dielectric constant tensor:
#      x y z
#    x 2.072060 0.000000 0.077390 
#    y 0.000000 1.809420 0.000000 
#    z 0.077390 0.000000 1.823300 
# 
# From -- ./inp_files/295235.got.cif
#   From: 2010.05.17/outbox.cif.g08.bks.cpg/sg15_148_cif.got.tgz:295235.got - 2010.06.03 18:47:42.
