data_PCOD9281748
_publ_section_title
;
Structure prediction by ZEFSAII (Michael W. Deem and Ramdas Pophale) SiO2 
 PCOD9281748
Probable space group: C 2/C
;
_chemical_formula_sum "Si O2"
_cell_formula_units_Z 48
_cell_length_a 14.792832
_cell_length_b 14.251002
_cell_length_c 12.464453
_cell_angle_alpha 90.000000
_cell_angle_beta 67.996451
_cell_angle_gamma 90.000000
_cell_volume 2436.267329
_symmetry_space_group_name_H-M "C 2/C"
_symmetry_group_IT_number 15
_symmetry_cell_setting 'monoclinic'
loop_
_space_group_symop_operation_xyz
x,y,z
-x,y,1/2-z
-x,-y,-z
x,-y,1/2+z
1/2+x,1/2+y,z
1/2-x,1/2+y,1/2-z
1/2-x,1/2-y,-z
1/2+x,1/2-y,1/2+z
loop_
_atom_site_type_symbol
_atom_site_label
_atom_site_fract_x
_atom_site_fract_y
_atom_site_fract_z
Si Si1 0.999981 0.402460 0.123476
Si Si2 0.328793 0.435677 0.316610
Si Si3 0.303352 0.786758 0.829407
Si Si4 0.984886 0.069544 0.912249
Si Si5 0.902140 0.743951 0.506581
Si Si6 0.359346 0.066188 0.123824
O O1 0.939034 0.328814 0.078308
O O2 0.945439 0.502250 0.135455
O O3 0.000000 0.378153 0.250000
O O4 0.102585 0.408070 0.012955
O O5 0.305875 0.325684 0.311974
O O6 0.422839 0.452359 0.202235
O O7 0.378381 0.449026 0.409823
O O8 0.237255 0.501991 0.338639
O O9 0.189745 0.801899 0.906017
O O10 0.339736 0.847121 0.712832
O O11 0.365193 0.803739 0.911722
O O12 0.983768 0.179905 0.940587
O O13 0.000000 0.000000 0.000000
#
# Coordination Sequence:
#
# PCOD9281748 Si02
#       6
#     8   8   8   8   8   8
#     4  11  26  42  61  94 132 169 214 267 322 386
#     4  10  21  41  61  95 124 158 220 260 315 386
#     4  10  21  39  70  92 122 168 216 267 314 379
#     4  10  21  38  64  91 124 167 207 261 320 385
#     4  10  21  42  66  96 128 167 217 264 318 382
#     4  11  24  41  67  94 127 172 215 268 326 379
#
# _framework density 19.702271
#
# number of rings (size 3 to 8) (size 9 to 14) (size 15 to 20)
#    0.000    1.667    1.667    2.000    4.667    2.667 
#    6.000    0.833    0.000    0.000    0.000    0.000 
#    0.000    0.000    0.000    0.000    0.000    0.000 
#
# Total GULP energy -133863.882813 kJ/mol
# GULP energy per Si atom -5577.661784 kJ/mol
# Density = 1.965743 g / cm^3
# Si number density = 19.702271 Si / 1000 Ang^3
#
#
#
# Elastic Constant Matrix: (Units=GPa)
#
#
# Indices 1 2 3 4 5 6 
#
# 1 83.1013 64.3338 67.8408 0.0000 -6.9513 0.0000
# 2 64.3338 86.1677 61.8265 0.0000 12.3238 0.0000
# 3 67.8408 61.8265 135.7387 0.0000 2.8126 0.0000
# 4 0.0000 0.0000 0.0000 40.2839 0.0000 2.3008
# 5 -6.9513 12.3238 2.8126 0.0000 31.5534 0.0000
# 6 0.0000 0.0000 0.0000 2.3008 0.0000 26.9092
#
#
#
# Elastic Compliance Matrix: (Units=1/GPa)
#
#
# Indices 1 2 3 4 5 6 
#
# 1 0.044343 -0.029786 -0.009055 0.000000 0.022210 0.000000
# 2 -0.029786 0.038480 -0.002197 0.000000 -0.021395 0.000000
# 3 -0.009055 -0.002197 0.012941 0.000000 -0.002290 0.000000
# 4 0.000000 0.000000 0.000000 0.024946 0.000000 -0.002133
# 5 0.022210 -0.021395 -0.002290 0.000000 0.045146 0.000000
# 6 0.000000 0.000000 0.000000 -0.002133 0.000000 0.037344
#
#
# Mechanical properties :
#
#
# Convention : Reuss Voigt Hill
#
# Bulk Modulus (GPa) = 73.05958 77.00110 75.03034
# Shear Modulus (GPa) = 17.25097 27.14975 22.20036
#
# Velocity S-wave (km/s) = 2.96223 3.71617 3.36041
# Velocity P-wave (km/s) = 6.99014 7.58818 7.29529
#
# Compressibility (1/GPa) = 0.01368746
#
# Stress axis : x y z
#
# Youngs Moduli (GPa) = 22.55149 25.98744 77.27385
#
# Poissons Ratio (x) = 0.77406 0.69974
# Poissons Ratio (y) = 0.67172 0.16976
# Poissons Ratio (z) = 0.20421 0.05709
#
# Static dielectric constant tensor:
#      x y z
#    x 1.697550 0.000000 -0.010820 
#    y 0.000000 2.317900 0.000000 
#    z -0.010820 0.000000 1.799650 
# 
# From -- ./inp_files/96847.got.cif
#   From: 2010.05.17/outbox.cif.g08.bks.cpg/sg15_49_cif.got.tgz:96847.got - 2010.06.03 18:47:42.
