data_PCOD9281722
_publ_section_title
;
Structure prediction by ZEFSAII (Michael W. Deem and Ramdas Pophale) SiO2 
 PCOD9281722
Probable space group: C 2/C
;
_chemical_formula_sum "Si O2"
_cell_formula_units_Z 36
_cell_length_a 11.417074
_cell_length_b 17.702385
_cell_length_c 7.838950
_cell_angle_alpha 90.000000
_cell_angle_beta 112.161891
_cell_angle_gamma 90.000000
_cell_volume 1467.278483
_symmetry_space_group_name_H-M "C 2/C"
_symmetry_group_IT_number 15
_symmetry_cell_setting 'monoclinic'
loop_
_space_group_symop_operation_xyz
x,y,z
-x,y,1/2-z
-x,-y,-z
x,-y,1/2+z
1/2+x,1/2+y,z
1/2-x,1/2+y,1/2-z
1/2-x,1/2-y,-z
1/2+x,1/2-y,1/2+z
loop_
_atom_site_type_symbol
_atom_site_label
_atom_site_fract_x
_atom_site_fract_y
_atom_site_fract_z
Si Si1 0.417096 0.298456 0.947752
Si Si2 0.744620 0.556631 0.545969
Si Si3 0.317458 0.702577 0.777085
Si Si4 0.414799 0.941154 0.844918
Si Si5 0.000000 0.931566 0.750000
O O1 0.312702 0.249380 0.791032
O O2 0.441125 0.375548 0.859248
O O3 0.558639 0.265294 0.056317
O O4 0.358497 0.308131 0.103284
O O5 0.709424 0.621347 0.657874
O O6 0.821367 0.491544 0.680186
O O7 0.829665 0.595031 0.444139
O O8 0.616259 0.524343 0.394013
O O9 0.500000 0.898230 0.750000
O O10 0.500000 0.000000 0.000000
#
# Coordination Sequence:
#
# PCOD9281722 Si02
#       5
#     8   8   8   8   4
#     4   9  19  37  60  89 134 150 211 243 301 373
#     4  10  21  38  64  87 122 161 202 251 315 350
#     4   9  19  39  62  91 123 168 192 257 305 367
#     4   9  20  41  59  85 121 155 208 258 289 367
#     4  10  22  38  60  94 118 160 200 256 300 380
#
# _framework density 24.535219999999999
#
# number of rings (size 3 to 8) (size 9 to 14) (size 15 to 20)
#    0.000    2.667    0.000    0.000    0.000    8.000 
#   18.000    2.222    4.889    0.000    0.000    0.000 
#    0.000    0.000    0.000    0.000    0.000    0.000 
#
# Total GULP energy -100660.077416 kJ/mol
# GULP energy per Si atom -5592.226523 kJ/mol
# Density = 2.447938 g / cm^3
# Si number density = 24.535220 Si / 1000 Ang^3
#
#
#
# Elastic Constant Matrix: (Units=GPa)
#
#
# Indices 1 2 3 4 5 6 
#
# 1 104.1527 31.4631 54.4503 0.0000 13.8136 0.0000
# 2 31.4631 37.1023 29.6483 0.0000 8.2444 0.0000
# 3 54.4503 29.6483 137.4389 0.0000 42.8506 0.0000
# 4 0.0000 0.0000 0.0000 16.7296 0.0000 4.3682
# 5 13.8136 8.2444 42.8506 0.0000 51.6824 0.0000
# 6 0.0000 0.0000 0.0000 4.3682 0.0000 32.3247
#
#
#
# Elastic Compliance Matrix: (Units=1/GPa)
#
#
# Indices 1 2 3 4 5 6 
#
# 1 0.014336 -0.009175 -0.003995 0.000000 0.000944 0.000000
# 2 -0.009175 0.038465 -0.004740 0.000000 0.000246 0.000000
# 3 -0.003995 -0.004740 0.012559 0.000000 -0.008589 0.000000
# 4 0.000000 0.000000 0.000000 0.061960 0.000000 -0.008373
# 5 0.000944 0.000246 -0.008589 0.000000 0.026179 0.000000
# 6 0.000000 0.000000 0.000000 -0.008373 0.000000 0.032068
#
#
# Mechanical properties :
#
#
# Convention : Reuss Voigt Hill
#
# Bulk Modulus (GPa) = 33.84973 56.64636 45.24805
# Shear Modulus (GPa) = 21.62326 31.02284 26.32305
#
# Velocity S-wave (km/s) = 2.97192 3.55973 3.27902
# Velocity P-wave (km/s) = 5.05991 6.32720 5.72871
#
# Compressibility (1/GPa) = 0.02954233
#
# Stress axis : x y z
#
# Youngs Moduli (GPa) = 69.75410 25.99738 79.62479
#
# Poissons Ratio (x) = 0.23852 0.31809
# Poissons Ratio (y) = 0.63997 0.37739
# Poissons Ratio (z) = 0.27865 0.12322
#
# Static dielectric constant tensor:
#      x y z
#    x 2.005500 0.000000 0.016700 
#    y 0.000000 1.930040 0.000000 
#    z 0.016700 0.000000 1.950820 
# 
# From -- ./inp_files/30583.got.cif
#   From: 2010.05.17/outbox.cif.g08.bks.cpg/sg15_16_cif.got.tgz:30583.got - 2010.06.03 18:47:42.
