data_PCOD9281440
_publ_section_title
;
Structure prediction by ZEFSAII (Michael W. Deem and Ramdas Pophale) SiO2 
 PCOD9281440
Probable space group: C 2/C
;
_chemical_formula_sum "Si O2"
_cell_formula_units_Z 48
_cell_length_a 12.664553
_cell_length_b 13.585765
_cell_length_c 15.826281
_cell_angle_alpha 90.000000
_cell_angle_beta 58.192930
_cell_angle_gamma 90.000000
_cell_volume 2314.108407
_symmetry_space_group_name_H-M "C 2/C"
_symmetry_group_IT_number 15
_symmetry_cell_setting 'monoclinic'
loop_
_space_group_symop_operation_xyz
x,y,z
-x,y,1/2-z
-x,-y,-z
x,-y,1/2+z
1/2+x,1/2+y,z
1/2-x,1/2+y,1/2-z
1/2-x,1/2-y,-z
1/2+x,1/2-y,1/2+z
loop_
_atom_site_type_symbol
_atom_site_label
_atom_site_fract_x
_atom_site_fract_y
_atom_site_fract_z
Si Si1 0.500000 0.049600 0.250000
Si Si2 0.725852 0.803939 0.691241
Si Si3 0.500000 0.483668 0.750000
Si Si4 0.567399 0.949147 0.549122
Si Si5 0.325844 0.621884 0.894352
Si Si6 0.046603 0.769939 0.402599
Si Si7 0.509007 0.405709 0.932465
O O1 0.382418 0.120960 0.288457
O O2 0.476633 0.996037 0.347319
O O3 0.734553 0.719958 0.617255
O O4 0.673379 0.748903 0.796869
O O5 0.851812 0.864261 0.638355
O O6 0.380763 0.555391 0.795627
O O7 0.474470 0.430024 0.849827
O O8 0.716439 0.939499 0.483973
O O9 0.515422 0.837655 0.570278
O O10 0.500000 0.000000 0.500000
O O11 0.444605 0.660027 0.897949
O O12 0.064000 0.819968 0.486354
O O13 0.500000 0.500000 0.000000
#
# Coordination Sequence:
#
# PCOD9281440 Si02
#       7
#     4   8   4   8   8   8   8
#     4  10  21  38  61  96 130 160 220 285 343 386
#     4  11  20  39  71 101 129 172 232 291 333 406
#     4  12  27  40  65 108 138 180 236 281 353 426
#     4  11  24  38  64  99 134 173 225 285 347 407
#     4  12  19  42  70  98 128 171 238 291 330 396
#     4  11  21  42  68  99 129 178 230 289 351 400
#     4  12  25  43  67 103 145 181 226 289 355 415
#
# _framework density 20.742329999999999
#
# number of rings (size 3 to 8) (size 9 to 14) (size 15 to 20)
#    0.000    0.667    8.333    1.500    4.667    0.000 
#    0.000    1.667    0.000    0.000    0.000    0.000 
#    0.000    0.000    0.000    0.000    0.000    0.000 
#
# Total GULP energy -133816.797219 kJ/mol
# GULP energy per Si atom -5575.699884 kJ/mol
# Density = 2.069512 g / cm^3
# Si number density = 20.742330 Si / 1000 Ang^3
#
#
#
# Elastic Constant Matrix: (Units=GPa)
#
#
# Indices 1 2 3 4 5 6 
#
# 1 59.1832 29.3747 52.8101 0.0000 0.7179 0.0000
# 2 29.3747 42.2064 40.1843 0.0000 2.1996 0.0000
# 3 52.8101 40.1843 177.5719 0.0000 6.7757 0.0000
# 4 0.0000 0.0000 0.0000 39.2603 0.0000 3.1887
# 5 0.7179 2.1996 6.7757 0.0000 39.8735 0.0000
# 6 0.0000 0.0000 0.0000 3.1887 0.0000 29.1472
#
#
#
# Elastic Compliance Matrix: (Units=1/GPa)
#
#
# Indices 1 2 3 4 5 6 
#
# 1 0.029205 -0.015392 -0.005249 0.000000 0.001215 0.000000
# 2 -0.015392 0.038322 -0.004051 0.000000 -0.001149 0.000000
# 3 -0.005249 -0.004051 0.008150 0.000000 -0.001067 0.000000
# 4 0.000000 0.000000 0.000000 0.025699 0.000000 -0.002811
# 5 0.001215 -0.001149 -0.001067 0.000000 0.025302 0.000000
# 6 0.000000 0.000000 0.000000 -0.002811 0.000000 0.034616
#
#
# Mechanical properties :
#
#
# Convention : Reuss Voigt Hill
#
# Bulk Modulus (GPa) = 38.03167 58.18886 48.11027
# Shear Modulus (GPa) = 22.78492 32.09567 27.44029
#
# Velocity S-wave (km/s) = 3.31792 3.93791 3.64113
# Velocity P-wave (km/s) = 5.74919 6.98500 6.39701
#
# Compressibility (1/GPa) = 0.02629387
#
# Stress axis : x y z
#
# Youngs Moduli (GPa) = 34.24046 26.09445 122.70036
#
# Poissons Ratio (x) = 0.40165 0.64403
# Poissons Ratio (y) = 0.52704 0.49704
# Poissons Ratio (z) = 0.17972 0.10570
#
# Static dielectric constant tensor:
#      x y z
#    x 1.758070 0.000000 0.027420 
#    y 0.000000 1.752120 0.000000 
#    z 0.027420 0.000000 1.872440 
# 
# From -- ./inp_files/144100.got.cif
#   From: 2010.05.17/outbox.cif.g08.bks.cpg/sg15_73_cif.got.tgz:144100.got - 2010.06.03 18:47:42.
