data_PCOD9281325
_publ_section_title
;
Structure prediction by ZEFSAII (Michael W. Deem and Ramdas Pophale) SiO2 
 PCOD9281325
Probable space group: C 2/C
;
_chemical_formula_sum "Si O2"
_cell_formula_units_Z 44
_cell_length_a 13.952972
_cell_length_b 7.990463
_cell_length_c 18.876999
_cell_angle_alpha 90.000000
_cell_angle_beta 97.955761
_cell_angle_gamma 90.000000
_cell_volume 2084.353571
_symmetry_space_group_name_H-M "C 2/C"
_symmetry_group_IT_number 15
_symmetry_cell_setting 'monoclinic'
loop_
_space_group_symop_operation_xyz
x,y,z
-x,y,1/2-z
-x,-y,-z
x,-y,1/2+z
1/2+x,1/2+y,z
1/2-x,1/2+y,1/2-z
1/2-x,1/2-y,-z
1/2+x,1/2-y,1/2+z
loop_
_atom_site_type_symbol
_atom_site_label
_atom_site_fract_x
_atom_site_fract_y
_atom_site_fract_z
Si Si1 0.246974 0.384190 0.559344
Si Si2 0.500000 0.710453 0.750000
Si Si3 0.305201 0.702902 0.801873
Si Si4 0.885418 0.853718 0.104614
Si Si5 0.081394 0.360706 0.024414
Si Si6 0.804807 0.809081 0.842823
O O1 0.250000 0.250000 0.500000
O O2 0.213154 0.309655 0.630096
O O3 0.350224 0.464606 0.580503
O O4 0.178871 0.532474 0.526110
O O5 0.401281 0.782736 0.774522
O O6 0.544129 0.621906 0.822514
O O7 0.219152 0.720592 0.735131
O O8 0.315190 0.507255 0.826187
O O9 0.793110 0.740380 0.122160
O O10 0.929658 0.769499 0.040265
O O11 0.105155 0.265457 0.101712
O O12 0.000000 0.500000 0.000000
#
# Coordination Sequence:
#
# PCOD9281325 Si02
#       6
#     8   4   8   8   8   8
#     4  11  22  39  63  89 118 159 204 249 304 366
#     4  10  22  36  58  86 118 152 194 252 304 354
#     4  11  21  39  62  89 120 159 203 253 307 364
#     4  10  21  39  59  85 120 161 203 250 303 365
#     4  11  22  38  58  88 123 159 200 251 306 363
#     4  10  21  38  61  84 117 161 204 249 304 371
#
# _framework density 21.109662
#
# number of rings (size 3 to 8) (size 9 to 14) (size 15 to 20)
#    0.000    1.455    0.000    8.727    0.000    2.909 
#    0.000    5.455    0.000    8.727    0.000    0.000 
#    0.000    0.000    0.000    0.000    0.000    0.000 
#
# Total GULP energy -122520.576966 kJ/mol
# GULP energy per Si atom -5569.117135 kJ/mol
# Density = 2.106162 g / cm^3
# Si number density = 21.109662 Si / 1000 Ang^3
#
#
#
# Elastic Constant Matrix: (Units=GPa)
#
#
# Indices 1 2 3 4 5 6 
#
# 1 46.8856 10.0855 40.4839 0.0000 16.7637 0.0000
# 2 10.0855 86.2563 47.4122 0.0000 3.5578 0.0000
# 3 40.4839 47.4122 168.7003 0.0000 24.3028 0.0000
# 4 0.0000 0.0000 0.0000 -138.6652 0.0000 -90.6158
# 5 16.7637 3.5578 24.3028 0.0000 40.3387 0.0000
# 6 0.0000 0.0000 0.0000 -90.6158 0.0000 -24.7168
#
#
#
# Elastic Compliance Matrix: (Units=1/GPa)
#
#
# Indices 1 2 3 4 5 6 
#
# 1 0.029477 0.000130 -0.005852 0.000000 -0.008736 0.000000
# 2 0.000130 0.013767 -0.004071 0.000000 0.001184 0.000000
# 3 -0.005852 -0.004071 0.008841 0.000000 -0.002536 0.000000
# 4 0.000000 0.000000 0.000000 0.005167 0.000000 -0.018942
# 5 -0.008736 0.001184 -0.002536 0.000000 0.029844 0.000000
# 6 0.000000 0.000000 0.000000 -0.018942 0.000000 0.028986
#
#
# Mechanical properties :
#
#
# Convention : Reuss Voigt Hill
#
# Bulk Modulus (GPa) = 30.76926 55.31173 43.04049
# Shear Modulus (GPa) = 34.12976 -11.01795 11.55590
#
# Velocity S-wave (km/s) = 4.02529 -2.28708 2.34224
# Velocity P-wave (km/s) = 6.01760 4.39143 5.26764
#
# Compressibility (1/GPa) = 0.03249997
#
# Stress axis : x y z
#
# Youngs Moduli (GPa) = 33.92512 72.63773 113.10431
#
# Poissons Ratio (x) = -0.00947 0.66187
# Poissons Ratio (y) = -0.00442 0.46045
# Poissons Ratio (z) = 0.19853 0.29571
#
# Static dielectric constant tensor:
#      x y z
#    x 1.761030 0.000000 -0.021200 
#    y 0.000000 1.798450 0.000000 
#    z -0.021200 0.000000 1.727120 
# 
# From -- ./inp_files/202581.got.cif
#   From: 2010.05.17/outbox.cif.g08.bks.cpg/sg15_102_cif.got.tgz:202581.got - 2010.06.03 18:47:42.
