data_PCOD9281668
_publ_section_title
;
Structure prediction by ZEFSAII (Michael W. Deem and Ramdas Pophale) SiO2 
 PCOD9281668
Probable space group: C 2/C
;
_chemical_formula_sum "Si O2"
_cell_formula_units_Z 48
_cell_length_a 17.008018
_cell_length_b 30.850976
_cell_length_c 8.513542
_cell_angle_alpha 90.000000
_cell_angle_beta 31.317160
_cell_angle_gamma 90.000000
_cell_volume 2321.925509
_symmetry_space_group_name_H-M "C 2/C"
_symmetry_group_IT_number 15
_symmetry_cell_setting 'monoclinic'
loop_
_space_group_symop_operation_xyz
x,y,z
-x,y,1/2-z
-x,-y,-z
x,-y,1/2+z
1/2+x,1/2+y,z
1/2-x,1/2+y,1/2-z
1/2-x,1/2-y,-z
1/2+x,1/2-y,1/2+z
loop_
_atom_site_type_symbol
_atom_site_label
_atom_site_fract_x
_atom_site_fract_y
_atom_site_fract_z
Si Si1 0.847648 0.958840 0.923011
Si Si2 0.838587 0.705374 0.382203
Si Si3 0.329712 0.789715 0.277900
Si Si4 0.839573 0.526307 0.459747
Si Si5 0.277373 0.879365 0.501900
Si Si6 0.374065 0.111563 0.192816
O O1 0.000000 0.973307 0.750000
O O2 0.731283 0.954890 0.262904
O O3 0.851309 0.911942 0.837440
O O4 0.771260 0.991177 0.928688
O O5 0.750000 0.750000 0.500000
O O6 0.831841 0.706317 0.584377
O O7 0.809440 0.654316 0.392053
O O8 0.988308 0.711512 0.015886
O O9 0.250000 0.750000 0.500000
O O10 0.250269 0.830640 0.494743
O O11 0.850480 0.566227 0.321284
O O12 0.000000 0.507731 0.250000
O O13 0.299889 0.886660 0.647916
O O14 0.444145 0.886966 0.141395
#
# Coordination Sequence:
#
# PCOD9281668 Si02
#       6
#     8   8   8   8   8   8
#     4  12  26  43  64  96 134 168 210 273 337 385
#     4  10  21  38  63  94 128 163 212 270 323 374
#     4  10  21  39  63  91 128 170 213 260 320 389
#     4  12  24  42  69  96 125 170 224 265 320 397
#     4  10  21  40  64  94 127 165 217 264 323 381
#     4  10  21  38  68  95 122 165 220 271 309 383
#
# _framework density 20.672497
#
# number of rings (size 3 to 8) (size 9 to 14) (size 15 to 20)
#    0.000    1.333    1.667    4.000    4.667    2.000 
#    6.000    0.000    3.667    0.000    0.000    0.000 
#    0.000    0.000    0.000    0.000    0.000    0.000 
#
# Total GULP energy -133631.970081 kJ/mol
# GULP energy per Si atom -5567.998753 kJ/mol
# Density = 2.062545 g / cm^3
# Si number density = 20.672497 Si / 1000 Ang^3
#
#
#
# Elastic Constant Matrix: (Units=GPa)
#
#
# Indices 1 2 3 4 5 6 
#
# 1 91.3488 55.9195 19.5961 0.0000 -4.3848 0.0000
# 2 55.9195 146.8856 17.0685 0.0000 -4.7144 0.0000
# 3 19.5961 17.0685 32.5268 0.0000 7.0638 0.0000
# 4 0.0000 0.0000 0.0000 29.6990 0.0000 5.7635
# 5 -4.3848 -4.7144 7.0638 0.0000 31.2056 0.0000
# 6 0.0000 0.0000 0.0000 5.7635 0.0000 37.0769
#
#
#
# Elastic Compliance Matrix: (Units=1/GPa)
#
#
# Indices 1 2 3 4 5 6 
#
# 1 0.015806 -0.005036 -0.007569 0.000000 0.003173 0.000000
# 2 -0.005036 0.008982 -0.001915 0.000000 0.001083 0.000000
# 3 -0.007569 -0.001915 0.038495 0.000000 -0.010067 0.000000
# 4 0.000000 0.000000 0.000000 0.034719 0.000000 -0.005397
# 5 0.003173 0.001083 -0.010067 0.000000 0.034934 0.000000
# 6 0.000000 0.000000 0.000000 -0.005397 0.000000 0.027810
#
#
# Mechanical properties :
#
#
# Convention : Reuss Voigt Hill
#
# Bulk Modulus (GPa) = 29.20240 50.65883 39.93062
# Shear Modulus (GPa) = 24.85101 31.47477 28.16289
#
# Velocity S-wave (km/s) = 3.47093 3.90621 3.69499
# Velocity P-wave (km/s) = 5.49728 6.70099 6.12876
#
# Compressibility (1/GPa) = 0.03424376
#
# Stress axis : x y z
#
# Youngs Moduli (GPa) = 63.26782 111.32811 25.97756
#
# Poissons Ratio (x) = 0.56064 0.19662
# Poissons Ratio (y) = 0.31861 0.04974
# Poissons Ratio (z) = 0.47887 0.21317
#
# Static dielectric constant tensor:
#      x y z
#    x 1.788010 0.000000 -0.067990 
#    y 0.000000 1.765040 0.000000 
#    z -0.067990 0.000000 1.763730 
# 
# From -- ./inp_files/52726.got.cif
#   From: 2010.05.17/outbox.cif.g08.bks.cpg/sg15_27_cif.got.tgz:52726.got - 2010.06.03 18:47:42.
