data_PCOD9281825
_publ_section_title
;
Structure prediction by ZEFSAII (Michael W. Deem and Ramdas Pophale) SiO2 
 PCOD9281825
Probable space group: C 2/C
;
_chemical_formula_sum "Si O2"
_cell_formula_units_Z 48
_cell_length_a 18.646644
_cell_length_b 16.091950
_cell_length_c 17.016572
_cell_angle_alpha 90.000000
_cell_angle_beta 148.418713
_cell_angle_gamma 90.000000
_cell_volume 2674.055333
_symmetry_space_group_name_H-M "C 2/C"
_symmetry_group_IT_number 15
_symmetry_cell_setting 'monoclinic'
loop_
_space_group_symop_operation_xyz
x,y,z
-x,y,1/2-z
-x,-y,-z
x,-y,1/2+z
1/2+x,1/2+y,z
1/2-x,1/2+y,1/2-z
1/2-x,1/2-y,-z
1/2+x,1/2-y,1/2+z
loop_
_atom_site_type_symbol
_atom_site_label
_atom_site_fract_x
_atom_site_fract_y
_atom_site_fract_z
Si Si1 0.951744 0.163488 0.294488
Si Si2 0.823342 0.261339 0.896968
Si Si3 0.517568 0.814512 0.857704
Si Si4 0.120908 0.993905 0.675071
Si Si5 0.096223 0.423407 0.612043
Si Si6 0.805221 0.180124 0.711373
O O1 0.811531 0.214490 0.179877
O O2 0.920194 0.070698 0.295418
O O3 0.000000 0.166011 0.250000
O O4 0.072692 0.201881 0.460563
O O5 0.904730 0.345686 0.949251
O O6 0.777965 0.219331 0.772267
O O7 0.500000 0.833374 0.750000
O O8 0.448198 0.885546 0.846462
O O9 0.434856 0.730107 0.798968
O O10 0.673496 0.807575 0.033100
O O11 0.249736 0.955888 0.748916
O O12 0.161503 0.083452 0.746598
O O13 0.000000 0.000000 0.500000
O O14 0.000000 0.500000 0.500000
#
# Coordination Sequence:
#
# PCOD9281825 Si02
#       6
#     8   8   8   8   8   8
#     4  11  23  40  60  94 124 156 202 256 307 356
#     4  10  21  38  65  86 119 162 205 242 300 370
#     4  11  24  41  63  94 124 158 207 260 315 360
#     4  11  23  40  64  91 122 164 210 247 301 369
#     4  10  21  40  63  85 120 163 206 247 301 371
#     4  11  22  41  67  88 124 165 209 250 303 376
#
# _framework density 17.950264000000001
#
# number of rings (size 3 to 8) (size 9 to 14) (size 15 to 20)
#    0.000    1.333    3.333    3.000    4.667    0.667 
#    3.000    0.833    0.000    0.000    0.000    0.000 
#    0.000    0.000    0.000    0.000    0.000    0.000 
#
# Total GULP energy -134061.408605 kJ/mol
# GULP energy per Si atom -5585.892025 kJ/mol
# Density = 1.790941 g / cm^3
# Si number density = 17.950264 Si / 1000 Ang^3
#
#
#
# Elastic Constant Matrix: (Units=GPa)
#
#
# Indices 1 2 3 4 5 6 
#
# 1 86.4148 34.4829 34.6291 0.0000 3.3377 0.0000
# 2 34.4829 123.1662 50.1361 0.0000 5.7399 0.0000
# 3 34.6291 50.1361 127.3750 0.0000 0.2339 0.0000
# 4 0.0000 0.0000 0.0000 26.6739 0.0000 3.7978
# 5 3.3377 5.7399 0.2339 0.0000 21.2492 0.0000
# 6 0.0000 0.0000 0.0000 3.7978 0.0000 12.9401
#
#
#
# Elastic Compliance Matrix: (Units=1/GPa)
#
#
# Indices 1 2 3 4 5 6 
#
# 1 0.013778 -0.002701 -0.002680 0.000000 -0.001405 0.000000
# 2 -0.002701 0.010340 -0.003331 0.000000 -0.002332 0.000000
# 3 -0.002680 -0.003331 0.009888 0.000000 0.001212 0.000000
# 4 0.000000 0.000000 0.000000 0.039125 0.000000 -0.011483
# 5 -0.001405 -0.002332 0.001212 0.000000 0.047898 0.000000
# 6 0.000000 0.000000 0.000000 -0.011483 0.000000 0.080649
#
#
# Mechanical properties :
#
#
# Convention : Reuss Voigt Hill
#
# Bulk Modulus (GPa) = 60.30723 63.93915 62.12319
# Shear Modulus (GPa) = 22.25872 26.68650 24.47261
#
# Velocity S-wave (km/s) = 3.52521 3.85995 3.69637
# Velocity P-wave (km/s) = 7.08797 7.45406 7.27332
#
# Compressibility (1/GPa) = 0.01658176
#
# Stress axis : x y z
#
# Youngs Moduli (GPa) = 72.57853 96.71118 101.12760
#
# Poissons Ratio (x) = 0.26122 0.27103
# Poissons Ratio (y) = 0.19604 0.33689
# Poissons Ratio (z) = 0.19452 0.32218
#
# Static dielectric constant tensor:
#      x y z
#    x 1.593810 0.000000 0.009390 
#    y 0.000000 1.614790 0.000000 
#    z 0.009390 0.000000 1.565730 
# 
# From -- ./inp_files/163187.got.cif
#   From: 2010.05.17/outbox.cif.g08.bks.cpg/sg15_82_cif.got.tgz:163187.got - 2010.06.03 18:47:42.
