data_PCOD9281576
_publ_section_title
;
Structure prediction by ZEFSAII (Michael W. Deem and Ramdas Pophale) SiO2 
 PCOD9281576
Probable space group: C 2/C
;
_chemical_formula_sum "Si O2"
_cell_formula_units_Z 28
_cell_length_a 7.052745
_cell_length_b 21.982221
_cell_length_c 11.547277
_cell_angle_alpha 90.000000
_cell_angle_beta 137.933681
_cell_angle_gamma 90.000000
_cell_volume 1199.438195
_symmetry_space_group_name_H-M "C 2/C"
_symmetry_group_IT_number 15
_symmetry_cell_setting 'monoclinic'
loop_
_space_group_symop_operation_xyz
x,y,z
-x,y,1/2-z
-x,-y,-z
x,-y,1/2+z
1/2+x,1/2+y,z
1/2-x,1/2+y,1/2-z
1/2-x,1/2-y,-z
1/2+x,1/2-y,1/2+z
loop_
_atom_site_type_symbol
_atom_site_label
_atom_site_fract_x
_atom_site_fract_y
_atom_site_fract_z
Si Si1 0.803503 0.437107 0.553536
Si Si2 0.251643 0.440507 0.554746
Si Si3 0.415803 0.812937 0.080654
Si Si4 0.000000 0.145810 0.750000
O O1 0.753268 0.509500 0.547907
O O2 0.550562 0.394634 0.390881
O O3 0.000000 0.415290 0.750000
O O4 0.980915 0.438859 0.514426
O O5 0.500000 0.461849 0.750000
O O6 0.285423 0.370364 0.538201
O O7 0.500000 0.822060 0.250000
O O8 0.708783 0.816450 0.139052
O O9 0.250000 0.750000 0.000000
#
# Coordination Sequence:
#
# PCOD9281576 Si02
#       4
#     8   8   8   4
#     4  10  21  38  65 100 136 179 216 276 349 405
#     4  10  21  38  62  99 136 171 229 275 333 415
#     4  11  25  45  68  98 134 183 233 285 338 408
#     4  10  24  46  68 104 138 176 232 282 348 410
#
# _framework density 23.344263000000002
#
# number of rings (size 3 to 8) (size 9 to 14) (size 15 to 20)
#    0.000    1.714    1.429    1.714    4.000    2.286 
#    0.000    0.000    0.000    0.000    0.000    0.000 
#    0.000    0.000    0.000    0.000    0.000    0.000 
#
# Total GULP energy -78032.242963 kJ/mol
# GULP energy per Si atom -5573.731640 kJ/mol
# Density = 2.329113 g / cm^3
# Si number density = 23.344263 Si / 1000 Ang^3
#
#
#
# Elastic Constant Matrix: (Units=GPa)
#
#
# Indices 1 2 3 4 5 6 
#
# 1 101.3158 35.0580 -2.5917 0.0000 9.1310 0.0000
# 2 35.0580 141.1638 40.8309 0.0000 8.3961 0.0000
# 3 -2.5917 40.8309 137.1832 0.0000 1.0897 0.0000
# 4 0.0000 0.0000 0.0000 42.3410 0.0000 -14.6103
# 5 9.1310 8.3961 1.0897 0.0000 34.1479 0.0000
# 6 0.0000 0.0000 0.0000 -14.6103 0.0000 79.3177
#
#
#
# Elastic Compliance Matrix: (Units=1/GPa)
#
#
# Indices 1 2 3 4 5 6 
#
# 1 0.011124 -0.002946 0.001105 0.000000 -0.002285 0.000000
# 2 -0.002946 0.008648 -0.002620 0.000000 -0.001255 0.000000
# 3 0.001105 -0.002620 0.008089 0.000000 0.000090 0.000000
# 4 0.000000 0.000000 0.000000 0.025221 0.000000 0.004646
# 5 -0.002285 -0.001255 0.000090 0.000000 0.030201 0.000000
# 6 0.000000 0.000000 0.000000 0.004646 0.000000 0.013463
#
#
# Mechanical properties :
#
#
# Convention : Reuss Voigt Hill
#
# Bulk Modulus (GPa) = 52.79902 58.47302 55.63602
# Shear Modulus (GPa) = 44.65028 51.58570 48.11799
#
# Velocity S-wave (km/s) = 4.37817 4.70593 4.54501
# Velocity P-wave (km/s) = 6.94439 7.39123 7.17129
#
# Compressibility (1/GPa) = 0.01893975
#
# Stress axis : x y z
#
# Youngs Moduli (GPa) = 89.89664 115.63270 123.61852
#
# Poissons Ratio (x) = 0.34070 -0.13663
# Poissons Ratio (y) = 0.26487 0.32384
# Poissons Ratio (z) = -0.09936 0.30292
#
# Static dielectric constant tensor:
#      x y z
#    x 1.777090 0.000000 0.087160 
#    y 0.000000 1.812380 0.000000 
#    z 0.087160 0.000000 1.879510 
# 
# From -- ./inp_files/77502.got.cif
#   From: 2010.05.17/outbox.cif.g08.bks.cpg/sg15_39_cif.got.tgz:77502.got - 2010.06.03 18:47:42.
