data_PCOD9281511
_publ_section_title
;
Structure prediction by ZEFSAII (Michael W. Deem and Ramdas Pophale) SiO2 
 PCOD9281511
Probable space group: C 2/C
;
_chemical_formula_sum "Si O2"
_cell_formula_units_Z 64
_cell_length_a 26.366302
_cell_length_b 11.983989
_cell_length_c 19.197504
_cell_angle_alpha 90.000000
_cell_angle_beta 29.750303
_cell_angle_gamma 90.000000
_cell_volume 3010.028540
_symmetry_space_group_name_H-M "C 2/C"
_symmetry_group_IT_number 15
_symmetry_cell_setting 'monoclinic'
loop_
_space_group_symop_operation_xyz
x,y,z
-x,y,1/2-z
-x,-y,-z
x,-y,1/2+z
1/2+x,1/2+y,z
1/2-x,1/2+y,1/2-z
1/2-x,1/2-y,-z
1/2+x,1/2-y,1/2+z
loop_
_atom_site_type_symbol
_atom_site_label
_atom_site_fract_x
_atom_site_fract_y
_atom_site_fract_z
Si Si1 0.682684 0.439743 0.150087
Si Si2 0.363889 0.323481 0.659744
Si Si3 0.340557 0.928540 0.534396
Si Si4 0.863276 0.284970 0.723206
Si Si5 0.581893 0.831895 0.526300
Si Si6 0.458020 0.498646 0.943400
Si Si7 0.955200 0.749172 0.966371
Si Si8 0.658770 0.645942 0.524569
O O1 0.782435 0.517498 0.036850
O O2 0.676185 0.341013 0.215055
O O3 0.579454 0.507664 0.287879
O O4 0.671946 0.378683 0.089368
O O5 0.257622 0.376297 0.809177
O O6 0.355175 0.230920 0.609719
O O7 0.429492 0.420938 0.542399
O O8 0.428584 0.266696 0.644966
O O9 0.425752 0.831574 0.437752
O O10 0.392080 0.038628 0.505238
O O11 0.899603 0.298747 0.601239
O O12 0.769743 0.361582 0.856717
O O13 0.963630 0.307277 0.650056
O O14 0.612049 0.767113 0.561242
O O15 0.415990 0.374617 0.000880
O O16 0.413242 0.558824 0.928832
#
# Coordination Sequence:
#
# PCOD9281511 Si02
#       8
#     8   8   8   8   8   8   8   8
#     4  12  22  40  65  95 128 171 229 273 326 404
#     4  10  21  38  62  90 134 170 218 276 327 399
#     4  12  25  38  63  97 133 175 216 273 347 397
#     4  11  22  39  61  99 135 162 214 281 347 395
#     4  10  23  40  62 101 130 168 218 276 344 395
#     4  11  21  39  65  94 123 179 225 270 330 394
#     4  11  22  40  61  93 134 169 218 271 332 404
#     4  11  23  40  64  96 127 174 221 278 330 394
#
# _framework density 21.262256000000001
#
# number of rings (size 3 to 8) (size 9 to 14) (size 15 to 20)
#    0.000    1.000    6.250    3.375    1.750    2.000 
#    2.250    0.625    0.000    1.500    0.000    0.000 
#    0.000    0.000    0.000    0.000    0.000    0.000 
#
# Total GULP energy -178665.205582 kJ/mol
# GULP energy per Si atom -5583.287674 kJ/mol
# Density = 2.121386 g / cm^3
# Si number density = 21.262256 Si / 1000 Ang^3
#
#
#
# Elastic Constant Matrix: (Units=GPa)
#
#
# Indices 1 2 3 4 5 6 
#
# 1 88.8134 40.1747 15.6638 0.0000 -27.2070 0.0000
# 2 40.1747 114.3681 17.3928 0.0000 -20.9192 0.0000
# 3 15.6638 17.3928 37.4683 0.0000 -18.8294 0.0000
# 4 0.0000 0.0000 0.0000 24.8596 0.0000 -15.0129
# 5 -27.2070 -20.9192 -18.8294 0.0000 22.8554 0.0000
# 6 0.0000 0.0000 0.0000 -15.0129 0.0000 31.6672
#
#
#
# Elastic Compliance Matrix: (Units=1/GPa)
#
#
# Indices 1 2 3 4 5 6 
#
# 1 0.019273 -0.003101 0.005948 0.000000 0.025005 0.000000
# 2 -0.003101 0.011001 -0.001033 0.000000 0.005526 0.000000
# 3 0.005948 -0.001033 0.047383 0.000000 0.045171 0.000000
# 4 0.000000 0.000000 0.000000 0.056363 0.000000 0.026721
# 5 0.025005 0.005526 0.045171 0.000000 0.115792 0.000000
# 6 0.000000 0.000000 0.000000 0.026721 0.000000 0.044246
#
#
# Mechanical properties :
#
#
# Convention : Reuss Voigt Hill
#
# Bulk Modulus (GPa) = 12.30237 43.01250 27.65744
# Shear Modulus (GPa) = 15.74684 27.03766 21.39225
#
# Velocity S-wave (km/s) = 2.72435 3.56986 3.17537
# Velocity P-wave (km/s) = 3.96165 6.10453 5.14587
#
# Compressibility (1/GPa) = 0.08128512
#
# Stress axis : x y z
#
# Youngs Moduli (GPa) = 51.88544 90.90088 21.10480
#
# Poissons Ratio (x) = 0.28190 -0.12554
# Poissons Ratio (y) = 0.16090 0.02180
# Poissons Ratio (z) = -0.30863 0.09390
#
# Static dielectric constant tensor:
#      x y z
#    x 1.845580 0.000000 -0.038140 
#    y 0.000000 1.783340 0.000000 
#    z -0.038140 0.000000 1.780200 
# 
# From -- ./inp_files/257488.got.cif
#   From: 2010.05.17/outbox.cif.g08.bks.cpg/sg15_129_cif.got.tgz:257488.got - 2010.06.03 18:47:42.
