data_PCOD9281349
_publ_section_title
;
Structure prediction by ZEFSAII (Michael W. Deem and Ramdas Pophale) SiO2 
 PCOD9281349
Probable space group: C 2/C
;
_chemical_formula_sum "Si O2"
_cell_formula_units_Z 64
_cell_length_a 22.047058
_cell_length_b 18.480240
_cell_length_c 8.169580
_cell_angle_alpha 90.000000
_cell_angle_beta 96.310535
_cell_angle_gamma 90.000000
_cell_volume 3308.403587
_symmetry_space_group_name_H-M "C 2/C"
_symmetry_group_IT_number 15
_symmetry_cell_setting 'monoclinic'
loop_
_space_group_symop_operation_xyz
x,y,z
-x,y,1/2-z
-x,-y,-z
x,-y,1/2+z
1/2+x,1/2+y,z
1/2-x,1/2+y,1/2-z
1/2-x,1/2-y,-z
1/2+x,1/2-y,1/2+z
loop_
_atom_site_type_symbol
_atom_site_label
_atom_site_fract_x
_atom_site_fract_y
_atom_site_fract_z
Si Si1 0.681329 0.177704 0.366291
Si Si2 0.251803 0.605603 0.886793
Si Si3 0.200869 0.743471 0.734410
Si Si4 0.067279 0.969243 0.728902
Si Si5 0.247375 0.450827 0.016797
Si Si6 0.878487 0.838130 0.562026
Si Si7 0.928986 0.235279 0.768817
Si Si8 0.881670 0.907274 0.075978
O O1 0.734707 0.214814 0.272907
O O2 0.685820 0.212887 0.549794
O O3 0.698104 0.094027 0.398501
O O4 0.615472 0.196943 0.275721
O O5 0.210197 0.677112 0.864033
O O6 0.241438 0.536762 0.999227
O O7 0.245228 0.572268 0.704479
O O8 0.318822 0.635538 0.945925
O O9 0.148783 0.794299 0.792145
O O10 0.085314 0.906676 0.860641
O O11 0.073903 0.935816 0.552203
O O12 0.000000 0.995107 0.750000
O O13 0.111927 0.036266 0.772622
O O14 0.313758 0.418623 0.984719
O O15 0.919322 0.791423 0.451687
O O16 0.900830 0.170783 0.646685
O O17 0.000000 0.245866 0.750000
#
# Coordination Sequence:
#
# PCOD9281349 Si02
#       8
#     8   8   8   8   8   8   8   8
#     4  10  21  40  58  86 118 157 189 246 311 344
#     4  11  22  36  55  90 117 147 190 235 309 353
#     4  10  21  38  61  87 119 148 194 256 305 350
#     4  12  24  35  51  75 112 161 200 232 275 345
#     4  11  22  36  59  83 117 151 185 246 301 354
#     4  12  22  37  57  85 117 153 203 248 289 346
#     4  12  24  39  57  81 117 161 204 240 285 353
#     4  12  21  38  52  75 113 153 196 240 284 339
#
# _framework density 19.344677000000001
#
# number of rings (size 3 to 8) (size 9 to 14) (size 15 to 20)
#    0.000    0.750    3.750    6.375    1.750    0.000 
#    0.000    0.000    0.000    0.000    0.000    8.750 
#    0.000    0.000    0.000    0.000    0.000    0.000 
#
# Total GULP energy -178928.321657 kJ/mol
# GULP energy per Si atom -5591.510052 kJ/mol
# Density = 1.930065 g / cm^3
# Si number density = 19.344677 Si / 1000 Ang^3
#
#
#
# Elastic Constant Matrix: (Units=GPa)
#
#
# Indices 1 2 3 4 5 6 
#
# 1 72.8835 21.2794 2.8947 0.0000 1.7696 0.0000
# 2 21.2794 41.1531 -2.6273 0.0000 5.5930 0.0000
# 3 2.8947 -2.6273 41.3575 0.0000 -8.4254 0.0000
# 4 0.0000 0.0000 0.0000 33.5249 0.0000 3.1437
# 5 1.7696 5.5930 -8.4254 0.0000 24.5442 0.0000
# 6 0.0000 0.0000 0.0000 3.1437 0.0000 23.1013
#
#
#
# Elastic Compliance Matrix: (Units=1/GPa)
#
#
# Indices 1 2 3 4 5 6 
#
# 1 0.016277 -0.008550 -0.001639 0.000000 0.000212 0.000000
# 2 -0.008550 0.029575 0.001322 0.000000 -0.005669 0.000000
# 3 -0.001639 0.001322 0.026171 0.000000 0.008801 0.000000
# 4 0.000000 0.000000 0.000000 0.030214 0.000000 -0.004112
# 5 0.000212 -0.005669 0.008801 0.000000 0.045040 0.000000
# 6 0.000000 0.000000 0.000000 -0.004112 0.000000 0.043847
#
#
# Mechanical properties :
#
#
# Convention : Reuss Voigt Hill
#
# Bulk Modulus (GPa) = 18.41972 22.05422 20.23697
# Shear Modulus (GPa) = 22.03084 25.15724 23.59404
#
# Velocity S-wave (km/s) = 3.37836 3.61012 3.49616
# Velocity P-wave (km/s) = 4.97597 5.36682 5.17508
#
# Compressibility (1/GPa) = 0.05428964
#
# Stress axis : x y z
#
# Youngs Moduli (GPa) = 61.43745 33.81200 38.21022
#
# Poissons Ratio (x) = 0.28909 0.06263
# Poissons Ratio (y) = 0.52528 -0.05053
# Poissons Ratio (z) = 0.10071 -0.04471
#
# Static dielectric constant tensor:
#      x y z
#    x 1.665920 0.000000 -0.005100 
#    y 0.000000 1.690300 0.000000 
#    z -0.005100 0.000000 1.742170 
# 
# From -- ./inp_files/56621.got.cif
#   From: 2010.05.17/outbox.cif.g08.bks.cpg/sg15_29_cif.got.tgz:56621.got - 2010.06.03 18:47:42.
