data_PCOD9281786
_publ_section_title
;
Structure prediction by ZEFSAII (Michael W. Deem and Ramdas Pophale) SiO2 
 PCOD9281786
Probable space group: C 2/C
;
_chemical_formula_sum "Si O2"
_cell_formula_units_Z 52
_cell_length_a 20.605921
_cell_length_b 7.452681
_cell_length_c 18.071964
_cell_angle_alpha 90.000000
_cell_angle_beta 128.852429
_cell_angle_gamma 90.000000
_cell_volume 2161.304349
_symmetry_space_group_name_H-M "C 2/C"
_symmetry_group_IT_number 15
_symmetry_cell_setting 'monoclinic'
loop_
_space_group_symop_operation_xyz
x,y,z
-x,y,1/2-z
-x,-y,-z
x,-y,1/2+z
1/2+x,1/2+y,z
1/2-x,1/2+y,1/2-z
1/2-x,1/2-y,-z
1/2+x,1/2-y,1/2+z
loop_
_atom_site_type_symbol
_atom_site_label
_atom_site_fract_x
_atom_site_fract_y
_atom_site_fract_z
Si Si1 0.092988 0.375549 0.353003
Si Si2 0.515522 0.708461 0.432931
Si Si3 0.194941 0.692679 0.240772
Si Si4 0.676026 0.737507 0.888368
Si Si5 0.500000 0.697863 0.750000
Si Si6 0.480372 0.308650 0.404699
Si Si7 0.838979 0.717265 0.739929
O O1 0.125354 0.577343 0.366040
O O2 0.158193 0.272619 0.346772
O O3 0.000000 0.364990 0.250000
O O4 0.081715 0.308925 0.428482
O O5 0.531681 0.494203 0.446742
O O6 0.500277 0.786725 0.503913
O O7 0.427190 0.713188 0.329761
O O8 0.218873 0.766737 0.338710
O O9 0.119641 0.817928 0.159647
O O10 0.165420 0.490644 0.236920
O O11 0.264759 0.688316 0.229044
O O12 0.593124 0.608179 0.826197
O O13 0.750000 0.750000 0.000000
O O14 0.510341 0.769025 0.671614
#
# Coordination Sequence:
#
# PCOD9281786 Si02
#       7
#     8   8   8   8   4   8   8
#     4   9  19  39  65  91 128 170 216 266 321 394
#     4  10  22  40  65  91 124 170 218 263 324 394
#     4  10  22  40  59  95 129 166 212 270 328 386
#     4  10  21  38  64  94 129 172 217 270 326 392
#     4  10  22  40  62  92 138 164 214 274 328 388
#     4  10  23  40  62  94 127 166 216 269 324 397
#     4  10  21  38  66  89 130 169 208 269 325 387
#
# _framework density 24.059543999999999
#
# number of rings (size 3 to 8) (size 9 to 14) (size 15 to 20)
#    0.000    2.154    0.769    0.923    7.538    1.846 
#    2.769    0.769    0.000    0.000    0.000    0.000 
#    0.000    0.000    0.000    0.000    0.000    0.000 
#
# Total GULP energy -144750.453878 kJ/mol
# GULP energy per Si atom -5567.325149 kJ/mol
# Density = 2.400478 g / cm^3
# Si number density = 24.059544 Si / 1000 Ang^3
#
#
#
# Elastic Constant Matrix: (Units=GPa)
#
#
# Indices 1 2 3 4 5 6 
#
# 1 165.7150 31.5655 8.4431 0.0000 -27.7558 0.0000
# 2 31.5655 72.1888 -0.4172 0.0000 -17.0617 0.0000
# 3 8.4431 -0.4172 60.1975 0.0000 -16.9711 0.0000
# 4 0.0000 0.0000 0.0000 10.5644 0.0000 -9.1263
# 5 -27.7558 -17.0617 -16.9711 0.0000 42.0779 0.0000
# 6 0.0000 0.0000 0.0000 -9.1263 0.0000 23.7774
#
#
#
# Elastic Compliance Matrix: (Units=1/GPa)
#
#
# Indices 1 2 3 4 5 6 
#
# 1 0.007088 -0.002198 0.000065 0.000000 0.003810 0.000000
# 2 -0.002198 0.016241 0.002108 0.000000 0.005985 0.000000
# 3 0.000065 0.002108 0.019035 0.000000 0.008575 0.000000
# 4 0.000000 0.000000 0.000000 0.141612 0.000000 0.054354
# 5 0.003810 0.005985 0.008575 0.000000 0.032164 0.000000
# 6 0.000000 0.000000 0.000000 0.054354 0.000000 0.062919
#
#
# Mechanical properties :
#
#
# Convention : Reuss Voigt Hill
#
# Bulk Modulus (GPa) = 23.63332 41.92045 32.77688
# Shear Modulus (GPa) = 17.05240 32.51795 24.78517
#
# Velocity S-wave (km/s) = 2.66514 3.68035 3.21309
# Velocity P-wave (km/s) = 4.39486 5.95998 5.23623
#
# Compressibility (1/GPa) = 0.04231314
#
# Stress axis : x y z
#
# Youngs Moduli (GPa) = 141.08160 61.57371 52.53488
#
# Poissons Ratio (x) = 0.13537 -0.00340
# Poissons Ratio (y) = 0.31016 -0.11076
# Poissons Ratio (z) = -0.00914 -0.12982
#
# Static dielectric constant tensor:
#      x y z
#    x 1.965210 0.000000 0.003440 
#    y 0.000000 2.085180 0.000000 
#    z 0.003440 0.000000 2.011670 
# 
# From -- ./inp_files/214328.got.cif
#   From: 2010.05.17/outbox.cif.g08.bks.cpg/sg15_108_cif.got.tgz:214328.got - 2010.06.03 18:47:42.
