data_PCOD9281727
_publ_section_title
;
Structure prediction by ZEFSAII (Michael W. Deem and Ramdas Pophale) SiO2 
 PCOD9281727
Probable space group: C 2/C
;
_chemical_formula_sum "Si O2"
_cell_formula_units_Z 40
_cell_length_a 10.500696
_cell_length_b 13.086871
_cell_length_c 24.604482
_cell_angle_alpha 90.000000
_cell_angle_beta 37.600821
_cell_angle_gamma 90.000000
_cell_volume 2063.048260
_symmetry_space_group_name_H-M "C 2/C"
_symmetry_group_IT_number 15
_symmetry_cell_setting 'monoclinic'
loop_
_space_group_symop_operation_xyz
x,y,z
-x,y,1/2-z
-x,-y,-z
x,-y,1/2+z
1/2+x,1/2+y,z
1/2-x,1/2+y,1/2-z
1/2-x,1/2-y,-z
1/2+x,1/2-y,1/2+z
loop_
_atom_site_type_symbol
_atom_site_label
_atom_site_fract_x
_atom_site_fract_y
_atom_site_fract_z
Si Si1 0.788326 0.245540 0.190729
Si Si2 0.815929 0.483018 0.148748
Si Si3 0.826548 0.722207 0.389135
Si Si4 0.492964 0.563828 0.165760
Si Si5 0.746497 0.580888 0.516840
O O1 0.809858 0.363813 0.166513
O O2 0.576466 0.235956 0.297651
O O3 0.752771 0.194850 0.143832
O O4 0.974248 0.183230 0.156934
O O5 0.661968 0.526416 0.153614
O O6 0.728984 0.536308 0.232666
O O7 0.045335 0.514052 0.053689
O O8 0.751895 0.640270 0.458170
O O9 0.747168 0.831196 0.439099
O O10 0.552876 0.492983 0.094629
#
# Coordination Sequence:
#
# PCOD9281727 Si02
#       5
#     8   8   8   8   8
#     4  11  21  41  66  90 123 170 208 257 322 384
#     4  11  22  41  61  93 128 162 207 269 310 373
#     4  10  21  38  64  88 121 170 212 248 327 382
#     4  11  22  38  67  92 124 165 212 258 318 373
#     4  11  21  39  64  91 124 168 206 262 315 379
#
# _framework density 19.388787000000001
#
# number of rings (size 3 to 8) (size 9 to 14) (size 15 to 20)
#    0.000    1.200    6.000    1.800    0.000    1.600 
#    0.000    0.000    8.800    0.000    0.000    0.000 
#    0.000    0.000    0.000    0.000    0.000    0.000 
#
# Total GULP energy -111435.266438 kJ/mol
# GULP energy per Si atom -5571.763322 kJ/mol
# Density = 1.934466 g / cm^3
# Si number density = 19.388787 Si / 1000 Ang^3
#
#
#
# Elastic Constant Matrix: (Units=GPa)
#
#
# Indices 1 2 3 4 5 6 
#
# 1 30.8041 53.4322 25.1578 -0.0001 -0.3519 0.0000
# 2 53.4322 124.0413 44.7286 -0.0003 -0.9496 0.0002
# 3 25.1578 44.7286 134.2934 0.0004 12.0326 -0.0001
# 4 -0.0001 -0.0003 0.0004 31.6982 0.0002 -2.8648
# 5 -0.3519 -0.9496 12.0326 0.0002 10.9057 -0.0001
# 6 0.0000 0.0002 -0.0001 -2.8648 -0.0001 22.6500
#
#
#
# Elastic Compliance Matrix: (Units=1/GPa)
#
#
# Indices 1 2 3 4 5 6 
#
# 1 0.134025 -0.054969 -0.007499 0.000000 0.007813 0.000000
# 2 -0.054969 0.031922 -0.000471 0.000000 0.001526 0.000000
# 3 -0.007499 -0.000471 0.010025 0.000000 -0.011343 0.000000
# 4 0.000000 0.000000 0.000000 0.031912 0.000000 0.004036
# 5 0.007813 0.001526 -0.011343 0.000000 0.104596 0.000000
# 6 0.000000 0.000000 0.000000 0.004036 0.000000 0.044661
#
#
# Mechanical properties :
#
#
# Convention : Reuss Voigt Hill
#
# Bulk Modulus (GPa) = 19.96294 59.53067 39.74681
# Shear Modulus (GPa) = 10.00567 24.10543 17.05555
#
# Velocity S-wave (km/s) = 2.27415 3.52982 2.96912
# Velocity P-wave (km/s) = 4.14899 6.88354 5.68319
#
# Compressibility (1/GPa) = 0.05009282
#
# Stress axis : x y z
#
# Youngs Moduli (GPa) = 7.46129 31.32650 99.75474
#
# Poissons Ratio (x) = 1.72198 0.74809
# Poissons Ratio (y) = 0.41014 0.04701
# Poissons Ratio (z) = 0.05595 0.01476
#
# Static dielectric constant tensor:
#      x y z
#    x 1.702910 0.000000 0.027830 
#    y 0.000000 1.706730 0.000000 
#    z 0.027830 0.000000 1.686260 
# 
# From -- ./inp_files/141750.got.cif
#   From: 2010.05.17/outbox.cif.g08.bks.cpg/sg15_71_cif.got.tgz:141750.got - 2010.06.03 18:47:42.
