data_PCOD9281317
_publ_section_title
;
Structure prediction by ZEFSAII (Michael W. Deem and Ramdas Pophale) SiO2 
 PCOD9281317
Probable space group: C 2/C
;
_chemical_formula_sum "Si O2"
_cell_formula_units_Z 40
_cell_length_a 21.352915
_cell_length_b 9.579679
_cell_length_c 7.947325
_cell_angle_alpha 90.000000
_cell_angle_beta 69.378809
_cell_angle_gamma 90.000000
_cell_volume 1521.500728
_symmetry_space_group_name_H-M "C 2/C"
_symmetry_group_IT_number 15
_symmetry_cell_setting 'monoclinic'
loop_
_space_group_symop_operation_xyz
x,y,z
-x,y,1/2-z
-x,-y,-z
x,-y,1/2+z
1/2+x,1/2+y,z
1/2-x,1/2+y,1/2-z
1/2-x,1/2-y,-z
1/2+x,1/2-y,1/2+z
loop_
_atom_site_type_symbol
_atom_site_label
_atom_site_fract_x
_atom_site_fract_y
_atom_site_fract_z
Si Si1 0.573184 0.195335 0.619722
Si Si2 0.723743 0.617053 0.235564
Si Si3 0.369149 0.507204 0.418587
Si Si4 0.832894 0.396888 0.162894
Si Si5 0.077569 0.291196 0.728091
O O1 0.500000 0.152094 0.750000
O O2 0.580333 0.364262 0.618834
O O3 0.625689 0.139472 0.708000
O O4 0.620354 0.871220 0.544315
O O5 0.701818 0.578516 0.068750
O O6 0.655072 0.559388 0.383328
O O7 0.791341 0.538330 0.208800
O O8 0.724470 0.775955 0.291073
O O9 0.397619 0.369734 0.300617
O O10 0.917788 0.655431 0.084233
O O11 0.000000 0.295391 0.750000
#
# Coordination Sequence:
#
# PCOD9281317 Si02
#       5
#     8   8   8   8   8
#     4  11  21  37  63  99 139 172 224 292 351 393
#     4  10  22  41  63  97 143 180 222 276 342 418
#     4  10  21  38  60  98 131 176 216 276 344 404
#     4  10  24  43  65 103 141 180 224 278 348 410
#     4  11  21  37  63  99 139 172 224 292 351 393
#
# _framework density 26.289833000000002
#
# number of rings (size 3 to 8) (size 9 to 14) (size 15 to 20)
#    0.000    1.600    4.000    0.600    0.000    8.000 
#    3.600    0.000    0.000    0.000    0.000   35.000 
#    0.000    0.000    0.000    0.000    0.000    0.000 
#
# Total GULP energy -112006.827905 kJ/mol
# GULP energy per Si atom -5600.341395 kJ/mol
# Density = 2.623000 g / cm^3
# Si number density = 26.289833 Si / 1000 Ang^3
#
#
#
# Elastic Constant Matrix: (Units=GPa)
#
#
# Indices 1 2 3 4 5 6 
#
# 1 158.4151 58.8733 72.3439 0.0000 -18.2745 0.0000
# 2 58.8733 79.9736 44.5522 0.0000 -25.0514 0.0000
# 3 72.3439 44.5522 198.8938 0.0000 -15.6121 0.0000
# 4 0.0000 0.0000 0.0000 34.9718 0.0000 3.6465
# 5 -18.2745 -25.0514 -15.6121 0.0000 35.9568 0.0000
# 6 0.0000 0.0000 0.0000 3.6465 0.0000 12.3206
#
#
#
# Elastic Compliance Matrix: (Units=1/GPa)
#
#
# Indices 1 2 3 4 5 6 
#
# 1 0.009427 -0.005803 -0.002143 0.000000 -0.000182 0.000000
# 2 -0.005803 0.021234 -0.001777 0.000000 0.011074 0.000000
# 3 -0.002143 -0.001777 0.006235 0.000000 0.000380 0.000000
# 4 0.000000 0.000000 0.000000 0.029505 0.000000 -0.008733
# 5 -0.000182 0.011074 0.000380 0.000000 0.035599 0.000000
# 6 0.000000 0.000000 0.000000 -0.008733 0.000000 0.083749
#
#
# Mechanical properties :
#
#
# Convention : Reuss Voigt Hill
#
# Bulk Modulus (GPa) = 57.30345 87.64680 72.47513
# Shear Modulus (GPa) = 23.69535 34.08405 28.88970
#
# Velocity S-wave (km/s) = 3.00544 3.60456 3.31855
# Velocity P-wave (km/s) = 5.82132 7.12284 6.50471
#
# Compressibility (1/GPa) = 0.01745096
#
# Stress axis : x y z
#
# Youngs Moduli (GPa) = 106.08032 47.09347 160.37947
#
# Poissons Ratio (x) = 0.27327 0.34375
# Poissons Ratio (y) = 0.61556 0.28494
# Poissons Ratio (z) = 0.22737 0.08367
#
# Static dielectric constant tensor:
#      x y z
#    x 1.960640 0.000000 0.022840 
#    y 0.000000 2.167150 0.000000 
#    z 0.022840 0.000000 2.146040 
# 
# From -- ./inp_files/64575.got.cif
#   From: 2010.05.17/outbox.cif.g08.bks.cpg/sg15_33_cif.got.tgz:64575.got - 2010.06.03 18:47:42.
