data_PCOD9281535
_publ_section_title
;
Structure prediction by ZEFSAII (Michael W. Deem and Ramdas Pophale) SiO2 
 PCOD9281535
Probable space group: C 2/C
;
_chemical_formula_sum "Si O2"
_cell_formula_units_Z 56
_cell_length_a 5.482355
_cell_length_b 30.244312
_cell_length_c 14.423909
_cell_angle_alpha 90.000000
_cell_angle_beta 96.788197
_cell_angle_gamma 90.000000
_cell_volume 2374.863535
_symmetry_space_group_name_H-M "C 2/C"
_symmetry_group_IT_number 15
_symmetry_cell_setting 'monoclinic'
loop_
_space_group_symop_operation_xyz
x,y,z
-x,y,1/2-z
-x,-y,-z
x,-y,1/2+z
1/2+x,1/2+y,z
1/2-x,1/2+y,1/2-z
1/2-x,1/2-y,-z
1/2+x,1/2-y,1/2+z
loop_
_atom_site_type_symbol
_atom_site_label
_atom_site_fract_x
_atom_site_fract_y
_atom_site_fract_z
Si Si1 0.601056 0.518386 0.855231
Si Si2 0.402186 0.022474 0.089702
Si Si3 0.154112 0.379601 0.852920
Si Si4 0.500000 0.166685 0.750000
Si Si5 0.615292 0.699671 0.591147
Si Si6 0.000000 0.168605 0.250000
Si Si7 0.655575 0.383239 0.353516
Si Si8 0.111975 0.704377 0.094083
O O1 0.500000 0.527031 0.750000
O O2 0.848983 0.490720 0.843930
O O3 0.657402 0.567791 0.895166
O O4 0.367855 0.496907 0.897887
O O5 0.373108 0.074769 0.095901
O O6 0.500000 0.000000 0.000000
O O7 0.417714 0.364651 0.827876
O O8 0.000000 0.383352 0.750000
O O9 0.060711 0.337742 0.905515
O O10 0.294956 0.195519 0.688942
O O11 0.585047 0.134101 0.671367
O O12 0.454162 0.655525 0.588756
O O13 0.752801 0.701550 0.498843
O O14 0.486005 0.747478 0.594824
O O15 0.205408 0.198255 0.309277
O O16 0.500000 0.382745 0.250000
#
# Coordination Sequence:
#
# PCOD9281535 Si02
#       8
#     8   8   8   4   8   4   8   8
#     4  11  25  44  71  97 135 183 227 277 345 422
#     4  12  28  44  70 105 138 179 233 293 352 410
#     4  10  24  44  68  94 132 175 229 282 340 411
#     4  10  21  38  62  92 132 172 216 268 343 408
#     4  10  22  40  62  97 130 173 217 279 339 416
#     4  10  23  42  66  94 128 180 226 282 341 400
#     4   9  22  38  64  92 130 166 217 267 336 406
#     4  10  23  40  65  93 131 170 226 275 343 405
#
# _framework density 23.580300999999999
#
# number of rings (size 3 to 8) (size 9 to 14) (size 15 to 20)
#    0.000    1.714    0.000    2.143   13.000    8.571 
#    0.000    2.857    0.000    0.000    0.000    0.000 
#    0.000    0.000    0.000    0.000    0.000    0.000 
#
# Total GULP energy -156227.999311 kJ/mol
# GULP energy per Si atom -5579.571404 kJ/mol
# Density = 2.352663 g / cm^3
# Si number density = 23.580301 Si / 1000 Ang^3
#
#
#
# Elastic Constant Matrix: (Units=GPa)
#
#
# Indices 1 2 3 4 5 6 
#
# 1 83.8164 69.7665 14.6432 0.0000 -20.6673 0.0000
# 2 69.7665 223.1303 20.1078 0.0000 -28.8002 0.0000
# 3 14.6432 20.1078 70.9043 0.0000 0.9926 0.0000
# 4 0.0000 0.0000 0.0000 -14.2079 0.0000 176.9173
# 5 -20.6673 -28.8002 0.9926 0.0000 44.6393 0.0000
# 6 0.0000 0.0000 0.0000 176.9173 0.0000 -303.6597
#
#
#
# Elastic Compliance Matrix: (Units=1/GPa)
#
#
# Indices 1 2 3 4 5 6 
#
# 1 0.017422 -0.004565 -0.002376 0.000000 0.005173 0.000000
# 2 -0.004565 0.006235 -0.000852 0.000000 0.001928 0.000000
# 3 -0.002376 -0.000852 0.014864 0.000000 -0.001980 0.000000
# 4 0.000000 0.000000 0.000000 0.011253 0.000000 0.006556
# 5 0.005173 0.001928 -0.001980 0.000000 0.026085 0.000000
# 6 0.000000 0.000000 0.000000 0.006556 0.000000 0.000527
#
#
# Mechanical properties :
#
#
# Convention : Reuss Voigt Hill
#
# Bulk Modulus (GPa) = 43.60469 65.20957 54.40713
# Shear Modulus (GPa) = 50.19321 -36.42343 6.88489
#
# Velocity S-wave (km/s) = 4.61869 -3.93447 1.71059
# Velocity P-wave (km/s) = 6.85385 2.65973 5.19853
#
# Compressibility (1/GPa) = 0.02293331
#
# Stress axis : x y z
#
# Youngs Moduli (GPa) = 57.39988 160.39011 67.27871
#
# Poissons Ratio (x) = 0.73225 0.15983
# Poissons Ratio (y) = 0.26206 0.05734
# Poissons Ratio (z) = 0.13636 0.13669
#
# Static dielectric constant tensor:
#      x y z
#    x 1.644150 0.000000 -0.175660 
#    y 0.000000 1.891590 0.000000 
#    z -0.175660 0.000000 1.859110 
# 
# From -- ./inp_files/130841.got.cif
#   From: 2010.05.17/outbox.cif.g08.bks.cpg/sg15_66_cif.got.tgz:130841.got - 2010.06.03 18:47:42.
