data_PCOD9281562
_publ_section_title
;
Structure prediction by ZEFSAII (Michael W. Deem and Ramdas Pophale) SiO2 
 PCOD9281562
Probable space group: C 2/C
;
_chemical_formula_sum "Si O2"
_cell_formula_units_Z 52
_cell_length_a 7.638111
_cell_length_b 16.589607
_cell_length_c 27.884012
_cell_angle_alpha 90.000000
_cell_angle_beta 137.853433
_cell_angle_gamma 90.000000
_cell_volume 2370.930898
_symmetry_space_group_name_H-M "C 2/C"
_symmetry_group_IT_number 15
_symmetry_cell_setting 'monoclinic'
loop_
_space_group_symop_operation_xyz
x,y,z
-x,y,1/2-z
-x,-y,-z
x,-y,1/2+z
1/2+x,1/2+y,z
1/2-x,1/2+y,1/2-z
1/2-x,1/2-y,-z
1/2+x,1/2-y,1/2+z
loop_
_atom_site_type_symbol
_atom_site_label
_atom_site_fract_x
_atom_site_fract_y
_atom_site_fract_z
Si Si1 0.460248 0.269005 0.424382
Si Si2 0.070340 0.406289 0.584056
Si Si3 0.708329 0.313809 0.210228
Si Si4 0.000000 0.709414 0.250000
Si Si5 0.502334 0.449264 0.451030
Si Si6 0.938415 0.992535 0.293895
Si Si7 0.595747 0.924898 0.837685
O O1 0.326808 0.183167 0.408579
O O2 0.457745 0.277631 0.366730
O O3 0.384410 0.357773 0.429155
O O4 0.750000 0.250000 0.500000
O O5 0.312281 0.466356 0.631343
O O6 0.809807 0.434178 0.502483
O O7 0.972762 0.405937 0.620336
O O8 0.681005 0.264670 0.253530
O O9 0.615840 0.404063 0.198603
O O10 0.000000 0.311555 0.250000
O O11 0.157845 0.654640 0.320072
O O12 0.500000 0.500000 0.500000
O O13 0.315965 0.505646 0.380893
O O14 0.000000 0.985639 0.250000
O O15 0.672882 0.043429 0.240310
#
# Coordination Sequence:
#
# PCOD9281562 Si02
#       7
#     8   8   8   4   8   8   8
#     4  10  21  40  65  96 137 182 229 286 348 416
#     4   9  19  39  66  94 135 182 223 285 351 411
#     4  12  26  45  70 102 140 186 236 296 362 418
#     4  12  26  42  68 104 140 178 246 296 346 436
#     4   9  19  38  65 100 137 185 230 283 349 422
#     4  10  22  41  66 101 140 178 230 289 350 416
#     4  10  21  38  62  96 137 175 228 284 348 417
#
# _framework density 21.932313000000001
#
# number of rings (size 3 to 8) (size 9 to 14) (size 15 to 20)
#    0.000    1.846    2.308    0.923    5.385    0.000 
#    0.000    4.615    0.000    1.846    0.000    0.000 
#    0.000    0.000    0.000    0.000    0.000    0.000 
#
# Total GULP energy -145145.999641 kJ/mol
# GULP energy per Si atom -5582.538448 kJ/mol
# Density = 2.188239 g / cm^3
# Si number density = 21.932313 Si / 1000 Ang^3
#
#
#
# Elastic Constant Matrix: (Units=GPa)
#
#
# Indices 1 2 3 4 5 6 
#
# 1 104.8835 71.1839 41.3568 0.0001 8.4127 0.0002
# 2 71.1839 180.9635 50.9475 0.0001 11.9296 0.0000
# 3 41.3568 50.9475 104.9344 0.0004 19.1440 0.0003
# 4 0.0001 0.0001 0.0004 41.4902 0.0001 -8.0532
# 5 8.4127 11.9296 19.1440 0.0001 18.4200 0.0001
# 6 0.0002 0.0000 0.0003 -8.0532 0.0001 15.8739
#
#
#
# Elastic Compliance Matrix: (Units=1/GPa)
#
#
# Indices 1 2 3 4 5 6 
#
# 1 0.013915 -0.004552 -0.003273 0.000000 -0.000005 0.000000
# 2 -0.004552 0.007909 -0.001840 0.000000 -0.001131 0.000000
# 3 -0.003273 -0.001840 0.013849 0.000000 -0.011707 0.000000
# 4 0.000000 0.000000 0.000000 0.026735 0.000000 0.013563
# 5 -0.000005 -0.001131 -0.011707 0.000000 0.067191 0.000000
# 6 0.000000 0.000000 0.000000 0.013563 0.000000 0.069877
#
#
# Mechanical properties :
#
#
# Convention : Reuss Voigt Hill
#
# Bulk Modulus (GPa) = 61.18663 79.75085 70.46874
# Shear Modulus (GPa) = 22.29640 30.30971 26.30306
#
# Velocity S-wave (km/s) = 3.19188 3.72151 3.46682
# Velocity P-wave (km/s) = 6.44536 7.40995 6.94442
#
# Compressibility (1/GPa) = 0.01634344
#
# Stress axis : x y z
#
# Youngs Moduli (GPa) = 71.86686 126.43991 72.20900
#
# Poissons Ratio (x) = 0.57550 0.23635
# Poissons Ratio (y) = 0.32711 0.13284
# Poissons Ratio (z) = 0.23523 0.23260
#
# Static dielectric constant tensor:
#      x y z
#    x 1.808110 0.000000 -0.045640 
#    y 0.000000 1.874290 0.000000 
#    z -0.045640 0.000000 1.828720 
# 
# From -- ./inp_files/308341.got.cif
#   From: 2010.05.17/outbox.cif.g08.bks.cpg/sg15_155_cif.got.tgz:308341.got - 2010.06.03 18:47:42.
