data_PCOD9281529
_publ_section_title
;
Structure prediction by ZEFSAII (Michael W. Deem and Ramdas Pophale) SiO2 
 PCOD9281529
Probable space group: C 2/C
;
_chemical_formula_sum "Si O2"
_cell_formula_units_Z 44
_cell_length_a 10.758149
_cell_length_b 20.299147
_cell_length_c 15.478234
_cell_angle_alpha 90.000000
_cell_angle_beta 40.952890
_cell_angle_gamma 90.000000
_cell_volume 2215.483627
_symmetry_space_group_name_H-M "C 2/C"
_symmetry_group_IT_number 15
_symmetry_cell_setting 'monoclinic'
loop_
_space_group_symop_operation_xyz
x,y,z
-x,y,1/2-z
-x,-y,-z
x,-y,1/2+z
1/2+x,1/2+y,z
1/2-x,1/2+y,1/2-z
1/2-x,1/2-y,-z
1/2+x,1/2-y,1/2+z
loop_
_atom_site_type_symbol
_atom_site_label
_atom_site_fract_x
_atom_site_fract_y
_atom_site_fract_z
Si Si1 0.500000 0.633110 0.750000
Si Si2 0.880325 0.407413 0.496817
Si Si3 0.229495 0.749103 0.906033
Si Si4 0.500000 0.864430 0.750000
Si Si5 0.165507 0.442789 0.504286
Si Si6 0.462444 0.228639 0.907484
Si Si7 0.000000 0.170385 0.250000
O O1 0.341198 0.686805 0.806028
O O2 0.623205 0.586594 0.622648
O O3 0.834135 0.478931 0.482932
O O4 0.971767 0.349979 0.389603
O O5 0.680850 0.375197 0.632266
O O6 0.032102 0.423279 0.492872
O O7 0.328211 0.814816 0.820217
O O8 0.022758 0.742566 0.974606
O O9 0.250000 0.750000 0.000000
O O10 0.568317 0.907855 0.635518
O O11 0.569220 0.279115 0.788673
O O12 0.250000 0.250000 0.000000
#
# Coordination Sequence:
#
# PCOD9281529 Si02
#       7
#     4   8   8   4   8   8   4
#     4  11  21  36  60  95 123 164 208 258 319 375
#     4  10  21  40  61  86 124 171 216 251 327 386
#     4  11  21  38  65  96 129 162 219 273 321 376
#     4  11  22  37  61  96 127 162 210 272 319 372
#     4  11  22  39  63  90 130 168 209 263 318 395
#     4  10  21  38  62  92 122 164 215 267 319 378
#     4  10  21  39  65  85 126 168 214 270 316 387
#
# _framework density 19.860222
#
# number of rings (size 3 to 8) (size 9 to 14) (size 15 to 20)
#    0.000    1.455    3.636    1.636    0.000    5.091 
#    0.000    0.000    4.000    9.818    0.000    0.000 
#    0.000    0.000    0.000    0.000    0.000    0.000 
#
# Total GULP energy -122494.533564 kJ/mol
# GULP energy per Si atom -5567.933344 kJ/mol
# Density = 1.981502 g / cm^3
# Si number density = 19.860222 Si / 1000 Ang^3
#
#
#
# Elastic Constant Matrix: (Units=GPa)
#
#
# Indices 1 2 3 4 5 6 
#
# 1 95.9181 37.4451 31.2890 0.0002 -6.4334 0.0000
# 2 37.4451 209.2997 57.5344 0.0005 6.3592 -0.0002
# 3 31.2890 57.5344 97.4258 0.0015 -2.8356 -0.0004
# 4 0.0002 0.0005 0.0015 27.2450 -0.0003 6.5199
# 5 -6.4334 6.3592 -2.8356 -0.0003 24.9337 0.0001
# 6 0.0000 -0.0002 -0.0004 6.5199 0.0001 16.4726
#
#
#
# Elastic Compliance Matrix: (Units=1/GPa)
#
#
# Indices 1 2 3 4 5 6 
#
# 1 0.012173 -0.001463 -0.002953 0.000000 0.003178 0.000000
# 2 -0.001463 0.005965 -0.003119 0.000000 -0.002253 0.000000
# 3 -0.002953 -0.003119 0.013099 -0.000001 0.001523 0.000001
# 4 0.000000 0.000000 -0.000001 0.040544 0.000001 -0.016047
# 5 0.003178 -0.002253 0.001523 0.000001 0.041674 0.000000
# 6 0.000000 0.000000 0.000001 -0.016047 0.000000 0.067058
#
#
# Mechanical properties :
#
#
# Convention : Reuss Voigt Hill
#
# Bulk Modulus (GPa) = 61.85018 72.79786 67.32402
# Shear Modulus (GPa) = 24.87910 32.15529 28.51719
#
# Velocity S-wave (km/s) = 3.54320 4.02814 3.79343
# Velocity P-wave (km/s) = 6.92455 7.63998 7.29105
#
# Compressibility (1/GPa) = 0.01616810
#
# Stress axis : x y z
#
# Youngs Moduli (GPa) = 82.14868 167.63763 76.34351
#
# Poissons Ratio (x) = 0.24518 0.22546
# Poissons Ratio (y) = 0.12015 0.23809
# Poissons Ratio (z) = 0.24260 0.52280
#
# Static dielectric constant tensor:
#      x y z
#    x 1.769530 0.000000 0.045220 
#    y 0.000000 1.720600 0.000000 
#    z 0.045220 0.000000 1.868600 
# 
# From -- ./inp_files/174417.got.cif
#   From: 2010.05.17/outbox.cif.g08.bks.cpg/sg15_88_cif.got.tgz:174417.got - 2010.06.03 18:47:42.
