data_PCOD9281781
_publ_section_title
;
Structure prediction by ZEFSAII (Michael W. Deem and Ramdas Pophale) SiO2 
 PCOD9281781
Probable space group: C 2/C
;
_chemical_formula_sum "Si O2"
_cell_formula_units_Z 56
_cell_length_a 16.793109
_cell_length_b 6.049277
_cell_length_c 32.672015
_cell_angle_alpha 90.000000
_cell_angle_beta 123.008851
_cell_angle_gamma 90.000000
_cell_volume 2783.289138
_symmetry_space_group_name_H-M "C 2/C"
_symmetry_group_IT_number 15
_symmetry_cell_setting 'monoclinic'
loop_
_space_group_symop_operation_xyz
x,y,z
-x,y,1/2-z
-x,-y,-z
x,-y,1/2+z
1/2+x,1/2+y,z
1/2-x,1/2+y,1/2-z
1/2-x,1/2-y,-z
1/2+x,1/2-y,1/2+z
loop_
_atom_site_type_symbol
_atom_site_label
_atom_site_fract_x
_atom_site_fract_y
_atom_site_fract_z
Si Si1 0.424174 0.199669 0.430404
Si Si2 0.161390 0.690353 0.319403
Si Si3 0.000000 0.006932 0.750000
Si Si4 0.682397 0.989471 0.674205
Si Si5 0.738030 0.487872 0.078032
Si Si6 0.370480 0.882295 0.489531
Si Si7 0.147658 0.688662 0.748879
Si Si8 0.750000 0.750000 0.500000
O O1 0.392233 0.124445 0.376648
O O2 0.357263 0.401462 0.425708
O O3 0.536190 0.238246 0.466265
O O4 0.400207 0.002344 0.455615
O O5 0.186345 0.551315 0.366518
O O6 0.145594 0.526593 0.276939
O O7 0.068573 0.841025 0.296441
O O8 0.249877 0.850305 0.333613
O O9 0.066696 0.854869 0.740996
O O10 0.751959 0.808602 0.714263
O O11 0.638445 0.125338 0.699162
O O12 0.767973 0.302960 0.054132
O O13 0.708056 0.700083 0.042986
O O14 0.330830 0.065322 0.509199
#
# Coordination Sequence:
#
# PCOD9281781 Si02
#       8
#     8   8   4   8   8   8   8   4
#     4  10  21  38  64  94 120 162 214 266 317 385
#     4  11  22  42  66  93 127 175 210 270 332 389
#     4  10  26  42  64  94 134 176 216 266 330 394
#     4  11  21  39  66  96 122 166 218 265 332 386
#     4  11  21  41  69  86 127 170 217 265 332 379
#     4  10  21  41  61  92 128 160 213 268 324 381
#     4  11  22  42  65  94 133 165 217 272 320 400
#     4  10  24  40  60  92 124 172 208 266 318 392
#
# _framework density 20.120080999999999
#
# number of rings (size 3 to 8) (size 9 to 14) (size 15 to 20)
#    0.000    1.429    4.286    1.286    0.000    0.000 
#    7.714    0.000    0.000    0.000    0.000    0.000 
#    0.000    0.000    0.000    0.000    0.000    0.000 
#
# Total GULP energy -155936.295256 kJ/mol
# GULP energy per Si atom -5569.153402 kJ/mol
# Density = 2.007429 g / cm^3
# Si number density = 20.120081 Si / 1000 Ang^3
#
#
#
# Elastic Constant Matrix: (Units=GPa)
#
#
# Indices 1 2 3 4 5 6 
#
# 1 41.8024 -1.4450 40.3947 0.0000 1.3361 0.0000
# 2 -1.4450 22.8961 1.4676 0.0001 3.1775 -0.0001
# 3 40.3947 1.4676 94.6809 0.0000 -15.0629 0.0000
# 4 0.0000 0.0001 0.0000 33.5104 0.0000 -8.3676
# 5 1.3361 3.1775 -15.0629 0.0000 20.8868 0.0000
# 6 0.0000 -0.0001 0.0000 -8.3676 0.0000 7.6583
#
#
#
# Elastic Compliance Matrix: (Units=1/GPa)
#
#
# Indices 1 2 3 4 5 6 
#
# 1 0.048175 0.007587 -0.024111 0.000000 -0.021624 0.000000
# 2 0.007587 0.046150 -0.005813 0.000000 -0.011699 0.000000
# 3 -0.024111 -0.005813 0.024088 0.000000 0.019799 0.000000
# 4 0.000000 0.000000 0.000000 0.041038 0.000000 0.044839
# 5 -0.021624 -0.011699 0.019799 0.000000 0.065318 0.000000
# 6 0.000000 0.000000 0.000000 0.044839 0.000000 0.179569
#
#
# Mechanical properties :
#
#
# Convention : Reuss Voigt Hill
#
# Bulk Modulus (GPa) = 13.56146 26.69043 20.12594
# Shear Modulus (GPa) = 10.55758 20.34191 15.44974
#
# Velocity S-wave (km/s) = 2.29318 3.18311 2.77407
# Velocity P-wave (km/s) = 3.71032 5.17725 4.50391
#
# Compressibility (1/GPa) = 0.07373839
#
# Stress axis : x y z
#
# Youngs Moduli (GPa) = 20.75782 21.66825 41.51366
#
# Poissons Ratio (x) = -0.16439 1.00094
# Poissons Ratio (y) = -0.15749 0.24133
# Poissons Ratio (z) = 0.50049 0.12596
#
# Static dielectric constant tensor:
#      x y z
#    x 1.755220 0.000000 -0.029030 
#    y 0.000000 1.755060 0.000000 
#    z -0.029030 0.000000 1.690770 
# 
# From -- ./inp_files/312375.got.cif
#   From: 2010.05.17/outbox.cif.g08.bks.cpg/sg15_157_cif.got.tgz:312375.got - 2010.06.03 18:47:42.
