data_PCOD9281858
_publ_section_title
;
Structure prediction by ZEFSAII (Michael W. Deem and Ramdas Pophale) SiO2 
 PCOD9281858
Probable space group: C 2/C
;
_chemical_formula_sum "Si O2"
_cell_formula_units_Z 64
_cell_length_a 33.000473
_cell_length_b 14.230644
_cell_length_c 9.582085
_cell_angle_alpha 90.000000
_cell_angle_beta 45.095698
_cell_angle_gamma 90.000000
_cell_volume 3187.233697
_symmetry_space_group_name_H-M "C 2/C"
_symmetry_group_IT_number 15
_symmetry_cell_setting 'monoclinic'
loop_
_space_group_symop_operation_xyz
x,y,z
-x,y,1/2-z
-x,-y,-z
x,-y,1/2+z
1/2+x,1/2+y,z
1/2-x,1/2+y,1/2-z
1/2-x,1/2-y,-z
1/2+x,1/2-y,1/2+z
loop_
_atom_site_type_symbol
_atom_site_label
_atom_site_fract_x
_atom_site_fract_y
_atom_site_fract_z
Si Si1 0.535774 0.560932 0.025646
Si Si2 0.899955 0.472780 0.205429
Si Si3 0.991608 0.391055 0.621840
Si Si4 0.637127 0.435354 0.906583
Si Si5 0.411628 0.720232 0.801581
Si Si6 0.682606 0.263463 0.180537
Si Si7 0.200054 0.967995 0.042019
Si Si8 0.170028 0.424076 0.861274
O O1 0.500000 0.590566 0.250000
O O2 0.500000 0.500000 0.000000
O O3 0.585674 0.495797 0.967775
O O4 0.561053 0.647849 0.876892
O O5 0.946137 0.550562 0.142843
O O6 0.850219 0.450083 0.435437
O O7 0.870755 0.513787 0.138997
O O8 0.943609 0.384773 0.089945
O O9 0.959954 0.293642 0.721184
O O10 0.000000 0.441559 0.750000
O O11 0.687487 0.443245 0.670519
O O12 0.611774 0.334534 0.007626
O O13 0.661426 0.470733 0.996695
O O14 0.356378 0.764019 0.857845
O O15 0.680513 0.377442 0.184101
O O16 0.664049 0.187924 0.342655
O O17 0.750000 0.250000 0.000000
O O18 0.264836 0.952218 0.834803
#
# Coordination Sequence:
#
# PCOD9281858 Si02
#       8
#     8   8   8   8   8   8   8   8
#     4  12  23  38  58  88 123 163 212 259 304 376
#     4  11  23  41  66  89 126 162 212 265 313 380
#     4  11  24  42  60  90 127 168 210 259 324 371
#     4  11  20  40  60  89 127 161 211 254 309 374
#     4  11  23  39  64  88 127 171 205 260 321 375
#     4   9  19  37  60  89 122 159 207 254 306 371
#     4  10  21  38  65  93 127 166 206 260 317 378
#     4  11  21  40  66  95 123 165 210 263 321 379
#
# _framework density 20.080107999999999
#
# number of rings (size 3 to 8) (size 9 to 14) (size 15 to 20)
#    0.000    1.250    6.250    0.750    1.750    1.000 
#    0.000    0.000    0.000    0.750    0.000    0.000 
#    0.000    0.000    0.000    0.000    0.000    0.000 
#
# Total GULP energy -178296.136459 kJ/mol
# GULP energy per Si atom -5571.754264 kJ/mol
# Density = 2.003440 g / cm^3
# Si number density = 20.080108 Si / 1000 Ang^3
#
#
#
# Elastic Constant Matrix: (Units=GPa)
#
#
# Indices 1 2 3 4 5 6 
#
# 1 99.8269 28.2706 11.8968 0.0000 -10.4214 0.0000
# 2 28.2706 44.7043 26.8935 0.0000 -6.6230 0.0000
# 3 11.8968 26.8935 101.6493 0.0000 -12.7774 0.0000
# 4 0.0000 0.0000 0.0000 31.9073 0.0000 -4.7455
# 5 -10.4214 -6.6230 -12.7774 0.0000 29.7877 0.0000
# 6 0.0000 0.0000 0.0000 -4.7455 0.0000 29.4275
#
#
#
# Elastic Compliance Matrix: (Units=1/GPa)
#
#
# Indices 1 2 3 4 5 6 
#
# 1 0.012499 -0.008093 0.001059 0.000000 0.003028 0.000000
# 2 -0.008093 0.032110 -0.007406 0.000000 0.001131 0.000000
# 3 0.001059 -0.007406 0.012169 0.000000 0.003944 0.000000
# 4 0.000000 0.000000 0.000000 0.032111 0.000000 0.005178
# 5 0.003028 0.001131 0.003944 0.000000 0.036573 0.000000
# 6 0.000000 0.000000 0.000000 0.005178 0.000000 0.034817
#
#
# Mechanical properties :
#
#
# Convention : Reuss Voigt Hill
#
# Bulk Modulus (GPa) = 35.84467 42.25580 39.05023
# Shear Modulus (GPa) = 25.19425 30.16583 27.68004
#
# Velocity S-wave (km/s) = 3.54600 3.88012 3.71682
# Velocity P-wave (km/s) = 5.88686 6.41585 6.15704
#
# Compressibility (1/GPa) = 0.02789815
#
# Stress axis : x y z
#
# Youngs Moduli (GPa) = 80.00610 31.14309 82.17636
#
# Poissons Ratio (x) = 0.25203 -0.08701
# Poissons Ratio (y) = 0.64746 0.60860
# Poissons Ratio (z) = -0.08471 0.23065
#
# Static dielectric constant tensor:
#      x y z
#    x 1.705020 0.000000 -0.013950 
#    y 0.000000 1.784110 0.000000 
#    z -0.013950 0.000000 1.767270 
# 
# From -- ./inp_files/70135.got.cif
#   From: 2010.05.17/outbox.cif.g08.bks.cpg/sg15_36_cif.got.tgz:70135.got - 2010.06.03 18:47:42.
