data_PCOD9281323
_publ_section_title
;
Structure prediction by ZEFSAII (Michael W. Deem and Ramdas Pophale) SiO2 
 PCOD9281323
Probable space group: C 2/C
;
_chemical_formula_sum "Si O2"
_cell_formula_units_Z 56
_cell_length_a 15.566493
_cell_length_b 27.098500
_cell_length_c 12.191091
_cell_angle_alpha 90.000000
_cell_angle_beta 35.325542
_cell_angle_gamma 90.000000
_cell_volume 2973.532998
_symmetry_space_group_name_H-M "C 2/C"
_symmetry_group_IT_number 15
_symmetry_cell_setting 'monoclinic'
loop_
_space_group_symop_operation_xyz
x,y,z
-x,y,1/2-z
-x,-y,-z
x,-y,1/2+z
1/2+x,1/2+y,z
1/2-x,1/2+y,1/2-z
1/2-x,1/2-y,-z
1/2+x,1/2-y,1/2+z
loop_
_atom_site_type_symbol
_atom_site_label
_atom_site_fract_x
_atom_site_fract_y
_atom_site_fract_z
Si Si1 0.188705 0.623429 0.159057
Si Si2 0.109841 0.715216 0.819015
Si Si3 0.232696 0.317468 0.829423
Si Si4 0.902182 0.963522 0.463551
Si Si5 0.874287 0.071984 0.582873
Si Si6 0.341557 0.344197 0.933501
Si Si7 0.658033 0.137072 0.949869
O O1 0.246774 0.656811 0.197567
O O2 0.012329 0.621255 0.358826
O O3 0.260549 0.569944 0.088215
O O4 0.223046 0.644608 0.003005
O O5 0.153818 0.772002 0.780923
O O6 0.216811 0.690119 0.617759
O O7 0.156387 0.687189 0.882236
O O8 0.936077 0.703071 0.981424
O O9 0.273947 0.355327 0.884123
O O10 0.000000 0.966114 0.250000
O O11 0.991894 0.936734 0.469594
O O12 0.855637 0.017994 0.550307
O O13 0.881619 0.110760 0.473758
O O14 0.744245 0.095172 0.792790
O O15 0.500000 0.318054 0.750000
#
# Coordination Sequence:
#
# PCOD9281323 Si02
#       7
#     8   8   8   8   8   8   8
#     4  10  21  38  61  83 118 156 196 242 287 345
#     4  10  22  38  60  85 120 155 197 243 292 347
#     4  11  22  38  58  88 116 156 198 241 293 346
#     4  11  21  37  61  89 118 150 192 242 294 344
#     4  10  22  38  60  89 117 151 194 241 291 346
#     4  11  21  37  59  83 119 155 192 239 291 346
#     4   9  20  41  60  83 118 157 193 241 290 342
#
# _framework density 18.832816000000001
#
# number of rings (size 3 to 8) (size 9 to 14) (size 15 to 20)
#    0.000    1.714    1.429    3.000    0.000    3.429 
#    0.000    0.000    6.286    0.000    0.000    0.000 
#    0.000    0.000    0.000    0.000    0.000    0.000 
#
# Total GULP energy -156168.722515 kJ/mol
# GULP energy per Si atom -5577.454376 kJ/mol
# Density = 1.878995 g / cm^3
# Si number density = 18.832816 Si / 1000 Ang^3
#
#
#
# Elastic Constant Matrix: (Units=GPa)
#
#
# Indices 1 2 3 4 5 6 
#
# 1 129.4977 43.8315 43.1146 -0.0005 37.9134 -0.0002
# 2 43.8315 74.7149 41.6670 -0.0009 14.8589 -0.0002
# 3 43.1146 41.6670 82.4314 -0.0034 19.3443 -0.0009
# 4 -0.0005 -0.0009 -0.0034 -13.7176 0.0017 -20.4907
# 5 37.9134 14.8589 19.3443 0.0017 26.4614 0.0005
# 6 -0.0002 -0.0002 -0.0009 -20.4907 0.0005 19.1646
#
#
#
# Elastic Compliance Matrix: (Units=1/GPa)
#
#
# Indices 1 2 3 4 5 6 
#
# 1 0.014910 -0.004431 -0.001363 -0.000001 -0.017878 -0.000001
# 2 -0.004431 0.020373 -0.008191 0.000001 0.000897 0.000000
# 3 -0.001363 -0.008191 0.018646 -0.000002 -0.007078 -0.000002
# 4 -0.000001 0.000001 -0.000002 -0.028069 0.000005 -0.030011
# 5 -0.017878 0.000897 -0.007078 0.000005 0.068077 0.000004
# 6 -0.000001 0.000000 -0.000002 -0.030011 0.000004 0.020091
#
#
# Mechanical properties :
#
#
# Convention : Reuss Voigt Hill
#
# Bulk Modulus (GPa) = 38.52319 60.43001 49.47660
# Shear Modulus (GPa) = 33.18906 16.91707 25.05307
#
# Velocity S-wave (km/s) = 4.20253 3.00038 3.65127
# Velocity P-wave (km/s) = 6.63687 6.64532 6.64110
#
# Compressibility (1/GPa) = 0.02595839
#
# Stress axis : x y z
#
# Youngs Moduli (GPa) = 67.06873 49.08351 53.63189
#
# Poissons Ratio (x) = 0.21750 0.07311
# Poissons Ratio (y) = 0.29720 0.43930
# Poissons Ratio (z) = 0.09142 0.40204
#
# Static dielectric constant tensor:
#      x y z
#    x 1.698390 0.000000 0.030410 
#    y 0.000000 1.614970 0.000000 
#    z 0.030410 0.000000 1.655810 
# 
# From -- ./inp_files/101110.got.cif
#   From: 2010.05.17/outbox.cif.g08.bks.cpg/sg15_51_cif.got.tgz:101110.got - 2010.06.03 18:47:42.
