data_PCOD9281620
_publ_section_title
;
Structure prediction by ZEFSAII (Michael W. Deem and Ramdas Pophale) SiO2 
 PCOD9281620
Probable space group: C 2/C
;
_chemical_formula_sum "Si O2"
_cell_formula_units_Z 56
_cell_length_a 24.430896
_cell_length_b 13.654042
_cell_length_c 8.769611
_cell_angle_alpha 90.000000
_cell_angle_beta 74.680331
_cell_angle_gamma 90.000000
_cell_volume 2821.423186
_symmetry_space_group_name_H-M "C 2/C"
_symmetry_group_IT_number 15
_symmetry_cell_setting 'monoclinic'
loop_
_space_group_symop_operation_xyz
x,y,z
-x,y,1/2-z
-x,-y,-z
x,-y,1/2+z
1/2+x,1/2+y,z
1/2-x,1/2+y,1/2-z
1/2-x,1/2-y,-z
1/2+x,1/2-y,1/2+z
loop_
_atom_site_type_symbol
_atom_site_label
_atom_site_fract_x
_atom_site_fract_y
_atom_site_fract_z
Si Si1 0.428837 0.760021 0.165976
Si Si2 0.160389 0.411109 0.895326
Si Si3 0.938834 0.047678 0.013917
Si Si4 0.317157 0.121347 0.763664
Si Si5 0.548995 0.199966 0.494809
Si Si6 0.600807 0.379312 0.277483
Si Si7 0.283329 0.270042 0.320002
O O1 0.432107 0.647683 0.112781
O O2 0.369013 0.808999 0.173185
O O3 0.437088 0.767073 0.342007
O O4 0.481539 0.815960 0.046395
O O5 0.176138 0.518249 0.826501
O O6 0.193547 0.329460 0.773098
O O7 0.176213 0.396778 0.060754
O O8 0.092912 0.387299 0.927527
O O9 0.895029 0.964875 0.100733
O O10 0.929446 0.074826 0.846225
O O11 0.000000 0.000000 0.000000
O O12 0.258892 0.174144 0.763298
O O13 0.564622 0.289700 0.372911
O O14 0.661823 0.336883 0.190028
O O15 0.250000 0.250000 0.500000
#
# Coordination Sequence:
#
# PCOD9281620 Si02
#       7
#     8   8   8   8   8   8   8
#     4  10  21  38  63  90 127 164 212 258 322 376
#     4  10  23  42  65  92 127 166 216 263 327 378
#     4  12  23  36  60  93 127 163 209 256 322 391
#     4  11  23  41  66  95 124 170 212 272 316 383
#     4   9  20  40  61  88 125 167 207 261 313 386
#     4  11  24  39  59  90 127 170 206 260 323 382
#     4  11  24  44  66  91 127 166 218 272 321 387
#
# _framework density 19.848140999999998
#
# number of rings (size 3 to 8) (size 9 to 14) (size 15 to 20)
#    0.000    1.429    1.429    3.429    2.000    5.143 
#    0.000    0.000    0.000    0.000    0.000    0.000 
#    0.000    0.000    0.000    0.000    0.000    0.000 
#
# Total GULP energy -156549.568177 kJ/mol
# GULP energy per Si atom -5591.056006 kJ/mol
# Density = 1.980297 g / cm^3
# Si number density = 19.848141 Si / 1000 Ang^3
#
#
#
# Elastic Constant Matrix: (Units=GPa)
#
#
# Indices 1 2 3 4 5 6 
#
# 1 105.9287 39.2378 43.2128 0.0000 -11.9449 0.0000
# 2 39.2378 96.6481 24.6970 0.0000 -12.4101 0.0000
# 3 43.2128 24.6970 83.4778 0.0000 -22.1016 0.0000
# 4 0.0000 0.0000 0.0000 32.3916 0.0000 -0.9197
# 5 -11.9449 -12.4101 -22.1016 0.0000 27.1113 0.0000
# 6 0.0000 0.0000 0.0000 -0.9197 0.0000 26.2661
#
#
#
# Elastic Compliance Matrix: (Units=1/GPa)
#
#
# Indices 1 2 3 4 5 6 
#
# 1 0.013218 -0.003965 -0.005876 0.000000 -0.000782 0.000000
# 2 -0.003965 0.012589 -0.000776 0.000000 0.003383 0.000000
# 3 -0.005876 -0.000776 0.018454 0.000000 0.012100 0.000000
# 4 0.000000 0.000000 0.000000 0.030903 0.000000 0.001082
# 5 -0.000782 0.003383 0.012100 0.000000 0.047953 0.000000
# 6 0.000000 0.000000 0.000000 0.001082 0.000000 0.038110
#
#
# Mechanical properties :
#
#
# Convention : Reuss Voigt Hill
#
# Bulk Modulus (GPa) = 43.42869 55.59441 49.51155
# Shear Modulus (GPa) = 26.29659 29.08095 27.68877
#
# Velocity S-wave (km/s) = 3.64385 3.83191 3.73906
# Velocity P-wave (km/s) = 6.29536 6.90281 6.60607
#
# Compressibility (1/GPa) = 0.02302625
#
# Stress axis : x y z
#
# Youngs Moduli (GPa) = 75.65374 79.43211 54.18754
#
# Poissons Ratio (x) = 0.31496 0.31842
# Poissons Ratio (y) = 0.29998 0.04207
# Poissons Ratio (z) = 0.44457 0.06167
#
# Static dielectric constant tensor:
#      x y z
#    x 1.704260 0.000000 -0.012370 
#    y 0.000000 1.662260 0.000000 
#    z -0.012370 0.000000 1.702600 
# 
# From -- ./inp_files/65443.got.cif
#   From: 2010.05.17/outbox.cif.g08.bks.cpg/sg15_33_cif.got.tgz:65443.got - 2010.06.03 18:47:42.
