data_PCOD9281410
_publ_section_title
;
Structure prediction by ZEFSAII (Michael W. Deem and Ramdas Pophale) SiO2 
 PCOD9281410
Probable space group: C 2/C
;
_chemical_formula_sum "Si O2"
_cell_formula_units_Z 56
_cell_length_a 30.529887
_cell_length_b 9.001986
_cell_length_c 19.775329
_cell_angle_alpha 90.000000
_cell_angle_beta 34.953168
_cell_angle_gamma 90.000000
_cell_volume 3113.659681
_symmetry_space_group_name_H-M "C 2/C"
_symmetry_group_IT_number 15
_symmetry_cell_setting 'monoclinic'
loop_
_space_group_symop_operation_xyz
x,y,z
-x,y,1/2-z
-x,-y,-z
x,-y,1/2+z
1/2+x,1/2+y,z
1/2-x,1/2+y,1/2-z
1/2-x,1/2-y,-z
1/2+x,1/2-y,1/2+z
loop_
_atom_site_type_symbol
_atom_site_label
_atom_site_fract_x
_atom_site_fract_y
_atom_site_fract_z
Si Si1 0.550873 0.906414 0.988475
Si Si2 0.280345 0.952059 0.773465
Si Si3 0.324063 0.284300 0.695836
Si Si4 0.542131 0.408055 0.258682
Si Si5 0.918970 0.658428 0.450043
Si Si6 0.460279 0.602359 0.105999
Si Si7 0.196299 0.209833 0.504493
O O1 0.633847 0.894041 0.848550
O O2 0.510203 0.750428 0.050556
O O3 0.500000 0.000000 0.000000
O O4 0.559094 0.998138 0.048119
O O5 0.232707 0.898588 0.768314
O O6 0.284429 0.131091 0.769432
O O7 0.243026 0.880919 0.887882
O O8 0.382562 0.237828 0.561943
O O9 0.375516 0.353971 0.688992
O O10 0.500000 0.486601 0.250000
O O11 0.492165 0.257346 0.335582
O O12 0.541396 0.507468 0.324790
O O13 0.627156 0.378815 0.126202
O O14 0.852557 0.665958 0.476691
O O15 0.500000 0.500000 0.000000
O O16 0.250000 0.250000 0.500000
#
# Coordination Sequence:
#
# PCOD9281410 Si02
#       7
#     8   8   8   8   8   8   8
#     4  11  21  38  65  92 120 153 209 273 308 356
#     4  10  23  39  60  91 127 154 206 259 314 360
#     4  10  21  38  61  92 120 156 204 266 306 359
#     4  10  22  40  59  88 127 163 201 248 308 378
#     4   9  19  41  60  87 119 157 213 257 303 354
#     4  12  23  37  67  94 121 160 216 257 310 366
#     4  10  23  37  63  87 126 172 207 238 310 388
#
# _framework density 17.985267
#
# number of rings (size 3 to 8) (size 9 to 14) (size 15 to 20)
#    0.000    1.714    4.286    0.000    6.000    2.286 
#    0.000    4.286    0.000    1.714    0.000    0.000 
#    0.000    0.000    0.000    0.000    0.000    0.000 
#
# Total GULP energy -156139.798024 kJ/mol
# GULP energy per Si atom -5576.421358 kJ/mol
# Density = 1.794433 g / cm^3
# Si number density = 17.985267 Si / 1000 Ang^3
#
#
#
# Elastic Constant Matrix: (Units=GPa)
#
#
# Indices 1 2 3 4 5 6 
#
# 1 186.5970 87.6562 72.1373 0.0010 0.6410 -0.0006
# 2 87.6562 100.9765 55.2437 -0.0002 -2.2591 -0.0153
# 3 72.1373 55.2437 115.3270 0.0058 -3.1396 -0.0054
# 4 0.0010 -0.0002 0.0058 17.2642 -0.0043 4.9780
# 5 0.6410 -2.2591 -3.1396 -0.0043 36.0101 0.0028
# 6 -0.0006 -0.0153 -0.0054 4.9780 0.0028 34.2497
#
#
#
# Elastic Compliance Matrix: (Units=1/GPa)
#
#
# Indices 1 2 3 4 5 6 
#
# 1 0.009675 -0.006903 -0.002768 0.000001 -0.000847 -0.000003
# 2 -0.006903 0.018349 -0.004447 0.000000 0.000886 0.000007
# 3 -0.002768 -0.004447 0.012556 -0.000004 0.000865 0.000000
# 4 0.000001 0.000000 -0.000004 0.060457 0.000008 -0.008787
# 5 -0.000847 0.000886 0.000865 0.000008 0.027916 -0.000003
# 6 -0.000003 0.000007 0.000000 -0.008787 -0.000003 0.030474
#
#
# Mechanical properties :
#
#
# Convention : Reuss Voigt Hill
#
# Bulk Modulus (GPa) = 81.01766 92.55279 86.78523
# Shear Modulus (GPa) = 26.07163 30.02902 28.05033
#
# Velocity S-wave (km/s) = 3.81151 4.09056 3.95350
# Velocity P-wave (km/s) = 8.03210 8.59548 8.31856
#
# Compressibility (1/GPa) = 0.01234299
#
# Stress axis : x y z
#
# Youngs Moduli (GPa) = 103.35811 54.49908 79.64167
#
# Poissons Ratio (x) = 0.37623 0.22045
# Poissons Ratio (y) = 0.71352 0.35419
# Poissons Ratio (z) = 0.28609 0.24237
#
# Static dielectric constant tensor:
#      x y z
#    x 1.523360 0.000550 0.048680 
#    y 0.000550 1.456650 -0.000270 
#    z 0.048680 -0.000270 1.568730 
# 
# From -- ./inp_files/221993.got.cif
#   From: 2010.05.17/outbox.cif.g08.bks.cpg/sg15_111_cif.got.tgz:221993.got - 2010.06.03 18:47:42.
