data_PCOD9281086
_publ_section_title
;
Structure prediction by ZEFSAII (Michael W. Deem and Ramdas Pophale) SiO2 
 PCOD9281086
Probable space group: C 2/C
;
_chemical_formula_sum "Si O2"
_cell_formula_units_Z 40
_cell_length_a 9.958717
_cell_length_b 25.076164
_cell_length_c 10.467235
_cell_angle_alpha 90.000000
_cell_angle_beta 138.004274
_cell_angle_gamma 90.000000
_cell_volume 1748.925781
_symmetry_space_group_name_H-M "C 2/C"
_symmetry_group_IT_number 15
_symmetry_cell_setting 'monoclinic'
loop_
_space_group_symop_operation_xyz
x,y,z
-x,y,1/2-z
-x,-y,-z
x,-y,1/2+z
1/2+x,1/2+y,z
1/2-x,1/2+y,1/2-z
1/2-x,1/2-y,-z
1/2+x,1/2-y,1/2+z
loop_
_atom_site_type_symbol
_atom_site_label
_atom_site_fract_x
_atom_site_fract_y
_atom_site_fract_z
Si Si1 0.788137 0.931295 0.364951
Si Si2 0.824581 0.814952 0.461514
Si Si3 0.951674 0.293976 0.011616
Si Si4 0.503054 0.096221 0.443239
Si Si5 0.204561 0.045007 0.052260
O O1 0.867190 0.877283 0.485749
O O2 0.968171 0.946443 0.395311
O O3 0.759208 0.981973 0.434866
O O4 0.587142 0.919652 0.141850
O O5 0.969330 0.769666 0.505196
O O6 0.630982 0.808172 0.234002
O O7 0.756375 0.801536 0.557324
O O8 0.961844 0.340136 0.913364
O O9 0.310176 0.063547 0.259756
O O10 0.679203 0.079514 0.470126
#
# Coordination Sequence:
#
# PCOD9281086 Si02
#       5
#     8   8   8   8   8
#     4  10  21  38  58  83 115 151 186 237 281 335
#     4   9  19  35  57  83 112 144 193 230 287 337
#     4   9  19  35  57  83 111 148 183 242 283 330
#     4  10  21  38  59  83 119 148 189 236 285 338
#     4  10  22  37  59  85 115 151 191 229 285 349
#
# _framework density 22.871184
#
# number of rings (size 3 to 8) (size 9 to 14) (size 15 to 20)
#    0.000    2.400    0.000    1.200    2.800    8.000 
#    0.000    3.000    4.400    0.000    0.000    0.000 
#    0.000    0.000    0.000    0.000    0.000    0.000 
#
# Total GULP energy -111589.197539 kJ/mol
# GULP energy per Si atom -5579.459877 kJ/mol
# Density = 2.281913 g / cm^3
# Si number density = 22.871184 Si / 1000 Ang^3
#
#
#
# Elastic Constant Matrix: (Units=GPa)
#
#
# Indices 1 2 3 4 5 6 
#
# 1 51.5970 46.6248 -4.0808 0.0000 4.8531 0.0000
# 2 46.6248 233.2668 21.5241 0.0000 -11.2782 0.0000
# 3 -4.0808 21.5241 52.6337 0.0000 11.7597 0.0000
# 4 0.0000 0.0000 0.0000 19.2160 0.0000 -2.4717
# 5 4.8531 -11.2782 11.7597 0.0000 21.6857 0.0000
# 6 0.0000 0.0000 0.0000 -2.4717 0.0000 43.7134
#
#
#
# Elastic Compliance Matrix: (Units=1/GPa)
#
#
# Indices 1 2 3 4 5 6 
#
# 1 0.027673 -0.006976 0.008184 0.000000 -0.014259 0.000000
# 2 -0.006976 0.006500 -0.004896 0.000000 0.007597 0.000000
# 3 0.008184 -0.004896 0.025732 0.000000 -0.018332 0.000000
# 4 0.000000 0.000000 0.000000 0.052421 0.000000 0.002964
# 5 -0.014259 0.007597 -0.018332 0.000000 0.063196 0.000000
# 6 0.000000 0.000000 0.000000 0.002964 0.000000 0.023044
#
#
# Mechanical properties :
#
#
# Convention : Reuss Voigt Hill
#
# Bulk Modulus (GPa) = 19.03721 51.73710 35.38715
# Shear Modulus (GPa) = 22.37612 35.15166 28.76389
#
# Velocity S-wave (km/s) = 3.13126 3.92464 3.55018
# Velocity P-wave (km/s) = 4.62761 6.57322 5.68428
#
# Compressibility (1/GPa) = 0.05252870
#
# Stress axis : x y z
#
# Youngs Moduli (GPa) = 36.13642 153.83771 38.86222
#
# Poissons Ratio (x) = 1.07313 -0.31805
# Poissons Ratio (y) = 0.25208 0.19029
# Poissons Ratio (z) = -0.29574 0.75326
#
# Static dielectric constant tensor:
#      x y z
#    x 1.859890 0.000000 -0.008520 
#    y 0.000000 1.918410 0.000000 
#    z -0.008520 0.000000 1.888150 
# 
# From -- ./inp_files/50475.got.cif
#   From: 2010.05.17/outbox.cif.g08.bks.cpg/sg15_26_cif.got.tgz:50475.got - 2010.06.03 18:47:42.
