data_PCOD9281895
_publ_section_title
;
Structure prediction by ZEFSAII (Michael W. Deem and Ramdas Pophale) SiO2 
 PCOD9281895
Probable space group: C 2/C
;
_chemical_formula_sum "Si O2"
_cell_formula_units_Z 40
_cell_length_a 5.562544
_cell_length_b 23.559280
_cell_length_c 13.481298
_cell_angle_alpha 90.000000
_cell_angle_beta 103.778141
_cell_angle_gamma 90.000000
_cell_volume 1715.880859
_symmetry_space_group_name_H-M "C 2/C"
_symmetry_group_IT_number 15
_symmetry_cell_setting 'monoclinic'
loop_
_space_group_symop_operation_xyz
x,y,z
-x,y,1/2-z
-x,-y,-z
x,-y,1/2+z
1/2+x,1/2+y,z
1/2-x,1/2+y,1/2-z
1/2-x,1/2-y,-z
1/2+x,1/2-y,1/2+z
loop_
_atom_site_type_symbol
_atom_site_label
_atom_site_fract_x
_atom_site_fract_y
_atom_site_fract_z
Si Si1 0.940846 0.009806 0.360854
Si Si2 0.500000 0.944386 0.250000
Si Si3 0.282158 0.381890 0.590945
Si Si4 0.500000 0.848095 0.750000
Si Si5 0.293728 0.908678 0.423853
Si Si6 0.647441 0.306115 0.541947
O O1 0.862553 0.033975 0.572628
O O2 0.000000 0.007461 0.250000
O O3 0.993113 0.073942 0.395831
O O4 0.666443 0.984544 0.336687
O O5 0.338304 0.907333 0.309694
O O6 0.181897 0.381208 0.693312
O O7 0.377757 0.320233 0.563604
O O8 0.059324 0.405521 0.503056
O O9 0.330592 0.815444 0.653829
O O10 0.161850 0.854022 0.457204
O O11 0.750000 0.250000 0.500000
#
# Coordination Sequence:
#
# PCOD9281895 Si02
#       6
#     8   4   8   4   8   8
#     4  10  21  38  65  99 138 179 221 280 351 418
#     4  10  22  41  60 102 140 182 219 272 342 424
#     4  11  23  43  69  99 138 175 232 285 349 417
#     4  10  24  45  70  98 128 176 229 294 344 402
#     4  10  23  40  64  97 137 179 230 281 346 410
#     4  11  25  46  65 100 133 182 232 290 346 412
#
# _framework density 23.311641999999999
#
# number of rings (size 3 to 8) (size 9 to 14) (size 15 to 20)
#    0.000    1.600    0.000    3.600    0.000   16.800 
#   12.600    2.000    0.000    0.000    0.000    0.000 
#    0.000    0.000    0.000    0.000    0.000    0.000 
#
# Total GULP energy -111716.197139 kJ/mol
# GULP energy per Si atom -5585.809857 kJ/mol
# Density = 2.325858 g / cm^3
# Si number density = 23.311642 Si / 1000 Ang^3
#
#
#
# Elastic Constant Matrix: (Units=GPa)
#
#
# Indices 1 2 3 4 5 6 
#
# 1 99.9728 36.8893 33.2543 0.0000 5.4483 0.0000
# 2 36.8893 118.4410 46.0437 0.0000 -9.6257 0.0000
# 3 33.2543 46.0437 123.6931 0.0000 -20.2124 0.0000
# 4 0.0000 0.0000 0.0000 34.5405 0.0000 -8.0449
# 5 5.4483 -9.6257 -20.2124 0.0000 56.0243 0.0000
# 6 0.0000 0.0000 0.0000 -8.0449 0.0000 21.6059
#
#
#
# Elastic Compliance Matrix: (Units=1/GPa)
#
#
# Indices 1 2 3 4 5 6 
#
# 1 0.012101 -0.002982 -0.002571 0.000000 -0.002617 0.000000
# 2 -0.002982 0.010615 -0.002980 0.000000 0.001039 0.000000
# 3 -0.002571 -0.002980 0.010459 0.000000 0.003511 0.000000
# 4 0.000000 0.000000 0.000000 0.031701 0.000000 0.011804
# 5 -0.002617 0.001039 0.003511 0.000000 0.019549 0.000000
# 6 0.000000 0.000000 0.000000 0.011804 0.000000 0.050679
#
#
# Mechanical properties :
#
#
# Convention : Reuss Voigt Hill
#
# Bulk Modulus (GPa) = 62.07794 63.83128 62.95461
# Shear Modulus (GPa) = 31.73850 37.49545 34.61697
#
# Velocity S-wave (km/s) = 3.69384 4.01489 3.85770
# Velocity P-wave (km/s) = 6.69925 6.99526 6.84885
#
# Compressibility (1/GPa) = 0.01610878
#
# Stress axis : x y z
#
# Youngs Moduli (GPa) = 82.63890 94.20969 95.61504
#
# Poissons Ratio (x) = 0.28095 0.24580
# Poissons Ratio (y) = 0.24644 0.28491
# Poissons Ratio (z) = 0.21244 0.28072
#
# Static dielectric constant tensor:
#      x y z
#    x 2.021610 0.000000 -0.023820 
#    y 0.000000 1.866570 0.000000 
#    z -0.023820 0.000000 1.915100 
# 
# From -- ./inp_files/73293.got.cif
#   From: 2010.05.17/outbox.cif.g08.bks.cpg/sg15_37_cif.got.tgz:73293.got - 2010.06.03 18:47:42.
