data_PCOD9281376
_publ_section_title
;
Structure prediction by ZEFSAII (Michael W. Deem and Ramdas Pophale) SiO2 
 PCOD9281376
Probable space group: C 2/C
;
_chemical_formula_sum "Si O2"
_cell_formula_units_Z 32
_cell_length_a 8.254496
_cell_length_b 11.481532
_cell_length_c 14.464405
_cell_angle_alpha 90.000000
_cell_angle_beta 104.310181
_cell_angle_gamma 90.000000
_cell_volume 1328.318206
_symmetry_space_group_name_H-M "C 2/C"
_symmetry_group_IT_number 15
_symmetry_cell_setting 'monoclinic'
loop_
_space_group_symop_operation_xyz
x,y,z
-x,y,1/2-z
-x,-y,-z
x,-y,1/2+z
1/2+x,1/2+y,z
1/2-x,1/2+y,1/2-z
1/2-x,1/2-y,-z
1/2+x,1/2-y,1/2+z
loop_
_atom_site_type_symbol
_atom_site_label
_atom_site_fract_x
_atom_site_fract_y
_atom_site_fract_z
Si Si1 0.645909 0.484599 0.873200
Si Si2 0.129127 0.763986 0.395896
Si Si3 0.289469 0.643494 0.936048
Si Si4 0.245070 0.452387 0.798484
O O1 0.676824 0.618311 0.849145
O O2 0.449221 0.451110 0.840852
O O3 0.760536 0.425193 0.811850
O O4 0.691568 0.459671 0.985200
O O5 0.250000 0.750000 0.500000
O O6 0.153188 0.650822 0.338304
O O7 0.951909 0.804195 0.410056
O O8 0.191806 0.575285 0.839637
O O9 0.250000 0.750000 0.000000
#
# Coordination Sequence:
#
# PCOD9281376 Si02
#       4
#     8   8   8   8
#     4  10  21  38  61  89 116 157 202 240 298 359
#     4  11  19  40  66  81 113 163 202 237 295 362
#     4  11  23  38  59  90 124 152 194 252 299 347
#     4  10  21  39  62  86 118 160 200 241 296 361
#
# _framework density 24.090613000000001
#
# number of rings (size 3 to 8) (size 9 to 14) (size 15 to 20)
#    0.000    1.500    5.000    1.500    3.500    1.000 
#    0.000    0.000    0.000    0.000    0.000    0.000 
#    0.000    0.000    0.000    0.000    0.000    0.000 
#
# Total GULP energy -89134.324278 kJ/mol
# GULP energy per Si atom -5570.895267 kJ/mol
# Density = 2.403578 g / cm^3
# Si number density = 24.090613 Si / 1000 Ang^3
#
#
#
# Elastic Constant Matrix: (Units=GPa)
#
#
# Indices 1 2 3 4 5 6 
#
# 1 45.8744 52.5249 39.4089 0.0000 -19.7446 0.0000
# 2 52.5249 143.7880 27.0471 0.0000 -27.7631 0.0000
# 3 39.4089 27.0471 130.5099 0.0000 -36.3756 0.0000
# 4 0.0000 0.0000 0.0000 30.1732 0.0000 -17.9041
# 5 -19.7446 -27.7631 -36.3756 0.0000 38.7035 0.0000
# 6 0.0000 0.0000 0.0000 -17.9041 0.0000 39.0934
#
#
#
# Elastic Compliance Matrix: (Units=1/GPa)
#
#
# Indices 1 2 3 4 5 6 
#
# 1 0.051192 -0.015769 -0.010926 0.000000 0.004535 0.000000
# 2 -0.015769 0.012931 0.003286 0.000000 0.004319 0.000000
# 3 -0.010926 0.003286 0.012715 0.000000 0.008733 0.000000
# 4 0.000000 0.000000 0.000000 0.045510 0.000000 0.020843
# 5 0.004535 0.004319 0.008733 0.000000 0.039457 0.000000
# 6 0.000000 0.000000 0.000000 0.020843 0.000000 0.035125
#
#
# Mechanical properties :
#
#
# Convention : Reuss Voigt Hill
#
# Bulk Modulus (GPa) = 33.31273 62.01490 47.66381
# Shear Modulus (GPa) = 19.70409 35.00678 27.35543
#
# Velocity S-wave (km/s) = 2.86303 3.81613 3.37341
# Velocity P-wave (km/s) = 4.97869 6.72424 5.91619
#
# Compressibility (1/GPa) = 0.03001856
#
# Stress axis : x y z
#
# Youngs Moduli (GPa) = 19.53432 77.33348 78.65016
#
# Poissons Ratio (x) = 1.21949 0.85932
# Poissons Ratio (y) = 0.30804 -0.25842
# Poissons Ratio (z) = 0.21343 -0.25409
#
# Static dielectric constant tensor:
#      x y z
#    x 1.930350 0.000000 -0.015340 
#    y 0.000000 2.134310 0.000000 
#    z -0.015340 0.000000 2.165210 
# 
# From -- ./inp_files/131740.got.cif
#   From: 2010.05.17/outbox.cif.g08.bks.cpg/sg15_66_cif.got.tgz:131740.got - 2010.06.03 18:47:42.
