data_PCOD9281400
_publ_section_title
;
Structure prediction by ZEFSAII (Michael W. Deem and Ramdas Pophale) SiO2 
 PCOD9281400
Probable space group: C 2/C
;
_chemical_formula_sum "Si O2"
_cell_formula_units_Z 56
_cell_length_a 9.607782
_cell_length_b 23.097035
_cell_length_c 18.911008
_cell_angle_alpha 90.000000
_cell_angle_beta 44.556170
_cell_angle_gamma 90.000000
_cell_volume 2944.344920
_symmetry_space_group_name_H-M "C 2/C"
_symmetry_group_IT_number 15
_symmetry_cell_setting 'monoclinic'
loop_
_space_group_symop_operation_xyz
x,y,z
-x,y,1/2-z
-x,-y,-z
x,-y,1/2+z
1/2+x,1/2+y,z
1/2-x,1/2+y,1/2-z
1/2-x,1/2-y,-z
1/2+x,1/2-y,1/2+z
loop_
_atom_site_type_symbol
_atom_site_label
_atom_site_fract_x
_atom_site_fract_y
_atom_site_fract_z
Si Si1 0.261318 0.179552 0.325084
Si Si2 0.037552 0.616348 0.653141
Si Si3 0.588047 0.998536 0.544663
Si Si4 0.434699 0.660894 0.561111
Si Si5 0.830223 0.803658 0.250388
Si Si6 0.977591 0.027971 0.585538
Si Si7 0.161925 0.559543 0.253537
O O1 0.500000 0.179114 0.250000
O O2 0.228258 0.241797 0.302393
O O3 0.225406 0.120660 0.293850
O O4 0.125172 0.174622 0.444075
O O5 0.844687 0.648491 0.691068
O O6 0.000000 0.602118 0.750000
O O7 0.077274 0.558079 0.594179
O O8 0.231843 0.658242 0.587772
O O9 0.500000 0.000000 0.500000
O O10 0.814430 0.981681 0.453512
O O11 0.465864 0.949941 0.630935
O O12 0.420360 0.698024 0.638162
O O13 0.447077 0.595282 0.584929
O O14 0.000000 0.813960 0.250000
O O15 0.000000 0.000000 0.500000
O O16 0.808782 0.993889 0.688126
O O17 0.000000 0.556996 0.250000
#
# Coordination Sequence:
#
# PCOD9281400 Si02
#       7
#     8   8   8   8   8   8   8
#     4  10  21  38  61  91 118 157 212 249 300 360
#     4  10  21  42  64  87 122 165 208 242 297 377
#     4  12  25  37  58  99 129 151 193 254 313 358
#     4  11  21  40  68  88 118 164 209 247 301 379
#     4  10  24  40  60  91 121 159 205 257 303 351
#     4  12  20  38  68  91 114 162 204 239 305 371
#     4  11  19  38  65  88 121 160 201 248 293 373
#
# _framework density 19.01951
#
# number of rings (size 3 to 8) (size 9 to 14) (size 15 to 20)
#    0.000    1.143    4.286    3.000    2.000    3.429 
#    2.571    0.000    6.286    0.000    0.000    0.000 
#    0.000    0.000    0.000    0.000    0.000    0.000 
#
# Total GULP energy -156203.940450 kJ/mol
# GULP energy per Si atom -5578.712159 kJ/mol
# Density = 1.897622 g / cm^3
# Si number density = 19.019510 Si / 1000 Ang^3
#
#
#
# Elastic Constant Matrix: (Units=GPa)
#
#
# Indices 1 2 3 4 5 6 
#
# 1 118.8060 21.6073 41.5849 0.0000 -2.9139 0.0000
# 2 21.6073 106.6482 32.9944 0.0000 1.2785 0.0000
# 3 41.5849 32.9944 87.3206 0.0000 -12.7080 0.0000
# 4 0.0000 0.0000 0.0000 16.1646 0.0000 -8.8993
# 5 -2.9139 1.2785 -12.7080 0.0000 32.0490 0.0000
# 6 0.0000 0.0000 0.0000 -8.8993 0.0000 6.7112
#
#
#
# Elastic Compliance Matrix: (Units=1/GPa)
#
#
# Indices 1 2 3 4 5 6 
#
# 1 0.010165 -0.000575 -0.004760 0.000000 -0.000940 0.000000
# 2 -0.000575 0.010790 -0.004111 0.000000 -0.002113 0.000000
# 3 -0.004760 -0.004111 0.016166 0.000000 0.006141 0.000000
# 4 0.000000 0.000000 0.000000 0.229164 0.000000 0.303882
# 5 -0.000940 -0.002113 0.006141 0.000000 0.033636 0.000000
# 6 0.000000 0.000000 0.000000 0.303882 0.000000 0.551964
#
#
# Mechanical properties :
#
#
# Convention : Reuss Voigt Hill
#
# Bulk Modulus (GPa) = 54.85891 56.12756 55.49324
# Shear Modulus (GPa) = 5.70220 25.42417 15.56318
#
# Velocity S-wave (km/s) = 1.73337 3.66011 2.86365
# Velocity P-wave (km/s) = 5.73692 6.88742 6.33832
#
# Compressibility (1/GPa) = 0.01822858
#
# Stress axis : x y z
#
# Youngs Moduli (GPa) = 98.37793 92.67631 61.85836
#
# Poissons Ratio (x) = 0.05333 0.29446
# Poissons Ratio (y) = 0.05661 0.25427
# Poissons Ratio (z) = 0.46830 0.38095
#
# Static dielectric constant tensor:
#      x y z
#    x 1.782510 0.000000 -0.061930 
#    y 0.000000 1.694770 0.000000 
#    z -0.061930 0.000000 1.694450 
# 
# From -- ./inp_files/137462.got.cif
#   From: 2010.05.17/outbox.cif.g08.bks.cpg/sg15_69_cif.got.tgz:137462.got - 2010.06.03 18:47:42.
