data_PCOD9281133
_publ_section_title
;
Structure prediction by ZEFSAII (Michael W. Deem and Ramdas Pophale) SiO2 
 PCOD9281133
Probable space group: C 2/C
;
_chemical_formula_sum "Si O2"
_cell_formula_units_Z 56
_cell_length_a 9.785126
_cell_length_b 28.631476
_cell_length_c 10.514600
_cell_angle_alpha 90.000000
_cell_angle_beta 104.077859
_cell_angle_gamma 90.000000
_cell_volume 2857.323836
_symmetry_space_group_name_H-M "C 2/C"
_symmetry_group_IT_number 15
_symmetry_cell_setting 'monoclinic'
loop_
_space_group_symop_operation_xyz
x,y,z
-x,y,1/2-z
-x,-y,-z
x,-y,1/2+z
1/2+x,1/2+y,z
1/2-x,1/2+y,1/2-z
1/2-x,1/2-y,-z
1/2+x,1/2-y,1/2+z
loop_
_atom_site_type_symbol
_atom_site_label
_atom_site_fract_x
_atom_site_fract_y
_atom_site_fract_z
Si Si1 0.460884 0.908516 0.565959
Si Si2 0.698266 0.077509 0.733218
Si Si3 0.690493 0.823151 0.847587
Si Si4 0.000000 0.892279 0.250000
Si Si5 0.692975 0.142815 0.974094
Si Si6 0.500000 0.994395 0.750000
Si Si7 0.504262 0.328474 0.003157
Si Si8 0.048046 0.278638 0.565675
O O1 0.376859 0.909146 0.414859
O O2 0.375695 0.874517 0.642196
O O3 0.612524 0.887533 0.562079
O O4 0.476917 0.959639 0.627226
O O5 0.674130 0.116583 0.835965
O O6 0.863801 0.076849 0.746009
O O7 0.631518 0.028987 0.763035
O O8 0.636154 0.797806 0.707511
O O9 0.613058 0.794219 0.943343
O O10 0.857986 0.825006 0.894666
O O11 0.024448 0.859001 0.377145
O O12 0.859384 0.149245 0.034034
O O13 0.614542 0.192768 0.963876
O O14 0.551515 0.276391 0.052424
#
# Coordination Sequence:
#
# PCOD9281133 Si02
#       8
#     8   8   8   4   8   4   8   8
#     4  11  21  43  63  91 122 156 206 249 305 376
#     4  11  22  40  63  94 120 161 198 250 318 362
#     4  10  21  39  62  88 122 170 203 255 310 343
#     4  10  22  40  61  88 132 158 203 250 306 372
#     4  10  22  38  59  89 127 159 199 255 301 355
#     4  12  24  40  71  92 112 158 203 256 304 378
#     4  11  21  38  62  88 126 172 205 251 303 348
#     4  10  21  38  58  93 125 162 221 250 281 367
#
# _framework density 19.598758
#
# number of rings (size 3 to 8) (size 9 to 14) (size 15 to 20)
#    0.000    1.429    2.857    3.857    0.000    0.571 
#    5.143    2.143    0.000    0.000    0.000    0.000 
#    0.000    0.000    0.000    0.000    0.000    0.000 
#
# Total GULP energy -156369.680200 kJ/mol
# GULP energy per Si atom -5584.631436 kJ/mol
# Density = 1.955415 g / cm^3
# Si number density = 19.598758 Si / 1000 Ang^3
#
#
#
# Elastic Constant Matrix: (Units=GPa)
#
#
# Indices 1 2 3 4 5 6 
#
# 1 164.0370 84.2791 67.7196 0.0000 14.5268 0.0000
# 2 84.2791 126.2156 41.2442 0.0000 8.0087 0.0000
# 3 67.7196 41.2442 83.8486 0.0000 10.2617 0.0000
# 4 0.0000 0.0000 0.0000 29.2852 0.0000 -3.2592
# 5 14.5268 8.0087 10.2617 0.0000 25.4453 0.0000
# 6 0.0000 0.0000 0.0000 -3.2592 0.0000 0.2816
#
#
#
# Elastic Compliance Matrix: (Units=1/GPa)
#
#
# Indices 1 2 3 4 5 6 
#
# 1 0.011925 -0.005671 -0.006550 0.000000 -0.002381 0.000000
# 2 -0.005671 0.012170 -0.001403 0.000000 -0.000027 0.000000
# 3 -0.006550 -0.001403 0.018298 0.000000 -0.003198 0.000000
# 4 0.000000 0.000000 0.000000 -0.118561 0.000000 -1.372145
# 5 -0.002381 -0.000027 -0.003198 0.000000 0.041958 0.000000
# 6 0.000000 0.000000 0.000000 -1.372145 0.000000-12.329271
#
#
# Mechanical properties :
#
#
# Convention : Reuss Voigt Hill
#
# Bulk Modulus (GPa) = 66.02927 84.50966 75.26947
# Shear Modulus (GPa) = -0.40548 23.05964 11.32708
#
# Velocity S-wave (km/s) = -0.45534 3.43386 2.40666
# Velocity P-wave (km/s) = 5.78681 7.67694 6.79789
#
# Compressibility (1/GPa) = 0.01514480
#
# Stress axis : x y z
#
# Youngs Moduli (GPa) = 83.85833 82.16993 54.65189
#
# Poissons Ratio (x) = 0.46600 0.35797
# Poissons Ratio (y) = 0.47558 0.07666
# Poissons Ratio (z) = 0.54927 0.11525
#
# Static dielectric constant tensor:
#      x y z
#    x 1.704730 0.000000 -0.015030 
#    y 0.000000 1.673640 0.000000 
#    z -0.015030 0.000000 1.720200 
# 
# From -- ./inp_files/81459.got.cif
#   From: 2010.05.17/outbox.cif.g08.bks.cpg/sg15_41_cif.got.tgz:81459.got - 2010.06.03 18:47:42.
