data_PCOD9281319
_publ_section_title
;
Structure prediction by ZEFSAII (Michael W. Deem and Ramdas Pophale) SiO2 
 PCOD9281319
Probable space group: C 2/C
;
_chemical_formula_sum "Si O2"
_cell_formula_units_Z 40
_cell_length_a 6.622027
_cell_length_b 18.366556
_cell_length_c 12.800782
_cell_angle_alpha 90.000000
_cell_angle_beta 81.504124
_cell_angle_gamma 90.000000
_cell_volume 1539.795706
_symmetry_space_group_name_H-M "C 2/C"
_symmetry_group_IT_number 15
_symmetry_cell_setting 'monoclinic'
loop_
_space_group_symop_operation_xyz
x,y,z
-x,y,1/2-z
-x,-y,-z
x,-y,1/2+z
1/2+x,1/2+y,z
1/2-x,1/2+y,1/2-z
1/2-x,1/2-y,-z
1/2+x,1/2-y,1/2+z
loop_
_atom_site_type_symbol
_atom_site_label
_atom_site_fract_x
_atom_site_fract_y
_atom_site_fract_z
Si Si1 0.000000 0.547991 0.250000
Si Si2 0.918175 0.052024 0.142975
Si Si3 0.500000 0.725897 0.750000
Si Si4 0.151110 0.210026 0.409156
Si Si5 0.656025 0.938769 0.955105
Si Si6 0.845888 0.674397 0.857232
O O1 0.791570 0.510185 0.311001
O O2 0.917291 0.588546 0.153405
O O3 0.868919 0.124077 0.080908
O O4 0.000000 0.078027 0.250000
O O5 0.124533 0.022020 0.076419
O O6 0.684503 0.773043 0.692548
O O7 0.617085 0.679557 0.829405
O O8 0.250000 0.250000 0.500000
O O9 0.940987 0.249108 0.391236
O O10 0.652904 0.877581 0.042909
O O11 0.500000 0.000000 0.000000
O O12 0.000000 0.651946 0.750000
#
# Coordination Sequence:
#
# PCOD9281319 Si02
#       6
#     4   8   4   8   8   8
#     4  10  23  44  68  96 130 168 226 289 352 410
#     4  10  21  39  63  97 129 172 221 279 342 414
#     4  10  21  38  60  98 144 192 224 285 352 428
#     4  11  21  35  63  97 141 180 224 281 351 425
#     4  11  25  43  69  95 133 177 236 293 350 418
#     4  10  23  41  64 101 141 186 237 283 357 428
#
# _framework density 25.977474999999998
#
# number of rings (size 3 to 8) (size 9 to 14) (size 15 to 20)
#    0.000    1.600    0.000    4.800    1.400    8.800 
#    0.000    0.000    2.200    0.000    0.000    0.000 
#    0.000    0.000    0.000    0.000    0.000    0.000 
#
# Total GULP energy -111842.702499 kJ/mol
# GULP energy per Si atom -5592.135125 kJ/mol
# Density = 2.591835 g / cm^3
# Si number density = 25.977475 Si / 1000 Ang^3
#
#
#
# Elastic Constant Matrix: (Units=GPa)
#
#
# Indices 1 2 3 4 5 6 
#
# 1 212.7439 45.9864 56.5542 0.0000 -20.4538 0.0000
# 2 45.9864 68.7298 39.3005 0.0000 -1.8008 0.0000
# 3 56.5542 39.3005 124.1355 0.0000 10.4864 0.0000
# 4 0.0000 0.0000 0.0000 27.2608 0.0000 6.0239
# 5 -20.4538 -1.8008 10.4864 0.0000 88.4219 0.0000
# 6 0.0000 0.0000 0.0000 6.0239 0.0000 40.1526
#
#
#
# Elastic Compliance Matrix: (Units=1/GPa)
#
#
# Indices 1 2 3 4 5 6 
#
# 1 0.005986 -0.002844 -0.001958 0.000000 0.001559 0.000000
# 2 -0.002844 0.019213 -0.004812 0.000000 0.000304 0.000000
# 3 -0.001958 -0.004812 0.010624 0.000000 -0.001811 0.000000
# 4 0.000000 0.000000 0.000000 0.037941 0.000000 -0.005692
# 5 0.001559 0.000304 -0.001811 0.000000 0.011891 0.000000
# 6 0.000000 0.000000 0.000000 -0.005692 0.000000 0.025759
#
#
# Mechanical properties :
#
#
# Convention : Reuss Voigt Hill
#
# Bulk Modulus (GPa) = 60.26727 76.58794 68.42761
# Shear Modulus (GPa) = 36.71765 48.75160 42.73463
#
# Velocity S-wave (km/s) = 3.76366 4.33677 4.06034
# Velocity P-wave (km/s) = 6.49130 7.39076 6.95558
#
# Compressibility (1/GPa) = 0.01659275
#
# Stress axis : x y z
#
# Youngs Moduli (GPa) = 167.06297 52.04896 94.12303
#
# Poissons Ratio (x) = 0.14805 0.18431
# Poissons Ratio (y) = 0.47520 0.45296
# Poissons Ratio (z) = 0.32714 0.25048
#
# Static dielectric constant tensor:
#      x y z
#    x 2.072220 0.000000 -0.001200 
#    y 0.000000 2.039190 0.000000 
#    z -0.001200 0.000000 2.111430 
# 
# From -- ./inp_files/73128.got.cif
#   From: 2010.05.17/outbox.cif.g08.bks.cpg/sg15_37_cif.got.tgz:73128.got - 2010.06.03 18:47:42.
