data_PCOD9281505
_publ_section_title
;
Structure prediction by ZEFSAII (Michael W. Deem and Ramdas Pophale) SiO2 
 PCOD9281505
Probable space group: C 2/C
;
_chemical_formula_sum "Si O2"
_cell_formula_units_Z 40
_cell_length_a 7.655145
_cell_length_b 17.075781
_cell_length_c 18.801647
_cell_angle_alpha 90.000000
_cell_angle_beta 131.537315
_cell_angle_gamma 90.000000
_cell_volume 1839.651810
_symmetry_space_group_name_H-M "C 2/C"
_symmetry_group_IT_number 15
_symmetry_cell_setting 'monoclinic'
loop_
_space_group_symop_operation_xyz
x,y,z
-x,y,1/2-z
-x,-y,-z
x,-y,1/2+z
1/2+x,1/2+y,z
1/2-x,1/2+y,1/2-z
1/2-x,1/2-y,-z
1/2+x,1/2-y,1/2+z
loop_
_atom_site_type_symbol
_atom_site_label
_atom_site_fract_x
_atom_site_fract_y
_atom_site_fract_z
Si Si1 0.896037 0.992552 0.550558
Si Si2 0.865559 0.780090 0.386590
Si Si3 0.410371 0.141333 0.568117
Si Si4 0.636899 0.146997 0.487026
Si Si5 0.692005 0.586353 0.739980
O O1 0.790884 0.906147 0.527379
O O2 0.683667 0.054914 0.500104
O O3 0.000000 0.000000 0.500000
O O4 0.091993 0.020603 0.659609
O O5 0.303082 0.795569 0.092615
O O6 0.790468 0.832698 0.299811
O O7 0.117213 0.818710 0.473036
O O8 0.927208 0.689636 0.389156
O O9 0.586020 0.171062 0.555210
O O10 0.555695 0.079527 0.655843
O O11 0.500000 0.592716 0.750000
#
# Coordination Sequence:
#
# PCOD9281505 Si02
#       5
#     8   8   8   8   8
#     4  11  22  40  65  96 128 172 215 267 330 382
#     4  10  21  38  62  91 122 163 216 264 320 386
#     4  12  21  40  70  90 126 179 215 264 330 397
#     4  10  21  38  62  90 126 159 214 266 319 384
#     4  11  22  40  65  93 128 169 221 265 319 396
#
# _framework density 21.743244000000001
#
# number of rings (size 3 to 8) (size 9 to 14) (size 15 to 20)
#    0.000    1.200    8.000    1.800    0.000    0.000 
#    0.000    0.000   17.600    0.000    0.000    0.000 
#    0.000    0.000    0.000    0.000    0.000    0.000 
#
# Total GULP energy -111503.577260 kJ/mol
# GULP energy per Si atom -5575.178863 kJ/mol
# Density = 2.169376 g / cm^3
# Si number density = 21.743244 Si / 1000 Ang^3
#
#
#
# Elastic Constant Matrix: (Units=GPa)
#
#
# Indices 1 2 3 4 5 6 
#
# 1 140.3416 4.8792 9.1259 0.0001 -16.1972 0.0001
# 2 4.8792 33.3562 12.0102 0.0000 4.9367 0.0000
# 3 9.1259 12.0102 84.6845 0.0000 -1.0674 0.0001
# 4 0.0001 0.0000 0.0000 31.5945 0.0000 6.2365
# 5 -16.1972 4.9367 -1.0674 0.0000 30.5552 0.0001
# 6 0.0001 0.0000 0.0001 6.2365 0.0001 30.3249
#
#
#
# Elastic Compliance Matrix: (Units=1/GPa)
#
#
# Indices 1 2 3 4 5 6 
#
# 1 0.007715 -0.001569 -0.000554 0.000000 0.004324 0.000000
# 2 -0.001569 0.032781 -0.004559 0.000000 -0.006287 0.000000
# 3 -0.000554 -0.004559 0.012526 0.000000 0.000880 0.000000
# 4 0.000000 0.000000 0.000000 0.032990 0.000000 -0.006785
# 5 0.004324 -0.006287 0.000880 0.000000 0.036066 0.000000
# 6 0.000000 0.000000 0.000000 -0.006785 0.000000 0.034372
#
#
# Mechanical properties :
#
#
# Convention : Reuss Voigt Hill
#
# Bulk Modulus (GPa) = 25.21623 34.49034 29.85329
# Shear Modulus (GPa) = 27.31729 33.98605 30.65167
#
# Velocity S-wave (km/s) = 3.54836 3.95785 3.75868
# Velocity P-wave (km/s) = 5.33013 6.06490 5.70935
#
# Compressibility (1/GPa) = 0.03965700
#
# Stress axis : x y z
#
# Youngs Moduli (GPa) = 129.61607 30.50548 79.83403
#
# Poissons Ratio (x) = 0.04786 0.04426
# Poissons Ratio (y) = 0.20335 0.36399
# Poissons Ratio (z) = 0.07186 0.13908
#
# Static dielectric constant tensor:
#      x y z
#    x 1.801600 0.000000 0.006770 
#    y 0.000000 1.913720 0.000000 
#    z 0.006770 0.000000 1.822210 
# 
# From -- ./inp_files/232929.got.cif
#   From: 2010.05.17/outbox.cif.g08.bks.cpg/sg15_117_cif.got.tgz:232929.got - 2010.06.03 18:47:42.
