data_PCOD9281942
_publ_section_title
;
Structure prediction by ZEFSAII (Michael W. Deem and Ramdas Pophale) SiO2 
 PCOD9281942
Probable space group: C 2/C
;
_chemical_formula_sum "Si O2"
_cell_formula_units_Z 56
_cell_length_a 9.282595
_cell_length_b 18.930595
_cell_length_c 16.533024
_cell_angle_alpha 90.000000
_cell_angle_beta 57.333063
_cell_angle_gamma 90.000000
_cell_volume 2445.718319
_symmetry_space_group_name_H-M "C 2/C"
_symmetry_group_IT_number 15
_symmetry_cell_setting 'monoclinic'
loop_
_space_group_symop_operation_xyz
x,y,z
-x,y,1/2-z
-x,-y,-z
x,-y,1/2+z
1/2+x,1/2+y,z
1/2-x,1/2+y,1/2-z
1/2-x,1/2-y,-z
1/2+x,1/2-y,1/2+z
loop_
_atom_site_type_symbol
_atom_site_label
_atom_site_fract_x
_atom_site_fract_y
_atom_site_fract_z
Si Si1 0.795339 0.669327 0.969597
Si Si2 0.154999 0.548994 0.136221
Si Si3 0.618804 0.587260 0.899005
Si Si4 0.630519 0.916997 0.892505
Si Si5 0.665106 0.833182 0.306136
Si Si6 0.306936 0.820533 0.782315
Si Si7 0.341797 0.558838 0.860454
O O1 0.635393 0.632902 0.974662
O O2 0.961445 0.659332 0.861915
O O3 0.750000 0.750000 0.000000
O O4 0.850090 0.630066 0.034417
O O5 0.280882 0.484715 0.111985
O O6 0.055837 0.555973 0.081270
O O7 0.240531 0.623097 0.134515
O O8 0.000000 0.539206 0.250000
O O9 0.723710 0.631292 0.798689
O O10 0.433783 0.569551 0.918535
O O11 0.691943 0.866723 0.800139
O O12 0.259876 0.013027 0.124737
O O13 0.702503 0.750343 0.302918
O O14 0.729355 0.874602 0.366596
O O15 0.500000 0.798583 0.750000
O O16 0.500000 0.555440 0.750000
#
# Coordination Sequence:
#
# PCOD9281942 Si02
#       7
#     8   8   8   8   8   8   8
#     4  12  27  41  58  88 124 161 200 244 305 364
#     4   9  18  36  63  89 115 153 197 237 292 357
#     4  11  22  40  64  90 118 155 204 251 295 357
#     4  10  22  40  60  88 123 156 195 248 301 355
#     4  11  22  40  64  87 120 162 203 249 297 354
#     4   9  18  37  65  92 119 156 202 251 299 352
#     4  10  21  38  66  94 115 152 206 249 293 356
#
# _framework density 22.897158000000001
#
# number of rings (size 3 to 8) (size 9 to 14) (size 15 to 20)
#    0.000    2.000    0.000    7.714    0.000    6.286 
#    0.000    6.429    0.000    0.000    0.000    0.000 
#    0.000    0.000    0.000    0.000    0.000    0.000 
#
# Total GULP energy -156665.848115 kJ/mol
# GULP energy per Si atom -5595.208861 kJ/mol
# Density = 2.284504 g / cm^3
# Si number density = 22.897158 Si / 1000 Ang^3
#
#
#
# Elastic Constant Matrix: (Units=GPa)
#
#
# Indices 1 2 3 4 5 6 
#
# 1 195.3352 86.0883 47.9055 0.0000 20.3469 0.0000
# 2 86.0883 154.8147 15.5553 0.0000 3.6789 0.0000
# 3 47.9055 15.5553 52.7066 0.0000 8.0540 0.0000
# 4 0.0000 0.0000 0.0000 38.3136 0.0000 -17.7713
# 5 20.3469 3.6789 8.0540 0.0000 40.4342 0.0000
# 6 0.0000 0.0000 0.0000 -17.7713 0.0000 92.5277
#
#
#
# Elastic Compliance Matrix: (Units=1/GPa)
#
#
# Indices 1 2 3 4 5 6 
#
# 1 0.008818 -0.004199 -0.006349 0.000000 -0.002791 0.000000
# 2 -0.004199 0.008658 0.001092 0.000000 0.001108 0.000000
# 3 -0.006349 0.001092 0.024700 0.000000 -0.001824 0.000000
# 4 0.000000 0.000000 0.000000 0.028653 0.000000 0.005503
# 5 -0.002791 0.001108 -0.001824 0.000000 0.026398 0.000000
# 6 0.000000 0.000000 0.000000 0.005503 0.000000 0.011865
#
#
# Mechanical properties :
#
#
# Convention : Reuss Voigt Hill
#
# Bulk Modulus (GPa) = 42.98459 77.99498 60.48978
# Shear Modulus (GPa) = 36.83014 51.14227 43.98621
#
# Velocity S-wave (km/s) = 4.01497 4.73119 4.38771
# Velocity P-wave (km/s) = 6.34877 7.99891 7.22113
#
# Compressibility (1/GPa) = 0.02326415
#
# Stress axis : x y z
#
# Youngs Moduli (GPa) = 113.40790 115.49629 40.48591
#
# Poissons Ratio (x) = 0.48498 0.25704
# Poissons Ratio (y) = 0.47621 -0.04421
# Poissons Ratio (z) = 0.72001 -0.12612
#
# Static dielectric constant tensor:
#      x y z
#    x 1.842790 0.000000 0.007910 
#    y 0.000000 1.780340 0.000000 
#    z 0.007910 0.000000 1.952080 
# 
# From -- ./inp_files/192019.got.cif
#   From: 2010.05.17/outbox.cif.g08.bks.cpg/sg15_97_cif.got.tgz:192019.got - 2010.06.03 18:47:42.
