data_PCOD9281602
_publ_section_title
;
Structure prediction by ZEFSAII (Michael W. Deem and Ramdas Pophale) SiO2 
 PCOD9281602
Probable space group: C 2/C
;
_chemical_formula_sum "Si O2"
_cell_formula_units_Z 56
_cell_length_a 9.225722
_cell_length_b 23.751526
_cell_length_c 15.918325
_cell_angle_alpha 90.000000
_cell_angle_beta 124.419770
_cell_angle_gamma 90.000000
_cell_volume 2877.400373
_symmetry_space_group_name_H-M "C 2/C"
_symmetry_group_IT_number 15
_symmetry_cell_setting 'monoclinic'
loop_
_space_group_symop_operation_xyz
x,y,z
-x,y,1/2-z
-x,-y,-z
x,-y,1/2+z
1/2+x,1/2+y,z
1/2-x,1/2+y,1/2-z
1/2-x,1/2-y,-z
1/2+x,1/2-y,1/2+z
loop_
_atom_site_type_symbol
_atom_site_label
_atom_site_fract_x
_atom_site_fract_y
_atom_site_fract_z
Si Si1 0.895847 0.187558 0.628654
Si Si2 0.189054 0.528619 0.043460
Si Si3 0.555377 0.194527 0.441731
Si Si4 0.300167 0.630536 0.201802
Si Si5 0.510670 0.564693 0.853395
Si Si6 0.689122 0.978693 0.357581
Si Si7 0.192477 0.392972 0.849971
O O1 0.682070 0.187769 0.564150
O O2 0.942293 0.241274 0.587349
O O3 0.000000 0.194325 0.750000
O O4 0.948744 0.128162 0.605013
O O5 0.246029 0.573186 0.133853
O O6 0.336875 0.480977 0.088950
O O7 0.181897 0.552012 0.945649
O O8 0.000000 0.500000 0.000000
O O9 0.356760 0.172217 0.377584
O O10 0.658106 0.155901 0.406152
O O11 0.500000 0.647042 0.250000
O O12 0.299013 0.623454 0.302290
O O13 0.500000 0.570515 0.750000
O O14 0.336822 0.544195 0.843366
O O15 0.500000 0.975703 0.250000
O O16 0.740954 0.044118 0.393832
O O17 0.000000 0.402027 0.750000
#
# Coordination Sequence:
#
# PCOD9281602 Si02
#       7
#     8   8   8   8   8   8   8
#     4  10  21  38  63  89 115 154 206 253 296 356
#     4  12  22  35  57  87 123 159 199 247 305 364
#     4  10  21  40  65  87 112 156 208 252 294 352
#     4  11  22  36  59  89 121 153 196 253 308 358
#     4  11  22  37  57  85 120 153 190 241 304 366
#     4  11  22  36  55  83 119 158 196 239 296 364
#     4   9  17  34  58  82 111 152 202 245 284 346
#
# _framework density 19.462011
#
# number of rings (size 3 to 8) (size 9 to 14) (size 15 to 20)
#    0.000    1.429    0.000    9.000    0.000    2.286 
#    0.000    0.714    0.000   13.714    0.000    0.000 
#    0.000    0.000    0.000    0.000    0.000    0.000 
#
# Total GULP energy -156080.796498 kJ/mol
# GULP energy per Si atom -5574.314161 kJ/mol
# Density = 1.941772 g / cm^3
# Si number density = 19.462011 Si / 1000 Ang^3
#
#
#
# Elastic Constant Matrix: (Units=GPa)
#
#
# Indices 1 2 3 4 5 6 
#
# 1 137.8563 29.3921 35.2758 0.0000 26.3595 0.0000
# 2 29.3921 112.5841 28.3200 0.0000 21.9808 0.0000
# 3 35.2758 28.3200 91.2276 0.0000 22.8688 0.0000
# 4 0.0000 0.0000 0.0000 15.5108 0.0000 15.0092
# 5 26.3595 21.9808 22.8688 0.0000 33.1424 0.0000
# 6 0.0000 0.0000 0.0000 15.0092 0.0000 -5.1501
#
#
#
# Elastic Compliance Matrix: (Units=1/GPa)
#
#
# Indices 1 2 3 4 5 6 
#
# 1 0.008914 -0.000832 -0.001874 0.000000 -0.005245 0.000000
# 2 -0.000832 0.010526 -0.001647 0.000000 -0.005183 0.000000
# 3 -0.001874 -0.001647 0.013966 0.000000 -0.007054 0.000000
# 4 0.000000 0.000000 0.000000 0.016877 0.000000 0.049185
# 5 -0.005245 -0.005183 -0.007054 0.000000 0.042649 0.000000
# 6 0.000000 0.000000 0.000000 0.049185 0.000000 -0.050829
#
#
# Mechanical properties :
#
#
# Convention : Reuss Voigt Hill
#
# Bulk Modulus (GPa) = 40.48474 58.62708 49.55591
# Shear Modulus (GPa) = 84.68887 25.27930 54.98408
#
# Velocity S-wave (km/s) = 6.60374 3.60794 5.32103
# Velocity P-wave (km/s) = 8.88780 6.89533 7.95420
#
# Compressibility (1/GPa) = 0.02470067
#
# Stress axis : x y z
#
# Youngs Moduli (GPa) = 112.18829 95.00722 71.60445
#
# Poissons Ratio (x) = 0.07902 0.13417
# Poissons Ratio (y) = 0.09331 0.11790
# Poissons Ratio (z) = 0.21021 0.15643
#
# Static dielectric constant tensor:
#      x y z
#    x 1.861070 0.000000 -0.145530 
#    y 0.000000 1.690860 0.000000 
#    z -0.145530 0.000000 1.835910 
# 
# From -- ./inp_files/193303.got.cif
#   From: 2010.05.17/outbox.cif.g08.bks.cpg/sg15_97_cif.got.tgz:193303.got - 2010.06.03 18:47:42.
