data_PCOD9281391
_publ_section_title
;
Structure prediction by ZEFSAII (Michael W. Deem and Ramdas Pophale) SiO2 
 PCOD9281391
Probable space group: C 2/C
;
_chemical_formula_sum "Si O2"
_cell_formula_units_Z 32
_cell_length_a 20.828335
_cell_length_b 5.235039
_cell_length_c 17.998221
_cell_angle_alpha 90.000000
_cell_angle_beta 146.997835
_cell_angle_gamma 90.000000
_cell_volume 1068.902491
_symmetry_space_group_name_H-M "C 2/C"
_symmetry_group_IT_number 15
_symmetry_cell_setting 'monoclinic'
loop_
_space_group_symop_operation_xyz
x,y,z
-x,y,1/2-z
-x,-y,-z
x,-y,1/2+z
1/2+x,1/2+y,z
1/2-x,1/2+y,1/2-z
1/2-x,1/2-y,-z
1/2+x,1/2-y,1/2+z
loop_
_atom_site_type_symbol
_atom_site_label
_atom_site_fract_x
_atom_site_fract_y
_atom_site_fract_z
Si Si1 0.940180 0.250155 0.906890
Si Si2 0.871888 0.135370 0.153104
Si Si3 0.726475 0.236193 0.135233
Si Si4 0.391991 0.263971 0.050148
O O1 0.807724 0.264773 0.810899
O O2 0.976281 0.248869 0.856042
O O3 0.000000 0.500000 0.000000
O O4 0.000000 0.000000 0.000000
O O5 0.855582 0.206340 0.224569
O O6 0.876558 0.851230 0.120209
O O7 0.830585 0.004995 0.950395
O O8 0.833245 0.508570 0.962820
O O9 0.750000 0.250000 0.000000
O O10 0.500000 0.741962 0.250000
#
# Coordination Sequence:
#
# PCOD9281391 Si02
#       4
#     8   8   8   8
#     4   8  14  26  50  78 109 145 189 239 294 355
#     4  10  21  38  61  90 125 165 210 263 320 381
#     4   9  17  32  54  83 114 151 196 248 302 363
#     4   9  17  32  54  83 114 151 196 248 303 363
#
# _framework density 29.937252000000001
#
# number of rings (size 3 to 8) (size 9 to 14) (size 15 to 20)
#    0.000    3.000    0.000    0.750    0.000    0.000 
#    0.000   20.000    0.000   27.000    0.000    0.000 
#    0.000    0.000    0.000    7.500    0.000    0.000 
#
# Total GULP energy -89402.925873 kJ/mol
# GULP energy per Si atom -5587.682867 kJ/mol
# Density = 2.986911 g / cm^3
# Si number density = 29.937252 Si / 1000 Ang^3
#
#
#
# Elastic Constant Matrix: (Units=GPa)
#
#
# Indices 1 2 3 4 5 6 
#
# 1 351.8803 34.9154 53.4158 0.0005 32.3325 0.0001
# 2 34.9154 220.3916 63.3785 0.0038 3.1084 0.0020
# 3 53.4158 63.3785 129.4335 0.0009 1.6976 0.0006
# 4 0.0005 0.0038 0.0009 64.4764 0.0005 13.2956
# 5 32.3325 3.1084 1.6976 0.0005 57.9635 0.0001
# 6 0.0001 0.0020 0.0006 13.2956 0.0001 39.1663
#
#
#
# Elastic Compliance Matrix: (Units=1/GPa)
#
#
# Indices 1 2 3 4 5 6 
#
# 1 0.003202 -0.000127 -0.001236 0.000000 -0.001743 0.000000
# 2 -0.000127 0.005289 -0.002535 0.000000 -0.000138 0.000000
# 3 -0.001236 -0.002535 0.009470 0.000000 0.000548 0.000000
# 4 0.000000 0.000000 0.000000 0.016677 0.000000 -0.005661
# 5 -0.001743 -0.000138 0.000548 0.000000 0.018216 0.000000
# 6 0.000000 0.000000 0.000000 -0.005661 0.000000 0.027454
#
#
# Mechanical properties :
#
#
# Convention : Reuss Voigt Hill
#
# Bulk Modulus (GPa) = 98.39061 111.68053 105.03557
# Shear Modulus (GPa) = 54.64841 68.98763 61.81802
#
# Velocity S-wave (km/s) = 4.27714 4.80563 4.54907
# Velocity P-wave (km/s) = 7.57158 8.25700 7.92171
#
# Compressibility (1/GPa) = 0.01016357
#
# Stress axis : x y z
#
# Youngs Moduli (GPa) = 312.26875 189.08744 105.59122
#
# Poissons Ratio (x) = 0.02405 0.13056
# Poissons Ratio (y) = 0.03971 0.26771
# Poissons Ratio (z) = 0.38610 0.47939
#
# Static dielectric constant tensor:
#      x y z
#    x 2.506650 0.000000 0.039270 
#    y 0.000000 2.354920 0.000000 
#    z 0.039270 0.000000 2.316480 
# 
# From -- ./inp_files/246342.got.cif
#   From: 2010.05.17/outbox.cif.g08.bks.cpg/sg15_124_cif.got.tgz:246342.got - 2010.06.03 18:47:42.
