data_PCOD9281699
_publ_section_title
;
Structure prediction by ZEFSAII (Michael W. Deem and Ramdas Pophale) SiO2 
 PCOD9281699
Probable space group: C 2/C
;
_chemical_formula_sum "Si O2"
_cell_formula_units_Z 48
_cell_length_a 18.204639
_cell_length_b 5.720089
_cell_length_c 20.735571
_cell_angle_alpha 90.000000
_cell_angle_beta 71.801263
_cell_angle_gamma 90.000000
_cell_volume 2051.232233
_symmetry_space_group_name_H-M "C 2/C"
_symmetry_group_IT_number 15
_symmetry_cell_setting 'monoclinic'
loop_
_space_group_symop_operation_xyz
x,y,z
-x,y,1/2-z
-x,-y,-z
x,-y,1/2+z
1/2+x,1/2+y,z
1/2-x,1/2+y,1/2-z
1/2-x,1/2-y,-z
1/2+x,1/2-y,1/2+z
loop_
_atom_site_type_symbol
_atom_site_label
_atom_site_fract_x
_atom_site_fract_y
_atom_site_fract_z
Si Si1 0.335499 0.434692 0.762718
Si Si2 0.800386 0.875170 0.139997
Si Si3 0.052976 0.299691 0.954106
Si Si4 0.947841 0.645734 0.813021
Si Si5 0.815884 0.708161 0.377760
Si Si6 0.065792 0.997854 0.077379
O O1 0.269279 0.255233 0.804062
O O2 0.339687 0.475562 0.685935
O O3 0.412991 0.327906 0.770679
O O4 0.317257 0.669566 0.807483
O O5 0.860311 0.679174 0.097870
O O6 0.763541 0.057836 0.098162
O O7 0.997747 0.203662 0.912910
O O8 0.000000 0.500000 0.000000
O O9 0.070327 0.109921 0.005409
O O10 0.881091 0.487545 0.860119
O O11 0.000000 0.494767 0.750000
O O12 0.970404 0.805141 0.866733
O O13 0.851847 0.901940 0.417255
#
# Coordination Sequence:
#
# PCOD9281699 Si02
#       6
#     8   8   8   8   8   8
#     4  10  21  38  63  98 126 163 214 267 334 386
#     4  11  22  41  66  96 132 170 218 273 335 398
#     4  11  25  43  67  94 131 177 223 272 331 401
#     4  10  21  38  65  93 127 167 211 270 326 390
#     4  10  22  40  62  93 132 167 217 275 332 397
#     4  10  23  44  62  95 130 167 227 264 335 402
#
# _framework density 23.400569999999998
#
# number of rings (size 3 to 8) (size 9 to 14) (size 15 to 20)
#    0.000    1.667    1.667    2.000    0.000    8.667 
#    0.000   11.667    0.000    0.000    0.000    0.000 
#    0.000    0.000    0.000    0.000    0.000    0.000 
#
# Total GULP energy -133737.382114 kJ/mol
# GULP energy per Si atom -5572.390921 kJ/mol
# Density = 2.334731 g / cm^3
# Si number density = 23.400570 Si / 1000 Ang^3
#
#
#
# Elastic Constant Matrix: (Units=GPa)
#
#
# Indices 1 2 3 4 5 6 
#
# 1 91.9417 9.6545 31.0862 -0.0002 13.1974 -0.0006
# 2 9.6545 54.1740 -5.5450 0.0000 7.8501 0.0003
# 3 31.0862 -5.5450 49.6635 0.0006 5.0978 0.0002
# 4 -0.0002 0.0000 0.0006 26.2973 -0.0002 11.2748
# 5 13.1974 7.8501 5.0978 -0.0002 33.3171 -0.0002
# 6 -0.0006 0.0003 0.0002 11.2748 -0.0002 32.1718
#
#
#
# Elastic Compliance Matrix: (Units=1/GPa)
#
#
# Indices 1 2 3 4 5 6 
#
# 1 0.014867 -0.003054 -0.009262 0.000000 -0.003752 0.000000
# 2 -0.003054 0.020085 0.004588 0.000000 -0.004225 0.000000
# 3 -0.009262 0.004588 0.026597 -0.000001 -0.001482 0.000000
# 4 0.000000 0.000000 -0.000001 0.044751 0.000000 -0.015683
# 5 -0.003752 -0.004225 -0.001482 0.000000 0.032723 0.000000
# 6 0.000000 0.000000 0.000000 -0.015683 0.000000 0.036579
#
#
# Mechanical properties :
#
#
# Convention : Reuss Voigt Hill
#
# Bulk Modulus (GPa) = 21.69497 29.57452 25.63475
# Shear Modulus (GPa) = 24.22213 29.06281 26.64247
#
# Velocity S-wave (km/s) = 3.22080 3.52798 3.37789
# Velocity P-wave (km/s) = 4.80860 5.40938 5.11781
#
# Compressibility (1/GPa) = 0.04609363
#
# Stress axis : x y z
#
# Youngs Moduli (GPa) = 67.26204 49.78839 37.59808
#
# Poissons Ratio (x) = 0.15204 0.34822
# Poissons Ratio (y) = 0.20540 -0.17249
# Poissons Ratio (z) = 0.62296 -0.22841
#
# Static dielectric constant tensor:
#      x y z
#    x 2.012720 0.000000 -0.079590 
#    y 0.000000 1.936750 0.000000 
#    z -0.079590 0.000000 1.956440 
# 
# From -- ./inp_files/275821.got.cif
#   From: 2010.05.17/outbox.cif.g08.bks.cpg/sg15_138_cif.got.tgz:275821.got - 2010.06.03 18:47:42.
