data_PCOD9281274
_publ_section_title
;
Structure prediction by ZEFSAII (Michael W. Deem and Ramdas Pophale) SiO2 
 PCOD9281274
Probable space group: C 2/C
;
_chemical_formula_sum "Si O2"
_cell_formula_units_Z 56
_cell_length_a 18.062935
_cell_length_b 22.332515
_cell_length_c 9.730548
_cell_angle_alpha 90.000000
_cell_angle_beta 45.892674
_cell_angle_gamma 90.000000
_cell_volume 2818.449543
_symmetry_space_group_name_H-M "C 2/C"
_symmetry_group_IT_number 15
_symmetry_cell_setting 'monoclinic'
loop_
_space_group_symop_operation_xyz
x,y,z
-x,y,1/2-z
-x,-y,-z
x,-y,1/2+z
1/2+x,1/2+y,z
1/2-x,1/2+y,1/2-z
1/2-x,1/2-y,-z
1/2+x,1/2-y,1/2+z
loop_
_atom_site_type_symbol
_atom_site_label
_atom_site_fract_x
_atom_site_fract_y
_atom_site_fract_z
Si Si1 0.238174 0.398934 0.414448
Si Si2 0.735412 0.911459 0.730210
Si Si3 0.390888 0.032987 0.626263
Si Si4 0.330142 0.861763 0.402990
Si Si5 0.000000 0.080266 0.250000
Si Si6 0.357199 0.326882 0.047638
Si Si7 0.885850 0.985857 0.695012
Si Si8 0.000000 0.274655 0.250000
O O1 0.231161 0.384728 0.584132
O O2 0.134823 0.424417 0.472359
O O3 0.286722 0.343117 0.269121
O O4 0.315387 0.455825 0.297056
O O5 0.843822 0.932445 0.654100
O O6 0.682174 0.975889 0.785416
O O7 0.683221 0.872646 0.917312
O O8 0.360979 0.075166 0.793181
O O9 0.500000 0.000000 0.500000
O O10 0.223721 0.838000 0.473478
O O11 0.424453 0.816426 0.258402
O O12 0.095092 0.041000 0.178704
O O13 0.948682 0.123964 0.426585
O O14 0.420514 0.266234 0.940470
O O15 0.000000 0.000000 0.500000
#
# Coordination Sequence:
#
# PCOD9281274 Si02
#       8
#     8   8   8   8   4   8   8   4
#     4  10  22  35  55  87 127 161 188 248 305 360
#     4  11  22  35  57  93 128 154 188 244 308 377
#     4  10  21  38  60  89 127 164 198 235 297 375
#     4  11  22  41  64  91 118 159 207 252 301 361
#     4  11  18  34  56  84 118 164 197 244 286 368
#     4  10  22  41  60  84 116 154 211 255 298 342
#     4  11  19  31  53  85 128 160 195 226 300 378
#     4  11  24  42  70  82 104 160 225 268 290 334
#
# _framework density 19.869081000000001
#
# number of rings (size 3 to 8) (size 9 to 14) (size 15 to 20)
#    0.000    1.429    2.857    3.857    2.000    1.714 
#    0.000    0.714    0.000    3.429    0.000    0.000 
#    0.000    0.000    0.000    0.000    0.000    0.000 
#
# Total GULP energy -156085.675279 kJ/mol
# GULP energy per Si atom -5574.488403 kJ/mol
# Density = 1.982386 g / cm^3
# Si number density = 19.869081 Si / 1000 Ang^3
#
#
#
# Elastic Constant Matrix: (Units=GPa)
#
#
# Indices 1 2 3 4 5 6 
#
# 1 103.8673 36.9091 55.2815 0.0000 -2.2642 0.0000
# 2 36.9091 73.0447 31.3714 0.0000 -4.4337 0.0000
# 3 55.2815 31.3714 92.6736 0.0000 19.5024 0.0000
# 4 0.0000 0.0000 0.0000 33.7338 0.0000 -26.7509
# 5 -2.2642 -4.4337 19.5024 0.0000 44.8653 0.0000
# 6 0.0000 0.0000 0.0000 -26.7509 0.0000 87.5225
#
#
#
# Elastic Compliance Matrix: (Units=1/GPa)
#
#
# Indices 1 2 3 4 5 6 
#
# 1 0.015962 -0.003876 -0.009134 0.000000 0.004393 0.000000
# 2 -0.003876 0.017766 -0.004436 0.000000 0.003488 0.000000
# 3 -0.009134 -0.004436 0.019735 0.000000 -0.009478 0.000000
# 4 0.000000 0.000000 0.000000 0.039127 0.000000 0.011959
# 5 0.004393 0.003488 -0.009478 0.000000 0.026975 0.000000
# 6 0.000000 0.000000 0.000000 0.011959 0.000000 0.015081
#
#
# Mechanical properties :
#
#
# Convention : Reuss Voigt Hill
#
# Bulk Modulus (GPa) = 53.84680 57.41217 55.62948
# Shear Modulus (GPa) = 28.45277 42.95922 35.70599
#
# Velocity S-wave (km/s) = 3.78830 4.65490 4.24378
# Velocity P-wave (km/s) = 6.80401 7.60584 7.21607
#
# Compressibility (1/GPa) = 0.01857121
#
# Stress axis : x y z
#
# Youngs Moduli (GPa) = 62.64773 56.28835 50.67019
#
# Poissons Ratio (x) = 0.21818 0.46283
# Poissons Ratio (y) = 0.24283 0.22477
# Poissons Ratio (z) = 0.57223 0.24969
#
# Static dielectric constant tensor:
#      x y z
#    x 1.802000 0.000000 0.043170 
#    y 0.000000 1.722430 0.000000 
#    z 0.043170 0.000000 1.758520 
# 
# From -- ./inp_files/51487.got.cif
#   From: 2010.05.17/outbox.cif.g08.bks.cpg/sg15_26_cif.got.tgz:51487.got - 2010.06.03 18:47:42.
