data_PCOD9281309
_publ_section_title
;
Structure prediction by ZEFSAII (Michael W. Deem and Ramdas Pophale) SiO2 
 PCOD9281309
Probable space group: C 2/C
;
_chemical_formula_sum "Si O2"
_cell_formula_units_Z 64
_cell_length_a 19.003479
_cell_length_b 8.900959
_cell_length_c 30.303395
_cell_angle_alpha 90.000000
_cell_angle_beta 38.051612
_cell_angle_gamma 90.000000
_cell_volume 3159.391502
_symmetry_space_group_name_H-M "C 2/C"
_symmetry_group_IT_number 15
_symmetry_cell_setting 'monoclinic'
loop_
_space_group_symop_operation_xyz
x,y,z
-x,y,1/2-z
-x,-y,-z
x,-y,1/2+z
1/2+x,1/2+y,z
1/2-x,1/2+y,1/2-z
1/2-x,1/2-y,-z
1/2+x,1/2-y,1/2+z
loop_
_atom_site_type_symbol
_atom_site_label
_atom_site_fract_x
_atom_site_fract_y
_atom_site_fract_z
Si Si1 0.079612 0.828403 0.982791
Si Si2 0.050187 0.151382 0.036211
Si Si3 0.976485 0.792774 0.667979
Si Si4 0.764989 0.157522 0.430637
Si Si5 0.171090 0.320915 0.673190
Si Si6 0.655909 0.863098 0.525633
Si Si7 0.371499 0.534380 0.295126
Si Si8 0.999413 0.550038 0.318305
O O1 0.199310 0.864565 0.899509
O O2 0.994265 0.774354 0.987058
O O3 0.106885 0.706386 0.005569
O O4 0.040796 0.975934 0.028776
O O5 0.974681 0.196408 0.115796
O O6 0.181347 0.201617 0.978530
O O7 0.107598 0.834400 0.613816
O O8 0.887755 0.901193 0.737593
O O9 0.972332 0.625021 0.689776
O O10 0.784311 0.125668 0.369076
O O11 0.709421 0.020295 0.484570
O O12 0.116353 0.374138 0.745722
O O13 0.093970 0.401004 0.673078
O O14 0.157379 0.140284 0.681552
O O15 0.750000 0.750000 0.500000
O O16 0.556670 0.889844 0.609633
O O17 0.500000 0.556298 0.250000
#
# Coordination Sequence:
#
# PCOD9281309 Si02
#       8
#     8   8   8   8   8   8   8   8
#     4  11  25  43  65  88 128 169 208 265 315 372
#     4  11  25  44  62  91 127 168 215 258 316 373
#     4  11  24  39  63  97 124 165 210 258 314 379
#     4  11  22  39  66  92 127 160 208 268 310 367
#     4  11  22  40  60  93 129 161 202 260 314 373
#     4  12  22  39  66  97 120 164 207 261 317 372
#     4  10  21  38  60  94 126 160 203 257 318 366
#     4  11  23  37  64  96 127 157 209 261 313 379
#
# _framework density 20.257065999999998
#
# number of rings (size 3 to 8) (size 9 to 14) (size 15 to 20)
#    0.000    1.000    5.000    1.875   10.500    0.500 
#    0.000    2.500    0.000    0.000    0.000    0.000 
#    0.000    0.000    0.000    0.000    0.000    0.000 
#
# Total GULP energy -178598.008795 kJ/mol
# GULP energy per Si atom -5581.187775 kJ/mol
# Density = 2.021096 g / cm^3
# Si number density = 20.257066 Si / 1000 Ang^3
#
#
#
# Elastic Constant Matrix: (Units=GPa)
#
#
# Indices 1 2 3 4 5 6 
#
# 1 57.7391 13.9649 7.9200 0.0011 16.2201 -0.0077
# 2 13.9649 52.0422 12.5785 0.0014 19.0353 -0.0038
# 3 7.9200 12.5785 105.4929 0.0002 21.4907 -0.0001
# 4 0.0011 0.0014 0.0002 39.2374 0.0004 12.4014
# 5 16.2201 19.0353 21.4907 0.0004 23.0405 0.0011
# 6 -0.0077 -0.0038 -0.0001 12.4014 0.0011 5.8871
#
#
#
# Elastic Compliance Matrix: (Units=1/GPa)
#
#
# Indices 1 2 3 4 5 6 
#
# 1 0.021876 -0.000078 0.001841 -0.000031 -0.017054 0.000098
# 2 -0.000078 0.027776 0.001676 -0.000024 -0.024457 0.000072
# 3 0.001841 0.001676 0.011960 -0.000006 -0.013836 0.000019
# 4 -0.000031 -0.000024 -0.000006 0.076256 0.000054 -0.160634
# 5 -0.017054 -0.024457 -0.013836 0.000054 0.088518 -0.000168
# 6 0.000098 0.000072 0.000019 -0.160634 -0.000168 0.508241
#
#
# Mechanical properties :
#
#
# Convention : Reuss Voigt Hill
#
# Bulk Modulus (GPa) = 14.60033 31.57787 23.08910
# Shear Modulus (GPa) = 6.66153 25.68705 16.17429
#
# Velocity S-wave (km/s) = 1.81539 3.56484 2.82875
# Velocity P-wave (km/s) = 3.40842 5.70671 4.70021
#
# Compressibility (1/GPa) = 0.06849160
#
# Stress axis : x y z
#
# Youngs Moduli (GPa) = 45.71169 36.00190 83.61251
#
# Poissons Ratio (x) = 0.00279 -0.15393
# Poissons Ratio (y) = 0.00355 -0.14015
# Poissons Ratio (z) = -0.08415 -0.06034
#
# Static dielectric constant tensor:
#      x y z
#    x 1.754020 0.000000 0.027650 
#    y 0.000000 1.738740 0.000000 
#    z 0.027650 0.000000 1.745520 
# 
# From -- ./inp_files/315667.got.cif
#   From: 2010.05.17/outbox.cif.g08.bks.cpg/sg15_158_cif.got.tgz:315667.got - 2010.06.03 18:47:42.
