data_PCOD9281119
_publ_section_title
;
Structure prediction by ZEFSAII (Michael W. Deem and Ramdas Pophale) SiO2 
 PCOD9281119
Probable space group: C 2/C
;
_chemical_formula_sum "Si O2"
_cell_formula_units_Z 56
_cell_length_a 11.867296
_cell_length_b 17.286448
_cell_length_c 14.219303
_cell_angle_alpha 90.000000
_cell_angle_beta 118.902479
_cell_angle_gamma 90.000000
_cell_volume 2553.665610
_symmetry_space_group_name_H-M "C 2/C"
_symmetry_group_IT_number 15
_symmetry_cell_setting 'monoclinic'
loop_
_space_group_symop_operation_xyz
x,y,z
-x,y,1/2-z
-x,-y,-z
x,-y,1/2+z
1/2+x,1/2+y,z
1/2-x,1/2+y,1/2-z
1/2-x,1/2-y,-z
1/2+x,1/2-y,1/2+z
loop_
_atom_site_type_symbol
_atom_site_label
_atom_site_fract_x
_atom_site_fract_y
_atom_site_fract_z
Si Si1 0.871863 0.950562 0.246926
Si Si2 0.615642 0.197002 0.739546
Si Si3 0.136829 0.163518 0.578658
Si Si4 0.223906 0.313241 0.828019
Si Si5 0.090604 0.429095 0.072386
Si Si6 0.984125 0.696888 0.106877
Si Si7 0.946255 0.070650 0.413656
O O1 0.855056 0.896898 0.331254
O O2 0.740887 0.952365 0.136417
O O3 0.000000 0.919649 0.250000
O O4 0.904491 0.035028 0.298970
O O5 0.500000 0.234258 0.750000
O O6 0.716371 0.185593 0.865941
O O7 0.690293 0.250669 0.693791
O O8 0.572066 0.118341 0.665135
O O9 0.045449 0.231614 0.577234
O O10 0.068188 0.126833 0.462040
O O11 0.135496 0.278452 0.875350
O O12 0.321297 0.381324 0.898859
O O13 0.106580 0.339611 0.712241
O O14 0.070169 0.364596 0.986250
O O15 0.000000 0.500000 0.000000
O O16 0.000000 0.000000 0.500000
#
# Coordination Sequence:
#
# PCOD9281119 Si02
#       7
#     8   8   8   8   8   8   8
#     4  10  23  38  60  89 130 166 205 267 320 376
#     4  10  23  43  64  92 133 177 211 272 332 392
#     4   9  21  39  64  92 123 163 217 260 322 379
#     4  10  22  41  67  99 128 165 221 272 332 376
#     4  11  24  42  62  96 133 172 221 264 332 399
#     4  10  22  40  71  99 125 163 219 286 319 380
#     4  10  21  38  58  87 129 167 209 252 316 393
#
# _framework density 21.929259999999999
#
# number of rings (size 3 to 8) (size 9 to 14) (size 15 to 20)
#    0.000    2.000    0.000    1.714   10.000    2.857 
#    7.714    6.429    0.000    0.000    0.000    0.000 
#    0.000    0.000    0.000    0.000    0.000    0.000 
#
# Total GULP energy -155997.438306 kJ/mol
# GULP energy per Si atom -5571.337082 kJ/mol
# Density = 2.187935 g / cm^3
# Si number density = 21.929260 Si / 1000 Ang^3
#
#
#
# Elastic Constant Matrix: (Units=GPa)
#
#
# Indices 1 2 3 4 5 6 
#
# 1 111.9837 35.3508 40.8119 0.0000 35.4315 0.0000
# 2 35.3508 71.6733 57.5454 0.0000 24.9249 0.0000
# 3 40.8119 57.5454 126.9872 0.0000 51.1396 0.0000
# 4 0.0000 0.0000 0.0000 36.1598 0.0000 22.4843
# 5 35.4315 24.9249 51.1396 0.0000 31.9087 0.0000
# 6 0.0000 0.0000 0.0000 22.4843 0.0000 -2.5664
#
#
#
# Elastic Compliance Matrix: (Units=1/GPa)
#
#
# Indices 1 2 3 4 5 6 
#
# 1 0.015949 -0.004897 0.007572 0.000000 -0.026020 0.000000
# 2 -0.004897 0.023566 -0.010948 0.000000 0.004576 0.000000
# 3 0.007572 -0.010948 0.029174 0.000000 -0.046613 0.000000
# 4 0.000000 0.000000 0.000000 0.004289 0.000000 0.037577
# 5 -0.026020 0.004576 -0.046613 0.000000 0.131364 0.000000
# 6 0.000000 0.000000 0.000000 0.037577 0.000000 -0.060433
#
#
# Mechanical properties :
#
#
# Convention : Reuss Voigt Hill
#
# Bulk Modulus (GPa) = 19.17803 64.22893 41.70348
# Shear Modulus (GPa) = 28.11548 24.89614 26.50581
#
# Velocity S-wave (km/s) = 3.58453 3.37307 3.48040
# Velocity P-wave (km/s) = 5.08883 6.67254 5.93376
#
# Compressibility (1/GPa) = 0.05214299
#
# Stress axis : x y z
#
# Youngs Moduli (GPa) = 62.70040 42.43314 34.27654
#
# Poissons Ratio (x) = 0.20780 -0.25954
# Poissons Ratio (y) = 0.30706 0.37527
# Poissons Ratio (z) = -0.47477 0.46457
#
# Static dielectric constant tensor:
#      x y z
#    x 1.867580 0.000000 0.058000 
#    y 0.000000 1.926690 0.000000 
#    z 0.058000 0.000000 1.867660 
# 
# From -- ./inp_files/146167.got.cif
#   From: 2010.05.17/outbox.cif.g08.bks.cpg/sg15_74_cif.got.tgz:146167.got - 2010.06.03 18:47:42.
