data_PCOD9281270
_publ_section_title
;
Structure prediction by ZEFSAII (Michael W. Deem and Ramdas Pophale) SiO2 
 PCOD9281270
Probable space group: C 2/C
;
_chemical_formula_sum "Si O2"
_cell_formula_units_Z 52
_cell_length_a 28.354562
_cell_length_b 7.085957
_cell_length_c 12.946224
_cell_angle_alpha 90.000000
_cell_angle_beta 89.855313
_cell_angle_gamma 90.000000
_cell_volume 2601.136767
_symmetry_space_group_name_H-M "C 2/C"
_symmetry_group_IT_number 15
_symmetry_cell_setting 'monoclinic'
loop_
_space_group_symop_operation_xyz
x,y,z
-x,y,1/2-z
-x,-y,-z
x,-y,1/2+z
1/2+x,1/2+y,z
1/2-x,1/2+y,1/2-z
1/2-x,1/2-y,-z
1/2+x,1/2-y,1/2+z
loop_
_atom_site_type_symbol
_atom_site_label
_atom_site_fract_x
_atom_site_fract_y
_atom_site_fract_z
Si Si1 0.204659 0.210807 0.851557
Si Si2 0.570563 0.940002 0.080906
Si Si3 0.000000 0.708345 0.750000
Si Si4 0.145186 0.474271 0.247047
Si Si5 0.576296 0.231386 0.906000
Si Si6 0.628948 0.574524 0.017078
Si Si7 0.298422 0.606972 0.313133
O O1 0.173215 0.345737 0.781381
O O2 0.170639 0.156266 0.945225
O O3 0.251692 0.330502 0.875735
O O4 0.215401 0.027663 0.781590
O O5 0.530587 0.909113 0.167313
O O6 0.615682 0.014709 0.144169
O O7 0.589757 0.737160 0.039162
O O8 0.556645 0.088863 0.993286
O O9 0.037416 0.810840 0.825180
O O10 0.110405 0.398933 0.336491
O O11 0.180214 0.301631 0.228083
O O12 0.604242 0.399352 0.961181
O O13 0.658316 0.522603 0.120153
#
# Coordination Sequence:
#
# PCOD9281270 Si02
#       7
#     8   8   4   8   8   8   8
#     4  12  21  40  61  90 127 168 210 252 302 351
#     4  10  22  42  64  90 125 157 206 253 310 372
#     4  10  24  42  68  94 124 154 204 262 308 376
#     4  10  21  38  60  89 123 166 203 252 305 360
#     4  11  21  43  64  92 123 160 204 254 313 369
#     4  11  24  39  65  92 126 166 203 253 311 369
#     4  11  23  38  59  93 127 164 211 256 296 354
#
# _framework density 19.991258999999999
#
# number of rings (size 3 to 8) (size 9 to 14) (size 15 to 20)
#    0.000    1.231    4.615    1.846    0.000    0.615 
#    0.000    3.077    0.000    0.000    0.000    0.000 
#    0.000    0.000    0.000    0.000    0.000    0.000 
#
# Total GULP energy -145036.886680 kJ/mol
# GULP energy per Si atom -5578.341795 kJ/mol
# Density = 1.994576 g / cm^3
# Si number density = 19.991259 Si / 1000 Ang^3
#
#
#
# Elastic Constant Matrix: (Units=GPa)
#
#
# Indices 1 2 3 4 5 6 
#
# 1 75.0976 24.1441 23.7464 0.0000 -9.0776 0.0000
# 2 24.1441 36.8390 25.4396 0.0000 4.2058 0.0000
# 3 23.7464 25.4396 76.8463 0.0000 -4.2419 0.0000
# 4 0.0000 0.0000 0.0000 -78.2515 0.0000 90.6626
# 5 -9.0776 4.2058 -4.2419 0.0000 42.1496 0.0000
# 6 0.0000 0.0000 0.0000 90.6626 0.0000 -58.0774
#
#
#
# Elastic Compliance Matrix: (Units=1/GPa)
#
#
# Indices 1 2 3 4 5 6 
#
# 1 0.018026 -0.011287 -0.001566 0.000000 0.004851 0.000000
# 2 -0.011287 0.043212 -0.011252 0.000000 -0.007875 0.000000
# 3 -0.001566 -0.011252 0.017362 0.000000 0.002533 0.000000
# 4 0.000000 0.000000 0.000000 0.015803 0.000000 0.024670
# 5 0.004851 -0.007875 0.002533 0.000000 0.025810 0.000000
# 6 0.000000 0.000000 0.000000 0.024670 0.000000 0.021293
#
#
# Mechanical properties :
#
#
# Convention : Reuss Voigt Hill
#
# Bulk Modulus (GPa) = 32.90559 37.27146 35.08852
# Shear Modulus (GPa) = 25.01937 -11.13900 6.94019
#
# Velocity S-wave (km/s) = 3.54151 -2.36306 1.86525
# Velocity P-wave (km/s) = 5.76358 3.35246 4.71475
#
# Compressibility (1/GPa) = 0.03038997
#
# Stress axis : x y z
#
# Youngs Moduli (GPa) = 55.47459 23.14197 57.59811
#
# Poissons Ratio (x) = 0.26119 0.09021
# Poissons Ratio (y) = 0.62612 0.64809
# Poissons Ratio (z) = 0.08688 0.26039
#
# Static dielectric constant tensor:
#      x y z
#    x 1.740020 0.000000 0.007080 
#    y 0.000000 1.657590 0.000000 
#    z 0.007080 0.000000 1.743870 
# 
# From -- ./inp_files/121533.got.cif
#   From: 2010.05.17/outbox.cif.g08.bks.cpg/sg15_61_cif.got.tgz:121533.got - 2010.06.03 18:47:42.
