data_PCOD9281361
_publ_section_title
;
Structure prediction by ZEFSAII (Michael W. Deem and Ramdas Pophale) SiO2 
 PCOD9281361
Probable space group: C 2/C
;
_chemical_formula_sum "Si O2"
_cell_formula_units_Z 52
_cell_length_a 8.324328
_cell_length_b 15.142974
_cell_length_c 15.341520
_cell_angle_alpha 90.000000
_cell_angle_beta 95.149186
_cell_angle_gamma 90.000000
_cell_volume 1926.072190
_symmetry_space_group_name_H-M "C 2/C"
_symmetry_group_IT_number 15
_symmetry_cell_setting 'monoclinic'
loop_
_space_group_symop_operation_xyz
x,y,z
-x,y,1/2-z
-x,-y,-z
x,-y,1/2+z
1/2+x,1/2+y,z
1/2-x,1/2+y,1/2-z
1/2-x,1/2-y,-z
1/2+x,1/2-y,1/2+z
loop_
_atom_site_type_symbol
_atom_site_label
_atom_site_fract_x
_atom_site_fract_y
_atom_site_fract_z
Si Si1 0.136622 0.323234 0.189052
Si Si2 0.586525 0.067962 0.441076
Si Si3 0.500000 0.103218 0.250000
Si Si4 0.681726 0.400769 0.161239
Si Si5 0.169792 0.079291 0.281079
Si Si6 0.597060 0.196429 0.958192
Si Si7 0.161065 0.053610 0.924614
O O1 0.286834 0.324234 0.264795
O O2 0.205308 0.390685 0.121051
O O3 0.000000 0.355613 0.250000
O O4 0.030292 0.261590 0.117916
O O5 0.535661 0.051975 0.340544
O O6 0.508572 0.161705 0.465694
O O7 0.776059 0.061058 0.473583
O O8 0.500000 0.000000 0.500000
O O9 0.321529 0.138904 0.262878
O O10 0.680286 0.490021 0.221097
O O11 0.814703 0.381515 0.093480
O O12 0.510338 0.403724 0.104414
O O13 0.167930 0.042947 0.380005
O O14 0.000000 0.121788 0.250000
O O15 0.750000 0.250000 0.000000
#
# Coordination Sequence:
#
# PCOD9281361 Si02
#       7
#     8   8   4   8   8   8   8
#     4   8  15  28  56  85 109 149 209 266 313 377
#     4  11  22  39  63  94 126 179 224 271 353 425
#     4  12  22  36  62  84 136 176 212 284 360 412
#     4   9  17  32  60  90 116 151 220 284 321 377
#     4   9  18  32  55  93 121 154 215 281 331 394
#     4  10  21  38  61  87 128 169 214 265 341 424
#     4   9  17  32  55  90 119 149 212 278 330 381
#
# _framework density 26.997948000000001
#
# number of rings (size 3 to 8) (size 9 to 14) (size 15 to 20)
#    0.000    2.462    1.538    2.308    8.615    0.000 
#    2.769    5.385   22.000    0.000    0.000    0.000 
#    0.000    0.000    0.000    0.000    0.000    0.000 
#
# Total GULP energy -144919.668473 kJ/mol
# GULP energy per Si atom -5573.833403 kJ/mol
# Density = 2.693650 g / cm^3
# Si number density = 26.997948 Si / 1000 Ang^3
#
#
#
# Elastic Constant Matrix: (Units=GPa)
#
#
# Indices 1 2 3 4 5 6 
#
# 1 161.4825 18.5179 44.1301 0.0000 41.3883 0.0000
# 2 18.5179 78.2976 36.6576 0.0000 14.1180 0.0000
# 3 44.1301 36.6576 189.7180 0.0000 40.4132 0.0000
# 4 0.0000 0.0000 0.0000 12.7052 0.0000 6.8721
# 5 41.3883 14.1180 40.4132 0.0000 61.3514 0.0000
# 6 0.0000 0.0000 0.0000 6.8721 0.0000 4.6873
#
#
#
# Elastic Compliance Matrix: (Units=1/GPa)
#
#
# Indices 1 2 3 4 5 6 
#
# 1 0.007617 -0.000666 -0.000676 0.000000 -0.004540 0.000000
# 2 -0.000666 0.014251 -0.002321 0.000000 -0.001301 0.000000
# 3 -0.000676 -0.002321 0.006591 0.000000 -0.003351 0.000000
# 4 0.000000 0.000000 0.000000 0.380241 0.000000 -0.557478
# 5 -0.004540 -0.001301 -0.003351 0.000000 0.021869 0.000000
# 6 0.000000 0.000000 0.000000 -0.557478 0.000000 1.030672
#
#
# Mechanical properties :
#
#
# Convention : Reuss Voigt Hill
#
# Bulk Modulus (GPa) = 47.32383 69.78993 58.55688
# Shear Modulus (GPa) = 3.38842 37.76162 20.57502
#
# Velocity S-wave (km/s) = 1.12151 3.74396 2.76360
# Velocity P-wave (km/s) = 4.38677 6.67801 5.64976
#
# Compressibility (1/GPa) = 0.02113100
#
# Stress axis : x y z
#
# Youngs Moduli (GPa) = 131.27788 70.17154 151.73063
#
# Poissons Ratio (x) = 0.04677 0.10257
# Poissons Ratio (y) = 0.08749 0.35224
# Poissons Ratio (z) = 0.08874 0.16290
#
# Static dielectric constant tensor:
#      x y z
#    x 2.468090 0.000000 -0.087060 
#    y 0.000000 2.157500 0.000000 
#    z -0.087060 0.000000 2.204020 
# 
# From -- ./inp_files/136143.got.cif
#   From: 2010.05.17/outbox.cif.g08.bks.cpg/sg15_69_cif.got.tgz:136143.got - 2010.06.03 18:47:42.
