data_PCOD9281408
_publ_section_title
;
Structure prediction by ZEFSAII (Michael W. Deem and Ramdas Pophale) SiO2 
 PCOD9281408
Probable space group: C 2/C
;
_chemical_formula_sum "Si O2"
_cell_formula_units_Z 60
_cell_length_a 5.326180
_cell_length_b 21.786582
_cell_length_c 24.471545
_cell_angle_alpha 90.000000
_cell_angle_beta 89.593989
_cell_angle_gamma 90.000000
_cell_volume 2839.588611
_symmetry_space_group_name_H-M "C 2/C"
_symmetry_group_IT_number 15
_symmetry_cell_setting 'monoclinic'
loop_
_space_group_symop_operation_xyz
x,y,z
-x,y,1/2-z
-x,-y,-z
x,-y,1/2+z
1/2+x,1/2+y,z
1/2-x,1/2+y,1/2-z
1/2-x,1/2-y,-z
1/2+x,1/2-y,1/2+z
loop_
_atom_site_type_symbol
_atom_site_label
_atom_site_fract_x
_atom_site_fract_y
_atom_site_fract_z
Si Si1 0.825822 0.306177 0.146681
Si Si2 0.000000 0.185422 0.750000
Si Si3 0.137036 0.587364 0.696973
Si Si4 0.294606 0.481277 0.624768
Si Si5 0.803092 0.051350 0.518817
Si Si6 0.025664 0.814975 0.034623
Si Si7 0.322990 0.914469 0.595505
Si Si8 0.616406 0.280033 0.578873
O O1 0.654672 0.286239 0.198761
O O2 0.708802 0.311978 0.086082
O O3 0.942875 0.373279 0.160071
O O4 0.014962 0.250622 0.134129
O O5 0.809671 0.141730 0.718393
O O6 0.294745 0.532266 0.671459
O O7 0.000000 0.561022 0.750000
O O8 0.201139 0.523944 0.574464
O O9 0.566249 0.450086 0.614219
O O10 0.068857 0.432142 0.629555
O O11 0.939543 0.114887 0.531291
O O12 0.627050 0.066482 0.467991
O O13 0.000000 0.000000 0.500000
O O14 0.799386 0.770973 0.053329
O O15 0.078856 0.796867 0.970748
O O16 0.259583 0.842666 0.592944
#
# Coordination Sequence:
#
# PCOD9281408 Si02
#       8
#     8   4   8   8   8   8   8   8
#     4  11  21  37  65  92 124 165 216 276 328 382
#     4  10  22  40  62  98 120 154 210 282 336 384
#     4  10  24  40  67  94 120 158 211 274 335 383
#     4  11  22  40  63  91 124 169 203 266 317 387
#     4   9  19  36  57  93 129 167 208 260 313 387
#     4  10  21  38  61  91 133 173 219 262 330 383
#     4  10  24  38  61  91 130 170 212 247 318 377
#     4  10  22  40  58  93 130 179 216 263 314 399
#
# _framework density 21.129821
#
# number of rings (size 3 to 8) (size 9 to 14) (size 15 to 20)
#    0.000    1.867    0.000    3.200    9.333    0.000 
#   16.800    0.000    1.467    1.600    0.000    0.000 
#    0.000    0.000    0.000    0.000    0.000    0.000 
#
# Total GULP energy -167178.235072 kJ/mol
# GULP energy per Si atom -5572.607836 kJ/mol
# Density = 2.108173 g / cm^3
# Si number density = 21.129821 Si / 1000 Ang^3
#
#
#
# Elastic Constant Matrix: (Units=GPa)
#
#
# Indices 1 2 3 4 5 6 
#
# 1 37.1413 -4.3320 17.4218 0.0000 -3.0913 0.0000
# 2 -4.3320 92.1733 29.5766 0.0000 -14.5928 0.0000
# 3 17.4218 29.5766 73.9779 0.0000 -20.8980 0.0000
# 4 0.0000 0.0000 0.0000 6.6845 0.0000 -17.5059
# 5 -3.0913 -14.5928 -20.8980 0.0000 38.5905 0.0000
# 6 0.0000 0.0000 0.0000 -17.5059 0.0000 -3.3884
#
#
#
# Elastic Compliance Matrix: (Units=1/GPa)
#
#
# Indices 1 2 3 4 5 6 
#
# 1 0.031825 0.004402 -0.009521 0.000000 -0.000942 0.000000
# 2 0.004402 0.013242 -0.005686 0.000000 0.002280 0.000000
# 3 -0.009521 -0.005686 0.020319 0.000000 0.008090 0.000000
# 4 0.000000 0.000000 0.000000 0.010296 0.000000 -0.053192
# 5 -0.000942 0.002280 0.008090 0.000000 0.031081 0.000000
# 6 0.000000 0.000000 0.000000 -0.053192 0.000000 -0.020311
#
#
# Mechanical properties :
#
#
# Convention : Reuss Voigt Hill
#
# Bulk Modulus (GPa) = 22.84451 32.06949 27.45700
# Shear Modulus (GPa) = 40.76530 19.08573 29.92551
#
# Velocity S-wave (km/s) = 4.39712 3.00869 3.76742
# Velocity P-wave (km/s) = 6.05099 5.22302 5.65219
#
# Compressibility (1/GPa) = 0.04377419
#
# Stress axis : x y z
#
# Youngs Moduli (GPa) = 31.42185 75.51899 49.21613
#
# Poissons Ratio (x) = -0.33240 0.46857
# Poissons Ratio (y) = -0.13831 0.27986
# Poissons Ratio (z) = 0.29916 0.42943
#
# Static dielectric constant tensor:
#      x y z
#    x 1.807250 0.000000 0.014720 
#    y 0.000000 1.796500 0.000000 
#    z 0.014720 0.000000 1.851790 
# 
# From -- ./inp_files/228151.got.cif
#   From: 2010.05.17/outbox.cif.g08.bks.cpg/sg15_115_cif.got.tgz:228151.got - 2010.06.03 18:47:42.
