data_PCOD9281140
_publ_section_title
;
Structure prediction by ZEFSAII (Michael W. Deem and Ramdas Pophale) SiO2 
 PCOD9281140
Probable space group: C 2/C
;
_chemical_formula_sum "Si O2"
_cell_formula_units_Z 48
_cell_length_a 22.137957
_cell_length_b 11.893592
_cell_length_c 9.745262
_cell_angle_alpha 90.000000
_cell_angle_beta 132.003612
_cell_angle_gamma 90.000000
_cell_volume 1906.746247
_symmetry_space_group_name_H-M "C 2/C"
_symmetry_group_IT_number 15
_symmetry_cell_setting 'monoclinic'
loop_
_space_group_symop_operation_xyz
x,y,z
-x,y,1/2-z
-x,-y,-z
x,-y,1/2+z
1/2+x,1/2+y,z
1/2-x,1/2+y,1/2-z
1/2-x,1/2-y,-z
1/2+x,1/2-y,1/2+z
loop_
_atom_site_type_symbol
_atom_site_label
_atom_site_fract_x
_atom_site_fract_y
_atom_site_fract_z
Si Si1 0.720669 0.879650 0.197539
Si Si2 0.492425 0.724632 0.435983
Si Si3 0.107882 0.028631 0.519095
Si Si4 0.168421 0.522999 0.882506
Si Si5 0.181162 0.167106 0.297799
Si Si6 0.000000 0.847832 0.250000
Si Si7 0.500000 0.912511 0.250000
O O1 0.812539 0.899454 0.389543
O O2 0.670178 0.965060 0.220385
O O3 0.696540 0.752949 0.195437
O O4 0.707831 0.916753 0.021319
O O5 0.537047 0.612092 0.455044
O O6 0.397563 0.722124 0.247951
O O7 0.497098 0.723919 0.607509
O O8 0.530471 0.830496 0.418635
O O9 0.139267 0.948337 0.687442
O O10 0.075396 0.935555 0.363559
O O11 0.077281 0.526315 0.802180
O O12 0.230180 0.627745 0.015175
#
# Coordination Sequence:
#
# PCOD9281140 Si02
#       7
#     8   8   8   8   8   4   4
#     4  11  24  45  68  95 135 176 221 273 325 395
#     4  11  23  40  68 102 135 173 214 272 333 399
#     4  10  23  36  68 103 136 169 214 272 332 390
#     4  11  26  45  67  98 128 176 229 272 327 401
#     4  10  21  43  65  97 133 174 213 267 333 389
#     4  10  21  38  59 104 134 166 213 268 331 386
#     4  12  25  46  69  96 126 182 227 266 341 394
#
# _framework density 25.173774999999999
#
# number of rings (size 3 to 8) (size 9 to 14) (size 15 to 20)
#    0.000    1.333    1.667    4.000    9.333    0.667 
#    6.000    2.500    0.000    0.000    0.000    0.000 
#    0.000    0.000    0.000    0.000    0.000    0.000 
#
# Total GULP energy -134060.698635 kJ/mol
# GULP energy per Si atom -5585.862443 kJ/mol
# Density = 2.511648 g / cm^3
# Si number density = 25.173775 Si / 1000 Ang^3
#
#
#
# Elastic Constant Matrix: (Units=GPa)
#
#
# Indices 1 2 3 4 5 6 
#
# 1 91.3475 9.0966 24.4078 0.0000 14.7523 0.0000
# 2 9.0966 43.4745 7.9886 0.0000 3.3826 0.0000
# 3 24.4078 7.9886 82.6438 0.0000 6.2703 0.0000
# 4 0.0000 0.0000 0.0000 34.1893 0.0000 7.1627
# 5 14.7523 3.3826 6.2703 0.0000 57.2426 0.0000
# 6 0.0000 0.0000 0.0000 7.1627 0.0000 27.6991
#
#
#
# Elastic Compliance Matrix: (Units=1/GPa)
#
#
# Indices 1 2 3 4 5 6 
#
# 1 0.012448 -0.001786 -0.003296 0.000000 -0.002742 0.000000
# 2 -0.001786 0.023749 -0.001711 0.000000 -0.000756 0.000000
# 3 -0.003296 -0.001711 0.013277 0.000000 -0.000504 0.000000
# 4 0.000000 0.000000 0.000000 0.030924 0.000000 -0.007997
# 5 -0.002742 -0.000756 -0.000504 0.000000 0.018276 0.000000
# 6 0.000000 0.000000 0.000000 -0.007997 0.000000 0.038170
#
#
# Mechanical properties :
#
#
# Convention : Reuss Voigt Hill
#
# Bulk Modulus (GPa) = 27.86342 33.38352 30.62347
# Shear Modulus (GPa) = 30.78954 35.55771 33.17363
#
# Velocity S-wave (km/s) = 3.50105 3.76239 3.63407
# Velocity P-wave (km/s) = 5.23790 5.67134 5.45892
#
# Compressibility (1/GPa) = 0.03588935
#
# Stress axis : x y z
#
# Youngs Moduli (GPa) = 80.33137 42.10738 75.31757
#
# Poissons Ratio (x) = 0.07519 0.24824
# Poissons Ratio (y) = 0.14345 0.12886
# Poissons Ratio (z) = 0.26476 0.07204
#
# Static dielectric constant tensor:
#      x y z
#    x 2.027070 0.000000 -0.015270 
#    y 0.000000 1.996500 0.000000 
#    z -0.015270 0.000000 2.079850 
# 
# From -- ./inp_files/104229.got.cif
#   From: 2010.05.17/outbox.cif.g08.bks.cpg/sg15_53_cif.got.tgz:104229.got - 2010.06.03 18:47:42.
