data_PCOD9281460
_publ_section_title
;
Structure prediction by ZEFSAII (Michael W. Deem and Ramdas Pophale) SiO2 
 PCOD9281460
Probable space group: C 2/C
;
_chemical_formula_sum "Si O2"
_cell_formula_units_Z 56
_cell_length_a 23.225272
_cell_length_b 9.364675
_cell_length_c 20.161519
_cell_angle_alpha 90.000000
_cell_angle_beta 30.866945
_cell_angle_gamma 90.000000
_cell_volume 2249.744438
_symmetry_space_group_name_H-M "C 2/C"
_symmetry_group_IT_number 15
_symmetry_cell_setting 'monoclinic'
loop_
_space_group_symop_operation_xyz
x,y,z
-x,y,1/2-z
-x,-y,-z
x,-y,1/2+z
1/2+x,1/2+y,z
1/2-x,1/2+y,1/2-z
1/2-x,1/2-y,-z
1/2+x,1/2-y,1/2+z
loop_
_atom_site_type_symbol
_atom_site_label
_atom_site_fract_x
_atom_site_fract_y
_atom_site_fract_z
Si Si1 0.975739 0.471479 0.346574
Si Si2 0.360636 0.718296 0.957239
Si Si3 0.280586 0.775518 0.575870
Si Si4 0.367302 0.440617 0.887204
Si Si5 0.170268 0.908970 0.804299
Si Si6 0.471290 0.343418 0.097934
Si Si7 0.827724 0.410330 0.767311
O O1 0.908275 0.621964 0.401500
O O2 0.894150 0.368574 0.466881
O O3 0.000000 0.411006 0.250000
O O4 0.095486 0.489321 0.263353
O O5 0.345793 0.611964 0.909764
O O6 0.459161 0.645307 0.903372
O O7 0.249996 0.692881 0.110569
O O8 0.318230 0.626618 0.504821
O O9 0.199223 0.857050 0.604211
O O10 0.223921 0.790462 0.703642
O O11 0.500000 0.417152 0.750000
O O12 0.251826 0.962510 0.782032
O O13 0.128059 0.043068 0.804133
O O14 0.058228 0.859459 0.952214
O O15 0.421052 0.188167 0.141804
#
# Coordination Sequence:
#
# PCOD9281460 Si02
#       7
#     8   8   8   8   8   8   8
#     4  11  23  41  64  92 124 158 202 259 307 354
#     4  10  21  39  66  92 120 159 204 251 306 367
#     4  11  25  41  61  91 127 161 204 256 303 356
#     4  11  24  42  62  90 125 166 208 247 300 369
#     4  10  21  38  62  86 121 167 202 245 307 370
#     4   9  20  40  61  91 123 155 205 256 302 365
#     4  10  22  39  62  92 122 155 203 256 305 359
#
# _framework density 24.891718000000001
#
# number of rings (size 3 to 8) (size 9 to 14) (size 15 to 20)
#    0.000    1.714    0.000    3.429    0.000   10.857 
#    0.000    1.429    0.000    0.000    0.000    0.000 
#    0.000    0.000    0.000    0.000    0.000    0.000 
#
# Total GULP energy -156774.457240 kJ/mol
# GULP energy per Si atom -5599.087759 kJ/mol
# Density = 2.483506 g / cm^3
# Si number density = 24.891718 Si / 1000 Ang^3
#
#
#
# Elastic Constant Matrix: (Units=GPa)
#
#
# Indices 1 2 3 4 5 6 
#
# 1 79.7846 7.5552 33.0459 -0.0003 -13.7655 0.0001
# 2 7.5552 81.4360 23.7212 -0.0004 5.1590 0.0002
# 3 33.0459 23.7212 117.8261 -0.0005 -8.2291 0.0002
# 4 -0.0003 -0.0004 -0.0005 22.1246 0.0001 3.5731
# 5 -13.7655 5.1590 -8.2291 0.0001 43.1182 0.0000
# 6 0.0001 0.0002 0.0002 3.5731 0.0000 15.0028
#
#
#
# Elastic Compliance Matrix: (Units=1/GPa)
#
#
# Indices 1 2 3 4 5 6 
#
# 1 0.014852 -0.000538 -0.003772 0.000000 0.004086 0.000000
# 2 -0.000538 0.013253 -0.002676 0.000000 -0.002268 0.000000
# 3 -0.003772 -0.002676 0.010157 0.000000 0.001055 0.000000
# 4 0.000000 0.000000 0.000000 0.047007 0.000000 -0.011195
# 5 0.004086 -0.002268 0.001055 0.000000 0.024969 0.000000
# 6 0.000000 0.000000 0.000000 -0.011195 0.000000 0.069321
#
#
# Mechanical properties :
#
#
# Convention : Reuss Voigt Hill
#
# Bulk Modulus (GPa) = 41.16755 45.29900 43.23328
# Shear Modulus (GPa) = 24.79845 30.36408 27.58126
#
# Velocity S-wave (km/s) = 3.15977 3.49642 3.33235
# Velocity P-wave (km/s) = 5.46688 5.87689 5.67559
#
# Compressibility (1/GPa) = 0.02429097
#
# Stress axis : x y z
#
# Youngs Moduli (GPa) = 67.33159 75.45733 98.45227
#
# Poissons Ratio (x) = 0.04060 0.37133
# Poissons Ratio (y) = 0.03623 0.26341
# Poissons Ratio (z) = 0.25395 0.20189
#
# Static dielectric constant tensor:
#      x y z
#    x 2.059690 0.000000 -0.014680 
#    y 0.000000 2.063720 0.000000 
#    z -0.014680 0.000000 1.943870 
# 
# From -- ./inp_files/255438.got.cif
#   From: 2010.05.17/outbox.cif.g08.bks.cpg/sg15_128_cif.got.tgz:255438.got - 2010.06.03 18:47:42.
