data_PCOD9281009
_publ_section_title
;
Structure prediction by ZEFSAII (Michael W. Deem and Ramdas Pophale) SiO2 
 PCOD9281009
Probable space group: C 2/C
;
_chemical_formula_sum "Si O2"
_cell_formula_units_Z 52
_cell_length_a 10.027579
_cell_length_b 10.386432
_cell_length_c 29.630889
_cell_angle_alpha 90.000000
_cell_angle_beta 51.586171
_cell_angle_gamma 90.000000
_cell_volume 2418.077831
_symmetry_space_group_name_H-M "C 2/C"
_symmetry_group_IT_number 15
_symmetry_cell_setting 'monoclinic'
loop_
_space_group_symop_operation_xyz
x,y,z
-x,y,1/2-z
-x,-y,-z
x,-y,1/2+z
1/2+x,1/2+y,z
1/2-x,1/2+y,1/2-z
1/2-x,1/2-y,-z
1/2+x,1/2-y,1/2+z
loop_
_atom_site_type_symbol
_atom_site_label
_atom_site_fract_x
_atom_site_fract_y
_atom_site_fract_z
Si Si1 0.836259 0.461325 0.941648
Si Si2 0.651354 0.672270 0.915646
Si Si3 0.017058 0.797466 0.665516
Si Si4 0.400086 0.536197 0.435791
Si Si5 0.331223 0.088440 0.641571
Si Si6 0.086812 0.752450 0.960710
Si Si7 0.000000 0.040245 0.250000
O O1 0.743200 0.570029 0.930220
O O2 0.745841 0.328784 0.948325
O O3 0.032430 0.472453 0.888441
O O4 0.780641 0.501063 0.003929
O O5 0.807863 0.730160 0.855400
O O6 0.517691 0.589260 0.915706
O O7 0.544556 0.769070 0.970365
O O8 0.086756 0.903374 0.615705
O O9 0.903094 0.696773 0.661354
O O10 0.928467 0.868222 0.725407
O O11 0.484738 0.645793 0.450210
O O12 0.346341 0.146474 0.587940
O O13 0.148617 0.043608 0.696478
#
# Coordination Sequence:
#
# PCOD9281009 Si02
#       7
#     8   8   8   8   8   8   4
#     4   8  14  28  55  87 110 131 165 210 267 330
#     4   8  14  28  55  87 110 131 165 210 267 330
#     4  10  21  38  56  73 104 145 176 216 266 302
#     4   8  14  28  55  87 110 131 165 210 267 330
#     4  10  21  38  56  73 104 145 176 216 266 302
#     4   8  14  28  55  87 110 131 165 210 267 330
#     4  12  28  40  50  76 104 140 200 230 236 296
#
# _framework density 21.504684000000001
#
# number of rings (size 3 to 8) (size 9 to 14) (size 15 to 20)
#    0.000    3.077    0.000    2.769    0.000    6.154 
#    0.000    3.077    0.000    3.692    0.000    0.000 
#    0.000    0.000    0.000    0.000    0.000    0.000 
#
# Total GULP energy -145181.591168 kJ/mol
# GULP energy per Si atom -5583.907353 kJ/mol
# Density = 2.145574 g / cm^3
# Si number density = 21.504684 Si / 1000 Ang^3
#
#
#
# Elastic Constant Matrix: (Units=GPa)
#
#
# Indices 1 2 3 4 5 6 
#
# 1 37.3901 23.8981 28.3079 0.0000 -11.9242 0.0000
# 2 23.8981 40.5853 24.5905 0.0000 -5.2852 0.0000
# 3 28.3079 24.5905 89.2488 0.0000 -19.8282 0.0000
# 4 0.0000 0.0000 0.0000 29.5118 0.0000 -2.9800
# 5 -11.9242 -5.2852 -19.8282 0.0000 31.6438 0.0000
# 6 0.0000 0.0000 0.0000 -2.9800 0.0000 26.4950
#
#
#
# Elastic Compliance Matrix: (Units=1/GPa)
#
#
# Indices 1 2 3 4 5 6 
#
# 1 0.051164 -0.024418 -0.007113 0.000000 0.010744 0.000000
# 2 -0.024418 0.041232 -0.004798 0.000000 -0.005321 0.000000
# 3 -0.007113 -0.004798 0.016275 0.000000 0.006716 0.000000
# 4 0.000000 0.000000 0.000000 0.034274 0.000000 0.003855
# 5 0.010744 -0.005321 0.006716 0.000000 0.038970 0.000000
# 6 0.000000 0.000000 0.000000 0.003855 0.000000 0.038177
#
#
# Mechanical properties :
#
#
# Convention : Reuss Voigt Hill
#
# Bulk Modulus (GPa) = 27.76825 35.64633 31.70729
# Shear Modulus (GPa) = 16.40670 23.55863 19.98267
#
# Velocity S-wave (km/s) = 2.76513 3.31344 3.05162
# Velocity P-wave (km/s) = 4.80991 5.59022 5.21468
#
# Compressibility (1/GPa) = 0.03601235
#
# Stress axis : x y z
#
# Youngs Moduli (GPa) = 19.54503 24.25316 61.44462
#
# Poissons Ratio (x) = 0.59222 0.43707
# Poissons Ratio (y) = 0.47725 0.29480
# Poissons Ratio (z) = 0.13903 0.11636
#
# Static dielectric constant tensor:
#      x y z
#    x 1.821710 0.000000 0.012040 
#    y 0.000000 1.833490 0.000000 
#    z 0.012040 0.000000 1.730990 
# 
# From -- ./inp_files/291204.got.cif
#   From: 2010.05.17/outbox.cif.g08.bks.cpg/sg15_146_cif.got.tgz:291204.got - 2010.06.03 18:47:42.
