data_PCOD9281939
_publ_section_title
;
Structure prediction by ZEFSAII (Michael W. Deem and Ramdas Pophale) SiO2 
 PCOD9281939
Probable space group: C 2/C
;
_chemical_formula_sum "Si O2"
_cell_formula_units_Z 44
_cell_length_a 11.130487
_cell_length_b 21.064569
_cell_length_c 14.552781
_cell_angle_alpha 90.000000
_cell_angle_beta 35.137847
_cell_angle_gamma 90.000000
_cell_volume 1963.778249
_symmetry_space_group_name_H-M "C 2/C"
_symmetry_group_IT_number 15
_symmetry_cell_setting 'monoclinic'
loop_
_space_group_symop_operation_xyz
x,y,z
-x,y,1/2-z
-x,-y,-z
x,-y,1/2+z
1/2+x,1/2+y,z
1/2-x,1/2+y,1/2-z
1/2-x,1/2-y,-z
1/2+x,1/2-y,1/2+z
loop_
_atom_site_type_symbol
_atom_site_label
_atom_site_fract_x
_atom_site_fract_y
_atom_site_fract_z
Si Si1 0.000000 0.261768 0.250000
Si Si2 0.622140 0.837841 0.002703
Si Si3 0.363105 0.328857 0.516090
Si Si4 0.703446 0.982761 0.932200
Si Si5 0.029770 0.305401 0.869430
Si Si6 0.540751 0.530341 0.574292
O O1 0.195371 0.214166 0.125552
O O2 0.003548 0.308838 0.334311
O O3 0.705591 0.908939 0.960819
O O4 0.496548 0.839111 0.986703
O O5 0.252850 0.322512 0.684920
O O6 0.507820 0.269519 0.401470
O O7 0.477955 0.394611 0.428838
O O8 0.161730 0.323661 0.575929
O O9 0.742457 0.019295 0.004625
O O10 0.879842 0.000306 0.747130
O O11 0.500000 0.000000 0.000000
O O12 0.500000 0.500000 0.500000
#
# Coordination Sequence:
#
# PCOD9281939 Si02
#       6
#     4   8   8   8   8   8
#     4  10  24  38  64  90 122 162 208 268 312 382
#     4  11  22  42  62  92 124 163 212 258 325 375
#     4  10  22  39  63  99 127 165 218 262 333 387
#     4  11  26  44  67  95 132 174 216 268 323 396
#     4  10  21  38  66  93 129 166 208 277 321 386
#     4  11  25  44  68  95 131 174 217 270 325 394
#
# _framework density 22.405788000000001
#
# number of rings (size 3 to 8) (size 9 to 14) (size 15 to 20)
#    0.000    1.455    0.000    4.364    0.000   15.273 
#    0.000    0.000    0.000    0.000    0.000    0.000 
#    0.000    0.000    0.000    0.000    0.000    0.000 
#
# Total GULP energy -122936.030075 kJ/mol
# GULP energy per Si atom -5588.001367 kJ/mol
# Density = 2.235479 g / cm^3
# Si number density = 22.405788 Si / 1000 Ang^3
#
#
#
# Elastic Constant Matrix: (Units=GPa)
#
#
# Indices 1 2 3 4 5 6 
#
# 1 103.1185 -2.3408 24.7717 -0.0025 23.7408 0.0008
# 2 -2.3408 154.5282 22.1382 -0.0116 8.6259 -0.0046
# 3 24.7717 22.1382 57.2532 -0.0187 16.3677 -0.0090
# 4 -0.0025 -0.0116 -0.0187 23.6172 0.0053 -11.7162
# 5 23.7408 8.6259 16.3677 0.0053 36.4241 0.0003
# 6 0.0008 -0.0046 -0.0090 -11.7162 0.0003 -20.9754
#
#
#
# Elastic Compliance Matrix: (Units=1/GPa)
#
#
# Indices 1 2 3 4 5 6 
#
# 1 0.012125 0.001091 -0.003826 0.000001 -0.006442 0.000001
# 2 0.001091 0.006957 -0.002855 0.000001 -0.001076 -0.000001
# 3 -0.003826 -0.002855 0.022167 0.000010 -0.006791 -0.000015
# 4 0.000001 0.000001 0.000010 0.033155 -0.000010 -0.018519
# 5 -0.006442 -0.001076 -0.006791 -0.000010 0.034960 0.000009
# 6 0.000001 -0.000001 -0.000015 -0.018519 0.000009 -0.037331
#
#
# Mechanical properties :
#
#
# Convention : Reuss Voigt Hill
#
# Bulk Modulus (GPa) = 33.25635 44.89312 39.07474
# Shear Modulus (GPa) = 53.62804 25.83520 39.73162
#
# Velocity S-wave (km/s) = 4.89764 3.39936 4.21560
# Velocity P-wave (km/s) = 6.84525 5.95713 6.41657
#
# Compressibility (1/GPa) = 0.03006944
#
# Stress axis : x y z
#
# Youngs Moduli (GPa) = 82.47684 143.74267 45.11188
#
# Poissons Ratio (x) = -0.15688 0.17262
# Poissons Ratio (y) = -0.09002 0.12878
# Poissons Ratio (z) = 0.31559 0.41033
#
# Static dielectric constant tensor:
#      x y z
#    x 1.891650 -0.001920 -0.047320 
#    y -0.001920 -1.892080 -0.000800 
#    z -0.047320 -0.000800 1.889890 
# 
# From -- ./inp_files/146994.got.cif
#   From: 2010.05.17/outbox.cif.g08.bks.cpg/sg15_74_cif.got.tgz:146994.got - 2010.06.03 18:47:42.
