data_PCOD9281284
_publ_section_title
;
Structure prediction by ZEFSAII (Michael W. Deem and Ramdas Pophale) SiO2 
 PCOD9281284
Probable space group: C 2/C
;
_chemical_formula_sum "Si O2"
_cell_formula_units_Z 52
_cell_length_a 26.235826
_cell_length_b 6.993311
_cell_length_c 11.764716
_cell_angle_alpha 90.000000
_cell_angle_beta 106.839785
_cell_angle_gamma 90.000000
_cell_volume 2065.973630
_symmetry_space_group_name_H-M "C 2/C"
_symmetry_group_IT_number 15
_symmetry_cell_setting 'monoclinic'
loop_
_space_group_symop_operation_xyz
x,y,z
-x,y,1/2-z
-x,-y,-z
x,-y,1/2+z
1/2+x,1/2+y,z
1/2-x,1/2+y,1/2-z
1/2-x,1/2-y,-z
1/2+x,1/2-y,1/2+z
loop_
_atom_site_type_symbol
_atom_site_label
_atom_site_fract_x
_atom_site_fract_y
_atom_site_fract_z
Si Si1 0.620360 0.664836 0.008239
Si Si2 0.581425 0.116284 0.676862
Si Si3 0.000000 0.645541 0.250000
Si Si4 0.780941 0.978521 0.812512
Si Si5 0.715103 0.143301 0.070904
Si Si6 0.329056 0.104264 0.136805
Si Si7 0.059318 0.964649 0.816626
O O1 0.582657 0.818228 0.046649
O O2 0.669184 0.651996 0.128445
O O3 0.650981 0.701013 0.907661
O O4 0.586512 0.472621 0.958370
O O5 0.588910 0.315321 0.753991
O O6 0.528490 0.997191 0.678401
O O7 0.630971 0.982629 0.745519
O O8 0.047337 0.803739 0.299726
O O9 0.755759 0.979297 0.672174
O O10 0.731259 0.915518 0.859387
O O11 0.802221 0.187342 0.857621
O O12 0.750000 0.250000 0.000000
O O13 0.670359 0.029519 0.976261
O O14 0.000000 0.894578 0.750000
#
# Coordination Sequence:
#
# PCOD9281284 Si02
#       7
#     8   8   4   8   8   8   8
#     4  12  25  42  70 105 134 189 236 284 357 418
#     4  12  24  47  75 103 144 180 239 296 352 423
#     4  10  22  52  70 102 142 178 230 304 358 416
#     4  11  23  40  63  97 142 187 231 285 342 420
#     4  10  21  38  60  90 132 180 230 279 340 400
#     4  11  22  43  66  99 143 185 229 286 352 416
#     4  10  24  48  68 104 138 177 233 291 356 420
#
# _framework density 25.169733000000001
#
# number of rings (size 3 to 8) (size 9 to 14) (size 15 to 20)
#    0.462    0.615    2.308    5.077    0.000    4.923 
#    5.538    0.000    0.000    0.000    0.000    0.000 
#    0.000    0.000    0.000    0.000    0.000    0.000 
#
# Total GULP energy -144769.901927 kJ/mol
# GULP energy per Si atom -5568.073151 kJ/mol
# Density = 2.511245 g / cm^3
# Si number density = 25.169733 Si / 1000 Ang^3
#
#
#
# Elastic Constant Matrix: (Units=GPa)
#
#
# Indices 1 2 3 4 5 6 
#
# 1 121.4086 24.1530 14.8253 0.0000 6.6807 0.0000
# 2 24.1530 81.6555 7.1162 0.0000 -14.0971 0.0000
# 3 14.8253 7.1162 65.9319 0.0000 0.2208 0.0000
# 4 0.0000 0.0000 0.0000 27.9164 0.0000 -31.0889
# 5 6.6807 -14.0971 0.2208 0.0000 29.8588 0.0000
# 6 0.0000 0.0000 0.0000 -31.0889 0.0000 -6.9514
#
#
#
# Elastic Compliance Matrix: (Units=1/GPa)
#
#
# Indices 1 2 3 4 5 6 
#
# 1 0.009284 -0.003214 -0.001729 0.000000 -0.003582 0.000000
# 2 -0.003214 0.014588 -0.000877 0.000000 0.007613 0.000000
# 3 -0.001729 -0.000877 0.015651 0.000000 -0.000143 0.000000
# 4 0.000000 0.000000 0.000000 0.005990 0.000000 -0.026787
# 5 -0.003582 0.007613 -0.000143 0.000000 0.037888 0.000000
# 6 0.000000 0.000000 0.000000 -0.026787 0.000000 -0.024054
#
#
# Mechanical properties :
#
#
# Convention : Reuss Voigt Hill
#
# Bulk Modulus (GPa) = 35.86378 40.13166 37.99772
# Shear Modulus (GPa) = 62.28117 25.02487 43.65302
#
# Velocity S-wave (km/s) = 4.97978 3.15659 4.16907
# Velocity P-wave (km/s) = 6.88069 5.40966 6.18904
#
# Compressibility (1/GPa) = 0.02788328
#
# Stress axis : x y z
#
# Youngs Moduli (GPa) = 107.70960 68.54951 63.89345
#
# Poissons Ratio (x) = 0.22031 0.11046
# Poissons Ratio (y) = 0.34617 0.05606
# Poissons Ratio (z) = 0.18620 0.06014
#
# Static dielectric constant tensor:
#      x y z
#    x 2.140050 0.000000 0.115050 
#    y 0.000000 2.121010 0.000000 
#    z 0.115050 0.000000 2.208730 
# 
# From -- ./inp_files/125670.got.cif
#   From: 2010.05.17/outbox.cif.g08.bks.cpg/sg15_63_cif.got.tgz:125670.got - 2010.06.03 18:47:42.
