data_PCOD9281881
_publ_section_title
;
Structure prediction by ZEFSAII (Michael W. Deem and Ramdas Pophale) SiO2 
 PCOD9281881
Probable space group: C 2/C
;
_chemical_formula_sum "Si O2"
_cell_formula_units_Z 40
_cell_length_a 12.744880
_cell_length_b 16.922729
_cell_length_c 18.626487
_cell_angle_alpha 90.000000
_cell_angle_beta 153.853412
_cell_angle_gamma 90.000000
_cell_volume 1770.312044
_symmetry_space_group_name_H-M "C 2/C"
_symmetry_group_IT_number 15
_symmetry_cell_setting 'monoclinic'
loop_
_space_group_symop_operation_xyz
x,y,z
-x,y,1/2-z
-x,-y,-z
x,-y,1/2+z
1/2+x,1/2+y,z
1/2-x,1/2+y,1/2-z
1/2-x,1/2-y,-z
1/2+x,1/2-y,1/2+z
loop_
_atom_site_type_symbol
_atom_site_label
_atom_site_fract_x
_atom_site_fract_y
_atom_site_fract_z
Si Si1 0.215085 0.353259 0.076488
Si Si2 0.931370 0.563876 0.279422
Si Si3 0.630779 0.916958 0.174747
Si Si4 0.288053 0.167619 0.562230
Si Si5 0.527375 0.320279 0.499039
O O1 0.500000 0.342610 0.250000
O O2 0.138718 0.410634 0.094627
O O3 0.086561 0.269935 0.015680
O O4 0.125595 0.392264 0.947724
O O5 0.802758 0.501859 0.252707
O O6 0.000000 0.514746 0.250000
O O7 0.764731 0.629181 0.141380
O O8 0.377877 0.893636 0.056616
O O9 0.823795 0.853419 0.321593
O O10 0.500000 0.174071 0.750000
O O11 0.250000 0.250000 0.500000
O O12 0.060481 0.160337 0.473819
#
# Coordination Sequence:
#
# PCOD9281881 Si02
#       5
#     8   8   8   8   8
#     4  12  26  44  69 101 135 177 228 281 334 406
#     4  12  26  45  68  98 136 181 222 278 343 396
#     4  11  24  45  67 100 139 173 225 277 336 401
#     4  10  21  38  65  96 128 169 216 269 322 392
#     4  11  23  42  71  99 134 178 224 274 335 404
#
# _framework density 22.594885000000001
#
# number of rings (size 3 to 8) (size 9 to 14) (size 15 to 20)
#    0.000    0.800    2.000    6.000    2.800    4.000 
#    0.000    1.000    0.000    0.000    0.000    0.000 
#    0.000    0.000    0.000    0.000    0.000    0.000 
#
# Total GULP energy -111749.614067 kJ/mol
# GULP energy per Si atom -5587.480703 kJ/mol
# Density = 2.254346 g / cm^3
# Si number density = 22.594885 Si / 1000 Ang^3
#
#
#
# Elastic Constant Matrix: (Units=GPa)
#
#
# Indices 1 2 3 4 5 6 
#
# 1 153.5356 26.8611 58.0530 0.0050 -17.3567 0.0153
# 2 26.8611 91.2302 26.2544 -0.0038 -7.7638 0.0032
# 3 58.0530 26.2544 46.6456 -0.0243 -5.9026 -0.0493
# 4 0.0050 -0.0038 -0.0243 18.4674 0.0028 -34.2780
# 5 -17.3567 -7.7638 -5.9026 0.0028 35.2904 0.0107
# 6 0.0153 0.0032 -0.0493 -34.2780 0.0107 -43.6958
#
#
#
# Elastic Compliance Matrix: (Units=1/GPa)
#
#
# Indices 1 2 3 4 5 6 
#
# 1 0.012867 0.001204 -0.016200 0.000008 0.003884 0.000018
# 2 0.001204 0.013291 -0.008719 0.000005 0.002058 0.000008
# 3 -0.016200 -0.008719 0.046235 -0.000019 -0.002152 -0.000044
# 4 0.000008 0.000005 -0.000019 0.022047 0.000005 -0.017295
# 5 0.003884 0.002058 -0.002152 0.000005 0.030339 0.000007
# 6 0.000018 0.000008 -0.000044 -0.017295 0.000007 -0.009318
#
#
# Mechanical properties :
#
#
# Convention : Reuss Voigt Hill
#
# Bulk Modulus (GPa) = 40.05872 57.08317 48.57095
# Shear Modulus (GPa) = 29.20380 14.02860 21.61620
#
# Velocity S-wave (km/s) = 3.59903 2.49444 3.09639
# Velocity P-wave (km/s) = 5.91932 5.79784 5.85889
#
# Compressibility (1/GPa) = 0.02496335
#
# Stress axis : x y z
#
# Youngs Moduli (GPa) = 77.72003 75.23861 21.62886
#
# Poissons Ratio (x) = -0.09059 0.35038
# Poissons Ratio (y) = -0.09358 0.18858
# Poissons Ratio (z) = 1.25903 0.65600
#
# Static dielectric constant tensor:
#      x y z
#    x 2.302460 0.000020 0.133320 
#    y 0.000020 1.817430 0.000000 
#    z 0.133320 0.000000 1.821690 
# 
# From -- ./inp_files/199753.got.cif
#   From: 2010.05.17/outbox.cif.g08.bks.cpg/sg15_100_cif.got.tgz:199753.got - 2010.06.03 18:47:42.
