data_PCOD9281552
_publ_section_title
;
Structure prediction by ZEFSAII (Michael W. Deem and Ramdas Pophale) SiO2 
 PCOD9281552
Probable space group: C 2/C
;
_chemical_formula_sum "Si O2"
_cell_formula_units_Z 40
_cell_length_a 28.051467
_cell_length_b 6.357135
_cell_length_c 8.871566
_cell_angle_alpha 90.000000
_cell_angle_beta 102.060506
_cell_angle_gamma 90.000000
_cell_volume 1547.119845
_symmetry_space_group_name_H-M "C 2/C"
_symmetry_group_IT_number 15
_symmetry_cell_setting 'monoclinic'
loop_
_space_group_symop_operation_xyz
x,y,z
-x,y,1/2-z
-x,-y,-z
x,-y,1/2+z
1/2+x,1/2+y,z
1/2-x,1/2+y,1/2-z
1/2-x,1/2-y,-z
1/2+x,1/2-y,1/2+z
loop_
_atom_site_type_symbol
_atom_site_label
_atom_site_fract_x
_atom_site_fract_y
_atom_site_fract_z
Si Si1 0.704869 0.516716 0.383418
Si Si2 0.195063 0.293600 0.654514
Si Si3 0.592168 0.031253 0.976201
Si Si4 0.893338 0.797772 0.800583
Si Si5 0.468935 0.655356 0.874334
O O1 0.758656 0.569511 0.359598
O O2 0.701085 0.585243 0.553600
O O3 0.695166 0.278098 0.327794
O O4 0.662859 0.655572 0.274452
O O5 0.144076 0.391142 0.576175
O O6 0.549991 0.154235 0.036699
O O7 0.594013 0.788151 0.024939
O O8 0.590426 0.115066 0.805190
O O9 0.923093 0.011101 0.793710
O O10 0.500000 0.722604 0.750000
O O11 0.500000 0.500000 0.000000
#
# Coordination Sequence:
#
# PCOD9281552 Si02
#       5
#     8   8   8   8   8
#     4  10  21  38  62  94 132 169 214 260 321 387
#     4  10  21  38  62  94 131 171 212 262 320 386
#     4  11  25  43  67  98 133 172 218 271 326 388
#     4  11  25  43  67  99 132 172 219 269 327 390
#     4  12  26  46  68  95 129 174 224 273 327 382
#
# _framework density 25.854492
#
# number of rings (size 3 to 8) (size 9 to 14) (size 15 to 20)
#    0.000    1.200    4.000    1.200    2.800    4.000 
#    0.000    0.000    0.000    0.000    0.000    0.000 
#    0.000    0.000    0.000    0.000    0.000    0.000 
#
# Total GULP energy -112100.375157 kJ/mol
# GULP energy per Si atom -5605.018758 kJ/mol
# Density = 2.579565 g / cm^3
# Si number density = 25.854492 Si / 1000 Ang^3
#
#
#
# Elastic Constant Matrix: (Units=GPa)
#
#
# Indices 1 2 3 4 5 6 
#
# 1 117.8399 17.2140 24.9962 0.0000 -1.7916 0.0000
# 2 17.2140 27.4872 20.5308 0.0000 -4.7931 0.0000
# 3 24.9962 20.5308 79.8953 0.0000 3.8709 0.0000
# 4 0.0000 0.0000 0.0000 60.8585 0.0000 4.0794
# 5 -1.7916 -4.7931 3.8709 0.0000 35.0535 0.0000
# 6 0.0000 0.0000 0.0000 4.0794 0.0000 17.3810
#
#
#
# Elastic Compliance Matrix: (Units=1/GPa)
#
#
# Indices 1 2 3 4 5 6 
#
# 1 0.009544 -0.004622 -0.001801 0.000000 0.000055 0.000000
# 2 -0.004622 0.049296 -0.011599 0.000000 0.007785 0.000000
# 3 -0.001801 -0.011599 0.016228 0.000000 -0.003470 0.000000
# 4 0.000000 0.000000 0.000000 0.016694 0.000000 -0.003918
# 5 0.000055 0.007785 -0.003470 0.000000 0.029978 0.000000
# 6 0.000000 0.000000 0.000000 -0.003918 0.000000 0.058454
#
#
# Mechanical properties :
#
#
# Convention : Reuss Voigt Hill
#
# Bulk Modulus (GPa) = 25.62466 38.96714 32.29590
# Shear Modulus (GPa) = 21.81047 33.49070 27.65059
#
# Velocity S-wave (km/s) = 2.90761 3.60301 3.27382
# Velocity P-wave (km/s) = 4.60487 5.69327 5.17775
#
# Compressibility (1/GPa) = 0.03902490
#
# Stress axis : x y z
#
# Youngs Moduli (GPa) = 104.77617 20.28547 61.62014
#
# Poissons Ratio (x) = 0.09377 0.11097
# Poissons Ratio (y) = 0.48433 0.71472
# Poissons Ratio (z) = 0.18868 0.23529
#
# Static dielectric constant tensor:
#      x y z
#    x 1.994490 0.000000 0.001380 
#    y 0.000000 2.021110 0.000000 
#    z 0.001380 0.000000 1.989020 
# 
# From -- ./inp_files/68184.got.cif
#   From: 2010.05.17/outbox.cif.g08.bks.cpg/sg15_35_cif.got.tgz:68184.got - 2010.06.03 18:47:42.
