data_PCOD9281783
_publ_section_title
;
Structure prediction by ZEFSAII (Michael W. Deem and Ramdas Pophale) SiO2 
 PCOD9281783
Probable space group: C 2/C
;
_chemical_formula_sum "Si O2"
_cell_formula_units_Z 24
_cell_length_a 7.825700
_cell_length_b 23.294943
_cell_length_c 5.006806
_cell_angle_alpha 90.000000
_cell_angle_beta 110.168550
_cell_angle_gamma 90.000000
_cell_volume 856.770085
_symmetry_space_group_name_H-M "C 2/C"
_symmetry_group_IT_number 15
_symmetry_cell_setting 'monoclinic'
loop_
_space_group_symop_operation_xyz
x,y,z
-x,y,1/2-z
-x,-y,-z
x,-y,1/2+z
1/2+x,1/2+y,z
1/2-x,1/2+y,1/2-z
1/2-x,1/2-y,-z
1/2+x,1/2-y,1/2+z
loop_
_atom_site_type_symbol
_atom_site_label
_atom_site_fract_x
_atom_site_fract_y
_atom_site_fract_z
Si Si1 0.000000 0.754706 0.250000
Si Si2 0.000000 0.324971 0.250000
Si Si3 0.804835 0.132201 0.554402
Si Si4 0.220516 0.964899 0.851920
O O1 0.140261 0.801053 0.454996
O O2 0.943056 0.715594 0.469898
O O3 0.160487 0.362534 0.211390
O O4 0.734076 0.094962 0.270920
O O5 0.000000 0.106317 0.750000
O O6 0.000000 0.964302 0.750000
O O7 0.281513 0.013787 0.673832
#
# Coordination Sequence:
#
# PCOD9281783 Si02
#       4
#     4   4   8   8
#     4  10  26  40  66  90 130 166 212 252 312 366
#     4  12  24  46  58  96 130 166 206 266 298 372
#     4  10  24  40  68  92 125 168 210 252 316 370
#     4  10  21  38  64  94 123 159 208 257 310 371
#
# _framework density 28.012181000000002
#
# number of rings (size 3 to 8) (size 9 to 14) (size 15 to 20)
#    1.000    0.667    0.000    5.000    2.333    5.333 
#    0.000    1.667    0.000    0.000    0.000    2.333 
#    0.000    0.000    0.000    0.000    0.000    0.000 
#
# Total GULP energy -67185.680357 kJ/mol
# GULP energy per Si atom -5598.806696 kJ/mol
# Density = 2.794842 g / cm^3
# Si number density = 28.012181 Si / 1000 Ang^3
#
#
#
# Elastic Constant Matrix: (Units=GPa)
#
#
# Indices 1 2 3 4 5 6 
#
# 1 153.4769 45.4090 50.0137 0.0000 -40.3939 0.0000
# 2 45.4090 229.3939 87.3509 0.0000 -38.6019 0.0000
# 3 50.0137 87.3509 205.8379 0.0000 -38.2755 0.0000
# 4 0.0000 0.0000 0.0000 46.4053 0.0000 15.6271
# 5 -40.3939 -38.6019 -38.2755 0.0000 47.8683 0.0000
# 6 0.0000 0.0000 0.0000 15.6271 0.0000 -91.1002
#
#
#
# Elastic Compliance Matrix: (Units=1/GPa)
#
#
# Indices 1 2 3 4 5 6 
#
# 1 0.008524 -0.000337 -0.000753 0.000000 0.006319 0.000000
# 2 -0.000337 0.005567 -0.001760 0.000000 0.002797 0.000000
# 3 -0.000753 -0.001760 0.006350 0.000000 0.003023 0.000000
# 4 0.000000 0.000000 0.000000 0.020372 0.000000 0.003495
# 5 0.006319 0.002797 0.003023 0.000000 0.030895 0.000000
# 6 0.000000 0.000000 0.000000 0.003495 0.000000 -0.010377
#
#
# Mechanical properties :
#
#
# Convention : Reuss Voigt Hill
#
# Bulk Modulus (GPa) = 67.84299 106.02845 86.93572
# Shear Modulus (GPa) = 69.49619 27.69700 48.59659
#
# Velocity S-wave (km/s) = 4.98629 3.14785 4.16966
# Velocity P-wave (km/s) = 7.57777 7.15157 7.36775
#
# Compressibility (1/GPa) = 0.01473992
#
# Stress axis : x y z
#
# Youngs Moduli (GPa) = 117.31758 179.62557 157.47356
#
# Poissons Ratio (x) = 0.06058 0.11858
# Poissons Ratio (y) = 0.03957 0.27722
# Poissons Ratio (z) = 0.08834 0.31622
#
# Static dielectric constant tensor:
#      x y z
#    x 2.320290 0.000000 0.155330 
#    y 0.000000 2.237430 0.000000 
#    z 0.155330 0.000000 2.170130 
# 
# From -- ./inp_files/1646.got.cif
#   From: 2010.05.17/outbox.cif.g08.bks.cpg/sg15_1_cif.got.tgz:1646.got - 2010.06.03 18:47:42.
