data_PCOD9281337
_publ_section_title
;
Structure prediction by ZEFSAII (Michael W. Deem and Ramdas Pophale) SiO2 
 PCOD9281337
Probable space group: C 2/C
;
_chemical_formula_sum "Si O2"
_cell_formula_units_Z 48
_cell_length_a 26.174179
_cell_length_b 6.853524
_cell_length_c 25.151673
_cell_angle_alpha 90.000000
_cell_angle_beta 26.711039
_cell_angle_gamma 90.000000
_cell_volume 2028.032891
_symmetry_space_group_name_H-M "C 2/C"
_symmetry_group_IT_number 15
_symmetry_cell_setting 'monoclinic'
loop_
_space_group_symop_operation_xyz
x,y,z
-x,y,1/2-z
-x,-y,-z
x,-y,1/2+z
1/2+x,1/2+y,z
1/2-x,1/2+y,1/2-z
1/2-x,1/2-y,-z
1/2+x,1/2-y,1/2+z
loop_
_atom_site_type_symbol
_atom_site_label
_atom_site_fract_x
_atom_site_fract_y
_atom_site_fract_z
Si Si1 0.802079 0.948438 0.428926
Si Si2 0.762382 0.002940 0.169509
Si Si3 0.598111 0.696949 0.373111
Si Si4 0.605845 0.833138 0.992496
Si Si5 0.920242 0.284096 0.371666
Si Si6 0.180716 0.902193 0.207850
O O1 0.750000 0.750000 0.500000
O O2 0.853591 0.923785 0.321901
O O3 0.887286 0.061056 0.388917
O O4 0.695472 0.093112 0.521063
O O5 0.691530 0.863360 0.274428
O O6 0.866738 0.096823 0.104949
O O7 0.685706 0.176750 0.219069
O O8 0.811828 0.855681 0.079867
O O9 0.475954 0.796718 0.481044
O O10 0.611962 0.533575 0.313707
O O11 0.531040 0.828605 0.115398
O O12 0.689133 0.015366 0.910003
O O13 0.000000 0.352462 0.250000
#
# Coordination Sequence:
#
# PCOD9281337 Si02
#       6
#     8   8   8   8   8   8
#     4  10  21  38  61  86 120 156 193 245 293 345
#     4  11  22  40  60  86 120 153 199 241 295 347
#     4  11  22  40  61  85 118 157 195 243 291 350
#     4  10  23  38  60  88 118 155 195 242 293 348
#     4  10  21  39  60  87 120 154 195 240 294 349
#     4  10  22  39  59  89 119 154 199 239 293 352
#
# _framework density 23.668256
#
# number of rings (size 3 to 8) (size 9 to 14) (size 15 to 20)
#    0.000    1.667    1.667    2.500    0.000    6.667 
#    0.000    3.333    0.000    0.000    0.000    0.000 
#    0.000    0.000    0.000    0.000    0.000    0.000 
#
# Total GULP energy -134233.465894 kJ/mol
# GULP energy per Si atom -5593.061079 kJ/mol
# Density = 2.361439 g / cm^3
# Si number density = 23.668256 Si / 1000 Ang^3
#
#
#
# Elastic Constant Matrix: (Units=GPa)
#
#
# Indices 1 2 3 4 5 6 
#
# 1 43.7540 24.9814 0.0339 0.0022 5.2446 -0.0009
# 2 24.9814 101.1258 2.4200 0.0038 15.2175 -0.0039
# 3 0.0339 2.4200 45.5244 0.0025 14.8001 -0.0008
# 4 0.0022 0.0038 0.0025 18.4218 -0.0032 8.5676
# 5 5.2446 15.2175 14.8001 -0.0032 37.1333 0.0013
# 6 -0.0009 -0.0039 -0.0008 8.5676 0.0013 14.6745
#
#
#
# Elastic Compliance Matrix: (Units=1/GPa)
#
#
# Indices 1 2 3 4 5 6 
#
# 1 0.026678 -0.006389 0.000797 -0.000003 -0.001467 0.000002
# 2 -0.006389 0.012106 0.000782 -0.000006 -0.004370 0.000007
# 3 0.000797 0.000782 0.025350 -0.000009 -0.010537 0.000008
# 4 -0.000003 -0.000006 -0.000009 0.074517 0.000014 -0.043506
# 5 -0.001467 -0.004370 -0.010537 0.000014 0.033128 -0.000013
# 6 0.000002 0.000007 0.000008 -0.043506 -0.000013 0.093546
#
#
# Mechanical properties :
#
#
# Convention : Reuss Voigt Hill
#
# Bulk Modulus (GPa) = 18.34393 27.25274 22.79834
# Shear Modulus (GPa) = 17.05815 24.91051 20.98433
#
# Velocity S-wave (km/s) = 2.68753 3.24772 2.98082
# Velocity P-wave (km/s) = 4.17106 5.05995 4.63685
#
# Compressibility (1/GPa) = 0.05451395
#
# Stress axis : x y z
#
# Youngs Moduli (GPa) = 37.48420 82.60490 39.44842
#
# Poissons Ratio (x) = 0.52773 -0.03143
# Poissons Ratio (y) = 0.23947 -0.03085
# Poissons Ratio (z) = -0.02987 -0.06460
#
# Static dielectric constant tensor:
#      x y z
#    x 1.937190 -0.000010 0.017350 
#    y -0.000010 1.850320 0.000010 
#    z 0.017350 0.000010 1.895040 
# 
# From -- ./inp_files/179999.got.cif
#   From: 2010.05.17/outbox.cif.g08.bks.cpg/sg15_90_cif.got.tgz:179999.got - 2010.06.03 18:47:42.
