data_PCOD9281635
_publ_section_title
;
Structure prediction by ZEFSAII (Michael W. Deem and Ramdas Pophale) SiO2 
 PCOD9281635
Probable space group: C 2/C
;
_chemical_formula_sum "Si O2"
_cell_formula_units_Z 40
_cell_length_a 12.432876
_cell_length_b 28.592366
_cell_length_c 12.295757
_cell_angle_alpha 90.000000
_cell_angle_beta 155.756836
_cell_angle_gamma 90.000000
_cell_volume 1794.760740
_symmetry_space_group_name_H-M "C 2/C"
_symmetry_group_IT_number 15
_symmetry_cell_setting 'monoclinic'
loop_
_space_group_symop_operation_xyz
x,y,z
-x,y,1/2-z
-x,-y,-z
x,-y,1/2+z
1/2+x,1/2+y,z
1/2-x,1/2+y,1/2-z
1/2-x,1/2-y,-z
1/2+x,1/2-y,1/2+z
loop_
_atom_site_type_symbol
_atom_site_label
_atom_site_fract_x
_atom_site_fract_y
_atom_site_fract_z
Si Si1 0.695548 0.551224 0.768652
Si Si2 0.000000 0.128360 0.750000
Si Si3 0.521304 0.777474 0.526883
Si Si4 0.229797 0.349295 0.549595
Si Si5 0.000000 0.688624 0.250000
Si Si6 0.761420 0.051286 0.180283
O O1 0.645177 0.594488 0.799792
O O2 0.471039 0.553285 0.470678
O O3 0.698764 0.500715 0.831294
O O4 0.973146 0.553992 0.965630
O O5 0.768170 0.159102 0.485532
O O6 0.246331 0.761635 0.222777
O O7 0.633580 0.822973 0.569601
O O8 0.475677 0.784484 0.613634
O O9 0.500000 0.329216 0.750000
O O10 0.281016 0.403689 0.623320
O O11 0.000000 0.345145 0.250000
#
# Coordination Sequence:
#
# PCOD9281635 Si02
#       6
#     8   4   8   8   4   8
#     4  10  21  38  63  91 131 174 221 275 323 377
#     4  12  22  37  66 100 132 168 212 271 332 406
#     4  12  26  47  73  99 133 172 226 287 347 411
#     4  12  26  43  68 100 136 184 221 278 335 407
#     4  12  26  45  72 102 134 172 222 285 350 406
#     4  10  22  42  60  90 130 177 225 270 319 387
#
# _framework density 22.287094
#
# number of rings (size 3 to 8) (size 9 to 14) (size 15 to 20)
#    0.000    0.800    0.000    7.800    1.400    2.400 
#    1.800    0.000    0.000    0.000    0.000    0.000 
#    0.000    0.000    0.000    0.000    0.000    0.000 
#
# Total GULP energy -111927.344268 kJ/mol
# GULP energy per Si atom -5596.367213 kJ/mol
# Density = 2.223637 g / cm^3
# Si number density = 22.287094 Si / 1000 Ang^3
#
#
#
# Elastic Constant Matrix: (Units=GPa)
#
#
# Indices 1 2 3 4 5 6 
#
# 1 89.0450 19.3732 32.5109 0.0000 20.0344 0.0000
# 2 19.3732 58.2823 12.8174 0.0000 7.5393 0.0000
# 3 32.5109 12.8174 140.4670 0.0001 20.4101 0.0000
# 4 0.0000 0.0000 0.0001 36.3300 0.0000 3.6251
# 5 20.0344 7.5393 20.4101 0.0000 31.6324 0.0000
# 6 0.0000 0.0000 0.0000 3.6251 0.0000 18.7875
#
#
#
# Elastic Compliance Matrix: (Units=1/GPa)
#
#
# Indices 1 2 3 4 5 6 
#
# 1 0.014256 -0.003405 -0.001980 0.000000 -0.006939 0.000000
# 2 -0.003405 0.018674 -0.000643 0.000000 -0.001879 0.000000
# 3 -0.001980 -0.000643 0.008200 0.000000 -0.003884 0.000000
# 4 0.000000 0.000000 0.000000 0.028066 0.000000 -0.005415
# 5 -0.006939 -0.001879 -0.003884 0.000000 0.038962 0.000000
# 6 0.000000 0.000000 0.000000 -0.005415 0.000000 0.054272
#
#
# Mechanical properties :
#
#
# Convention : Reuss Voigt Hill
#
# Bulk Modulus (GPa) = 34.39602 46.35525 40.37564
# Shear Modulus (GPa) = 27.14764 32.22282 29.68523
#
# Velocity S-wave (km/s) = 3.49390 3.80650 3.65354
# Velocity P-wave (km/s) = 5.63410 6.33747 5.99611
#
# Compressibility (1/GPa) = 0.02907313
#
# Stress axis : x y z
#
# Youngs Moduli (GPa) = 70.14828 53.54956 121.94491
#
# Poissons Ratio (x) = 0.18236 0.24150
# Poissons Ratio (y) = 0.23888 0.07838
# Poissons Ratio (z) = 0.13892 0.03442
#
# Static dielectric constant tensor:
#      x y z
#    x 1.813240 0.000000 0.020510 
#    y 0.000000 1.835910 0.000000 
#    z 0.020510 0.000000 1.776060 
# 
# From -- ./inp_files/92222.got.cif
#   From: 2010.05.17/outbox.cif.g08.bks.cpg/sg15_47_cif.got.tgz:92222.got - 2010.06.03 18:47:42.
