data_PCOD9281883
_publ_section_title
;
Structure prediction by ZEFSAII (Michael W. Deem and Ramdas Pophale) SiO2 
 PCOD9281883
Probable space group: C 2/C
;
_chemical_formula_sum "Si O2"
_cell_formula_units_Z 40
_cell_length_a 28.656482
_cell_length_b 8.684134
_cell_length_c 14.263429
_cell_angle_alpha 90.000000
_cell_angle_beta 151.543576
_cell_angle_gamma 90.000000
_cell_volume 1691.326081
_symmetry_space_group_name_H-M "C 2/C"
_symmetry_group_IT_number 15
_symmetry_cell_setting 'monoclinic'
loop_
_space_group_symop_operation_xyz
x,y,z
-x,y,1/2-z
-x,-y,-z
x,-y,1/2+z
1/2+x,1/2+y,z
1/2-x,1/2+y,1/2-z
1/2-x,1/2-y,-z
1/2+x,1/2-y,1/2+z
loop_
_atom_site_type_symbol
_atom_site_label
_atom_site_fract_x
_atom_site_fract_y
_atom_site_fract_z
Si Si1 0.276049 0.777327 0.330330
Si Si2 0.249539 0.079363 0.047591
Si Si3 0.972468 0.020813 0.345280
Si Si4 0.295948 0.083936 0.447225
Si Si5 0.500000 0.267407 0.250000
Si Si6 0.000000 0.284168 0.250000
O O1 0.228609 0.637311 0.307773
O O2 0.260422 0.734423 0.194002
O O3 0.390292 0.798561 0.562074
O O4 0.236356 0.941283 0.295104
O O5 0.144195 0.998337 0.868520
O O6 0.304352 0.964860 0.071726
O O7 0.250000 0.250000 0.000000
O O8 0.008385 0.172146 0.354922
O O9 0.000000 0.000000 0.500000
O O10 0.013205 0.875446 0.362551
O O11 0.404314 0.117088 0.600140
#
# Coordination Sequence:
#
# PCOD9281883 Si02
#       6
#     8   8   8   8   4   4
#     4  10  22  40  69  94 133 178 219 273 340 389
#     4   9  21  40  66  95 130 171 219 271 332 395
#     4  10  21  38  65  96 133 167 216 273 335 393
#     4  11  24  43  66  95 137 171 224 274 334 396
#     4   9  19  38  62  92 128 170 212 266 334 390
#     4  11  27  42  64 100 138 174 224 276 326 400
#
# _framework density 23.650081
#
# number of rings (size 3 to 8) (size 9 to 14) (size 15 to 20)
#    0.000    2.000    0.000    1.800   14.000    0.800 
#    3.600    1.000    0.000    0.000    0.000    0.000 
#    0.000    0.000    0.000    0.000    0.000    0.000 
#
# Total GULP energy -111431.400695 kJ/mol
# GULP energy per Si atom -5571.570035 kJ/mol
# Density = 2.359625 g / cm^3
# Si number density = 23.650081 Si / 1000 Ang^3
#
#
#
# Elastic Constant Matrix: (Units=GPa)
#
#
# Indices 1 2 3 4 5 6 
#
# 1 139.5229 42.0024 25.5631 0.0000 -12.1572 0.0000
# 2 42.0024 79.5527 20.9648 0.0000 -7.8912 0.0000
# 3 25.5631 20.9648 65.1332 0.0000 0.1954 0.0000
# 4 0.0000 0.0000 0.0000 33.3837 0.0000 -2.0577
# 5 -12.1572 -7.8912 0.1954 0.0000 53.0833 0.0000
# 6 0.0000 0.0000 0.0000 -2.0577 0.0000 50.2456
#
#
#
# Elastic Compliance Matrix: (Units=1/GPa)
#
#
# Indices 1 2 3 4 5 6 
#
# 1 0.008895 -0.003967 -0.002218 0.000000 0.001456 0.000000
# 2 -0.003967 0.015734 -0.003511 0.000000 0.001443 0.000000
# 3 -0.002218 -0.003511 0.017357 0.000000 -0.001094 0.000000
# 4 0.000000 0.000000 0.000000 0.030031 0.000000 0.001230
# 5 0.001456 0.001443 -0.001094 0.000000 0.019390 0.000000
# 6 0.000000 0.000000 0.000000 0.001230 0.000000 0.019953
#
#
# Mechanical properties :
#
#
# Convention : Reuss Voigt Hill
#
# Bulk Modulus (GPa) = 44.26477 51.25216 47.75846
# Shear Modulus (GPa) = 36.15745 40.38776 38.27261
#
# Velocity S-wave (km/s) = 3.91429 4.13694 4.02716
# Velocity P-wave (km/s) = 6.25988 6.67361 6.47006
#
# Compressibility (1/GPa) = 0.02259133
#
# Stress axis : x y z
#
# Youngs Moduli (GPa) = 112.42396 63.55849 57.61245
#
# Poissons Ratio (x) = 0.25216 0.12781
# Poissons Ratio (y) = 0.44603 0.20231
# Poissons Ratio (z) = 0.24940 0.22319
#
# Static dielectric constant tensor:
#      x y z
#    x 2.040850 0.000000 -0.020130 
#    y 0.000000 1.966140 0.000000 
#    z -0.020130 0.000000 1.946500 
# 
# From -- ./inp_files/150624.got.cif
#   From: 2010.05.17/outbox.cif.g08.bks.cpg/sg15_76_cif.got.tgz:150624.got - 2010.06.03 18:47:42.
