data_PCOD9281693
_publ_section_title
;
Structure prediction by ZEFSAII (Michael W. Deem and Ramdas Pophale) SiO2 
 PCOD9281693
Probable space group: C 2/C
;
_chemical_formula_sum "Si O2"
_cell_formula_units_Z 56
_cell_length_a 12.212713
_cell_length_b 15.814111
_cell_length_c 14.534453
_cell_angle_alpha 90.000000
_cell_angle_beta 108.673761
_cell_angle_gamma 90.000000
_cell_volume 2659.312022
_symmetry_space_group_name_H-M "C 2/C"
_symmetry_group_IT_number 15
_symmetry_cell_setting 'monoclinic'
loop_
_space_group_symop_operation_xyz
x,y,z
-x,y,1/2-z
-x,-y,-z
x,-y,1/2+z
1/2+x,1/2+y,z
1/2-x,1/2+y,1/2-z
1/2-x,1/2-y,-z
1/2+x,1/2-y,1/2+z
loop_
_atom_site_type_symbol
_atom_site_label
_atom_site_fract_x
_atom_site_fract_y
_atom_site_fract_z
Si Si1 0.486306 0.683404 0.349391
Si Si2 0.926184 0.143519 0.644223
Si Si3 0.898356 0.250011 0.937832
Si Si4 0.304583 0.810757 0.334677
Si Si5 0.102484 0.024730 0.460225
Si Si6 0.984290 0.594566 0.529897
Si Si7 0.704777 0.873731 0.370885
O O1 0.500000 0.715202 0.250000
O O2 0.558406 0.728942 0.448228
O O3 0.356868 0.716221 0.335729
O O4 0.540543 0.590064 0.373130
O O5 0.822264 0.197568 0.658028
O O6 0.000000 0.110440 0.750000
O O7 0.015238 0.196724 0.604706
O O8 0.867306 0.063489 0.579178
O O9 0.768184 0.217633 0.897433
O O10 0.912534 0.350171 0.935809
O O11 0.392456 0.859838 0.425317
O O12 0.304959 0.870222 0.242591
O O13 0.201877 0.066664 0.550142
O O14 0.000000 0.000000 0.500000
O O15 0.912576 0.604357 0.606559
O O16 0.000000 0.500000 0.500000
#
# Coordination Sequence:
#
# PCOD9281693 Si02
#       7
#     8   8   8   8   8   8   8
#     4  10  21  38  63  97 123 167 219 264 319 398
#     4  12  22  43  67  97 134 173 221 275 333 387
#     4  10  22  42  66  91 127 174 219 271 324 386
#     4  11  23  41  67  94 130 175 219 268 329 400
#     4  11  21  41  65  97 131 167 220 275 331 381
#     4  11  24  42  63  96 132 175 217 269 340 393
#     4  11  21  42  68  92 130 172 220 275 321 397
#
# _framework density 21.058077999999998
#
# number of rings (size 3 to 8) (size 9 to 14) (size 15 to 20)
#    0.000    1.143    4.286    3.857    0.000    3.429 
#    2.571    4.286    0.000    0.000    0.000    0.000 
#    0.000    0.000    0.000    0.000    0.000    0.000 
#
# Total GULP energy -155937.677385 kJ/mol
# GULP energy per Si atom -5569.202764 kJ/mol
# Density = 2.101015 g / cm^3
# Si number density = 21.058078 Si / 1000 Ang^3
#
#
#
# Elastic Constant Matrix: (Units=GPa)
#
#
# Indices 1 2 3 4 5 6 
#
# 1 105.4256 3.5867 0.0267 0.0000 -9.4563 0.0000
# 2 3.5867 86.6918 -0.9754 0.0000 -9.5425 0.0000
# 3 0.0267 -0.9754 57.0946 0.0000 -1.5021 0.0000
# 4 0.0000 0.0000 0.0000 7.0376 0.0000 -2.4502
# 5 -9.4563 -9.5425 -1.5021 0.0000 29.1884 0.0000
# 6 0.0000 0.0000 0.0000 -2.4502 0.0000 18.3190
#
#
#
# Elastic Compliance Matrix: (Units=1/GPa)
#
#
# Indices 1 2 3 4 5 6 
#
# 1 0.009770 -0.000057 0.000077 0.000000 0.003151 0.000000
# 2 -0.000057 0.011971 0.000307 0.000000 0.003911 0.000000
# 3 0.000077 0.000307 0.017547 0.000000 0.001029 0.000000
# 4 0.000000 0.000000 0.000000 0.149034 0.000000 0.019934
# 5 0.003151 0.003911 0.001029 0.000000 0.036613 0.000000
# 6 0.000000 0.000000 0.000000 0.019934 0.000000 0.057254
#
#
# Mechanical properties :
#
#
# Convention : Reuss Voigt Hill
#
# Bulk Modulus (GPa) = 25.03446 28.27644 26.65545
# Shear Modulus (GPa) = 16.95791 27.34728 22.15259
#
# Velocity S-wave (km/s) = 2.84085 3.60760 3.24694
# Velocity P-wave (km/s) = 4.76179 5.55068 5.17130
#
# Compressibility (1/GPa) = 0.03994494
#
# Stress axis : x y z
#
# Youngs Moduli (GPa) = 102.35549 83.53213 56.98960
#
# Poissons Ratio (x) = 0.00472 -0.00441
# Poissons Ratio (y) = 0.00579 -0.01752
# Poissons Ratio (z) = -0.00792 -0.02568
#
# Static dielectric constant tensor:
#      x y z
#    x 1.831660 0.000000 -0.034580 
#    y 0.000000 1.850290 0.000000 
#    z -0.034580 0.000000 1.831980 
# 
# From -- ./inp_files/145752.got.cif
#   From: 2010.05.17/outbox.cif.g08.bks.cpg/sg15_73_cif.got.tgz:145752.got - 2010.06.03 18:47:42.
