data_PCOD9281797
_publ_section_title
;
Structure prediction by ZEFSAII (Michael W. Deem and Ramdas Pophale) SiO2 
 PCOD9281797
Probable space group: C 2/C
;
_chemical_formula_sum "Si O2"
_cell_formula_units_Z 44
_cell_length_a 16.788295
_cell_length_b 7.711633
_cell_length_c 24.749803
_cell_angle_alpha 90.000000
_cell_angle_beta 144.388485
_cell_angle_gamma 90.000000
_cell_volume 1865.783795
_symmetry_space_group_name_H-M "C 2/C"
_symmetry_group_IT_number 15
_symmetry_cell_setting 'monoclinic'
loop_
_space_group_symop_operation_xyz
x,y,z
-x,y,1/2-z
-x,-y,-z
x,-y,1/2+z
1/2+x,1/2+y,z
1/2-x,1/2+y,1/2-z
1/2-x,1/2-y,-z
1/2+x,1/2-y,1/2+z
loop_
_atom_site_type_symbol
_atom_site_label
_atom_site_fract_x
_atom_site_fract_y
_atom_site_fract_z
Si Si1 0.763872 0.690226 0.844115
Si Si2 0.464219 0.249748 0.649915
Si Si3 0.500000 0.561738 0.750000
Si Si4 0.902686 0.672211 0.024386
Si Si5 0.173950 0.518938 0.222803
Si Si6 0.729903 0.470124 0.018870
O O1 0.629628 0.677987 0.807465
O O2 0.887106 0.641290 0.951931
O O3 0.752231 0.552535 0.789356
O O4 0.765287 0.875001 0.815116
O O5 0.480776 0.426612 0.691025
O O6 0.378385 0.316671 0.550859
O O7 0.598735 0.144996 0.708981
O O8 0.358630 0.116249 0.620608
O O9 0.801277 0.550065 0.003917
O O10 0.849430 0.868233 0.000719
O O11 0.050112 0.640582 0.132362
#
# Coordination Sequence:
#
# PCOD9281797 Si02
#       6
#     8   8   4   8   8   8
#     4  12  26  45  66 101 132 183 220 280 328 404
#     4  10  21  38  64  95 134 171 212 281 320 397
#     4  12  24  38  70  96 132 172 234 264 338 386
#     4  10  21  42  70  96 133 179 218 275 331 397
#     4  11  26  45  67  94 145 170 225 274 344 385
#     4   9  19  39  64 101 131 165 227 272 325 394
#
# _framework density 23.582581999999999
#
# number of rings (size 3 to 8) (size 9 to 14) (size 15 to 20)
#    0.000    1.455    1.818    2.727    7.636    0.000 
#    0.000    1.818    0.000    0.000    0.000    0.000 
#    0.000    0.000    0.000    0.000    0.000    0.000 
#
# Total GULP energy -122925.455912 kJ/mol
# GULP energy per Si atom -5587.520723 kJ/mol
# Density = 2.352891 g / cm^3
# Si number density = 23.582582 Si / 1000 Ang^3
#
#
#
# Elastic Constant Matrix: (Units=GPa)
#
#
# Indices 1 2 3 4 5 6 
#
# 1 55.9527 8.2653 8.4094 0.0000 -1.8567 0.0000
# 2 8.2653 88.4281 -9.4427 0.0000 1.4643 0.0000
# 3 8.4094 -9.4427 42.4021 0.0000 -10.4664 0.0000
# 4 0.0000 0.0000 0.0000 14.2765 0.0000 10.6670
# 5 -1.8567 1.4643 -10.4664 0.0000 26.8604 0.0000
# 6 0.0000 0.0000 0.0000 10.6670 0.0000 38.2642
#
#
#
# Elastic Compliance Matrix: (Units=1/GPa)
#
#
# Indices 1 2 3 4 5 6 
#
# 1 0.018836 -0.002215 -0.004290 0.000000 -0.000249 0.000000
# 2 -0.002215 0.011849 0.003187 0.000000 0.000443 0.000000
# 3 -0.004290 0.003187 0.027692 0.000000 0.010320 0.000000
# 4 0.000000 0.000000 0.000000 0.088474 0.000000 -0.024664
# 5 -0.000249 0.000443 0.010320 0.000000 0.041209 0.000000
# 6 0.000000 0.000000 0.000000 -0.024664 0.000000 0.033010
#
#
# Mechanical properties :
#
#
# Convention : Reuss Voigt Hill
#
# Bulk Modulus (GPa) = 19.32708 22.36076 20.84392
# Shear Modulus (GPa) = 20.41217 27.85027 24.13122
#
# Velocity S-wave (km/s) = 2.94523 3.44025 3.20232
# Velocity P-wave (km/s) = 4.44738 5.02821 4.74669
#
# Compressibility (1/GPa) = 0.05174086
#
# Stress axis : x y z
#
# Youngs Moduli (GPa) = 53.09004 84.39799 36.11187
#
# Poissons Ratio (x) = 0.18691 0.15493
# Poissons Ratio (y) = 0.11757 -0.11509
# Poissons Ratio (z) = 0.22777 -0.26899
#
# Static dielectric constant tensor:
#      x y z
#    x 1.906780 0.000000 -0.042080 
#    y 0.000000 1.888080 0.000000 
#    z -0.042080 0.000000 2.020210 
# 
# From -- ./inp_files/298217.got.cif
#   From: 2010.05.17/outbox.cif.g08.bks.cpg/sg15_150_cif.got.tgz:298217.got - 2010.06.03 18:47:42.
