data_PCOD9281491
_publ_section_title
;
Structure prediction by ZEFSAII (Michael W. Deem and Ramdas Pophale) SiO2 
 PCOD9281491
Probable space group: C 2/C
;
_chemical_formula_sum "Si O2"
_cell_formula_units_Z 52
_cell_length_a 14.978019
_cell_length_b 22.926972
_cell_length_c 9.203754
_cell_angle_alpha 90.000000
_cell_angle_beta 120.450725
_cell_angle_gamma 90.000000
_cell_volume 2724.622002
_symmetry_space_group_name_H-M "C 2/C"
_symmetry_group_IT_number 15
_symmetry_cell_setting 'monoclinic'
loop_
_space_group_symop_operation_xyz
x,y,z
-x,y,1/2-z
-x,-y,-z
x,-y,1/2+z
1/2+x,1/2+y,z
1/2-x,1/2+y,1/2-z
1/2-x,1/2-y,-z
1/2+x,1/2-y,1/2+z
loop_
_atom_site_type_symbol
_atom_site_label
_atom_site_fract_x
_atom_site_fract_y
_atom_site_fract_z
Si Si1 0.382068 0.329168 0.180665
Si Si2 0.323238 0.661439 0.304218
Si Si3 0.221244 0.572614 0.625006
Si Si4 0.000000 0.199037 0.250000
Si Si5 0.622217 0.771386 0.583878
Si Si6 0.705379 0.044301 0.272892
Si Si7 0.494768 0.886958 0.919678
O O1 0.500000 0.349160 0.250000
O O2 0.310293 0.378558 0.194764
O O3 0.382847 0.272337 0.282755
O O4 0.337522 0.317916 0.982744
O O5 0.429550 0.663490 0.304285
O O6 0.237831 0.703914 0.164139
O O7 0.276994 0.596555 0.273158
O O8 0.210214 0.548692 0.451091
O O9 0.239787 0.518148 0.744445
O O10 0.109316 0.599912 0.570164
O O11 0.077040 0.238016 0.409223
O O12 0.551275 0.827758 0.554629
O O13 0.588653 0.061228 0.126075
O O14 0.500000 0.878922 0.750000
#
# Coordination Sequence:
#
# PCOD9281491 Si02
#       7
#     8   8   8   4   8   8   8
#     4  11  22  40  63  88 118 160 216 245 291 368
#     4  10  23  42  60  88 121 163 202 252 303 361
#     4  10  21  38  62  90 117 157 201 250 301 359
#     4  12  24  38  58  90 130 156 200 248 314 368
#     4  11  23  39  63  89 126 156 203 253 306 362
#     4   9  20  40  60  87 120 151 203 249 305 357
#     4   9  19  37  62  89 117 156 199 250 302 362
#
# _framework density 19.085218000000001
#
# number of rings (size 3 to 8) (size 9 to 14) (size 15 to 20)
#    0.000    1.846    1.538    2.769    2.154    1.231 
#    6.923    1.538    0.000    0.000    0.000    0.000 
#    0.000    0.000    0.000    0.000    0.000    0.000 
#
# Total GULP energy -145210.353223 kJ/mol
# GULP energy per Si atom -5585.013586 kJ/mol
# Density = 1.904178 g / cm^3
# Si number density = 19.085218 Si / 1000 Ang^3
#
#
#
# Elastic Constant Matrix: (Units=GPa)
#
#
# Indices 1 2 3 4 5 6 
#
# 1 90.9175 42.0074 19.5153 0.0000 4.3230 0.0000
# 2 42.0074 65.2726 21.9110 0.0000 -0.2694 0.0000
# 3 19.5153 21.9110 43.5863 0.0000 12.5112 0.0000
# 4 0.0000 0.0000 0.0000 16.5285 0.0000 -11.3420
# 5 4.3230 -0.2694 12.5112 0.0000 26.6489 0.0000
# 6 0.0000 0.0000 0.0000 -11.3420 0.0000 20.3758
#
#
#
# Elastic Compliance Matrix: (Units=1/GPa)
#
#
# Indices 1 2 3 4 5 6 
#
# 1 0.015932 -0.009680 -0.001730 0.000000 -0.001870 0.000000
# 2 -0.009680 0.024968 -0.010102 0.000000 0.006565 0.000000
# 3 -0.001730 -0.010102 0.033222 0.000000 -0.015418 0.000000
# 4 0.000000 0.000000 0.000000 0.097895 0.000000 0.054492
# 5 -0.001870 0.006565 -0.015418 0.000000 0.045133 0.000000
# 6 0.000000 0.000000 0.000000 0.054492 0.000000 0.079410
#
#
# Mechanical properties :
#
#
# Convention : Reuss Voigt Hill
#
# Bulk Modulus (GPa) = 32.15742 40.73820 36.44781
# Shear Modulus (GPa) = 14.28769 20.46681 17.37725
#
# Velocity S-wave (km/s) = 2.73907 3.27829 3.02074
# Velocity P-wave (km/s) = 5.18549 5.97673 5.59512
#
# Compressibility (1/GPa) = 0.03109702
#
# Stress axis : x y z
#
# Youngs Moduli (GPa) = 62.76699 40.05055 30.10071
#
# Poissons Ratio (x) = 0.38770 0.05208
# Poissons Ratio (y) = 0.60760 0.30408
# Poissons Ratio (z) = 0.10861 0.40459
#
# Static dielectric constant tensor:
#      x y z
#    x 1.668790 0.000000 0.015490 
#    y 0.000000 1.628390 0.000000 
#    z 0.015490 0.000000 1.662980 
# 
# From -- ./inp_files/42312.got.cif
#   From: 2010.05.17/outbox.cif.g08.bks.cpg/sg15_22_cif.got.tgz:42312.got - 2010.06.03 18:47:42.
