data_PCOD9281486
_publ_section_title
;
Structure prediction by ZEFSAII (Michael W. Deem and Ramdas Pophale) SiO2 
 PCOD9281486
Probable space group: C 2/C
;
_chemical_formula_sum "Si O2"
_cell_formula_units_Z 64
_cell_length_a 28.669129
_cell_length_b 12.378974
_cell_length_c 14.182474
_cell_angle_alpha 90.000000
_cell_angle_beta 42.020680
_cell_angle_gamma 90.000000
_cell_volume 3369.271963
_symmetry_space_group_name_H-M "C 2/C"
_symmetry_group_IT_number 15
_symmetry_cell_setting 'monoclinic'
loop_
_space_group_symop_operation_xyz
x,y,z
-x,y,1/2-z
-x,-y,-z
x,-y,1/2+z
1/2+x,1/2+y,z
1/2-x,1/2+y,1/2-z
1/2-x,1/2-y,-z
1/2+x,1/2-y,1/2+z
loop_
_atom_site_type_symbol
_atom_site_label
_atom_site_fract_x
_atom_site_fract_y
_atom_site_fract_z
Si Si1 0.356888 0.230585 0.284790
Si Si2 0.156322 0.124924 0.194287
Si Si3 0.502135 0.129102 0.484524
Si Si4 0.872592 0.071651 0.628491
Si Si5 0.503992 0.318129 0.855013
Si Si6 0.281146 0.452954 0.092626
Si Si7 0.656169 0.175766 0.820669
Si Si8 0.210038 0.800819 0.921629
O O1 0.427434 0.161448 0.176757
O O2 0.372230 0.347349 0.217444
O O3 0.293021 0.191918 0.315136
O O4 0.325153 0.244688 0.435530
O O5 0.079269 0.137560 0.268454
O O6 0.175242 0.241147 0.208197
O O7 0.151031 0.040874 0.289314
O O8 0.203141 0.087784 0.036446
O O9 0.507557 0.206005 0.569757
O O10 0.427170 0.160763 0.552212
O O11 0.500000 0.000000 0.500000
O O12 0.821665 0.104109 0.618641
O O13 0.948700 0.090631 0.470141
O O14 0.500000 0.298512 0.750000
O O15 0.199741 0.433066 0.236517
O O16 0.310105 0.574216 0.054323
O O17 0.685075 0.233020 0.870364
#
# Coordination Sequence:
#
# PCOD9281486 Si02
#       8
#     8   8   8   8   8   8   8   8
#     4  10  22  41  64  88 124 164 210 258 319 379
#     4  11  22  39  59  92 124 161 210 261 317 380
#     4  10  23  45  64  89 129 166 212 263 321 382
#     4  11  20  37  62  89 120 163 205 255 320 377
#     4  10  21  38  62  89 125 164 204 258 318 392
#     4  12  22  38  62  88 127 162 208 259 322 374
#     4  11  24  40  62  95 127 163 216 266 309 390
#     4  11  22  39  64  92 123 164 212 263 317 376
#
# _framework density 18.995201999999999
#
# number of rings (size 3 to 8) (size 9 to 14) (size 15 to 20)
#    0.000    1.250    5.000    1.500    0.000    0.500 
#    2.250    1.250    0.000    0.000    0.000    0.000 
#    0.000    0.000    0.000    0.000    0.000    0.000 
#
# Total GULP energy -178361.165745 kJ/mol
# GULP energy per Si atom -5573.786430 kJ/mol
# Density = 1.895197 g / cm^3
# Si number density = 18.995202 Si / 1000 Ang^3
#
#
#
# Elastic Constant Matrix: (Units=GPa)
#
#
# Indices 1 2 3 4 5 6 
#
# 1 106.9403 15.8070 58.0344 0.0000 8.0572 0.0000
# 2 15.8070 75.2761 27.9892 0.0000 -4.1397 0.0000
# 3 58.0344 27.9892 97.2723 0.0000 -11.9430 0.0000
# 4 0.0000 0.0000 0.0000 5.8563 0.0000 8.2421
# 5 8.0572 -4.1397 -11.9430 0.0000 21.6673 0.0000
# 6 0.0000 0.0000 0.0000 8.2421 0.0000 5.1680
#
#
#
# Elastic Compliance Matrix: (Units=1/GPa)
#
#
# Indices 1 2 3 4 5 6 
#
# 1 0.016420 0.000089 -0.011337 0.000000 -0.012337 0.000000
# 2 0.000089 0.014882 -0.004280 0.000000 0.000451 0.000000
# 3 -0.011337 -0.004280 0.020049 0.000000 0.014449 0.000000
# 4 0.000000 0.000000 0.000000 -0.137207 0.000000 0.218820
# 5 -0.012337 0.000451 0.014449 0.000000 0.058791 0.000000
# 6 0.000000 0.000000 0.000000 0.218820 0.000000 -0.155479
#
#
# Mechanical properties :
#
#
# Convention : Reuss Voigt Hill
#
# Bulk Modulus (GPa) = 49.27062 53.68333 51.47697
# Shear Modulus (GPa) = -34.54842 18.38219 -8.08311
#
# Velocity S-wave (km/s) = -4.26936 3.11421 -2.06509
# Velocity P-wave (km/s) = 1.30057 6.42292 4.63387
#
# Compressibility (1/GPa) = 0.02029607
#
# Stress axis : x y z
#
# Youngs Moduli (GPa) = 60.90297 67.19577 49.87658
#
# Poissons Ratio (x) = -0.00597 0.56543
# Poissons Ratio (y) = -0.00541 0.21346
# Poissons Ratio (z) = 0.69043 0.28758
#
# Static dielectric constant tensor:
#      x y z
#    x 1.659060 0.000000 -0.016680 
#    y 0.000000 1.692950 0.000000 
#    z -0.016680 0.000000 1.671660 
# 
# From -- ./inp_files/181763.got.cif
#   From: 2010.05.17/outbox.cif.g08.bks.cpg/sg15_91_cif.got.tgz:181763.got - 2010.06.03 18:47:42.
