data_PCOD9281891
_publ_section_title
;
Structure prediction by ZEFSAII (Michael W. Deem and Ramdas Pophale) SiO2 
 PCOD9281891
Probable space group: C 2/C
;
_chemical_formula_sum "Si O2"
_cell_formula_units_Z 40
_cell_length_a 13.524329
_cell_length_b 22.441547
_cell_length_c 8.910580
_cell_angle_alpha 90.000000
_cell_angle_beta 132.683156
_cell_angle_gamma 90.000000
_cell_volume 1988.058435
_symmetry_space_group_name_H-M "C 2/C"
_symmetry_group_IT_number 15
_symmetry_cell_setting 'monoclinic'
loop_
_space_group_symop_operation_xyz
x,y,z
-x,y,1/2-z
-x,-y,-z
x,-y,1/2+z
1/2+x,1/2+y,z
1/2-x,1/2+y,1/2-z
1/2-x,1/2-y,-z
1/2+x,1/2-y,1/2+z
loop_
_atom_site_type_symbol
_atom_site_label
_atom_site_fract_x
_atom_site_fract_y
_atom_site_fract_z
Si Si1 0.643760 0.792950 0.314149
Si Si2 0.345689 0.927145 0.131930
Si Si3 0.642488 0.408375 0.365729
Si Si4 0.285823 0.492811 0.779723
Si Si5 0.347773 0.799940 0.528448
O O1 0.500000 0.788130 0.250000
O O2 0.750000 0.750000 0.500000
O O3 0.698397 0.860117 0.385049
O O4 0.632802 0.783094 0.125698
O O5 0.500000 0.925185 0.250000
O O6 0.329680 0.968697 0.259358
O O7 0.263604 0.953809 0.909392
O O8 0.500000 0.376409 0.250000
O O9 0.666853 0.449613 0.537803
O O10 0.627229 0.454499 0.209479
O O11 0.764533 0.362251 0.464127
O O12 0.500000 0.804231 0.750000
O O13 0.250000 0.750000 0.500000
#
# Coordination Sequence:
#
# PCOD9281891 Si02
#       5
#     8   8   8   8   8
#     4  11  25  46  69  98 136 174 226 277 340 408
#     4  10  21  38  65  97 135 169 223 268 340 395
#     4  11  24  43  68  99 139 179 229 272 341 397
#     4  10  22  40  64  97 135 180 219 276 326 408
#     4  12  27  47  73 102 136 177 231 287 345 408
#
# _framework density 20.120131000000001
#
# number of rings (size 3 to 8) (size 9 to 14) (size 15 to 20)
#    0.000    1.200    2.000    3.000    8.400    3.200 
#    0.000    1.000    0.000    0.000    0.000    0.000 
#    0.000    0.000    0.000    0.000    0.000    0.000 
#
# Total GULP energy -111566.679127 kJ/mol
# GULP energy per Si atom -5578.333956 kJ/mol
# Density = 2.007434 g / cm^3
# Si number density = 20.120131 Si / 1000 Ang^3
#
#
#
# Elastic Constant Matrix: (Units=GPa)
#
#
# Indices 1 2 3 4 5 6 
#
# 1 124.0650 50.5862 73.5960 0.0000 -12.6510 0.0000
# 2 50.5862 91.8303 45.2086 0.0000 7.2629 0.0000
# 3 73.5960 45.2086 90.3673 0.0000 -5.5483 0.0000
# 4 0.0000 0.0000 0.0000 30.8607 0.0000 -4.0346
# 5 -12.6510 7.2629 -5.5483 0.0000 42.9210 0.0000
# 6 0.0000 0.0000 0.0000 -4.0346 0.0000 41.2950
#
#
#
# Elastic Compliance Matrix: (Units=1/GPa)
#
#
# Indices 1 2 3 4 5 6 
#
# 1 0.016980 -0.003984 -0.011578 0.000000 0.004182 0.000000
# 2 -0.003984 0.015894 -0.004984 0.000000 -0.004508 0.000000
# 3 -0.011578 -0.004984 0.023014 0.000000 0.000406 0.000000
# 4 0.000000 0.000000 0.000000 0.032823 0.000000 0.003207
# 5 0.004182 -0.004508 0.000406 0.000000 0.025347 0.000000
# 6 0.000000 0.000000 0.000000 0.003207 0.000000 0.024529
#
#
# Mechanical properties :
#
#
# Convention : Reuss Voigt Hill
#
# Bulk Modulus (GPa) = 67.58941 71.67159 69.63050
# Shear Modulus (GPa) = 27.08401 32.14011 29.61206
#
# Velocity S-wave (km/s) = 3.67292 4.00110 3.84052
# Velocity P-wave (km/s) = 7.18700 7.55276 7.37215
#
# Compressibility (1/GPa) = 0.01479522
#
# Stress axis : x y z
#
# Youngs Moduli (GPa) = 58.89409 62.91509 43.45253
#
# Poissons Ratio (x) = 0.25066 0.50311
# Poissons Ratio (y) = 0.23464 0.21655
# Poissons Ratio (z) = 0.68190 0.31355
#
# Static dielectric constant tensor:
#      x y z
#    x 1.721290 0.000000 -0.010130 
#    y 0.000000 1.711180 0.000000 
#    z -0.010130 0.000000 1.628510 
# 
# From -- ./inp_files/42428.got.cif
#   From: 2010.05.17/outbox.cif.g08.bks.cpg/sg15_22_cif.got.tgz:42428.got - 2010.06.03 18:47:42.
