data_PCOD9281187
_publ_section_title
;
Structure prediction by ZEFSAII (Michael W. Deem and Ramdas Pophale) SiO2 
 PCOD9281187
Probable space group: C 2/C
;
_chemical_formula_sum "Si O2"
_cell_formula_units_Z 64
_cell_length_a 13.735077
_cell_length_b 8.687023
_cell_length_c 27.696470
_cell_angle_alpha 90.000000
_cell_angle_beta 90.508135
_cell_angle_gamma 90.000000
_cell_volume 3304.527808
_symmetry_space_group_name_H-M "C 2/C"
_symmetry_group_IT_number 15
_symmetry_cell_setting 'monoclinic'
loop_
_space_group_symop_operation_xyz
x,y,z
-x,y,1/2-z
-x,-y,-z
x,-y,1/2+z
1/2+x,1/2+y,z
1/2-x,1/2+y,1/2-z
1/2-x,1/2-y,-z
1/2+x,1/2-y,1/2+z
loop_
_atom_site_type_symbol
_atom_site_label
_atom_site_fract_x
_atom_site_fract_y
_atom_site_fract_z
Si Si1 0.078083 0.890353 0.474359
Si Si2 0.098369 0.801745 0.720187
Si Si3 0.811519 0.785266 0.680280
Si Si4 0.757926 0.996671 0.594040
Si Si5 0.857254 0.067288 0.853406
Si Si6 0.847269 0.809235 0.925639
Si Si7 0.051329 0.669784 0.090430
Si Si8 0.491083 0.853657 0.361976
O O1 0.145626 0.824520 0.517367
O O2 0.017674 0.749648 0.449700
O O3 0.146284 0.992438 0.439225
O O4 0.000000 0.000000 0.500000
O O5 0.178909 0.806409 0.762196
O O6 0.086572 0.658791 0.682947
O O7 0.000000 0.809553 0.750000
O O8 0.104500 0.946213 0.684921
O O9 0.786381 0.932517 0.646887
O O10 0.729576 0.660888 0.669888
O O11 0.910255 0.712842 0.659053
O O12 0.661961 0.893436 0.577458
O O13 0.722123 0.172813 0.592250
O O14 0.934000 0.192113 0.871699
O O15 0.823397 0.969851 0.899974
O O16 0.951401 0.756329 0.904272
O O17 0.003162 0.522914 0.115924
#
# Coordination Sequence:
#
# PCOD9281187 Si02
#       8
#     8   8   8   8   8   8   8   8
#     4  12  23  39  65  88 122 166 210 247 311 363
#     4   9  20  38  62  82 118 159 194 244 308 363
#     4  10  21  39  61  90 116 162 197 246 316 364
#     4  10  24  40  59  90 126 156 206 253 306 365
#     4  10  21  38  59  88 122 151 201 255 297 362
#     4  10  21  41  58  88 122 160 199 256 297 361
#     4  10  23  41  60  90 122 160 204 256 304 365
#     4   9  20  40  61  84 123 154 199 253 304 358
#
# _framework density 19.367366000000001
#
# number of rings (size 3 to 8) (size 9 to 14) (size 15 to 20)
#    0.000    2.000    1.250    1.125    5.250    6.500 
#    2.250    3.125    0.000    0.000    0.000    0.000 
#    0.000    0.000    0.000    0.000    0.000    0.000 
#
# Total GULP energy -178293.793484 kJ/mol
# GULP energy per Si atom -5571.681046 kJ/mol
# Density = 1.932329 g / cm^3
# Si number density = 19.367366 Si / 1000 Ang^3
#
#
#
# Elastic Constant Matrix: (Units=GPa)
#
#
# Indices 1 2 3 4 5 6 
#
# 1 27.0697 -0.4831 12.5305 0.0000 -3.1971 0.0000
# 2 -0.4831 88.5522 35.7843 0.0000 16.9159 0.0000
# 3 12.5305 35.7843 105.1234 0.0000 21.9837 0.0000
# 4 0.0000 0.0000 0.0000 29.2664 0.0000 1.0102
# 5 -3.1971 16.9159 21.9837 0.0000 30.9098 0.0000
# 6 0.0000 0.0000 0.0000 1.0102 0.0000 22.5611
#
#
#
# Elastic Compliance Matrix: (Units=1/GPa)
#
#
# Indices 1 2 3 4 5 6 
#
# 1 0.041335 0.001508 -0.007238 0.000000 0.008598 0.000000
# 2 0.001508 0.013756 -0.003901 0.000000 -0.004598 0.000000
# 3 -0.007238 -0.003901 0.013408 0.000000 -0.008150 0.000000
# 4 0.000000 0.000000 0.000000 0.034222 0.000000 -0.001532
# 5 0.008598 -0.004598 -0.008150 0.000000 0.041554 0.000000
# 6 0.000000 0.000000 0.000000 -0.001532 0.000000 0.044393
#
#
# Mechanical properties :
#
#
# Convention : Reuss Voigt Hill
#
# Bulk Modulus (GPa) = 20.31044 35.15651 27.73347
# Shear Modulus (GPa) = 22.28759 28.07505 25.18132
#
# Velocity S-wave (km/s) = 3.39600 3.81150 3.60973
# Velocity P-wave (km/s) = 5.08790 6.12878 5.63243
#
# Compressibility (1/GPa) = 0.04923577
#
# Stress axis : x y z
#
# Youngs Moduli (GPa) = 24.19276 72.69775 74.58498
#
# Poissons Ratio (x) = -0.10964 0.53988
# Poissons Ratio (y) = -0.03649 0.29093
# Poissons Ratio (z) = 0.17512 0.28357
#
# Static dielectric constant tensor:
#      x y z
#    x 1.752900 0.000000 0.034550 
#    y 0.000000 1.666820 0.000000 
#    z 0.034550 0.000000 1.704780 
# 
# From -- ./inp_files/295175.got.cif
#   From: 2010.05.17/outbox.cif.g08.bks.cpg/sg15_148_cif.got.tgz:295175.got - 2010.06.03 18:47:42.
