data_PCOD9281880
_publ_section_title
;
Structure prediction by ZEFSAII (Michael W. Deem and Ramdas Pophale) SiO2 
 PCOD9281880
Probable space group: C 2/C
;
_chemical_formula_sum "Si O2"
_cell_formula_units_Z 44
_cell_length_a 8.531846
_cell_length_b 26.893934
_cell_length_c 13.599586
_cell_angle_alpha 90.000000
_cell_angle_beta 140.547418
_cell_angle_gamma 90.000000
_cell_volume 1982.883385
_symmetry_space_group_name_H-M "C 2/C"
_symmetry_group_IT_number 15
_symmetry_cell_setting 'monoclinic'
loop_
_space_group_symop_operation_xyz
x,y,z
-x,y,1/2-z
-x,-y,-z
x,-y,1/2+z
1/2+x,1/2+y,z
1/2-x,1/2+y,1/2-z
1/2-x,1/2-y,-z
1/2+x,1/2-y,1/2+z
loop_
_atom_site_type_symbol
_atom_site_label
_atom_site_fract_x
_atom_site_fract_y
_atom_site_fract_z
Si Si1 0.244113 0.596288 0.684199
Si Si2 0.000000 0.642929 0.250000
Si Si3 0.026544 0.450023 0.895151
Si Si4 0.615840 0.276034 0.526973
Si Si5 0.609313 0.197319 0.695477
Si Si6 0.969719 0.005317 0.853494
O O1 0.500000 0.611507 0.750000
O O2 0.074950 0.561281 0.533106
O O3 0.080609 0.641816 0.640808
O O4 0.349693 0.559359 0.818058
O O5 0.063044 0.604755 0.366981
O O6 0.224759 0.680921 0.344473
O O7 0.749884 0.466490 0.733556
O O8 0.247281 0.488629 0.972709
O O9 0.750000 0.250000 0.500000
O O10 0.548583 0.236407 0.579630
O O11 0.394036 0.300392 0.361526
O O12 0.500000 0.207604 0.750000
O O13 0.000000 0.001825 0.750000
#
# Coordination Sequence:
#
# PCOD9281880 Si02
#       6
#     8   4   8   8   8   8
#     4   9  18  38  67  89 127 176 231 260 334 415
#     4  12  24  40  66  96 128 166 248 258 338 410
#     4  10  21  38  65  96 127 178 218 291 322 421
#     4  12  23  46  71  93 129 190 232 274 335 429
#     4  12  25  42  66 103 140 169 226 297 355 387
#     4   9  18  39  64  90 129 169 228 264 347 393
#
# _framework density 22.189907000000002
#
# number of rings (size 3 to 8) (size 9 to 14) (size 15 to 20)
#    0.000    1.818    1.818    7.091    0.000    0.727 
#    8.182    0.000    0.000    0.000    0.000    0.000 
#    0.000    0.000    0.000    0.000    0.000    0.000 
#
# Total GULP energy -122475.033665 kJ/mol
# GULP energy per Si atom -5567.046985 kJ/mol
# Density = 2.213940 g / cm^3
# Si number density = 22.189907 Si / 1000 Ang^3
#
#
#
# Elastic Constant Matrix: (Units=GPa)
#
#
# Indices 1 2 3 4 5 6 
#
# 1 69.1687 36.4308 29.0524 0.0000 -13.0896 0.0000
# 2 36.4308 94.0274 6.0665 0.0000 4.3184 0.0000
# 3 29.0524 6.0665 55.3407 0.0000 0.5771 0.0000
# 4 0.0000 0.0000 0.0000 33.5244 0.0000 -10.5785
# 5 -13.0896 4.3184 0.5771 0.0000 33.9158 0.0000
# 6 0.0000 0.0000 0.0000 -10.5785 0.0000 1.1875
#
#
#
# Elastic Compliance Matrix: (Units=1/GPa)
#
#
# Indices 1 2 3 4 5 6 
#
# 1 0.028180 -0.010603 -0.013761 0.000000 0.012460 0.000000
# 2 -0.010603 0.014762 0.004011 0.000000 -0.006040 0.000000
# 3 -0.013761 0.004011 0.024920 0.000000 -0.006246 0.000000
# 4 0.000000 0.000000 0.000000 -0.016472 0.000000 -0.146732
# 5 0.012460 -0.006040 -0.006246 0.000000 0.035169 0.000000
# 6 0.000000 0.000000 0.000000 -0.146732 0.000000 -0.465008
#
#
# Mechanical properties :
#
#
# Convention : Reuss Voigt Hill
#
# Bulk Modulus (GPa) = 36.82544 40.18179 38.50361
# Shear Modulus (GPa) = -15.21181 23.52469 4.15644
#
# Velocity S-wave (km/s) = -2.62110 3.25953 1.37011
# Velocity P-wave (km/s) = 2.73338 5.68450 4.46009
#
# Compressibility (1/GPa) = 0.02715514
#
# Stress axis : x y z
#
# Youngs Moduli (GPa) = 35.48652 67.74256 40.12903
#
# Poissons Ratio (x) = 0.71825 0.55223
# Poissons Ratio (y) = 0.37625 -0.16095
# Poissons Ratio (z) = 0.48834 -0.27171
#
# Static dielectric constant tensor:
#      x y z
#    x 1.871640 0.000000 -0.037890 
#    y 0.000000 1.441940 0.000000 
#    z -0.037890 0.000000 1.871930 
# 
# From -- ./inp_files/138818.got.cif
#   From: 2010.05.17/outbox.cif.g08.bks.cpg/sg15_70_cif.got.tgz:138818.got - 2010.06.03 18:47:42.
