data_PCOD9281780
_publ_section_title
;
Structure prediction by ZEFSAII (Michael W. Deem and Ramdas Pophale) SiO2 
 PCOD9281780
Probable space group: C 2/C
;
_chemical_formula_sum "Si O2"
_cell_formula_units_Z 40
_cell_length_a 7.348524
_cell_length_b 16.629683
_cell_length_c 13.334604
_cell_angle_alpha 90.000000
_cell_angle_beta 86.591856
_cell_angle_gamma 90.000000
_cell_volume 1626.654923
_symmetry_space_group_name_H-M "C 2/C"
_symmetry_group_IT_number 15
_symmetry_cell_setting 'monoclinic'
loop_
_space_group_symop_operation_xyz
x,y,z
-x,y,1/2-z
-x,-y,-z
x,-y,1/2+z
1/2+x,1/2+y,z
1/2-x,1/2+y,1/2-z
1/2-x,1/2-y,-z
1/2+x,1/2-y,1/2+z
loop_
_atom_site_type_symbol
_atom_site_label
_atom_site_fract_x
_atom_site_fract_y
_atom_site_fract_z
Si Si1 0.973510 0.621933 0.133866
Si Si2 0.552943 0.614287 0.080629
Si Si3 0.036421 0.941737 0.136615
Si Si4 0.969435 0.553528 0.632627
Si Si5 0.452461 0.779034 0.463516
O O1 0.757077 0.616954 0.118260
O O2 0.043638 0.533990 0.096198
O O3 0.000000 0.633407 0.250000
O O4 0.047871 0.694452 0.063951
O O5 0.467861 0.534659 0.132720
O O6 0.469281 0.702819 0.098496
O O7 0.543177 0.599815 0.960341
O O8 0.254467 0.941540 0.117480
O O9 0.000000 0.909570 0.250000
O O10 0.000000 0.550516 0.750000
O O11 0.054698 0.636628 0.593356
O O12 0.250000 0.750000 0.500000
#
# Coordination Sequence:
#
# PCOD9281780 Si02
#       5
#     8   8   8   8   8
#     4   9  19  39  63  96 128 174 221 265 326 393
#     4   9  21  41  60  95 129 171 220 267 339 391
#     4  10  22  41  67  90 129 178 221 271 330 395
#     4  10  22  39  63  98 124 171 227 265 325 405
#     4  10  21  38  64  93 134 165 206 280 328 384
#
# _framework density 24.590344000000002
#
# number of rings (size 3 to 8) (size 9 to 14) (size 15 to 20)
#    0.000    2.400    0.000    0.600    5.600    2.400 
#   25.200    0.000    0.000    0.000    0.000    0.000 
#    0.000    0.000    0.000    0.000    0.000    0.000 
#
# Total GULP energy -111675.093844 kJ/mol
# GULP energy per Si atom -5583.754692 kJ/mol
# Density = 2.453437 g / cm^3
# Si number density = 24.590344 Si / 1000 Ang^3
#
#
#
# Elastic Constant Matrix: (Units=GPa)
#
#
# Indices 1 2 3 4 5 6 
#
# 1 118.8699 9.1093 15.5262 0.0000 27.0307 0.0000
# 2 9.1093 157.5777 9.4831 0.0000 11.0028 0.0000
# 3 15.5262 9.4831 125.5114 0.0000 40.0271 0.0000
# 4 0.0000 0.0000 0.0000 1.6419 0.0000 -4.4004
# 5 27.0307 11.0028 40.0271 0.0000 40.3861 0.0000
# 6 0.0000 0.0000 0.0000 -4.4004 0.0000 7.5147
#
#
#
# Elastic Compliance Matrix: (Units=1/GPa)
#
#
# Indices 1 2 3 4 5 6 
#
# 1 0.010072 -0.000102 0.001320 0.000000 -0.008022 0.000000
# 2 -0.000102 0.006471 0.000094 0.000000 -0.001788 0.000000
# 3 0.001320 0.000094 0.011824 0.000000 -0.012628 0.000000
# 4 0.000000 0.000000 0.000000 -1.069697 0.000000 -0.626389
# 5 -0.008022 -0.001788 -0.012628 0.000000 0.043133 0.000000
# 6 0.000000 0.000000 0.000000 -0.626389 0.000000 -0.233725
#
#
# Mechanical properties :
#
#
# Convention : Reuss Voigt Hill
#
# Bulk Modulus (GPa) = 32.26620 52.24401 42.25510
# Shear Modulus (GPa) = -4.08425 34.43124 15.17350
#
# Velocity S-wave (km/s) = -1.29016 3.74598 2.48675
# Velocity P-wave (km/s) = 3.30615 6.32469 5.04640
#
# Compressibility (1/GPa) = 0.03099219
#
# Stress axis : x y z
#
# Youngs Moduli (GPa) = 99.28429 154.53209 84.57138
#
# Poissons Ratio (x) = 0.01569 -0.11163
# Poissons Ratio (y) = 0.01008 -0.00794
# Poissons Ratio (z) = -0.13106 -0.01450
#
# Static dielectric constant tensor:
#      x y z
#    x 1.979750 0.000000 -0.056350 
#    y 0.000000 2.036000 0.000000 
#    z -0.056350 0.000000 1.982940 
# 
# From -- ./inp_files/76791.got.cif
#   From: 2010.05.17/outbox.cif.g08.bks.cpg/sg15_39_cif.got.tgz:76791.got - 2010.06.03 18:47:42.
