data_PCOD9281416
_publ_section_title
;
Structure prediction by ZEFSAII (Michael W. Deem and Ramdas Pophale) SiO2 
 PCOD9281416
Probable space group: C 2/C
;
_chemical_formula_sum "Si O2"
_cell_formula_units_Z 48
_cell_length_a 19.421787
_cell_length_b 22.117280
_cell_length_c 5.244601
_cell_angle_alpha 90.000000
_cell_angle_beta 109.203065
_cell_angle_gamma 90.000000
_cell_volume 2127.503960
_symmetry_space_group_name_H-M "C 2/C"
_symmetry_group_IT_number 15
_symmetry_cell_setting 'monoclinic'
loop_
_space_group_symop_operation_xyz
x,y,z
-x,y,1/2-z
-x,-y,-z
x,-y,1/2+z
1/2+x,1/2+y,z
1/2-x,1/2+y,1/2-z
1/2-x,1/2-y,-z
1/2+x,1/2-y,1/2+z
loop_
_atom_site_type_symbol
_atom_site_label
_atom_site_fract_x
_atom_site_fract_y
_atom_site_fract_z
Si Si1 0.701436 0.701069 0.689138
Si Si2 0.000000 0.745662 0.250000
Si Si3 0.165561 0.667507 0.958068
Si Si4 0.880366 0.161930 0.423290
Si Si5 0.598143 0.466769 0.667395
Si Si6 0.500000 0.173732 0.750000
Si Si7 0.774946 0.463314 0.854825
O O1 0.785626 0.687322 0.727766
O O2 0.682162 0.772813 0.654839
O O3 0.675470 0.666396 0.908964
O O4 0.657552 0.674704 0.392534
O O5 0.063332 0.786322 0.440546
O O6 0.976946 0.707556 0.464198
O O7 0.197695 0.605265 0.106386
O O8 0.081965 0.650913 0.782446
O O9 0.923551 0.099434 0.449823
O O10 0.576957 0.515325 0.427096
O O11 0.686692 0.462909 0.761319
O O12 0.798699 0.499536 0.633389
#
# Coordination Sequence:
#
# PCOD9281416 Si02
#       7
#     8   4   8   8   8   4   8
#     4  11  25  38  71  98 130 160 221 274 320 378
#     4  12  24  44  62  96 134 174 204 260 340 388
#     4  11  24  45  65 102 131 168 216 269 325 385
#     4  12  22  43  64  99 129 169 216 265 323 388
#     4  10  21  38  61  92 127 170 214 263 313 370
#     4  12  26  44  64  94 136 172 204 262 342 394
#     4  10  23  39  64  92 126 169 215 267 313 375
#
# _framework density 22.561651000000001
#
# number of rings (size 3 to 8) (size 9 to 14) (size 15 to 20)
#    0.000    1.000    5.000    1.000    4.667    6.667 
#    0.000    1.667    0.000    0.000    0.000    0.000 
#    0.000    0.000    0.000    0.000    0.000    0.000 
#
# Total GULP energy -134105.018821 kJ/mol
# GULP energy per Si atom -5587.709118 kJ/mol
# Density = 2.251030 g / cm^3
# Si number density = 22.561651 Si / 1000 Ang^3
#
#
#
# Elastic Constant Matrix: (Units=GPa)
#
#
# Indices 1 2 3 4 5 6 
#
# 1 71.5369 -11.1445 15.1875 0.0000 25.7339 0.0000
# 2 -11.1445 101.5873 35.4481 0.0000 -4.3486 0.0000
# 3 15.1875 35.4481 128.1435 0.0000 -18.6406 0.0000
# 4 0.0000 0.0000 0.0000 29.0153 0.0000 -0.7759
# 5 25.7339 -4.3486 -18.6406 0.0000 37.4794 0.0000
# 6 0.0000 0.0000 0.0000 -0.7759 0.0000 13.0684
#
#
#
# Elastic Compliance Matrix: (Units=1/GPa)
#
#
# Indices 1 2 3 4 5 6 
#
# 1 0.022477 0.003918 -0.006389 0.000000 -0.018156 0.000000
# 2 0.003918 0.011581 -0.004165 0.000000 -0.003418 0.000000
# 3 -0.006389 -0.004165 0.011083 0.000000 0.009415 0.000000
# 4 0.000000 0.000000 0.000000 0.034519 0.000000 0.002050
# 5 -0.018156 -0.003418 0.009415 0.000000 0.043434 0.000000
# 6 0.000000 0.000000 0.000000 0.002050 0.000000 0.076642
#
#
# Mechanical properties :
#
#
# Convention : Reuss Voigt Hill
#
# Bulk Modulus (GPa) = 31.37932 42.24998 36.81465
# Shear Modulus (GPa) = 22.35836 33.36438 27.86137
#
# Velocity S-wave (km/s) = 3.15141 3.84970 3.51793
# Velocity P-wave (km/s) = 5.21348 6.20704 5.73183
#
# Compressibility (1/GPa) = 0.03186812
#
# Stress axis : x y z
#
# Youngs Moduli (GPa) = 44.49065 86.35115 90.23020
#
# Poissons Ratio (x) = -0.33832 0.57646
# Poissons Ratio (y) = -0.17431 0.37582
# Poissons Ratio (z) = 0.28424 0.35966
#
# Static dielectric constant tensor:
#      x y z
#    x 1.954050 0.000000 -0.001530 
#    y 0.000000 1.865920 0.000000 
#    z -0.001530 0.000000 1.823560 
# 
# From -- ./inp_files/13590.got.cif
#   From: 2010.05.17/outbox.cif.g08.bks.cpg/sg15_7_cif.got.tgz:13590.got - 2010.06.03 18:47:42.
