data_PCOD9281755
_publ_section_title
;
Structure prediction by ZEFSAII (Michael W. Deem and Ramdas Pophale) SiO2 
 PCOD9281755
Probable space group: C 2/C
;
_chemical_formula_sum "Si O2"
_cell_formula_units_Z 44
_cell_length_a 31.198795
_cell_length_b 8.674593
_cell_length_c 12.197062
_cell_angle_alpha 90.000000
_cell_angle_beta 43.235280
_cell_angle_gamma 90.000000
_cell_volume 2261.153748
_symmetry_space_group_name_H-M "C 2/C"
_symmetry_group_IT_number 15
_symmetry_cell_setting 'monoclinic'
loop_
_space_group_symop_operation_xyz
x,y,z
-x,y,1/2-z
-x,-y,-z
x,-y,1/2+z
1/2+x,1/2+y,z
1/2-x,1/2+y,1/2-z
1/2-x,1/2-y,-z
1/2+x,1/2-y,1/2+z
loop_
_atom_site_type_symbol
_atom_site_label
_atom_site_fract_x
_atom_site_fract_y
_atom_site_fract_z
Si Si1 0.248941 0.647934 0.663379
Si Si2 0.908163 0.113984 0.746769
Si Si3 0.984136 0.324926 0.004398
Si Si4 0.500000 0.331260 0.250000
Si Si5 0.778785 0.206771 0.061210
Si Si6 0.353967 0.707746 0.302653
O O1 0.243489 0.684484 0.800434
O O2 0.256800 0.466235 0.630285
O O3 0.310413 0.719189 0.490887
O O4 0.189002 0.722339 0.713600
O O5 0.950700 0.067795 0.772884
O O6 0.874405 0.971622 0.750850
O O7 0.043782 0.212695 0.916669
O O8 0.853197 0.213466 0.903376
O O9 0.920441 0.289309 0.185846
O O10 0.972487 0.278694 0.897552
O O11 0.000000 0.500000 0.000000
O O12 0.750000 0.250000 0.000000
#
# Coordination Sequence:
#
# PCOD9281755 Si02
#       6
#     8   8   8   4   8   8
#     4  10  25  40  70  94 133 177 220 284 331 413
#     4   9  21  41  65  91 129 174 219 276 331 395
#     4  10  21  38  64  91 130 167 214 275 330 395
#     4   8  20  38  62  94 124 170 210 276 332 378
#     4  11  25  44  66  98 136 177 232 274 344 400
#     4  10  21  43  65  95 127 172 228 269 343 399
#
# _framework density 19.459091999999998
#
# number of rings (size 3 to 8) (size 9 to 14) (size 15 to 20)
#    1.091    1.091    0.000    1.636   10.182    0.000 
#    0.000    0.909    0.000    0.000    0.000    0.000 
#    0.000    0.000    0.000    0.000    0.000    0.000 
#
# Total GULP energy -122513.325990 kJ/mol
# GULP energy per Si atom -5568.787545 kJ/mol
# Density = 1.941480 g / cm^3
# Si number density = 19.459092 Si / 1000 Ang^3
#
#
#
# Elastic Constant Matrix: (Units=GPa)
#
#
# Indices 1 2 3 4 5 6 
#
# 1 71.7239 25.5424 56.0481 0.0000 -9.5757 0.0000
# 2 25.5424 64.5521 54.5893 0.0000 -13.0174 0.0000
# 3 56.0481 54.5893 119.9358 0.0000 -22.0627 0.0000
# 4 0.0000 0.0000 0.0000 32.1505 0.0000 2.9771
# 5 -9.5757 -13.0174 -22.0627 0.0000 36.8066 0.0000
# 6 0.0000 0.0000 0.0000 2.9771 0.0000 25.8793
#
#
#
# Elastic Compliance Matrix: (Units=1/GPa)
#
#
# Indices 1 2 3 4 5 6 
#
# 1 0.021971 -0.000055 -0.010334 0.000000 -0.000498 0.000000
# 2 -0.000055 0.025358 -0.011092 0.000000 0.002305 0.000000
# 3 -0.010334 -0.011092 0.019106 0.000000 0.004841 0.000000
# 4 0.000000 0.000000 0.000000 0.031439 0.000000 -0.003617
# 5 -0.000498 0.002305 0.004841 0.000000 0.030757 0.000000
# 6 0.000000 0.000000 0.000000 -0.003617 0.000000 0.039057
#
#
# Mechanical properties :
#
#
# Convention : Reuss Voigt Hill
#
# Bulk Modulus (GPa) = 42.60173 58.73013 50.66593
# Shear Modulus (GPa) = 22.88602 26.96942 24.92772
#
# Velocity S-wave (km/s) = 3.43317 3.72688 3.58303
# Velocity P-wave (km/s) = 6.13645 6.98329 6.57352
#
# Compressibility (1/GPa) = 0.02347323
#
# Stress axis : x y z
#
# Youngs Moduli (GPa) = 45.51497 39.43493 52.33894
#
# Poissons Ratio (x) = 0.00217 0.54087
# Poissons Ratio (y) = 0.00250 0.58055
# Poissons Ratio (z) = 0.47035 0.43742
#
# Static dielectric constant tensor:
#      x y z
#    x 1.567800 0.000000 0.046630 
#    y 0.000000 1.690120 0.000000 
#    z 0.046630 0.000000 1.652600 
# 
# From -- ./inp_files/125472.got.cif
#   From: 2010.05.17/outbox.cif.g08.bks.cpg/sg15_63_cif.got.tgz:125472.got - 2010.06.03 18:47:42.
