data_PCOD9281163
_publ_section_title
;
Structure prediction by ZEFSAII (Michael W. Deem and Ramdas Pophale) SiO2 
 PCOD9281163
Probable space group: C 2/C
;
_chemical_formula_sum "Si O2"
_cell_formula_units_Z 36
_cell_length_a 25.878163
_cell_length_b 7.522271
_cell_length_c 15.238848
_cell_angle_alpha 90.000000
_cell_angle_beta 27.915054
_cell_angle_gamma 90.000000
_cell_volume 1388.771248
_symmetry_space_group_name_H-M "C 2/C"
_symmetry_group_IT_number 15
_symmetry_cell_setting 'monoclinic'
loop_
_space_group_symop_operation_xyz
x,y,z
-x,y,1/2-z
-x,-y,-z
x,-y,1/2+z
1/2+x,1/2+y,z
1/2-x,1/2+y,1/2-z
1/2-x,1/2-y,-z
1/2+x,1/2-y,1/2+z
loop_
_atom_site_type_symbol
_atom_site_label
_atom_site_fract_x
_atom_site_fract_y
_atom_site_fract_z
Si Si1 0.500000 0.215068 0.250000
Si Si2 0.260843 0.142515 0.185368
Si Si3 0.480619 0.827308 0.969638
Si Si4 0.683079 0.482638 0.469260
Si Si5 0.691652 0.409924 0.138718
O O1 0.500111 0.110380 0.159761
O O2 0.403174 0.359098 0.401609
O O3 0.345560 0.297903 0.034817
O O4 0.270613 0.070487 0.269306
O O5 0.139877 0.232988 0.345279
O O6 0.259055 0.979800 0.120503
O O7 0.572432 0.670175 0.844280
O O8 0.500000 0.000000 0.000000
O O9 0.696281 0.445781 0.552890
O O10 0.750000 0.250000 0.000000
#
# Coordination Sequence:
#
# PCOD9281163 Si02
#       5
#     4   8   8   8   8
#     4   8  20  40  62  86 124 156 196 250 296 348
#     4  11  22  40  62  87 120 158 198 245 296 353
#     4  10  21  39  62  89 118 158 200 242 296 353
#     4  10  21  38  59  85 117 157 197 242 297 350
#     4  11  22  39  60  87 121 154 194 246 294 351
#
# _framework density 25.922194999999999
#
# number of rings (size 3 to 8) (size 9 to 14) (size 15 to 20)
#    0.000    1.778    0.000    4.000    0.000    0.000 
#    0.000    4.444    0.000    0.000    0.000    0.000 
#    0.000    0.000    0.000    0.000    0.000    0.000 
#
# Total GULP energy -100543.428100 kJ/mol
# GULP energy per Si atom -5585.746006 kJ/mol
# Density = 2.586319 g / cm^3
# Si number density = 25.922195 Si / 1000 Ang^3
#
#
#
# Elastic Constant Matrix: (Units=GPa)
#
#
# Indices 1 2 3 4 5 6 
#
# 1 105.9540 36.9101 46.7139 0.0000 27.7380 0.0000
# 2 36.9101 126.4901 49.1852 0.0004 11.6067 -0.0002
# 3 46.7139 49.1852 89.2961 0.0002 24.4552 -0.0001
# 4 0.0000 0.0004 0.0002 26.2495 -0.0001 19.9951
# 5 27.7380 11.6067 24.4552 -0.0001 46.3004 0.0000
# 6 0.0000 -0.0002 -0.0001 19.9951 0.0000 50.8088
#
#
#
# Elastic Compliance Matrix: (Units=1/GPa)
#
#
# Indices 1 2 3 4 5 6 
#
# 1 0.013431 -0.001607 -0.004732 0.000000 -0.005144 0.000000
# 2 -0.001607 0.010262 -0.005110 0.000000 0.001089 0.000000
# 3 -0.004732 -0.005110 0.017960 0.000000 -0.005370 0.000000
# 4 0.000000 0.000000 0.000000 0.054405 0.000000 -0.021410
# 5 -0.005144 0.001089 -0.005370 0.000000 0.027243 0.000000
# 6 0.000000 0.000000 0.000000 -0.021410 0.000000 0.028107
#
#
# Mechanical properties :
#
#
# Convention : Reuss Voigt Hill
#
# Bulk Modulus (GPa) = 53.32247 65.26206 59.29227
# Shear Modulus (GPa) = 27.69210 37.26714 32.47962
#
# Velocity S-wave (km/s) = 3.27200 3.79575 3.54357
# Velocity P-wave (km/s) = 5.90673 6.66642 6.29804
#
# Compressibility (1/GPa) = 0.01875382
#
# Stress axis : x y z
#
# Youngs Moduli (GPa) = 74.45497 97.44981 55.68079
#
# Poissons Ratio (x) = 0.15661 0.26350
# Poissons Ratio (y) = 0.11965 0.28452
# Poissons Ratio (z) = 0.35234 0.49795
#
# Static dielectric constant tensor:
#      x y z
#    x 2.285730 0.000000 -0.023030 
#    y 0.000000 2.066180 0.000000 
#    z -0.023030 0.000000 2.170570 
# 
# From -- ./inp_files/180685.got.cif
#   From: 2010.05.17/outbox.cif.g08.bks.cpg/sg15_91_cif.got.tgz:180685.got - 2010.06.03 18:47:42.
