data_PCOD9281886
_publ_section_title
;
Structure prediction by ZEFSAII (Michael W. Deem and Ramdas Pophale) SiO2 
 PCOD9281886
Probable space group: C 2/C
;
_chemical_formula_sum "Si O2"
_cell_formula_units_Z 48
_cell_length_a 20.860328
_cell_length_b 21.379043
_cell_length_c 9.304810
_cell_angle_alpha 90.000000
_cell_angle_beta 149.602293
_cell_angle_gamma 90.000000
_cell_volume 2099.746047
_symmetry_space_group_name_H-M "C 2/C"
_symmetry_group_IT_number 15
_symmetry_cell_setting 'monoclinic'
loop_
_space_group_symop_operation_xyz
x,y,z
-x,y,1/2-z
-x,-y,-z
x,-y,1/2+z
1/2+x,1/2+y,z
1/2-x,1/2+y,1/2-z
1/2-x,1/2-y,-z
1/2+x,1/2-y,1/2+z
loop_
_atom_site_type_symbol
_atom_site_label
_atom_site_fract_x
_atom_site_fract_y
_atom_site_fract_z
Si Si1 0.144762 0.027649 0.005316
Si Si2 0.786732 0.158774 0.463446
Si Si3 0.263130 0.576818 0.015163
Si Si4 0.112601 0.331832 0.356971
Si Si5 0.130711 0.293530 0.920093
Si Si6 0.874642 0.804960 0.602676
O O1 0.000000 0.008313 0.750000
O O2 0.223711 0.972877 0.084467
O O3 0.149350 0.090707 0.915825
O O4 0.201827 0.042669 0.270477
O O5 0.871777 0.221121 0.640894
O O6 0.675092 0.166408 0.366186
O O7 0.730177 0.164756 0.194146
O O8 0.130219 0.612613 0.779570
O O9 0.357643 0.634556 0.166685
O O10 0.112688 0.262104 0.294193
O O11 0.000000 0.339836 0.250000
O O12 0.000000 0.307838 0.750000
O O13 0.251328 0.301618 0.260479
O O14 0.000000 0.810912 0.750000
#
# Coordination Sequence:
#
# PCOD9281886 Si02
#       6
#     8   8   8   8   8   8
#     4  11  24  41  63  88 128 168 218 265 321 379
#     4   9  21  39  59  92 130 167 209 265 319 385
#     4  11  24  40  63  94 122 170 214 267 320 381
#     4   9  20  41  62  92 125 164 210 267 320 381
#     4  10  21  38  65  97 128 167 213 264 329 382
#     4  10  22  39  66  99 129 163 213 267 321 383
#
# _framework density 22.859907
#
# number of rings (size 3 to 8) (size 9 to 14) (size 15 to 20)
#    0.000    2.000    0.000    2.000    7.000    0.000 
#   12.000    4.167    0.000    0.000    0.000    0.000 
#    0.000    0.000    0.000    0.000    0.000    0.000 
#
# Total GULP energy -134116.968942 kJ/mol
# GULP energy per Si atom -5588.207039 kJ/mol
# Density = 2.280788 g / cm^3
# Si number density = 22.859907 Si / 1000 Ang^3
#
#
#
# Elastic Constant Matrix: (Units=GPa)
#
#
# Indices 1 2 3 4 5 6 
#
# 1 153.8751 82.3302 41.9181 0.0000 25.0501 0.0000
# 2 82.3302 133.2448 23.0748 0.0000 2.4982 0.0000
# 3 41.9181 23.0748 76.0554 0.0000 14.9586 0.0000
# 4 0.0000 0.0000 0.0000 7.7295 0.0000 15.4935
# 5 25.0501 2.4982 14.9586 0.0000 33.3001 0.0000
# 6 0.0000 0.0000 0.0000 15.4935 0.0000 63.3543
#
#
#
# Elastic Compliance Matrix: (Units=1/GPa)
#
#
# Indices 1 2 3 4 5 6 
#
# 1 0.012227 -0.006859 -0.003236 0.000000 -0.007230 0.000000
# 2 -0.006859 0.011777 -0.000695 0.000000 0.004589 0.000000
# 3 -0.003236 -0.000695 0.016074 0.000000 -0.004734 0.000000
# 4 0.000000 0.000000 0.000000 0.253773 0.000000 -0.062061
# 5 -0.007230 0.004589 -0.004734 0.000000 0.037251 0.000000
# 6 0.000000 0.000000 0.000000 -0.062061 0.000000 0.030961
#
#
# Mechanical properties :
#
#
# Convention : Reuss Voigt Hill
#
# Bulk Modulus (GPa) = 54.06088 73.09127 63.57608
# Shear Modulus (GPa) = 12.82672 35.26693 24.04683
#
# Velocity S-wave (km/s) = 2.37133 3.93204 3.24685
# Velocity P-wave (km/s) = 5.58549 7.25655 6.47515
#
# Compressibility (1/GPa) = 0.01849766
#
# Stress axis : x y z
#
# Youngs Moduli (GPa) = 81.78476 84.90774 62.21250
#
# Poissons Ratio (x) = 0.58239 0.20133
# Poissons Ratio (y) = 0.56097 0.04326
# Poissons Ratio (z) = 0.26466 0.05904
#
# Static dielectric constant tensor:
#      x y z
#    x 1.869120 0.000000 -0.006310 
#    y 0.000000 1.876940 0.000000 
#    z -0.006310 0.000000 1.918500 
# 
# From -- ./inp_files/114312.got.cif
#   From: 2010.05.17/outbox.cif.g08.bks.cpg/sg15_58_cif.got.tgz:114312.got - 2010.06.03 18:47:42.
