data_PCOD9281482
_publ_section_title
;
Structure prediction by ZEFSAII (Michael W. Deem and Ramdas Pophale) SiO2 
 PCOD9281482
Probable space group: C 2/C
;
_chemical_formula_sum "Si O2"
_cell_formula_units_Z 56
_cell_length_a 14.545739
_cell_length_b 17.943699
_cell_length_c 12.072940
_cell_angle_alpha 90.000000
_cell_angle_beta 119.253541
_cell_angle_gamma 90.000000
_cell_volume 2749.218287
_symmetry_space_group_name_H-M "C 2/C"
_symmetry_group_IT_number 15
_symmetry_cell_setting 'monoclinic'
loop_
_space_group_symop_operation_xyz
x,y,z
-x,y,1/2-z
-x,-y,-z
x,-y,1/2+z
1/2+x,1/2+y,z
1/2-x,1/2+y,1/2-z
1/2-x,1/2-y,-z
1/2+x,1/2-y,1/2+z
loop_
_atom_site_type_symbol
_atom_site_label
_atom_site_fract_x
_atom_site_fract_y
_atom_site_fract_z
Si Si1 0.710111 0.698106 0.640150
Si Si2 0.047089 0.069149 0.890921
Si Si3 0.169194 0.037371 0.619843
Si Si4 0.826908 0.462741 0.402855
Si Si5 0.464205 0.927201 0.112131
Si Si6 0.794929 0.816366 0.101804
Si Si7 0.407875 0.755699 0.124567
O O1 0.733991 0.611415 0.628074
O O2 0.694577 0.707524 0.762423
O O3 0.613035 0.718571 0.505126
O O4 0.806327 0.744417 0.644914
O O5 0.098741 0.147869 0.886973
O O6 0.000000 0.034450 0.750000
O O7 0.943117 0.070498 0.904905
O O8 0.135606 0.020326 0.005836
O O9 0.238398 0.007840 0.763904
O O10 0.866073 0.527898 0.505552
O O11 0.780136 0.389315 0.433846
O O12 0.933498 0.436033 0.404798
O O13 0.500000 0.960799 0.250000
O O14 0.438070 0.840838 0.114581
O O15 0.750000 0.750000 0.000000
O O16 0.500000 0.719736 0.250000
#
# Coordination Sequence:
#
# PCOD9281482 Si02
#       7
#     8   8   8   8   8   8   8
#     4  10  22  40  60  91 120 161 205 252 307 367
#     4  11  22  39  62  92 119 166 205 251 318 367
#     4  10  22  38  63  87 124 159 208 258 300 376
#     4  10  22  39  59  91 123 159 206 249 312 366
#     4  10  21  38  62  89 119 161 203 256 300 365
#     4  11  24  42  62  90 131 170 202 259 321 377
#     4  10  21  38  64  86 119 160 205 254 303 359
#
# _framework density 20.369425
#
# number of rings (size 3 to 8) (size 9 to 14) (size 15 to 20)
#    0.000    1.714    2.857    3.429    4.000    4.000 
#    2.571    5.714    0.000    0.000    0.000    0.000 
#    0.000    0.000    0.000    0.000    0.000    0.000 
#
# Total GULP energy -156148.701407 kJ/mol
# GULP energy per Si atom -5576.739336 kJ/mol
# Density = 2.032306 g / cm^3
# Si number density = 20.369425 Si / 1000 Ang^3
#
#
#
# Elastic Constant Matrix: (Units=GPa)
#
#
# Indices 1 2 3 4 5 6 
#
# 1 69.6486 11.3038 33.0505 0.0000 -7.4496 0.0000
# 2 11.3038 48.1314 77.0619 0.0000 -5.7735 0.0000
# 3 33.0505 77.0619 201.3638 0.0000 10.8969 0.0000
# 4 0.0000 0.0000 0.0000 41.0554 0.0000 1.2327
# 5 -7.4496 -5.7735 10.8969 0.0000 35.0435 0.0000
# 6 0.0000 0.0000 0.0000 1.2327 0.0000 -2.3089
#
#
#
# Elastic Compliance Matrix: (Units=1/GPa)
#
#
# Indices 1 2 3 4 5 6 
#
# 1 0.016467 0.004188 -0.004610 0.000000 0.005624 0.000000
# 2 0.004188 0.064477 -0.026431 0.000000 0.019732 0.000000
# 3 -0.004610 -0.026431 0.016403 0.000000 -0.010435 0.000000
# 4 0.000000 0.000000 0.000000 0.023973 0.000000 0.012798
# 5 0.005624 0.019732 -0.010435 0.000000 0.036227 0.000000
# 6 0.000000 0.000000 0.000000 0.012798 0.000000 -0.426267
#
#
# Mechanical properties :
#
#
# Convention : Reuss Voigt Hill
#
# Bulk Modulus (GPa) = 22.91370 62.44180 42.67775
# Shear Modulus (GPa) = -24.94165 27.93983 1.49909
#
# Velocity S-wave (km/s) = -3.50303 3.70760 0.85881
# Velocity P-wave (km/s) = 2.25569 7.00355 4.68836
#
# Compressibility (1/GPa) = 0.04364201
#
# Stress axis : x y z
#
# Youngs Moduli (GPa) = 60.72681 15.50936 60.96631
#
# Poissons Ratio (x) = -0.06496 0.28105
# Poissons Ratio (y) = -0.25434 1.61138
# Poissons Ratio (z) = 0.27995 0.40992
#
# Static dielectric constant tensor:
#      x y z
#    x 1.794820 0.000000 0.004890 
#    y 0.000000 1.706180 0.000000 
#    z 0.004890 0.000000 1.763660 
# 
# From -- ./inp_files/98834.got.cif
#   From: 2010.05.17/outbox.cif.g08.bks.cpg/sg15_50_cif.got.tgz:98834.got - 2010.06.03 18:47:42.
