data_PCOD9281042
_publ_section_title
;
Structure prediction by ZEFSAII (Michael W. Deem and Ramdas Pophale) SiO2 
 PCOD9281042
Probable space group: C 2/C
;
_chemical_formula_sum "Si O2"
_cell_formula_units_Z 48
_cell_length_a 10.956139
_cell_length_b 8.040768
_cell_length_c 27.246118
_cell_angle_alpha 90.000000
_cell_angle_beta 124.230902
_cell_angle_gamma 90.000000
_cell_volume 1984.486925
_symmetry_space_group_name_H-M "C 2/C"
_symmetry_group_IT_number 15
_symmetry_cell_setting 'monoclinic'
loop_
_space_group_symop_operation_xyz
x,y,z
-x,y,1/2-z
-x,-y,-z
x,-y,1/2+z
1/2+x,1/2+y,z
1/2-x,1/2+y,1/2-z
1/2-x,1/2-y,-z
1/2+x,1/2-y,1/2+z
loop_
_atom_site_type_symbol
_atom_site_label
_atom_site_fract_x
_atom_site_fract_y
_atom_site_fract_z
Si Si1 0.373203 0.597915 0.753626
Si Si2 0.642869 0.867214 0.943620
Si Si3 0.674483 0.256676 0.789052
Si Si4 0.556068 0.531328 0.885823
Si Si5 0.344992 0.142045 0.482964
Si Si6 0.656094 0.573108 0.585226
O O1 0.500000 0.688468 0.750000
O O2 0.301522 0.455521 0.703940
O O3 0.253545 0.699826 0.756471
O O4 0.464906 0.498598 0.816480
O O5 0.550932 0.732005 0.892324
O O6 0.742548 0.965653 0.927206
O O7 0.750000 0.750000 0.000000
O O8 0.572859 0.005945 0.964383
O O9 0.500000 0.222725 0.750000
O O10 0.744898 0.158475 0.850351
O O11 0.719619 0.459288 0.924254
O O12 0.466960 0.469053 0.913496
O O13 0.250000 0.250000 0.500000
O O14 0.416354 0.279410 0.463693
#
# Coordination Sequence:
#
# PCOD9281042 Si02
#       6
#     8   8   8   8   8   8
#     4  10  22  39  60  86 119 157 198 247 300 356
#     4   9  20  36  56  84 113 147 191 234 283 349
#     4  10  22  39  60  87 119 155 197 246 299 355
#     4  10  21  38  57  82 117 153 191 239 294 349
#     4   9  18  34  56  82 113 148 189 234 282 345
#     4  10  21  38  59  83 115 153 191 241 297 350
#
# _framework density 24.187612000000001
#
# number of rings (size 3 to 8) (size 9 to 14) (size 15 to 20)
#    0.000    2.333    0.000    2.000    0.000   12.667 
#    0.000    5.000    0.000    0.000    0.000    0.000 
#    0.000    0.000    0.000    0.000    0.000    0.000 
#
# Total GULP energy -134076.809308 kJ/mol
# GULP energy per Si atom -5586.533721 kJ/mol
# Density = 2.413256 g / cm^3
# Si number density = 24.187612 Si / 1000 Ang^3
#
#
#
# Elastic Constant Matrix: (Units=GPa)
#
#
# Indices 1 2 3 4 5 6 
#
# 1 134.2706 15.6174 22.9208 0.0000 -25.2509 0.0000
# 2 15.6174 59.5423 24.6754 0.0000 -7.4332 0.0000
# 3 22.9208 24.6754 72.9375 0.0000 -12.2266 0.0000
# 4 0.0000 0.0000 0.0000 42.2741 0.0000 -6.4694
# 5 -25.2509 -7.4332 -12.2266 0.0000 40.5978 0.0000
# 6 0.0000 0.0000 0.0000 -6.4694 0.0000 43.5354
#
#
#
# Elastic Compliance Matrix: (Units=1/GPa)
#
#
# Indices 1 2 3 4 5 6 
#
# 1 0.008736 -0.001035 -0.001597 0.000000 0.004763 0.000000
# 2 -0.001035 0.019764 -0.006174 0.000000 0.001115 0.000000
# 3 -0.001597 -0.006174 0.016793 0.000000 0.002934 0.000000
# 4 0.000000 0.000000 0.000000 0.024206 0.000000 0.003597
# 5 0.004763 0.001115 0.002934 0.000000 0.028682 0.000000
# 6 0.000000 0.000000 0.000000 0.003597 0.000000 0.023504
#
#
# Mechanical properties :
#
#
# Convention : Reuss Voigt Hill
#
# Bulk Modulus (GPa) = 36.12539 43.68639 39.90589
# Shear Modulus (GPa) = 33.66441 38.85059 36.25750
#
# Velocity S-wave (km/s) = 3.73474 4.01211 3.87591
# Velocity P-wave (km/s) = 5.79358 6.28995 6.04686
#
# Compressibility (1/GPa) = 0.02768136
#
# Stress axis : x y z
#
# Youngs Moduli (GPa) = 114.46321 50.59651 59.54963
#
# Poissons Ratio (x) = 0.05237 0.09509
# Poissons Ratio (y) = 0.11848 0.36767
# Poissons Ratio (z) = 0.18277 0.31239
#
# Static dielectric constant tensor:
#      x y z
#    x 2.004130 0.000000 -0.016610 
#    y 0.000000 1.958390 0.000000 
#    z -0.016610 0.000000 1.984260 
# 
# From -- ./inp_files/291035.got.cif
#   From: 2010.05.17/outbox.cif.g08.bks.cpg/sg15_146_cif.got.tgz:291035.got - 2010.06.03 18:47:42.
