data_PCOD9281250
_publ_section_title
;
Structure prediction by ZEFSAII (Michael W. Deem and Ramdas Pophale) SiO2 
 PCOD9281250
Probable space group: C 2/C
;
_chemical_formula_sum "Si O2"
_cell_formula_units_Z 56
_cell_length_a 14.299861
_cell_length_b 24.615295
_cell_length_c 14.138256
_cell_angle_alpha 90.000000
_cell_angle_beta 31.544733
_cell_angle_gamma 90.000000
_cell_volume 2603.578232
_symmetry_space_group_name_H-M "C 2/C"
_symmetry_group_IT_number 15
_symmetry_cell_setting 'monoclinic'
loop_
_space_group_symop_operation_xyz
x,y,z
-x,y,1/2-z
-x,-y,-z
x,-y,1/2+z
1/2+x,1/2+y,z
1/2-x,1/2+y,1/2-z
1/2-x,1/2-y,-z
1/2+x,1/2-y,1/2+z
loop_
_atom_site_type_symbol
_atom_site_label
_atom_site_fract_x
_atom_site_fract_y
_atom_site_fract_z
Si Si1 0.876916 0.784396 0.108933
Si Si2 0.923548 0.684723 0.491662
Si Si3 0.801243 0.880791 0.448641
Si Si4 0.412891 0.019244 0.427806
Si Si5 0.377297 0.300713 0.771741
Si Si6 0.789492 0.408519 0.758692
Si Si7 0.666659 0.420761 0.671681
O O1 0.735839 0.817428 0.293231
O O2 0.763938 0.742781 0.141552
O O3 0.999091 0.745693 0.070130
O O4 0.003283 0.813745 0.924480
O O5 0.837402 0.664854 0.467709
O O6 0.085109 0.643276 0.375618
O O7 0.741874 0.934834 0.441911
O O8 0.784713 0.894327 0.573683
O O9 0.000000 0.864954 0.250000
O O10 0.500000 0.021561 0.250000
O O11 0.572060 0.041219 0.355597
O O12 0.330347 0.960610 0.512639
O O13 0.500000 0.278028 0.750000
O O14 0.299060 0.357199 0.878276
O O15 0.645058 0.422747 0.803827
O O16 0.500000 0.437178 0.750000
#
# Coordination Sequence:
#
# PCOD9281250 Si02
#       7
#     8   8   8   8   8   8   8
#     4  10  21  39  62  88 125 167 215 259 313 367
#     4  10  21  39  64  90 122 163 208 259 307 376
#     4  10  22  40  68  91 125 165 201 252 318 385
#     4   9  20  42  64  93 125 164 205 249 311 375
#     4  10  21  38  60  87 127 168 213 259 304 366
#     4  10  21  43  65  89 130 168 203 250 316 377
#     4  11  22  39  63  94 129 158 209 261 299 363
#
# _framework density 21.508859999999999
#
# number of rings (size 3 to 8) (size 9 to 14) (size 15 to 20)
#    0.000    2.000    1.429    2.571    2.000    0.000 
#    5.143   12.143    0.000    0.000    0.000    0.000 
#    0.000    0.000    0.000    0.000    0.000    0.000 
#
# Total GULP energy -156267.034591 kJ/mol
# GULP energy per Si atom -5580.965521 kJ/mol
# Density = 2.145991 g / cm^3
# Si number density = 21.508860 Si / 1000 Ang^3
#
#
#
# Elastic Constant Matrix: (Units=GPa)
#
#
# Indices 1 2 3 4 5 6 
#
# 1 151.5526 17.6215 17.3041 -0.0064 -13.1641 0.0031
# 2 17.6215 62.4404 22.6391 -0.0033 -6.5550 0.0012
# 3 17.3041 22.6391 77.2606 -0.0118 -5.0578 0.0130
# 4 -0.0064 -0.0033 -0.0118 32.0717 0.0089 4.3270
# 5 -13.1641 -6.5550 -5.0578 0.0089 16.9032 -0.0056
# 6 0.0031 0.0012 0.0130 4.3270 -0.0056 12.9311
#
#
#
# Elastic Compliance Matrix: (Units=1/GPa)
#
#
# Indices 1 2 3 4 5 6 
#
# 1 0.007273 -0.001189 -0.000959 -0.000001 0.004916 0.000002
# 2 -0.001189 0.018626 -0.004875 -0.000002 0.004839 0.000006
# 3 -0.000959 -0.004875 0.014702 0.000006 0.001762 -0.000016
# 4 -0.000001 -0.000002 0.000006 0.032654 -0.000020 -0.010927
# 5 0.004916 0.004839 0.001762 -0.000020 0.065393 0.000032
# 6 0.000002 0.000006 -0.000016 -0.010927 0.000032 0.080989
#
#
# Mechanical properties :
#
#
# Convention : Reuss Voigt Hill
#
# Bulk Modulus (GPa) = 37.65606 45.15367 41.40486
# Shear Modulus (GPa) = 20.61564 27.96047 24.28806
#
# Velocity S-wave (km/s) = 3.09928 3.60940 3.36402
# Velocity P-wave (km/s) = 5.50932 6.19749 5.86351
#
# Compressibility (1/GPa) = 0.02655615
#
# Stress axis : x y z
#
# Youngs Moduli (GPa) = 137.49267 53.68771 68.01920
#
# Poissons Ratio (x) = 0.06383 0.06521
# Poissons Ratio (y) = 0.16345 0.33159
# Poissons Ratio (z) = 0.13182 0.26172
#
# Static dielectric constant tensor:
#      x y z
#    x 1.845070 0.000000 -0.011360 
#    y 0.000000 1.794310 0.000000 
#    z -0.011360 0.000000 1.761830 
# 
# From -- ./inp_files/157202.got.cif
#   From: 2010.05.17/outbox.cif.g08.bks.cpg/sg15_79_cif.got.tgz:157202.got - 2010.06.03 18:47:42.
