data_PCOD9281896
_publ_section_title
;
Structure prediction by ZEFSAII (Michael W. Deem and Ramdas Pophale) SiO2 
 PCOD9281896
Probable space group: C 2/C
;
_chemical_formula_sum "Si O2"
_cell_formula_units_Z 48
_cell_length_a 5.573007
_cell_length_b 25.789531
_cell_length_c 14.450377
_cell_angle_alpha 90.000000
_cell_angle_beta 97.221897
_cell_angle_gamma 90.000000
_cell_volume 2060.407375
_symmetry_space_group_name_H-M "C 2/C"
_symmetry_group_IT_number 15
_symmetry_cell_setting 'monoclinic'
loop_
_space_group_symop_operation_xyz
x,y,z
-x,y,1/2-z
-x,-y,-z
x,-y,1/2+z
1/2+x,1/2+y,z
1/2-x,1/2+y,1/2-z
1/2-x,1/2-y,-z
1/2+x,1/2-y,1/2+z
loop_
_atom_site_type_symbol
_atom_site_label
_atom_site_fract_x
_atom_site_fract_y
_atom_site_fract_z
Si Si1 0.128231 0.052973 0.485736
Si Si2 0.458747 0.895458 0.148590
Si Si3 0.867628 0.204552 0.844678
Si Si4 0.711160 0.644902 0.991173
Si Si5 0.259515 0.068590 0.300250
Si Si6 0.118080 0.318206 0.655689
O O1 0.280450 0.070313 0.580489
O O2 0.294108 0.045635 0.403837
O O3 0.940634 0.100894 0.462475
O O4 0.000000 0.000000 0.500000
O O5 0.500000 0.919865 0.250000
O O6 0.333123 0.839808 0.160647
O O7 0.685055 0.884331 0.094259
O O8 0.000000 0.201128 0.750000
O O9 0.047872 0.189863 0.937900
O O10 0.765766 0.262297 0.857919
O O11 0.922273 0.667225 0.066889
O O12 0.500000 0.061689 0.250000
O O13 0.231328 0.130152 0.319621
O O14 0.000000 0.049292 0.250000
O O15 0.000000 0.309923 0.750000
#
# Coordination Sequence:
#
# PCOD9281896 Si02
#       6
#     8   8   8   8   8   8
#     4  11  26  48  72 101 135 185 242 307 366 436
#     4  11  23  43  69  98 140 184 235 301 361 430
#     4  10  21  38  65  99 139 185 239 287 357 437
#     4  11  22  44  67  95 144 182 237 301 363 425
#     4  11  24  48  73 104 150 188 235 304 371 431
#     4  10  21  40  65 101 137 189 235 290 357 437
#
# _framework density 23.296365000000002
#
# number of rings (size 3 to 8) (size 9 to 14) (size 15 to 20)
#    0.000    1.333    3.333    2.500    0.000    2.000 
#    9.000    0.833    0.000    0.000    0.000    0.000 
#    0.000    0.000    0.000    0.000    0.000    0.000 
#
# Total GULP energy -134180.976945 kJ/mol
# GULP energy per Si atom -5590.874039 kJ/mol
# Density = 2.324334 g / cm^3
# Si number density = 23.296365 Si / 1000 Ang^3
#
#
#
# Elastic Constant Matrix: (Units=GPa)
#
#
# Indices 1 2 3 4 5 6 
#
# 1 81.0049 11.9421 57.7542 0.0000 -15.4776 0.0000
# 2 11.9421 66.5216 37.0818 0.0000 -19.5348 0.0000
# 3 57.7542 37.0818 155.1227 0.0000 -6.4523 0.0000
# 4 0.0000 0.0000 0.0000 39.2283 0.0000 5.2710
# 5 -15.4776 -19.5348 -6.4523 0.0000 55.6994 0.0000
# 6 0.0000 0.0000 0.0000 5.2710 0.0000 24.0392
#
#
#
# Elastic Compliance Matrix: (Units=1/GPa)
#
#
# Indices 1 2 3 4 5 6 
#
# 1 0.017954 0.002116 -0.006986 0.000000 0.004922 0.000000
# 2 0.002116 0.019548 -0.005176 0.000000 0.006844 0.000000
# 3 -0.006986 -0.005176 0.010178 0.000000 -0.002578 0.000000
# 4 0.000000 0.000000 0.000000 0.026266 0.000000 -0.005759
# 5 0.004922 0.006844 -0.002578 0.000000 0.021423 0.000000
# 6 0.000000 0.000000 0.000000 -0.005759 0.000000 0.042862
#
#
# Mechanical properties :
#
#
# Convention : Reuss Voigt Hill
#
# Bulk Modulus (GPa) = 36.24693 57.35616 46.80154
# Shear Modulus (GPa) = 29.84771 36.85145 33.34958
#
# Velocity S-wave (km/s) = 3.58329 3.98157 3.78767
# Velocity P-wave (km/s) = 5.71951 6.76837 6.26593
#
# Compressibility (1/GPa) = 0.02758854
#
# Stress axis : x y z
#
# Youngs Moduli (GPa) = 55.69806 51.15586 98.25586
#
# Poissons Ratio (x) = -0.10826 0.68638
# Poissons Ratio (y) = -0.11788 0.50859
# Poissons Ratio (z) = 0.38909 0.26479
#
# Static dielectric constant tensor:
#      x y z
#    x 1.739640 0.000000 0.027180 
#    y 0.000000 1.885320 0.000000 
#    z 0.027180 0.000000 1.831270 
# 
# From -- ./inp_files/130027.got.cif
#   From: 2010.05.17/outbox.cif.g08.bks.cpg/sg15_66_cif.got.tgz:130027.got - 2010.06.03 18:47:42.
