data_PCOD9281656
_publ_section_title
;
Structure prediction by ZEFSAII (Michael W. Deem and Ramdas Pophale) SiO2 
 PCOD9281656
Probable space group: C 2/C
;
_chemical_formula_sum "Si O2"
_cell_formula_units_Z 52
_cell_length_a 17.317506
_cell_length_b 17.181457
_cell_length_c 11.332424
_cell_angle_alpha 90.000000
_cell_angle_beta 52.153384
_cell_angle_gamma 90.000000
_cell_volume 2662.601299
_symmetry_space_group_name_H-M "C 2/C"
_symmetry_group_IT_number 15
_symmetry_cell_setting 'monoclinic'
loop_
_space_group_symop_operation_xyz
x,y,z
-x,y,1/2-z
-x,-y,-z
x,-y,1/2+z
1/2+x,1/2+y,z
1/2-x,1/2+y,1/2-z
1/2-x,1/2-y,-z
1/2+x,1/2-y,1/2+z
loop_
_atom_site_type_symbol
_atom_site_label
_atom_site_fract_x
_atom_site_fract_y
_atom_site_fract_z
Si Si1 0.180083 0.313711 0.347559
Si Si2 0.132888 0.128543 0.718145
Si Si3 0.599739 0.037606 0.869787
Si Si4 0.299015 0.166130 0.946497
Si Si5 0.500000 0.884016 0.250000
Si Si6 0.211144 0.041879 0.211277
Si Si7 0.579753 0.348530 0.994336
O O1 0.279043 0.314442 0.327950
O O2 0.114388 0.387809 0.442240
O O3 0.207016 0.342226 0.189942
O O4 0.120717 0.234263 0.409710
O O5 0.110712 0.140974 0.601628
O O6 0.037581 0.144982 0.887844
O O7 0.167403 0.039536 0.705793
O O8 0.568272 0.063267 0.767756
O O9 0.693084 0.982478 0.801801
O O10 0.500000 0.000000 0.000000
O O11 0.245112 0.100158 0.074344
O O12 0.250000 0.250000 0.000000
O O13 0.412674 0.168402 0.884946
O O14 0.131681 0.086344 0.365564
#
# Coordination Sequence:
#
# PCOD9281656 Si02
#       7
#     8   8   8   8   4   8   8
#     4  10  23  40  65  93 128 164 216 271 332 386
#     4  10  25  42  65  92 129 168 225 268 326 399
#     4  10  21  38  63  93 126 166 208 273 322 390
#     4  11  22  41  63  96 132 172 211 268 329 393
#     4  10  22  38  62  94 130 156 226 256 326 384
#     4  11  23  41  66  96 133 175 220 269 334 391
#     4  11  23  44  65  91 130 173 218 272 328 397
#
# _framework density 19.529772999999999
#
# number of rings (size 3 to 8) (size 9 to 14) (size 15 to 20)
#    0.000    1.538    3.077    0.923    6.462    3.692 
#    0.000    1.538    0.000    0.000    0.000    0.000 
#    0.000    0.000    0.000    0.000    0.000    0.000 
#
# Total GULP energy -144747.532347 kJ/mol
# GULP energy per Si atom -5567.212783 kJ/mol
# Density = 1.948532 g / cm^3
# Si number density = 19.529773 Si / 1000 Ang^3
#
#
#
# Elastic Constant Matrix: (Units=GPa)
#
#
# Indices 1 2 3 4 5 6 
#
# 1 87.4359 31.3077 30.9810 0.0000 -14.3191 0.0000
# 2 31.3077 98.7035 33.3199 0.0000 -16.5285 0.0000
# 3 30.9810 33.3199 79.4303 0.0000 -11.1202 0.0000
# 4 0.0000 0.0000 0.0000 28.0493 0.0000 -5.4464
# 5 -14.3191 -16.5285 -11.1202 0.0000 28.4617 0.0000
# 6 0.0000 0.0000 0.0000 -5.4464 0.0000 24.7923
#
#
#
# Elastic Compliance Matrix: (Units=1/GPa)
#
#
# Indices 1 2 3 4 5 6 
#
# 1 0.014448 -0.002528 -0.003980 0.000000 0.004245 0.000000
# 2 -0.002528 0.013022 -0.003804 0.000000 0.004804 0.000000
# 3 -0.003980 -0.003804 0.016025 0.000000 0.002049 0.000000
# 4 0.000000 0.000000 0.000000 0.037240 0.000000 0.008181
# 5 0.004245 0.004804 0.002049 0.000000 0.040861 0.000000
# 6 0.000000 0.000000 0.000000 0.008181 0.000000 0.042132
#
#
# Mechanical properties :
#
#
# Convention : Reuss Voigt Hill
#
# Bulk Modulus (GPa) = 43.72594 50.75409 47.24001
# Shear Modulus (GPa) = 26.04497 27.59142 26.81819
#
# Velocity S-wave (km/s) = 3.65582 3.76278 3.70969
# Velocity P-wave (km/s) = 6.34492 6.70243 6.52612
#
# Compressibility (1/GPa) = 0.02286972
#
# Stress axis : x y z
#
# Youngs Moduli (GPa) = 69.21485 76.79437 62.40358
#
# Poissons Ratio (x) = 0.19414 0.24839
# Poissons Ratio (y) = 0.17498 0.23737
# Poissons Ratio (z) = 0.27550 0.29211
#
# Static dielectric constant tensor:
#      x y z
#    x 1.690100 0.000000 -0.007910 
#    y 0.000000 1.486500 0.000000 
#    z -0.007910 0.000000 1.723740 
# 
# From -- ./inp_files/106644.got.cif
#   From: 2010.05.17/outbox.cif.g08.bks.cpg/sg15_54_cif.got.tgz:106644.got - 2010.06.03 18:47:42.
