data_PCOD9281036
_publ_section_title
;
Structure prediction by ZEFSAII (Michael W. Deem and Ramdas Pophale) SiO2 
 PCOD9281036
Probable space group: C 2/C
;
_chemical_formula_sum "Si O2"
_cell_formula_units_Z 40
_cell_length_a 16.676070
_cell_length_b 9.612214
_cell_length_c 17.861032
_cell_angle_alpha 90.000000
_cell_angle_beta 47.265300
_cell_angle_gamma 90.000000
_cell_volume 2102.895564
_symmetry_space_group_name_H-M "C 2/C"
_symmetry_group_IT_number 15
_symmetry_cell_setting 'monoclinic'
loop_
_space_group_symop_operation_xyz
x,y,z
-x,y,1/2-z
-x,-y,-z
x,-y,1/2+z
1/2+x,1/2+y,z
1/2-x,1/2+y,1/2-z
1/2-x,1/2-y,-z
1/2+x,1/2-y,1/2+z
loop_
_atom_site_type_symbol
_atom_site_label
_atom_site_fract_x
_atom_site_fract_y
_atom_site_fract_z
Si Si1 0.872134 0.257200 0.770161
Si Si2 0.944136 0.267258 0.958573
Si Si3 0.723692 0.483135 0.930580
Si Si4 0.677244 0.754515 0.865507
Si Si5 0.748890 0.011108 0.915730
O O1 0.828061 0.389468 0.842691
O O2 0.801520 0.252001 0.737023
O O3 0.993951 0.269224 0.660900
O O4 0.844963 0.115522 0.830056
O O5 0.045379 0.274643 0.951895
O O6 0.877069 0.125096 0.009703
O O7 0.859720 0.392924 0.019046
O O8 0.708652 0.610545 0.884241
O O9 0.734210 0.532903 0.009289
O O10 0.735694 0.881448 0.869428
#
# Coordination Sequence:
#
# PCOD9281036 Si02
#       5
#     8   8   8   8   8
#     4   9  21  36  61  75 109 147 187 207 268 333
#     4   9  21  36  61  75 109 147 187 207 268 333
#     4  11  21  37  57  83 110 140 180 229 269 311
#     4  10  21  38  57  80 112 142 180 224 269 318
#     4  11  21  37  57  83 110 140 180 229 269 311
#
# _framework density 19.021391999999999
#
# number of rings (size 3 to 8) (size 9 to 14) (size 15 to 20)
#    1.200    0.800    0.000    5.400    0.000    3.200 
#    0.000    0.000    0.000    4.800    0.000    0.000 
#    0.000    0.000    0.000    0.000    0.000    0.000 
#
# Total GULP energy -111566.397264 kJ/mol
# GULP energy per Si atom -5578.319863 kJ/mol
# Density = 1.897810 g / cm^3
# Si number density = 19.021392 Si / 1000 Ang^3
#
#
#
# Elastic Constant Matrix: (Units=GPa)
#
#
# Indices 1 2 3 4 5 6 
#
# 1 50.4680 -1.9143 -8.6099 0.0000 22.1475 0.0000
# 2 -1.9143 9.6472 5.5803 0.0000 4.9729 0.0000
# 3 -8.6099 5.5803 76.0721 0.0000 6.7772 0.0000
# 4 0.0000 0.0000 0.0000 9.2051 0.0000 5.9295
# 5 22.1475 4.9729 6.7772 0.0000 34.8328 0.0000
# 6 0.0000 0.0000 0.0000 5.9295 0.0000 12.5346
#
#
#
# Elastic Compliance Matrix: (Units=1/GPa)
#
#
# Indices 1 2 3 4 5 6 
#
# 1 0.031214 0.015436 0.004442 0.000000 -0.022914 0.000000
# 2 0.015436 0.123206 -0.004935 0.000000 -0.026444 0.000000
# 3 0.004442 -0.004935 0.014449 0.000000 -0.004931 0.000000
# 4 0.000000 0.000000 0.000000 0.156246 0.000000 -0.073912
# 5 -0.022914 -0.026444 -0.004931 0.000000 0.048013 0.000000
# 6 0.000000 0.000000 0.000000 -0.073912 0.000000 0.114743
#
#
# Mechanical properties :
#
#
# Convention : Reuss Voigt Hill
#
# Bulk Modulus (GPa) = 5.03131 14.03329 9.53230
# Shear Modulus (GPa) = 9.53768 20.72324 15.13046
#
# Velocity S-wave (km/s) = 2.24167 3.30429 2.82342
# Velocity P-wave (km/s) = 3.05793 4.68524 3.95616
#
# Compressibility (1/GPa) = 0.19875521
#
# Stress axis : x y z
#
# Youngs Moduli (GPa) = 32.03739 8.11648 69.20676
#
# Poissons Ratio (x) = -0.12529 -0.30741
# Poissons Ratio (y) = -0.49453 0.34153
# Poissons Ratio (z) = -0.14231 0.04005
#
# Static dielectric constant tensor:
#      x y z
#    x 1.690490 0.000000 0.017150 
#    y 0.000000 1.594150 0.000000 
#    z 0.017150 0.000000 1.656820 
# 
# From -- ./inp_files/158757.got.cif
#   From: 2010.05.17/outbox.cif.g08.bks.cpg/sg15_80_cif.got.tgz:158757.got - 2010.06.03 18:47:42.
