data_PCOD9281929
_publ_section_title
;
Structure prediction by ZEFSAII (Michael W. Deem and Ramdas Pophale) SiO2 
 PCOD9281929
Probable space group: C 2/C
;
_chemical_formula_sum "Si O2"
_cell_formula_units_Z 24
_cell_length_a 9.727530
_cell_length_b 5.066378
_cell_length_c 19.550172
_cell_angle_alpha 90.000000
_cell_angle_beta 64.468796
_cell_angle_gamma 90.000000
_cell_volume 869.412950
_symmetry_space_group_name_H-M "C 2/C"
_symmetry_group_IT_number 15
_symmetry_cell_setting 'monoclinic'
loop_
_space_group_symop_operation_xyz
x,y,z
-x,y,1/2-z
-x,-y,-z
x,-y,1/2+z
1/2+x,1/2+y,z
1/2-x,1/2+y,1/2-z
1/2-x,1/2-y,-z
1/2+x,1/2-y,1/2+z
loop_
_atom_site_type_symbol
_atom_site_label
_atom_site_fract_x
_atom_site_fract_y
_atom_site_fract_z
Si Si1 0.318794 0.816156 0.275453
Si Si2 0.676643 0.673242 0.411434
Si Si3 0.869814 0.059996 0.438841
O O1 0.500000 0.787525 0.250000
O O2 0.268032 0.064142 0.237888
O O3 0.249433 0.912624 0.363278
O O4 0.527655 0.712977 0.397302
O O5 0.609973 0.654158 0.503103
O O6 0.807406 0.890219 0.389770
O O7 0.750000 0.250000 0.500000
#
# Coordination Sequence:
#
# PCOD9281929 Si02
#       3
#     8   8   8
#     4  12  28  47  73 102 142 192 235 286 345 417
#     4  10  23  39  61  97 127 170 227 276 342 406
#     4  10  21  38  66  92 127 167 217 287 343 394
#
# _framework density 27.604832999999999
#
# number of rings (size 3 to 8) (size 9 to 14) (size 15 to 20)
#    0.000    1.333    0.000    4.000    9.333    0.000 
#    0.000    0.000    0.000    0.000    0.000    0.000 
#    0.000    0.000    0.000    0.000    0.000    0.000 
#
# Total GULP energy -67161.135201 kJ/mol
# GULP energy per Si atom -5596.761267 kJ/mol
# Density = 2.754200 g / cm^3
# Si number density = 27.604833 Si / 1000 Ang^3
#
#
#
# Elastic Constant Matrix: (Units=GPa)
#
#
# Indices 1 2 3 4 5 6 
#
# 1 256.3150 81.1253 43.2233 0.0001 -10.3825 0.0003
# 2 81.1253 154.9577 21.7940 0.0001 18.6913 0.0010
# 3 43.2233 21.7940 114.0220 0.0000 19.1500 0.0001
# 4 0.0001 0.0001 0.0000 56.0867 -0.0001 15.0334
# 5 -10.3825 18.6913 19.1500 -0.0001 60.6621 0.0001
# 6 0.0003 0.0010 0.0001 15.0334 0.0001 65.9372
#
#
#
# Elastic Compliance Matrix: (Units=1/GPa)
#
#
# Indices 1 2 3 4 5 6 
#
# 1 0.005164 -0.002725 -0.001823 0.000000 0.002299 0.000000
# 2 -0.002725 0.008247 -0.000040 0.000000 -0.002995 0.000000
# 3 -0.001823 -0.000040 0.010052 0.000000 -0.003473 0.000000
# 4 0.000000 0.000000 0.000000 0.018990 0.000000 -0.004330
# 5 0.002299 -0.002995 -0.003473 0.000000 0.018897 0.000000
# 6 0.000000 0.000000 0.000000 -0.004330 0.000000 0.016153
#
#
# Mechanical properties :
#
#
# Convention : Reuss Voigt Hill
#
# Bulk Modulus (GPa) = 69.99303 90.84220 80.41762
# Shear Modulus (GPa) = 54.67926 61.81400 58.24663
#
# Velocity S-wave (km/s) = 4.45543 4.73720 4.59847
# Velocity P-wave (km/s) = 7.20265 7.93101 7.57559
#
# Compressibility (1/GPa) = 0.01428714
#
# Stress axis : x y z
#
# Youngs Moduli (GPa) = 193.63536 121.26073 99.47954
#
# Poissons Ratio (x) = 0.33039 0.18135
# Poissons Ratio (y) = 0.52758 0.00403
# Poissons Ratio (z) = 0.35300 0.00491
#
# Static dielectric constant tensor:
#      x y z
#    x 2.264010 0.000000 0.127710 
#    y 0.000000 2.154100 0.000000 
#    z 0.127710 0.000000 2.268010 
# 
# From -- ./inp_files/228924.got.cif
#   From: 2010.05.17/outbox.cif.g08.bks.cpg/sg15_115_cif.got.tgz:228924.got - 2010.06.03 18:47:42.
