data_PCOD9281296
_publ_section_title
;
Structure prediction by ZEFSAII (Michael W. Deem and Ramdas Pophale) SiO2 
 PCOD9281296
Probable space group: C 2/C
;
_chemical_formula_sum "Si O2"
_cell_formula_units_Z 44
_cell_length_a 20.776123
_cell_length_b 10.978734
_cell_length_c 13.675784
_cell_angle_alpha 90.000000
_cell_angle_beta 142.250843
_cell_angle_gamma 90.000000
_cell_volume 1909.705216
_symmetry_space_group_name_H-M "C 2/C"
_symmetry_group_IT_number 15
_symmetry_cell_setting 'monoclinic'
loop_
_space_group_symop_operation_xyz
x,y,z
-x,y,1/2-z
-x,-y,-z
x,-y,1/2+z
1/2+x,1/2+y,z
1/2-x,1/2+y,1/2-z
1/2-x,1/2-y,-z
1/2+x,1/2-y,1/2+z
loop_
_atom_site_type_symbol
_atom_site_label
_atom_site_fract_x
_atom_site_fract_y
_atom_site_fract_z
Si Si1 0.240148 0.042968 0.400024
Si Si2 0.408734 0.973156 0.469689
Si Si3 0.133174 0.217737 0.751840
Si Si4 0.743849 0.469966 0.626158
Si Si5 0.000000 0.302105 0.750000
Si Si6 0.569487 0.383621 0.563209
O O1 0.348576 0.067903 0.471794
O O2 0.201798 0.904229 0.325446
O O3 0.241545 0.034866 0.518394
O O4 0.152427 0.131993 0.249733
O O5 0.453712 0.883313 0.606812
O O6 0.500000 0.000000 0.500000
O O7 0.310761 0.944123 0.279895
O O8 0.192071 0.343110 0.804757
O O9 0.091961 0.222803 0.813722
O O10 0.023537 0.213255 0.560128
O O11 0.637019 0.424887 0.549830
O O12 0.500000 0.500000 0.500000
#
# Coordination Sequence:
#
# PCOD9281296 Si02
#       6
#     8   8   8   8   4   8
#     4  10  21  38  60  92 124 165 203 251 321 377
#     4  11  21  36  54  88 128 160 197 258 315 363
#     4  11  21  35  61  94 120 156 208 264 299 369
#     4  11  21  35  62  88 119 166 212 252 306 375
#     4  12  22  36  62  94 124 154 208 268 310 358
#     4   9  22  39  57  94 132 161 199 259 326 374
#
# _framework density 23.040203999999999
#
# number of rings (size 3 to 8) (size 9 to 14) (size 15 to 20)
#    0.000    1.455    3.636    1.636    2.545    2.182 
#    0.000    0.000    0.000    7.636    0.000    0.000 
#    0.000    0.000    0.000    0.000    0.000    0.000 
#
# Total GULP energy -122571.071228 kJ/mol
# GULP energy per Si atom -5571.412329 kJ/mol
# Density = 2.298776 g / cm^3
# Si number density = 23.040204 Si / 1000 Ang^3
#
#
#
# Elastic Constant Matrix: (Units=GPa)
#
#
# Indices 1 2 3 4 5 6 
#
# 1 203.2034 13.7168 52.5999 0.0000 -0.8223 0.0000
# 2 13.7168 33.3398 19.5592 0.0000 0.5572 0.0000
# 3 52.5999 19.5592 130.2635 0.0000 -26.1570 0.0000
# 4 0.0000 0.0000 0.0000 31.0354 0.0000 0.0573
# 5 -0.8223 0.5572 -26.1570 0.0000 48.3438 0.0000
# 6 0.0000 0.0000 0.0000 0.0573 0.0000 38.1018
#
#
#
# Elastic Compliance Matrix: (Units=1/GPa)
#
#
# Indices 1 2 3 4 5 6 
#
# 1 0.005587 -0.000897 -0.002356 0.000000 -0.001169 0.000000
# 2 -0.000897 0.033548 -0.005336 0.000000 -0.003289 0.000000
# 3 -0.002356 -0.005336 0.010583 0.000000 0.005748 0.000000
# 4 0.000000 0.000000 0.000000 0.032221 0.000000 -0.000048
# 5 -0.001169 -0.003289 0.005748 0.000000 0.023813 0.000000
# 6 0.000000 0.000000 0.000000 -0.000048 0.000000 0.026246
#
#
# Mechanical properties :
#
#
# Convention : Reuss Voigt Hill
#
# Bulk Modulus (GPa) = 30.72987 59.83982 45.28485
# Shear Modulus (GPa) = 31.24554 42.22492 36.73523
#
# Velocity S-wave (km/s) = 3.68656 4.28560 3.99732
# Velocity P-wave (km/s) = 5.61137 7.10752 6.40329
#
# Compressibility (1/GPa) = 0.03254162
#
# Stress axis : x y z
#
# Youngs Moduli (GPa) = 178.99101 29.80777 94.48723
#
# Poissons Ratio (x) = 0.02673 0.22262
# Poissons Ratio (y) = 0.16051 0.50415
# Poissons Ratio (z) = 0.42173 0.15904
#
# Static dielectric constant tensor:
#      x y z
#    x 1.890670 0.000000 0.026370 
#    y 0.000000 1.930680 0.000000 
#    z 0.026370 0.000000 1.958930 
# 
# From -- ./inp_files/112838.got.cif
#   From: 2010.05.17/outbox.cif.g08.bks.cpg/sg15_57_cif.got.tgz:112838.got - 2010.06.03 18:47:42.
