data_PCOD9281484
_publ_section_title
;
Structure prediction by ZEFSAII (Michael W. Deem and Ramdas Pophale) SiO2 
 PCOD9281484
Probable space group: C 2/C
;
_chemical_formula_sum "Si O2"
_cell_formula_units_Z 64
_cell_length_a 20.521111
_cell_length_b 21.465552
_cell_length_c 9.585986
_cell_angle_alpha 90.000000
_cell_angle_beta 41.466568
_cell_angle_gamma 90.000000
_cell_volume 2796.132170
_symmetry_space_group_name_H-M "C 2/C"
_symmetry_group_IT_number 15
_symmetry_cell_setting 'monoclinic'
loop_
_space_group_symop_operation_xyz
x,y,z
-x,y,1/2-z
-x,-y,-z
x,-y,1/2+z
1/2+x,1/2+y,z
1/2-x,1/2+y,1/2-z
1/2-x,1/2-y,-z
1/2+x,1/2-y,1/2+z
loop_
_atom_site_type_symbol
_atom_site_label
_atom_site_fract_x
_atom_site_fract_y
_atom_site_fract_z
Si Si1 0.285390 0.634137 0.171402
Si Si2 0.402469 0.934244 0.586610
Si Si3 0.876006 0.865740 0.123098
Si Si4 0.096914 0.771222 0.188313
Si Si5 0.830228 0.100528 0.395002
Si Si6 0.143275 0.631506 0.064114
Si Si7 0.591307 0.463024 0.207189
Si Si8 0.889034 0.424811 0.157418
O O1 0.171426 0.614232 0.367123
O O2 0.337187 0.636122 0.238203
O O3 0.313533 0.695394 0.039400
O O4 0.331740 0.577723 0.006563
O O5 0.519484 0.926083 0.384120
O O6 0.378273 0.006755 0.604378
O O7 0.382594 0.921050 0.782914
O O8 0.911263 0.804832 0.149240
O O9 0.759296 0.872171 0.343304
O O10 0.926608 0.923573 0.122930
O O11 0.882303 0.869350 0.946456
O O12 0.000000 0.783113 0.250000
O O13 0.117540 0.698663 0.165768
O O14 0.714138 0.094245 0.612585
O O15 0.867676 0.030097 0.320854
O O16 0.089693 0.622016 0.003242
O O17 0.500000 0.468518 0.250000
#
# Coordination Sequence:
#
# PCOD9281484 Si02
#       8
#     8   8   8   8   8   8   8   8
#     4  11  23  38  61  92 126 168 213 260 321 374
#     4  11  21  36  64  92 127 164 210 262 319 375
#     4  10  21  38  62  89 123 161 209 263 314 367
#     4  11  23  42  67  92 122 164 224 269 301 372
#     4  11  23  38  57  90 130 167 204 261 328 380
#     4  11  21  42  68  94 121 166 218 261 312 372
#     4  11  22  39  62  89 122 167 220 262 308 376
#     4  10  23  37  58  97 129 161 206 265 319 384
#
# _framework density 22.888760000000001
#
# number of rings (size 3 to 8) (size 9 to 14) (size 15 to 20)
#    0.000    1.250    3.750    3.750    3.500    3.500 
#    0.000    2.500    0.000    0.000    0.000    0.000 
#    0.000    0.000    0.000    0.000    0.000    0.000 
#
# Total GULP energy -179073.037567 kJ/mol
# GULP energy per Si atom -5596.032424 kJ/mol
# Density = 2.283666 g / cm^3
# Si number density = 22.888760 Si / 1000 Ang^3
#
#
#
# Elastic Constant Matrix: (Units=GPa)
#
#
# Indices 1 2 3 4 5 6 
#
# 1 98.5338 -3.2484 37.6314 0.0000 17.9524 0.0000
# 2 -3.2484 78.0150 30.1139 0.0000 14.7762 0.0000
# 3 37.6314 30.1139 50.2409 0.0000 14.5154 0.0000
# 4 0.0000 0.0000 0.0000 5.9908 0.0000 -2.0631
# 5 17.9524 14.7762 14.5154 0.0000 56.0653 0.0000
# 6 0.0000 0.0000 0.0000 -2.0631 0.0000 24.3185
#
#
#
# Elastic Compliance Matrix: (Units=1/GPa)
#
#
# Indices 1 2 3 4 5 6 
#
# 1 0.017419 0.007829 -0.016788 0.000000 -0.003295 0.000000
# 2 0.007829 0.020396 -0.017091 0.000000 -0.003458 0.000000
# 3 -0.016788 -0.017091 0.043091 0.000000 -0.001277 0.000000
# 4 0.000000 0.000000 0.000000 0.171947 0.000000 0.014588
# 5 -0.003295 -0.003458 -0.001277 0.000000 0.020133 0.000000
# 6 0.000000 0.000000 0.000000 0.014588 0.000000 0.042359
#
#
# Mechanical properties :
#
#
# Convention : Reuss Voigt Hill
#
# Bulk Modulus (GPa) = 34.71276 39.53150 37.12213
# Shear Modulus (GPa) = 13.26101 28.09444 20.67773
#
# Velocity S-wave (km/s) = 2.40962 3.50728 3.00892
# Velocity P-wave (km/s) = 4.78962 5.80603 5.32214
#
# Compressibility (1/GPa) = 0.02880785
#
# Stress axis : x y z
#
# Youngs Moduli (GPa) = 57.40938 49.02937 23.20652
#
# Poissons Ratio (x) = -0.38388 0.38959
# Poissons Ratio (y) = -0.44949 0.39661
# Poissons Ratio (z) = 0.96379 0.83794
#
# Static dielectric constant tensor:
#      x y z
#    x 1.927690 0.000000 -0.032310 
#    y 0.000000 1.772640 0.000000 
#    z -0.032310 0.000000 1.872630 
# 
# From -- ./inp_files/57833.got.cif
#   From: 2010.05.17/outbox.cif.g08.bks.cpg/sg15_29_cif.got.tgz:57833.got - 2010.06.03 18:47:42.
