data_PCOD9281063
_publ_section_title
;
Structure prediction by ZEFSAII (Michael W. Deem and Ramdas Pophale) SiO2 
 PCOD9281063
Probable space group: C 2/C
;
_chemical_formula_sum "Si O2"
_cell_formula_units_Z 60
_cell_length_a 17.201603
_cell_length_b 6.188455
_cell_length_c 24.867907
_cell_angle_alpha 90.000000
_cell_angle_beta 73.670820
_cell_angle_gamma 90.000000
_cell_volume 2540.439129
_symmetry_space_group_name_H-M "C 2/C"
_symmetry_group_IT_number 15
_symmetry_cell_setting 'monoclinic'
loop_
_space_group_symop_operation_xyz
x,y,z
-x,y,1/2-z
-x,-y,-z
x,-y,1/2+z
1/2+x,1/2+y,z
1/2-x,1/2+y,1/2-z
1/2-x,1/2-y,-z
1/2+x,1/2-y,1/2+z
loop_
_atom_site_type_symbol
_atom_site_label
_atom_site_fract_x
_atom_site_fract_y
_atom_site_fract_z
Si Si1 0.190109 0.129849 0.789010
Si Si2 0.500000 0.000000 0.000000
Si Si3 0.970658 0.379045 0.694997
Si Si4 0.416803 0.743286 0.140533
Si Si5 0.193257 0.185702 0.577057
Si Si6 0.476060 0.613836 0.919315
Si Si7 0.264740 0.998588 0.163244
Si Si8 0.180580 0.565182 0.512331
O O1 0.122336 0.302859 0.785454
O O2 0.243705 0.078458 0.727473
O O3 0.234913 0.242684 0.830510
O O4 0.140631 0.922824 0.817411
O O5 0.497324 0.793795 0.958640
O O6 0.410455 0.089330 0.991622
O O7 0.972807 0.619506 0.669616
O O8 0.000000 0.367028 0.750000
O O9 0.010011 0.220518 0.642891
O O10 0.468727 0.600696 0.089370
O O11 0.353816 0.915041 0.128121
O O12 0.119117 0.066636 0.561663
O O13 0.199835 0.104675 0.636469
O O14 0.178848 0.439272 0.569941
O O15 0.277777 0.112560 0.534963
O O16 0.250000 0.750000 0.500000
#
# Coordination Sequence:
#
# PCOD9281063 Si02
#       8
#     8   4   8   8   8   8   8   8
#     4  10  21  38  57  93 131 168 223 265 324 400
#     4  10  24  44  74  96 138 174 228 292 332 418
#     4  10  22  39  63  94 133 172 222 275 335 412
#     4  10  23  38  61  94 128 178 220 265 344 400
#     4  10  24  42  65  98 132 167 228 277 331 410
#     4  10  23  45  64  99 134 174 224 282 341 403
#     4  11  21  38  63  92 133 174 220 274 322 402
#     4  10  24  47  67 101 132 176 226 282 348 405
#
# _framework density 23.617961999999999
#
# number of rings (size 3 to 8) (size 9 to 14) (size 15 to 20)
#    0.000    1.867    1.333    0.800    7.467    5.333 
#    0.000    2.667    0.000    0.000    0.000    0.000 
#    0.000    0.000    0.000    0.000    0.000    0.000 
#
# Total GULP energy -167009.593084 kJ/mol
# GULP energy per Si atom -5566.986436 kJ/mol
# Density = 2.356421 g / cm^3
# Si number density = 23.617962 Si / 1000 Ang^3
#
#
#
# Elastic Constant Matrix: (Units=GPa)
#
#
# Indices 1 2 3 4 5 6 
#
# 1 119.7631 27.7032 32.9151 0.0000 5.2715 -0.0001
# 2 27.7032 51.5170 20.6914 -0.0002 -3.9896 -0.0003
# 3 32.9151 20.6914 75.1363 0.0001 8.3667 0.0000
# 4 0.0000 -0.0002 0.0001 43.3996 -0.0001 -22.0965
# 5 5.2715 -3.9896 8.3667 -0.0001 42.4759 -0.0001
# 6 -0.0001 -0.0003 0.0000 -22.0965 -0.0001 36.8214
#
#
#
# Elastic Compliance Matrix: (Units=1/GPa)
#
#
# Indices 1 2 3 4 5 6 
#
# 1 0.010274 -0.004324 -0.003193 0.000000 -0.001052 0.000000
# 2 -0.004324 0.024109 -0.005170 0.000000 0.003819 0.000000
# 3 -0.003193 -0.005170 0.016504 0.000000 -0.003340 0.000000
# 4 0.000000 0.000000 0.000000 0.033179 0.000000 0.019911
# 5 -0.001052 0.003819 -0.003340 0.000000 0.024690 0.000000
# 6 0.000000 0.000000 0.000000 0.019911 0.000000 0.039106
#
#
# Mechanical properties :
#
#
# Convention : Reuss Voigt Hill
#
# Bulk Modulus (GPa) = 39.19702 45.44841 42.32271
# Shear Modulus (GPa) = 27.51193 35.54650 31.52922
#
# Velocity S-wave (km/s) = 3.41673 3.88372 3.65768
# Velocity P-wave (km/s) = 5.67430 6.27662 5.98304
#
# Compressibility (1/GPa) = 0.02551215
#
# Stress axis : x y z
#
# Youngs Moduli (GPa) = 97.33502 41.47895 60.59290
#
# Poissons Ratio (x) = 0.17935 0.19346
# Poissons Ratio (y) = 0.42086 0.31328
# Poissons Ratio (z) = 0.31077 0.21446
#
# Static dielectric constant tensor:
#      x y z
#    x 1.901080 0.000000 -0.006290 
#    y 0.000000 1.969020 0.000000 
#    z -0.006290 0.000000 1.960260 
# 
# From -- ./inp_files/314870.got.cif
#   From: 2010.05.17/outbox.cif.g08.bks.cpg/sg15_158_cif.got.tgz:314870.got - 2010.06.03 18:47:42.
