data_PCOD9281903
_publ_section_title
;
Structure prediction by ZEFSAII (Michael W. Deem and Ramdas Pophale) SiO2 
 PCOD9281903
Probable space group: C 2/C
;
_chemical_formula_sum "Si O2"
_cell_formula_units_Z 36
_cell_length_a 10.926738
_cell_length_b 19.164133
_cell_length_c 8.792908
_cell_angle_alpha 90.000000
_cell_angle_beta 68.066058
_cell_angle_gamma 90.000000
_cell_volume 1707.969301
_symmetry_space_group_name_H-M "C 2/C"
_symmetry_group_IT_number 15
_symmetry_cell_setting 'monoclinic'
loop_
_space_group_symop_operation_xyz
x,y,z
-x,y,1/2-z
-x,-y,-z
x,-y,1/2+z
1/2+x,1/2+y,z
1/2-x,1/2+y,1/2-z
1/2-x,1/2-y,-z
1/2+x,1/2-y,1/2+z
loop_
_atom_site_type_symbol
_atom_site_label
_atom_site_fract_x
_atom_site_fract_y
_atom_site_fract_z
Si Si1 0.736088 0.598071 0.336964
Si Si2 0.948140 0.082418 0.536695
Si Si3 0.500000 0.101668 0.750000
Si Si4 0.768957 0.671128 0.042264
Si Si5 0.776995 0.457008 0.145258
O O1 0.588750 0.618443 0.456619
O O2 0.789392 0.662179 0.214045
O O3 0.745302 0.536140 0.206823
O O4 0.796460 0.564228 0.461602
O O5 0.854496 0.122649 0.458562
O O6 0.852780 0.082312 0.727543
O O7 0.000000 0.000000 0.500000
O O8 0.601336 0.144951 0.602876
O O9 0.592170 0.059580 0.822087
O O10 0.750000 0.750000 0.000000
#
# Coordination Sequence:
#
# PCOD9281903 Si02
#       5
#     8   8   4   8   8
#     4  11  21  37  67  98 131 170 222 274 332 395
#     4   9  19  39  65  98 130 168 223 279 325 387
#     4  10  24  44  62  92 140 166 220 274 338 406
#     4  11  25  41  65  94 131 183 216 271 345 407
#     4  10  21  38  66 103 131 167 220 284 334 382
#
# _framework density 21.077663999999999
#
# number of rings (size 3 to 8) (size 9 to 14) (size 15 to 20)
#    0.000    1.778    0.000    5.333    3.111    9.778 
#    0.000    4.444    9.778    0.000    0.000    0.000 
#    0.000    0.000    0.000    0.000    0.000    0.000 
#
# Total GULP energy -100208.150142 kJ/mol
# GULP energy per Si atom -5567.119452 kJ/mol
# Density = 2.102969 g / cm^3
# Si number density = 21.077664 Si / 1000 Ang^3
#
#
#
# Elastic Constant Matrix: (Units=GPa)
#
#
# Indices 1 2 3 4 5 6 
#
# 1 126.6467 51.6517 65.4757 0.0000 -4.6764 0.0000
# 2 51.6517 79.1138 57.1777 0.0000 13.2735 0.0000
# 3 65.4757 57.1777 115.6276 0.0000 36.9695 0.0000
# 4 0.0000 0.0000 0.0000 -11.0080 0.0000 -3.8756
# 5 -4.6764 13.2735 36.9695 0.0000 36.6807 0.0000
# 6 0.0000 0.0000 0.0000 -3.8756 0.0000 7.8004
#
#
#
# Elastic Compliance Matrix: (Units=1/GPa)
#
#
# Indices 1 2 3 4 5 6 
#
# 1 0.016895 -0.004786 -0.012457 0.000000 0.016441 0.000000
# 2 -0.004786 0.021424 -0.007687 0.000000 -0.000615 0.000000
# 3 -0.012457 -0.007687 0.028214 0.000000 -0.027243 0.000000
# 4 0.000000 0.000000 0.000000 -0.077318 0.000000 -0.038415
# 5 0.016441 -0.000615 -0.027243 0.000000 0.057038 0.000000
# 6 0.000000 0.000000 0.000000 -0.038415 0.000000 0.109112
#
#
# Mechanical properties :
#
#
# Convention : Reuss Voigt Hill
#
# Bulk Modulus (GPa) = 59.98021 74.44425 67.21223
# Shear Modulus (GPa) = 23.72098 16.50015 20.11057
#
# Velocity S-wave (km/s) = 3.35835 2.80094 3.09223
# Velocity P-wave (km/s) = 6.59974 6.77171 6.68628
#
# Compressibility (1/GPa) = 0.01667217
#
# Stress axis : x y z
#
# Youngs Moduli (GPa) = 59.18795 46.67755 35.44290
#
# Poissons Ratio (x) = 0.22339 0.44153
# Poissons Ratio (y) = 0.28326 0.27246
# Poissons Ratio (z) = 0.73733 0.35883
#
# Static dielectric constant tensor:
#      x y z
#    x 1.840300 0.000000 0.054280 
#    y 0.000000 1.816970 0.000000 
#    z 0.054280 0.000000 1.815650 
# 
# From -- ./inp_files/30107.got.cif
#   From: 2010.05.17/outbox.cif.g08.bks.cpg/sg15_16_cif.got.tgz:30107.got - 2010.06.03 18:47:42.
