data_PCOD9281214
_publ_section_title
;
Structure prediction by ZEFSAII (Michael W. Deem and Ramdas Pophale) SiO2 
 PCOD9281214
Probable space group: C 2/C
;
_chemical_formula_sum "Si O2"
_cell_formula_units_Z 40
_cell_length_a 13.791222
_cell_length_b 16.086259
_cell_length_c 11.291524
_cell_angle_alpha 90.000000
_cell_angle_beta 144.300002
_cell_angle_gamma 90.000000
_cell_volume 1461.779543
_symmetry_space_group_name_H-M "C 2/C"
_symmetry_group_IT_number 15
_symmetry_cell_setting 'monoclinic'
loop_
_space_group_symop_operation_xyz
x,y,z
-x,y,1/2-z
-x,-y,-z
x,-y,1/2+z
1/2+x,1/2+y,z
1/2-x,1/2+y,1/2-z
1/2-x,1/2-y,-z
1/2+x,1/2-y,1/2+z
loop_
_atom_site_type_symbol
_atom_site_label
_atom_site_fract_x
_atom_site_fract_y
_atom_site_fract_z
Si Si1 0.587370 0.329955 0.668961
Si Si2 0.095074 0.594690 0.451493
Si Si3 0.723624 0.546323 0.643184
Si Si4 0.043285 0.349912 0.445965
Si Si5 0.664986 0.640128 0.988582
O O1 0.440830 0.397497 0.530628
O O2 0.513439 0.243176 0.637800
O O3 0.635795 0.311924 0.580634
O O4 0.764010 0.357436 0.898333
O O5 0.220867 0.543402 0.661232
O O6 0.970338 0.632407 0.424661
O O7 0.195197 0.659667 0.470608
O O8 0.000000 0.549799 0.250000
O O9 0.887750 0.592291 0.754560
O O10 0.686797 0.456753 0.552865
O O11 0.500000 0.644482 0.750000
#
# Coordination Sequence:
#
# PCOD9281214 Si02
#       5
#     8   8   8   8   8
#     4  12  21  39  65  95 131 172 212 262 331 387
#     4  10  21  38  59  93 126 167 211 258 323 378
#     4  10  24  42  61  96 130 171 214 267 324 381
#     4  10  22  39  64  96 131 172 209 266 325 391
#     4  12  23  40  64  94 132 173 215 263 326 389
#
# _framework density 27.363909
#
# number of rings (size 3 to 8) (size 9 to 14) (size 15 to 20)
#    1.200    0.000    6.000    0.600    0.000    4.800 
#    0.000    0.000    0.000    1.200    0.000    0.000 
#    0.000    0.000    0.000    0.000    0.000    0.000 
#
# Total GULP energy -111814.333514 kJ/mol
# GULP energy per Si atom -5590.716676 kJ/mol
# Density = 2.730163 g / cm^3
# Si number density = 27.363909 Si / 1000 Ang^3
#
#
#
# Elastic Constant Matrix: (Units=GPa)
#
#
# Indices 1 2 3 4 5 6 
#
# 1 108.7125 33.0333 94.6196 0.0000 6.2855 0.0000
# 2 33.0333 95.2247 28.5157 0.0000 16.6428 0.0000
# 3 94.6196 28.5157 187.7925 0.0000 19.4899 0.0000
# 4 0.0000 0.0000 0.0000 17.7402 0.0000 -1.4533
# 5 6.2855 16.6428 19.4899 0.0000 78.4469 0.0000
# 6 0.0000 0.0000 0.0000 -1.4533 0.0000 15.0685
#
#
#
# Elastic Compliance Matrix: (Units=1/GPa)
#
#
# Indices 1 2 3 4 5 6 
#
# 1 0.017648 -0.003851 -0.008463 0.000000 0.001506 0.000000
# 2 -0.003851 0.012147 0.000340 0.000000 -0.002353 0.000000
# 3 -0.008463 0.000340 0.009726 0.000000 -0.001810 0.000000
# 4 0.000000 0.000000 0.000000 0.056818 0.000000 0.005480
# 5 0.001506 -0.002353 -0.001810 0.000000 0.013576 0.000000
# 6 0.000000 0.000000 0.000000 0.005480 0.000000 0.066892
#
#
# Mechanical properties :
#
#
# Convention : Reuss Voigt Hill
#
# Bulk Modulus (GPa) = 64.21891 78.22966 71.22429
# Shear Modulus (GPa) = 24.27831 37.95520 31.11675
#
# Velocity S-wave (km/s) = 2.98189 3.72836 3.37582
# Velocity P-wave (km/s) = 5.94768 6.86913 6.42494
#
# Compressibility (1/GPa) = 0.01557174
#
# Stress axis : x y z
#
# Youngs Moduli (GPa) = 56.66390 82.32679 102.82122
#
# Poissons Ratio (x) = 0.31702 0.87022
# Poissons Ratio (y) = 0.21820 -0.03495
# Poissons Ratio (z) = 0.47957 -0.02799
#
# Static dielectric constant tensor:
#      x y z
#    x 2.224960 0.000000 -0.010000 
#    y 0.000000 2.082320 0.000000 
#    z -0.010000 0.000000 2.156280 
# 
# From -- ./inp_files/163466.got.cif
#   From: 2010.05.17/outbox.cif.g08.bks.cpg/sg15_82_cif.got.tgz:163466.got - 2010.06.03 18:47:42.
