data_PCOD9281227
_publ_section_title
;
Structure prediction by ZEFSAII (Michael W. Deem and Ramdas Pophale) SiO2 
 PCOD9281227
Probable space group: C 2/C
;
_chemical_formula_sum "Si O2"
_cell_formula_units_Z 40
_cell_length_a 9.374560
_cell_length_b 28.967505
_cell_length_c 15.517937
_cell_angle_alpha 90.000000
_cell_angle_beta 153.679534
_cell_angle_gamma 90.000000
_cell_volume 1868.457485
_symmetry_space_group_name_H-M "C 2/C"
_symmetry_group_IT_number 15
_symmetry_cell_setting 'monoclinic'
loop_
_space_group_symop_operation_xyz
x,y,z
-x,y,1/2-z
-x,-y,-z
x,-y,1/2+z
1/2+x,1/2+y,z
1/2-x,1/2+y,1/2-z
1/2-x,1/2-y,-z
1/2+x,1/2-y,1/2+z
loop_
_atom_site_type_symbol
_atom_site_label
_atom_site_fract_x
_atom_site_fract_y
_atom_site_fract_z
Si Si1 0.821817 0.214988 0.743412
Si Si2 0.828084 0.183413 0.392492
Si Si3 0.719674 0.972626 0.798303
Si Si4 0.244871 0.147471 0.461847
Si Si5 0.231477 0.952646 0.953021
O O1 0.775199 0.270025 0.714315
O O2 0.488024 0.188261 0.571426
O O3 0.000000 0.202303 0.750000
O O4 0.003250 0.200389 0.928462
O O5 0.500000 0.159999 0.250000
O O6 0.069138 0.157426 0.457987
O O7 0.500000 0.948970 0.750000
O O8 0.936053 0.940855 0.857261
O O9 0.483168 0.008242 0.619468
O O10 0.000000 0.000000 0.000000
O O11 0.409002 0.096497 0.544558
O O12 0.000000 0.145672 0.250000
O O13 0.000000 0.969348 0.750000
#
# Coordination Sequence:
#
# PCOD9281227 Si02
#       5
#     8   8   8   8   8
#     4  11  22  39  60  85 118 157 198 241 290 348
#     4  11  22  38  61  86 117 157 196 241 292 347
#     4   9  19  36  58  82 111 146 184 232 287 347
#     4  11  23  39  58  87 120 153 196 245 290 343
#     4  10  21  38  60  84 113 149 192 237 287 347
#
# _framework density 21.408031999999999
#
# number of rings (size 3 to 8) (size 9 to 14) (size 15 to 20)
#    0.000    1.600    0.000    6.600    0.000    5.600 
#    0.000   11.000    0.000    0.000    0.000    0.000 
#    0.000    0.000    0.000    0.000    0.000    0.000 
#
# Total GULP energy -111405.971556 kJ/mol
# GULP energy per Si atom -5570.298578 kJ/mol
# Density = 2.135931 g / cm^3
# Si number density = 21.408032 Si / 1000 Ang^3
#
#
#
# Elastic Constant Matrix: (Units=GPa)
#
#
# Indices 1 2 3 4 5 6 
#
# 1 92.2621 14.1527 18.9595 0.0000 -1.4622 0.0000
# 2 14.1527 83.6661 23.9766 0.0000 2.6533 0.0000
# 3 18.9595 23.9766 66.0854 0.0000 -18.5562 0.0000
# 4 0.0000 0.0000 0.0000 22.8662 0.0000 -0.1252
# 5 -1.4622 2.6533 -18.5562 0.0000 44.3643 0.0000
# 6 0.0000 0.0000 0.0000 -0.1252 0.0000 9.4023
#
#
#
# Elastic Compliance Matrix: (Units=1/GPa)
#
#
# Indices 1 2 3 4 5 6 
#
# 1 0.011643 -0.001016 -0.003226 0.000000 -0.000905 0.000000
# 2 -0.001016 0.013841 -0.005633 0.000000 -0.003218 0.000000
# 3 -0.003226 -0.005633 0.020583 0.000000 0.008840 0.000000
# 4 0.000000 0.000000 0.000000 0.043736 0.000000 0.000583
# 5 -0.000905 -0.003218 0.008840 0.000000 0.026401 0.000000
# 6 0.000000 0.000000 0.000000 0.000583 0.000000 0.106365
#
#
# Mechanical properties :
#
#
# Convention : Reuss Voigt Hill
#
# Bulk Modulus (GPa) = 37.99925 39.57679 38.78802
# Shear Modulus (GPa) = 19.91308 27.65489 23.78399
#
# Velocity S-wave (km/s) = 3.05318 3.59806 3.33676
# Velocity P-wave (km/s) = 5.49706 5.98234 5.74483
#
# Compressibility (1/GPa) = 0.02631631
#
# Stress axis : x y z
#
# Youngs Moduli (GPa) = 85.88772 72.25104 48.58281
#
# Poissons Ratio (x) = 0.07344 0.15671
# Poissons Ratio (y) = 0.08730 0.27369
# Poissons Ratio (z) = 0.27704 0.40702
#
# Static dielectric constant tensor:
#      x y z
#    x 2.387240 0.000000 0.014680 
#    y 0.000000 1.775970 0.000000 
#    z 0.014680 0.000000 1.810760 
# 
# From -- ./inp_files/25826.got.cif
#   From: 2010.05.17/outbox.cif.g08.bks.cpg/sg15_13_cif.got.tgz:25826.got - 2010.06.03 18:47:42.
