data_PCOD9281146
_publ_section_title
;
Structure prediction by ZEFSAII (Michael W. Deem and Ramdas Pophale) SiO2 
 PCOD9281146
Probable space group: C 2/C
;
_chemical_formula_sum "Si O2"
_cell_formula_units_Z 44
_cell_length_a 16.848232
_cell_length_b 8.200428
_cell_length_c 17.087680
_cell_angle_alpha 90.000000
_cell_angle_beta 64.031072
_cell_angle_gamma 90.000000
_cell_volume 2122.506045
_symmetry_space_group_name_H-M "C 2/C"
_symmetry_group_IT_number 15
_symmetry_cell_setting 'monoclinic'
loop_
_space_group_symop_operation_xyz
x,y,z
-x,y,1/2-z
-x,-y,-z
x,-y,1/2+z
1/2+x,1/2+y,z
1/2-x,1/2+y,1/2-z
1/2-x,1/2-y,-z
1/2+x,1/2-y,1/2+z
loop_
_atom_site_type_symbol
_atom_site_label
_atom_site_fract_x
_atom_site_fract_y
_atom_site_fract_z
Si Si1 0.000000 0.266897 0.250000
Si Si2 0.395515 0.487070 0.539421
Si Si3 0.294561 0.224224 0.151949
Si Si4 0.339535 0.446712 0.885994
Si Si5 0.351900 0.036991 0.749243
Si Si6 0.762273 0.282007 0.900813
O O1 0.922890 0.151799 0.316325
O O2 0.949159 0.389367 0.213789
O O3 0.500000 0.500000 0.500000
O O4 0.361557 0.632044 0.607961
O O5 0.363139 0.525704 0.465623
O O6 0.337958 0.324833 0.583992
O O7 0.249389 0.155339 0.092667
O O8 0.213461 0.310135 0.230962
O O9 0.337187 0.084006 0.184469
O O10 0.316421 0.619332 0.854208
O O11 0.319123 0.935573 0.841719
O O12 0.750000 0.250000 0.000000
#
# Coordination Sequence:
#
# PCOD9281146 Si02
#       6
#     4   8   8   8   8   8
#     4  10  24  38  58  90 120 154 204 250 288 350
#     4  10  22  38  59  88 116 147 198 248 292 354
#     4  10  21  38  59  82 116 157 190 239 301 357
#     4  10  21  40  60  82 117 158 194 239 298 358
#     4  10  21  38  59  88 118 152 200 246 296 357
#     4   9  20  38  61  84 115 156 192 237 300 354
#
# _framework density 20.730212000000002
#
# number of rings (size 3 to 8) (size 9 to 14) (size 15 to 20)
#    0.000    2.182    0.000    1.636    0.000   13.818 
#    0.000    1.818    0.000    0.000    0.000    0.000 
#    0.000    0.000    0.000    0.000    0.000    0.000 
#
# Total GULP energy -122540.657252 kJ/mol
# GULP energy per Si atom -5570.029875 kJ/mol
# Density = 2.068303 g / cm^3
# Si number density = 20.730212 Si / 1000 Ang^3
#
#
#
# Elastic Constant Matrix: (Units=GPa)
#
#
# Indices 1 2 3 4 5 6 
#
# 1 158.1244 70.6696 39.6128 0.0000 -13.3529 0.0000
# 2 70.6696 94.7462 11.8354 0.0000 -0.0583 0.0000
# 3 39.6128 11.8354 51.7739 0.0000 9.0509 0.0000
# 4 0.0000 0.0000 0.0000 37.0794 0.0000 3.6872
# 5 -13.3529 -0.0583 9.0509 0.0000 29.9241 0.0000
# 6 0.0000 0.0000 0.0000 3.6872 0.0000 30.2274
#
#
#
# Elastic Compliance Matrix: (Units=1/GPa)
#
#
# Indices 1 2 3 4 5 6 
#
# 1 0.013512 -0.008837 -0.009892 0.000000 0.009004 0.000000
# 2 -0.008837 0.016663 0.003839 0.000000 -0.005072 0.000000
# 3 -0.009892 0.003839 0.028271 0.000000 -0.012958 0.000000
# 4 0.000000 0.000000 0.000000 0.027300 0.000000 -0.003330
# 5 0.009004 -0.005072 -0.012958 0.000000 0.041345 0.000000
# 6 0.000000 0.000000 0.000000 -0.003330 0.000000 0.033489
#
#
# Mechanical properties :
#
#
# Convention : Reuss Voigt Hill
#
# Bulk Modulus (GPa) = 34.88510 60.98667 47.93588
# Shear Modulus (GPa) = 25.01028 31.61462 28.31245
#
# Velocity S-wave (km/s) = 3.47719 3.90943 3.69963
# Velocity P-wave (km/s) = 5.74333 7.06125 6.43611
#
# Compressibility (1/GPa) = 0.02866554
#
# Stress axis : x y z
#
# Youngs Moduli (GPa) = 74.00639 60.01148 35.37181
#
# Poissons Ratio (x) = 0.53034 0.34991
# Poissons Ratio (y) = 0.65402 -0.13579
# Poissons Ratio (z) = 0.73210 -0.23039
#
# Static dielectric constant tensor:
#      x y z
#    x 1.742680 0.000000 0.019470 
#    y 0.000000 1.784690 0.000000 
#    z 0.019470 0.000000 1.829650 
# 
# From -- ./inp_files/202561.got.cif
#   From: 2010.05.17/outbox.cif.g08.bks.cpg/sg15_102_cif.got.tgz:202561.got - 2010.06.03 18:47:42.
