data_PCOD9281573
_publ_section_title
;
Structure prediction by ZEFSAII (Michael W. Deem and Ramdas Pophale) SiO2 
 PCOD9281573
Probable space group: C 2/C
;
_chemical_formula_sum "Si O2"
_cell_formula_units_Z 52
_cell_length_a 17.905484
_cell_length_b 8.538039
_cell_length_c 16.880260
_cell_angle_alpha 90.000000
_cell_angle_beta 124.976862
_cell_angle_gamma 90.000000
_cell_volume 2114.514180
_symmetry_space_group_name_H-M "C 2/C"
_symmetry_group_IT_number 15
_symmetry_cell_setting 'monoclinic'
loop_
_space_group_symop_operation_xyz
x,y,z
-x,y,1/2-z
-x,-y,-z
x,-y,1/2+z
1/2+x,1/2+y,z
1/2-x,1/2+y,1/2-z
1/2-x,1/2-y,-z
1/2+x,1/2-y,1/2+z
loop_
_atom_site_type_symbol
_atom_site_label
_atom_site_fract_x
_atom_site_fract_y
_atom_site_fract_z
Si Si1 0.214922 0.576994 0.464803
Si Si2 0.353118 0.009717 0.750157
Si Si3 0.027307 0.423326 0.932608
Si Si4 0.959771 0.065884 0.876158
Si Si5 0.294575 0.741852 0.835563
Si Si6 0.500000 0.383352 0.750000
Si Si7 0.119994 0.153726 0.457494
O O1 0.250000 0.750000 0.500000
O O2 0.176837 0.554535 0.352875
O O3 0.368797 0.945254 0.526969
O O4 0.302065 0.464661 0.523816
O O5 0.460291 0.005417 0.829168
O O6 0.315720 0.890162 0.794662
O O7 0.307768 0.179485 0.732822
O O8 0.035795 0.938181 0.949793
O O9 0.005310 0.237562 0.913404
O O10 0.000000 0.500000 0.000000
O O11 0.858086 0.095828 0.845028
O O12 0.950253 0.002519 0.780331
O O13 0.329474 0.757627 0.946818
O O14 0.429018 0.288452 0.652317
#
# Coordination Sequence:
#
# PCOD9281573 Si02
#       7
#     8   8   8   8   8   4   8
#     4  11  21  37  65  95 129 173 231 279 332 413
#     4  10  25  40  66  97 133 181 224 284 339 415
#     4  11  24  37  60  98 132 170 217 286 354 393
#     4   9  19  35  60  92 124 166 216 276 321 399
#     4  10  21  38  62  98 134 171 224 283 343 405
#     4   8  18  32  60  94 122 156 226 282 316 382
#     4   9  19  34  60  99 120 167 220 285 330 398
#
# _framework density 24.591937999999999
#
# number of rings (size 3 to 8) (size 9 to 14) (size 15 to 20)
#    0.923    1.231    1.538    0.923   10.769    0.000 
#    0.000    0.000    0.000   23.077    0.000    0.000 
#    0.000    0.000    0.000    0.000    0.000    0.000 
#
# Total GULP energy -145328.330043 kJ/mol
# GULP energy per Si atom -5589.551156 kJ/mol
# Density = 2.453597 g / cm^3
# Si number density = 24.591938 Si / 1000 Ang^3
#
#
#
# Elastic Constant Matrix: (Units=GPa)
#
#
# Indices 1 2 3 4 5 6 
#
# 1 109.4025 44.6551 15.8853 0.0000 14.5762 0.0000
# 2 44.6551 105.3573 41.4665 0.0000 -1.2630 0.0000
# 3 15.8853 41.4665 121.0425 0.0000 4.2662 0.0000
# 4 0.0000 0.0000 0.0000 15.7873 0.0000 -7.6521
# 5 14.5762 -1.2630 4.2662 0.0000 37.6637 0.0000
# 6 0.0000 0.0000 0.0000 -7.6521 0.0000 41.9936
#
#
#
# Elastic Compliance Matrix: (Units=1/GPa)
#
#
# Indices 1 2 3 4 5 6 
#
# 1 0.011864 -0.005248 0.000410 0.000000 -0.004814 0.000000
# 2 -0.005248 0.013316 -0.003976 0.000000 0.002928 0.000000
# 3 0.000410 -0.003976 0.009619 0.000000 -0.001382 0.000000
# 4 0.000000 0.000000 0.000000 0.069479 0.000000 0.012661
# 5 -0.004814 0.002928 -0.001382 0.000000 0.028669 0.000000
# 6 0.000000 0.000000 0.000000 0.012661 0.000000 0.026120
#
#
# Mechanical properties :
#
#
# Convention : Reuss Voigt Hill
#
# Bulk Modulus (GPa) = 58.23605 59.97956 59.10780
# Shear Modulus (GPa) = 27.40964 34.67527 31.04246
#
# Velocity S-wave (km/s) = 3.34215 3.75910 3.55674
# Velocity P-wave (km/s) = 6.21496 6.57906 6.39960
#
# Compressibility (1/GPa) = 0.01717150
#
# Stress axis : x y z
#
# Youngs Moduli (GPa) = 84.28548 75.09832 103.96575
#
# Poissons Ratio (x) = 0.39411 -0.04267
# Poissons Ratio (y) = 0.44233 0.41339
# Poissons Ratio (z) = -0.03459 0.29861
#
# Static dielectric constant tensor:
#      x y z
#    x 1.975830 0.000000 -0.029730 
#    y 0.000000 1.908250 0.000000 
#    z -0.029730 0.000000 1.986540 
# 
# From -- ./inp_files/214359.got.cif
#   From: 2010.05.17/outbox.cif.g08.bks.cpg/sg15_108_cif.got.tgz:214359.got - 2010.06.03 18:47:42.
