data_PCOD9281142
_publ_section_title
;
Structure prediction by ZEFSAII (Michael W. Deem and Ramdas Pophale) SiO2 
 PCOD9281142
Probable space group: C 2/C
;
_chemical_formula_sum "Si O2"
_cell_formula_units_Z 44
_cell_length_a 24.052227
_cell_length_b 11.053646
_cell_length_c 21.196334
_cell_angle_alpha 90.000000
_cell_angle_beta 25.990861
_cell_angle_gamma 90.000000
_cell_volume 2469.570925
_symmetry_space_group_name_H-M "C 2/C"
_symmetry_group_IT_number 15
_symmetry_cell_setting 'monoclinic'
loop_
_space_group_symop_operation_xyz
x,y,z
-x,y,1/2-z
-x,-y,-z
x,-y,1/2+z
1/2+x,1/2+y,z
1/2-x,1/2+y,1/2-z
1/2-x,1/2-y,-z
1/2+x,1/2-y,1/2+z
loop_
_atom_site_type_symbol
_atom_site_label
_atom_site_fract_x
_atom_site_fract_y
_atom_site_fract_z
Si Si1 0.900211 0.388516 0.177196
Si Si2 0.078896 0.607401 0.034985
Si Si3 0.959128 0.192384 0.025031
Si Si4 0.870664 0.682432 0.849083
Si Si5 0.500000 0.946420 0.750000
Si Si6 0.795582 0.972888 0.229463
O O1 0.984917 0.295260 0.050791
O O2 0.869115 0.322154 0.274757
O O3 0.785136 0.423449 0.247980
O O4 0.974187 0.512038 0.116602
O O5 0.046460 0.623130 0.141242
O O6 0.074144 0.733832 0.003662
O O7 0.209752 0.544359 0.879226
O O8 0.843726 0.108216 0.166484
O O9 0.079913 0.108862 0.891436
O O10 0.885042 0.540263 0.852210
O O11 0.000000 0.733725 0.750000
O O12 0.750000 0.750000 0.000000
#
# Coordination Sequence:
#
# PCOD9281142 Si02
#       6
#     8   8   8   8   4   8
#     4  10  22  34  61  79 116 146 189 230 299 334
#     4  10  21  38  59  79 113 152 184 234 287 339
#     4  10  22  35  57  87 113 145 190 237 281 341
#     4   9  20  35  56  83 111 150 191 240 281 344
#     4   8  20  38  56  82 108 150 202 220 290 352
#     4  10  22  35  57  87 113 144 190 237 281 339
#
# _framework density 17.816859999999998
#
# number of rings (size 3 to 8) (size 9 to 14) (size 15 to 20)
#    0.545    1.818    0.000    2.182   15.273    0.000 
#    0.000    0.909    0.000    0.000    0.000    0.000 
#    0.000    0.000    0.000    0.000    0.000    0.000 
#
# Total GULP energy -122486.053696 kJ/mol
# GULP energy per Si atom -5567.547895 kJ/mol
# Density = 1.777631 g / cm^3
# Si number density = 17.816860 Si / 1000 Ang^3
#
#
#
# Elastic Constant Matrix: (Units=GPa)
#
#
# Indices 1 2 3 4 5 6 
#
# 1 57.4234 16.4782 42.7437 0.0000 25.1200 0.0000
# 2 16.4782 66.9719 32.5397 0.0000 12.5045 0.0000
# 3 42.7437 32.5397 107.4518 0.0000 12.4379 0.0000
# 4 0.0000 0.0000 0.0000 19.3257 0.0000 1.1578
# 5 25.1200 12.5045 12.4379 0.0000 36.0671 0.0000
# 6 0.0000 0.0000 0.0000 1.1578 0.0000 9.4556
#
#
#
# Elastic Compliance Matrix: (Units=1/GPa)
#
#
# Indices 1 2 3 4 5 6 
#
# 1 0.034935 0.000990 -0.011812 0.000000 -0.020601 0.000000
# 2 0.000990 0.018239 -0.005318 0.000000 -0.005179 0.000000
# 3 -0.011812 -0.005318 0.015051 0.000000 0.004880 0.000000
# 4 0.000000 0.000000 0.000000 0.052127 0.000000 -0.006383
# 5 -0.020601 -0.005179 0.004880 0.000000 0.042187 0.000000
# 6 0.000000 0.000000 0.000000 -0.006383 0.000000 0.106539
#
#
# Mechanical properties :
#
#
# Convention : Reuss Voigt Hill
#
# Bulk Modulus (GPa) = 27.82013 46.15227 36.98620
# Shear Modulus (GPa) = 15.95719 22.30871 19.13295
#
# Velocity S-wave (km/s) = 2.99594 3.54236 3.28055
# Velocity P-wave (km/s) = 5.25509 6.53384 5.92904
#
# Compressibility (1/GPa) = 0.03594519
#
# Stress axis : x y z
#
# Youngs Moduli (GPa) = 28.62463 54.82836 66.44198
#
# Poissons Ratio (x) = -0.05429 0.78482
# Poissons Ratio (y) = -0.02834 0.35331
# Poissons Ratio (z) = 0.33812 0.29156
#
# Static dielectric constant tensor:
#      x y z
#    x 1.637310 0.000000 0.008810 
#    y 0.000000 1.615390 0.000000 
#    z 0.008810 0.000000 1.611580 
# 
# From -- ./inp_files/116940.got.cif
#   From: 2010.05.17/outbox.cif.g08.bks.cpg/sg15_59_cif.got.tgz:116940.got - 2010.06.03 18:47:42.
