data_PCOD9281778
_publ_section_title
;
Structure prediction by ZEFSAII (Michael W. Deem and Ramdas Pophale) SiO2 
 PCOD9281778
Probable space group: C 2/C
;
_chemical_formula_sum "Si O2"
_cell_formula_units_Z 48
_cell_length_a 15.346085
_cell_length_b 15.303501
_cell_length_c 8.513804
_cell_angle_alpha 90.000000
_cell_angle_beta 103.399265
_cell_angle_gamma 90.000000
_cell_volume 1945.029370
_symmetry_space_group_name_H-M "C 2/C"
_symmetry_group_IT_number 15
_symmetry_cell_setting 'monoclinic'
loop_
_space_group_symop_operation_xyz
x,y,z
-x,y,1/2-z
-x,-y,-z
x,-y,1/2+z
1/2+x,1/2+y,z
1/2-x,1/2+y,1/2-z
1/2-x,1/2-y,-z
1/2+x,1/2-y,1/2+z
loop_
_atom_site_type_symbol
_atom_site_label
_atom_site_fract_x
_atom_site_fract_y
_atom_site_fract_z
Si Si1 0.134119 0.235227 0.741040
Si Si2 0.784946 0.342712 0.952105
Si Si3 0.655337 0.436453 0.684902
Si Si4 0.031801 0.213158 0.025604
Si Si5 0.740331 0.415139 0.380100
Si Si6 0.588506 0.104690 0.715769
O O1 0.159366 0.329090 0.685152
O O2 0.225826 0.184637 0.818419
O O3 0.070396 0.202898 0.572322
O O4 0.082529 0.229474 0.882107
O O5 0.701579 0.397008 0.858814
O O6 0.750000 0.250000 0.000000
O O7 0.846241 0.382515 0.109658
O O8 0.568718 0.376432 0.616987
O O9 0.711991 0.426469 0.547844
O O10 0.664149 0.537030 0.740549
O O11 0.054275 0.300651 0.134319
O O12 0.842974 0.438476 0.381670
O O13 0.500000 0.059147 0.750000
#
# Coordination Sequence:
#
# PCOD9281778 Si02
#       6
#     8   8   8   8   8   8
#     4  10  21  38  64  93 129 166 207 268 312 379
#     4  12  21  37  66  93 122 165 218 260 314 369
#     4  11  24  42  64  91 129 175 208 260 315 388
#     4  10  21  39  63  96 127 164 217 260 316 365
#     4  11  24  42  62  91 135 171 213 254 328 378
#     4  12  23  39  65  97 125 166 216 272 309 376
#
# _framework density 24.678291999999999
#
# number of rings (size 3 to 8) (size 9 to 14) (size 15 to 20)
#    0.000    1.000    5.000    2.000    0.000    3.333 
#    0.000    3.333    0.000    0.000    0.000    0.000 
#    0.000    0.000    0.000    0.000    0.000    0.000 
#
# Total GULP energy -133974.120968 kJ/mol
# GULP energy per Si atom -5582.255040 kJ/mol
# Density = 2.462212 g / cm^3
# Si number density = 24.678292 Si / 1000 Ang^3
#
#
#
# Elastic Constant Matrix: (Units=GPa)
#
#
# Indices 1 2 3 4 5 6 
#
# 1 75.8468 -3.6353 18.2285 0.0000 1.7936 0.0000
# 2 -3.6353 36.0697 23.2619 0.0000 3.5590 0.0000
# 3 18.2285 23.2619 137.8922 0.0000 9.4299 0.0000
# 4 0.0000 0.0000 0.0000 47.7392 0.0000 3.7115
# 5 1.7936 3.5590 9.4299 0.0000 38.0639 0.0000
# 6 0.0000 0.0000 0.0000 3.7115 0.0000 10.6943
#
#
#
# Elastic Compliance Matrix: (Units=1/GPa)
#
#
# Indices 1 2 3 4 5 6 
#
# 1 0.013887 0.002921 -0.002304 0.000000 -0.000357 0.000000
# 2 0.002921 0.031823 -0.005637 0.000000 -0.001717 0.000000
# 3 -0.002304 -0.005637 0.008610 0.000000 -0.001497 0.000000
# 4 0.000000 0.000000 0.000000 0.021528 0.000000 -0.007471
# 5 -0.000357 -0.001717 -0.001497 0.000000 0.026820 0.000000
# 6 0.000000 0.000000 0.000000 -0.007471 0.000000 0.096101
#
#
# Mechanical properties :
#
#
# Convention : Reuss Voigt Hill
#
# Bulk Modulus (GPa) = 22.58414 36.16878 29.37646
# Shear Modulus (GPa) = 22.36443 33.42971 27.89707
#
# Velocity S-wave (km/s) = 3.01365 3.68451 3.36583
# Velocity P-wave (km/s) = 4.61310 5.72615 5.19949
#
# Compressibility (1/GPa) = 0.04427885
#
# Stress axis : x y z
#
# Youngs Moduli (GPa) = 72.01170 31.42343 116.14406
#
# Poissons Ratio (x) = -0.09178 0.26760
# Poissons Ratio (y) = -0.21032 0.65473
# Poissons Ratio (z) = 0.16592 0.17714
#
# Static dielectric constant tensor:
#      x y z
#    x 2.046560 0.000000 -0.039280 
#    y 0.000000 2.207960 0.000000 
#    z -0.039280 0.000000 1.918730 
# 
# From -- ./inp_files/40925.got.cif
#   From: 2010.05.17/outbox.cif.g08.bks.cpg/sg15_21_cif.got.tgz:40925.got - 2010.06.03 18:47:42.
