data_PCOD9281769
_publ_section_title
;
Structure prediction by ZEFSAII (Michael W. Deem and Ramdas Pophale) SiO2 
 PCOD9281769
Probable space group: C 2/C
;
_chemical_formula_sum "Si O2"
_cell_formula_units_Z 60
_cell_length_a 5.928881
_cell_length_b 16.786470
_cell_length_c 28.323413
_cell_angle_alpha 90.000000
_cell_angle_beta 82.614526
_cell_angle_gamma 90.000000
_cell_volume 2795.501100
_symmetry_space_group_name_H-M "C 2/C"
_symmetry_group_IT_number 15
_symmetry_cell_setting 'monoclinic'
loop_
_space_group_symop_operation_xyz
x,y,z
-x,y,1/2-z
-x,-y,-z
x,-y,1/2+z
1/2+x,1/2+y,z
1/2-x,1/2+y,1/2-z
1/2-x,1/2-y,-z
1/2+x,1/2-y,1/2+z
loop_
_atom_site_type_symbol
_atom_site_label
_atom_site_fract_x
_atom_site_fract_y
_atom_site_fract_z
Si Si1 0.714845 0.426590 0.842403
Si Si2 0.148331 0.174857 0.204279
Si Si3 0.625980 0.390781 0.998385
Si Si4 0.191394 0.211709 0.051731
Si Si5 0.000000 0.435786 0.750000
Si Si6 0.643715 0.158403 0.919539
Si Si7 0.996051 0.725435 0.373436
Si Si8 0.223712 0.526233 0.567141
O O1 0.492658 0.385649 0.825527
O O2 0.855898 0.471966 0.797037
O O3 0.694296 0.486503 0.886462
O O4 0.850712 0.348357 0.857158
O O5 0.318234 0.119516 0.228923
O O6 0.294846 0.233429 0.168256
O O7 0.000000 0.213902 0.250000
O O8 0.774862 0.335154 0.028046
O O9 0.429415 0.421200 0.039766
O O10 0.484371 0.356824 0.958016
O O11 0.788959 0.458107 0.972588
O O12 0.406729 0.195658 0.078565
O O13 0.052013 0.277675 0.083687
O O14 0.250000 0.250000 0.000000
O O15 0.512447 0.074159 0.918912
O O16 0.853472 0.193365 0.883852
#
# Coordination Sequence:
#
# PCOD9281769 Si02
#       8
#     8   8   8   8   4   8   8   8
#     4  10  21  38  64  93 122 154 197 260 311 375
#     4   9  18  37  62  95 125 143 190 257 322 371
#     4  11  24  39  55  80 119 168 218 254 301 360
#     4  12  23  39  58  83 117 169 219 260 304 361
#     4   8  18  36  64  98 116 144 188 250 318 364
#     4  12  23  38  56  83 121 168 204 258 309 359
#     4  11  22  36  61  92 121 159 209 257 316 368
#     4  11  24  37  54  86 123 164 207 253 299 370
#
# _framework density 21.463058
#
# number of rings (size 3 to 8) (size 9 to 14) (size 15 to 20)
#    0.000    1.333    2.667    3.200    1.867    4.267 
#    0.000    0.000    0.000    0.000   60.667    0.000 
#    0.000    0.000    0.000    0.000    0.000    0.000 
#
# Total GULP energy -167280.995533 kJ/mol
# GULP energy per Si atom -5576.033184 kJ/mol
# Density = 2.141421 g / cm^3
# Si number density = 21.463058 Si / 1000 Ang^3
#
#
#
# Elastic Constant Matrix: (Units=GPa)
#
#
# Indices 1 2 3 4 5 6 
#
# 1 97.5531 32.8474 47.4398 0.0000 10.2400 0.0000
# 2 32.8474 59.1922 26.4232 0.0000 -4.0755 0.0000
# 3 47.4398 26.4232 111.0408 0.0000 0.7778 0.0000
# 4 0.0000 0.0000 0.0000 17.1327 0.0000 2.2825
# 5 10.2400 -4.0755 0.7778 0.0000 54.1496 0.0000
# 6 0.0000 0.0000 0.0000 2.2825 0.0000 30.9738
#
#
#
# Elastic Compliance Matrix: (Units=1/GPa)
#
#
# Indices 1 2 3 4 5 6 
#
# 1 0.015156 -0.006440 -0.004920 0.000000 -0.003280 0.000000
# 2 -0.006440 0.021759 -0.002447 0.000000 0.002891 0.000000
# 3 -0.004920 -0.002447 0.011686 0.000000 0.000578 0.000000
# 4 0.000000 0.000000 0.000000 0.058947 0.000000 -0.004344
# 5 -0.003280 0.002891 0.000578 0.000000 0.019297 0.000000
# 6 0.000000 0.000000 0.000000 -0.004344 0.000000 0.032605
#
#
# Mechanical properties :
#
#
# Convention : Reuss Voigt Hill
#
# Bulk Modulus (GPa) = 47.64637 53.46744 50.55690
# Shear Modulus (GPa) = 25.76540 31.18961 28.47750
#
# Velocity S-wave (km/s) = 3.46851 3.81619 3.64650
# Velocity P-wave (km/s) = 6.18775 6.66207 6.42929
#
# Compressibility (1/GPa) = 0.02098796
#
# Stress axis : x y z
#
# Youngs Moduli (GPa) = 65.98033 45.95758 85.57526
#
# Poissons Ratio (x) = 0.29598 0.42099
# Poissons Ratio (y) = 0.42493 0.20937
# Poissons Ratio (z) = 0.32460 0.11244
#
# Static dielectric constant tensor:
#      x y z
#    x 1.866080 0.000000 -0.051090 
#    y 0.000000 1.803110 0.000000 
#    z -0.051090 0.000000 1.814070 
# 
# From -- ./inp_files/286056.got.cif
#   From: 2010.05.17/outbox.cif.g08.bks.cpg/sg15_144_cif.got.tgz:286056.got - 2010.06.03 18:47:42.
