data_PCOD9281515
_publ_section_title
;
Structure prediction by ZEFSAII (Michael W. Deem and Ramdas Pophale) SiO2 
 PCOD9281515
Probable space group: C 2/C
;
_chemical_formula_sum "Si O2"
_cell_formula_units_Z 48
_cell_length_a 11.254066
_cell_length_b 11.718377
_cell_length_c 17.093042
_cell_angle_alpha 90.000000
_cell_angle_beta 65.921674
_cell_angle_gamma 90.000000
_cell_volume 2058.077036
_symmetry_space_group_name_H-M "C 2/C"
_symmetry_group_IT_number 15
_symmetry_cell_setting 'monoclinic'
loop_
_space_group_symop_operation_xyz
x,y,z
-x,y,1/2-z
-x,-y,-z
x,-y,1/2+z
1/2+x,1/2+y,z
1/2-x,1/2+y,1/2-z
1/2-x,1/2-y,-z
1/2+x,1/2-y,1/2+z
loop_
_atom_site_type_symbol
_atom_site_label
_atom_site_fract_x
_atom_site_fract_y
_atom_site_fract_z
Si Si1 0.208104 0.207872 0.140638
Si Si2 0.500000 0.473243 0.750000
Si Si3 0.842438 0.689895 0.575245
Si Si4 0.720686 0.084905 0.074455
Si Si5 0.843518 0.835630 0.231359
Si Si6 0.621148 0.134531 0.532247
Si Si7 0.500000 0.865084 0.750000
O O1 0.119676 0.108619 0.198168
O O2 0.237377 0.308553 0.194301
O O3 0.136177 0.257907 0.084663
O O4 0.339495 0.160068 0.067145
O O5 0.558913 0.558108 0.800492
O O6 0.834497 0.830303 0.576209
O O7 0.827717 0.652094 0.489688
O O8 0.724928 0.656812 0.665129
O O9 0.966445 0.619717 0.573417
O O10 0.611966 0.073365 0.171509
O O11 0.723400 0.957953 0.038398
O O12 0.928021 0.720723 0.210347
#
# Coordination Sequence:
#
# PCOD9281515 Si02
#       7
#     8   4   8   8   8   8   4
#     4  11  25  41  61  92 128 169 219 264 323 396
#     4  11  24  45  68  92 130 171 210 271 330 378
#     4  10  21  39  64  93 124 164 220 265 317 395
#     4  10  21  38  62  91 125 168 213 269 327 378
#     4  10  22  41  65  92 124 167 213 267 323 378
#     4  11  24  40  59  90 130 170 213 270 326 383
#     4   9  20  37  62  94 124 159 216 265 312 390
#
# _framework density 23.322742000000002
#
# number of rings (size 3 to 8) (size 9 to 14) (size 15 to 20)
#    0.000    1.667    0.000    3.500    0.000   11.333 
#    0.000    3.333    0.000    0.000    0.000    0.000 
#    0.000    0.000    0.000    0.000    0.000    0.000 
#
# Total GULP energy -133739.915302 kJ/mol
# GULP energy per Si atom -5572.496471 kJ/mol
# Density = 2.326966 g / cm^3
# Si number density = 23.322742 Si / 1000 Ang^3
#
#
#
# Elastic Constant Matrix: (Units=GPa)
#
#
# Indices 1 2 3 4 5 6 
#
# 1 58.9641 20.0276 15.3493 0.0000 1.2699 0.0000
# 2 20.0276 88.4013 22.7133 0.0000 11.0940 0.0000
# 3 15.3493 22.7133 87.9019 0.0000 9.1785 0.0000
# 4 0.0000 0.0000 0.0000 10.2021 0.0000 -6.0210
# 5 1.2699 11.0940 9.1785 0.0000 16.1414 0.0000
# 6 0.0000 0.0000 0.0000 -6.0210 0.0000 3.1052
#
#
#
# Elastic Compliance Matrix: (Units=1/GPa)
#
#
# Indices 1 2 3 4 5 6 
#
# 1 0.018915 -0.003966 -0.002559 0.000000 0.002693 0.000000
# 2 -0.003966 0.013731 -0.002023 0.000000 -0.007975 0.000000
# 3 -0.002559 -0.002023 0.012949 0.000000 -0.005771 0.000000
# 4 0.000000 0.000000 0.000000 -0.679110 0.000000 -1.316783
# 5 0.002693 -0.007975 -0.005771 0.000000 0.070504 0.000000
# 6 0.000000 0.000000 0.000000 -1.316783 0.000000 -2.231187
#
#
# Mechanical properties :
#
#
# Convention : Reuss Voigt Hill
#
# Bulk Modulus (GPa) = 35.08915 39.04975 37.06945
# Shear Modulus (GPa) = -1.80662 17.70157 7.94748
#
# Velocity S-wave (km/s) = -0.88108 2.75795 1.84797
# Velocity P-wave (km/s) = 3.74735 5.18857 4.52570
#
# Compressibility (1/GPa) = 0.02849884
#
# Stress axis : x y z
#
# Youngs Moduli (GPa) = 52.86908 72.82776 77.22879
#
# Poissons Ratio (x) = 0.28880 0.19766
# Poissons Ratio (y) = 0.20965 0.15622
# Poissons Ratio (z) = 0.13531 0.14732
#
# Static dielectric constant tensor:
#      x y z
#    x 1.979670 0.000000 -0.023990 
#    y 0.000000 1.942490 0.000000 
#    z -0.023990 0.000000 1.849680 
# 
# From -- ./inp_files/196562.got.cif
#   From: 2010.05.17/outbox.cif.g08.bks.cpg/sg15_99_cif.got.tgz:196562.got - 2010.06.03 18:47:42.
