data_PCOD9281121
_publ_section_title
;
Structure prediction by ZEFSAII (Michael W. Deem and Ramdas Pophale) SiO2 
 PCOD9281121
Probable space group: C 2/C
;
_chemical_formula_sum "Si O2"
_cell_formula_units_Z 32
_cell_length_a 14.778385
_cell_length_b 23.843744
_cell_length_c 5.275219
_cell_angle_alpha 90.000000
_cell_angle_beta 113.004167
_cell_angle_gamma 90.000000
_cell_volume 1711.018065
_symmetry_space_group_name_H-M "C 2/C"
_symmetry_group_IT_number 15
_symmetry_cell_setting 'monoclinic'
loop_
_space_group_symop_operation_xyz
x,y,z
-x,y,1/2-z
-x,-y,-z
x,-y,1/2+z
1/2+x,1/2+y,z
1/2-x,1/2+y,1/2-z
1/2-x,1/2-y,-z
1/2+x,1/2-y,1/2+z
loop_
_atom_site_type_symbol
_atom_site_label
_atom_site_fract_x
_atom_site_fract_y
_atom_site_fract_z
Si Si1 0.720463 0.183095 0.983229
Si Si2 0.000000 0.299467 0.250000
Si Si3 0.887934 0.977990 0.330030
Si Si4 0.000000 0.228799 0.750000
Si Si5 0.674805 0.355674 0.395270
O O1 0.781345 0.154342 0.277728
O O2 0.750000 0.250000 0.000000
O O3 0.605525 0.172904 0.917863
O O4 0.747446 0.156605 0.741621
O O5 0.976109 0.264284 0.476158
O O6 0.875331 0.915761 0.209051
O O7 0.842810 0.983292 0.560307
O O8 0.000000 0.000000 0.500000
O O9 0.090823 0.190523 0.773089
#
# Coordination Sequence:
#
# PCOD9281121 Si02
#       5
#     8   4   8   4   8
#     4  12  23  41  56  90 124 169 217 251 297 376
#     4  12  24  36  58  79 126 165 204 260 278 350
#     4  10  21  38  58  88 127 151 197 256 311 380
#     4  12  20  34  56  87 116 167 204 238 304 350
#     4  12  23  37  63  88 125 170 200 247 325 376
#
# _framework density 18.702316
#
# number of rings (size 3 to 8) (size 9 to 14) (size 15 to 20)
#    0.000    0.500    5.000    5.250    0.000    4.000 
#    0.000    0.000    0.000    0.000    0.000   17.500 
#    0.000    0.000    0.000    0.000    0.000    0.000 
#
# Total GULP energy -89240.465500 kJ/mol
# GULP energy per Si atom -5577.529094 kJ/mol
# Density = 1.865975 g / cm^3
# Si number density = 18.702316 Si / 1000 Ang^3
#
#
#
# Elastic Constant Matrix: (Units=GPa)
#
#
# Indices 1 2 3 4 5 6 
#
# 1 68.4354 9.6754 -3.0306 0.0000 5.7608 0.0000
# 2 9.6754 68.3671 32.9055 0.0000 -5.2718 0.0000
# 3 -3.0306 32.9055 115.2498 0.0000 -22.2016 0.0000
# 4 0.0000 0.0000 0.0000 38.5034 0.0000 -1.2522
# 5 5.7608 -5.2718 -22.2016 0.0000 41.3615 0.0000
# 6 0.0000 0.0000 0.0000 -1.2522 0.0000 25.8833
#
#
#
# Elastic Compliance Matrix: (Units=1/GPa)
#
#
# Indices 1 2 3 4 5 6 
#
# 1 0.015197 -0.002679 0.000771 0.000000 -0.002044 0.000000
# 2 -0.002679 0.017438 -0.005074 0.000000 -0.000128 0.000000
# 3 0.000771 -0.005074 0.011154 0.000000 0.005233 0.000000
# 4 0.000000 0.000000 0.000000 0.026013 0.000000 0.001258
# 5 -0.002044 -0.000128 0.005233 0.000000 0.027254 0.000000
# 6 0.000000 0.000000 0.000000 0.001258 0.000000 0.038696
#
#
# Mechanical properties :
#
#
# Convention : Reuss Voigt Hill
#
# Bulk Modulus (GPa) = 33.52952 36.79476 35.16214
# Shear Modulus (GPa) = 31.31671 35.31645 33.31658
#
# Velocity S-wave (km/s) = 4.09648 4.35022 4.22526
# Velocity P-wave (km/s) = 6.35152 6.70442 6.53035
#
# Compressibility (1/GPa) = 0.02982446
#
# Stress axis : x y z
#
# Youngs Moduli (GPa) = 65.80092 57.34470 89.65518
#
# Poissons Ratio (x) = 0.15365 -0.06911
# Poissons Ratio (y) = 0.17631 0.45491
# Poissons Ratio (z) = -0.05072 0.29097
#
# Static dielectric constant tensor:
#      x y z
#    x 1.741960 0.000000 -0.048880 
#    y 0.000000 1.667290 0.000000 
#    z -0.048880 0.000000 1.676430 
# 
# From -- ./inp_files/6806.got.cif
#   From: 2010.05.17/outbox.cif.g08.bks.cpg/sg15_4_cif.got.tgz:6806.got - 2010.06.03 18:47:42.
