data_PCOD9281822
_publ_section_title
;
Structure prediction by ZEFSAII (Michael W. Deem and Ramdas Pophale) SiO2 
 PCOD9281822
Probable space group: C 2/C
;
_chemical_formula_sum "Si O2"
_cell_formula_units_Z 52
_cell_length_a 16.533911
_cell_length_b 10.548014
_cell_length_c 14.147934
_cell_angle_alpha 90.000000
_cell_angle_beta 125.838032
_cell_angle_gamma 90.000000
_cell_volume 2000.259256
_symmetry_space_group_name_H-M "C 2/C"
_symmetry_group_IT_number 15
_symmetry_cell_setting 'monoclinic'
loop_
_space_group_symop_operation_xyz
x,y,z
-x,y,1/2-z
-x,-y,-z
x,-y,1/2+z
1/2+x,1/2+y,z
1/2-x,1/2+y,1/2-z
1/2-x,1/2-y,-z
1/2+x,1/2-y,1/2+z
loop_
_atom_site_type_symbol
_atom_site_label
_atom_site_fract_x
_atom_site_fract_y
_atom_site_fract_z
Si Si1 0.098246 0.930258 0.099744
Si Si2 0.810030 0.881958 0.144093
Si Si3 0.500000 0.995608 0.750000
Si Si4 0.688338 0.692160 0.136752
Si Si5 0.340655 0.602557 0.045912
Si Si6 0.580496 0.913925 0.998067
Si Si7 0.342213 0.193337 0.685606
O O1 0.112291 0.890843 0.216339
O O2 0.180713 0.043472 0.144010
O O3 0.113225 0.842539 0.018810
O O4 0.000000 0.000000 0.000000
O O5 0.879261 0.177843 0.162506
O O6 0.773682 0.736769 0.122558
O O7 0.851579 0.955455 0.082114
O O8 0.552734 0.918622 0.868935
O O9 0.426650 0.090246 0.756754
O O10 0.708110 0.760989 0.251636
O O11 0.587734 0.766388 0.035666
O O12 0.200037 0.448449 0.090452
O O13 0.226270 0.631977 0.942748
O O14 0.500000 0.000000 0.000000
#
# Coordination Sequence:
#
# PCOD9281822 Si02
#       7
#     8   8   4   8   8   8   8
#     4  12  27  45  65  97 140 176 223 279 335 395
#     4  10  22  44  65  97 130 177 218 273 328 392
#     4  12  20  36  68 102 128 166 218 278 326 390
#     4  10  22  44  63  96 132 173 217 264 338 393
#     4  11  23  41  66  96 133 175 222 273 326 394
#     4  10  21  38  64  99 136 165 219 275 330 390
#     4  11  21  36  69 101 124 169 223 270 329 386
#
# _framework density 25.99663
#
# number of rings (size 3 to 8) (size 9 to 14) (size 15 to 20)
#    0.923    0.308    6.154    0.000    2.154    1.231 
#    2.769    1.538    0.000    0.000    0.000    0.000 
#    0.000    0.000    0.000    0.000    0.000    0.000 
#
# Total GULP energy -144937.853456 kJ/mol
# GULP energy per Si atom -5574.532825 kJ/mol
# Density = 2.593746 g / cm^3
# Si number density = 25.996630 Si / 1000 Ang^3
#
#
#
# Elastic Constant Matrix: (Units=GPa)
#
#
# Indices 1 2 3 4 5 6 
#
# 1 50.5070 -14.4780 19.1778 0.0000 -1.3633 0.0000
# 2 -14.4780 44.4412 0.1153 0.0000 -8.6780 0.0000
# 3 19.1778 0.1153 140.8214 0.0000 -19.3664 0.0000
# 4 0.0000 0.0000 0.0000 29.3175 0.0000 -6.6466
# 5 -1.3633 -8.6780 -19.3664 0.0000 40.2366 0.0000
# 6 0.0000 0.0000 0.0000 -6.6466 0.0000 30.9547
#
#
#
# Elastic Compliance Matrix: (Units=1/GPa)
#
#
# Indices 1 2 3 4 5 6 
#
# 1 0.023201 0.007762 -0.003028 0.000000 0.001003 0.000000
# 2 0.007762 0.026157 -0.000285 0.000000 0.005767 0.000000
# 3 -0.003028 -0.000285 0.008022 0.000000 0.003697 0.000000
# 4 0.000000 0.000000 0.000000 0.035855 0.000000 0.007699
# 5 0.001003 0.005767 0.003697 0.000000 0.027910 0.000000
# 6 0.000000 0.000000 0.000000 0.007699 0.000000 0.033958
#
#
# Mechanical properties :
#
#
# Convention : Reuss Voigt Hill
#
# Bulk Modulus (GPa) = 15.08798 27.26664 21.17731
# Shear Modulus (GPa) = 29.70897 35.49874 32.60386
#
# Velocity S-wave (km/s) = 3.38420 3.69929 3.54525
# Velocity P-wave (km/s) = 4.59204 5.36262 4.99222
#
# Compressibility (1/GPa) = 0.06627793
#
# Stress axis : x y z
#
# Youngs Moduli (GPa) = 43.10133 38.23027 124.65337
#
# Poissons Ratio (x) = -0.29675 0.37746
# Poissons Ratio (y) = -0.33456 0.03557
# Poissons Ratio (z) = 0.13052 0.01091
#
# Static dielectric constant tensor:
#      x y z
#    x 2.246450 0.000000 0.069330 
#    y 0.000000 2.141130 0.000000 
#    z 0.069330 0.000000 2.031100 
# 
# From -- ./inp_files/161066.got.cif
#   From: 2010.05.17/outbox.cif.g08.bks.cpg/sg15_81_cif.got.tgz:161066.got - 2010.06.03 18:47:42.
