data_PCOD9281557
_publ_section_title
;
Structure prediction by ZEFSAII (Michael W. Deem and Ramdas Pophale) SiO2 
 PCOD9281557
Probable space group: C 2/C
;
_chemical_formula_sum "Si O2"
_cell_formula_units_Z 44
_cell_length_a 18.840259
_cell_length_b 12.476741
_cell_length_c 11.616898
_cell_angle_alpha 90.000000
_cell_angle_beta 55.288105
_cell_angle_gamma 90.000000
_cell_volume 2244.727736
_symmetry_space_group_name_H-M "C 2/C"
_symmetry_group_IT_number 15
_symmetry_cell_setting 'monoclinic'
loop_
_space_group_symop_operation_xyz
x,y,z
-x,y,1/2-z
-x,-y,-z
x,-y,1/2+z
1/2+x,1/2+y,z
1/2-x,1/2+y,1/2-z
1/2-x,1/2-y,-z
1/2+x,1/2-y,1/2+z
loop_
_atom_site_type_symbol
_atom_site_label
_atom_site_fract_x
_atom_site_fract_y
_atom_site_fract_z
Si Si1 0.500000 0.702719 0.250000
Si Si2 0.745405 0.918231 0.484529
Si Si3 0.979631 0.669343 0.549625
Si Si4 0.320850 0.273198 0.600578
Si Si5 0.425520 0.030824 0.222434
Si Si6 0.801377 0.159125 0.377443
O O1 0.477108 0.770244 0.385115
O O2 0.405678 0.653629 0.305629
O O3 0.729154 0.833021 0.397499
O O4 0.811336 0.863561 0.512401
O O5 0.657151 0.925456 0.637981
O O6 0.767008 0.038992 0.429518
O O7 0.920692 0.743525 0.525776
O O8 0.915748 0.584882 0.672221
O O9 0.044648 0.606424 0.408802
O O10 0.289143 0.310702 0.754746
O O11 0.500000 0.022107 0.250000
O O12 0.750000 0.250000 0.500000
#
# Coordination Sequence:
#
# PCOD9281557 Si02
#       6
#     4   8   8   8   8   8
#     4  10  22  44  60  98 128 172 216 260 328 394
#     4  11  24  43  65  98 131 173 222 266 335 390
#     4  10  21  38  62  95 128 169 217 268 331 376
#     4  10  24  43  65  95 132 172 219 274 326 395
#     4  11  21  35  66  93 131 167 218 280 317 378
#     4  11  26  42  71  95 134 176 222 273 327 395
#
# _framework density 19.601486000000001
#
# number of rings (size 3 to 8) (size 9 to 14) (size 15 to 20)
#    0.000    1.455    2.727    2.182    7.636    0.000 
#    0.000    7.273    0.000    0.000    0.000    0.000 
#    0.000    0.000    0.000    0.000    0.000    0.000 
#
# Total GULP energy -122756.286648 kJ/mol
# GULP energy per Si atom -5579.831211 kJ/mol
# Density = 1.955687 g / cm^3
# Si number density = 19.601486 Si / 1000 Ang^3
#
#
#
# Elastic Constant Matrix: (Units=GPa)
#
#
# Indices 1 2 3 4 5 6 
#
# 1 91.4663 34.3665 32.8663 0.0000 23.3372 0.0000
# 2 34.3665 121.0172 43.9940 0.0000 19.1691 0.0000
# 3 32.8663 43.9940 73.7571 0.0000 21.4654 0.0000
# 4 0.0000 0.0000 0.0000 56.4889 0.0000 -39.1169
# 5 23.3372 19.1691 21.4654 0.0000 29.4273 0.0000
# 6 0.0000 0.0000 0.0000 -39.1169 0.0000 77.2536
#
#
#
# Elastic Compliance Matrix: (Units=1/GPa)
#
#
# Indices 1 2 3 4 5 6 
#
# 1 0.014850 -0.001753 -0.003144 0.000000 -0.008341 0.000000
# 2 -0.001753 0.010956 -0.005182 0.000000 -0.001967 0.000000
# 3 -0.003144 -0.005182 0.020746 0.000000 -0.009264 0.000000
# 4 0.000000 0.000000 0.000000 0.027261 0.000000 0.013804
# 5 -0.008341 -0.001967 -0.009264 0.000000 0.048636 0.000000
# 6 0.000000 0.000000 0.000000 0.013804 0.000000 0.019934
#
#
# Mechanical properties :
#
#
# Convention : Reuss Voigt Hill
#
# Bulk Modulus (GPa) = 37.88596 56.52159 47.20378
# Shear Modulus (GPa) = 29.18218 44.30154 36.74186
#
# Velocity S-wave (km/s) = 3.86265 4.75922 4.33418
# Velocity P-wave (km/s) = 6.26606 7.68754 7.01291
#
# Compressibility (1/GPa) = 0.02639500
#
# Stress axis : x y z
#
# Youngs Moduli (GPa) = 67.34233 91.27120 48.20271
#
# Poissons Ratio (x) = 0.15998 0.15155
# Poissons Ratio (y) = 0.11804 0.24976
# Poissons Ratio (z) = 0.21172 0.47293
#
# Static dielectric constant tensor:
#      x y z
#    x 1.731640 0.000000 -0.001770 
#    y 0.000000 1.708610 0.000000 
#    z -0.001770 0.000000 1.671020 
# 
# From -- ./inp_files/104115.got.cif
#   From: 2010.05.17/outbox.cif.g08.bks.cpg/sg15_53_cif.got.tgz:104115.got - 2010.06.03 18:47:42.
