data_PCOD9281852
_publ_section_title
;
Structure prediction by ZEFSAII (Michael W. Deem and Ramdas Pophale) SiO2 
 PCOD9281852
Probable space group: C 2/C
;
_chemical_formula_sum "Si O2"
_cell_formula_units_Z 52
_cell_length_a 27.680475
_cell_length_b 13.351284
_cell_length_c 8.534985
_cell_angle_alpha 90.000000
_cell_angle_beta 139.457250
_cell_angle_gamma 90.000000
_cell_volume 2050.325748
_symmetry_space_group_name_H-M "C 2/C"
_symmetry_group_IT_number 15
_symmetry_cell_setting 'monoclinic'
loop_
_space_group_symop_operation_xyz
x,y,z
-x,y,1/2-z
-x,-y,-z
x,-y,1/2+z
1/2+x,1/2+y,z
1/2-x,1/2+y,1/2-z
1/2-x,1/2-y,-z
1/2+x,1/2-y,1/2+z
loop_
_atom_site_type_symbol
_atom_site_label
_atom_site_fract_x
_atom_site_fract_y
_atom_site_fract_z
Si Si1 0.611886 0.536227 0.911710
Si Si2 0.284323 0.066166 0.346952
Si Si3 0.579271 0.871513 0.150642
Si Si4 0.500000 0.705467 0.750000
Si Si5 0.000000 0.868374 0.750000
Si Si6 0.862639 0.174170 0.772809
Si Si7 0.788329 0.637221 0.992293
Si Si8 0.500000 0.035255 0.750000
O O1 0.562350 0.630133 0.840382
O O2 0.558149 0.440239 0.799431
O O3 0.624708 0.561270 0.759471
O O4 0.697153 0.553098 0.177361
O O5 0.333649 0.132003 0.587429
O O6 0.291388 0.102904 0.184147
O O7 0.313099 0.952495 0.444345
O O8 0.540847 0.900839 0.219340
O O9 0.541896 0.775535 0.978814
O O10 0.558365 0.963277 0.983604
O O11 0.943713 0.797177 0.522914
O O12 0.833330 0.260634 0.586577
O O13 0.798270 0.165749 0.743271
#
# Coordination Sequence:
#
# PCOD9281852 Si02
#       8
#     8   8   8   4   4   8   8   4
#     4  10  23  41  65  96 136 175 226 281 334 396
#     4  11  22  42  68  99 135 177 221 275 345 402
#     4  10  21  38  65  92 132 176 215 277 338 398
#     4  10  24  42  59  92 133 176 226 278 332 396
#     4  11  20  43  72  96 132 186 219 283 339 401
#     4  10  22  41  67  97 134 173 231 276 333 401
#     4  10  23  42  66 101 135 175 221 283 332 401
#     4   9  20  39  61  96 129 172 225 267 337 411
#
# _framework density 25.361823999999999
#
# number of rings (size 3 to 8) (size 9 to 14) (size 15 to 20)
#    0.000    1.846    1.538    1.385    0.000    8.000 
#    0.000    4.615    0.000    0.000    0.000    0.000 
#    0.000    0.000    0.000    0.000    0.000    0.000 
#
# Total GULP energy -145266.830290 kJ/mol
# GULP energy per Si atom -5587.185780 kJ/mol
# Density = 2.530410 g / cm^3
# Si number density = 25.361824 Si / 1000 Ang^3
#
#
#
# Elastic Constant Matrix: (Units=GPa)
#
#
# Indices 1 2 3 4 5 6 
#
# 1 104.3882 31.1171 40.1953 0.0000 17.7354 0.0000
# 2 31.1171 83.7159 4.7870 0.0000 6.8723 0.0000
# 3 40.1953 4.7870 149.8814 0.0000 40.5024 0.0000
# 4 0.0000 0.0000 0.0000 25.0168 0.0000 -3.0648
# 5 17.7354 6.8723 40.5024 0.0000 42.9425 0.0000
# 6 0.0000 0.0000 0.0000 -3.0648 0.0000 44.8494
#
#
#
# Elastic Compliance Matrix: (Units=1/GPa)
#
#
# Indices 1 2 3 4 5 6 
#
# 1 0.012165 -0.004218 -0.002620 0.000000 -0.001878 0.000000
# 2 -0.004218 0.013570 0.001092 0.000000 -0.001460 0.000000
# 3 -0.002620 0.001092 0.009521 0.000000 -0.008073 0.000000
# 4 0.000000 0.000000 0.000000 0.040311 0.000000 0.002755
# 5 -0.001878 -0.001460 -0.008073 0.000000 0.031910 0.000000
# 6 0.000000 0.000000 0.000000 0.002755 0.000000 0.022485
#
#
# Mechanical properties :
#
#
# Convention : Reuss Voigt Hill
#
# Bulk Modulus (GPa) = 42.07869 54.46491 48.27180
# Shear Modulus (GPa) = 33.47269 40.02080 36.74675
#
# Velocity S-wave (km/s) = 3.63685 3.97671 3.81057
# Velocity P-wave (km/s) = 5.85346 6.52743 6.19961
#
# Compressibility (1/GPa) = 0.02376500
#
# Stress axis : x y z
#
# Youngs Moduli (GPa) = 82.20408 73.69054 105.02764
#
# Poissons Ratio (x) = 0.31080 0.27520
# Poissons Ratio (y) = 0.34671 -0.11471
# Poissons Ratio (z) = 0.21539 -0.08049
#
# Static dielectric constant tensor:
#      x y z
#    x 2.073880 0.000000 -0.057240 
#    y 0.000000 2.035560 0.000000 
#    z -0.057240 0.000000 2.166020 
# 
# From -- ./inp_files/70216.got.cif
#   From: 2010.05.17/outbox.cif.g08.bks.cpg/sg15_36_cif.got.tgz:70216.got - 2010.06.03 18:47:42.
