data_PCOD9281554
_publ_section_title
;
Structure prediction by ZEFSAII (Michael W. Deem and Ramdas Pophale) SiO2 
 PCOD9281554
Probable space group: C 2/C
;
_chemical_formula_sum "Si O2"
_cell_formula_units_Z 56
_cell_length_a 11.183272
_cell_length_b 26.338208
_cell_length_c 11.901065
_cell_angle_alpha 90.000000
_cell_angle_beta 138.013681
_cell_angle_gamma 90.000000
_cell_volume 2344.966458
_symmetry_space_group_name_H-M "C 2/C"
_symmetry_group_IT_number 15
_symmetry_cell_setting 'monoclinic'
loop_
_space_group_symop_operation_xyz
x,y,z
-x,y,1/2-z
-x,-y,-z
x,-y,1/2+z
1/2+x,1/2+y,z
1/2-x,1/2+y,1/2-z
1/2-x,1/2-y,-z
1/2+x,1/2-y,1/2+z
loop_
_atom_site_type_symbol
_atom_site_label
_atom_site_fract_x
_atom_site_fract_y
_atom_site_fract_z
Si Si1 0.309702 0.091602 0.680792
Si Si2 0.345947 0.303097 0.051072
Si Si3 0.915605 0.805464 0.838580
Si Si4 0.076871 0.918401 0.653582
Si Si5 0.831574 0.912431 0.045770
Si Si6 0.200951 0.514967 0.622171
Si Si7 0.201146 0.705509 0.843380
O O1 0.500000 0.084442 0.750000
O O2 0.274985 0.055929 0.762168
O O3 0.293704 0.150176 0.711009
O O4 0.137380 0.082383 0.481556
O O5 0.500000 0.304173 0.250000
O O6 0.242466 0.356634 0.993063
O O7 0.250000 0.250000 0.000000
O O8 0.421276 0.305445 0.977809
O O9 0.857688 0.862082 0.762885
O O10 0.792376 0.758022 0.720223
O O11 0.125283 0.796097 0.953572
O O12 0.115933 0.920705 0.546593
O O13 0.169315 0.967228 0.770953
O O14 0.717455 0.958470 0.013239
O O15 0.000000 0.912884 0.250000
O O16 0.000000 0.500000 0.500000
O O17 0.000000 0.705110 0.750000
#
# Coordination Sequence:
#
# PCOD9281554 Si02
#       7
#     8   8   8   8   8   8   8
#     4  10  23  42  68  96 129 172 221 273 334 394
#     4  10  21  38  62  95 126 165 211 260 325 390
#     4  10  21  38  66  92 130 172 209 265 327 388
#     4  10  23  46  66  93 135 177 217 275 337 391
#     4  10  22  42  69  94 127 173 220 269 335 396
#     4  12  27  41  67  97 130 175 226 279 330 397
#     4  10  21  39  64  95 130 170 211 264 322 394
#
# _framework density 23.880939999999999
#
# number of rings (size 3 to 8) (size 9 to 14) (size 15 to 20)
#    0.000    1.714    1.429    1.714    6.000    1.143 
#    5.143    0.714    0.000    0.000    0.000    0.000 
#    0.000    0.000    0.000    0.000    0.000    0.000 
#
# Total GULP energy -156514.799508 kJ/mol
# GULP energy per Si atom -5589.814268 kJ/mol
# Density = 2.382659 g / cm^3
# Si number density = 23.880940 Si / 1000 Ang^3
#
#
#
# Elastic Constant Matrix: (Units=GPa)
#
#
# Indices 1 2 3 4 5 6 
#
# 1 105.6487 76.4569 22.9341 0.0000 -3.2718 0.0000
# 2 76.4569 227.4782 73.2963 0.0000 5.2335 0.0000
# 3 22.9341 73.2963 45.3583 0.0000 9.5282 0.0000
# 4 0.0000 0.0000 0.0000 41.9876 0.0000 -1.2632
# 5 -3.2718 5.2335 9.5282 0.0000 43.1671 0.0000
# 6 0.0000 0.0000 0.0000 -1.2632 0.0000 40.1772
#
#
#
# Elastic Compliance Matrix: (Units=1/GPa)
#
#
# Indices 1 2 3 4 5 6 
#
# 1 0.012605 -0.004425 0.000487 0.000000 0.001384 0.000000
# 2 -0.004425 0.010941 -0.015827 0.000000 0.001832 0.000000
# 3 0.000487 -0.015827 0.049249 0.000000 -0.008915 0.000000
# 4 0.000000 0.000000 0.000000 0.023839 0.000000 0.000750
# 5 0.001384 0.001832 -0.008915 0.000000 0.025016 0.000000
# 6 0.000000 0.000000 0.000000 0.000750 0.000000 0.024913
#
#
# Mechanical properties :
#
#
# Convention : Reuss Voigt Hill
#
# Bulk Modulus (GPa) = 30.06269 80.42888 55.24578
# Shear Modulus (GPa) = 25.35713 38.78624 32.07168
#
# Velocity S-wave (km/s) = 3.26208 4.03445 3.66865
# Velocity P-wave (km/s) = 5.17727 7.44678 6.41322
#
# Compressibility (1/GPa) = 0.03326383
#
# Stress axis : x y z
#
# Youngs Moduli (GPa) = 79.33279 91.39909 20.30500
#
# Poissons Ratio (x) = 0.40448 -0.00989
# Poissons Ratio (y) = 0.35108 0.32137
# Poissons Ratio (z) = -0.03863 1.44659
#
# Static dielectric constant tensor:
#      x y z
#    x 2.002100 0.000000 0.057600 
#    y 0.000000 1.974210 0.000000 
#    z 0.057600 0.000000 2.016780 
# 
# From -- ./inp_files/148580.got.cif
#   From: 2010.05.17/outbox.cif.g08.bks.cpg/sg15_75_cif.got.tgz:148580.got - 2010.06.03 18:47:42.
