data_PCOD9281000
_publ_section_title
;
Structure prediction by ZEFSAII (Michael W. Deem and Ramdas Pophale) SiO2 
 PCOD9281000
Probable space group: C 2/C
;
_chemical_formula_sum "Si O2"
_cell_formula_units_Z 28
_cell_length_a 10.813043
_cell_length_b 8.906908
_cell_length_c 14.746625
_cell_angle_alpha 90.000000
_cell_angle_beta 112.818554
_cell_angle_gamma 90.000000
_cell_volume 1309.106092
_symmetry_space_group_name_H-M "C 2/C"
_symmetry_group_IT_number 15
_symmetry_cell_setting 'monoclinic'
loop_
_space_group_symop_operation_xyz
x,y,z
-x,y,1/2-z
-x,-y,-z
x,-y,1/2+z
1/2+x,1/2+y,z
1/2-x,1/2+y,1/2-z
1/2-x,1/2-y,-z
1/2+x,1/2-y,1/2+z
loop_
_atom_site_type_symbol
_atom_site_label
_atom_site_fract_x
_atom_site_fract_y
_atom_site_fract_z
Si Si1 0.000000 0.844766 0.750000
Si Si2 0.651536 0.577380 0.893476
Si Si3 0.377765 0.920908 0.604885
Si Si4 0.348963 0.926849 0.282803
O O1 0.881655 0.733695 0.747253
O O2 0.957040 0.949216 0.654117
O O3 0.593870 0.743213 0.894611
O O4 0.732131 0.581804 0.821553
O O5 0.759481 0.542099 0.001695
O O6 0.513501 0.015829 0.630208
O O7 0.329892 0.961170 0.692904
#
# Coordination Sequence:
#
# PCOD9281000 Si02
#       4
#     4   8   8   8
#     4  10  22  34  56  84 106 142 188 214 264 332
#     4  11  20  38  58  78 111 146 176 224 269 315
#     4   9  21  37  57  82 108 141 185 218 267 327
#     4  10  21  38  55  81 112 141 177 228 269 310
#
# _framework density 21.388641
#
# number of rings (size 3 to 8) (size 9 to 14) (size 15 to 20)
#    0.000    2.286    0.000    4.286    0.000    4.571 
#    0.000   18.571    0.000    0.000    0.000    0.000 
#    0.000    0.000    0.000    0.000    0.000    0.000 
#
# Total GULP energy -78242.194968 kJ/mol
# GULP energy per Si atom -5588.728212 kJ/mol
# Density = 2.133996 g / cm^3
# Si number density = 21.388641 Si / 1000 Ang^3
#
#
#
# Elastic Constant Matrix: (Units=GPa)
#
#
# Indices 1 2 3 4 5 6 
#
# 1 23.2508 -13.7397 -20.1052 0.0000 -2.3431 0.0000
# 2 -13.7397 89.4190 38.9645 0.0000 26.0720 0.0000
# 3 -20.1052 38.9645 94.3202 0.0000 16.3009 0.0000
# 4 0.0000 0.0000 0.0000 15.5251 0.0000 11.4045
# 5 -2.3431 26.0720 16.3009 0.0000 12.7375 0.0000
# 6 0.0000 0.0000 0.0000 11.4045 0.0000 17.6636
#
#
#
# Elastic Compliance Matrix: (Units=1/GPa)
#
#
# Indices 1 2 3 4 5 6 
#
# 1 0.058147 0.012470 0.012591 0.000000 -0.030940 0.000000
# 2 0.012470 0.030743 0.000561 0.000000 -0.061352 0.000000
# 3 0.012591 0.000561 0.016502 0.000000 -0.019951 0.000000
# 4 0.000000 0.000000 0.000000 0.122521 0.000000 -0.079106
# 5 -0.030940 -0.061352 -0.019951 0.000000 0.223928 0.000000
# 6 0.000000 0.000000 0.000000 -0.079106 0.000000 0.107688
#
#
# Mechanical properties :
#
#
# Convention : Reuss Voigt Hill
#
# Bulk Modulus (GPa) = 6.38427 24.13658 15.26043
# Shear Modulus (GPa) = 8.92060 22.64326 15.78193
#
# Velocity S-wave (km/s) = 2.04445 3.25723 2.71931
# Velocity P-wave (km/s) = 2.92650 5.04533 4.12430
#
# Compressibility (1/GPa) = 0.15663489
#
# Stress axis : x y z
#
# Youngs Moduli (GPa) = 17.19770 32.52735 60.59762
#
# Poissons Ratio (x) = -0.40560 -0.76296
# Poissons Ratio (y) = -0.21445 -0.03398
# Poissons Ratio (z) = -0.21653 -0.01824
#
# Static dielectric constant tensor:
#      x y z
#    x 1.777730 0.000000 0.008130 
#    y 0.000000 1.778250 0.000000 
#    z 0.008130 0.000000 1.753110 
# 
# From -- ./inp_files/121745.got.cif
#   From: 2010.05.17/outbox.cif.g08.bks.cpg/sg15_61_cif.got.tgz:121745.got - 2010.06.03 18:47:42.
