data_PCOD9281704
_publ_section_title
;
Structure prediction by ZEFSAII (Michael W. Deem and Ramdas Pophale) SiO2 
 PCOD9281704
Probable space group: C 2/C
;
_chemical_formula_sum "Si O2"
_cell_formula_units_Z 60
_cell_length_a 19.605407
_cell_length_b 11.952069
_cell_length_c 13.749428
_cell_angle_alpha 90.000000
_cell_angle_beta 64.014069
_cell_angle_gamma 90.000000
_cell_volume 2896.114770
_symmetry_space_group_name_H-M "C 2/C"
_symmetry_group_IT_number 15
_symmetry_cell_setting 'monoclinic'
loop_
_space_group_symop_operation_xyz
x,y,z
-x,y,1/2-z
-x,-y,-z
x,-y,1/2+z
1/2+x,1/2+y,z
1/2-x,1/2+y,1/2-z
1/2-x,1/2-y,-z
1/2+x,1/2-y,1/2+z
loop_
_atom_site_type_symbol
_atom_site_label
_atom_site_fract_x
_atom_site_fract_y
_atom_site_fract_z
Si Si1 0.687152 0.978473 0.043509
Si Si2 0.500000 0.666999 0.250000
Si Si3 0.632785 0.819165 0.245960
Si Si4 0.151125 0.098225 0.806122
Si Si5 0.716523 0.774911 0.911891
Si Si6 0.327522 0.583704 0.049315
Si Si7 0.698253 0.163897 0.902190
Si Si8 0.513201 0.533683 0.603053
O O1 0.773782 0.999676 0.023199
O O2 0.646328 0.920017 0.160618
O O3 0.666721 0.099535 0.015825
O O4 0.681492 0.895236 0.954829
O O5 0.562186 0.746586 0.258224
O O6 0.470933 0.580629 0.349098
O O7 0.705780 0.737128 0.194946
O O8 0.637745 0.856797 0.353572
O O9 0.161396 0.191606 0.886346
O O10 0.219922 0.117676 0.687472
O O11 0.065748 0.092502 0.816436
O O12 0.162609 0.979806 0.853953
O O13 0.750000 0.750000 0.000000
O O14 0.292164 0.705199 0.083639
O O15 0.408685 0.600690 0.947775
O O16 0.500000 0.500000 0.500000
#
# Coordination Sequence:
#
# PCOD9281704 Si02
#       8
#     8   4   8   8   8   8   8   8
#     4  11  22  38  65  92 126 171 218 268 326 386
#     4  12  24  42  72  94 132 174 214 280 336 396
#     4  10  22  39  62  94 124 168 222 266 324 398
#     4  10  21  38  63  99 127 168 217 277 321 391
#     4   9  17  34  61  86 121 161 212 262 314 382
#     4  11  21  42  61  95 136 167 216 274 331 392
#     4  11  24  39  67  93 133 174 220 272 324 393
#     4  10  24  38  64  99 133 159 214 275 339 376
#
# _framework density 20.717411999999999
#
# number of rings (size 3 to 8) (size 9 to 14) (size 15 to 20)
#    0.000    1.600    4.000    2.800   13.067    0.000 
#    0.000    0.667    2.933    0.000    0.000    0.000 
#    0.000    0.000    0.000    0.000    0.000    0.000 
#
# Total GULP energy -167160.579392 kJ/mol
# GULP energy per Si atom -5572.019313 kJ/mol
# Density = 2.067026 g / cm^3
# Si number density = 20.717412 Si / 1000 Ang^3
#
#
#
# Elastic Constant Matrix: (Units=GPa)
#
#
# Indices 1 2 3 4 5 6 
#
# 1 76.6837 14.8370 22.9536 0.0000 -14.3757 0.0000
# 2 14.8370 99.5496 29.5869 0.0000 -6.3959 0.0000
# 3 22.9536 29.5869 53.9542 0.0000 7.6164 0.0000
# 4 0.0000 0.0000 0.0000 40.4098 0.0000 6.3481
# 5 -14.3757 -6.3959 7.6164 0.0000 24.4071 0.0000
# 6 0.0000 0.0000 0.0000 6.3481 0.0000 26.5161
#
#
#
# Elastic Compliance Matrix: (Units=1/GPa)
#
#
# Indices 1 2 3 4 5 6 
#
# 1 0.018797 0.001372 -0.010840 0.000000 0.014814 0.000000
# 2 0.001372 0.012833 -0.008588 0.000000 0.006851 0.000000
# 3 -0.010840 -0.008588 0.030414 0.000000 -0.018127 0.000000
# 4 0.000000 0.000000 0.000000 0.025714 0.000000 -0.006156
# 5 0.014814 0.006851 -0.018127 0.000000 0.057149 0.000000
# 6 0.000000 0.000000 0.000000 -0.006156 0.000000 0.039187
#
#
# Mechanical properties :
#
#
# Convention : Reuss Voigt Hill
#
# Bulk Modulus (GPa) = 38.56291 40.54917 39.55604
# Shear Modulus (GPa) = 21.84825 29.12059 25.48442
#
# Velocity S-wave (km/s) = 3.25096 3.75321 3.51108
# Velocity P-wave (km/s) = 5.72240 6.19654 5.96418
#
# Compressibility (1/GPa) = 0.02593165
#
# Stress axis : x y z
#
# Youngs Moduli (GPa) = 53.19987 77.92143 32.87909
#
# Poissons Ratio (x) = -0.10691 0.35642
# Poissons Ratio (y) = -0.07299 0.28238
# Poissons Ratio (z) = 0.57671 0.66922
#
# Static dielectric constant tensor:
#      x y z
#    x 1.796060 0.000000 0.053950 
#    y 0.000000 1.812400 0.000000 
#    z 0.053950 0.000000 1.811690 
# 
# From -- ./inp_files/167602.got.cif
#   From: 2010.05.17/outbox.cif.g08.bks.cpg/sg15_84_cif.got.tgz:167602.got - 2010.06.03 18:47:42.
