data_PCOD9281980
_publ_section_title
;
Structure prediction by ZEFSAII (Michael W. Deem and Ramdas Pophale) SiO2 
 PCOD9281980
Probable space group: C 2/C
;
_chemical_formula_sum "Si O2"
_cell_formula_units_Z 44
_cell_length_a 7.477053
_cell_length_b 12.315720
_cell_length_c 27.430053
_cell_angle_alpha 90.000000
_cell_angle_beta 123.458522
_cell_angle_gamma 90.000000
_cell_volume 2107.324586
_symmetry_space_group_name_H-M "C 2/C"
_symmetry_group_IT_number 15
_symmetry_cell_setting 'monoclinic'
loop_
_space_group_symop_operation_xyz
x,y,z
-x,y,1/2-z
-x,-y,-z
x,-y,1/2+z
1/2+x,1/2+y,z
1/2-x,1/2+y,1/2-z
1/2-x,1/2-y,-z
1/2+x,1/2-y,1/2+z
loop_
_atom_site_type_symbol
_atom_site_label
_atom_site_fract_x
_atom_site_fract_y
_atom_site_fract_z
Si Si1 0.148034 0.886886 0.149800
Si Si2 0.537826 0.616127 0.981683
Si Si3 0.500000 0.967605 0.750000
Si Si4 0.789725 0.488680 0.897669
Si Si5 0.245215 0.651161 0.203280
Si Si6 0.008042 0.348646 0.006120
O O1 0.118463 0.870922 0.087863
O O2 0.160630 0.770168 0.176973
O O3 0.941052 0.954743 0.135819
O O4 0.354048 0.955731 0.194761
O O5 0.499477 0.719682 0.010597
O O6 0.500000 0.500000 0.000000
O O7 0.777607 0.627710 0.994807
O O8 0.357665 0.893571 0.763227
O O9 0.816710 0.428938 0.850594
O O10 0.819114 0.399862 0.945296
O O11 0.955360 0.583446 0.939058
O O12 0.500000 0.654844 0.250000
#
# Coordination Sequence:
#
# PCOD9281980 Si02
#       6
#     8   8   4   8   8   8
#     4  11  24  44  66 101 139 176 237 287 345 411
#     4  10  21  38  67 101 137 178 227 287 340 417
#     4  12  28  42  70 100 128 188 240 276 352 412
#     4  10  21  43  70  95 140 184 217 286 350 401
#     4  12  25  47  71  97 142 182 230 298 341 404
#     4   9  20  40  64  99 138 179 224 274 353 413
#
# _framework density 20.879555
#
# number of rings (size 3 to 8) (size 9 to 14) (size 15 to 20)
#    0.000    1.455    4.545    0.000    2.545    1.455 
#    0.000   13.636    0.000    0.000    0.000    0.000 
#    0.000    0.000    0.000    0.000    0.000    0.000 
#
# Total GULP energy -123021.883140 kJ/mol
# GULP energy per Si atom -5591.903779 kJ/mol
# Density = 2.083203 g / cm^3
# Si number density = 20.879555 Si / 1000 Ang^3
#
#
#
# Elastic Constant Matrix: (Units=GPa)
#
#
# Indices 1 2 3 4 5 6 
#
# 1 62.9965 38.3569 24.2571 0.0000 12.7171 0.0000
# 2 38.3569 173.2352 35.6585 0.0000 11.3597 0.0000
# 3 24.2571 35.6585 86.9016 0.0000 23.0010 0.0000
# 4 0.0000 0.0000 0.0000 39.3656 0.0000 10.6922
# 5 12.7171 11.3597 23.0010 0.0000 12.7355 0.0000
# 6 0.0000 0.0000 0.0000 10.6922 0.0000 57.9834
#
#
#
# Elastic Compliance Matrix: (Units=1/GPa)
#
#
# Indices 1 2 3 4 5 6 
#
# 1 0.021839 -0.003673 0.000605 0.000000 -0.019624 0.000000
# 2 -0.003673 0.006945 -0.002214 0.000000 0.001472 0.000000
# 3 0.000605 -0.002214 0.022768 0.000000 -0.039749 0.000000
# 4 0.000000 0.000000 0.000000 0.026742 0.000000 -0.004931
# 5 -0.019624 0.001472 -0.039749 0.000000 0.168594 0.000000
# 6 0.000000 0.000000 0.000000 -0.004931 0.000000 0.018156
#
#
# Mechanical properties :
#
#
# Convention : Reuss Voigt Hill
#
# Bulk Modulus (GPa) = 24.39744 57.74204 41.06974
# Shear Modulus (GPa) = 17.28494 37.00761 27.14628
#
# Velocity S-wave (km/s) = 2.88034 4.21459 3.60965
# Velocity P-wave (km/s) = 4.77201 7.16928 6.08977
#
# Compressibility (1/GPa) = 0.04098791
#
# Stress axis : x y z
#
# Youngs Moduli (GPa) = 45.78985 143.98792 43.92223
#
# Poissons Ratio (x) = 0.52890 -0.02659
# Poissons Ratio (y) = 0.16820 0.09724
# Poissons Ratio (z) = -0.02772 0.31879
#
# Static dielectric constant tensor:
#      x y z
#    x 1.776550 0.000000 0.013620 
#    y 0.000000 1.757630 0.000000 
#    z 0.013620 0.000000 1.735680 
# 
# From -- ./inp_files/263315.got.cif
#   From: 2010.05.17/outbox.cif.g08.bks.cpg/sg15_132_cif.got.tgz:263315.got - 2010.06.03 18:47:42.
