data_PCOD9281154
_publ_section_title
;
Structure prediction by ZEFSAII (Michael W. Deem and Ramdas Pophale) SiO2 
 PCOD9281154
Probable space group: C 2/C
;
_chemical_formula_sum "Si O2"
_cell_formula_units_Z 40
_cell_length_a 12.945670
_cell_length_b 31.752438
_cell_length_c 5.080869
_cell_angle_alpha 90.000000
_cell_angle_beta 79.665770
_cell_angle_gamma 90.000000
_cell_volume 2054.644694
_symmetry_space_group_name_H-M "C 2/C"
_symmetry_group_IT_number 15
_symmetry_cell_setting 'monoclinic'
loop_
_space_group_symop_operation_xyz
x,y,z
-x,y,1/2-z
-x,-y,-z
x,-y,1/2+z
1/2+x,1/2+y,z
1/2-x,1/2+y,1/2-z
1/2-x,1/2-y,-z
1/2+x,1/2-y,1/2+z
loop_
_atom_site_type_symbol
_atom_site_label
_atom_site_fract_x
_atom_site_fract_y
_atom_site_fract_z
Si Si1 0.426136 0.346221 0.028701
Si Si2 0.626385 0.974324 0.200477
Si Si3 0.926107 0.751288 0.031378
Si Si4 0.620449 0.163777 0.295021
Si Si5 0.206536 0.382390 0.251005
O O1 0.500000 0.347443 0.250000
O O2 0.383811 0.298200 0.003485
O O3 0.326276 0.375554 0.110464
O O4 0.500000 0.356727 0.750000
O O5 0.500000 0.969099 0.250000
O O6 0.676401 0.931134 0.276822
O O7 0.654933 0.010975 0.394403
O O8 0.852726 0.712181 0.141521
O O9 0.000000 0.756222 0.250000
O O10 0.000000 0.739328 0.750000
O O11 0.500000 0.163252 0.250000
O O12 0.634971 0.137462 0.553457
O O13 0.686992 0.142919 0.030657
#
# Coordination Sequence:
#
# PCOD9281154 Si02
#       5
#     8   8   8   8   8
#     4  10  22  40  58  79 113 155 200 241 273 317
#     4  10  21  38  59  84 116 145 172 219 286 357
#     4   9  18  34  53  76 114 157 188 228 282 326
#     4  11  21  34  54  86 122 146 182 236 283 339
#     4  12  23  36  61  87 110 151 195 232 282 338
#
# _framework density 19.468087000000001
#
# number of rings (size 3 to 8) (size 9 to 14) (size 15 to 20)
#    0.000    1.600    0.000    6.600    0.000    3.200 
#    0.000    0.000    0.000    3.600    0.000    0.000 
#    0.000    0.000    0.000    0.000    0.000    0.000 
#
# Total GULP energy -111692.875778 kJ/mol
# GULP energy per Si atom -5584.643789 kJ/mol
# Density = 1.942378 g / cm^3
# Si number density = 19.468087 Si / 1000 Ang^3
#
#
#
# Elastic Constant Matrix: (Units=GPa)
#
#
# Indices 1 2 3 4 5 6 
#
# 1 56.9000 14.7989 15.2234 0.0000 -1.4453 0.0000
# 2 14.7989 65.6807 23.8149 0.0000 -12.4036 0.0000
# 3 15.2234 23.8149 123.7408 0.0000 6.5866 0.0000
# 4 0.0000 0.0000 0.0000 23.3761 0.0000 4.2670
# 5 -1.4453 -12.4036 6.5866 0.0000 21.5604 0.0000
# 6 0.0000 0.0000 0.0000 4.2670 0.0000 38.3234
#
#
#
# Elastic Compliance Matrix: (Units=1/GPa)
#
#
# Indices 1 2 3 4 5 6 
#
# 1 0.018971 -0.003779 -0.001584 0.000000 -0.000418 0.000000
# 2 -0.003779 0.019879 -0.004022 0.000000 0.012411 0.000000
# 3 -0.001584 -0.004022 0.009331 0.000000 -0.005270 0.000000
# 4 0.000000 0.000000 0.000000 0.043666 0.000000 -0.004862
# 5 -0.000418 0.012411 -0.005270 0.000000 0.055103 0.000000
# 6 0.000000 0.000000 0.000000 -0.004862 0.000000 0.026635
#
#
# Mechanical properties :
#
#
# Convention : Reuss Voigt Hill
#
# Bulk Modulus (GPa) = 34.00136 39.33289 36.66712
# Shear Modulus (GPa) = 24.73311 29.48427 27.10869
#
# Velocity S-wave (km/s) = 3.56820 3.89587 3.73563
# Velocity P-wave (km/s) = 5.87189 6.36276 6.12225
#
# Compressibility (1/GPa) = 0.02941059
#
# Stress axis : x y z
#
# Youngs Moduli (GPa) = 52.71255 50.30538 107.17159
#
# Poissons Ratio (x) = 0.19010 0.16980
# Poissons Ratio (y) = 0.19920 0.43099
# Poissons Ratio (z) = 0.08352 0.20230
#
# Static dielectric constant tensor:
#      x y z
#    x 1.666880 0.000000 -0.002170 
#    y 0.000000 1.708760 0.000000 
#    z -0.002170 0.000000 1.662870 
# 
# From -- ./inp_files/5699.got.cif
#   From: 2010.05.17/outbox.cif.g08.bks.cpg/sg15_3_cif.got.tgz:5699.got - 2010.06.03 18:47:42.
