data_PCOD9281580
_publ_section_title
;
Structure prediction by ZEFSAII (Michael W. Deem and Ramdas Pophale) SiO2 
 PCOD9281580
Probable space group: C 2/C
;
_chemical_formula_sum "Si O2"
_cell_formula_units_Z 36
_cell_length_a 5.701029
_cell_length_b 23.791000
_cell_length_c 10.649398
_cell_angle_alpha 90.000000
_cell_angle_beta 108.961016
_cell_angle_gamma 90.000000
_cell_volume 1366.037762
_symmetry_space_group_name_H-M "C 2/C"
_symmetry_group_IT_number 15
_symmetry_cell_setting 'monoclinic'
loop_
_space_group_symop_operation_xyz
x,y,z
-x,y,1/2-z
-x,-y,-z
x,-y,1/2+z
1/2+x,1/2+y,z
1/2-x,1/2+y,1/2-z
1/2-x,1/2-y,-z
1/2+x,1/2-y,1/2+z
loop_
_atom_site_type_symbol
_atom_site_label
_atom_site_fract_x
_atom_site_fract_y
_atom_site_fract_z
Si Si1 0.500000 0.102034 0.250000
Si Si2 0.530367 0.549870 0.103541
Si Si3 0.852525 0.650421 0.465870
Si Si4 0.733104 0.116796 0.731088
Si Si5 0.210023 0.756896 0.177710
O O1 0.342481 0.139143 0.314480
O O2 0.683604 0.065657 0.362228
O O3 0.500000 0.538301 0.250000
O O4 0.355970 0.603127 0.035504
O O5 0.500000 0.500000 0.000000
O O6 0.871407 0.717915 0.452801
O O7 0.109772 0.635777 0.579082
O O8 0.500000 0.083527 0.750000
O O9 0.773060 0.173825 0.824282
O O10 0.000000 0.091460 0.750000
O O11 0.500000 0.741320 0.250000
O O12 0.000000 0.750236 0.250000
#
# Coordination Sequence:
#
# PCOD9281580 Si02
#       5
#     4   8   8   8   8
#     4  10  22  44  70  98 136 182 244 284 394 438
#     4  10  24  47  73 108 141 189 246 319 385 455
#     4  11  23  42  69  97 147 189 244 302 368 449
#     4  10  25  42  62 106 146 195 250 298 361 426
#     4  10  21  38  63 100 138 194 242 292 354 430
#
# _framework density 26.353591000000002
#
# number of rings (size 3 to 8) (size 9 to 14) (size 15 to 20)
#    0.000    1.778    1.111    2.000    3.111   10.667 
#    6.000    0.000    0.000    0.000    0.000    0.000 
#    0.000    0.000    0.000    0.000    0.000    0.000 
#
# Total GULP energy -100243.125742 kJ/mol
# GULP energy per Si atom -5569.062541 kJ/mol
# Density = 2.629361 g / cm^3
# Si number density = 26.353591 Si / 1000 Ang^3
#
#
#
# Elastic Constant Matrix: (Units=GPa)
#
#
# Indices 1 2 3 4 5 6 
#
# 1 192.0736 48.0434 25.9789 0.0000 14.1982 0.0000
# 2 48.0434 112.8337 62.1795 0.0000 -13.2525 0.0000
# 3 25.9789 62.1795 107.4454 0.0000 16.5286 0.0000
# 4 0.0000 0.0000 0.0000 55.8534 0.0000 -5.6047
# 5 14.1982 -13.2525 16.5286 0.0000 42.0895 0.0000
# 6 0.0000 0.0000 0.0000 -5.6047 0.0000 -30.2420
#
#
#
# Elastic Compliance Matrix: (Units=1/GPa)
#
#
# Indices 1 2 3 4 5 6 
#
# 1 0.006273 -0.003831 0.001290 0.000000 -0.003829 0.000000
# 2 -0.003831 0.018042 -0.011268 0.000000 0.011399 0.000000
# 3 0.001290 -0.011268 0.017166 0.000000 -0.010724 0.000000
# 4 0.000000 0.000000 0.000000 0.017577 0.000000 -0.003258
# 5 -0.003829 0.011399 -0.010724 0.000000 0.032851 0.000000
# 6 0.000000 0.000000 0.000000 -0.003258 0.000000 -0.032463
#
#
# Mechanical properties :
#
#
# Convention : Reuss Voigt Hill
#
# Bulk Modulus (GPa) = 72.14368 76.08402 74.11385
# Shear Modulus (GPa) = 54.53262 31.95022 43.24142
#
# Velocity S-wave (km/s) = 4.55385 3.48568 4.05509
# Velocity P-wave (km/s) = 7.42192 6.71812 7.07877
#
# Compressibility (1/GPa) = 0.01386123
#
# Stress axis : x y z
#
# Youngs Moduli (GPa) = 159.40499 55.42478 58.25437
#
# Poissons Ratio (x) = 0.21236 -0.07512
# Poissons Ratio (y) = 0.61075 0.65643
# Poissons Ratio (z) = -0.20555 0.62455
#
# Static dielectric constant tensor:
#      x y z
#    x 2.328080 0.000000 -0.361960 
#    y 0.000000 2.303550 0.000000 
#    z -0.361960 0.000000 2.363650 
# 
# From -- ./inp_files/73433.got.cif
#   From: 2010.05.17/outbox.cif.g08.bks.cpg/sg15_37_cif.got.tgz:73433.got - 2010.06.03 18:47:42.
