data_PCOD9281213
_publ_section_title
;
Structure prediction by ZEFSAII (Michael W. Deem and Ramdas Pophale) SiO2 
 PCOD9281213
Probable space group: C 2/C
;
_chemical_formula_sum "Si O2"
_cell_formula_units_Z 56
_cell_length_a 10.238675
_cell_length_b 28.245575
_cell_length_c 8.556672
_cell_angle_alpha 90.000000
_cell_angle_beta 78.757438
_cell_angle_gamma 90.000000
_cell_volume 2427.080676
_symmetry_space_group_name_H-M "C 2/C"
_symmetry_group_IT_number 15
_symmetry_cell_setting 'monoclinic'
loop_
_space_group_symop_operation_xyz
x,y,z
-x,y,1/2-z
-x,-y,-z
x,-y,1/2+z
1/2+x,1/2+y,z
1/2-x,1/2+y,1/2-z
1/2-x,1/2-y,-z
1/2+x,1/2-y,1/2+z
loop_
_atom_site_type_symbol
_atom_site_label
_atom_site_fract_x
_atom_site_fract_y
_atom_site_fract_z
Si Si1 0.220640 0.303834 0.962950
Si Si2 0.588997 0.804096 0.501815
Si Si3 0.345782 0.706005 0.131892
Si Si4 0.652682 0.870029 0.244480
Si Si5 0.141157 0.042504 0.312474
Si Si6 0.785499 0.054261 0.533525
Si Si7 0.030992 0.118488 0.556105
O O1 0.328434 0.316488 0.806233
O O2 0.068193 0.311674 0.937151
O O3 0.250000 0.250000 0.000000
O O4 0.232979 0.334248 0.116029
O O5 0.596154 0.758893 0.383585
O O6 0.691500 0.788667 0.612198
O O7 0.662329 0.851069 0.417148
O O8 0.431454 0.671595 0.001996
O O9 0.500000 0.859137 0.250000
O O10 0.679747 0.922281 0.176339
O O11 0.138424 0.084349 0.441878
O O12 0.000000 0.037106 0.250000
O O13 0.167232 0.994706 0.402331
O O14 0.244449 0.049232 0.143906
O O15 0.902264 0.092960 0.514791
O O16 0.000000 0.115246 0.750000
#
# Coordination Sequence:
#
# PCOD9281213 Si02
#       7
#     8   8   8   8   8   8   8
#     4  11  22  39  61  82 120 164 206 255 302 354
#     4  10  23  39  57  85 125 161 203 256 310 354
#     4  11  23  38  60  90 121 159 208 251 306 372
#     4  10  22  41  59  87 118 164 206 255 306 360
#     4  10  21  38  59  93 125 155 193 255 325 370
#     4  11  21  38  63  87 124 157 203 254 312 380
#     4  11  22  36  60  92 123 156 201 252 311 370
#
# _framework density 23.072986
#
# number of rings (size 3 to 8) (size 9 to 14) (size 15 to 20)
#    0.000    1.429    1.429    5.143    2.000    2.286 
#    0.000    0.714    0.000    1.714    0.000    0.000 
#    0.000    0.000    0.000    0.000    0.000    0.000 
#
# Total GULP energy -156110.930775 kJ/mol
# GULP energy per Si atom -5575.390385 kJ/mol
# Density = 2.302047 g / cm^3
# Si number density = 23.072986 Si / 1000 Ang^3
#
#
#
# Elastic Constant Matrix: (Units=GPa)
#
#
# Indices 1 2 3 4 5 6 
#
# 1 32.5150 11.1545 19.4786 0.0000 2.4213 0.0000
# 2 11.1545 121.6215 54.6041 0.0000 -7.3874 0.0000
# 3 19.4786 54.6041 139.9543 0.0000 -21.5316 0.0000
# 4 0.0000 0.0000 0.0000 38.1681 0.0000 -1.6724
# 5 2.4213 -7.3874 -21.5316 0.0000 22.0556 0.0000
# 6 0.0000 0.0000 0.0000 -1.6724 0.0000 19.6347
#
#
#
# Elastic Compliance Matrix: (Units=1/GPa)
#
#
# Indices 1 2 3 4 5 6 
#
# 1 0.035547 -0.001156 -0.006067 0.000000 -0.010213 0.000000
# 2 -0.001156 0.010011 -0.003777 0.000000 -0.000207 0.000000
# 3 -0.006067 -0.003777 0.011027 0.000000 0.010166 0.000000
# 4 0.000000 0.000000 0.000000 0.026298 0.000000 0.002240
# 5 -0.010213 -0.000207 0.010166 0.000000 0.056317 0.000000
# 6 0.000000 0.000000 0.000000 0.002240 0.000000 0.051121
#
#
# Mechanical properties :
#
#
# Convention : Reuss Voigt Hill
#
# Bulk Modulus (GPa) = 28.91497 51.61835 40.26666
# Shear Modulus (GPa) = 22.33626 29.89525 26.11576
#
# Velocity S-wave (km/s) = 3.11476 3.60346 3.36799
# Velocity P-wave (km/s) = 5.04924 6.30346 5.71088
#
# Compressibility (1/GPa) = 0.03458416
#
# Stress axis : x y z
#
# Youngs Moduli (GPa) = 28.13172 99.88577 90.68401
#
# Poissons Ratio (x) = 0.11552 0.55022
# Poissons Ratio (y) = 0.03253 0.34251
# Poissons Ratio (z) = 0.17069 0.37726
#
# Static dielectric constant tensor:
#      x y z
#    x 1.930670 0.000000 -0.007390 
#    y 0.000000 1.855780 0.000000 
#    z -0.007390 0.000000 2.058680 
# 
# From -- ./inp_files/34175.got.cif
#   From: 2010.05.17/outbox.cif.g08.bks.cpg/sg15_18_cif.got.tgz:34175.got - 2010.06.03 18:47:42.
