data_PCOD9281162
_publ_section_title
;
Structure prediction by ZEFSAII (Michael W. Deem and Ramdas Pophale) SiO2 
 PCOD9281162
Probable space group: C 2/C
;
_chemical_formula_sum "Si O2"
_cell_formula_units_Z 56
_cell_length_a 4.998058
_cell_length_b 20.004339
_cell_length_c 24.483042
_cell_angle_alpha 90.000000
_cell_angle_beta 77.918524
_cell_angle_gamma 90.000000
_cell_volume 2393.665937
_symmetry_space_group_name_H-M "C 2/C"
_symmetry_group_IT_number 15
_symmetry_cell_setting 'monoclinic'
loop_
_space_group_symop_operation_xyz
x,y,z
-x,y,1/2-z
-x,-y,-z
x,-y,1/2+z
1/2+x,1/2+y,z
1/2-x,1/2+y,1/2-z
1/2-x,1/2-y,-z
1/2+x,1/2-y,1/2+z
loop_
_atom_site_type_symbol
_atom_site_label
_atom_site_fract_x
_atom_site_fract_y
_atom_site_fract_z
Si Si1 0.638059 0.092187 0.154850
Si Si2 0.394582 0.359683 0.307992
Si Si3 0.382877 0.734842 0.425120
Si Si4 0.528714 0.641587 0.923526
Si Si5 0.162382 0.345222 0.539383
Si Si6 0.597109 0.673942 0.188423
Si Si7 0.346929 0.059010 0.834946
O O1 0.693225 0.102525 0.087868
O O2 0.401834 0.145250 0.178762
O O3 0.904106 0.112636 0.177716
O O4 0.558652 0.016656 0.171209
O O5 0.500000 0.320316 0.250000
O O6 0.429201 0.330747 0.368083
O O7 0.611796 0.421451 0.302163
O O8 0.092076 0.388829 0.317302
O O9 0.241648 0.805560 0.438793
O O10 0.649637 0.717312 0.448323
O O11 0.439606 0.726459 0.358509
O O12 0.149302 0.679459 0.448000
O O13 0.694920 0.575552 0.898848
O O14 0.288568 0.630831 0.977024
O O15 0.500000 0.700862 0.250000
#
# Coordination Sequence:
#
# PCOD9281162 Si02
#       7
#     8   8   8   8   8   8   8
#     4  10  21  39  58  90 116 151 196 247 288 354
#     4  10  23  40  55  85 120 153 199 234 290 353
#     4  10  22  39  60  88 117 150 201 240 293 350
#     4  10  24  38  63  85 121 157 194 240 299 349
#     4  10  22  38  63  86 119 153 197 242 295 348
#     4  10  21  38  59  85 114 153 195 245 294 344
#     4  10  23  37  60  86 116 154 196 235 302 341
#
# _framework density 23.395078000000002
#
# number of rings (size 3 to 8) (size 9 to 14) (size 15 to 20)
#    0.857    1.143    0.000    2.571    4.000    4.000 
#    2.571    0.714    0.000    0.000    0.000    0.000 
#    0.000    0.000    0.000    0.000    0.000    0.000 
#
# Total GULP energy -156525.418491 kJ/mol
# GULP energy per Si atom -5590.193518 kJ/mol
# Density = 2.334183 g / cm^3
# Si number density = 23.395078 Si / 1000 Ang^3
#
#
#
# Elastic Constant Matrix: (Units=GPa)
#
#
# Indices 1 2 3 4 5 6 
#
# 1 94.0625 2.3105 24.5371 0.0000 -7.5723 0.0000
# 2 2.3105 33.8528 -8.6952 0.0000 1.1993 0.0000
# 3 24.5371 -8.6952 195.2222 0.0000 1.9996 0.0000
# 4 0.0000 0.0000 0.0000 5.9457 0.0000 -5.4406
# 5 -7.5723 1.1993 1.9996 0.0000 26.8101 0.0000
# 6 0.0000 0.0000 0.0000 -5.4406 0.0000 20.9139
#
#
#
# Elastic Compliance Matrix: (Units=1/GPa)
#
#
# Indices 1 2 3 4 5 6 
#
# 1 0.011329 -0.001282 -0.001516 0.000000 0.003370 0.000000
# 2 -0.001282 0.030082 0.001520 0.000000 -0.001821 0.000000
# 3 -0.001516 0.001520 0.005390 0.000000 -0.000898 0.000000
# 4 0.000000 0.000000 0.000000 0.220733 0.000000 0.057422
# 5 0.003370 -0.001821 -0.000898 0.000000 0.038400 0.000000
# 6 0.000000 0.000000 0.000000 0.057422 0.000000 0.062753
#
#
# Mechanical properties :
#
#
# Convention : Reuss Voigt Hill
#
# Bulk Modulus (GPa) = 22.60127 39.93804 31.26966
# Shear Modulus (GPa) = 12.95367 31.06628 22.00998
#
# Velocity S-wave (km/s) = 2.35562 3.64799 3.07057
# Velocity P-wave (km/s) = 4.13283 5.90355 5.09569
#
# Compressibility (1/GPa) = 0.04424530
#
# Stress axis : x y z
#
# Youngs Moduli (GPa) = 88.26598 33.24252 185.53769
#
# Poissons Ratio (x) = 0.04261 0.28120
# Poissons Ratio (y) = 0.11315 -0.28195
# Poissons Ratio (z) = 0.13377 -0.05052
#
# Static dielectric constant tensor:
#      x y z
#    x 1.860930 0.000000 0.007170 
#    y 0.000000 1.822260 0.000000 
#    z 0.007170 0.000000 1.968850 
# 
# From -- ./inp_files/286316.got.cif
#   From: 2010.05.17/outbox.cif.g08.bks.cpg/sg15_144_cif.got.tgz:286316.got - 2010.06.03 18:47:42.
