data_PCOD9281514
_publ_section_title
;
Structure prediction by ZEFSAII (Michael W. Deem and Ramdas Pophale) SiO2 
 PCOD9281514
Probable space group: C 2/C
;
_chemical_formula_sum "Si O2"
_cell_formula_units_Z 44
_cell_length_a 28.619529
_cell_length_b 10.416851
_cell_length_c 20.964824
_cell_angle_alpha 90.000000
_cell_angle_beta 161.328386
_cell_angle_gamma 90.000000
_cell_volume 2000.944681
_symmetry_space_group_name_H-M "C 2/C"
_symmetry_group_IT_number 15
_symmetry_cell_setting 'monoclinic'
loop_
_space_group_symop_operation_xyz
x,y,z
-x,y,1/2-z
-x,-y,-z
x,-y,1/2+z
1/2+x,1/2+y,z
1/2-x,1/2+y,1/2-z
1/2-x,1/2-y,-z
1/2+x,1/2-y,1/2+z
loop_
_atom_site_type_symbol
_atom_site_label
_atom_site_fract_x
_atom_site_fract_y
_atom_site_fract_z
Si Si1 0.177592 0.752849 0.567107
Si Si2 0.978644 0.298613 0.506328
Si Si3 0.000000 0.050246 0.750000
Si Si4 0.629112 0.039157 0.966478
Si Si5 0.460515 0.923381 0.358653
Si Si6 0.210269 0.898266 0.940387
O O1 0.353704 0.754682 0.788667
O O2 0.110623 0.856518 0.431409
O O3 0.126603 0.611368 0.479189
O O4 0.111021 0.771766 0.552964
O O5 0.989250 0.444995 0.544680
O O6 0.915141 0.319902 0.352858
O O7 0.935797 0.954577 0.719990
O O8 0.500000 0.072093 0.750000
O O9 0.593465 0.117687 0.984206
O O10 0.771586 0.065754 0.109650
O O11 0.331299 0.961181 0.143567
O O12 0.250000 0.750000 0.000000
#
# Coordination Sequence:
#
# PCOD9281514 Si02
#       6
#     8   8   4   8   8   8
#     4  11  21  38  65  95 125 158 208 266 316 363
#     4  10  21  38  62  91 124 164 202 254 317 371
#     4  12  24  38  64  96 126 152 212 270 306 366
#     4   9  19  36  62  88 116 160 204 249 312 359
#     4   9  20  40  60  81 122 167 205 244 304 376
#     4  11  24  39  59  90 126 165 205 253 310 372
#
# _framework density 21.989612000000001
#
# number of rings (size 3 to 8) (size 9 to 14) (size 15 to 20)
#    0.000    1.818    2.727    1.091    3.818    2.909 
#    0.000    0.000    0.000    6.545    0.000    0.000 
#    0.000    0.000    0.000    0.000    0.000    0.000 
#
# Total GULP energy -122542.073211 kJ/mol
# GULP energy per Si atom -5570.094237 kJ/mol
# Density = 2.193956 g / cm^3
# Si number density = 21.989612 Si / 1000 Ang^3
#
#
#
# Elastic Constant Matrix: (Units=GPa)
#
#
# Indices 1 2 3 4 5 6 
#
# 1 148.2034 43.2495 13.4335 0.0000 31.5272 0.0000
# 2 43.2495 65.5927 -6.0606 0.0000 9.3685 0.0000
# 3 13.4335 -6.0606 27.7755 -0.0001 11.0586 0.0000
# 4 0.0000 0.0000 -0.0001 13.9208 0.0000 -5.1597
# 5 31.5272 9.3685 11.0586 0.0000 35.8461 0.0000
# 6 0.0000 0.0000 0.0000 -5.1597 0.0000 22.2474
#
#
#
# Elastic Compliance Matrix: (Units=1/GPa)
#
#
# Indices 1 2 3 4 5 6 
#
# 1 0.010224 -0.006213 -0.003838 0.000000 -0.006184 0.000000
# 2 -0.006213 0.020482 0.008470 0.000000 -0.002502 0.000000
# 3 -0.003838 0.008470 0.044740 0.000000 -0.012640 0.000000
# 4 0.000000 0.000000 0.000000 0.078591 0.000000 0.018227
# 5 -0.006184 -0.002502 -0.012640 0.000000 0.037890 0.000000
# 6 0.000000 0.000000 0.000000 0.018227 0.000000 0.049176
#
#
# Mechanical properties :
#
#
# Convention : Reuss Voigt Hill
#
# Bulk Modulus (GPa) = 13.83421 38.09070 25.96246
# Shear Modulus (GPa) = 18.63173 27.13280 22.88226
#
# Velocity S-wave (km/s) = 2.91399 3.51649 3.22932
# Velocity P-wave (km/s) = 4.19842 5.81785 5.07317
#
# Compressibility (1/GPa) = 0.07228458
#
# Stress axis : x y z
#
# Youngs Moduli (GPa) = 97.80907 48.82341 22.35129
#
# Poissons Ratio (x) = 0.30332 0.08579
# Poissons Ratio (y) = 0.60766 -0.18932
# Poissons Ratio (z) = 0.37540 -0.41353
#
# Static dielectric constant tensor:
#      x y z
#    x 1.973130 0.000000 0.047600 
#    y 0.000000 1.780790 0.000000 
#    z 0.047600 0.000000 1.919920 
# 
# From -- ./inp_files/110114.got.cif
#   From: 2010.05.17/outbox.cif.g08.bks.cpg/sg15_56_cif.got.tgz:110114.got - 2010.06.03 18:47:42.
