data_PCOD9281853
_publ_section_title
;
Structure prediction by ZEFSAII (Michael W. Deem and Ramdas Pophale) SiO2 
 PCOD9281853
Probable space group: C 2/C
;
_chemical_formula_sum "Si O2"
_cell_formula_units_Z 56
_cell_length_a 4.983581
_cell_length_b 19.451920
_cell_length_c 29.797167
_cell_angle_alpha 90.000000
_cell_angle_beta 119.111598
_cell_angle_gamma 90.000000
_cell_volume 2523.645002
_symmetry_space_group_name_H-M "C 2/C"
_symmetry_group_IT_number 15
_symmetry_cell_setting 'monoclinic'
loop_
_space_group_symop_operation_xyz
x,y,z
-x,y,1/2-z
-x,-y,-z
x,-y,1/2+z
1/2+x,1/2+y,z
1/2-x,1/2+y,1/2-z
1/2-x,1/2-y,-z
1/2+x,1/2-y,1/2+z
loop_
_atom_site_type_symbol
_atom_site_label
_atom_site_fract_x
_atom_site_fract_y
_atom_site_fract_z
Si Si1 0.275628 0.769128 0.943298
Si Si2 0.267397 0.468248 0.096038
Si Si3 0.313890 0.548682 0.432622
Si Si4 0.323780 0.636990 0.522789
Si Si5 0.901285 0.689205 0.115309
Si Si6 0.155609 0.067824 0.713575
Si Si7 0.841871 0.772482 0.284643
O O1 0.402581 0.692209 0.957010
O O2 0.324659 0.790129 0.895555
O O3 0.925391 0.780585 0.928620
O O4 0.510678 0.820759 0.987239
O O5 0.388986 0.526571 0.071254
O O6 0.299758 0.399779 0.068821
O O7 0.470907 0.466829 0.157730
O O8 0.919639 0.485377 0.081105
O O9 0.365671 0.582037 0.485793
O O10 0.143362 0.607934 0.390301
O O11 0.969821 0.724139 0.167487
O O12 0.500000 0.041687 0.750000
O O13 0.176434 0.148354 0.700602
O O14 0.000000 0.063866 0.750000
O O15 0.500000 0.745681 0.250000
O O16 0.000000 0.775594 0.250000
#
# Coordination Sequence:
#
# PCOD9281853 Si02
#       7
#     8   8   8   8   8   8   8
#     4  10  23  38  64  91 123 166 201 260 321 366
#     4  12  24  41  64  89 123 173 208 248 313 368
#     4  11  25  40  60  90 129 168 208 249 296 376
#     4  10  23  41  63  94 127 162 214 258 307 376
#     4  11  22  42  60  89 128 161 206 255 315 383
#     4  10  22  42  64  90 119 150 205 266 311 366
#     4  10  21  38  65  93 116 150 201 269 327 364
#
# _framework density 22.190125999999999
#
# number of rings (size 3 to 8) (size 9 to 14) (size 15 to 20)
#    0.000    1.429    0.000    5.143    0.000   13.143 
#    0.000    4.286    0.000    0.000    0.000    0.000 
#    0.000    0.000    0.000    0.000    0.000    0.000 
#
# Total GULP energy -156731.396651 kJ/mol
# GULP energy per Si atom -5597.549880 kJ/mol
# Density = 2.213962 g / cm^3
# Si number density = 22.190126 Si / 1000 Ang^3
#
#
#
# Elastic Constant Matrix: (Units=GPa)
#
#
# Indices 1 2 3 4 5 6 
#
# 1 75.8929 4.7342 5.4257 0.0000 12.3134 0.0000
# 2 4.7342 62.6600 30.6737 0.0000 2.5269 0.0000
# 3 5.4257 30.6737 77.8944 0.0000 4.1129 0.0000
# 4 0.0000 0.0000 0.0000 23.4624 0.0000 -3.4431
# 5 12.3134 2.5269 4.1129 0.0000 27.8712 0.0000
# 6 0.0000 0.0000 0.0000 -3.4431 0.0000 22.0660
#
#
#
# Elastic Compliance Matrix: (Units=1/GPa)
#
#
# Indices 1 2 3 4 5 6 
#
# 1 0.014247 -0.000621 -0.000422 0.000000 -0.006176 0.000000
# 2 -0.000621 0.019809 -0.007737 0.000000 -0.000380 0.000000
# 3 -0.000422 -0.007737 0.015992 0.000000 -0.001472 0.000000
# 4 0.000000 0.000000 0.000000 0.043620 0.000000 0.006806
# 5 -0.006176 -0.000380 -0.001472 0.000000 0.038860 0.000000
# 6 0.000000 0.000000 0.000000 0.006806 0.000000 0.046381
#
#
# Mechanical properties :
#
#
# Convention : Reuss Voigt Hill
#
# Bulk Modulus (GPa) = 30.78027 33.12384 31.95206
# Shear Modulus (GPa) = 24.11991 26.38749 25.25370
#
# Velocity S-wave (km/s) = 3.30049 3.45215 3.37717
# Velocity P-wave (km/s) = 5.33157 5.55423 5.44404
#
# Compressibility (1/GPa) = 0.03248834
#
# Stress axis : x y z
#
# Youngs Moduli (GPa) = 70.18840 50.48231 62.53209
#
# Poissons Ratio (x) = 0.03135 0.02638
# Poissons Ratio (y) = 0.04358 0.48382
# Poissons Ratio (z) = 0.02960 0.39059
#
# Static dielectric constant tensor:
#      x y z
#    x 1.783690 0.000000 0.001050 
#    y 0.000000 1.843170 0.000000 
#    z 0.001050 0.000000 1.796150 
# 
# From -- ./inp_files/305839.got.cif
#   From: 2010.05.17/outbox.cif.g08.bks.cpg/sg15_153_cif.got.tgz:305839.got - 2010.06.03 18:47:42.
