data_PCOD9281993
_publ_section_title
;
Structure prediction by ZEFSAII (Michael W. Deem and Ramdas Pophale) SiO2 
 PCOD9281993
Probable space group: C 2/C
;
_chemical_formula_sum "Si O2"
_cell_formula_units_Z 44
_cell_length_a 8.699585
_cell_length_b 25.277753
_cell_length_c 10.235930
_cell_angle_alpha 90.000000
_cell_angle_beta 114.614850
_cell_angle_gamma 90.000000
_cell_volume 2046.394838
_symmetry_space_group_name_H-M "C 2/C"
_symmetry_group_IT_number 15
_symmetry_cell_setting 'monoclinic'
loop_
_space_group_symop_operation_xyz
x,y,z
-x,y,1/2-z
-x,-y,-z
x,-y,1/2+z
1/2+x,1/2+y,z
1/2-x,1/2+y,1/2-z
1/2-x,1/2-y,-z
1/2+x,1/2-y,1/2+z
loop_
_atom_site_type_symbol
_atom_site_label
_atom_site_fract_x
_atom_site_fract_y
_atom_site_fract_z
Si Si1 0.830846 0.581815 0.447931
Si Si2 0.867783 0.976846 0.084595
Si Si3 0.447874 0.609800 0.999185
Si Si4 0.183176 0.613335 0.676770
Si Si5 0.000000 0.618703 0.250000
Si Si6 0.728964 0.312462 0.497015
O O1 0.767127 0.524192 0.472025
O O2 0.655370 0.614269 0.402722
O O3 0.983912 0.604438 0.590780
O O4 0.899037 0.584883 0.323419
O O5 0.759161 0.928539 0.102259
O O6 0.000000 0.988931 0.250000
O O7 0.953268 0.946657 0.989271
O O8 0.292438 0.604577 0.843204
O O9 0.560748 0.659617 0.996404
O O10 0.241152 0.669325 0.641053
O O11 0.125464 0.657675 0.370536
O O12 0.750000 0.250000 0.500000
#
# Coordination Sequence:
#
# PCOD9281993 Si02
#       6
#     8   8   8   8   4   8
#     4  11  21  39  61  90 135 159 206 258 301 372
#     4   9  19  35  59  90 126 170 204 249 307 367
#     4  10  21  38  67  92 121 164 213 251 307 374
#     4   9  20  40  58  93 122 162 212 248 307 371
#     4  10  26  40  58  96 126 164 206 250 330 356
#     4  10  22  41  68  87 119 162 201 261 314 372
#
# _framework density 21.501225999999999
#
# number of rings (size 3 to 8) (size 9 to 14) (size 15 to 20)
#    0.000    2.182    0.000    3.273    5.091    0.000 
#   16.364    3.636    8.000    0.000    0.000    0.000 
#    0.000    0.000    0.000    0.000    0.000    0.000 
#
# Total GULP energy -122574.774741 kJ/mol
# GULP energy per Si atom -5571.580670 kJ/mol
# Density = 2.145229 g / cm^3
# Si number density = 21.501226 Si / 1000 Ang^3
#
#
#
# Elastic Constant Matrix: (Units=GPa)
#
#
# Indices 1 2 3 4 5 6 
#
# 1 170.4761 50.6719 29.4005 0.0000 -6.1672 0.0000
# 2 50.6719 135.3209 11.4011 0.0000 -1.3946 0.0000
# 3 29.4005 11.4011 55.8791 0.0000 6.1387 0.0000
# 4 0.0000 0.0000 0.0000 19.4044 0.0000 -0.8732
# 5 -6.1672 -1.3946 6.1387 0.0000 26.1113 0.0000
# 6 0.0000 0.0000 0.0000 -0.8732 0.0000 9.0429
#
#
#
# Elastic Compliance Matrix: (Units=1/GPa)
#
#
# Indices 1 2 3 4 5 6 
#
# 1 0.007291 -0.002401 -0.003615 0.000000 0.002444 0.000000
# 2 -0.002401 0.008325 -0.000433 0.000000 -0.000020 0.000000
# 3 -0.003615 -0.000433 0.020512 0.000000 -0.005699 0.000000
# 4 0.000000 0.000000 0.000000 0.051760 0.000000 0.004998
# 5 0.002444 -0.000020 -0.005699 0.000000 0.040214 0.000000
# 6 0.000000 0.000000 0.000000 0.004998 0.000000 0.111067
#
#
# Mechanical properties :
#
#
# Convention : Reuss Voigt Hill
#
# Bulk Modulus (GPa) = 43.04581 60.51368 51.77974
# Shear Modulus (GPa) = 19.24484 28.92523 24.08504
#
# Velocity S-wave (km/s) = 2.99500 3.67179 3.35053
# Velocity P-wave (km/s) = 5.65894 6.79569 6.25320
#
# Compressibility (1/GPa) = 0.02323106
#
# Stress axis : x y z
#
# Youngs Moduli (GPa) = 137.14985 120.11970 48.75124
#
# Poissons Ratio (x) = 0.28835 0.17623
# Poissons Ratio (y) = 0.32923 0.02112
# Poissons Ratio (z) = 0.49579 0.05205
#
# Static dielectric constant tensor:
#      x y z
#    x 1.910840 0.000000 -0.069350 
#    y 0.000000 1.771140 0.000000 
#    z -0.069350 0.000000 1.886390 
# 
# From -- ./inp_files/79032.got.cif
#   From: 2010.05.17/outbox.cif.g08.bks.cpg/sg15_40_cif.got.tgz:79032.got - 2010.06.03 18:47:42.
