data_PCOD9281522
_publ_section_title
;
Structure prediction by ZEFSAII (Michael W. Deem and Ramdas Pophale) SiO2 
 PCOD9281522
Probable space group: C 2/C
;
_chemical_formula_sum "Si O2"
_cell_formula_units_Z 48
_cell_length_a 17.187483
_cell_length_b 19.139328
_cell_length_c 20.303884
_cell_angle_alpha 90.000000
_cell_angle_beta 159.874905
_cell_angle_gamma 90.000000
_cell_volume 2298.085220
_symmetry_space_group_name_H-M "C 2/C"
_symmetry_group_IT_number 15
_symmetry_cell_setting 'monoclinic'
loop_
_space_group_symop_operation_xyz
x,y,z
-x,y,1/2-z
-x,-y,-z
x,-y,1/2+z
1/2+x,1/2+y,z
1/2-x,1/2+y,1/2-z
1/2-x,1/2-y,-z
1/2+x,1/2-y,1/2+z
loop_
_atom_site_type_symbol
_atom_site_label
_atom_site_fract_x
_atom_site_fract_y
_atom_site_fract_z
Si Si1 0.199610 0.406250 0.964024
Si Si2 0.813256 0.928859 0.779837
Si Si3 0.283569 0.067710 0.723983
Si Si4 0.961510 0.845252 0.365283
Si Si5 0.232153 0.052774 0.409026
Si Si6 0.379507 0.817010 0.792839
O O1 0.000000 0.414580 0.750000
O O2 0.105374 0.348957 0.940501
O O3 0.428536 0.379700 0.111452
O O4 0.243734 0.479540 0.033857
O O5 0.788235 0.954680 0.685866
O O6 0.682304 0.856292 0.688633
O O7 0.713130 0.986349 0.751029
O O8 0.077603 0.923274 0.009370
O O9 0.219285 0.108802 0.739429
O O10 0.525500 0.089399 0.888347
O O11 0.882470 0.766061 0.294136
O O12 0.175063 0.840754 0.583939
O O13 0.000000 0.086883 0.250000
#
# Coordination Sequence:
#
# PCOD9281522 Si02
#       6
#     8   8   8   8   8   8
#     4  10  22  39  57  93 139 169 204 254 321 382
#     4  10  22  40  63  93 121 169 216 258 322 370
#     4  10  22  41  60  88 132 160 212 273 311 379
#     4  10  22  37  62  92 127 174 205 255 326 373
#     4  12  25  36  65  92 120 170 213 267 316 372
#     4  10  21  38  62  91 130 174 205 257 311 391
#
# _framework density 20.886953999999999
#
# number of rings (size 3 to 8) (size 9 to 14) (size 15 to 20)
#    0.000    1.667    1.667    2.000    7.000    1.333 
#    0.000    0.000    0.000    1.000    0.000    0.000 
#    0.000    0.000    0.000    0.000    0.000    0.000 
#
# Total GULP energy -134176.874513 kJ/mol
# GULP energy per Si atom -5590.703105 kJ/mol
# Density = 2.083941 g / cm^3
# Si number density = 20.886954 Si / 1000 Ang^3
#
#
#
# Elastic Constant Matrix: (Units=GPa)
#
#
# Indices 1 2 3 4 5 6 
#
# 1 79.3589 62.3234 45.3349 -0.0104 15.3897 -0.0200
# 2 62.3234 80.1469 14.5612 -0.0194 15.1065 -0.0791
# 3 45.3349 14.5612 115.1878 0.0014 21.9710 -0.0579
# 4 -0.0104 -0.0194 0.0014 23.7158 -0.0197 5.4633
# 5 15.3897 15.1065 21.9710 -0.0197 43.6843 -0.0065
# 6 -0.0200 -0.0791 -0.0579 5.4633 -0.0065 25.6233
#
#
#
# Elastic Compliance Matrix: (Units=1/GPa)
#
#
# Indices 1 2 3 4 5 6 
#
# 1 0.048801 -0.035713 -0.015230 0.000021 0.002817 -0.000110
# 2 -0.035713 0.039565 0.010247 -0.000017 -0.006255 0.000119
# 3 -0.015230 0.010247 0.014416 -0.000016 -0.005429 0.000054
# 4 0.000021 -0.000017 -0.000016 0.044344 0.000025 -0.009455
# 5 0.002817 -0.006255 -0.005429 0.000025 0.026792 -0.000028
# 6 -0.000110 0.000119 0.000054 -0.009455 -0.000028 0.041043
#
#
# Mechanical properties :
#
#
# Convention : Reuss Voigt Hill
#
# Bulk Modulus (GPa) = 46.74822 57.68138 52.21480
# Shear Modulus (GPa) = 16.47538 28.76961 22.62250
#
# Velocity S-wave (km/s) = 2.81158 3.71536 3.29461
# Velocity P-wave (km/s) = 5.74196 6.78831 6.28694
#
# Compressibility (1/GPa) = 0.02139119
#
# Stress axis : x y z
#
# Youngs Moduli (GPa) = 20.49123 25.27478 69.36908
#
# Poissons Ratio (x) = 0.90263 1.05648
# Poissons Ratio (y) = 0.73180 -0.71083
# Poissons Ratio (z) = 0.31208 -0.25899
#
# Static dielectric constant tensor:
#      x y z
#    x 1.761840 -0.000050 -0.006380 
#    y -0.000050 1.771430 -0.000050 
#    z -0.006380 -0.000050 1.830610 
# 
# From -- ./inp_files/249758.got.cif
#   From: 2010.05.17/outbox.cif.g08.bks.cpg/sg15_125_cif.got.tgz:249758.got - 2010.06.03 18:47:42.
