data_PCOD9281249
_publ_section_title
;
Structure prediction by ZEFSAII (Michael W. Deem and Ramdas Pophale) SiO2 
 PCOD9281249
Probable space group: C 2/C
;
_chemical_formula_sum "Si O2"
_cell_formula_units_Z 56
_cell_length_a 20.778499
_cell_length_b 11.572506
_cell_length_c 11.578125
_cell_angle_alpha 90.000000
_cell_angle_beta 109.159464
_cell_angle_gamma 90.000000
_cell_volume 2629.855030
_symmetry_space_group_name_H-M "C 2/C"
_symmetry_group_IT_number 15
_symmetry_cell_setting 'monoclinic'
loop_
_space_group_symop_operation_xyz
x,y,z
-x,y,1/2-z
-x,-y,-z
x,-y,1/2+z
1/2+x,1/2+y,z
1/2-x,1/2+y,1/2-z
1/2-x,1/2-y,-z
1/2+x,1/2-y,1/2+z
loop_
_atom_site_type_symbol
_atom_site_label
_atom_site_fract_x
_atom_site_fract_y
_atom_site_fract_z
Si Si1 0.199344 0.711317 0.573207
Si Si2 0.321363 0.743907 0.809384
Si Si3 0.179632 0.885079 0.943307
Si Si4 0.332187 0.054223 0.457868
Si Si5 0.903694 0.912563 0.012376
Si Si6 0.434262 0.225887 0.631130
Si Si7 0.550985 0.629191 0.599600
O O1 0.250000 0.750000 0.500000
O O2 0.250671 0.717710 0.709850
O O3 0.170040 0.582860 0.542497
O O4 0.139184 0.802675 0.548984
O O5 0.335878 0.879505 0.836963
O O6 0.388938 0.689429 0.793339
O O7 0.317841 0.678892 0.930971
O O8 0.256731 0.903672 0.951917
O O9 0.125285 0.804407 0.844848
O O10 0.076168 0.999025 0.079395
O O11 0.393736 0.110376 0.567921
O O12 0.855967 0.991402 0.064372
O O13 0.976327 0.878605 0.106995
O O14 0.500000 0.209775 0.750000
O O15 0.455214 0.296688 0.525706
#
# Coordination Sequence:
#
# PCOD9281249 Si02
#       7
#     8   8   8   8   8   8   8
#     4  12  24  37  57  89 122 156 195 238 305 358
#     4   9  21  37  59  82 116 158 202 236 288 348
#     4   9  18  38  58  89 116 147 202 250 281 346
#     4  10  21  38  60  87 122 154 197 247 291 353
#     4   9  18  36  58  80 119 146 187 247 289 341
#     4   9  18  35  58  89 114 153 202 239 288 346
#     4   8  18  38  57  84 114 149 200 246 281 346
#
# _framework density 21.293949000000001
#
# number of rings (size 3 to 8) (size 9 to 14) (size 15 to 20)
#    0.000    3.143    1.429    1.714    4.000    2.286 
#    5.143    5.000    0.000    0.000    0.000    0.000 
#    0.000    0.000    0.000    0.000    0.000    0.000 
#
# Total GULP energy -156112.048377 kJ/mol
# GULP energy per Si atom -5575.430299 kJ/mol
# Density = 2.124548 g / cm^3
# Si number density = 21.293949 Si / 1000 Ang^3
#
#
#
# Elastic Constant Matrix: (Units=GPa)
#
#
# Indices 1 2 3 4 5 6 
#
# 1 131.1482 70.9852 48.1746 0.0000 43.4493 0.0000
# 2 70.9852 192.7610 57.5249 0.0000 38.4264 0.0000
# 3 48.1746 57.5249 74.1773 0.0000 38.4889 0.0000
# 4 0.0000 0.0000 0.0000 10.1322 0.0000 5.5279
# 5 43.4493 38.4264 38.4889 0.0000 42.1323 0.0000
# 6 0.0000 0.0000 0.0000 5.5279 0.0000 32.5935
#
#
#
# Elastic Compliance Matrix: (Units=1/GPa)
#
#
# Indices 1 2 3 4 5 6 
#
# 1 0.012554 -0.002296 -0.001410 0.000000 -0.009565 0.000000
# 2 -0.002296 0.007324 -0.003710 0.000000 -0.000924 0.000000
# 3 -0.001410 -0.003710 0.028069 0.000000 -0.020804 0.000000
# 4 0.000000 0.000000 0.000000 0.108759 0.000000 -0.018446
# 5 -0.009565 -0.000924 -0.020804 0.000000 0.053446 0.000000
# 6 0.000000 0.000000 0.000000 -0.018446 0.000000 0.033809
#
#
# Mechanical properties :
#
#
# Convention : Reuss Voigt Hill
#
# Bulk Modulus (GPa) = 30.19708 83.49512 56.84610
# Shear Modulus (GPa) = 18.53006 31.73170 25.13088
#
# Velocity S-wave (km/s) = 2.95312 3.86447 3.43911
# Velocity P-wave (km/s) = 5.08328 7.69467 6.52103
#
# Compressibility (1/GPa) = 0.03311578
#
# Stress axis : x y z
#
# Youngs Moduli (GPa) = 79.65386 136.52944 35.62692
#
# Poissons Ratio (x) = 0.31342 0.05024
# Poissons Ratio (y) = 0.18286 0.13218
# Poissons Ratio (z) = 0.11233 0.50652
#
# Static dielectric constant tensor:
#      x y z
#    x 1.809480 0.000000 -0.039720 
#    y 0.000000 1.790880 0.000000 
#    z -0.039720 0.000000 1.884050 
# 
# From -- ./inp_files/111677.got.cif
#   From: 2010.05.17/outbox.cif.g08.bks.cpg/sg15_56_cif.got.tgz:111677.got - 2010.06.03 18:47:42.
