data_PCOD9281954
_publ_section_title
;
Structure prediction by ZEFSAII (Michael W. Deem and Ramdas Pophale) SiO2 
 PCOD9281954
Probable space group: C 2/C
;
_chemical_formula_sum "Si O2"
_cell_formula_units_Z 28
_cell_length_a 7.572067
_cell_length_b 6.768475
_cell_length_c 32.320112
_cell_angle_alpha 90.000000
_cell_angle_beta 134.087425
_cell_angle_gamma 90.000000
_cell_volume 1189.792737
_symmetry_space_group_name_H-M "C 2/C"
_symmetry_group_IT_number 15
_symmetry_cell_setting 'monoclinic'
loop_
_space_group_symop_operation_xyz
x,y,z
-x,y,1/2-z
-x,-y,-z
x,-y,1/2+z
1/2+x,1/2+y,z
1/2-x,1/2+y,1/2-z
1/2-x,1/2-y,-z
1/2+x,1/2-y,1/2+z
loop_
_atom_site_type_symbol
_atom_site_label
_atom_site_fract_x
_atom_site_fract_y
_atom_site_fract_z
Si Si1 0.507448 0.333390 0.797420
Si Si2 0.500000 0.713179 0.750000
Si Si3 0.164751 0.810897 0.077462
Si Si4 0.672212 0.026353 0.978419
O O1 0.500000 0.246488 0.750000
O O2 0.578942 0.561017 0.799671
O O3 0.686618 0.214256 0.856405
O O4 0.737074 0.827410 0.773060
O O5 0.305749 0.953886 0.068230
O O6 0.082280 0.584078 0.052164
O O7 0.896400 0.906913 0.035367
O O8 0.750000 0.250000 0.000000
#
# Coordination Sequence:
#
# PCOD9281954 Si02
#       4
#     8   4   8   8
#     4  10  24  43  66  98 137 183 223 286 339 410
#     4  10  24  42  68  94 138 180 236 272 348 404
#     4  10  21  41  61  96 134 168 227 277 334 409
#     4  10  21  38  66  95 128 174 221 275 341 400
#
# _framework density 23.533512999999999
#
# number of rings (size 3 to 8) (size 9 to 14) (size 15 to 20)
#    0.857    1.143    0.000    2.571    2.000    2.286 
#    5.143    0.000    0.000    0.000    0.000    0.000 
#    0.000    0.000    0.000    0.000    0.000    0.000 
#
# Total GULP energy -77985.162670 kJ/mol
# GULP energy per Si atom -5570.368762 kJ/mol
# Density = 2.347995 g / cm^3
# Si number density = 23.533513 Si / 1000 Ang^3
#
#
#
# Elastic Constant Matrix: (Units=GPa)
#
#
# Indices 1 2 3 4 5 6 
#
# 1 127.4933 36.5439 28.6978 0.0000 -9.9398 0.0000
# 2 36.5439 73.3760 9.0240 0.0000 0.4151 0.0000
# 3 28.6978 9.0240 118.5726 0.0000 12.5437 0.0000
# 4 0.0000 0.0000 0.0000 -19.6768 0.0000 0.3278
# 5 -9.9398 0.4151 12.5437 0.0000 14.5233 0.0000
# 6 0.0000 0.0000 0.0000 0.3278 0.0000 19.6215
#
#
#
# Elastic Compliance Matrix: (Units=1/GPa)
#
#
# Indices 1 2 3 4 5 6 
#
# 1 0.010865 -0.005058 -0.003353 0.000000 0.010476 0.000000
# 2 -0.005058 0.016116 0.000454 0.000000 -0.004315 0.000000
# 3 -0.003353 0.000454 0.010405 0.000000 -0.011295 0.000000
# 4 0.000000 0.000000 0.000000 -0.050807 0.000000 0.000849
# 5 0.010476 -0.004315 -0.011295 0.000000 0.085904 0.000000
# 6 0.000000 0.000000 0.000000 0.000849 0.000000 0.050950
#
#
# Mechanical properties :
#
#
# Convention : Reuss Voigt Hill
#
# Bulk Modulus (GPa) = 46.57079 51.99702 49.28391
# Shear Modulus (GPa) = 34.12856 19.23866 26.68361
#
# Velocity S-wave (km/s) = 3.81229 2.86230 3.37093
# Velocity P-wave (km/s) = 6.26181 5.75035 6.01152
#
# Compressibility (1/GPa) = 0.02147269
#
# Stress axis : x y z
#
# Youngs Moduli (GPa) = 92.03990 62.04983 96.10324
#
# Poissons Ratio (x) = 0.31385 0.32223
# Poissons Ratio (y) = 0.46554 -0.04364
# Poissons Ratio (z) = 0.30860 -0.02818
#
# Static dielectric constant tensor:
#      x y z
#    x 1.934940 0.000000 -0.134080 
#    y 0.000000 2.112550 0.000000 
#    z -0.134080 0.000000 1.983030 
# 
# From -- ./inp_files/306293.got.cif
#   From: 2010.05.17/outbox.cif.g08.bks.cpg/sg15_154_cif.got.tgz:306293.got - 2010.06.03 18:47:42.
