data_PCOD9281395
_publ_section_title
;
Structure prediction by ZEFSAII (Michael W. Deem and Ramdas Pophale) SiO2 
 PCOD9281395
Probable space group: C 2/C
;
_chemical_formula_sum "Si O2"
_cell_formula_units_Z 56
_cell_length_a 11.560286
_cell_length_b 26.987812
_cell_length_c 9.211031
_cell_angle_alpha 90.000000
_cell_angle_beta 109.615083
_cell_angle_gamma 90.000000
_cell_volume 2706.955780
_symmetry_space_group_name_H-M "C 2/C"
_symmetry_group_IT_number 15
_symmetry_cell_setting 'monoclinic'
loop_
_space_group_symop_operation_xyz
x,y,z
-x,y,1/2-z
-x,-y,-z
x,-y,1/2+z
1/2+x,1/2+y,z
1/2-x,1/2+y,1/2-z
1/2-x,1/2-y,-z
1/2+x,1/2-y,1/2+z
loop_
_atom_site_type_symbol
_atom_site_label
_atom_site_fract_x
_atom_site_fract_y
_atom_site_fract_z
Si Si1 0.630336 0.052021 0.005299
Si Si2 0.359318 0.293173 0.521251
Si Si3 0.724424 0.851825 0.677087
Si Si4 0.998644 0.301270 0.418305
Si Si5 0.849993 0.553876 0.834194
Si Si6 0.262353 0.808307 0.502432
Si Si7 0.373617 0.631036 0.750463
O O1 0.486321 0.069128 0.949445
O O2 0.650404 0.048315 0.840888
O O3 0.713422 0.091535 0.125405
O O4 0.658309 0.999510 0.091818
O O5 0.250000 0.250000 0.500000
O O6 0.343470 0.325970 0.657941
O O7 0.476428 0.257682 0.557166
O O8 0.355749 0.334007 0.388271
O O9 0.608584 0.827734 0.546597
O O10 0.713057 0.836211 0.837980
O O11 0.000000 0.314376 0.250000
O O12 0.872776 0.316771 0.437228
O O13 0.737807 0.591685 0.812247
O O14 0.250000 0.750000 0.500000
O O15 0.139701 0.829192 0.382982
O O16 0.500000 0.605372 0.750000
#
# Coordination Sequence:
#
# PCOD9281395 Si02
#       7
#     8   8   8   8   8   8   8
#     4  10  22  42  73 102 134 160 225 287 355 410
#     4  10  21  38  61  90 130 176 224 270 331 395
#     4  11  22  38  65  97 131 173 218 280 341 409
#     4  11  22  37  61  95 133 174 220 274 334 399
#     4  10  23  43  70 103 130 173 216 291 349 409
#     4  12  24  39  60  93 133 177 229 277 327 392
#     4  12  25  44  67  93 138 186 229 277 345 413
#
# _framework density 20.687446000000001
#
# number of rings (size 3 to 8) (size 9 to 14) (size 15 to 20)
#    0.000    1.143    1.429    6.429    4.000    0.000 
#    2.571    0.714    0.000    0.000    0.000    0.000 
#    0.000    0.000    0.000    0.000    0.000    0.000 
#
# Total GULP energy -156067.348360 kJ/mol
# GULP energy per Si atom -5573.833870 kJ/mol
# Density = 2.064036 g / cm^3
# Si number density = 20.687446 Si / 1000 Ang^3
#
#
#
# Elastic Constant Matrix: (Units=GPa)
#
#
# Indices 1 2 3 4 5 6 
#
# 1 94.4909 44.4223 28.8070 0.0000 -12.1940 0.0000
# 2 44.4223 108.0604 25.4788 0.0000 -12.8961 0.0000
# 3 28.8070 25.4788 111.3173 0.0000 -26.7046 0.0000
# 4 0.0000 0.0000 0.0000 24.0646 0.0000 30.7812
# 5 -12.1940 -12.8961 -26.7046 0.0000 23.2630 0.0000
# 6 0.0000 0.0000 0.0000 30.7812 0.0000 -4.3999
#
#
#
# Elastic Compliance Matrix: (Units=1/GPa)
#
#
# Indices 1 2 3 4 5 6 
#
# 1 0.013780 -0.004945 -0.001876 0.000000 0.002329 0.000000
# 2 -0.004945 0.011825 -0.000657 0.000000 0.003209 0.000000
# 3 -0.001876 -0.000657 0.012829 0.000000 0.013379 0.000000
# 4 0.000000 0.000000 0.000000 0.004177 0.000000 0.029222
# 5 0.002329 0.003209 0.013379 0.000000 0.061345 0.000000
# 6 0.000000 0.000000 0.000000 0.029222 0.000000 -0.022845
#
#
# Mechanical properties :
#
#
# Convention : Reuss Voigt Hill
#
# Bulk Modulus (GPa) = 42.59144 56.80944 49.70044
# Shear Modulus (GPa) = 48.12742 22.92957 35.52849
#
# Velocity S-wave (km/s) = 4.82852 3.33285 4.14864
# Velocity P-wave (km/s) = 7.19158 6.50622 6.85747
#
# Compressibility (1/GPa) = 0.02347890
#
# Stress axis : x y z
#
# Youngs Moduli (GPa) = 72.56919 84.56924 77.95005
#
# Poissons Ratio (x) = 0.41816 0.14620
# Poissons Ratio (y) = 0.35883 0.05122
# Poissons Ratio (z) = 0.13611 0.05557
#
# Static dielectric constant tensor:
#      x y z
#    x 1.945800 0.000000 -0.022780 
#    y 0.000000 1.784590 0.000000 
#    z -0.022780 0.000000 1.748300 
# 
# From -- ./inp_files/34339.got.cif
#   From: 2010.05.17/outbox.cif.g08.bks.cpg/sg15_18_cif.got.tgz:34339.got - 2010.06.03 18:47:42.
