data_PCOD9281829
_publ_section_title
;
Structure prediction by ZEFSAII (Michael W. Deem and Ramdas Pophale) SiO2 
 PCOD9281829
Probable space group: C 2/C
;
_chemical_formula_sum "Si O2"
_cell_formula_units_Z 56
_cell_length_a 24.490051
_cell_length_b 15.730853
_cell_length_c 9.336749
_cell_angle_alpha 90.000000
_cell_angle_beta 52.147493
_cell_angle_gamma 90.000000
_cell_volume 2840.147765
_symmetry_space_group_name_H-M "C 2/C"
_symmetry_group_IT_number 15
_symmetry_cell_setting 'monoclinic'
loop_
_space_group_symop_operation_xyz
x,y,z
-x,y,1/2-z
-x,-y,-z
x,-y,1/2+z
1/2+x,1/2+y,z
1/2-x,1/2+y,1/2-z
1/2-x,1/2-y,-z
1/2+x,1/2-y,1/2+z
loop_
_atom_site_type_symbol
_atom_site_label
_atom_site_fract_x
_atom_site_fract_y
_atom_site_fract_z
Si Si1 0.921803 0.745868 0.331163
Si Si2 0.500000 0.202799 0.750000
Si Si3 0.300453 0.546982 0.803780
Si Si4 0.639895 0.068473 0.005012
Si Si5 0.500000 0.522448 0.250000
Si Si6 0.422119 0.339624 0.029349
Si Si7 0.862946 0.085321 0.006099
Si Si8 0.438865 0.942274 0.160545
O O1 0.880669 0.658218 0.390489
O O2 0.882904 0.816036 0.491406
O O3 0.000000 0.726461 0.250000
O O4 0.926978 0.794834 0.173358
O O5 0.437874 0.265517 0.892415
O O6 0.526190 0.142701 0.834883
O O7 0.347996 0.615317 0.642361
O O8 0.312264 0.567458 0.952647
O O9 0.332160 0.457766 0.697738
O O10 0.220970 0.553003 0.890556
O O11 0.598431 0.993504 0.151999
O O12 0.614461 0.073276 0.882303
O O13 0.520223 0.586849 0.088481
O O14 0.566784 0.463437 0.154869
O O15 0.500000 0.000000 0.000000
#
# Coordination Sequence:
#
# PCOD9281829 Si02
#       8
#     8   4   8   8   4   8   8   8
#     4  11  22  36  61  94 118 151 206 259 295 342
#     4  11  20  40  63  92 114 152 209 252 304 337
#     4  10  23  42  58  89 125 168 194 234 309 373
#     4  12  25  42  62  89 127 157 202 247 307 367
#     4   9  18  36  61  92 122 156 203 250 298 345
#     4   9  21  36  61  88 124 160 192 250 300 358
#     4  10  21  38  65  88 123 161 203 246 295 360
#     4  12  23  42  67  89 114 159 206 262 296 349
#
# _framework density 19.717285
#
# number of rings (size 3 to 8) (size 9 to 14) (size 15 to 20)
#    0.000    1.429    2.143    3.429    2.000    4.000 
#    5.143    0.714    0.000    0.000    0.000    0.000 
#    0.000    0.000    0.000    0.000    0.000    0.000 
#
# Total GULP energy -156391.938148 kJ/mol
# GULP energy per Si atom -5585.426362 kJ/mol
# Density = 1.967241 g / cm^3
# Si number density = 19.717285 Si / 1000 Ang^3
#
#
#
# Elastic Constant Matrix: (Units=GPa)
#
#
# Indices 1 2 3 4 5 6 
#
# 1 70.8929 -15.6969 -3.1397 0.0000 -18.0238 0.0000
# 2 -15.6969 69.1976 4.1294 0.0000 -10.9637 0.0000
# 3 -3.1397 4.1294 37.1828 0.0000 -10.3130 0.0000
# 4 0.0000 0.0000 0.0000 21.2205 0.0000 5.1770
# 5 -18.0238 -10.9637 -10.3130 0.0000 32.1681 0.0000
# 6 0.0000 0.0000 0.0000 5.1770 0.0000 20.5390
#
#
#
# Elastic Compliance Matrix: (Units=1/GPa)
#
#
# Indices 1 2 3 4 5 6 
#
# 1 0.019506 0.006461 0.005018 0.000000 0.014740 0.000000
# 2 0.006461 0.017419 0.001385 0.000000 0.010001 0.000000
# 3 0.005018 0.001385 0.030815 0.000000 0.013163 0.000000
# 4 0.000000 0.000000 0.000000 0.050212 0.000000 -0.012656
# 5 0.014740 0.010001 0.013163 0.000000 0.046974 0.000000
# 6 0.000000 0.000000 0.000000 -0.012656 0.000000 0.051878
#
#
# Mechanical properties :
#
#
# Convention : Reuss Voigt Hill
#
# Bulk Modulus (GPa) = 10.69899 16.42875 13.56387
# Shear Modulus (GPa) = 22.49899 27.58422 25.04160
#
# Velocity S-wave (km/s) = 3.38165 3.74436 3.56762
# Velocity P-wave (km/s) = 4.54812 5.20037 4.88515
#
# Compressibility (1/GPa) = 0.09346678
#
# Stress axis : x y z
#
# Youngs Moduli (GPa) = 51.26618 57.40914 32.45185
#
# Poissons Ratio (x) = -0.37091 -0.16284
# Poissons Ratio (y) = -0.33122 -0.04494
# Poissons Ratio (z) = -0.25725 -0.07951
#
# Static dielectric constant tensor:
#      x y z
#    x 1.669200 0.000000 0.028630 
#    y 0.000000 1.701570 0.000000 
#    z 0.028630 0.000000 1.725450 
# 
# From -- ./inp_files/61841.got.cif
#   From: 2010.05.17/outbox.cif.g08.bks.cpg/sg15_31_cif.got.tgz:61841.got - 2010.06.03 18:47:42.
