data_PCOD9281345
_publ_section_title
;
Structure prediction by ZEFSAII (Michael W. Deem and Ramdas Pophale) SiO2 
 PCOD9281345
Probable space group: C 2/C
;
_chemical_formula_sum "Si O2"
_cell_formula_units_Z 52
_cell_length_a 14.120472
_cell_length_b 8.608479
_cell_length_c 30.311161
_cell_angle_alpha 90.000000
_cell_angle_beta 139.218610
_cell_angle_gamma 90.000000
_cell_volume 2406.620211
_symmetry_space_group_name_H-M "C 2/C"
_symmetry_group_IT_number 15
_symmetry_cell_setting 'monoclinic'
loop_
_space_group_symop_operation_xyz
x,y,z
-x,y,1/2-z
-x,-y,-z
x,-y,1/2+z
1/2+x,1/2+y,z
1/2-x,1/2+y,1/2-z
1/2-x,1/2-y,-z
1/2+x,1/2-y,1/2+z
loop_
_atom_site_type_symbol
_atom_site_label
_atom_site_fract_x
_atom_site_fract_y
_atom_site_fract_z
Si Si1 0.680081 0.814441 0.103861
Si Si2 0.929114 0.614759 0.344525
Si Si3 0.667093 0.622348 0.757273
Si Si4 0.199327 0.678234 0.109233
Si Si5 0.127519 0.189452 0.490009
Si Si6 0.758666 0.869869 0.963062
Si Si7 0.500000 0.375869 0.750000
O O1 0.797949 0.793783 0.183861
O O2 0.700317 0.712539 0.067938
O O3 0.691037 0.994980 0.093960
O O4 0.525568 0.772834 0.070782
O O5 0.814140 0.473905 0.297584
O O6 0.888534 0.753998 0.297117
O O7 0.905394 0.682860 0.385536
O O8 0.095409 0.564357 0.398965
O O9 0.552269 0.487805 0.728657
O O10 0.165159 0.774822 0.054235
O O11 0.359483 0.714390 0.184152
O O12 0.250000 0.250000 0.500000
O O13 0.128486 0.004717 0.485724
O O14 0.750000 0.750000 0.000000
#
# Coordination Sequence:
#
# PCOD9281345 Si02
#       7
#     8   8   8   8   8   8   4
#     4  10  22  41  61  86 121 158 199 248 301 357
#     4  10  22  40  62  88 120 155 197 245 297 358
#     4  10  21  38  61  87 116 155 195 241 295 351
#     4  10  21  39  61  87 120 157 199 250 297 352
#     4  12  24  39  62  89 118 158 205 250 297 358
#     4  12  25  40  60  88 123 160 198 246 304 364
#     4   8  18  36  58  84 116 154 192 238 300 350
#
# _framework density 21.607064999999999
#
# number of rings (size 3 to 8) (size 9 to 14) (size 15 to 20)
#    0.000    1.846    0.000    6.462    0.000    7.385 
#    0.000    0.000    0.000    0.000    0.000    0.000 
#    0.000    0.000    0.000    0.000    0.000    0.000 
#
# Total GULP energy -145354.721660 kJ/mol
# GULP energy per Si atom -5590.566218 kJ/mol
# Density = 2.155789 g / cm^3
# Si number density = 21.607065 Si / 1000 Ang^3
#
#
#
# Elastic Constant Matrix: (Units=GPa)
#
#
# Indices 1 2 3 4 5 6 
#
# 1 73.5144 -11.6666 7.9768 0.0000 4.8796 0.0000
# 2 -11.6666 46.7070 3.1266 0.0000 -9.2879 0.0000
# 3 7.9768 3.1266 39.7961 0.0000 2.4992 0.0000
# 4 0.0000 0.0000 0.0000 22.0461 0.0000 -9.5583
# 5 4.8796 -9.2879 2.4992 0.0000 47.1447 0.0000
# 6 0.0000 0.0000 0.0000 -9.5583 0.0000 34.7343
#
#
#
# Elastic Compliance Matrix: (Units=1/GPa)
#
#
# Indices 1 2 3 4 5 6 
#
# 1 0.014580 0.003734 -0.003178 0.000000 -0.000605 0.000000
# 2 0.003734 0.023405 -0.002862 0.000000 0.004376 0.000000
# 3 -0.003178 -0.002862 0.026092 0.000000 -0.001618 0.000000
# 4 0.000000 0.000000 0.000000 0.051505 0.000000 0.014173
# 5 -0.000605 0.004376 -0.001618 0.000000 0.022222 0.000000
# 6 0.000000 0.000000 0.000000 0.014173 0.000000 0.032690
#
#
# Mechanical properties :
#
#
# Convention : Reuss Voigt Hill
#
# Bulk Modulus (GPa) = 16.81654 17.65455 17.23554
# Shear Modulus (GPa) = 25.65073 31.49040 28.57057
#
# Velocity S-wave (km/s) = 3.44924 3.82175 3.64026
# Velocity P-wave (km/s) = 4.86444 5.25955 5.06584
#
# Compressibility (1/GPa) = 0.05946528
#
# Stress axis : x y z
#
# Youngs Moduli (GPa) = 68.58532 42.72655 38.32658
#
# Poissons Ratio (x) = -0.15956 0.12180
# Poissons Ratio (y) = -0.25612 0.10969
# Poissons Ratio (z) = 0.21796 0.12229
#
# Static dielectric constant tensor:
#      x y z
#    x 1.792390 0.000000 0.027750 
#    y 0.000000 1.794380 0.000000 
#    z 0.027750 0.000000 1.779010 
# 
# From -- ./inp_files/313227.got.cif
#   From: 2010.05.17/outbox.cif.g08.bks.cpg/sg15_157_cif.got.tgz:313227.got - 2010.06.03 18:47:42.
