data_PCOD9281328
_publ_section_title
;
Structure prediction by ZEFSAII (Michael W. Deem and Ramdas Pophale) SiO2 
 PCOD9281328
Probable space group: C 2/C
;
_chemical_formula_sum "Si O2"
_cell_formula_units_Z 52
_cell_length_a 12.108756
_cell_length_b 29.505493
_cell_length_c 7.289030
_cell_angle_alpha 90.000000
_cell_angle_beta 107.727216
_cell_angle_gamma 90.000000
_cell_volume 2480.532127
_symmetry_space_group_name_H-M "C 2/C"
_symmetry_group_IT_number 15
_symmetry_cell_setting 'monoclinic'
loop_
_space_group_symop_operation_xyz
x,y,z
-x,y,1/2-z
-x,-y,-z
x,-y,1/2+z
1/2+x,1/2+y,z
1/2-x,1/2+y,1/2-z
1/2-x,1/2-y,-z
1/2+x,1/2-y,1/2+z
loop_
_atom_site_type_symbol
_atom_site_label
_atom_site_fract_x
_atom_site_fract_y
_atom_site_fract_z
Si Si1 0.189798 0.654969 0.622456
Si Si2 0.353223 0.957686 0.826679
Si Si3 0.500000 0.322937 0.750000
Si Si4 0.551601 0.819372 0.594983
Si Si5 0.842278 0.228440 0.903226
Si Si6 0.899307 0.557876 0.921669
Si Si7 0.766415 0.128749 0.244490
O O1 0.282460 0.687807 0.763569
O O2 0.157095 0.604376 0.675040
O O3 0.238299 0.644692 0.439958
O O4 0.066481 0.681832 0.578303
O O5 0.383540 0.944321 0.633731
O O6 0.245939 0.924421 0.805077
O O7 0.341107 0.011704 0.822025
O O8 0.460397 0.946270 0.018912
O O9 0.451861 0.291495 0.565034
O O10 0.609841 0.352282 0.745703
O O11 0.500000 0.843666 0.750000
O O12 0.607666 0.771594 0.680329
O O13 0.659713 0.848094 0.578862
O O14 0.750000 0.250000 0.000000
#
# Coordination Sequence:
#
# PCOD9281328 Si02
#       7
#     8   8   4   8   8   8   8
#     4  10  22  39  65  86 119 160 206 246 310 361
#     4   9  17  33  58  90 125 150 192 243 312 353
#     4  12  26  40  56  84 126 160 206 252 310 352
#     4  10  21  38  61  85 115 155 200 251 303 349
#     4  12  25  41  57  87 122 160 205 259 293 367
#     4   9  17  33  59  93 120 151 190 251 301 368
#     4  10  21  40  60  87 123 163 194 251 299 368
#
# _framework density 20.963245000000001
#
# number of rings (size 3 to 8) (size 9 to 14) (size 15 to 20)
#    0.000    1.846    3.077    0.923    2.154    2.462 
#    0.000    1.538    0.000    8.308    0.000    0.000 
#    0.000    0.000    0.000    0.000    0.000    0.000 
#
# Total GULP energy -144978.368435 kJ/mol
# GULP energy per Si atom -5576.091094 kJ/mol
# Density = 2.091553 g / cm^3
# Si number density = 20.963245 Si / 1000 Ang^3
#
#
#
# Elastic Constant Matrix: (Units=GPa)
#
#
# Indices 1 2 3 4 5 6 
#
# 1 102.3969 35.8182 6.2380 0.0000 12.7295 0.0000
# 2 35.8182 178.7230 41.2494 0.0000 16.6301 0.0000
# 3 6.2380 41.2494 63.3517 0.0000 17.0529 0.0000
# 4 0.0000 0.0000 0.0000 36.8511 0.0000 7.0206
# 5 12.7295 16.6301 17.0529 0.0000 31.4045 0.0000
# 6 0.0000 0.0000 0.0000 7.0206 0.0000 37.9924
#
#
#
# Elastic Compliance Matrix: (Units=1/GPa)
#
#
# Indices 1 2 3 4 5 6 
#
# 1 0.010933 -0.002138 0.001410 0.000000 -0.004065 0.000000
# 2 -0.002138 0.007053 -0.004228 0.000000 -0.000572 0.000000
# 3 0.001410 -0.004228 0.021023 0.000000 -0.009748 0.000000
# 4 0.000000 0.000000 0.000000 0.028126 0.000000 -0.005197
# 5 -0.004065 -0.000572 -0.009748 0.000000 0.039087 0.000000
# 6 0.000000 0.000000 0.000000 -0.005197 0.000000 0.027281
#
#
# Mechanical properties :
#
#
# Convention : Reuss Voigt Hill
#
# Bulk Modulus (GPa) = 34.36783 56.78698 45.57741
# Shear Modulus (GPa) = 32.65532 38.66068 35.65800
#
# Velocity S-wave (km/s) = 3.95111 4.29909 4.12876
# Velocity P-wave (km/s) = 6.10286 7.19656 6.67216
#
# Compressibility (1/GPa) = 0.02909698
#
# Stress axis : x y z
#
# Youngs Moduli (GPa) = 91.46326 141.78792 47.56756
#
# Poissons Ratio (x) = 0.30319 -0.06707
# Poissons Ratio (y) = 0.19558 0.20109
# Poissons Ratio (z) = -0.12896 0.59942
#
# Static dielectric constant tensor:
#      x y z
#    x 1.789250 0.000000 -0.141810 
#    y 0.000000 1.779040 0.000000 
#    z -0.141810 0.000000 2.138390 
# 
# From -- ./inp_files/35350.got.cif
#   From: 2010.05.17/outbox.cif.g08.bks.cpg/sg15_18_cif.got.tgz:35350.got - 2010.06.03 18:47:42.
