data_PCOD9281282
_publ_section_title
;
Structure prediction by ZEFSAII (Michael W. Deem and Ramdas Pophale) SiO2 
 PCOD9281282
Probable space group: C 2/C
;
_chemical_formula_sum "Si O2"
_cell_formula_units_Z 48
_cell_length_a 16.586118
_cell_length_b 12.842598
_cell_length_c 11.284703
_cell_angle_alpha 90.000000
_cell_angle_beta 116.870596
_cell_angle_gamma 90.000000
_cell_volume 2144.208624
_symmetry_space_group_name_H-M "C 2/C"
_symmetry_group_IT_number 15
_symmetry_cell_setting 'monoclinic'
loop_
_space_group_symop_operation_xyz
x,y,z
-x,y,1/2-z
-x,-y,-z
x,-y,1/2+z
1/2+x,1/2+y,z
1/2-x,1/2+y,1/2-z
1/2-x,1/2-y,-z
1/2+x,1/2-y,1/2+z
loop_
_atom_site_type_symbol
_atom_site_label
_atom_site_fract_x
_atom_site_fract_y
_atom_site_fract_z
Si Si1 0.880214 0.620839 0.919793
Si Si2 0.156746 0.170217 0.192733
Si Si3 0.222674 0.129066 0.477972
Si Si4 0.220446 0.412395 0.912766
Si Si5 0.552391 0.916121 0.667070
Si Si6 0.478472 0.441253 0.608152
O O1 0.841190 0.705609 0.804933
O O2 0.907457 0.510096 0.883657
O O3 0.804665 0.617604 0.971352
O O4 0.977211 0.649627 0.046410
O O5 0.215861 0.111996 0.331072
O O6 0.187593 0.127309 0.085277
O O7 0.054045 0.147200 0.156671
O O8 0.250000 0.250000 0.500000
O O9 0.121558 0.105928 0.457450
O O10 0.280678 0.038664 0.579395
O O11 0.141297 0.363145 0.779243
O O12 0.500000 0.957386 0.750000
O O13 0.500000 0.497665 0.750000
O O14 0.500000 0.500000 0.500000
#
# Coordination Sequence:
#
# PCOD9281282 Si02
#       6
#     8   8   8   8   8   8
#     4  10  21  38  60  90 126 167 213 267 338 402
#     4  11  23  39  64  91 129 171 219 273 333 413
#     4  11  24  40  66  98 127 170 226 275 335 404
#     4  11  21  39  62  89 134 162 217 272 341 396
#     4   9  20  37  61  86 126 167 211 270 337 397
#     4  10  22  44  65  91 129 176 222 271 336 405
#
# _framework density 22.385883
#
# number of rings (size 3 to 8) (size 9 to 14) (size 15 to 20)
#    0.000    1.667    1.667    2.500    0.000    7.333 
#    0.000    2.500    0.000    0.000    0.000    0.000 
#    0.000    0.000    0.000    0.000    0.000    0.000 
#
# Total GULP energy -133659.170852 kJ/mol
# GULP energy per Si atom -5569.132119 kJ/mol
# Density = 2.233493 g / cm^3
# Si number density = 22.385883 Si / 1000 Ang^3
#
#
#
# Elastic Constant Matrix: (Units=GPa)
#
#
# Indices 1 2 3 4 5 6 
#
# 1 110.5982 4.1614 24.8581 0.0000 -19.3125 0.0000
# 2 4.1614 58.8632 11.8735 0.0000 -3.2163 0.0000
# 3 24.8581 11.8735 67.5181 0.0000 -9.8702 0.0000
# 4 0.0000 0.0000 0.0000 27.9040 0.0000 -2.0043
# 5 -19.3125 -3.2163 -9.8702 0.0000 36.2245 0.0000
# 6 0.0000 0.0000 0.0000 -2.0043 0.0000 21.5511
#
#
#
# Elastic Compliance Matrix: (Units=1/GPa)
#
#
# Indices 1 2 3 4 5 6 
#
# 1 0.010597 0.000164 -0.003231 0.000000 0.004784 0.000000
# 2 0.000164 0.017635 -0.003041 0.000000 0.000825 0.000000
# 3 -0.003231 -0.003041 0.016918 0.000000 0.002617 0.000000
# 4 0.000000 0.000000 0.000000 0.036078 0.000000 0.003355
# 5 0.004784 0.000825 0.002617 0.000000 0.030942 0.000000
# 6 0.000000 0.000000 0.000000 0.003355 0.000000 0.046713
#
#
# Mechanical properties :
#
#
# Convention : Reuss Voigt Hill
#
# Bulk Modulus (GPa) = 30.36380 35.41838 32.89109
# Shear Modulus (GPa) = 27.46067 30.20837 28.83452
#
# Velocity S-wave (km/s) = 3.50622 3.67746 3.59286
# Velocity P-wave (km/s) = 5.47583 5.82131 5.65121
#
# Compressibility (1/GPa) = 0.03293396
#
# Stress axis : x y z
#
# Youngs Moduli (GPa) = 94.36508 56.70399 59.10941
#
# Poissons Ratio (x) = -0.00930 0.19099
# Poissons Ratio (y) = -0.01547 0.17976
# Poissons Ratio (z) = 0.30490 0.17244
#
# Static dielectric constant tensor:
#      x y z
#    x 1.820790 0.000000 0.010050 
#    y 0.000000 1.844380 0.000000 
#    z 0.010050 0.000000 1.908480 
# 
# From -- ./inp_files/104170.got.cif
#   From: 2010.05.17/outbox.cif.g08.bks.cpg/sg15_53_cif.got.tgz:104170.got - 2010.06.03 18:47:42.
