data_PCOD9281899
_publ_section_title
;
Structure prediction by ZEFSAII (Michael W. Deem and Ramdas Pophale) SiO2 
 PCOD9281899
Probable space group: C 2/C
;
_chemical_formula_sum "Si O2"
_cell_formula_units_Z 60
_cell_length_a 13.842439
_cell_length_b 16.819459
_cell_length_c 10.399756
_cell_angle_alpha 90.000000
_cell_angle_beta 80.753628
_cell_angle_gamma 90.000000
_cell_volume 2389.834479
_symmetry_space_group_name_H-M "C 2/C"
_symmetry_group_IT_number 15
_symmetry_cell_setting 'monoclinic'
loop_
_space_group_symop_operation_xyz
x,y,z
-x,y,1/2-z
-x,-y,-z
x,-y,1/2+z
1/2+x,1/2+y,z
1/2-x,1/2+y,1/2-z
1/2-x,1/2-y,-z
1/2+x,1/2-y,1/2+z
loop_
_atom_site_type_symbol
_atom_site_label
_atom_site_fract_x
_atom_site_fract_y
_atom_site_fract_z
Si Si1 0.504298 0.076830 0.903717
Si Si2 0.216700 0.996089 0.346682
Si Si3 0.000000 0.287320 0.750000
Si Si4 0.186236 0.569622 0.421644
Si Si5 0.648795 0.320633 0.374467
Si Si6 0.144184 0.161555 0.417144
Si Si7 0.633710 0.179318 0.029708
Si Si8 0.166746 0.785674 0.645424
O O1 0.500000 0.065401 0.750000
O O2 0.706892 0.981663 0.785367
O O3 0.406741 0.113692 0.990194
O O4 0.600422 0.129336 0.913998
O O5 0.274424 0.982577 0.467624
O O6 0.158645 0.913243 0.335161
O O7 0.139341 0.067454 0.393842
O O8 0.917175 0.232404 0.703021
O O9 0.939734 0.349478 0.847741
O O10 0.257216 0.641495 0.373585
O O11 0.000000 0.500000 0.500000
O O12 0.760965 0.289103 0.357064
O O13 0.609990 0.302313 0.526716
O O14 0.258631 0.169972 0.437029
O O15 0.103925 0.227276 0.524064
O O16 0.113482 0.202087 0.289977
#
# Coordination Sequence:
#
# PCOD9281899 Si02
#       8
#     8   8   4   8   8   8   8   8
#     4  12  27  43  66 103 145 184 222 290 358 417
#     4  10  22  38  70  96 130 175 228 280 334 418
#     4  12  24  42  66 104 140 178 222 302 354 418
#     4  10  21  39  63  94 130 173 222 280 338 403
#     4  10  21  38  66 100 132 176 227 282 351 413
#     4  10  22  44  65  98 129 186 231 290 331 423
#     4  11  26  41  69  96 142 178 231 280 358 416
#     4   9  19  39  66  92 127 175 236 273 330 425
#
# _framework density 25.106341
#
# number of rings (size 3 to 8) (size 9 to 14) (size 15 to 20)
#    0.000    1.600    1.333    2.400    4.667    5.333 
#    0.000    0.667    1.467    0.000    0.000    0.000 
#    0.000    0.000    0.000    0.000    0.000    0.000 
#
# Total GULP energy -167081.104890 kJ/mol
# GULP energy per Si atom -5569.370163 kJ/mol
# Density = 2.504920 g / cm^3
# Si number density = 25.106341 Si / 1000 Ang^3
#
#
#
# Elastic Constant Matrix: (Units=GPa)
#
#
# Indices 1 2 3 4 5 6 
#
# 1 50.5961 -0.0927 28.1667 0.0000 12.1941 0.0000
# 2 -0.0927 120.8695 25.9855 0.0000 12.4242 0.0000
# 3 28.1667 25.9855 151.2231 0.0000 7.2557 0.0000
# 4 0.0000 0.0000 0.0000 38.4703 0.0000 7.1419
# 5 12.1941 12.4242 7.2557 0.0000 39.9705 0.0000
# 6 0.0000 0.0000 0.0000 7.1419 0.0000 7.0303
#
#
#
# Elastic Compliance Matrix: (Units=1/GPa)
#
#
# Indices 1 2 3 4 5 6 
#
# 1 0.023913 0.001687 -0.004407 0.000000 -0.007020 0.000000
# 2 0.001687 0.008949 -0.001709 0.000000 -0.002986 0.000000
# 3 -0.004407 -0.001709 0.007704 0.000000 0.000477 0.000000
# 4 0.000000 0.000000 0.000000 0.032036 0.000000 -0.032544
# 5 -0.007020 -0.002986 0.000477 0.000000 0.028002 0.000000
# 6 0.000000 0.000000 0.000000 -0.032544 0.000000 0.175304
#
#
# Mechanical properties :
#
#
# Convention : Reuss Voigt Hill
#
# Bulk Modulus (GPa) = 31.53672 47.86752 39.70212
# Shear Modulus (GPa) = 16.93000 35.00282 25.96641
#
# Velocity S-wave (km/s) = 2.59961 3.73793 3.21948
# Velocity P-wave (km/s) = 4.64749 6.14303 5.44683
#
# Compressibility (1/GPa) = 0.03170907
#
# Stress axis : x y z
#
# Youngs Moduli (GPa) = 41.81876 111.74424 129.79686
#
# Poissons Ratio (x) = -0.18856 0.57203
# Poissons Ratio (y) = -0.07056 0.22179
# Poissons Ratio (z) = 0.18430 0.19094
#
# Static dielectric constant tensor:
#      x y z
#    x 1.363270 0.000000 0.419010 
#    y 0.000000 2.521670 0.000000 
#    z 0.419010 0.000000 1.943690 
# 
# From -- ./inp_files/98325.got.cif
#   From: 2010.05.17/outbox.cif.g08.bks.cpg/sg15_50_cif.got.tgz:98325.got - 2010.06.03 18:47:42.
