data_PCOD9281077
_publ_section_title
;
Structure prediction by ZEFSAII (Michael W. Deem and Ramdas Pophale) SiO2 
 PCOD9281077
Probable space group: C 2/C
;
_chemical_formula_sum "Si O2"
_cell_formula_units_Z 36
_cell_length_a 10.674080
_cell_length_b 26.566552
_cell_length_c 5.395257
_cell_angle_alpha 90.000000
_cell_angle_beta 111.387824
_cell_angle_gamma 90.000000
_cell_volume 1424.589232
_symmetry_space_group_name_H-M "C 2/C"
_symmetry_group_IT_number 15
_symmetry_cell_setting 'monoclinic'
loop_
_space_group_symop_operation_xyz
x,y,z
-x,y,1/2-z
-x,-y,-z
x,-y,1/2+z
1/2+x,1/2+y,z
1/2-x,1/2+y,1/2-z
1/2-x,1/2-y,-z
1/2+x,1/2-y,1/2+z
loop_
_atom_site_type_symbol
_atom_site_label
_atom_site_fract_x
_atom_site_fract_y
_atom_site_fract_z
Si Si1 0.000000 0.544103 0.750000
Si Si2 0.220313 0.973687 0.238308
Si Si3 0.715808 0.119054 0.993948
Si Si4 0.165837 0.720251 0.732147
Si Si5 0.618843 0.318888 0.501240
O O1 0.884130 0.520901 0.842883
O O2 0.901994 0.580731 0.510833
O O3 0.170634 0.993112 0.467402
O O4 0.206906 0.914999 0.156459
O O5 0.824754 0.141227 0.262035
O O6 0.637683 0.167705 0.841539
O O7 0.254848 0.699462 0.569205
O O8 0.067434 0.764190 0.567406
O O9 0.250000 0.750000 0.000000
O O10 0.500000 0.339560 0.250000
#
# Coordination Sequence:
#
# PCOD9281077 Si02
#       5
#     4   8   8   8   8
#     4   8  20  34  56  88 122 152 198 248 306 370
#     4  10  21  38  60  91 125 161 200 254 317 366
#     4   9  21  33  57  86 116 155 195 246 300 363
#     4   9  20  37  54  84 111 151 202 243 298 348
#     4  10  21  38  58  81 119 158 196 245 303 364
#
# _framework density 25.270441000000002
#
# number of rings (size 3 to 8) (size 9 to 14) (size 15 to 20)
#    1.333    1.333    0.000    0.667    3.111    8.889 
#    4.000    0.000    0.000    1.333    0.000    0.000 
#    0.000    0.000    0.000    0.000    0.000    0.000 
#
# Total GULP energy -100236.259876 kJ/mol
# GULP energy per Si atom -5568.681104 kJ/mol
# Density = 2.521292 g / cm^3
# Si number density = 25.270441 Si / 1000 Ang^3
#
#
#
# Elastic Constant Matrix: (Units=GPa)
#
#
# Indices 1 2 3 4 5 6 
#
# 1 37.7845 18.4590 23.0205 0.0000 6.8576 0.0000
# 2 18.4590 169.1882 40.1255 0.0000 15.5620 0.0000
# 3 23.0205 40.1255 93.1578 0.0000 14.2541 0.0000
# 4 0.0000 0.0000 0.0000 37.3306 0.0000 -13.1277
# 5 6.8576 15.5620 14.2541 0.0000 31.4955 0.0000
# 6 0.0000 0.0000 0.0000 -13.1277 0.0000 18.4799
#
#
#
# Elastic Compliance Matrix: (Units=1/GPa)
#
#
# Indices 1 2 3 4 5 6 
#
# 1 0.031907 -0.001601 -0.006718 0.000000 -0.003115 0.000000
# 2 -0.001601 0.006797 -0.002226 0.000000 -0.002003 0.000000
# 3 -0.006718 -0.002226 0.013926 0.000000 -0.003740 0.000000
# 4 0.000000 0.000000 0.000000 0.035708 0.000000 0.025366
# 5 -0.003115 -0.002003 -0.003740 0.000000 0.035111 0.000000
# 6 0.000000 0.000000 0.000000 0.025366 0.000000 0.072132
#
#
# Mechanical properties :
#
#
# Convention : Reuss Voigt Hill
#
# Bulk Modulus (GPa) = 31.70641 51.48227 41.59434
# Shear Modulus (GPa) = 22.00858 32.02957 27.01908
#
# Velocity S-wave (km/s) = 2.95434 3.56402 3.27340
# Velocity P-wave (km/s) = 4.92053 6.11172 5.54818
#
# Compressibility (1/GPa) = 0.03153936
#
# Stress axis : x y z
#
# Youngs Moduli (GPa) = 31.34137 147.11651 71.81052
#
# Poissons Ratio (x) = 0.23557 0.48244
# Poissons Ratio (y) = 0.05019 0.15983
# Poissons Ratio (z) = 0.21056 0.32743
#
# Static dielectric constant tensor:
#      x y z
#    x -8.710530 0.000000 -8.451780 
#    y 0.000000 2.030370 0.000000 
#    z -8.451780 0.000000 -4.432320 
# 
# From -- ./inp_files/5618.got.cif
#   From: 2010.05.17/outbox.cif.g08.bks.cpg/sg15_3_cif.got.tgz:5618.got - 2010.06.03 18:47:42.
