data_PCOD9281060
_publ_section_title
;
Structure prediction by ZEFSAII (Michael W. Deem and Ramdas Pophale) SiO2 
 PCOD9281060
Probable space group: C 2/C
;
_chemical_formula_sum "Si O2"
_cell_formula_units_Z 56
_cell_length_a 9.982842
_cell_length_b 26.309397
_cell_length_c 11.073061
_cell_angle_alpha 90.000000
_cell_angle_beta 116.726808
_cell_angle_gamma 90.000000
_cell_volume 2597.541917
_symmetry_space_group_name_H-M "C 2/C"
_symmetry_group_IT_number 15
_symmetry_cell_setting 'monoclinic'
loop_
_space_group_symop_operation_xyz
x,y,z
-x,y,1/2-z
-x,-y,-z
x,-y,1/2+z
1/2+x,1/2+y,z
1/2-x,1/2+y,1/2-z
1/2-x,1/2-y,-z
1/2+x,1/2-y,1/2+z
loop_
_atom_site_type_symbol
_atom_site_label
_atom_site_fract_x
_atom_site_fract_y
_atom_site_fract_z
Si Si1 0.908912 0.489077 0.588030
Si Si2 0.500000 0.354674 0.750000
Si Si3 0.253421 0.913307 0.974610
Si Si4 0.715250 0.149154 0.775978
Si Si5 0.548327 0.231376 0.432930
Si Si6 0.692494 0.260259 0.747133
Si Si7 0.549039 0.119224 0.465355
Si Si8 0.500000 0.317668 0.250000
O O1 0.770203 0.527071 0.511345
O O2 0.878534 0.428836 0.572070
O O3 0.000000 0.500249 0.750000
O O4 0.000000 0.500000 0.500000
O O5 0.408362 0.391499 0.624861
O O6 0.619650 0.313811 0.749775
O O7 0.297793 0.886595 0.116502
O O8 0.375136 0.895701 0.921801
O O9 0.669956 0.205652 0.803533
O O10 0.617990 0.128147 0.626122
O O11 0.884574 0.153271 0.789174
O O12 0.611276 0.245903 0.588318
O O13 0.368781 0.232464 0.344447
O O14 0.583312 0.173003 0.415240
O O15 0.598412 0.278453 0.369941
#
# Coordination Sequence:
#
# PCOD9281060 Si02
#       8
#     8   4   8   8   8   8   8   4
#     4  10  22  43  70  98 129 166 226 291 344 403
#     4  12  22  34  61  94 135 170 216 276 330 406
#     4  11  22  40  63  95 132 169 220 285 345 399
#     4  10  22  39  65  91 134 178 219 272 335 415
#     4  10  21  38  57  90 134 173 219 271 324 406
#     4  10  22  35  57  94 133 179 216 264 331 401
#     4  10  21  39  66  99 120 173 223 282 338 403
#     4  10  22  40  55  92 135 180 216 260 334 410
#
# _framework density 21.558843
#
# number of rings (size 3 to 8) (size 9 to 14) (size 15 to 20)
#    0.000    1.714    1.429    3.857    5.000    6.286 
#    0.000    2.143    0.000    5.143    0.000    0.000 
#    0.000    0.000    0.000    0.000    0.000    0.000 
#
# Total GULP energy -155988.383922 kJ/mol
# GULP energy per Si atom -5571.013711 kJ/mol
# Density = 2.150977 g / cm^3
# Si number density = 21.558843 Si / 1000 Ang^3
#
#
#
# Elastic Constant Matrix: (Units=GPa)
#
#
# Indices 1 2 3 4 5 6 
#
# 1 79.7154 24.4293 13.6845 0.0000 16.1945 0.0000
# 2 24.4293 131.6458 23.5315 0.0000 12.1200 0.0000
# 3 13.6845 23.5315 79.6897 0.0000 17.9416 0.0000
# 4 0.0000 0.0000 0.0000 4.7339 0.0000 -17.2532
# 5 16.1945 12.1200 17.9416 0.0000 29.6465 0.0000
# 6 0.0000 0.0000 0.0000 -17.2532 0.0000 1.0085
#
#
#
# Elastic Compliance Matrix: (Units=1/GPa)
#
#
# Indices 1 2 3 4 5 6 
#
# 1 0.014635 -0.002012 -0.000352 0.000000 -0.006959 0.000000
# 2 -0.002012 0.008415 -0.001867 0.000000 -0.001211 0.000000
# 3 -0.000352 -0.001867 0.014987 0.000000 -0.008115 0.000000
# 4 0.000000 0.000000 0.000000 -0.003443 0.000000 -0.058905
# 5 -0.006959 -0.001211 -0.008115 0.000000 0.042938 0.000000
# 6 0.000000 0.000000 0.000000 -0.058905 0.000000 -0.016162
#
#
# Mechanical properties :
#
#
# Convention : Reuss Voigt Hill
#
# Bulk Modulus (GPa) = 33.81195 46.03794 39.92494
# Shear Modulus (GPa) = 62.74265 22.37149 42.55707
#
# Velocity S-wave (km/s) = 5.40057 3.22482 4.44779
# Velocity P-wave (km/s) = 7.38958 5.93859 6.70346
#
# Compressibility (1/GPa) = 0.02957534
#
# Stress axis : x y z
#
# Youngs Moduli (GPa) = 68.32704 118.83962 66.72332
#
# Poissons Ratio (x) = 0.23913 0.02351
# Poissons Ratio (y) = 0.13749 0.12454
# Poissons Ratio (z) = 0.02407 0.22181
#
# Static dielectric constant tensor:
#      x y z
#    x 1.834770 0.000000 -0.059640 
#    y 0.000000 1.817360 0.000000 
#    z -0.059640 0.000000 1.803990 
# 
# From -- ./inp_files/90947.got.cif
#   From: 2010.05.17/outbox.cif.g08.bks.cpg/sg15_46_cif.got.tgz:90947.got - 2010.06.03 18:47:42.
