data_PCOD9281291
_publ_section_title
;
Structure prediction by ZEFSAII (Michael W. Deem and Ramdas Pophale) SiO2 
 PCOD9281291
Probable space group: C 2/C
;
_chemical_formula_sum "Si O2"
_cell_formula_units_Z 64
_cell_length_a 15.427863
_cell_length_b 23.664905
_cell_length_c 18.323961
_cell_angle_alpha 90.000000
_cell_angle_beta 151.773410
_cell_angle_gamma 90.000000
_cell_volume 3164.128013
_symmetry_space_group_name_H-M "C 2/C"
_symmetry_group_IT_number 15
_symmetry_cell_setting 'monoclinic'
loop_
_space_group_symop_operation_xyz
x,y,z
-x,y,1/2-z
-x,-y,-z
x,-y,1/2+z
1/2+x,1/2+y,z
1/2-x,1/2+y,1/2-z
1/2-x,1/2-y,-z
1/2+x,1/2-y,1/2+z
loop_
_atom_site_type_symbol
_atom_site_label
_atom_site_fract_x
_atom_site_fract_y
_atom_site_fract_z
Si Si1 0.715642 0.579112 0.201829
Si Si2 0.105196 0.594366 0.013874
Si Si3 0.585510 0.983428 0.238632
Si Si4 0.822237 0.317899 0.315283
Si Si5 0.575147 0.169992 0.231477
Si Si6 0.062484 0.240487 0.974365
Si Si7 0.818572 0.873276 0.425661
Si Si8 0.812267 0.811773 0.570639
O O1 0.761641 0.575730 0.321953
O O2 0.772272 0.523412 0.199037
O O3 0.855373 0.625072 0.274301
O O4 0.511674 0.603644 0.037448
O O5 0.060694 0.541671 0.928117
O O6 0.913915 0.621523 0.903122
O O7 0.186905 0.647671 0.028760
O O8 0.500000 0.007978 0.250000
O O9 0.691970 0.927351 0.341848
O O10 0.942911 0.271301 0.449096
O O11 0.613226 0.298040 0.176396
O O12 0.791688 0.327986 0.205841
O O13 0.500000 0.144659 0.250000
O O14 0.753077 0.205513 0.387024
O O15 0.436862 0.210723 0.085858
O O16 0.853645 0.846003 0.528539
O O17 0.750000 0.750000 0.500000
O O18 0.000000 0.802880 0.750000
#
# Coordination Sequence:
#
# PCOD9281291 Si02
#       8
#     8   8   8   8   8   8   8   8
#     4  12  23  43  68  94 124 175 225 272 323 399
#     4  11  24  43  64  94 133 170 218 271 331 393
#     4  11  24  44  70  95 125 169 219 278 334 389
#     4  10  22  35  62  90 124 166 216 254 318 399
#     4  11  22  38  61  93 127 164 214 265 327 392
#     4  10  21  38  60  91 128 172 206 265 330 396
#     4  11  24  43  64  94 133 170 218 271 331 393
#     4  12  28  40  66 102 142 180 218 270 335 402
#
# _framework density 20.226742000000002
#
# number of rings (size 3 to 8) (size 9 to 14) (size 15 to 20)
#    0.000    1.000    5.000    1.500    5.250    0.000 
#    0.000    0.000    0.000    0.000    0.000    0.000 
#    0.000    0.000    0.000    0.000    0.000    0.000 
#
# Total GULP energy -178319.836277 kJ/mol
# GULP energy per Si atom -5572.494884 kJ/mol
# Density = 2.018070 g / cm^3
# Si number density = 20.226742 Si / 1000 Ang^3
#
#
#
# Elastic Constant Matrix: (Units=GPa)
#
#
# Indices 1 2 3 4 5 6 
#
# 1 82.3302 29.9974 19.6548 -0.0012 -4.9937 0.0012
# 2 29.9974 61.6390 11.0496 -0.0012 -0.8128 0.0021
# 3 19.6548 11.0496 91.5102 -0.0001 -14.8505 -0.0019
# 4 -0.0012 -0.0012 -0.0001 9.0769 0.0005 -7.3228
# 5 -4.9937 -0.8128 -14.8505 0.0005 18.8406 -0.0016
# 6 0.0012 0.0021 -0.0019 -7.3228 -0.0016 29.5797
#
#
#
# Elastic Compliance Matrix: (Units=1/GPa)
#
#
# Indices 1 2 3 4 5 6 
#
# 1 0.015350 -0.007066 -0.002102 0.000001 0.002107 0.000000
# 2 -0.007066 0.019851 -0.001197 0.000001 -0.001960 -0.000001
# 3 -0.002102 -0.001197 0.013101 0.000001 0.009718 0.000002
# 4 0.000001 0.000001 0.000001 0.137663 0.000000 0.034080
# 5 0.002107 -0.001960 0.009718 0.000000 0.061210 0.000004
# 6 0.000000 -0.000001 0.000002 0.034080 0.000004 0.042244
#
#
# Mechanical properties :
#
#
# Convention : Reuss Voigt Hill
#
# Bulk Modulus (GPa) = 36.26901 39.65365 37.96133
# Shear Modulus (GPa) = 15.65728 23.15128 19.40428
#
# Velocity S-wave (km/s) = 2.78526 3.38685 3.10068
# Velocity P-wave (km/s) = 5.32106 5.91113 5.62384
#
# Compressibility (1/GPa) = 0.02757175
#
# Stress axis : x y z
#
# Youngs Moduli (GPa) = 65.14545 50.37535 76.33138
#
# Poissons Ratio (x) = 0.35594 0.16044
# Poissons Ratio (y) = 0.46031 0.09140
# Poissons Ratio (z) = 0.13693 0.06032
#
# Static dielectric constant tensor:
#      x y z
#    x 1.813720 0.000000 -0.033590 
#    y 0.000000 1.728110 0.000000 
#    z -0.033590 0.000000 1.777730 
# 
# From -- ./inp_files/207352.got.cif
#   From: 2010.05.17/outbox.cif.g08.bks.cpg/sg15_104_cif.got.tgz:207352.got - 2010.06.03 18:47:42.
