data_PCOD9281207
_publ_section_title
;
Structure prediction by ZEFSAII (Michael W. Deem and Ramdas Pophale) SiO2 
 PCOD9281207
Probable space group: C 2/C
;
_chemical_formula_sum "Si O2"
_cell_formula_units_Z 60
_cell_length_a 17.684296
_cell_length_b 12.120181
_cell_length_c 13.315124
_cell_angle_alpha 90.000000
_cell_angle_beta 102.520449
_cell_angle_gamma 90.000000
_cell_volume 2786.051997
_symmetry_space_group_name_H-M "C 2/C"
_symmetry_group_IT_number 15
_symmetry_cell_setting 'monoclinic'
loop_
_space_group_symop_operation_xyz
x,y,z
-x,y,1/2-z
-x,-y,-z
x,-y,1/2+z
1/2+x,1/2+y,z
1/2-x,1/2+y,1/2-z
1/2-x,1/2-y,-z
1/2+x,1/2-y,1/2+z
loop_
_atom_site_type_symbol
_atom_site_label
_atom_site_fract_x
_atom_site_fract_y
_atom_site_fract_z
Si Si1 0.994355 0.370467 0.006273
Si Si2 0.245027 0.648276 0.136360
Si Si3 0.000000 0.920210 0.250000
Si Si4 0.864387 0.310402 0.568742
Si Si5 0.100154 0.282575 0.710078
Si Si6 0.869149 0.727405 0.569984
Si Si7 0.926698 0.964121 0.541869
Si Si8 0.217066 0.924968 0.448922
O O1 0.075549 0.309204 0.006886
O O2 0.942233 0.335861 0.896263
O O3 0.000000 0.500000 0.000000
O O4 0.945946 0.345841 0.093586
O O5 0.190377 0.694590 0.208286
O O6 0.321814 0.723693 0.149625
O O7 0.268511 0.518585 0.132992
O O8 0.194684 0.669947 0.019866
O O9 0.938859 0.838669 0.288433
O O10 0.951076 0.994978 0.159982
O O11 0.910200 0.337525 0.683729
O O12 0.822851 0.193828 0.584021
O O13 0.798421 0.396796 0.522384
O O14 0.905578 0.836958 0.529834
O O15 0.845744 0.022684 0.493842
O O16 0.000000 0.000000 0.500000
#
# Coordination Sequence:
#
# PCOD9281207 Si02
#       8
#     8   8   4   8   8   8   8   8
#     4  11  21  38  67  90 124 172 216 264 329 396
#     4   9  19  37  59  88 121 164 208 258 322 382
#     4  12  22  40  68  94 126 164 226 270 328 404
#     4  11  20  36  61  91 129 162 213 267 317 391
#     4  11  20  38  61  91 126 164 217 271 314 398
#     4   9  19  36  60  83 122 159 206 256 318 392
#     4  11  21  39  65  95 122 165 214 271 331 386
#     4  10  21  38  59  92 124 165 213 261 325 389
#
# _framework density 21.535848999999999
#
# number of rings (size 3 to 8) (size 9 to 14) (size 15 to 20)
#    0.000    1.600    2.667    4.000    0.000    0.000 
#    4.800    5.333    5.867    0.000    0.000    0.000 
#    0.000    0.000    0.000    0.000    0.000    0.000 
#
# Total GULP energy -167033.491998 kJ/mol
# GULP energy per Si atom -5567.783067 kJ/mol
# Density = 2.148683 g / cm^3
# Si number density = 21.535849 Si / 1000 Ang^3
#
#
#
# Elastic Constant Matrix: (Units=GPa)
#
#
# Indices 1 2 3 4 5 6 
#
# 1 153.0287 40.0715 5.7391 0.0000 -17.7887 0.0000
# 2 40.0715 110.6674 15.4862 0.0000 -8.1264 0.0000
# 3 5.7391 15.4862 26.4064 0.0000 1.3746 0.0000
# 4 0.0000 0.0000 0.0000 18.1010 0.0000 1.1723
# 5 -17.7887 -8.1264 1.3746 0.0000 32.9237 0.0000
# 6 0.0000 0.0000 0.0000 1.1723 0.0000 45.6025
#
#
#
# Elastic Compliance Matrix: (Units=1/GPa)
#
#
# Indices 1 2 3 4 5 6 
#
# 1 0.007597 -0.002435 -0.000406 0.000000 0.003520 0.000000
# 2 -0.002435 0.010866 -0.005927 0.000000 0.001614 0.000000
# 3 -0.000406 -0.005927 0.041612 0.000000 -0.003420 0.000000
# 4 0.000000 0.000000 0.000000 0.055338 0.000000 -0.001423
# 5 0.003520 0.001614 -0.003420 0.000000 0.032816 0.000000
# 6 0.000000 0.000000 0.000000 -0.001423 0.000000 0.021965
#
#
# Mechanical properties :
#
#
# Convention : Reuss Voigt Hill
#
# Bulk Modulus (GPa) = 23.50871 45.85514 34.68193
# Shear Modulus (GPa) = 24.76352 34.57916 29.67134
#
# Velocity S-wave (km/s) = 3.39466 4.01141 3.71585
# Velocity P-wave (km/s) = 5.12881 6.54171 5.87787
#
# Compressibility (1/GPa) = 0.04253742
#
# Stress axis : x y z
#
# Youngs Moduli (GPa) = 131.63239 92.03177 24.03168
#
# Poissons Ratio (x) = 0.22414 0.00976
# Poissons Ratio (y) = 0.32058 0.14244
# Poissons Ratio (z) = 0.05345 0.54547
#
# Static dielectric constant tensor:
#      x y z
#    x 1.908990 0.000000 -0.023070 
#    y 0.000000 1.383530 0.000000 
#    z -0.023070 0.000000 1.782900 
# 
# From -- ./inp_files/160954.got.cif
#   From: 2010.05.17/outbox.cif.g08.bks.cpg/sg15_81_cif.got.tgz:160954.got - 2010.06.03 18:47:42.
