data_PCOD9281745
_publ_section_title
;
Structure prediction by ZEFSAII (Michael W. Deem and Ramdas Pophale) SiO2 
 PCOD9281745
Probable space group: C 2/C
;
_chemical_formula_sum "Si O2"
_cell_formula_units_Z 56
_cell_length_a 9.216833
_cell_length_b 17.370403
_cell_length_c 30.457308
_cell_angle_alpha 90.000000
_cell_angle_beta 141.620954
_cell_angle_gamma 90.000000
_cell_volume 3027.454317
_symmetry_space_group_name_H-M "C 2/C"
_symmetry_group_IT_number 15
_symmetry_cell_setting 'monoclinic'
loop_
_space_group_symop_operation_xyz
x,y,z
-x,y,1/2-z
-x,-y,-z
x,-y,1/2+z
1/2+x,1/2+y,z
1/2-x,1/2+y,1/2-z
1/2-x,1/2-y,-z
1/2+x,1/2-y,1/2+z
loop_
_atom_site_type_symbol
_atom_site_label
_atom_site_fract_x
_atom_site_fract_y
_atom_site_fract_z
Si Si1 0.565816 0.825914 0.672593
Si Si2 0.276341 0.402312 0.371712
Si Si3 0.419255 0.032406 0.433624
Si Si4 0.000000 0.282458 0.250000
Si Si5 0.608047 0.005497 0.669280
Si Si6 0.103341 0.996157 0.681299
Si Si7 0.500000 0.874599 0.750000
Si Si8 0.238534 0.833601 0.517916
O O1 0.493743 0.822736 0.705782
O O2 0.332764 0.818729 0.588846
O O3 0.778002 0.769501 0.711124
O O4 0.643506 0.913503 0.680583
O O5 0.391864 0.438944 0.355289
O O6 0.481998 0.368354 0.450312
O O7 0.097207 0.337420 0.311781
O O8 0.127100 0.466023 0.362362
O O9 0.578872 0.106191 0.460615
O O10 0.143310 0.045519 0.372639
O O11 0.500000 0.000000 0.500000
O O12 0.423333 0.978788 0.390182
O O13 0.812105 0.031376 0.751714
O O14 0.285926 0.932753 0.707374
O O15 0.250000 0.750000 0.500000
#
# Coordination Sequence:
#
# PCOD9281745 Si02
#       8
#     8   8   8   4   8   8   4   8
#     4  10  23  39  62  96 125 166 216 256 320 385
#     4  12  21  41  69  93 129 168 220 261 322 391
#     4  11  24  37  61  94 126 162 213 269 316 373
#     4  12  23  40  68  95 128 174 208 262 329 390
#     4  10  22  38  64  98 117 168 219 264 310 375
#     4  11  19  39  63  94 123 159 213 272 311 369
#     4  10  21  38  64  91 122 160 220 268 311 362
#     4  11  24  40  62  93 132 173 204 256 332 393
#
# _framework density 18.497389999999999
#
# number of rings (size 3 to 8) (size 9 to 14) (size 15 to 20)
#    0.000    1.143    7.143    0.429    8.000    3.429 
#    0.000    2.857    0.000    2.571    0.000    0.000 
#    0.000    0.000    0.000    0.000    0.000    0.000 
#
# Total GULP energy -155951.434874 kJ/mol
# GULP energy per Si atom -5569.694103 kJ/mol
# Density = 1.845529 g / cm^3
# Si number density = 18.497390 Si / 1000 Ang^3
#
#
#
# Elastic Constant Matrix: (Units=GPa)
#
#
# Indices 1 2 3 4 5 6 
#
# 1 90.6256 22.5900 58.5435 0.0000 -13.2866 0.0000
# 2 22.5900 53.8937 21.9187 0.0000 4.1685 0.0000
# 3 58.5435 21.9187 139.7259 0.0000 -3.0676 0.0000
# 4 0.0000 0.0000 0.0000 30.9584 0.0000 10.8188
# 5 -13.2866 4.1685 -3.0676 0.0000 50.9594 0.0000
# 6 0.0000 0.0000 0.0000 10.8188 0.0000 20.2958
#
#
#
# Elastic Compliance Matrix: (Units=1/GPa)
#
#
# Indices 1 2 3 4 5 6 
#
# 1 0.016931 -0.004908 -0.006227 0.000000 0.004441 0.000000
# 2 -0.004908 0.021411 -0.001371 0.000000 -0.003114 0.000000
# 3 -0.006227 -0.001371 0.009961 0.000000 -0.000912 0.000000
# 4 0.000000 0.000000 0.000000 0.039696 0.000000 -0.021160
# 5 0.004441 -0.003114 -0.000912 0.000000 0.020981 0.000000
# 6 0.000000 0.000000 0.000000 -0.021160 0.000000 0.060551
#
#
# Mechanical properties :
#
#
# Convention : Reuss Voigt Hill
#
# Bulk Modulus (GPa) = 42.93302 54.48330 48.70816
# Shear Modulus (GPa) = 24.71512 32.52224 28.61868
#
# Velocity S-wave (km/s) = 3.65929 4.19765 3.93768
# Velocity P-wave (km/s) = 6.41207 7.28095 6.86028
#
# Compressibility (1/GPa) = 0.02329210
#
# Stress axis : x y z
#
# Youngs Moduli (GPa) = 59.06234 46.70602 100.39433
#
# Poissons Ratio (x) = 0.22923 0.62511
# Poissons Ratio (y) = 0.28988 0.13760
# Poissons Ratio (z) = 0.36776 0.06402
#
# Static dielectric constant tensor:
#      x y z
#    x 1.658450 0.000000 0.003940 
#    y 0.000000 1.648100 0.000000 
#    z 0.003940 0.000000 1.645010 
# 
# From -- ./inp_files/289788.got.cif
#   From: 2010.05.17/outbox.cif.g08.bks.cpg/sg15_145_cif.got.tgz:289788.got - 2010.06.03 18:47:42.
