data_PCOD9281864
_publ_section_title
;
Structure prediction by ZEFSAII (Michael W. Deem and Ramdas Pophale) SiO2 
 PCOD9281864
Probable space group: C 2/C
;
_chemical_formula_sum "Si O2"
_cell_formula_units_Z 48
_cell_length_a 29.765188
_cell_length_b 9.694157
_cell_length_c 17.206103
_cell_angle_alpha 90.000000
_cell_angle_beta 149.685423
_cell_angle_gamma 90.000000
_cell_volume 2505.966008
_symmetry_space_group_name_H-M "C 2/C"
_symmetry_group_IT_number 15
_symmetry_cell_setting 'monoclinic'
loop_
_space_group_symop_operation_xyz
x,y,z
-x,y,1/2-z
-x,-y,-z
x,-y,1/2+z
1/2+x,1/2+y,z
1/2-x,1/2+y,1/2-z
1/2-x,1/2-y,-z
1/2+x,1/2-y,1/2+z
loop_
_atom_site_type_symbol
_atom_site_label
_atom_site_fract_x
_atom_site_fract_y
_atom_site_fract_z
Si Si1 0.569330 0.878611 0.095953
Si Si2 0.758561 0.152006 0.607575
Si Si3 0.418267 0.808224 0.568318
Si Si4 0.089583 0.022953 0.425754
Si Si5 0.744986 0.982617 0.930660
Si Si6 0.951237 0.127755 0.967257
O O1 0.659774 0.937866 0.269071
O O2 0.573335 0.846246 0.009678
O O3 0.523334 0.749719 0.070433
O O4 0.500000 0.000000 0.000000
O O5 0.675920 0.131666 0.542682
O O6 0.748200 0.029272 0.528611
O O7 0.748936 0.316007 0.573763
O O8 0.861094 0.151747 0.785146
O O9 0.500000 0.847385 0.750000
O O10 0.414569 0.641745 0.565660
O O11 0.086339 0.096663 0.503419
O O12 0.000000 0.065545 0.250000
O O13 0.171595 0.046409 0.490422
O O14 0.000000 0.000000 0.000000
#
# Coordination Sequence:
#
# PCOD9281864 Si02
#       6
#     8   8   8   8   8   8
#     4  12  23  40  63  96 131 164 216 273 324 384
#     4  10  21  39  66  93 125 168 217 262 327 396
#     4  10  21  38  65  94 125 169 220 263 324 396
#     4  10  21  40  64  90 127 173 217 260 325 403
#     4  10  21  39  66  94 126 164 217 272 320 385
#     4  12  23  40  63  92 130 173 215 260 334 399
#
# _framework density 19.154288999999999
#
# number of rings (size 3 to 8) (size 9 to 14) (size 15 to 20)
#    0.000    1.333    3.333    3.000    4.667    0.000 
#    0.000    5.833    0.000    0.000    0.000    0.000 
#    0.000    0.000    0.000    0.000    0.000    0.000 
#
# Total GULP energy -133640.732500 kJ/mol
# GULP energy per Si atom -5568.363854 kJ/mol
# Density = 1.911069 g / cm^3
# Si number density = 19.154289 Si / 1000 Ang^3
#
#
#
# Elastic Constant Matrix: (Units=GPa)
#
#
# Indices 1 2 3 4 5 6 
#
# 1 121.5684 25.8516 36.4988 0.0000 17.9081 0.0000
# 2 25.8516 53.3231 14.0731 0.0000 10.7954 0.0000
# 3 36.4988 14.0731 93.9662 0.0000 23.9681 0.0000
# 4 0.0000 0.0000 0.0000 13.4678 0.0000 18.0594
# 5 17.9081 10.7954 23.9681 0.0000 38.0394 0.0000
# 6 0.0000 0.0000 0.0000 18.0594 0.0000 -0.4522
#
#
#
# Elastic Compliance Matrix: (Units=1/GPa)
#
#
# Indices 1 2 3 4 5 6 
#
# 1 0.010182 -0.003787 -0.002906 0.000000 -0.001887 0.000000
# 2 -0.003787 0.021574 -0.000778 0.000000 -0.003849 0.000000
# 3 -0.002906 -0.000778 0.013681 0.000000 -0.007031 0.000000
# 4 0.000000 0.000000 0.000000 0.001361 0.000000 0.054358
# 5 -0.001887 -0.003849 -0.007031 0.000000 0.032700 0.000000
# 6 0.000000 0.000000 0.000000 0.054358 0.000000 -0.040537
#
#
# Mechanical properties :
#
#
# Convention : Reuss Voigt Hill
#
# Bulk Modulus (GPa) = 32.79344 46.85606 39.82475
# Shear Modulus (GPa) = 78.04158 23.03995 50.54076
#
# Velocity S-wave (km/s) = 6.39000 3.47199 5.14232
# Velocity P-wave (km/s) = 8.46172 6.37091 7.48963
#
# Compressibility (1/GPa) = 0.03049391
#
# Stress axis : x y z
#
# Youngs Moduli (GPa) = 98.21520 46.35135 73.09418
#
# Poissons Ratio (x) = 0.17554 0.21243
# Poissons Ratio (y) = 0.37195 0.05689
# Poissons Ratio (z) = 0.28544 0.03607
#
# Static dielectric constant tensor:
#      x y z
#    x 1.765400 0.000000 -0.117970 
#    y 0.000000 1.644610 0.000000 
#    z -0.117970 0.000000 1.746180 
# 
# From -- ./inp_files/224713.got.cif
#   From: 2010.05.17/outbox.cif.g08.bks.cpg/sg15_113_cif.got.tgz:224713.got - 2010.06.03 18:47:42.
