data_PCOD9281816
_publ_section_title
;
Structure prediction by ZEFSAII (Michael W. Deem and Ramdas Pophale) SiO2 
 PCOD9281816
Probable space group: C 2/C
;
_chemical_formula_sum "Si O2"
_cell_formula_units_Z 32
_cell_length_a 16.560455
_cell_length_b 10.316997
_cell_length_c 7.995371
_cell_angle_alpha 90.000000
_cell_angle_beta 57.742241
_cell_angle_gamma 90.000000
_cell_volume 1155.201367
_symmetry_space_group_name_H-M "C 2/C"
_symmetry_group_IT_number 15
_symmetry_cell_setting 'monoclinic'
loop_
_space_group_symop_operation_xyz
x,y,z
-x,y,1/2-z
-x,-y,-z
x,-y,1/2+z
1/2+x,1/2+y,z
1/2-x,1/2+y,1/2-z
1/2-x,1/2-y,-z
1/2+x,1/2-y,1/2+z
loop_
_atom_site_type_symbol
_atom_site_label
_atom_site_fract_x
_atom_site_fract_y
_atom_site_fract_z
Si Si1 0.606027 0.935651 0.189143
Si Si2 0.204070 0.071038 0.543385
Si Si3 0.439314 0.740414 0.987266
Si Si4 0.624133 0.675383 0.974154
O O1 0.500000 0.970818 0.250000
O O2 0.593366 0.870004 0.383966
O O3 0.684437 0.046708 0.108696
O O4 0.640436 0.818395 0.030085
O O5 0.151882 0.156996 0.462183
O O6 0.183454 0.135310 0.744468
O O7 0.152952 0.931686 0.578075
O O8 0.500000 0.754041 0.750000
O O9 0.514144 0.674241 0.033846
#
# Coordination Sequence:
#
# PCOD9281816 Si02
#       4
#     8   8   8   8
#     4  10  22  43  67  95 135 178 219 273 338 402
#     4  11  21  39  67  96 130 176 224 276 332 396
#     4   9  20  40  67  99 131 169 225 282 331 397
#     4  10  21  38  64  98 131 171 223 277 330 397
#
# _framework density 27.700797999999999
#
# number of rings (size 3 to 8) (size 9 to 14) (size 15 to 20)
#    0.000    2.000    0.000    3.000    0.000    7.000 
#    0.000   22.500    0.000    9.000    0.000    0.000 
#    0.000    0.000    0.000    0.000    0.000    0.000 
#
# Total GULP energy -89970.477416 kJ/mol
# GULP energy per Si atom -5623.154838 kJ/mol
# Density = 2.763775 g / cm^3
# Si number density = 27.700798 Si / 1000 Ang^3
#
#
#
# Elastic Constant Matrix: (Units=GPa)
#
#
# Indices 1 2 3 4 5 6 
#
# 1 215.6499 91.0184 108.4587 0.0000 -24.0443 0.0000
# 2 91.0184 128.7256 56.9369 0.0000 -16.4256 0.0000
# 3 108.4587 56.9369 171.2027 0.0000 -0.2441 0.0000
# 4 0.0000 0.0000 0.0000 64.2111 0.0000 -12.7327
# 5 -24.0443 -16.4256 -0.2441 0.0000 51.8362 0.0000
# 6 0.0000 0.0000 0.0000 -12.7327 0.0000 53.3337
#
#
#
# Elastic Compliance Matrix: (Units=1/GPa)
#
#
# Indices 1 2 3 4 5 6 
#
# 1 0.008738 -0.003960 -0.004215 0.000000 0.002779 0.000000
# 2 -0.003960 0.011351 -0.001264 0.000000 0.001754 0.000000
# 3 -0.004215 -0.001264 0.008928 0.000000 -0.002314 0.000000
# 4 0.000000 0.000000 0.000000 0.016348 0.000000 0.003903
# 5 0.002779 0.001754 -0.002314 0.000000 0.021125 0.000000
# 6 0.000000 0.000000 0.000000 0.003903 0.000000 0.019682
#
#
# Mechanical properties :
#
#
# Convention : Reuss Voigt Hill
#
# Bulk Modulus (GPa) = 98.61548 114.26738 106.44143
# Shear Modulus (GPa) = 46.11320 51.15382 48.63351
#
# Velocity S-wave (km/s) = 4.08449 4.30193 4.19462
# Velocity P-wave (km/s) = 7.61062 8.12500 7.87201
#
# Compressibility (1/GPa) = 0.01014040
#
# Stress axis : x y z
#
# Youngs Moduli (GPa) = 114.44390 88.09678 112.00407
#
# Poissons Ratio (x) = 0.34882 0.47207
# Poissons Ratio (y) = 0.45315 0.14159
# Poissons Ratio (z) = 0.48235 0.11137
#
# Static dielectric constant tensor:
#      x y z
#    x 2.083530 0.000000 0.018530 
#    y 0.000000 2.132570 0.000000 
#    z 0.018530 0.000000 2.145410 
# 
# From -- ./inp_files/45823.got.cif
#   From: 2010.05.17/outbox.cif.g08.bks.cpg/sg15_23_cif.got.tgz:45823.got - 2010.06.03 18:47:42.
