data_PCOD9281234
_publ_section_title
;
Structure prediction by ZEFSAII (Michael W. Deem and Ramdas Pophale) SiO2 
 PCOD9281234
Probable space group: C 2/C
;
_chemical_formula_sum "Si O2"
_cell_formula_units_Z 48
_cell_length_a 11.343781
_cell_length_b 12.923371
_cell_length_c 20.204171
_cell_angle_alpha 90.000000
_cell_angle_beta 55.598250
_cell_angle_gamma 90.000000
_cell_volume 2443.876697
_symmetry_space_group_name_H-M "C 2/C"
_symmetry_group_IT_number 15
_symmetry_cell_setting 'monoclinic'
loop_
_space_group_symop_operation_xyz
x,y,z
-x,y,1/2-z
-x,-y,-z
x,-y,1/2+z
1/2+x,1/2+y,z
1/2-x,1/2+y,1/2-z
1/2-x,1/2-y,-z
1/2+x,1/2-y,1/2+z
loop_
_atom_site_type_symbol
_atom_site_label
_atom_site_fract_x
_atom_site_fract_y
_atom_site_fract_z
Si Si1 0.351573 0.004519 0.084020
Si Si2 0.755369 0.564248 0.750746
Si Si3 0.980959 0.999827 0.583567
Si Si4 0.169851 0.816203 0.582536
Si Si5 0.000000 0.185250 0.750000
Si Si6 0.831994 0.818647 0.421065
Si Si7 0.000000 0.692269 0.750000
O O1 0.281839 0.112851 0.086110
O O2 0.342720 0.994649 0.165825
O O3 0.268867 0.904761 0.080713
O O4 0.500000 0.000000 0.000000
O O5 0.673130 0.498329 0.832646
O O6 0.623091 0.618744 0.750686
O O7 0.870986 0.632579 0.753353
O O8 0.066339 0.900999 0.582730
O O9 0.000000 0.000000 0.500000
O O10 0.050928 0.109410 0.581303
O O11 0.250000 0.750000 0.500000
O O12 0.079332 0.753708 0.665592
O O13 0.911741 0.241438 0.835962
O O14 0.750000 0.750000 0.500000
#
# Coordination Sequence:
#
# PCOD9281234 Si02
#       7
#     8   8   8   8   4   8   4
#     4  10  21  38  60  85 120 163 205 255 312 371
#     4  10  21  40  62  88 122 164 207 254 316 380
#     4  10  21  38  60  85 120 163 205 255 312 371
#     4  11  23  40  62  92 127 170 217 263 318 382
#     4   8  18  37  60  83 114 158 200 243 304 379
#     4   9  19  36  58  82 111 151 200 247 300 365
#     4  12  24  37  64  99 128 164 212 267 322 389
#
# _framework density 19.640926
#
# number of rings (size 3 to 8) (size 9 to 14) (size 15 to 20)
#    0.000    2.000    0.000    4.000    0.000    9.333 
#    0.000    1.667    0.000    6.000    0.000    0.000 
#    0.000    0.000    0.000    0.000    0.000    0.000 
#
# Total GULP energy -133623.204539 kJ/mol
# GULP energy per Si atom -5567.633522 kJ/mol
# Density = 1.959622 g / cm^3
# Si number density = 19.640926 Si / 1000 Ang^3
#
#
#
# Elastic Constant Matrix: (Units=GPa)
#
#
# Indices 1 2 3 4 5 6 
#
# 1 76.9172 15.7330 39.2114 0.0000 9.9085 0.0000
# 2 15.7330 65.4834 57.6551 0.0000 9.3486 0.0000
# 3 39.2114 57.6551 248.1807 0.0000 17.3148 0.0000
# 4 0.0000 0.0000 0.0000 53.6385 0.0000 -0.5873
# 5 9.9085 9.3486 17.3148 0.0000 36.8571 0.0000
# 6 0.0000 0.0000 0.0000 -0.5873 0.0000 -58.9031
#
#
#
# Elastic Compliance Matrix: (Units=1/GPa)
#
#
# Indices 1 2 3 4 5 6 
#
# 1 0.014561 -0.001576 -0.001746 0.000000 -0.002694 0.000000
# 2 -0.001576 0.019666 -0.004137 0.000000 -0.002621 0.000000
# 3 -0.001746 -0.004137 0.005335 0.000000 -0.000988 0.000000
# 4 0.000000 0.000000 0.000000 0.018641 0.000000 -0.000186
# 5 -0.002694 -0.002621 -0.000988 0.000000 0.028985 0.000000
# 6 0.000000 0.000000 0.000000 -0.000186 0.000000 -0.016975
#
#
# Mechanical properties :
#
#
# Convention : Reuss Voigt Hill
#
# Bulk Modulus (GPa) = 40.57863 68.42004 54.49934
# Shear Modulus (GPa) = 53.56405 24.85062 39.20733
#
# Velocity S-wave (km/s) = 5.22789 3.56089 4.47274
# Velocity P-wave (km/s) = 7.55951 7.19845 7.38119
#
# Compressibility (1/GPa) = 0.02464352
#
# Stress axis : x y z
#
# Youngs Moduli (GPa) = 68.67783 50.84873 187.43536
#
# Poissons Ratio (x) = 0.08014 0.32734
# Poissons Ratio (y) = 0.10824 0.77538
# Poissons Ratio (z) = 0.11994 0.21035
#
# Static dielectric constant tensor:
#      x y z
#    x 1.765790 0.000000 -0.012800 
#    y 0.000000 1.676770 0.000000 
#    z -0.012800 0.000000 1.725500 
# 
# From -- ./inp_files/237463.got.cif
#   From: 2010.05.17/outbox.cif.g08.bks.cpg/sg15_119_cif.got.tgz:237463.got - 2010.06.03 18:47:42.
