data_PCOD9281655
_publ_section_title
;
Structure prediction by ZEFSAII (Michael W. Deem and Ramdas Pophale) SiO2 
 PCOD9281655
Probable space group: C 2/C
;
_chemical_formula_sum "Si O2"
_cell_formula_units_Z 48
_cell_length_a 14.370169
_cell_length_b 26.427302
_cell_length_c 8.590059
_cell_angle_alpha 90.000000
_cell_angle_beta 140.760510
_cell_angle_gamma 90.000000
_cell_volume 2063.549160
_symmetry_space_group_name_H-M "C 2/C"
_symmetry_group_IT_number 15
_symmetry_cell_setting 'monoclinic'
loop_
_space_group_symop_operation_xyz
x,y,z
-x,y,1/2-z
-x,-y,-z
x,-y,1/2+z
1/2+x,1/2+y,z
1/2-x,1/2+y,1/2-z
1/2-x,1/2-y,-z
1/2+x,1/2-y,1/2+z
loop_
_atom_site_type_symbol
_atom_site_label
_atom_site_fract_x
_atom_site_fract_y
_atom_site_fract_z
Si Si1 0.933480 0.130730 0.000231
Si Si2 0.332593 0.193929 0.718817
Si Si3 0.188471 0.199091 0.199923
Si Si4 0.600093 0.535530 0.736579
Si Si5 0.586956 0.855275 0.698357
Si Si6 0.894356 0.467338 0.754900
O O1 0.000000 0.111038 0.250000
O O2 0.063841 0.157516 0.073303
O O3 0.815583 0.172916 0.894878
O O4 0.859555 0.085018 0.810964
O O5 0.298305 0.200766 0.492380
O O6 0.378286 0.244861 0.869832
O O7 0.459218 0.153698 0.907885
O O8 0.281836 0.183964 0.169354
O O9 0.500000 0.551971 0.750000
O O10 0.500000 0.500000 0.500000
O O11 0.744724 0.508624 0.994324
O O12 0.500000 0.849456 0.750000
O O13 0.648812 0.911431 0.744066
O O14 0.000000 0.455839 0.750000
O O15 0.000000 0.500000 0.000000
#
# Coordination Sequence:
#
# PCOD9281655 Si02
#       6
#     8   8   8   8   8   8
#     4  10  21  38  63  93 126 165 211 263 317 372
#     4  10  21  39  63  90 123 165 214 259 304 370
#     4  10  21  39  63  91 123 165 214 259 305 368
#     4  12  25  43  67  94 128 167 213 266 323 386
#     4  11  23  39  60  90 127 163 203 258 318 376
#     4  11  25  44  65  92 127 165 211 263 318 382
#
# _framework density 23.260895000000001
#
# number of rings (size 3 to 8) (size 9 to 14) (size 15 to 20)
#    0.000    1.333    0.000    6.000    0.000    7.333 
#    0.000    3.333    0.000    0.000    0.000    0.000 
#    0.000    0.000    0.000    0.000    0.000    0.000 
#
# Total GULP energy -134137.473090 kJ/mol
# GULP energy per Si atom -5589.061379 kJ/mol
# Density = 2.320795 g / cm^3
# Si number density = 23.260895 Si / 1000 Ang^3
#
#
#
# Elastic Constant Matrix: (Units=GPa)
#
#
# Indices 1 2 3 4 5 6 
#
# 1 104.4977 15.9594 3.3504 0.0000 3.5943 0.0000
# 2 15.9594 77.2327 33.2600 0.0000 -18.3799 0.0000
# 3 3.3504 33.2600 115.5118 0.0000 11.8376 0.0000
# 4 0.0000 0.0000 0.0000 1.6406 0.0000 34.2915
# 5 3.5943 -18.3799 11.8376 0.0000 26.3179 0.0000
# 6 0.0000 0.0000 0.0000 34.2915 0.0000 -18.5435
#
#
#
# Elastic Compliance Matrix: (Units=1/GPa)
#
#
# Indices 1 2 3 4 5 6 
#
# 1 0.010260 -0.003750 0.001252 0.000000 -0.004583 0.000000
# 2 -0.003750 0.021885 -0.008189 0.000000 0.019480 0.000000
# 3 0.001252 -0.008189 0.012142 0.000000 -0.011351 0.000000
# 4 0.000000 0.000000 0.000000 0.015372 0.000000 0.028426
# 5 -0.004583 0.019480 -0.011351 0.000000 0.057333 0.000000
# 6 0.000000 0.000000 0.000000 0.028426 0.000000 -0.001360
#
#
# Mechanical properties :
#
#
# Convention : Reuss Voigt Hill
#
# Bulk Modulus (GPa) = 43.64375 44.70909 44.17642
# Shear Modulus (GPa) = 34.56783 18.19448 26.38115
#
# Velocity S-wave (km/s) = 3.85917 2.79980 3.37136
# Velocity P-wave (km/s) = 6.21780 5.45108 5.84702
#
# Compressibility (1/GPa) = 0.02291279
#
# Stress axis : x y z
#
# Youngs Moduli (GPa) = 97.46795 45.69326 82.35872
#
# Poissons Ratio (x) = 0.17134 -0.10310
# Poissons Ratio (y) = 0.36549 0.67443
# Poissons Ratio (z) = -0.12201 0.37418
#
# Static dielectric constant tensor:
#      x y z
#    x 1.863350 0.000000 -0.009920 
#    y 0.000000 1.965500 0.000000 
#    z -0.009920 0.000000 1.936000 
# 
# From -- ./inp_files/43937.got.cif
#   From: 2010.05.17/outbox.cif.g08.bks.cpg/sg15_22_cif.got.tgz:43937.got - 2010.06.03 18:47:42.
