data_PCOD9281528
_publ_section_title
;
Structure prediction by ZEFSAII (Michael W. Deem and Ramdas Pophale) SiO2 
 PCOD9281528
Probable space group: C 2/C
;
_chemical_formula_sum "Si O2"
_cell_formula_units_Z 40
_cell_length_a 9.550007
_cell_length_b 11.325709
_cell_length_c 18.530015
_cell_angle_alpha 90.000000
_cell_angle_beta 120.130539
_cell_angle_gamma 90.000000
_cell_volume 1733.415666
_symmetry_space_group_name_H-M "C 2/C"
_symmetry_group_IT_number 15
_symmetry_cell_setting 'monoclinic'
loop_
_space_group_symop_operation_xyz
x,y,z
-x,y,1/2-z
-x,-y,-z
x,-y,1/2+z
1/2+x,1/2+y,z
1/2-x,1/2+y,1/2-z
1/2-x,1/2-y,-z
1/2+x,1/2-y,1/2+z
loop_
_atom_site_type_symbol
_atom_site_label
_atom_site_fract_x
_atom_site_fract_y
_atom_site_fract_z
Si Si1 0.790462 0.745850 0.594649
Si Si2 0.573336 0.805896 0.664732
Si Si3 0.139636 0.790644 0.647452
Si Si4 0.788420 0.147325 0.569352
Si Si5 0.272765 0.022851 0.081306
O O1 0.664403 0.813190 0.612088
O O2 0.766503 0.032529 0.514713
O O3 0.777866 0.608185 0.611418
O O4 0.975284 0.785692 0.648811
O O5 0.170071 0.673797 0.605695
O O6 0.707856 0.805551 0.760884
O O7 0.467593 0.684875 0.640368
O O8 0.143330 0.899120 0.592047
O O9 0.750000 0.250000 0.500000
O O10 0.944296 0.411340 0.637919
O O11 0.250000 0.750000 0.000000
#
# Coordination Sequence:
#
# PCOD9281528 Si02
#       5
#     8   8   8   8   8
#     4  12  25  40  62  92 124 160 205 249 293 358
#     4  10  21  38  62  92 122 155 201 253 304 358
#     4  10  21  38  62  92 122 155 201 253 304 358
#     4   8  16  35  61  86 115 157 202 241 293 361
#     4  10  22  43  64  84 122 167 198 244 307 355
#
# _framework density 23.075828999999999
#
# number of rings (size 3 to 8) (size 9 to 14) (size 15 to 20)
#    0.000    2.400    0.000    6.600    0.000    9.600 
#    0.000    2.000    0.000   12.000    0.000    0.000 
#    0.000    0.000    0.000    0.000    0.000    0.000 
#
# Total GULP energy -111803.068998 kJ/mol
# GULP energy per Si atom -5590.153450 kJ/mol
# Density = 2.302331 g / cm^3
# Si number density = 23.075829 Si / 1000 Ang^3
#
#
#
# Elastic Constant Matrix: (Units=GPa)
#
#
# Indices 1 2 3 4 5 6 
#
# 1 110.7422 11.6111 -10.5454 0.0000 -6.8937 0.0000
# 2 11.6111 54.3219 -10.3750 0.0000 2.4193 0.0000
# 3 -10.5454 -10.3750 68.7575 0.0000 0.9097 0.0000
# 4 0.0000 0.0000 0.0000 0.7113 0.0000 4.3028
# 5 -6.8937 2.4193 0.9097 0.0000 42.1477 0.0000
# 6 0.0000 0.0000 0.0000 4.3028 0.0000 17.8761
#
#
#
# Elastic Compliance Matrix: (Units=1/GPa)
#
#
# Indices 1 2 3 4 5 6 
#
# 1 0.009436 -0.001871 0.001143 0.000000 0.001626 0.000000
# 2 -0.001871 0.019382 0.002657 0.000000 -0.001476 0.000000
# 3 0.001143 0.002657 0.015124 0.000000 -0.000292 0.000000
# 4 0.000000 0.000000 0.000000 -3.083252 0.000000 0.742138
# 5 0.001626 -0.001476 -0.000292 0.000000 0.024083 0.000000
# 6 0.000000 0.000000 0.000000 0.742138 0.000000 -0.122692
#
#
# Mechanical properties :
#
#
# Convention : Reuss Voigt Hill
#
# Bulk Modulus (GPa) = 20.91991 23.91146 22.41568
# Shear Modulus (GPa) = -1.59957 28.35575 13.37809
#
# Velocity S-wave (km/s) = -0.83348 3.50924 2.41040
# Velocity P-wave (km/s) = 2.85642 5.17729 4.18112
#
# Compressibility (1/GPa) = 0.04780134
#
# Stress axis : x y z
#
# Youngs Moduli (GPa) = 105.97417 51.59442 66.11987
#
# Poissons Ratio (x) = 0.09653 -0.07560
# Poissons Ratio (y) = 0.19828 -0.17569
# Poissons Ratio (z) = -0.12117 -0.13709
#
# Static dielectric constant tensor:
#      x y z
#    x 1.872480 0.000000 0.006180 
#    y 0.000000 1.913500 0.000000 
#    z 0.006180 0.000000 1.896760 
# 
# From -- ./inp_files/262856.got.cif
#   From: 2010.05.17/outbox.cif.g08.bks.cpg/sg15_132_cif.got.tgz:262856.got - 2010.06.03 18:47:42.
