data_PCOD9281619
_publ_section_title
;
Structure prediction by ZEFSAII (Michael W. Deem and Ramdas Pophale) SiO2 
 PCOD9281619
Probable space group: C 2/C
;
_chemical_formula_sum "Si O2"
_cell_formula_units_Z 40
_cell_length_a 15.912066
_cell_length_b 9.480744
_cell_length_c 18.280419
_cell_angle_alpha 90.000000
_cell_angle_beta 48.045287
_cell_angle_gamma 90.000000
_cell_volume 2050.866689
_symmetry_space_group_name_H-M "C 2/C"
_symmetry_group_IT_number 15
_symmetry_cell_setting 'monoclinic'
loop_
_space_group_symop_operation_xyz
x,y,z
-x,y,1/2-z
-x,-y,-z
x,-y,1/2+z
1/2+x,1/2+y,z
1/2-x,1/2+y,1/2-z
1/2-x,1/2-y,-z
1/2+x,1/2-y,1/2+z
loop_
_atom_site_type_symbol
_atom_site_label
_atom_site_fract_x
_atom_site_fract_y
_atom_site_fract_z
Si Si1 0.114408 0.749772 0.081993
Si Si2 0.684944 0.627590 0.242939
Si Si3 0.093337 0.879308 0.947974
Si Si4 0.500000 0.515817 0.750000
Si Si5 0.000000 0.482318 0.750000
Si Si6 0.281791 0.073552 0.801005
O O1 0.064399 0.617630 0.154518
O O2 0.250000 0.750000 0.000000
O O3 0.073834 0.767013 0.022128
O O4 0.063580 0.884579 0.154492
O O5 0.613019 0.680432 0.355599
O O6 0.597161 0.571978 0.234490
O O7 0.755386 0.763890 0.177712
O O8 0.758259 0.500254 0.235768
O O9 0.207757 0.970228 0.895353
O O10 0.000000 0.000000 0.000000
O O11 0.091902 0.568615 0.742282
#
# Coordination Sequence:
#
# PCOD9281619 Si02
#       6
#     8   8   8   4   4   8
#     4  11  21  38  64  96 121 169 212 258 315 382
#     4  10  23  40  63  90 126 162 211 253 325 366
#     4  10  21  38  63  90 126 162 210 259 312 377
#     4  11  23  38  66  90 130 170 204 264 318 374
#     4  11  23  38  66  92 134 158 218 258 318 374
#     4  10  23  40  63  92 125 168 202 267 309 379
#
# _framework density 19.50395
#
# number of rings (size 3 to 8) (size 9 to 14) (size 15 to 20)
#    1.200    0.400    4.000    0.600   11.200    0.000 
#    0.000    4.000    0.000    0.000    0.000    0.000 
#    0.000    0.000    0.000    0.000    0.000    0.000 
#
# Total GULP energy -111366.215107 kJ/mol
# GULP energy per Si atom -5568.310755 kJ/mol
# Density = 1.945956 g / cm^3
# Si number density = 19.503950 Si / 1000 Ang^3
#
#
#
# Elastic Constant Matrix: (Units=GPa)
#
#
# Indices 1 2 3 4 5 6 
#
# 1 108.3273 15.1071 -15.1251 0.0000 1.0463 0.0000
# 2 15.1071 60.2987 -21.3860 0.0000 0.4270 0.0000
# 3 -15.1251 -21.3860 39.9938 0.0000 4.6649 0.0000
# 4 0.0000 0.0000 0.0000 7.6727 0.0000 -4.0330
# 5 1.0463 0.4270 4.6649 0.0000 35.0931 0.0000
# 6 0.0000 0.0000 0.0000 -4.0330 0.0000 31.4484
#
#
#
# Elastic Compliance Matrix: (Units=1/GPa)
#
#
# Indices 1 2 3 4 5 6 
#
# 1 0.009859 -0.001375 0.003073 0.000000 -0.000686 0.000000
# 2 -0.001375 0.020761 0.010773 0.000000 -0.001644 0.000000
# 3 0.003073 0.010773 0.032456 0.000000 -0.004537 0.000000
# 4 0.000000 0.000000 0.000000 0.139753 0.000000 0.017922
# 5 -0.000686 -0.001644 -0.004537 0.000000 0.029139 0.000000
# 6 0.000000 0.000000 0.000000 0.017922 0.000000 0.034097
#
#
# Mechanical properties :
#
#
# Convention : Reuss Voigt Hill
#
# Bulk Modulus (GPa) = 11.36127 18.42357 14.89242
# Shear Modulus (GPa) = 18.48687 30.17774 24.33230
#
# Velocity S-wave (km/s) = 3.08206 3.93779 3.53591
# Velocity P-wave (km/s) = 4.30154 5.49013 4.93177
#
# Compressibility (1/GPa) = 0.08801832
#
# Stress axis : x y z
#
# Youngs Moduli (GPa) = 101.43261 48.16672 30.81084
#
# Poissons Ratio (x) = 0.06624 -0.09468
# Poissons Ratio (y) = 0.13949 -0.33193
# Poissons Ratio (z) = -0.31171 -0.51892
#
# Static dielectric constant tensor:
#      x y z
#    x 1.719970 0.000000 -0.007060 
#    y 0.000000 1.693930 0.000000 
#    z -0.007060 0.000000 1.712360 
# 
# From -- ./inp_files/109653.got.cif
#   From: 2010.05.17/outbox.cif.g08.bks.cpg/sg15_55_cif.got.tgz:109653.got - 2010.06.03 18:47:42.
