data_PCOD9281789
_publ_section_title
;
Structure prediction by ZEFSAII (Michael W. Deem and Ramdas Pophale) SiO2 
 PCOD9281789
Probable space group: C 2/C
;
_chemical_formula_sum "Si O2"
_cell_formula_units_Z 48
_cell_length_a 12.113685
_cell_length_b 16.717312
_cell_length_c 10.570618
_cell_angle_alpha 90.000000
_cell_angle_beta 84.898307
_cell_angle_gamma 90.000000
_cell_volume 2132.157103
_symmetry_space_group_name_H-M "C 2/C"
_symmetry_group_IT_number 15
_symmetry_cell_setting 'monoclinic'
loop_
_space_group_symop_operation_xyz
x,y,z
-x,y,1/2-z
-x,-y,-z
x,-y,1/2+z
1/2+x,1/2+y,z
1/2-x,1/2+y,1/2-z
1/2-x,1/2-y,-z
1/2+x,1/2-y,1/2+z
loop_
_atom_site_type_symbol
_atom_site_label
_atom_site_fract_x
_atom_site_fract_y
_atom_site_fract_z
Si Si1 0.435306 0.535468 0.127366
Si Si2 0.776993 0.905667 0.193327
Si Si3 0.790063 0.816101 0.665725
Si Si4 0.669192 0.864928 0.440901
Si Si5 0.051541 0.331540 0.113042
Si Si6 0.098241 0.745043 0.343377
O O1 0.500000 0.514845 0.250000
O O2 0.320442 0.487587 0.136684
O O3 0.398319 0.628228 0.145680
O O4 0.500000 0.500000 0.000000
O O5 0.751262 0.914182 0.344665
O O6 0.665961 0.873272 0.138411
O O7 0.870592 0.838120 0.169215
O O8 0.703926 0.858195 0.579803
O O9 0.816789 0.727288 0.610799
O O10 0.714349 0.800836 0.797385
O O11 0.544716 0.891027 0.425085
O O12 0.000000 0.297418 0.250000
O O13 0.066754 0.274915 0.990494
O O14 0.000000 0.728504 0.250000
#
# Coordination Sequence:
#
# PCOD9281789 Si02
#       6
#     8   8   8   8   8   8
#     4  12  28  45  65  95 135 177 217 266 335 399
#     4  10  23  40  63  91 135 172 210 265 331 384
#     4  10  22  39  67  95 128 167 222 271 319 390
#     4   9  19  41  67  95 127 170 215 273 328 377
#     4  10  21  38  64  95 123 163 213 268 326 379
#     4  11  21  38  67  96 125 166 221 272 319 380
#
# _framework density 22.512412999999999
#
# number of rings (size 3 to 8) (size 9 to 14) (size 15 to 20)
#    0.000    1.667    1.667    2.000    4.667    3.333 
#    0.000    3.333    0.000    0.000    0.000    0.000 
#    0.000    0.000    0.000    0.000    0.000    0.000 
#
# Total GULP energy -133862.584565 kJ/mol
# GULP energy per Si atom -5577.607690 kJ/mol
# Density = 2.246117 g / cm^3
# Si number density = 22.512413 Si / 1000 Ang^3
#
#
#
# Elastic Constant Matrix: (Units=GPa)
#
#
# Indices 1 2 3 4 5 6 
#
# 1 85.6975 27.4174 33.3769 0.0000 2.6348 0.0000
# 2 27.4174 65.0911 25.0738 0.0000 -20.2160 0.0000
# 3 33.3769 25.0738 117.5438 0.0000 -5.8928 0.0000
# 4 0.0000 0.0000 0.0000 12.3685 0.0000 -4.0531
# 5 2.6348 -20.2160 -5.8928 0.0000 41.7915 0.0000
# 6 0.0000 0.0000 0.0000 -4.0531 0.0000 18.9987
#
#
#
# Elastic Compliance Matrix: (Units=1/GPa)
#
#
# Indices 1 2 3 4 5 6 
#
# 1 0.015136 -0.006598 -0.003120 0.000000 -0.004586 0.000000
# 2 -0.006598 0.022453 -0.002367 0.000000 0.010943 0.000000
# 3 -0.003120 -0.002367 0.009921 0.000000 0.000450 0.000000
# 4 0.000000 0.000000 0.000000 0.086927 0.000000 0.018545
# 5 -0.004586 0.010943 0.000450 0.000000 0.029575 0.000000
# 6 0.000000 0.000000 0.000000 0.018545 0.000000 0.056591
#
#
# Mechanical properties :
#
#
# Convention : Reuss Voigt Hill
#
# Bulk Modulus (GPa) = 42.84714 48.89651 45.87183
# Shear Modulus (GPa) = 19.79770 26.79604 23.29687
#
# Velocity S-wave (km/s) = 2.96871 3.45378 3.22039
# Velocity P-wave (km/s) = 5.55202 6.13773 5.85221
#
# Compressibility (1/GPa) = 0.02333878
#
# Stress axis : x y z
#
# Youngs Moduli (GPa) = 66.06713 44.53761 100.79514
#
# Poissons Ratio (x) = 0.29385 0.31452
# Poissons Ratio (y) = 0.43590 0.23863
# Poissons Ratio (z) = 0.20616 0.10544
#
# Static dielectric constant tensor:
#      x y z
#    x 1.915550 0.000000 -0.021250 
#    y 0.000000 1.831510 0.000000 
#    z -0.021250 0.000000 1.889500 
# 
# From -- ./inp_files/87256.got.cif
#   From: 2010.05.17/outbox.cif.g08.bks.cpg/sg15_44_cif.got.tgz:87256.got - 2010.06.03 18:47:42.
