data_PCOD9281695
_publ_section_title
;
Structure prediction by ZEFSAII (Michael W. Deem and Ramdas Pophale) SiO2 
 PCOD9281695
Probable space group: C 2/C
;
_chemical_formula_sum "Si O2"
_cell_formula_units_Z 60
_cell_length_a 30.888689
_cell_length_b 18.127528
_cell_length_c 15.788324
_cell_angle_alpha 90.000000
_cell_angle_beta 162.206101
_cell_angle_gamma 90.000000
_cell_volume 2701.586003
_symmetry_space_group_name_H-M "C 2/C"
_symmetry_group_IT_number 15
_symmetry_cell_setting 'monoclinic'
loop_
_space_group_symop_operation_xyz
x,y,z
-x,y,1/2-z
-x,-y,-z
x,-y,1/2+z
1/2+x,1/2+y,z
1/2-x,1/2+y,1/2-z
1/2-x,1/2-y,-z
1/2+x,1/2-y,1/2+z
loop_
_atom_site_type_symbol
_atom_site_label
_atom_site_fract_x
_atom_site_fract_y
_atom_site_fract_z
Si Si1 0.407877 0.073057 0.332226
Si Si2 0.884076 0.592108 0.108412
Si Si3 0.580648 0.082030 0.812810
Si Si4 0.000000 0.926418 0.250000
Si Si5 0.034736 0.220051 0.627906
Si Si6 0.073651 0.047288 0.709503
Si Si7 0.214013 0.189270 0.229115
Si Si8 0.194289 0.226949 0.758378
O O1 0.438590 0.117115 0.303446
O O2 0.467261 0.103496 0.530048
O O3 0.500000 0.000000 0.500000
O O4 0.243615 0.052421 0.025081
O O5 0.863462 0.503457 0.082596
O O6 0.000000 0.602782 0.250000
O O7 0.743982 0.641633 0.835608
O O8 0.500000 0.086555 0.750000
O O9 0.702400 0.142039 0.045728
O O10 0.968978 0.974457 0.274729
O O11 0.128688 0.871173 0.513305
O O12 0.024425 0.131186 0.607791
O O13 0.067942 0.237034 0.591063
O O14 0.897001 0.240579 0.426840
O O15 0.172280 0.238535 0.941168
O O16 0.000000 0.000000 0.500000
O O17 0.308613 0.234712 0.338559
#
# Coordination Sequence:
#
# PCOD9281695 Si02
#       8
#     8   8   8   4   8   8   8   8
#     4  10  22  40  59 101 132 172 221 278 344 407
#     4  10  21  38  63  97 130 175 224 281 339 415
#     4  10  23  38  66  98 134 177 230 280 353 415
#     4  10  22  36  62  96 134 164 236 278 342 402
#     4  10  22  34  62 100 124 168 231 283 342 406
#     4  11  22  40  66 101 136 180 226 287 340 404
#     4  11  20  39  64 104 127 176 234 290 339 419
#     4  11  20  38  64  94 129 174 227 290 338 417
#
# _framework density 22.209175999999999
#
# number of rings (size 3 to 8) (size 9 to 14) (size 15 to 20)
#    0.000    1.600    4.000    1.600    7.467    0.000 
#    0.000    0.000    0.000    7.200    6.933    0.000 
#    0.000    0.000    0.000    0.000    0.000    0.000 
#
# Total GULP energy -167351.677325 kJ/mol
# GULP energy per Si atom -5578.389244 kJ/mol
# Density = 2.215863 g / cm^3
# Si number density = 22.209176 Si / 1000 Ang^3
#
#
#
# Elastic Constant Matrix: (Units=GPa)
#
#
# Indices 1 2 3 4 5 6 
#
# 1 204.1179 32.4772 51.4705 0.0000 -4.2353 0.0000
# 2 32.4772 71.9192 22.9134 0.0000 -7.7502 0.0000
# 3 51.4705 22.9134 94.6756 0.0000 -18.8093 0.0000
# 4 0.0000 0.0000 0.0000 30.7776 0.0000 -5.2938
# 5 -4.2353 -7.7502 -18.8093 0.0000 30.7025 0.0000
# 6 0.0000 0.0000 0.0000 -5.2938 0.0000 32.7909
#
#
#
# Elastic Compliance Matrix: (Units=1/GPa)
#
#
# Indices 1 2 3 4 5 6 
#
# 1 0.005942 -0.001867 -0.003085 0.000000 -0.001541 0.000000
# 2 -0.001867 0.015739 -0.002341 0.000000 0.002281 0.000000
# 3 -0.003085 -0.002341 0.014351 0.000000 0.007775 0.000000
# 4 0.000000 0.000000 0.000000 0.033419 0.000000 0.005395
# 5 -0.001541 0.002281 0.007775 0.000000 0.037697 0.000000
# 6 0.000000 0.000000 0.000000 0.005395 0.000000 0.031367
#
#
# Mechanical properties :
#
#
# Convention : Reuss Voigt Hill
#
# Bulk Modulus (GPa) = 46.62725 64.93721 55.78223
# Shear Modulus (GPa) = 31.20129 36.44431 33.82280
#
# Velocity S-wave (km/s) = 3.75224 4.05527 3.90669
# Velocity P-wave (km/s) = 6.30972 7.15747 6.74692
#
# Compressibility (1/GPa) = 0.02144669
#
# Stress axis : x y z
#
# Youngs Moduli (GPa) = 168.29303 63.53590 69.68247
#
# Poissons Ratio (x) = 0.11859 0.21496
# Poissons Ratio (y) = 0.31413 0.16314
# Poissons Ratio (z) = 0.51916 0.14875
#
# Static dielectric constant tensor:
#      x y z
#    x 1.898500 0.000000 -0.011690 
#    y 0.000000 2.117080 0.000000 
#    z -0.011690 0.000000 1.809050 
# 
# From -- ./inp_files/183076.got.cif
#   From: 2010.05.17/outbox.cif.g08.bks.cpg/sg15_92_cif.got.tgz:183076.got - 2010.06.03 18:47:42.
