data_PCOD9281876
_publ_section_title
;
Structure prediction by ZEFSAII (Michael W. Deem and Ramdas Pophale) SiO2 
 PCOD9281876
Probable space group: C 2/C
;
_chemical_formula_sum "Si O2"
_cell_formula_units_Z 40
_cell_length_a 23.518222
_cell_length_b 9.717504
_cell_length_c 18.656753
_cell_angle_alpha 90.000000
_cell_angle_beta 23.084777
_cell_angle_gamma 90.000000
_cell_volume 1671.798948
_symmetry_space_group_name_H-M "C 2/C"
_symmetry_group_IT_number 15
_symmetry_cell_setting 'monoclinic'
loop_
_space_group_symop_operation_xyz
x,y,z
-x,y,1/2-z
-x,-y,-z
x,-y,1/2+z
1/2+x,1/2+y,z
1/2-x,1/2+y,1/2-z
1/2-x,1/2-y,-z
1/2+x,1/2-y,1/2+z
loop_
_atom_site_type_symbol
_atom_site_label
_atom_site_fract_x
_atom_site_fract_y
_atom_site_fract_z
Si Si1 0.650545 0.100855 0.073065
Si Si2 0.441825 0.645475 0.159097
Si Si3 0.410903 0.360410 0.524954
Si Si4 0.877026 0.304549 0.449258
Si Si5 0.342966 0.164698 0.285473
O O1 0.500000 0.184746 0.250000
O O2 0.680862 0.060828 0.120524
O O3 0.619325 0.969512 0.061201
O O4 0.768509 0.198057 0.903419
O O5 0.497739 0.490797 0.112346
O O6 0.295298 0.711975 0.362372
O O7 0.571742 0.742967 0.034744
O O8 0.409535 0.632614 0.112294
O O9 0.493140 0.214620 0.416560
O O10 0.252717 0.369869 0.672498
O O11 0.000000 0.252545 0.250000
#
# Coordination Sequence:
#
# PCOD9281876 Si02
#       5
#     8   8   8   8   8
#     4  10  21  38  65  95 129 165 221 273 327 392
#     4  11  25  45  65  99 134 180 221 273 335 403
#     4  11  24  43  69  95 137 175 226 271 334 403
#     4  11  24  45  66  95 138 173 223 275 334 395
#     4  11  21  41  66  97 130 173 217 277 329 387
#
# _framework density 23.926323
#
# number of rings (size 3 to 8) (size 9 to 14) (size 15 to 20)
#    0.000    1.200    4.000    1.800    0.000    4.800 
#    0.000    1.000    0.000    0.000    0.000    0.000 
#    0.000    0.000    0.000    0.000    0.000    0.000 
#
# Total GULP energy -111481.212415 kJ/mol
# GULP energy per Si atom -5574.060621 kJ/mol
# Density = 2.387187 g / cm^3
# Si number density = 23.926323 Si / 1000 Ang^3
#
#
#
# Elastic Constant Matrix: (Units=GPa)
#
#
# Indices 1 2 3 4 5 6 
#
# 1 109.3743 39.1806 1.4385 0.0000 -28.7906 0.0000
# 2 39.1806 77.3260 12.9953 0.0000 -10.8945 0.0000
# 3 1.4385 12.9953 70.1348 0.0000 -20.0271 0.0000
# 4 0.0000 0.0000 0.0000 25.8623 0.0000 -3.0152
# 5 -28.7906 -10.8945 -20.0271 0.0000 34.7918 0.0000
# 6 0.0000 0.0000 0.0000 -3.0152 0.0000 25.8179
#
#
#
# Elastic Compliance Matrix: (Units=1/GPa)
#
#
# Indices 1 2 3 4 5 6 
#
# 1 0.014765 -0.006440 0.004552 0.000000 0.012822 0.000000
# 2 -0.006440 0.016481 -0.003554 0.000000 -0.002214 0.000000
# 3 0.004552 -0.003554 0.018646 0.000000 0.013387 0.000000
# 4 0.000000 0.000000 0.000000 0.039200 0.000000 0.004578
# 5 0.012822 -0.002214 0.013387 0.000000 0.046365 0.000000
# 6 0.000000 0.000000 0.000000 0.004578 0.000000 0.039267
#
#
# Mechanical properties :
#
#
# Convention : Reuss Voigt Hill
#
# Bulk Modulus (GPa) = 25.63601 40.45156 33.04378
# Shear Modulus (GPa) = 25.17486 30.84243 28.00864
#
# Velocity S-wave (km/s) = 3.24726 3.59424 3.42514
# Velocity P-wave (km/s) = 4.97970 5.84536 5.42980
#
# Compressibility (1/GPa) = 0.03900763
#
# Stress axis : x y z
#
# Youngs Moduli (GPa) = 67.72768 60.67740 53.63071
#
# Poissons Ratio (x) = 0.39075 -0.24411
# Poissons Ratio (y) = 0.43615 0.19060
# Poissons Ratio (z) = -0.30827 0.21564
#
# Static dielectric constant tensor:
#      x y z
#    x 1.984270 0.000000 0.010080 
#    y 0.000000 1.905120 0.000000 
#    z 0.010080 0.000000 2.059010 
# 
# From -- ./inp_files/255404.got.cif
#   From: 2010.05.17/outbox.cif.g08.bks.cpg/sg15_128_cif.got.tgz:255404.got - 2010.06.03 18:47:42.
