data_PCOD9281001
_publ_section_title
;
Structure prediction by ZEFSAII (Michael W. Deem and Ramdas Pophale) SiO2 
 PCOD9281001
Probable space group: C 2/C
;
_chemical_formula_sum "Si O2"
_cell_formula_units_Z 28
_cell_length_a 7.948471
_cell_length_b 13.027894
_cell_length_c 14.023623
_cell_angle_alpha 90.000000
_cell_angle_beta 43.500588
_cell_angle_gamma 90.000000
_cell_volume 999.620004
_symmetry_space_group_name_H-M "C 2/C"
_symmetry_group_IT_number 15
_symmetry_cell_setting 'monoclinic'
loop_
_space_group_symop_operation_xyz
x,y,z
-x,y,1/2-z
-x,-y,-z
x,-y,1/2+z
1/2+x,1/2+y,z
1/2-x,1/2+y,1/2-z
1/2-x,1/2-y,-z
1/2+x,1/2-y,1/2+z
loop_
_atom_site_type_symbol
_atom_site_label
_atom_site_fract_x
_atom_site_fract_y
_atom_site_fract_z
Si Si1 0.665630 0.494598 0.297429
Si Si2 0.018748 0.243758 0.847829
Si Si3 0.000000 0.747384 0.750000
Si Si4 0.325606 0.942815 0.441343
O O1 0.577863 0.377243 0.318815
O O2 0.742809 0.499049 0.377233
O O3 0.412723 0.557554 0.393942
O O4 0.921495 0.498224 0.135190
O O5 0.247287 0.291426 0.811031
O O6 0.000000 0.287138 0.750000
O O7 0.750000 0.250000 0.000000
O O8 0.099091 0.670758 0.624927
#
# Coordination Sequence:
#
# PCOD9281001 Si02
#       4
#     8   8   4   8
#     4   8  14  28  49  77 108 132 180 226 270 333
#     4  10  21  38  55  81 112 155 190 229 278 331
#     4   8  18  36  56  80 116 142 180 244 276 332
#     4   7  12  26  49  76 101 139 169 217 287 320
#
# _framework density 28.010643999999999
#
# number of rings (size 3 to 8) (size 9 to 14) (size 15 to 20)
#    0.000    4.571    0.000    0.000    0.000    1.143 
#   18.000    5.714    0.000    0.000    0.000    0.000 
#    0.000    0.000    0.000    0.000    0.000    0.000 
#
# Total GULP energy -78253.101815 kJ/mol
# GULP energy per Si atom -5589.507272 kJ/mol
# Density = 2.794689 g / cm^3
# Si number density = 28.010644 Si / 1000 Ang^3
#
#
#
# Elastic Constant Matrix: (Units=GPa)
#
#
# Indices 1 2 3 4 5 6 
#
# 1 204.2590 36.3395 117.5613 -0.0011 -53.7171 0.0008
# 2 36.3395 75.6674 36.6058 -0.0027 -21.0321 0.0031
# 3 117.5613 36.6058 332.7756 -0.0060 -67.2545 0.0042
# 4 -0.0011 -0.0027 -0.0060 63.3874 0.0016 -71.0054
# 5 -53.7171 -21.0321 -67.2545 0.0016 63.4251 -0.0014
# 6 0.0008 0.0031 0.0042 -71.0054 -0.0014 134.3453
#
#
#
# Elastic Compliance Matrix: (Units=1/GPa)
#
#
# Indices 1 2 3 4 5 6 
#
# 1 0.007077 -0.001585 -0.001553 0.000000 0.003821 0.000000
# 2 -0.001585 0.015080 -0.000458 0.000000 0.003173 0.000000
# 3 -0.001553 -0.000458 0.004210 0.000000 0.002996 0.000000
# 4 0.000000 0.000000 0.000000 0.038671 0.000000 0.020439
# 5 0.003821 0.003173 0.002996 0.000000 0.023232 0.000000
# 6 0.000000 0.000000 0.000000 0.020439 0.000000 0.018246
#
#
# Mechanical properties :
#
#
# Convention : Reuss Voigt Hill
#
# Bulk Modulus (GPa) = 52.15314 110.41278 81.28296
# Shear Modulus (GPa) = 41.63202 80.37791 61.00497
#
# Velocity S-wave (km/s) = 3.85943 5.36263 4.67188
# Velocity P-wave (km/s) = 6.20643 8.82312 7.62782
#
# Compressibility (1/GPa) = 0.01917430
#
# Stress axis : x y z
#
# Youngs Moduli (GPa) = 141.31084 66.31162 237.54263
#
# Poissons Ratio (x) = 0.10511 0.36902
# Poissons Ratio (y) = 0.22399 0.10870
# Poissons Ratio (z) = 0.21952 0.03035
#
# Static dielectric constant tensor:
#      x y z
#    x 2.146280 0.000000 0.019920 
#    y 0.000000 2.452220 0.000000 
#    z 0.019920 0.000000 2.116250 
# 
# From -- ./inp_files/191425.got.cif
#   From: 2010.05.17/outbox.cif.g08.bks.cpg/sg15_96_cif.got.tgz:191425.got - 2010.06.03 18:47:42.
