data_PCOD9281968
_publ_section_title
;
Structure prediction by ZEFSAII (Michael W. Deem and Ramdas Pophale) SiO2 
 PCOD9281968
Probable space group: C 2/C
;
_chemical_formula_sum "Si O2"
_cell_formula_units_Z 44
_cell_length_a 23.332942
_cell_length_b 17.993152
_cell_length_c 14.261763
_cell_angle_alpha 90.000000
_cell_angle_beta 160.883950
_cell_angle_gamma 90.000000
_cell_volume 1960.822051
_symmetry_space_group_name_H-M "C 2/C"
_symmetry_group_IT_number 15
_symmetry_cell_setting 'monoclinic'
loop_
_space_group_symop_operation_xyz
x,y,z
-x,y,1/2-z
-x,-y,-z
x,-y,1/2+z
1/2+x,1/2+y,z
1/2-x,1/2+y,1/2-z
1/2-x,1/2-y,-z
1/2+x,1/2-y,1/2+z
loop_
_atom_site_type_symbol
_atom_site_label
_atom_site_fract_x
_atom_site_fract_y
_atom_site_fract_z
Si Si1 0.446184 0.774511 0.776250
Si Si2 0.154085 0.427076 0.925849
Si Si3 0.393570 0.621437 0.959505
Si Si4 0.986714 0.043378 0.626444
Si Si5 0.500000 0.747389 0.250000
Si Si6 0.173141 0.836954 0.752514
O O1 0.500000 0.760147 0.750000
O O2 0.250000 0.750000 0.500000
O O3 0.443204 0.864223 0.786377
O O4 0.564927 0.726194 0.029329
O O5 0.258941 0.379779 0.166238
O O6 0.319316 0.461557 0.123386
O O7 0.000000 0.467247 0.750000
O O8 0.402729 0.537852 0.010255
O O9 0.378996 0.689969 0.005556
O O10 0.579836 0.638527 0.202263
O O11 0.855650 0.091593 0.359601
O O12 0.000000 0.078271 0.750000
O O13 0.641872 0.804789 0.430405
#
# Coordination Sequence:
#
# PCOD9281968 Si02
#       6
#     8   8   8   8   4   8
#     4  11  20  36  64 100 130 163 223 283 326 378
#     4  10  21  38  66  97 130 170 221 277 331 391
#     4  11  23  45  61  93 142 179 207 281 353 390
#     4  11  23  44  69  93 133 176 225 274 343 397
#     4  12  24  42  68  96 138 172 234 266 336 404
#     4  11  24  39  69  95 129 180 224 271 329 407
#
# _framework density 22.439568999999999
#
# number of rings (size 3 to 8) (size 9 to 14) (size 15 to 20)
#    0.000    1.091    4.545    5.455    0.000    0.000 
#    6.545    2.727    0.000    0.000    0.000    0.000 
#    0.000    0.000    0.000    0.000    0.000    0.000 
#
# Total GULP energy -122481.569470 kJ/mol
# GULP energy per Si atom -5567.344067 kJ/mol
# Density = 2.238850 g / cm^3
# Si number density = 22.439569 Si / 1000 Ang^3
#
#
#
# Elastic Constant Matrix: (Units=GPa)
#
#
# Indices 1 2 3 4 5 6 
#
# 1 62.7020 0.3992 1.0014 0.0000 12.9472 0.0000
# 2 0.3992 79.5957 16.6877 0.0000 9.2407 0.0000
# 3 1.0014 16.6877 51.1766 0.0000 22.1500 0.0000
# 4 0.0000 0.0000 0.0000 212.9040 0.0000 36.5156
# 5 12.9472 9.2407 22.1500 0.0000 29.0394 0.0000
# 6 0.0000 0.0000 0.0000 36.5156 0.0000 35.3083
#
#
#
# Elastic Compliance Matrix: (Units=1/GPa)
#
#
# Indices 1 2 3 4 5 6 
#
# 1 0.018311 0.000303 0.004655 0.000000 -0.011811 0.000000
# 2 0.000303 0.013529 -0.003725 0.000000 -0.001599 0.000000
# 3 0.004655 -0.003725 0.031423 0.000000 -0.024858 0.000000
# 4 0.000000 0.000000 0.000000 0.005710 0.000000 -0.005905
# 5 -0.011811 -0.001599 -0.024858 0.000000 0.059171 0.000000
# 6 0.000000 0.000000 0.000000 -0.005905 0.000000 0.034429
#
#
# Mechanical properties :
#
#
# Convention : Reuss Voigt Hill
#
# Bulk Modulus (GPa) = 15.21429 25.51678 20.36554
# Shear Modulus (GPa) = 27.47018 67.14274 47.30646
#
# Velocity S-wave (km/s) = 3.50263 5.47600 4.59646
# Velocity P-wave (km/s) = 4.81173 7.16785 6.10454
#
# Compressibility (1/GPa) = 0.06572767
#
# Stress axis : x y z
#
# Youngs Moduli (GPa) = 54.61207 73.91725 31.82413
#
# Poissons Ratio (x) = -0.02243 -0.14813
# Poissons Ratio (y) = -0.01657 0.11856
# Poissons Ratio (z) = -0.25420 0.27537
#
# Static dielectric constant tensor:
#      x y z
#    x 1.887150 0.000000 -0.041510 
#    y 0.000000 1.896720 0.000000 
#    z -0.041510 0.000000 1.889160 
# 
# From -- ./inp_files/174176.got.cif
#   From: 2010.05.17/outbox.cif.g08.bks.cpg/sg15_88_cif.got.tgz:174176.got - 2010.06.03 18:47:42.
