data_PCOD9281355
_publ_section_title
;
Structure prediction by ZEFSAII (Michael W. Deem and Ramdas Pophale) SiO2 
 PCOD9281355
Probable space group: C 2/C
;
_chemical_formula_sum "Si O2"
_cell_formula_units_Z 44
_cell_length_a 8.178033
_cell_length_b 9.795076
_cell_length_c 28.456762
_cell_angle_alpha 90.000000
_cell_angle_beta 120.422619
_cell_angle_gamma 90.000000
_cell_volume 1965.655939
_symmetry_space_group_name_H-M "C 2/C"
_symmetry_group_IT_number 15
_symmetry_cell_setting 'monoclinic'
loop_
_space_group_symop_operation_xyz
x,y,z
-x,y,1/2-z
-x,-y,-z
x,-y,1/2+z
1/2+x,1/2+y,z
1/2-x,1/2+y,1/2-z
1/2-x,1/2-y,-z
1/2+x,1/2-y,1/2+z
loop_
_atom_site_type_symbol
_atom_site_label
_atom_site_fract_x
_atom_site_fract_y
_atom_site_fract_z
Si Si1 0.224043 0.799184 0.785660
Si Si2 0.979544 0.369783 0.462689
Si Si3 0.683699 0.530103 0.648187
Si Si4 0.661034 0.678756 0.552033
Si Si5 0.500000 0.889681 0.750000
Si Si6 0.705262 0.550957 0.372720
O O1 0.320376 0.674749 0.826424
O O2 0.333362 0.812918 0.752990
O O3 0.000000 0.771932 0.750000
O O4 0.239148 0.929674 0.822370
O O5 0.163493 0.359430 0.456059
O O6 0.986033 0.230369 0.494171
O O7 0.000000 0.500000 0.500000
O O8 0.798234 0.411540 0.405530
O O9 0.640654 0.559786 0.587338
O O10 0.887304 0.470136 0.692430
O O11 0.514551 0.444946 0.646058
O O12 0.711193 0.816425 0.588446
#
# Coordination Sequence:
#
# PCOD9281355 Si02
#       6
#     8   8   8   8   4   8
#     4  11  23  41  59  87 122 157 209 256 302 371
#     4   9  18  38  62  88 122 161 197 254 305 360
#     4  11  23  39  60  88 121 162 207 258 305 367
#     4   9  20  38  61  86 123 159 201 252 303 367
#     4  12  24  38  62  86 118 166 206 250 320 364
#     4  10  21  38  61  87 121 158 201 253 308 359
#
# _framework density 22.384387
#
# number of rings (size 3 to 8) (size 9 to 14) (size 15 to 20)
#    0.000    1.818    2.727    1.091    0.000    3.636 
#    0.000    8.182    0.000    0.000    0.000    0.000 
#    0.000    0.000    0.000    0.000    0.000    0.000 
#
# Total GULP energy -122717.057703 kJ/mol
# GULP energy per Si atom -5578.048077 kJ/mol
# Density = 2.233344 g / cm^3
# Si number density = 22.384387 Si / 1000 Ang^3
#
#
#
# Elastic Constant Matrix: (Units=GPa)
#
#
# Indices 1 2 3 4 5 6 
#
# 1 98.4404 9.8998 13.0843 0.0000 -19.9156 0.0000
# 2 9.8998 21.3448 10.9285 0.0000 -3.7451 0.0000
# 3 13.0843 10.9285 39.3116 0.0000 -11.3179 0.0000
# 4 0.0000 0.0000 0.0000 -9.1039 0.0000 -10.5959
# 5 -19.9156 -3.7451 -11.3179 0.0000 43.5808 0.0000
# 6 0.0000 0.0000 0.0000 -10.5959 0.0000 21.2441
#
#
#
# Elastic Compliance Matrix: (Units=1/GPa)
#
#
# Indices 1 2 3 4 5 6 
#
# 1 0.011677 -0.003843 -0.001488 0.000000 0.004620 0.000000
# 2 -0.003843 0.055916 -0.014469 0.000000 -0.000709 0.000000
# 3 -0.001488 -0.014469 0.031778 0.000000 0.006329 0.000000
# 4 0.000000 0.000000 0.000000 -0.069498 0.000000 -0.034664
# 5 0.004620 -0.000709 0.006329 0.000000 0.026640 0.000000
# 6 0.000000 0.000000 0.000000 -0.034664 0.000000 0.029783
#
#
# Mechanical properties :
#
#
# Convention : Reuss Voigt Hill
#
# Bulk Modulus (GPa) = 16.73103 25.21355 20.97229
# Shear Modulus (GPa) = 34.28869 19.48981 26.88925
#
# Velocity S-wave (km/s) = 3.91808 2.95394 3.46967
# Velocity P-wave (km/s) = 5.28764 4.78777 5.04390
#
# Compressibility (1/GPa) = 0.05976917
#
# Stress axis : x y z
#
# Youngs Moduli (GPa) = 85.63585 17.88388 31.46856
#
# Poissons Ratio (x) = 0.06874 0.04683
# Poissons Ratio (y) = 0.32914 0.45533
# Poissons Ratio (z) = 0.12744 0.25877
#
# Static dielectric constant tensor:
#      x y z
#    x 1.781420 0.000000 -0.017780 
#    y 0.000000 1.842100 0.000000 
#    z -0.017780 0.000000 1.916170 
# 
# From -- ./inp_files/262808.got.cif
#   From: 2010.05.17/outbox.cif.g08.bks.cpg/sg15_132_cif.got.tgz:262808.got - 2010.06.03 18:47:42.
