data_PCOD9281044
_publ_section_title
;
Structure prediction by ZEFSAII (Michael W. Deem and Ramdas Pophale) SiO2 
 PCOD9281044
Probable space group: C 2/C
;
_chemical_formula_sum "Si O2"
_cell_formula_units_Z 56
_cell_length_a 20.720274
_cell_length_b 8.479024
_cell_length_c 18.360466
_cell_angle_alpha 90.000000
_cell_angle_beta 120.821782
_cell_angle_gamma 90.000000
_cell_volume 2770.125733
_symmetry_space_group_name_H-M "C 2/C"
_symmetry_group_IT_number 15
_symmetry_cell_setting 'monoclinic'
loop_
_space_group_symop_operation_xyz
x,y,z
-x,y,1/2-z
-x,-y,-z
x,-y,1/2+z
1/2+x,1/2+y,z
1/2-x,1/2+y,1/2-z
1/2-x,1/2-y,-z
1/2+x,1/2-y,1/2+z
loop_
_atom_site_type_symbol
_atom_site_label
_atom_site_fract_x
_atom_site_fract_y
_atom_site_fract_z
Si Si1 0.163682 0.509680 0.263456
Si Si2 0.097955 0.978115 0.225759
Si Si3 0.958081 0.844612 0.054263
Si Si4 0.298985 0.294189 0.318905
Si Si5 0.071295 0.800774 0.995688
Si Si6 0.474673 0.819351 0.316879
Si Si7 0.084892 0.718012 0.329775
O O1 0.220308 0.363167 0.300594
O O2 0.199043 0.643825 0.232803
O O3 0.083001 0.449842 0.186806
O O4 0.141187 0.592898 0.326383
O O5 0.164919 0.933267 0.210363
O O6 0.106341 0.889415 0.307569
O O7 0.027864 0.894328 0.145509
O O8 0.073538 0.157777 0.215954
O O9 0.913306 0.729377 0.081848
O O10 0.919502 0.010833 0.012815
O O11 0.997245 0.780852 0.004313
O O12 0.355258 0.253475 0.417494
O O13 0.047096 0.712782 0.908571
O O14 0.500000 0.855224 0.250000
O O15 0.000000 0.688317 0.250000
#
# Coordination Sequence:
#
# PCOD9281044 Si02
#       7
#     8   8   8   8   8   8   8
#     4  11  23  37  57  81 113 155 193 236 285 344
#     4   8  15  30  55  81 110 145 181 226 279 337
#     4   8  14  28  54  85 111 142 185 229 277 332
#     4  10  21  38  57  83 117 154 195 230 280 345
#     4   9  18  33  57  85 116 149 187 240 284 333
#     4  11  21  35  58  87 113 145 191 241 293 343
#     4   9  16  31  55  84 113 144 185 234 283 333
#
# _framework density 20.215689000000001
#
# number of rings (size 3 to 8) (size 9 to 14) (size 15 to 20)
#    0.000    2.571    0.000    5.143    0.000    0.571 
#    0.000    1.429    0.000    1.714    0.000    0.000 
#    0.000    0.000    0.000    0.000    0.000    0.000 
#
# Total GULP energy -156061.987250 kJ/mol
# GULP energy per Si atom -5573.642402 kJ/mol
# Density = 2.016968 g / cm^3
# Si number density = 20.215689 Si / 1000 Ang^3
#
#
#
# Elastic Constant Matrix: (Units=GPa)
#
#
# Indices 1 2 3 4 5 6 
#
# 1 83.2242 42.3079 37.4257 0.0000 -4.3006 0.0000
# 2 42.3079 63.1398 20.0151 0.0000 -5.8939 0.0000
# 3 37.4257 20.0151 72.6002 0.0000 -18.1239 0.0000
# 4 0.0000 0.0000 0.0000 -0.1886 0.0000 7.6203
# 5 -4.3006 -5.8939 -18.1239 0.0000 22.8893 0.0000
# 6 0.0000 0.0000 0.0000 7.6203 0.0000 33.3941
#
#
#
# Elastic Compliance Matrix: (Units=1/GPa)
#
#
# Indices 1 2 3 4 5 6 
#
# 1 0.022473 -0.012582 -0.009810 0.000000 -0.006785 0.000000
# 2 -0.012582 0.024412 0.000916 0.000000 0.004647 0.000000
# 3 -0.009810 0.000916 0.022656 0.000000 0.016331 0.000000
# 4 0.000000 0.000000 0.000000 -0.518799 0.000000 0.118387
# 5 -0.006785 0.004647 0.016331 0.000000 0.056542 0.000000
# 6 0.000000 0.000000 0.000000 0.118387 0.000000 0.002930
#
#
# Mechanical properties :
#
#
# Convention : Reuss Voigt Hill
#
# Bulk Modulus (GPa) = 37.60980 46.49573 42.05276
# Shear Modulus (GPa) = -14.79411 19.16665 2.18627
#
# Velocity S-wave (km/s) = -2.70814 3.08248 1.04107
# Velocity P-wave (km/s) = 2.97758 5.97651 4.72147
#
# Compressibility (1/GPa) = 0.02658881
#
# Stress axis : x y z
#
# Youngs Moduli (GPa) = 44.49834 40.96339 44.13934
#
# Poissons Ratio (x) = 0.51540 0.43300
# Poissons Ratio (y) = 0.55987 -0.04043
# Poissons Ratio (z) = 0.43652 -0.03752
#
# Static dielectric constant tensor:
#      x y z
#    x 1.779880 0.000000 -0.037520 
#    y 0.000000 1.769780 0.000000 
#    z -0.037520 0.000000 1.703640 
# 
# From -- ./inp_files/214042.got.cif
#   From: 2010.05.17/outbox.cif.g08.bks.cpg/sg15_108_cif.got.tgz:214042.got - 2010.06.03 18:47:42.
