data_PCOD9281861
_publ_section_title
;
Structure prediction by ZEFSAII (Michael W. Deem and Ramdas Pophale) SiO2 
 PCOD9281861
Probable space group: C 2/C
;
_chemical_formula_sum "Si O2"
_cell_formula_units_Z 40
_cell_length_a 13.545617
_cell_length_b 12.508449
_cell_length_c 23.115696
_cell_angle_alpha 90.000000
_cell_angle_beta 152.414942
_cell_angle_gamma 90.000000
_cell_volume 1813.640059
_symmetry_space_group_name_H-M "C 2/C"
_symmetry_group_IT_number 15
_symmetry_cell_setting 'monoclinic'
loop_
_space_group_symop_operation_xyz
x,y,z
-x,y,1/2-z
-x,-y,-z
x,-y,1/2+z
1/2+x,1/2+y,z
1/2-x,1/2+y,1/2-z
1/2-x,1/2-y,-z
1/2+x,1/2-y,1/2+z
loop_
_atom_site_type_symbol
_atom_site_label
_atom_site_fract_x
_atom_site_fract_y
_atom_site_fract_z
Si Si1 0.896578 0.355752 0.638518
Si Si2 0.539480 0.181325 0.446343
Si Si3 0.602696 0.540107 0.492351
Si Si4 0.738999 0.268088 0.894636
Si Si5 0.877089 0.012022 0.124293
O O1 0.678938 0.289259 0.518460
O O2 0.049064 0.332882 0.664120
O O3 0.829722 0.478470 0.607933
O O4 0.000000 0.315868 0.750000
O O5 0.365418 0.188894 0.404508
O O6 0.703784 0.082678 0.537776
O O7 0.500000 0.500000 0.500000
O O8 0.639009 0.665919 0.517460
O O9 0.507188 0.507411 0.379049
O O10 0.500000 0.238947 0.750000
O O11 0.725875 0.370022 0.929632
O O12 0.000000 0.006665 0.250000
#
# Coordination Sequence:
#
# PCOD9281861 Si02
#       5
#     8   8   8   8   8
#     4  10  21  38  65  94 121 165 216 260 317 376
#     4  10  21  41  64  92 129 163 213 266 312 380
#     4  11  22  42  65  93 131 166 212 264 312 385
#     4  11  23  42  64  94 129 168 209 262 325 376
#     4  10  23  42  65  96 130 167 211 261 324 379
#
# _framework density 22.055091999999998
#
# number of rings (size 3 to 8) (size 9 to 14) (size 15 to 20)
#    0.000    1.600    2.000    2.400    0.000    3.200 
#    3.600    0.000    0.000    0.000    0.000    0.000 
#    0.000    0.000    0.000    0.000    0.000    0.000 
#
# Total GULP energy -111554.237444 kJ/mol
# GULP energy per Si atom -5577.711872 kJ/mol
# Density = 2.200489 g / cm^3
# Si number density = 22.055092 Si / 1000 Ang^3
#
#
#
# Elastic Constant Matrix: (Units=GPa)
#
#
# Indices 1 2 3 4 5 6 
#
# 1 184.7949 25.6606 49.6199 0.0001 -41.2935 0.0001
# 2 25.6606 122.8945 19.2914 0.0006 -9.9990 -0.0003
# 3 49.6199 19.2914 53.1532 0.0014 -31.3982 -0.0001
# 4 0.0001 0.0006 0.0014 18.0550 0.0005 -6.9116
# 5 -41.2935 -9.9990 -31.3982 0.0005 38.1100 0.0000
# 6 0.0001 -0.0003 -0.0001 -6.9116 0.0000 16.4582
#
#
#
# Elastic Compliance Matrix: (Units=1/GPa)
#
#
# Indices 1 2 3 4 5 6 
#
# 1 0.007662 -0.000563 -0.004153 0.000000 0.004733 0.000000
# 2 -0.000563 0.008677 -0.003193 0.000000 -0.000964 0.000000
# 3 -0.004153 -0.003193 0.040318 -0.000004 0.027880 -0.000002
# 4 0.000000 0.000000 -0.000004 0.065996 -0.000004 0.027715
# 5 0.004733 -0.000964 0.027880 -0.000004 0.054086 -0.000002
# 6 0.000000 0.000000 -0.000002 0.027715 -0.000002 0.072398
#
#
# Mechanical properties :
#
#
# Convention : Reuss Voigt Hill
#
# Bulk Modulus (GPa) = 24.48579 61.10958 42.79769
# Shear Modulus (GPa) = 17.94887 32.27603 25.11245
#
# Velocity S-wave (km/s) = 2.85585 3.82963 3.37801
# Velocity P-wave (km/s) = 4.69049 6.87914 5.88741
#
# Compressibility (1/GPa) = 0.04084001
#
# Stress axis : x y z
#
# Youngs Moduli (GPa) = 130.50910 115.24131 24.80269
#
# Poissons Ratio (x) = 0.06487 0.10299
# Poissons Ratio (y) = 0.07347 0.07921
# Poissons Ratio (z) = 0.54195 0.36802
#
# Static dielectric constant tensor:
#      x y z
#    x 1.860310 0.000000 -0.044230 
#    y 0.000000 1.799210 0.000000 
#    z -0.044230 0.000000 1.853810 
# 
# From -- ./inp_files/237799.got.cif
#   From: 2010.05.17/outbox.cif.g08.bks.cpg/sg15_119_cif.got.tgz:237799.got - 2010.06.03 18:47:42.
