data_PCOD9281945
_publ_section_title
;
Structure prediction by ZEFSAII (Michael W. Deem and Ramdas Pophale) SiO2 
 PCOD9281945
Probable space group: C 2/C
;
_chemical_formula_sum "Si O2"
_cell_formula_units_Z 36
_cell_length_a 7.636697
_cell_length_b 23.652106
_cell_length_c 9.775531
_cell_angle_alpha 90.000000
_cell_angle_beta 67.008440
_cell_angle_gamma 90.000000
_cell_volume 1625.432601
_symmetry_space_group_name_H-M "C 2/C"
_symmetry_group_IT_number 15
_symmetry_cell_setting 'monoclinic'
loop_
_space_group_symop_operation_xyz
x,y,z
-x,y,1/2-z
-x,-y,-z
x,-y,1/2+z
1/2+x,1/2+y,z
1/2-x,1/2+y,1/2-z
1/2-x,1/2-y,-z
1/2+x,1/2-y,1/2+z
loop_
_atom_site_type_symbol
_atom_site_label
_atom_site_fract_x
_atom_site_fract_y
_atom_site_fract_z
Si Si1 0.851456 0.311126 0.169978
Si Si2 0.176614 0.282381 0.888611
Si Si3 0.000000 0.125000 0.250000
Si Si4 0.684776 0.532381 0.388613
Si Si5 0.771434 0.938872 0.330019
O O1 0.706848 0.260680 0.253390
O O2 0.777750 0.374999 0.194501
O O3 0.000000 0.308532 0.250000
O O4 0.963461 0.300187 0.994097
O O5 0.321519 0.334867 0.838034
O O6 0.250000 0.250000 0.000000
O O7 0.909546 0.084866 0.161970
O O8 0.500000 0.500000 0.500000
O O9 0.789762 0.489318 0.253396
O O10 0.792441 0.550187 0.494101
O O11 0.000000 0.941465 0.250000
#
# Coordination Sequence:
#
# PCOD9281945 Si02
#       5
#     8   8   4   8   8
#     4  10  22  40  66  96 131 173 221 267 326 390
#     4  10  21  38  66  94 126 176 220 258 330 392
#     4  12  20  40  70  92 128 176 222 264 316 416
#     4  10  21  38  66  94 126 176 220 258 330 392
#     4  10  22  40  66  96 131 173 221 267 326 390
#
# _framework density 22.147950999999999
#
# number of rings (size 3 to 8) (size 9 to 14) (size 15 to 20)
#    0.000    1.778    6.667    0.000   12.444    0.000 
#    0.000   10.000    0.000    0.000    0.000    0.000 
#    0.000    0.000    0.000    0.000    0.000    0.000 
#
# Total GULP energy -100376.962275 kJ/mol
# GULP energy per Si atom -5576.497904 kJ/mol
# Density = 2.209754 g / cm^3
# Si number density = 22.147951 Si / 1000 Ang^3
#
#
#
# Elastic Constant Matrix: (Units=GPa)
#
#
# Indices 1 2 3 4 5 6 
#
# 1 47.3480 31.2427 41.9934 0.0000 -3.5224 0.0000
# 2 31.2427 183.4864 102.0650 0.0000 -5.3145 0.0000
# 3 41.9934 102.0650 146.8902 0.0000 -3.9468 0.0000
# 4 0.0000 0.0000 0.0000 42.8018 0.0000 0.1435
# 5 -3.5224 -5.3145 -3.9468 0.0000 26.1849 0.0000
# 6 0.0000 0.0000 0.0000 0.1435 0.0000 44.7360
#
#
#
# Elastic Compliance Matrix: (Units=1/GPa)
#
#
# Indices 1 2 3 4 5 6 
#
# 1 0.028495 -0.000464 -0.007755 0.000000 0.002570 0.000000
# 2 -0.000464 0.008911 -0.006037 0.000000 0.000836 0.000000
# 3 -0.007755 -0.006037 0.013212 0.000000 -0.000277 0.000000
# 4 0.000000 0.000000 0.000000 0.023364 0.000000 -0.000075
# 5 0.002570 0.000836 -0.000277 0.000000 0.038664 0.000000
# 6 0.000000 0.000000 0.000000 -0.000075 0.000000 0.022354
#
#
# Mechanical properties :
#
#
# Convention : Reuss Voigt Hill
#
# Bulk Modulus (GPa) = 45.23367 80.92519 63.07943
# Shear Modulus (GPa) = 29.26032 36.23945 32.74989
#
# Velocity S-wave (km/s) = 3.63868 4.04944 3.84954
# Velocity P-wave (km/s) = 6.17422 7.64733 6.94992
#
# Compressibility (1/GPa) = 0.02210743
#
# Stress axis : x y z
#
# Youngs Moduli (GPa) = 35.09329 112.21892 75.68900
#
# Poissons Ratio (x) = 0.05205 0.58697
# Poissons Ratio (y) = 0.01628 0.45692
# Poissons Ratio (z) = 0.27215 0.67744
#
# Static dielectric constant tensor:
#      x y z
#    x 1.861440 0.000000 -0.002630 
#    y 0.000000 1.904950 0.000000 
#    z -0.002630 0.000000 1.896370 
# 
# From -- ./inp_files/23292.got.cif
#   From: 2010.05.17/outbox.cif.g08.bks.cpg/sg15_12_cif.got.tgz:23292.got - 2010.06.03 18:47:42.
