data_PCOD9281493
_publ_section_title
;
Structure prediction by ZEFSAII (Michael W. Deem and Ramdas Pophale) SiO2 
 PCOD9281493
Probable space group: C 2/C
;
_chemical_formula_sum "Si O2"
_cell_formula_units_Z 48
_cell_length_a 19.788848
_cell_length_b 10.251149
_cell_length_c 13.865182
_cell_angle_alpha 90.000000
_cell_angle_beta 128.123672
_cell_angle_gamma 90.000000
_cell_volume 2212.670550
_symmetry_space_group_name_H-M "C 2/C"
_symmetry_group_IT_number 15
_symmetry_cell_setting 'monoclinic'
loop_
_space_group_symop_operation_xyz
x,y,z
-x,y,1/2-z
-x,-y,-z
x,-y,1/2+z
1/2+x,1/2+y,z
1/2-x,1/2+y,1/2-z
1/2-x,1/2-y,-z
1/2+x,1/2-y,1/2+z
loop_
_atom_site_type_symbol
_atom_site_label
_atom_site_fract_x
_atom_site_fract_y
_atom_site_fract_z
Si Si1 0.500000 0.563803 0.250000
Si Si2 0.413929 0.159215 0.003474
Si Si3 0.754331 0.312787 0.635418
Si Si4 0.186915 0.047417 0.910905
Si Si5 0.500000 0.018630 0.250000
Si Si6 0.813446 0.601980 0.394397
Si Si7 0.512701 0.205450 0.902884
O O1 0.412470 0.483476 0.159321
O O2 0.512134 0.660339 0.169344
O O3 0.442326 0.114318 0.134715
O O4 0.345520 0.273323 0.946265
O O5 0.487748 0.193293 0.992700
O O6 0.363047 0.033677 0.919079
O O7 0.802239 0.188322 0.631445
O O8 0.748779 0.435732 0.558874
O O9 0.789500 0.338094 0.771557
O O10 0.230440 0.936852 0.883015
O O11 0.530354 0.914737 0.194752
O O12 0.884311 0.686793 0.513312
#
# Coordination Sequence:
#
# PCOD9281493 Si02
#       7
#     4   8   8   8   4   8   8
#     4  11  24  41  60  90 124 157 198 247 304 360
#     4  10  21  38  62  90 119 155 199 247 295 349
#     4  10  23  41  62  88 119 159 199 243 299 357
#     4  10  24  42  60  88 123 161 202 243 298 359
#     4   9  18  35  58  88 120 153 196 243 288 344
#     4  10  21  39  62  89 120 157 200 247 295 351
#     4  10  22  37  62  92 119 156 198 248 302 350
#
# _framework density 21.693242999999999
#
# number of rings (size 3 to 8) (size 9 to 14) (size 15 to 20)
#    0.000    2.000    0.000    3.000    0.000   17.333 
#    0.000    4.167    0.000    0.000    0.000    0.000 
#    0.000    0.000    0.000    0.000    0.000    0.000 
#
# Total GULP energy -133977.403419 kJ/mol
# GULP energy per Si atom -5582.391809 kJ/mol
# Density = 2.164387 g / cm^3
# Si number density = 21.693243 Si / 1000 Ang^3
#
#
#
# Elastic Constant Matrix: (Units=GPa)
#
#
# Indices 1 2 3 4 5 6 
#
# 1 83.6526 14.5388 33.4207 0.0000 14.2504 0.0000
# 2 14.5388 38.5262 39.8319 0.0000 4.3338 0.0000
# 3 33.4207 39.8319 135.1167 0.0000 -9.3371 0.0000
# 4 0.0000 0.0000 0.0000 21.5465 0.0000 9.3852
# 5 14.2504 4.3338 -9.3371 0.0000 27.5051 0.0000
# 6 0.0000 0.0000 0.0000 9.3852 0.0000 18.0075
#
#
#
# Elastic Compliance Matrix: (Units=1/GPa)
#
#
# Indices 1 2 3 4 5 6 
#
# 1 0.015344 -0.000196 -0.004388 0.000000 -0.009408 0.000000
# 2 -0.000196 0.040140 -0.012508 0.000000 -0.010470 0.000000
# 3 -0.004388 -0.012508 0.012766 0.000000 0.008578 0.000000
# 4 0.000000 0.000000 0.000000 0.060042 0.000000 -0.031293
# 5 -0.009408 -0.010470 0.008578 0.000000 0.045793 0.000000
# 6 0.000000 0.000000 0.000000 -0.031293 0.000000 0.071841
#
#
# Mechanical properties :
#
#
# Convention : Reuss Voigt Hill
#
# Bulk Modulus (GPa) = 29.35367 48.09759 38.72563
# Shear Modulus (GPa) = 17.15468 24.71209 20.93338
#
# Velocity S-wave (km/s) = 2.81514 3.37881 3.10977
# Velocity P-wave (km/s) = 4.91196 6.11895 5.54837
#
# Compressibility (1/GPa) = 0.03406729
#
# Stress axis : x y z
#
# Youngs Moduli (GPa) = 65.17242 24.91270 78.33005
#
# Poissons Ratio (x) = 0.00487 0.34369
# Poissons Ratio (y) = 0.01275 0.97978
# Poissons Ratio (z) = 0.28596 0.31162
#
# Static dielectric constant tensor:
#      x y z
#    x 1.839250 0.000000 -0.015540 
#    y 0.000000 1.805040 0.000000 
#    z -0.015540 0.000000 1.786770 
# 
# From -- ./inp_files/167391.got.cif
#   From: 2010.05.17/outbox.cif.g08.bks.cpg/sg15_84_cif.got.tgz:167391.got - 2010.06.03 18:47:42.
