data_PCOD9281273
_publ_section_title
;
Structure prediction by ZEFSAII (Michael W. Deem and Ramdas Pophale) SiO2 
 PCOD9281273
Probable space group: C 2/C
;
_chemical_formula_sum "Si O2"
_cell_formula_units_Z 60
_cell_length_a 7.645240
_cell_length_b 11.964896
_cell_length_c 27.268393
_cell_angle_alpha 90.000000
_cell_angle_beta 102.186758
_cell_angle_gamma 90.000000
_cell_volume 2438.151468
_symmetry_space_group_name_H-M "C 2/C"
_symmetry_group_IT_number 15
_symmetry_cell_setting 'monoclinic'
loop_
_space_group_symop_operation_xyz
x,y,z
-x,y,1/2-z
-x,-y,-z
x,-y,1/2+z
1/2+x,1/2+y,z
1/2-x,1/2+y,1/2-z
1/2-x,1/2-y,-z
1/2+x,1/2-y,1/2+z
loop_
_atom_site_type_symbol
_atom_site_label
_atom_site_fract_x
_atom_site_fract_y
_atom_site_fract_z
Si Si1 0.493533 0.085302 0.454688
Si Si2 0.074951 0.161929 0.541973
Si Si3 0.672784 0.199497 0.197864
Si Si4 0.086768 0.065467 0.432558
Si Si5 0.292572 0.978283 0.729004
Si Si6 0.000000 0.870007 0.250000
Si Si7 0.922014 0.268868 0.126257
Si Si8 0.070403 0.492672 0.862222
O O1 0.520919 0.216439 0.466961
O O2 0.289759 0.067548 0.424282
O O3 0.626172 0.046195 0.419718
O O4 0.500000 0.000000 0.500000
O O5 0.098481 0.115952 0.488393
O O6 0.259985 0.192312 0.580235
O O7 0.980036 0.061567 0.566138
O O8 0.532303 0.294697 0.204164
O O9 0.831921 0.237502 0.172688
O O10 0.562020 0.102824 0.164786
O O11 0.735820 0.147672 0.253585
O O12 0.991449 0.160614 0.393697
O O13 0.500000 0.007450 0.750000
O O14 0.170681 0.051385 0.756713
O O15 0.275235 0.998649 0.670091
O O16 0.022028 0.385941 0.139051
#
# Coordination Sequence:
#
# PCOD9281273 Si02
#       8
#     8   8   8   8   8   4   8   8
#     4  11  21  37  62  89 128 175 208 268 339 386
#     4  10  21  38  60  90 128 168 222 272 323 402
#     4  11  22  42  65  94 132 169 222 277 332 407
#     4  10  21  38  60  89 126 170 218 271 326 398
#     4  10  24  44  67  99 133 174 229 279 336 411
#     4  12  22  46  72  92 140 180 212 292 346 392
#     4  11  21  40  64  88 128 169 214 268 337 393
#     4  11  20  40  64  93 127 168 219 270 327 400
#
# _framework density 24.608809000000001
#
# number of rings (size 3 to 8) (size 9 to 14) (size 15 to 20)
#    0.000    1.333    6.000    3.200    0.000    1.600 
#    1.200    4.000    0.000    0.000    0.000    0.000 
#    0.000    0.000    0.000    0.000    0.000    0.000 
#
# Total GULP energy -167609.337992 kJ/mol
# GULP energy per Si atom -5586.977933 kJ/mol
# Density = 2.455280 g / cm^3
# Si number density = 24.608809 Si / 1000 Ang^3
#
#
#
# Elastic Constant Matrix: (Units=GPa)
#
#
# Indices 1 2 3 4 5 6 
#
# 1 63.1263 51.7411 25.0394 0.0000 -21.6566 0.0000
# 2 51.7411 174.4998 34.1031 0.0000 -19.5501 0.0000
# 3 25.0394 34.1031 111.0893 0.0000 -33.4360 0.0000
# 4 0.0000 0.0000 0.0000 52.8288 0.0000 -7.4056
# 5 -21.6566 -19.5501 -33.4360 0.0000 34.5441 0.0000
# 6 0.0000 0.0000 0.0000 -7.4056 0.0000 53.3938
#
#
#
# Elastic Compliance Matrix: (Units=1/GPa)
#
#
# Indices 1 2 3 4 5 6 
#
# 1 0.024995 -0.006026 -0.000133 0.000000 0.012131 0.000000
# 2 -0.006026 0.007683 -0.001169 0.000000 -0.000562 0.000000
# 3 -0.000133 -0.001169 0.012935 0.000000 0.011775 0.000000
# 4 0.000000 0.000000 0.000000 0.019304 0.000000 0.002677
# 5 0.012131 -0.000562 0.011775 0.000000 0.047633 0.000000
# 6 0.000000 0.000000 0.000000 0.002677 0.000000 0.019100
#
#
# Mechanical properties :
#
#
# Convention : Reuss Voigt Hill
#
# Bulk Modulus (GPa) = 32.30344 63.38694 47.84519
# Shear Modulus (GPa) = 31.92323 44.00882 37.96602
#
# Velocity S-wave (km/s) = 3.60561 4.23346 3.93209
# Velocity P-wave (km/s) = 5.52170 7.05053 6.33242
#
# Compressibility (1/GPa) = 0.03095645
#
# Stress axis : x y z
#
# Youngs Moduli (GPa) = 40.00782 130.15522 77.31178
#
# Poissons Ratio (x) = 0.78435 0.01025
# Poissons Ratio (y) = 0.24110 0.09041
# Poissons Ratio (z) = 0.00530 0.15220
#
# Static dielectric constant tensor:
#      x y z
#    x 1.952750 0.000000 0.047110 
#    y 0.000000 2.021920 0.000000 
#    z 0.047110 0.000000 2.056740 
# 
# From -- ./inp_files/307158.got.cif
#   From: 2010.05.17/outbox.cif.g08.bks.cpg/sg15_154_cif.got.tgz:307158.got - 2010.06.03 18:47:42.
