data_PCOD9281065
_publ_section_title
;
Structure prediction by ZEFSAII (Michael W. Deem and Ramdas Pophale) SiO2 
 PCOD9281065
Probable space group: C 2/C
;
_chemical_formula_sum "Si O2"
_cell_formula_units_Z 56
_cell_length_a 8.529818
_cell_length_b 26.136040
_cell_length_c 11.901692
_cell_angle_alpha 90.000000
_cell_angle_beta 112.523418
_cell_angle_gamma 90.000000
_cell_volume 2450.925082
_symmetry_space_group_name_H-M "C 2/C"
_symmetry_group_IT_number 15
_symmetry_cell_setting 'monoclinic'
loop_
_space_group_symop_operation_xyz
x,y,z
-x,y,1/2-z
-x,-y,-z
x,-y,1/2+z
1/2+x,1/2+y,z
1/2-x,1/2+y,1/2-z
1/2-x,1/2-y,-z
1/2+x,1/2-y,1/2+z
loop_
_atom_site_type_symbol
_atom_site_label
_atom_site_fract_x
_atom_site_fract_y
_atom_site_fract_z
Si Si1 0.328865 0.589544 0.959759
Si Si2 0.504897 0.861833 0.497435
Si Si3 0.872550 0.280080 0.620970
Si Si4 0.377119 0.639664 0.323849
Si Si5 0.354324 0.494250 0.118991
Si Si6 0.322499 0.612817 0.702650
Si Si7 0.900031 0.445481 0.824920
O O1 0.295988 0.589758 0.818988
O O2 0.171850 0.618961 0.977760
O O3 0.494085 0.620232 0.045498
O O4 0.358427 0.531588 0.013108
O O5 0.500831 0.812670 0.575725
O O6 0.343514 0.856489 0.373670
O O7 0.473758 0.909084 0.573165
O O8 0.750000 0.250000 0.500000
O O9 0.743562 0.317086 0.655668
O O10 0.000000 0.256554 0.750000
O O11 0.500000 0.652948 0.250000
O O12 0.252345 0.593270 0.251761
O O13 0.500000 0.509279 0.250000
O O14 0.355158 0.433294 0.122704
O O15 0.176257 0.510000 0.123511
O O16 0.500000 0.642389 0.750000
O O17 0.000000 0.468228 0.750000
#
# Coordination Sequence:
#
# PCOD9281065 Si02
#       7
#     8   8   8   8   8   8   8
#     4  11  22  40  68  91 131 179 229 276 328 403
#     4  11  22  44  65  91 131 175 219 264 336 404
#     4  12  26  47  74 105 137 170 225 286 346 422
#     4  12  19  42  73  98 124 174 223 262 341 398
#     4  10  21  38  57  94 132 179 230 277 324 384
#     4  11  26  38  58  96 140 180 227 281 337 383
#     4  11  19  34  69  91 123 167 225 259 318 387
#
# _framework density 22.848516
#
# number of rings (size 3 to 8) (size 9 to 14) (size 15 to 20)
#    0.000    0.857    7.143    1.286    0.000    8.571 
#    0.000    4.286    0.000    0.000    0.000    0.000 
#    0.000    0.000    0.000    0.000    0.000    0.000 
#
# Total GULP energy -156314.859560 kJ/mol
# GULP energy per Si atom -5582.673556 kJ/mol
# Density = 2.279651 g / cm^3
# Si number density = 22.848516 Si / 1000 Ang^3
#
#
#
# Elastic Constant Matrix: (Units=GPa)
#
#
# Indices 1 2 3 4 5 6 
#
# 1 107.0678 36.5333 38.2330 0.0000 9.9136 0.0000
# 2 36.5333 76.7243 31.1428 0.0000 1.0505 0.0000
# 3 38.2330 31.1428 131.7445 0.0000 27.8201 0.0000
# 4 0.0000 0.0000 0.0000 25.1931 0.0000 -0.1558
# 5 9.9136 1.0505 27.8201 0.0000 44.3784 0.0000
# 6 0.0000 0.0000 0.0000 -0.1558 0.0000 19.2912
#
#
#
# Elastic Compliance Matrix: (Units=1/GPa)
#
#
# Indices 1 2 3 4 5 6 
#
# 1 0.011814 -0.004783 -0.002034 0.000000 -0.001251 0.000000
# 2 -0.004783 0.016520 -0.003066 0.000000 0.002599 0.000000
# 3 -0.002034 -0.003066 0.010136 0.000000 -0.005827 0.000000
# 4 0.000000 0.000000 0.000000 0.039695 0.000000 0.000321
# 5 -0.001251 0.002599 -0.005827 0.000000 0.026404 0.000000
# 6 0.000000 0.000000 0.000000 0.000321 0.000000 0.051840
#
#
# Mechanical properties :
#
#
# Convention : Reuss Voigt Hill
#
# Bulk Modulus (GPa) = 53.46219 58.59496 56.02858
# Shear Modulus (GPa) = 27.41091 31.74771 29.57931
#
# Velocity S-wave (km/s) = 3.46740 3.73163 3.60194
# Velocity P-wave (km/s) = 6.28330 6.65337 6.47098
#
# Compressibility (1/GPa) = 0.01870481
#
# Stress axis : x y z
#
# Youngs Moduli (GPa) = 84.64625 60.53281 98.65890
#
# Poissons Ratio (x) = 0.28951 0.20064
# Poissons Ratio (y) = 0.40484 0.30249
# Poissons Ratio (z) = 0.17215 0.18560
#
# Static dielectric constant tensor:
#      x y z
#    x 1.891750 0.000000 0.002840 
#    y 0.000000 1.851180 0.000000 
#    z 0.002840 0.000000 1.975700 
# 
# From -- ./inp_files/82279.got.cif
#   From: 2010.05.17/outbox.cif.g08.bks.cpg/sg15_42_cif.got.tgz:82279.got - 2010.06.03 18:47:42.
