data_PCOD9281338
_publ_section_title
;
Structure prediction by ZEFSAII (Michael W. Deem and Ramdas Pophale) SiO2 
 PCOD9281338
Probable space group: C 2/C
;
_chemical_formula_sum "Si O2"
_cell_formula_units_Z 64
_cell_length_a 27.380911
_cell_length_b 8.070368
_cell_length_c 13.441472
_cell_angle_alpha 90.000000
_cell_angle_beta 86.938990
_cell_angle_gamma 90.000000
_cell_volume 2965.978424
_symmetry_space_group_name_H-M "C 2/C"
_symmetry_group_IT_number 15
_symmetry_cell_setting 'monoclinic'
loop_
_space_group_symop_operation_xyz
x,y,z
-x,y,1/2-z
-x,-y,-z
x,-y,1/2+z
1/2+x,1/2+y,z
1/2-x,1/2+y,1/2-z
1/2-x,1/2-y,-z
1/2+x,1/2-y,1/2+z
loop_
_atom_site_type_symbol
_atom_site_label
_atom_site_fract_x
_atom_site_fract_y
_atom_site_fract_z
Si Si1 0.824174 0.590736 0.525261
Si Si2 0.990971 0.932182 0.862428
Si Si3 0.423959 0.010057 0.941244
Si Si4 0.761631 0.520262 0.344877
Si Si5 0.490110 0.772762 0.557519
Si Si6 0.884479 0.156457 0.371298
Si Si7 0.303314 0.281802 0.043949
Si Si8 0.309946 0.267175 0.730169
O O1 0.877626 0.600949 0.472194
O O2 0.784385 0.602576 0.441070
O O3 0.820572 0.402603 0.568447
O O4 0.817544 0.714627 0.616161
O O5 0.932193 0.955329 0.881184
O O6 0.000000 0.871113 0.750000
O O7 0.017035 0.108753 0.876621
O O8 0.006085 0.804367 0.947696
O O9 0.406953 0.156637 0.870031
O O10 0.468605 0.894094 0.904864
O O11 0.443620 0.114400 0.035088
O O12 0.711920 0.419354 0.375692
O O13 0.742592 0.643253 0.262939
O O14 0.801917 0.394679 0.299126
O O15 0.844093 0.149643 0.463228
O O16 0.854179 0.132747 0.273922
O O17 0.250000 0.250000 0.000000
#
# Coordination Sequence:
#
# PCOD9281338 Si02
#       8
#     8   8   8   8   8   8   8   8
#     4  10  21  38  61  86 121 155 206 253 293 365
#     4  10  22  41  60  89 127 151 196 252 305 369
#     4   9  18  41  64  86 115 157 202 251 300 359
#     4  11  23  40  60  87 123 165 201 250 302 360
#     4   9  20  40  65  85 117 160 195 247 315 358
#     4  10  21  40  62  88 123 161 202 251 305 364
#     4   9  17  39  60  77 119 159 191 247 301 343
#     4  12  23  38  60  92 121 162 210 246 308 361
#
# _framework density 21.578039
#
# number of rings (size 3 to 8) (size 9 to 14) (size 15 to 20)
#    0.000    2.000    3.750    1.125    3.500    1.000 
#   11.250    1.250    0.000    0.000    0.000    0.000 
#    0.000    0.000    0.000    0.000    0.000    0.000 
#
# Total GULP energy -178440.976058 kJ/mol
# GULP energy per Si atom -5576.280502 kJ/mol
# Density = 2.152893 g / cm^3
# Si number density = 21.578039 Si / 1000 Ang^3
#
#
#
# Elastic Constant Matrix: (Units=GPa)
#
#
# Indices 1 2 3 4 5 6 
#
# 1 73.2950 5.4829 0.2712 0.0000 15.2497 0.0000
# 2 5.4829 26.6920 -0.0488 0.0000 9.3537 0.0000
# 3 0.2712 -0.0488 53.1095 0.0000 11.7936 0.0000
# 4 0.0000 0.0000 0.0000 23.4475 0.0000 3.9994
# 5 15.2497 9.3537 11.7936 0.0000 25.2548 0.0000
# 6 0.0000 0.0000 0.0000 3.9994 0.0000 29.5262
#
#
#
# Elastic Compliance Matrix: (Units=1/GPa)
#
#
# Indices 1 2 3 4 5 6 
#
# 1 0.015855 0.000556 0.002333 0.000000 -0.010869 0.000000
# 2 0.000556 0.043845 0.004148 0.000000 -0.018512 0.000000
# 3 0.002333 0.004148 0.021728 0.000000 -0.013092 0.000000
# 4 0.000000 0.000000 0.000000 0.043657 0.000000 -0.005913
# 5 -0.010869 -0.018512 -0.013092 0.000000 0.059130 0.000000
# 6 0.000000 0.000000 0.000000 -0.005913 0.000000 0.034669
#
#
# Mechanical properties :
#
#
# Convention : Reuss Voigt Hill
#
# Bulk Modulus (GPa) = 10.47079 18.27855 14.37467
# Shear Modulus (GPa) = 21.12889 25.47177 23.30033
#
# Velocity S-wave (km/s) = 3.13259 3.43949 3.28962
# Velocity P-wave (km/s) = 4.23641 4.92573 4.59402
#
# Compressibility (1/GPa) = 0.09550377
#
# Stress axis : x y z
#
# Youngs Moduli (GPa) = 63.07278 22.80764 46.02320
#
# Poissons Ratio (x) = -0.01269 -0.10738
# Poissons Ratio (y) = -0.03510 -0.19092
# Poissons Ratio (z) = -0.14716 -0.09461
#
# Static dielectric constant tensor:
#      x y z
#    x 1.777860 0.000000 -0.000100 
#    y 0.000000 1.850270 0.000000 
#    z -0.000100 0.000000 1.810030 
# 
# From -- ./inp_files/176604.got.cif
#   From: 2010.05.17/outbox.cif.g08.bks.cpg/sg15_89_cif.got.tgz:176604.got - 2010.06.03 18:47:42.
