data_PCOD9281826
_publ_section_title
;
Structure prediction by ZEFSAII (Michael W. Deem and Ramdas Pophale) SiO2 
 PCOD9281826
Probable space group: C 2/C
;
_chemical_formula_sum "Si O2"
_cell_formula_units_Z 64
_cell_length_a 24.778621
_cell_length_b 22.536040
_cell_length_c 17.756125
_cell_angle_alpha 90.000000
_cell_angle_beta 19.124804
_cell_angle_gamma 90.000000
_cell_volume 3248.497576
_symmetry_space_group_name_H-M "C 2/C"
_symmetry_group_IT_number 15
_symmetry_cell_setting 'monoclinic'
loop_
_space_group_symop_operation_xyz
x,y,z
-x,y,1/2-z
-x,-y,-z
x,-y,1/2+z
1/2+x,1/2+y,z
1/2-x,1/2+y,1/2-z
1/2-x,1/2-y,-z
1/2+x,1/2-y,1/2+z
loop_
_atom_site_type_symbol
_atom_site_label
_atom_site_fract_x
_atom_site_fract_y
_atom_site_fract_z
Si Si1 0.098044 0.858420 0.738751
Si Si2 0.220838 0.050005 0.202636
Si Si3 0.387973 0.579575 0.709511
Si Si4 0.389444 0.101975 0.320400
Si Si5 0.043255 0.517645 0.857699
Si Si6 0.042533 0.694072 0.004298
Si Si7 0.742938 0.376512 0.395596
Si Si8 0.883178 0.797301 0.129109
O O1 0.185052 0.906648 0.678738
O O2 0.202489 0.843465 0.527063
O O3 0.921970 0.880979 0.937433
O O4 0.037788 0.803434 0.868508
O O5 0.081717 0.066064 0.448089
O O6 0.193747 0.981592 0.212689
O O7 0.398084 0.053761 0.007256
O O8 0.359802 0.636293 0.692826
O O9 0.299431 0.597783 0.903248
O O10 0.500000 0.106670 0.250000
O O11 0.429882 0.041119 0.225362
O O12 0.442858 0.154260 0.194707
O O13 0.202948 0.558321 0.651256
O O14 0.000000 0.500000 0.000000
O O15 0.111652 0.653438 0.844492
O O16 0.212029 0.718559 0.816033
O O17 0.931492 0.748339 0.125036
#
# Coordination Sequence:
#
# PCOD9281826 Si02
#       8
#     8   8   8   8   8   8   8   8
#     4   9  21  41  65  93 125 166 211 250 323 381
#     4  10  21  38  66  91 125 168 203 255 310 385
#     4  10  21  38  65  86 119 163 213 244 310 373
#     4  12  22  42  65  92 123 175 205 249 319 389
#     4  12  24  38  61  97 132 162 204 256 317 376
#     4  11  23  41  63  87 126 166 213 262 315 366
#     4  10  22  40  63  94 129 163 200 265 318 375
#     4  10  22  41  62  87 120 166 214 261 307 368
#
# _framework density 19.701415999999998
#
# number of rings (size 3 to 8) (size 9 to 14) (size 15 to 20)
#    0.000    1.500    3.750    0.750    5.250    3.000 
#    0.000    0.000    0.000    0.000    0.000    0.000 
#    0.000    0.000    0.000    0.000    0.000    0.000 
#
# Total GULP energy -178587.861720 kJ/mol
# GULP energy per Si atom -5580.870679 kJ/mol
# Density = 1.965657 g / cm^3
# Si number density = 19.701416 Si / 1000 Ang^3
#
#
#
# Elastic Constant Matrix: (Units=GPa)
#
#
# Indices 1 2 3 4 5 6 
#
# 1 86.7640 39.0977 40.9959 0.0023 18.1035 0.0020
# 2 39.0977 60.6802 12.5917 -0.0037 -0.2947 -0.0020
# 3 40.9959 12.5917 51.1264 -0.0003 32.2226 0.0027
# 4 0.0023 -0.0037 -0.0003 13.3566 0.0011 2.6414
# 5 18.1035 -0.2947 32.2226 0.0011 39.1698 -0.0038
# 6 0.0020 -0.0020 0.0027 2.6414 -0.0038 23.9421
#
#
#
# Elastic Compliance Matrix: (Units=1/GPa)
#
#
# Indices 1 2 3 4 5 6 
#
# 1 0.025936 -0.012311 -0.021082 -0.000009 0.005263 0.000001
# 2 -0.012311 0.024366 0.000351 0.000008 0.005585 0.000003
# 3 -0.021082 0.000351 0.062790 0.000011 -0.041907 -0.000013
# 4 -0.000009 0.000008 0.000011 0.076539 -0.000008 -0.008444
# 5 0.005263 0.005585 -0.041907 -0.000008 0.057614 0.000015
# 6 0.000001 0.000003 -0.000013 -0.008444 0.000015 0.042699
#
#
# Mechanical properties :
#
#
# Convention : Reuss Voigt Hill
#
# Bulk Modulus (GPa) = 21.27306 42.66015 31.96660
# Shear Modulus (GPa) = 13.45173 22.35272 17.90223
#
# Velocity S-wave (km/s) = 2.61584 3.37200 3.01770
# Velocity P-wave (km/s) = 4.46595 6.07131 5.32942
#
# Compressibility (1/GPa) = 0.04700782
#
# Stress axis : x y z
#
# Youngs Moduli (GPa) = 38.55591 41.03998 15.92606
#
# Poissons Ratio (x) = 0.50525 0.33576
# Poissons Ratio (y) = 0.47467 -0.00559
# Poissons Ratio (z) = 0.81285 -0.01440
#
# Static dielectric constant tensor:
#      x y z
#    x 1.713460 0.000000 0.034710 
#    y 0.000000 1.668700 0.000000 
#    z 0.034710 0.000000 1.758150 
# 
# From -- ./inp_files/220264.got.cif
#   From: 2010.05.17/outbox.cif.g08.bks.cpg/sg15_111_cif.got.tgz:220264.got - 2010.06.03 18:47:42.
