data_PCOD9281054
_publ_section_title
;
Structure prediction by ZEFSAII (Michael W. Deem and Ramdas Pophale) SiO2 
 PCOD9281054
Probable space group: C 2/C
;
_chemical_formula_sum "Si O2"
_cell_formula_units_Z 56
_cell_length_a 19.357788
_cell_length_b 36.570440
_cell_length_c 8.341695
_cell_angle_alpha 90.000000
_cell_angle_beta 28.559807
_cell_angle_gamma 90.000000
_cell_volume 2823.169891
_symmetry_space_group_name_H-M "C 2/C"
_symmetry_group_IT_number 15
_symmetry_cell_setting 'monoclinic'
loop_
_space_group_symop_operation_xyz
x,y,z
-x,y,1/2-z
-x,-y,-z
x,-y,1/2+z
1/2+x,1/2+y,z
1/2-x,1/2+y,1/2-z
1/2-x,1/2-y,-z
1/2+x,1/2-y,1/2+z
loop_
_atom_site_type_symbol
_atom_site_label
_atom_site_fract_x
_atom_site_fract_y
_atom_site_fract_z
Si Si1 0.668348 0.214134 0.719729
Si Si2 0.100888 0.928496 0.885047
Si Si3 0.846950 0.143673 0.353694
Si Si4 0.192956 0.057616 0.661897
Si Si5 0.824349 0.005407 0.100642
Si Si6 0.337540 0.785615 0.880599
Si Si7 0.185192 0.139711 0.696145
O O1 0.750000 0.250000 0.500000
O O2 0.757279 0.178666 0.482937
O O3 0.666755 0.213907 0.916708
O O4 0.504823 0.215661 0.991542
O O5 0.192946 0.893291 0.656366
O O6 0.195816 0.964250 0.718667
O O7 0.000000 0.922053 0.250000
O O8 0.981344 0.936003 0.992147
O O9 0.821984 0.139431 0.595037
O O10 0.020025 0.145981 0.975528
O O11 0.221386 0.028709 0.460786
O O12 0.245384 0.099216 0.530806
O O13 0.234991 0.034364 0.733146
O O14 0.000000 0.001901 0.750000
O O15 0.250000 0.750000 0.000000
O O16 0.272141 0.824744 0.962776
#
# Coordination Sequence:
#
# PCOD9281054 Si02
#       7
#     8   8   8   8   8   8   8
#     4  10  21  38  57  86 106 137 187 219 267 334
#     4   8  15  27  39  66 101 137 170 213 265 310
#     4   9  17  30  50  72 106 136 176 218 262 323
#     4   9  17  25  41  66 101 135 175 214 266 317
#     4   9  16  24  38  64 100 134 172 211 262 314
#     4  10  21  39  60  79 112 145 175 225 274 319
#     4   9  18  30  50  75 105 142 177 215 271 320
#
# _framework density 19.835858999999999
#
# number of rings (size 3 to 8) (size 9 to 14) (size 15 to 20)
#    0.000    3.143    0.000    2.571    6.000    1.714 
#   10.286    0.000    0.000    0.000    0.000    1.000 
#    0.000    0.000    0.000    0.000    0.000    0.000 
#
# Total GULP energy -155871.026676 kJ/mol
# GULP energy per Si atom -5566.822381 kJ/mol
# Density = 1.979071 g / cm^3
# Si number density = 19.835859 Si / 1000 Ang^3
#
#
#
# Elastic Constant Matrix: (Units=GPa)
#
#
# Indices 1 2 3 4 5 6 
#
# 1 27.0512 38.6288 14.1265 0.0000 -8.0957 0.0000
# 2 38.6288 228.9103 67.1377 0.0000 -11.2179 0.0000
# 3 14.1265 67.1377 54.5480 0.0000 -10.1243 0.0000
# 4 0.0000 0.0000 0.0000 25.9284 0.0000 8.6014
# 5 -8.0957 -11.2179 -10.1243 0.0000 10.4473 0.0000
# 6 0.0000 0.0000 0.0000 8.6014 0.0000 31.7041
#
#
#
# Elastic Compliance Matrix: (Units=1/GPa)
#
#
# Indices 1 2 3 4 5 6 
#
# 1 0.060342 -0.009101 0.002975 0.000000 0.039869 0.000000
# 2 -0.009101 0.008218 -0.009058 0.000000 -0.007007 0.000000
# 3 0.002975 -0.009058 0.033327 0.000000 0.024876 0.000000
# 4 0.000000 0.000000 0.000000 0.042382 0.000000 -0.011498
# 5 0.039869 -0.007007 0.024876 0.000000 0.143197 0.000000
# 6 0.000000 0.000000 0.000000 -0.011498 0.000000 0.034661
#
#
# Mechanical properties :
#
#
# Convention : Reuss Voigt Hill
#
# Bulk Modulus (GPa) = 13.98235 61.14393 37.56314
# Shear Modulus (GPa) = 13.28603 26.32372 19.80488
#
# Velocity S-wave (km/s) = 2.59085 3.64686 3.16323
# Velocity P-wave (km/s) = 4.00180 6.97314 5.68502
#
# Compressibility (1/GPa) = 0.07151875
#
# Stress axis : x y z
#
# Youngs Moduli (GPa) = 16.57220 121.69051 30.00547
#
# Poissons Ratio (x) = 1.10757 -0.08927
# Poissons Ratio (y) = 0.15083 0.27178
# Poissons Ratio (z) = -0.04930 1.10222
#
# Static dielectric constant tensor:
#      x y z
#    x 1.898140 0.000000 0.059950 
#    y 0.000000 1.750360 0.000000 
#    z 0.059950 0.000000 1.694120 
# 
# From -- ./inp_files/124549.got.cif
#   From: 2010.05.17/outbox.cif.g08.bks.cpg/sg15_63_cif.got.tgz:124549.got - 2010.06.03 18:47:42.
