data_PCOD9281848
_publ_section_title
;
Structure prediction by ZEFSAII (Michael W. Deem and Ramdas Pophale) SiO2 
 PCOD9281848
Probable space group: C 2/C
;
_chemical_formula_sum "Si O2"
_cell_formula_units_Z 64
_cell_length_a 17.403150
_cell_length_b 11.772921
_cell_length_c 29.517533
_cell_angle_alpha 90.000000
_cell_angle_beta 149.207642
_cell_angle_gamma 90.000000
_cell_volume 3096.002367
_symmetry_space_group_name_H-M "C 2/C"
_symmetry_group_IT_number 15
_symmetry_cell_setting 'monoclinic'
loop_
_space_group_symop_operation_xyz
x,y,z
-x,y,1/2-z
-x,-y,-z
x,-y,1/2+z
1/2+x,1/2+y,z
1/2-x,1/2+y,1/2-z
1/2-x,1/2-y,-z
1/2+x,1/2-y,1/2+z
loop_
_atom_site_type_symbol
_atom_site_label
_atom_site_fract_x
_atom_site_fract_y
_atom_site_fract_z
Si Si1 0.164724 0.131737 0.904478
Si Si2 0.012046 0.713661 0.805501
Si Si3 0.018185 0.690293 0.399700
Si Si4 0.733520 0.597104 0.209767
Si Si5 0.327136 0.354591 0.363834
Si Si6 0.068425 0.902601 0.894701
Si Si7 0.767137 0.955895 0.428388
Si Si8 0.176085 0.684589 0.339382
O O1 0.072919 0.222575 0.888437
O O2 0.180857 0.191206 0.863925
O O3 0.085003 0.011478 0.870506
O O4 0.333531 0.125191 0.009383
O O5 0.111698 0.790968 0.888740
O O6 0.099351 0.594866 0.845018
O O7 0.000000 0.770002 0.750000
O O8 0.839588 0.692453 0.729285
O O9 0.891202 0.607479 0.315574
O O10 0.945940 0.767787 0.402831
O O11 0.680315 0.474261 0.165633
O O12 0.599919 0.627891 0.175493
O O13 0.755422 0.673578 0.175952
O O14 0.344425 0.387743 0.425664
O O15 0.155554 0.932607 0.984767
O O16 0.758523 0.088921 0.411716
O O17 0.000000 0.652303 0.250000
#
# Coordination Sequence:
#
# PCOD9281848 Si02
#       8
#     8   8   8   8   8   8   8   8
#     4  11  25  38  62  95 134 172 206 262 342 393
#     4  10  22  42  64  88 121 169 217 263 320 385
#     4  11  21  41  60  91 131 169 213 266 331 392
#     4  11  23  38  64  96 126 168 220 274 326 390
#     4  10  21  38  65  91 123 166 218 278 322 380
#     4  12  24  40  62  96 130 172 213 267 329 402
#     4  10  22  38  64  94 123 164 221 277 325 373
#     4  11  22  40  66  95 130 166 218 275 331 390
#
# _framework density 20.671817999999998
#
# number of rings (size 3 to 8) (size 9 to 14) (size 15 to 20)
#    0.000    1.250    3.750    3.750    3.500    1.500 
#    0.000    0.000    0.000    3.000    0.000    0.000 
#    0.000    0.000    0.000    0.000    0.000    0.000 
#
# Total GULP energy -178686.952004 kJ/mol
# GULP energy per Si atom -5583.967250 kJ/mol
# Density = 2.062477 g / cm^3
# Si number density = 20.671818 Si / 1000 Ang^3
#
#
#
# Elastic Constant Matrix: (Units=GPa)
#
#
# Indices 1 2 3 4 5 6 
#
# 1 77.5658 37.5135 10.5157 0.0000 7.9007 0.0000
# 2 37.5135 58.1732 7.7817 -0.0001 -13.7401 0.0000
# 3 10.5157 7.7817 70.2682 -0.0001 0.3309 -0.0001
# 4 0.0000 -0.0001 -0.0001 50.3325 0.0000 20.5550
# 5 7.9007 -13.7401 0.3309 0.0000 34.3008 0.0000
# 6 0.0000 0.0000 -0.0001 20.5550 0.0000 41.2881
#
#
#
# Elastic Compliance Matrix: (Units=1/GPa)
#
#
# Indices 1 2 3 4 5 6 
#
# 1 0.022698 -0.017317 -0.001422 0.000000 -0.012151 0.000000
# 2 -0.017317 0.032524 -0.001091 0.000000 0.017028 0.000000
# 3 -0.001422 -0.001091 0.014566 0.000000 -0.000250 0.000000
# 4 0.000000 0.000000 0.000000 0.024938 0.000000 -0.012415
# 5 -0.012151 0.017028 -0.000250 0.000000 0.038776 0.000000
# 6 0.000000 0.000000 0.000000 -0.012415 0.000000 0.030401
#
#
# Mechanical properties :
#
#
# Convention : Reuss Voigt Hill
#
# Bulk Modulus (GPa) = 33.18943 35.29212 34.24077
# Shear Modulus (GPa) = 23.40781 35.19739 29.30260
#
# Velocity S-wave (km/s) = 3.36870 4.13083 3.76907
# Velocity P-wave (km/s) = 5.58758 6.31358 5.96164
#
# Compressibility (1/GPa) = 0.03013008
#
# Stress axis : x y z
#
# Youngs Moduli (GPa) = 44.05754 30.74612 68.65346
#
# Poissons Ratio (x) = 0.53242 0.09761
# Poissons Ratio (y) = 0.76292 0.07487
# Poissons Ratio (z) = 0.06264 0.03353
#
# Static dielectric constant tensor:
#      x y z
#    x 1.590590 0.000000 -0.077620 
#    y 0.000000 1.717370 0.000000 
#    z -0.077620 0.000000 1.733640 
# 
# From -- ./inp_files/316218.got.cif
#   From: 2010.05.17/outbox.cif.g08.bks.cpg/sg15_159_cif.got.tgz:316218.got - 2010.06.03 18:47:42.
