data_PCOD9281933
_publ_section_title
;
Structure prediction by ZEFSAII (Michael W. Deem and Ramdas Pophale) SiO2 
 PCOD9281933
Probable space group: C 2/C
;
_chemical_formula_sum "Si O2"
_cell_formula_units_Z 44
_cell_length_a 7.894065
_cell_length_b 28.275518
_cell_length_c 9.343305
_cell_angle_alpha 90.000000
_cell_angle_beta 68.072784
_cell_angle_gamma 90.000000
_cell_volume 1934.639922
_symmetry_space_group_name_H-M "C 2/C"
_symmetry_group_IT_number 15
_symmetry_cell_setting 'monoclinic'
loop_
_space_group_symop_operation_xyz
x,y,z
-x,y,1/2-z
-x,-y,-z
x,-y,1/2+z
1/2+x,1/2+y,z
1/2-x,1/2+y,1/2-z
1/2-x,1/2-y,-z
1/2+x,1/2-y,1/2+z
loop_
_atom_site_type_symbol
_atom_site_label
_atom_site_fract_x
_atom_site_fract_y
_atom_site_fract_z
Si Si1 0.129965 0.506257 0.826601
Si Si2 0.998690 0.123648 0.505240
Si Si3 0.699984 0.711462 0.317651
Si Si4 0.713063 0.885602 0.329717
Si Si5 0.514983 0.799098 0.506260
Si Si6 0.000000 0.949360 0.750000
O O1 0.161225 0.562057 0.797495
O O2 0.323020 0.481132 0.778424
O O3 0.000000 0.483609 0.750000
O O4 0.000000 0.500000 0.000000
O O5 0.068573 0.167688 0.391335
O O6 0.156091 0.110051 0.571445
O O7 0.964564 0.082115 0.402602
O O8 0.829522 0.135999 0.661857
O O9 0.586636 0.759272 0.375401
O O10 0.848265 0.707385 0.400474
O O11 0.814814 0.708004 0.135424
O O12 0.551542 0.850602 0.427512
#
# Coordination Sequence:
#
# PCOD9281933 Si02
#       6
#     8   8   8   8   8   4
#     4  12  27  45  71 101 137 182 238 287 355 415
#     4  10  21  38  66  92 134 180 229 276 354 404
#     4   9  17  31  57  95 129 178 221 275 336 410
#     4  10  21  39  63  95 132 180 228 285 339 413
#     4   9  17  31  58  92 135 169 227 277 334 406
#     4  12  26  46  70 100 144 182 230 300 348 412
#
# _framework density 22.743251000000001
#
# number of rings (size 3 to 8) (size 9 to 14) (size 15 to 20)
#    0.000    1.818    0.000    4.364    2.545    6.545 
#    0.000    0.000    2.000    2.182    0.000    0.000 
#    0.000    0.000    0.000    0.000    0.000    0.000 
#
# Total GULP energy -123076.428076 kJ/mol
# GULP energy per Si atom -5594.383094 kJ/mol
# Density = 2.269149 g / cm^3
# Si number density = 22.743251 Si / 1000 Ang^3
#
#
#
# Elastic Constant Matrix: (Units=GPa)
#
#
# Indices 1 2 3 4 5 6 
#
# 1 119.3485 39.4187 55.6410 0.0000 0.8251 0.0000
# 2 39.4187 113.0235 42.4879 0.0000 -20.9013 0.0000
# 3 55.6410 42.4879 164.8143 0.0000 -24.3994 0.0000
# 4 0.0000 0.0000 0.0000 35.2650 0.0000 -6.8034
# 5 0.8251 -20.9013 -24.3994 0.0000 37.8794 0.0000
# 6 0.0000 0.0000 0.0000 -6.8034 0.0000 -4.9117
#
#
#
# Elastic Compliance Matrix: (Units=1/GPa)
#
#
# Indices 1 2 3 4 5 6 
#
# 1 0.011182 -0.003376 -0.003556 0.000000 -0.004397 0.000000
# 2 -0.003376 0.011454 -0.000958 0.000000 0.005777 0.000000
# 3 -0.003556 -0.000958 0.008233 0.000000 0.004852 0.000000
# 4 0.000000 0.000000 0.000000 0.022377 0.000000 -0.030995
# 5 -0.004397 0.005777 0.004852 0.000000 0.032808 0.000000
# 6 0.000000 0.000000 0.000000 -0.030995 0.000000 -0.160662
#
#
# Mechanical properties :
#
#
# Convention : Reuss Voigt Hill
#
# Bulk Modulus (GPa) = 66.27147 74.69796 70.48471
# Shear Modulus (GPa) = -92.93724 30.95579 -30.99072
#
# Velocity S-wave (km/s) = -6.39940 3.69331 -3.69539
# Velocity P-wave (km/s) = 5.03993 7.14861 3.58481
#
# Compressibility (1/GPa) = 0.01508945
#
# Stress axis : x y z
#
# Youngs Moduli (GPa) = 89.42948 87.30934 121.46304
#
# Poissons Ratio (x) = 0.29479 0.43187
# Poissons Ratio (y) = 0.30195 0.11631
# Poissons Ratio (z) = 0.31797 0.08361
#
# Static dielectric constant tensor:
#      x y z
#    x 1.066890 0.000000 -0.512220 
#    y 0.000000 1.754460 0.000000 
#    z -0.512220 0.000000 1.419010 
# 
# From -- ./inp_files/25986.got.cif
#   From: 2010.05.17/outbox.cif.g08.bks.cpg/sg15_13_cif.got.tgz:25986.got - 2010.06.03 18:47:42.
