data_PCOD9281998
_publ_section_title
;
Structure prediction by ZEFSAII (Michael W. Deem and Ramdas Pophale) SiO2 
 PCOD9281998
Probable space group: C 2/C
;
_chemical_formula_sum "Si O2"
_cell_formula_units_Z 56
_cell_length_a 14.276976
_cell_length_b 13.833291
_cell_length_c 18.168859
_cell_angle_alpha 90.000000
_cell_angle_beta 43.591256
_cell_angle_gamma 90.000000
_cell_volume 2474.168925
_symmetry_space_group_name_H-M "C 2/C"
_symmetry_group_IT_number 15
_symmetry_cell_setting 'monoclinic'
loop_
_space_group_symop_operation_xyz
x,y,z
-x,y,1/2-z
-x,-y,-z
x,-y,1/2+z
1/2+x,1/2+y,z
1/2-x,1/2+y,1/2-z
1/2-x,1/2-y,-z
1/2+x,1/2-y,1/2+z
loop_
_atom_site_type_symbol
_atom_site_label
_atom_site_fract_x
_atom_site_fract_y
_atom_site_fract_z
Si Si1 0.500000 0.788049 0.250000
Si Si2 0.725475 0.559019 0.735114
Si Si3 0.964595 0.115221 0.528129
Si Si4 0.772173 0.169886 0.047559
Si Si5 0.036330 0.878355 0.829794
Si Si6 0.701445 0.487171 0.090500
Si Si7 0.470068 0.940592 0.387701
Si Si8 0.000000 0.604183 0.250000
O O1 0.419235 0.714040 0.243020
O O2 0.432250 0.859267 0.348250
O O3 0.650842 0.616255 0.843682
O O4 0.663424 0.448913 0.776165
O O5 0.687136 0.578741 0.671520
O O6 0.885172 0.574533 0.656053
O O7 0.090957 0.176736 0.485491
O O8 0.953524 0.150315 0.450765
O O9 0.000000 0.000000 0.500000
O O10 0.638707 0.162972 0.172748
O O11 0.750000 0.250000 0.000000
O O12 0.791547 0.072863 0.988589
O O13 0.922291 0.940970 0.852254
O O14 0.844948 0.542698 0.013436
O O15 0.493359 0.036522 0.325292
#
# Coordination Sequence:
#
# PCOD9281998 Si02
#       8
#     4   8   8   8   8   8   8   4
#     4  11  24  44  67 110 136 178 235 290 346 411
#     4  11  21  41  67  96 128 183 225 278 342 422
#     4  10  21  38  67  93 132 179 232 263 344 415
#     4  11  23  39  65 100 130 174 233 287 335 412
#     4  11  22  42  71  99 133 181 234 282 335 425
#     4  11  22  42  68  94 137 184 225 284 361 413
#     4  10  24  40  67  96 139 182 224 280 360 419
#     4   9  20  42  61  84 138 182 209 266 368 405
#
# _framework density 22.633863000000002
#
# number of rings (size 3 to 8) (size 9 to 14) (size 15 to 20)
#    0.000    1.429    4.286    2.143    4.000    2.857 
#    0.000    2.857    0.000    0.000    0.000    0.000 
#    0.000    0.000    0.000    0.000    0.000    0.000 
#
# Total GULP energy -156156.166024 kJ/mol
# GULP energy per Si atom -5577.005929 kJ/mol
# Density = 2.258235 g / cm^3
# Si number density = 22.633863 Si / 1000 Ang^3
#
#
#
# Elastic Constant Matrix: (Units=GPa)
#
#
# Indices 1 2 3 4 5 6 
#
# 1 114.2041 6.8875 53.5732 0.0000 -1.5631 0.0000
# 2 6.8875 53.6949 24.6551 0.0000 -9.4456 0.0000
# 3 53.5732 24.6551 118.2641 0.0000 2.6871 0.0000
# 4 0.0000 0.0000 0.0000 0.9250 0.0000 8.7783
# 5 -1.5631 -9.4456 2.6871 0.0000 38.7410 0.0000
# 6 0.0000 0.0000 0.0000 8.7783 0.0000 30.3911
#
#
#
# Elastic Compliance Matrix: (Units=1/GPa)
#
#
# Indices 1 2 3 4 5 6 
#
# 1 0.011212 0.001220 -0.005359 0.000000 0.001121 0.000000
# 2 0.001220 0.021888 -0.005246 0.000000 0.005750 0.000000
# 3 -0.005359 -0.005246 0.012030 0.000000 -0.002330 0.000000
# 4 0.000000 0.000000 0.000000 -0.620909 0.000000 0.179346
# 5 0.001121 0.005750 -0.002330 0.000000 0.027421 0.000000
# 6 0.000000 0.000000 0.000000 0.179346 0.000000 -0.018899
#
#
# Mechanical properties :
#
#
# Convention : Reuss Voigt Hill
#
# Bulk Modulus (GPa) = 37.93795 50.71052 44.32423
# Shear Modulus (GPa) = -9.26438 27.41457 9.07509
#
# Velocity S-wave (km/s) = -2.02535 3.48403 2.00455
# Velocity P-wave (km/s) = 3.36580 6.21595 4.99833
#
# Compressibility (1/GPa) = 0.02635883
#
# Stress axis : x y z
#
# Youngs Moduli (GPa) = 89.19186 45.68791 83.12741
#
# Poissons Ratio (x) = -0.05572 0.44545
# Poissons Ratio (y) = -0.10878 0.43610
# Poissons Ratio (z) = 0.47795 0.23969
#
# Static dielectric constant tensor:
#      x y z
#    x 1.885680 0.000000 0.048850 
#    y 0.000000 1.942650 0.000000 
#    z 0.048850 0.000000 1.912420 
# 
# From -- ./inp_files/244542.got.cif
#   From: 2010.05.17/outbox.cif.g08.bks.cpg/sg15_123_cif.got.tgz:244542.got - 2010.06.03 18:47:42.
