data_PCOD9281066
_publ_section_title
;
Structure prediction by ZEFSAII (Michael W. Deem and Ramdas Pophale) SiO2 
 PCOD9281066
Probable space group: C 2/C
;
_chemical_formula_sum "Si O2"
_cell_formula_units_Z 28
_cell_length_a 17.717559
_cell_length_b 14.207830
_cell_length_c 5.292822
_cell_angle_alpha 90.000000
_cell_angle_beta 62.414700
_cell_angle_gamma 90.000000
_cell_volume 1180.893307
_symmetry_space_group_name_H-M "C 2/C"
_symmetry_group_IT_number 15
_symmetry_cell_setting 'monoclinic'
loop_
_space_group_symop_operation_xyz
x,y,z
-x,y,1/2-z
-x,-y,-z
x,-y,1/2+z
1/2+x,1/2+y,z
1/2-x,1/2+y,1/2-z
1/2-x,1/2-y,-z
1/2+x,1/2-y,1/2+z
loop_
_atom_site_type_symbol
_atom_site_label
_atom_site_fract_x
_atom_site_fract_y
_atom_site_fract_z
Si Si1 0.463307 0.105259 0.556034
Si Si2 0.226481 0.368013 0.271993
Si Si3 0.500000 0.435317 0.250000
Si Si4 0.817291 0.145843 0.129941
O O1 0.500000 0.153181 0.750000
O O2 0.362992 0.093839 0.688906
O O3 0.500000 0.000000 0.500000
O O4 0.500000 0.153731 0.250000
O O5 0.206143 0.256307 0.324764
O O6 0.257571 0.397351 0.501616
O O7 0.295926 0.386966 0.947296
O O8 0.500000 0.500000 0.500000
O O9 0.413706 0.374578 0.403096
#
# Coordination Sequence:
#
# PCOD9281066 Si02
#       4
#     8   8   4   8
#     4  10  21  38  57  96 133 160 201 251 329 404
#     4  10  21  43  68  98 126 165 217 268 333 384
#     4  12  26  48  64  98 134 178 232 268 328 384
#     4  10  23  43  68  93 126 171 221 273 316 385
#
# _framework density 23.710864999999998
#
# number of rings (size 3 to 8) (size 9 to 14) (size 15 to 20)
#    0.000    1.714    0.000    3.429    2.000    0.000 
#   33.429    0.000    0.000    0.000    0.000    0.000 
#    0.000    0.000    0.000    0.000    0.000    0.000 
#
# Total GULP energy -78304.505873 kJ/mol
# GULP energy per Si atom -5593.178991 kJ/mol
# Density = 2.365690 g / cm^3
# Si number density = 23.710865 Si / 1000 Ang^3
#
#
#
# Elastic Constant Matrix: (Units=GPa)
#
#
# Indices 1 2 3 4 5 6 
#
# 1 153.8301 12.4834 77.8795 0.0000 4.3676 0.0000
# 2 12.4834 69.5284 18.5836 0.0000 1.1168 0.0000
# 3 77.8795 18.5836 193.5237 0.0000 12.2511 0.0000
# 4 0.0000 0.0000 0.0000 7.8765 0.0000 -10.4381
# 5 4.3676 1.1168 12.2511 0.0000 62.4694 0.0000
# 6 0.0000 0.0000 0.0000 -10.4381 0.0000 26.6833
#
#
#
# Elastic Compliance Matrix: (Units=1/GPa)
#
#
# Indices 1 2 3 4 5 6 
#
# 1 0.008189 -0.000605 -0.003242 0.000000 0.000074 0.000000
# 2 -0.000605 0.014806 -0.001179 0.000000 0.000009 0.000000
# 3 -0.003242 -0.001179 0.006652 0.000000 -0.001057 0.000000
# 4 0.000000 0.000000 0.000000 0.263623 0.000000 0.103125
# 5 0.000074 0.000009 -0.001057 0.000000 0.016210 0.000000
# 6 0.000000 0.000000 0.000000 0.103125 0.000000 0.077817
#
#
# Mechanical properties :
#
#
# Convention : Reuss Voigt Hill
#
# Bulk Modulus (GPa) = 51.03218 70.53056 60.78137
# Shear Modulus (GPa) = 12.37987 39.93487 26.15737
#
# Velocity S-wave (km/s) = 2.28747 4.10841 3.32502
# Velocity P-wave (km/s) = 5.34286 7.23298 6.35854
#
# Compressibility (1/GPa) = 0.01959548
#
# Stress axis : x y z
#
# Youngs Moduli (GPa) = 122.11434 67.53932 150.32720
#
# Poissons Ratio (x) = 0.04086 0.48738
# Poissons Ratio (y) = 0.07387 0.17722
# Poissons Ratio (z) = 0.39591 0.07962
#
# Static dielectric constant tensor:
#      x y z
#    x 1.869060 0.000000 0.016680 
#    y 0.000000 1.911230 0.000000 
#    z 0.016680 0.000000 1.905880 
# 
# From -- ./inp_files/3567.got.cif
#   From: 2010.05.17/outbox.cif.g08.bks.cpg/sg15_2_cif.got.tgz:3567.got - 2010.06.03 18:47:42.
