data_PCOD9281130
_publ_section_title
;
Structure prediction by ZEFSAII (Michael W. Deem and Ramdas Pophale) SiO2 
 PCOD9281130
Probable space group: C 2/C
;
_chemical_formula_sum "Si O2"
_cell_formula_units_Z 64
_cell_length_a 15.983479
_cell_length_b 27.104511
_cell_length_c 12.182953
_cell_angle_alpha 90.000000
_cell_angle_beta 146.682735
_cell_angle_gamma 90.000000
_cell_volume 2899.045385
_symmetry_space_group_name_H-M "C 2/C"
_symmetry_group_IT_number 15
_symmetry_cell_setting 'monoclinic'
loop_
_space_group_symop_operation_xyz
x,y,z
-x,y,1/2-z
-x,-y,-z
x,-y,1/2+z
1/2+x,1/2+y,z
1/2-x,1/2+y,1/2-z
1/2-x,1/2-y,-z
1/2+x,1/2-y,1/2+z
loop_
_atom_site_type_symbol
_atom_site_label
_atom_site_fract_x
_atom_site_fract_y
_atom_site_fract_z
Si Si1 0.673549 0.935952 0.900651
Si Si2 0.132827 0.077341 0.690813
Si Si3 0.283702 0.176277 0.769524
Si Si4 0.117306 0.142444 0.969756
Si Si5 0.791858 0.183601 0.201521
Si Si6 0.652057 0.477796 0.989782
Si Si7 0.822603 0.382716 0.088888
Si Si8 0.968957 0.742866 0.522024
O O1 0.500000 0.935231 0.750000
O O2 0.770764 0.951357 0.113690
O O3 0.738806 0.883190 0.931285
O O4 0.733595 0.975550 0.878108
O O5 0.236956 0.125676 0.777015
O O6 0.102603 0.044106 0.552907
O O7 0.982678 0.099303 0.582629
O O8 0.295436 0.158048 0.655311
O O9 0.152469 0.216331 0.651117
O O10 0.439530 0.206701 0.960092
O O11 0.000000 0.164033 0.750000
O O12 0.169482 0.176741 0.127422
O O13 0.626437 0.206596 0.007744
O O14 0.907829 0.223473 0.282997
O O15 0.785164 0.133165 0.130348
O O16 0.500000 0.485960 0.750000
O O17 0.758100 0.434499 0.057826
O O18 0.000000 0.386244 0.250000
#
# Coordination Sequence:
#
# PCOD9281130 Si02
#       8
#     8   8   8   8   8   8   8   8
#     4  11  26  43  68  95 123 162 206 252 309 372
#     4  10  22  43  66  90 132 161 202 259 303 368
#     4  10  21  38  58  92 130 165 209 253 311 361
#     4  10  22  43  67  88 120 166 207 255 313 364
#     4  11  22  39  61  90 128 166 209 258 310 359
#     4  11  24  41  66  98 125 163 207 246 308 373
#     4  11  23  37  59  92 133 169 201 251 310 373
#     4  10  22  36  62  90 125 166 216 252 304 375
#
# _framework density 22.076232999999998
#
# number of rings (size 3 to 8) (size 9 to 14) (size 15 to 20)
#    0.000    1.500    2.500    2.250    3.500    6.500 
#    0.000    0.625    0.000    0.000    0.000    0.000 
#    0.000    0.000    0.000    0.000    0.000    0.000 
#
# Total GULP energy -178516.166794 kJ/mol
# GULP energy per Si atom -5578.630212 kJ/mol
# Density = 2.202599 g / cm^3
# Si number density = 22.076233 Si / 1000 Ang^3
#
#
#
# Elastic Constant Matrix: (Units=GPa)
#
#
# Indices 1 2 3 4 5 6 
#
# 1 96.4409 16.1974 44.4420 0.0000 21.6225 0.0000
# 2 16.1974 63.8166 17.8065 0.0000 11.4110 0.0000
# 3 44.4420 17.8065 67.9754 0.0000 16.8402 0.0000
# 4 0.0000 0.0000 0.0000 21.9121 0.0000 9.0445
# 5 21.6225 11.4110 16.8402 0.0000 43.4517 0.0000
# 6 0.0000 0.0000 0.0000 9.0445 0.0000 31.1294
#
#
#
# Elastic Compliance Matrix: (Units=1/GPa)
#
#
# Indices 1 2 3 4 5 6 
#
# 1 0.015529 -0.000715 -0.008958 0.000000 -0.004068 0.000000
# 2 -0.000715 0.017303 -0.003349 0.000000 -0.002890 0.000000
# 3 -0.008958 -0.003349 0.022260 0.000000 -0.003290 0.000000
# 4 0.000000 0.000000 0.000000 0.051856 0.000000 -0.015066
# 5 -0.004068 -0.002890 -0.003290 0.000000 0.027073 0.000000
# 6 0.000000 0.000000 0.000000 -0.015066 0.000000 0.036501
#
#
# Mechanical properties :
#
#
# Convention : Reuss Voigt Hill
#
# Bulk Modulus (GPa) = 34.42507 42.79164 38.60836
# Shear Modulus (GPa) = 24.24265 29.28443 26.76354
#
# Velocity S-wave (km/s) = 3.31740 3.64609 3.48562
# Velocity P-wave (km/s) = 5.50465 6.09515 5.80741
#
# Compressibility (1/GPa) = 0.02904860
#
# Stress axis : x y z
#
# Youngs Moduli (GPa) = 64.39496 57.79475 44.92310
#
# Poissons Ratio (x) = 0.04130 0.40241
# Poissons Ratio (y) = 0.04601 0.15046
# Poissons Ratio (z) = 0.57684 0.19357
#
# Static dielectric constant tensor:
#      x y z
#    x 1.842990 0.000000 0.004490 
#    y 0.000000 1.800040 0.000000 
#    z 0.004490 0.000000 1.812480 
# 
# From -- ./inp_files/101356.got.cif
#   From: 2010.05.17/outbox.cif.g08.bks.cpg/sg15_51_cif.got.tgz:101356.got - 2010.06.03 18:47:42.
