data_PCOD9281150
_publ_section_title
;
Structure prediction by ZEFSAII (Michael W. Deem and Ramdas Pophale) SiO2 
 PCOD9281150
Probable space group: C 2/C
;
_chemical_formula_sum "Si O2"
_cell_formula_units_Z 48
_cell_length_a 8.227877
_cell_length_b 27.752210
_cell_length_c 17.557539
_cell_angle_alpha 90.000000
_cell_angle_beta 146.627117
_cell_angle_gamma 90.000000
_cell_volume 2205.358770
_symmetry_space_group_name_H-M "C 2/C"
_symmetry_group_IT_number 15
_symmetry_cell_setting 'monoclinic'
loop_
_space_group_symop_operation_xyz
x,y,z
-x,y,1/2-z
-x,-y,-z
x,-y,1/2+z
1/2+x,1/2+y,z
1/2-x,1/2+y,1/2-z
1/2-x,1/2-y,-z
1/2+x,1/2-y,1/2+z
loop_
_atom_site_type_symbol
_atom_site_label
_atom_site_fract_x
_atom_site_fract_y
_atom_site_fract_z
Si Si1 0.525172 0.871827 0.939976
Si Si2 0.241418 0.433230 0.405549
Si Si3 0.720593 0.843770 0.491093
Si Si4 0.710621 0.791859 0.759406
Si Si5 0.879058 0.535661 0.115342
Si Si6 0.095171 0.186778 0.698123
O O1 0.343120 0.837125 0.814470
O O2 0.497034 0.925585 0.895881
O O3 0.397391 0.862347 0.973700
O O4 0.859633 0.849340 0.068572
O O5 0.354077 0.390010 0.501587
O O6 0.092304 0.478747 0.390900
O O7 0.529775 0.453802 0.477665
O O8 0.000000 0.417300 0.250000
O O9 0.429562 0.830672 0.329566
O O10 0.947609 0.799304 0.583975
O O11 0.500000 0.796002 0.750000
O O12 0.614999 0.742468 0.680080
O O13 0.000000 0.542394 0.250000
O O14 0.000000 0.189372 0.750000
#
# Coordination Sequence:
#
# PCOD9281150 Si02
#       6
#     8   8   8   8   8   8
#     4  11  21  37  59  85 117 149 187 239 290 335
#     4  10  21  38  59  84 113 150 193 233 279 342
#     4  11  22  37  59  87 115 146 191 240 287 337
#     4  11  22  38  58  81 114 155 194 231 281 341
#     4  10  21  38  59  83 115 152 191 232 280 341
#     4   9  21  38  56  82 115 150 189 235 284 338
#
# _framework density 21.765167000000002
#
# number of rings (size 3 to 8) (size 9 to 14) (size 15 to 20)
#    0.000    1.667    0.000    5.000    0.000    0.667 
#    0.000    6.667    0.000   10.000    0.000    0.000 
#    0.000    0.000    0.000    0.000    0.000    0.000 
#
# Total GULP energy -133945.321833 kJ/mol
# GULP energy per Si atom -5581.055076 kJ/mol
# Density = 2.171563 g / cm^3
# Si number density = 21.765167 Si / 1000 Ang^3
#
#
#
# Elastic Constant Matrix: (Units=GPa)
#
#
# Indices 1 2 3 4 5 6 
#
# 1 34.1518 13.1451 -2.6502 0.0000 2.2181 0.0000
# 2 13.1451 89.7158 -12.8359 0.0000 -9.2271 0.0000
# 3 -2.6502 -12.8359 92.5597 -0.0003 8.1746 0.0001
# 4 0.0000 0.0000 -0.0003 39.5207 -0.0001 -4.9222
# 5 2.2181 -9.2271 8.1746 -0.0001 20.0401 0.0000
# 6 0.0000 0.0000 0.0001 -4.9222 0.0000 11.4433
#
#
#
# Elastic Compliance Matrix: (Units=1/GPa)
#
#
# Indices 1 2 3 4 5 6 
#
# 1 0.031735 -0.005182 0.000738 0.000000 -0.006199 0.000000
# 2 -0.005182 0.012674 0.001082 0.000000 0.005968 0.000000
# 3 0.000738 0.001082 0.011347 0.000000 -0.004212 0.000000
# 4 0.000000 0.000000 0.000000 0.026735 0.000000 0.011500
# 5 -0.006199 0.005968 -0.004212 0.000000 0.055052 0.000000
# 6 0.000000 0.000000 0.000000 0.011500 0.000000 0.092334
#
#
# Mechanical properties :
#
#
# Convention : Reuss Voigt Hill
#
# Bulk Modulus (GPa) = 20.39473 23.52725 21.96099
# Shear Modulus (GPa) = 19.76703 28.78538 24.27620
#
# Velocity S-wave (km/s) = 3.01690 3.64062 3.34334
# Velocity P-wave (km/s) = 4.63964 5.33903 5.00158
#
# Compressibility (1/GPa) = 0.04903227
#
# Stress axis : x y z
#
# Youngs Moduli (GPa) = 31.51056 78.90074 88.12886
#
# Poissons Ratio (x) = 0.40886 -0.06500
# Poissons Ratio (y) = 0.16328 -0.09537
# Poissons Ratio (z) = -0.02324 -0.08539
#
# Static dielectric constant tensor:
#      x y z
#    x 1.900000 0.000000 0.027190 
#    y 0.000000 1.850110 0.000000 
#    z 0.027190 0.000000 1.804530 
# 
# From -- ./inp_files/26141.got.cif
#   From: 2010.05.17/outbox.cif.g08.bks.cpg/sg15_14_cif.got.tgz:26141.got - 2010.06.03 18:47:42.
