data_PCOD9281430
_publ_section_title
;
Structure prediction by ZEFSAII (Michael W. Deem and Ramdas Pophale) SiO2 
 PCOD9281430
Probable space group: C 2/C
;
_chemical_formula_sum "Si O2"
_cell_formula_units_Z 48
_cell_length_a 16.201514
_cell_length_b 18.044495
_cell_length_c 9.460878
_cell_angle_alpha 90.000000
_cell_angle_beta 47.640863
_cell_angle_gamma 90.000000
_cell_volume 2043.801136
_symmetry_space_group_name_H-M "C 2/C"
_symmetry_group_IT_number 15
_symmetry_cell_setting 'monoclinic'
loop_
_space_group_symop_operation_xyz
x,y,z
-x,y,1/2-z
-x,-y,-z
x,-y,1/2+z
1/2+x,1/2+y,z
1/2-x,1/2+y,1/2-z
1/2-x,1/2-y,-z
1/2+x,1/2-y,1/2+z
loop_
_atom_site_type_symbol
_atom_site_label
_atom_site_fract_x
_atom_site_fract_y
_atom_site_fract_z
Si Si1 0.316168 0.141354 0.654864
Si Si2 0.596783 0.324218 0.532111
Si Si3 0.130985 0.503625 0.064012
Si Si4 0.440961 0.281685 0.465389
Si Si5 0.775910 0.366696 0.884087
Si Si6 0.609438 0.156793 0.525784
O O1 0.367009 0.060692 0.571356
O O2 0.395775 0.209383 0.602013
O O3 0.282466 0.167865 0.534011
O O4 0.209872 0.132369 0.875948
O O5 0.500000 0.348875 0.750000
O O6 0.532935 0.319394 0.457047
O O7 0.640158 0.241601 0.521767
O O8 0.204634 0.547559 0.094956
O O9 0.000000 0.502576 0.250000
O O10 0.171889 0.420523 0.989180
O O11 0.500000 0.261305 0.250000
O O12 0.337523 0.337374 0.555318
O O13 0.876233 0.345754 0.662008
O O14 0.500000 0.148488 0.750000
#
# Coordination Sequence:
#
# PCOD9281430 Si02
#       6
#     8   8   8   8   8   8
#     4  10  21  38  62  98 119 168 227 265 324 384
#     4  11  24  41  60  98 139 164 215 273 339 390
#     4   9  21  36  60  94 133 170 210 270 324 392
#     4  12  20  36  67  92 125 168 220 279 309 378
#     4  10  21  38  61  94 126 167 233 257 318 390
#     4  10  21  39  56  94 138 170 200 265 339 394
#
# _framework density 23.48565
#
# number of rings (size 3 to 8) (size 9 to 14) (size 15 to 20)
#    1.000    0.667    3.333    2.000    2.333    3.333 
#    3.000    0.000    0.000    5.000    0.000    0.000 
#    0.000    0.000    0.000    0.000    0.000    0.000 
#
# Total GULP energy -133764.476700 kJ/mol
# GULP energy per Si atom -5573.519863 kJ/mol
# Density = 2.343220 g / cm^3
# Si number density = 23.485650 Si / 1000 Ang^3
#
#
#
# Elastic Constant Matrix: (Units=GPa)
#
#
# Indices 1 2 3 4 5 6 
#
# 1 50.6896 49.9272 1.4046 0.0000 -7.4700 0.0000
# 2 49.9272 73.6058 30.1727 0.0000 -14.1611 0.0000
# 3 1.4046 30.1727 147.4401 0.0000 -7.1584 0.0000
# 4 0.0000 0.0000 0.0000 24.0349 0.0000 5.7194
# 5 -7.4700 -14.1611 -7.1584 0.0000 33.7437 0.0000
# 6 0.0000 0.0000 0.0000 5.7194 0.0000 26.9324
#
#
#
# Elastic Compliance Matrix: (Units=1/GPa)
#
#
# Indices 1 2 3 4 5 6 
#
# 1 0.071369 -0.053382 0.010027 0.000000 -0.004476 0.000000
# 2 -0.053382 0.055901 -0.010474 0.000000 0.009420 0.000000
# 3 0.010027 -0.010474 0.008815 0.000000 -0.000306 0.000000
# 4 0.000000 0.000000 0.000000 0.043821 0.000000 -0.009306
# 5 -0.004476 0.009420 -0.000306 0.000000 0.032533 0.000000
# 6 0.000000 0.000000 0.000000 -0.009306 0.000000 0.039106
#
#
# Mechanical properties :
#
#
# Convention : Reuss Voigt Hill
#
# Bulk Modulus (GPa) = 35.17583 48.30495 41.74039
# Shear Modulus (GPa) = 13.56195 29.62425 21.59310
#
# Velocity S-wave (km/s) = 2.40564 3.55544 3.03548
# Velocity P-wave (km/s) = 4.76720 6.12106 5.48606
#
# Compressibility (1/GPa) = 0.02842862
#
# Stress axis : x y z
#
# Youngs Moduli (GPa) = 14.01162 17.88880 113.43705
#
# Poissons Ratio (x) = 0.95493 -1.13743
# Poissons Ratio (y) = 0.74796 1.18812
# Poissons Ratio (z) = -0.14049 0.18736
#
# Static dielectric constant tensor:
#      x y z
#    x 2.025480 0.000000 0.033280 
#    y 0.000000 1.868620 0.000000 
#    z 0.033280 0.000000 1.922120 
# 
# From -- ./inp_files/50032.got.cif
#   From: 2010.05.17/outbox.cif.g08.bks.cpg/sg15_26_cif.got.tgz:50032.got - 2010.06.03 18:47:42.
