data_PCOD9281991
_publ_section_title
;
Structure prediction by ZEFSAII (Michael W. Deem and Ramdas Pophale) SiO2 
 PCOD9281991
Probable space group: C 2/C
;
_chemical_formula_sum "Si O2"
_cell_formula_units_Z 48
_cell_length_a 12.957524
_cell_length_b 24.324990
_cell_length_c 8.440257
_cell_angle_alpha 90.000000
_cell_angle_beta 119.558771
_cell_angle_gamma 90.000000
_cell_volume 2314.060977
_symmetry_space_group_name_H-M "C 2/C"
_symmetry_group_IT_number 15
_symmetry_cell_setting 'monoclinic'
loop_
_space_group_symop_operation_xyz
x,y,z
-x,y,1/2-z
-x,-y,-z
x,-y,1/2+z
1/2+x,1/2+y,z
1/2-x,1/2+y,1/2-z
1/2-x,1/2-y,-z
1/2+x,1/2-y,1/2+z
loop_
_atom_site_type_symbol
_atom_site_label
_atom_site_fract_x
_atom_site_fract_y
_atom_site_fract_z
Si Si1 0.580118 0.458300 0.459251
Si Si2 0.532828 0.928080 0.521859
Si Si3 0.110692 0.306182 0.573211
Si Si4 0.155224 0.519413 0.428051
Si Si5 0.000000 0.225967 0.750000
Si Si6 0.000000 0.766802 0.750000
Si Si7 0.633887 0.661868 0.099507
O O1 0.500000 0.441551 0.250000
O O2 0.500000 0.500000 0.500000
O O3 0.704146 0.483098 0.487849
O O4 0.613896 0.403204 0.579490
O O5 0.541171 0.863544 0.507434
O O6 0.397807 0.945476 0.463483
O O7 0.603730 0.950306 0.732389
O O8 0.597533 0.960491 0.428136
O O9 0.237846 0.323013 0.736864
O O10 0.052339 0.266174 0.657483
O O11 0.100190 0.273092 0.400564
O O12 0.897803 0.187843 0.595626
O O13 0.045914 0.807006 0.650066
#
# Coordination Sequence:
#
# PCOD9281991 Si02
#       7
#     8   8   8   8   4   4   8
#     4  12  26  42  67  99 134 179 222 265 337 413
#     4  10  21  38  67  91 128 165 211 276 329 389
#     4  11  22  41  67  95 128 173 223 276 335 393
#     4  10  21  40  59  96 127 166 214 266 331 392
#     4  10  22  42  65  95 126 168 228 266 338 396
#     4  10  26  42  63  97 134 178 228 272 336 394
#     4  11  23  44  65  94 133 175 216 285 326 398
#
# _framework density 20.742754000000001
#
# number of rings (size 3 to 8) (size 9 to 14) (size 15 to 20)
#    0.000    1.333    2.500    3.000    1.167    2.667 
#    0.000    1.667    0.000    0.000    0.000    0.000 
#    0.000    0.000    0.000    0.000    0.000    0.000 
#
# Total GULP energy -133942.200666 kJ/mol
# GULP energy per Si atom -5580.925028 kJ/mol
# Density = 2.069554 g / cm^3
# Si number density = 20.742754 Si / 1000 Ang^3
#
#
#
# Elastic Constant Matrix: (Units=GPa)
#
#
# Indices 1 2 3 4 5 6 
#
# 1 130.0182 58.9553 27.6687 0.0000 14.0043 0.0000
# 2 58.9553 148.4513 28.6059 0.0000 -7.0672 0.0000
# 3 27.6687 28.6059 71.8450 0.0000 3.0878 0.0000
# 4 0.0000 0.0000 0.0000 23.0840 0.0000 1.6871
# 5 14.0043 -7.0672 3.0878 0.0000 31.8616 0.0000
# 6 0.0000 0.0000 0.0000 1.6871 0.0000 24.3520
#
#
#
# Elastic Compliance Matrix: (Units=1/GPa)
#
#
# Indices 1 2 3 4 5 6 
#
# 1 0.010561 -0.004016 -0.002240 0.000000 -0.005316 0.000000
# 2 -0.004016 0.008940 -0.002183 0.000000 0.003960 0.000000
# 3 -0.002240 -0.002183 0.015695 0.000000 -0.001021 0.000000
# 4 0.000000 0.000000 0.000000 0.043540 0.000000 -0.003016
# 5 -0.005316 0.003960 -0.001021 0.000000 0.034699 0.000000
# 6 0.000000 0.000000 0.000000 -0.003016 0.000000 0.041273
#
#
# Mechanical properties :
#
#
# Convention : Reuss Voigt Hill
#
# Bulk Modulus (GPa) = 54.59044 64.53048 59.56046
# Shear Modulus (GPa) = 28.13833 31.53183 29.83508
#
# Velocity S-wave (km/s) = 3.68712 3.90312 3.79666
# Velocity P-wave (km/s) = 6.67094 7.17565 6.92789
#
# Compressibility (1/GPa) = 0.01831823
#
# Stress axis : x y z
#
# Youngs Moduli (GPa) = 94.68487 111.85418 63.71585
#
# Poissons Ratio (x) = 0.44917 0.14272
# Poissons Ratio (y) = 0.38023 0.13911
# Poissons Ratio (z) = 0.21209 0.24421
#
# Static dielectric constant tensor:
#      x y z
#    x 1.735230 0.000000 0.012240 
#    y 0.000000 1.723290 0.000000 
#    z 0.012240 0.000000 1.825820 
# 
# From -- ./inp_files/32685.got.cif
#   From: 2010.05.17/outbox.cif.g08.bks.cpg/sg15_17_cif.got.tgz:32685.got - 2010.06.03 18:47:42.
