data_PCOD9281765
_publ_section_title
;
Structure prediction by ZEFSAII (Michael W. Deem and Ramdas Pophale) SiO2 
 PCOD9281765
Probable space group: C 2/C
;
_chemical_formula_sum "Si O2"
_cell_formula_units_Z 56
_cell_length_a 11.105355
_cell_length_b 21.142970
_cell_length_c 24.721170
_cell_angle_alpha 90.000000
_cell_angle_beta 26.751248
_cell_angle_gamma 90.000000
_cell_volume 2612.725215
_symmetry_space_group_name_H-M "C 2/C"
_symmetry_group_IT_number 15
_symmetry_cell_setting 'monoclinic'
loop_
_space_group_symop_operation_xyz
x,y,z
-x,y,1/2-z
-x,-y,-z
x,-y,1/2+z
1/2+x,1/2+y,z
1/2-x,1/2+y,1/2-z
1/2-x,1/2-y,-z
1/2+x,1/2-y,1/2+z
loop_
_atom_site_type_symbol
_atom_site_label
_atom_site_fract_x
_atom_site_fract_y
_atom_site_fract_z
Si Si1 0.378266 0.279020 0.681801
Si Si2 0.000276 0.624876 0.131037
Si Si3 0.500000 0.089287 0.250000
Si Si4 0.961462 0.972673 0.703154
Si Si5 0.500000 0.707829 0.750000
Si Si6 0.425391 0.410817 0.945123
Si Si7 0.015985 0.657097 0.679348
Si Si8 0.446888 0.383660 0.361821
O O1 0.172513 0.311157 0.807462
O O2 0.209315 0.247485 0.701146
O O3 0.515109 0.340707 0.601813
O O4 0.566228 0.227553 0.635020
O O5 0.816230 0.562555 0.198934
O O6 0.072583 0.626589 0.165795
O O7 0.238760 0.617746 0.994099
O O8 0.792870 0.059365 0.146014
O O9 0.000000 0.954282 0.750000
O O10 0.156155 0.948017 0.576603
O O11 0.986056 0.047400 0.687926
O O12 0.648583 0.661925 0.648005
O O13 0.213380 0.396883 0.076877
O O14 0.723743 0.642615 0.773583
O O15 0.000000 0.657479 0.750000
#
# Coordination Sequence:
#
# PCOD9281765 Si02
#       8
#     8   8   4   8   4   8   8   8
#     4   9  20  38  62  90 123 167 213 254 313 364
#     4  10  22  40  66  92 123 169 211 256 311 377
#     4   8  17  40  62  84 118 158 209 242 298 364
#     4  10  23  42  65  90 125 160 211 262 315 375
#     4  10  21  38  64  92 128 162 211 256 300 374
#     4  10  21  40  65  93 123 168 210 259 312 372
#     4  11  24  38  58  93 132 163 206 262 314 371
#     4  11  24  41  61  96 125 167 211 256 317 371
#
# _framework density 21.433558999999999
#
# number of rings (size 3 to 8) (size 9 to 14) (size 15 to 20)
#    0.000    2.286    0.714    3.000    2.000    8.571 
#    5.143    3.571    0.000    0.000    0.000    0.000 
#    0.000    0.000    0.000    0.000    0.000    0.000 
#
# Total GULP energy -155981.047654 kJ/mol
# GULP energy per Si atom -5570.751702 kJ/mol
# Density = 2.138478 g / cm^3
# Si number density = 21.433559 Si / 1000 Ang^3
#
#
#
# Elastic Constant Matrix: (Units=GPa)
#
#
# Indices 1 2 3 4 5 6 
#
# 1 76.1043 21.9428 22.6960 0.3127 31.7372 -0.4494
# 2 21.9428 76.7535 -2.3380 -0.2314 9.4386 0.1293
# 3 22.6960 -2.3380 71.2311 0.0468 13.1143 -0.0615
# 4 0.3127 -0.2314 0.0468 53.2671 -0.9361 -29.0156
# 5 31.7372 9.4386 13.1143 -0.9361 30.4619 1.2824
# 6 -0.4494 0.1293 -0.0615 -29.0156 1.2824 71.9529
#
#
#
# Elastic Compliance Matrix: (Units=1/GPa)
#
#
# Indices 1 2 3 4 5 6 
#
# 1 0.025352 -0.004496 -0.003924 -0.000333 -0.023360 0.000445
# 2 -0.004496 0.014458 0.002030 0.000069 -0.000666 -0.000013
# 3 -0.003924 0.002030 0.015986 -0.000022 -0.003425 0.000038
# 4 -0.000333 0.000069 -0.000022 0.024066 0.000667 0.009691
# 5 -0.023360 -0.000666 -0.003425 0.000667 0.058906 -0.000929
# 6 0.000445 -0.000013 0.000038 0.009691 -0.000929 0.017825
#
#
# Mechanical properties :
#
#
# Convention : Reuss Voigt Hill
#
# Bulk Modulus (GPa) = 23.24747 34.29895 28.77321
# Shear Modulus (GPa) = 27.21617 43.25558 35.23587
#
# Velocity S-wave (km/s) = 3.56728 4.49723 4.05897
# Velocity P-wave (km/s) = 5.27609 6.55774 5.95152
#
# Compressibility (1/GPa) = 0.04301543
#
# Stress axis : x y z
#
# Youngs Moduli (GPa) = 39.44442 69.16485 62.55314
#
# Poissons Ratio (x) = 0.31100 0.24546
# Poissons Ratio (y) = 0.17736 -0.12698
# Poissons Ratio (z) = 0.15478 -0.14040
#
# Static dielectric constant tensor:
#      x y z
#    x 1.820210 0.000030 -0.006950 
#    y 0.000030 1.825230 0.000030 
#    z -0.006950 0.000030 1.837260 
# 
# From -- ./inp_files/270934.got.cif
#   From: 2010.05.17/outbox.cif.g08.bks.cpg/sg15_136_cif.got.tgz:270934.got - 2010.06.03 18:47:42.
