data_PCOD9281958
_publ_section_title
;
Structure prediction by ZEFSAII (Michael W. Deem and Ramdas Pophale) SiO2 
 PCOD9281958
Probable space group: C 2/C
;
_chemical_formula_sum "Si O2"
_cell_formula_units_Z 40
_cell_length_a 9.591394
_cell_length_b 9.755552
_cell_length_c 16.557580
_cell_angle_alpha 90.000000
_cell_angle_beta 94.241573
_cell_angle_gamma 90.000000
_cell_volume 1545.038513
_symmetry_space_group_name_H-M "C 2/C"
_symmetry_group_IT_number 15
_symmetry_cell_setting 'monoclinic'
loop_
_space_group_symop_operation_xyz
x,y,z
-x,y,1/2-z
-x,-y,-z
x,-y,1/2+z
1/2+x,1/2+y,z
1/2-x,1/2+y,1/2-z
1/2-x,1/2-y,-z
1/2+x,1/2-y,1/2+z
loop_
_atom_site_type_symbol
_atom_site_label
_atom_site_fract_x
_atom_site_fract_y
_atom_site_fract_z
Si Si1 0.661634 0.617927 0.044422
Si Si2 0.849502 0.848583 0.555849
Si Si3 0.814625 0.560610 0.305195
Si Si4 0.574077 0.827654 0.857968
Si Si5 0.113901 0.929079 0.197162
O O1 0.511084 0.690043 0.047827
O O2 0.809834 0.691880 0.068439
O O3 0.658252 0.514537 0.122001
O O4 0.664138 0.508022 0.972273
O O5 0.750000 0.750000 0.500000
O O6 0.791423 0.853356 0.644049
O O7 0.854496 0.641735 0.225051
O O8 0.744580 0.424548 0.265136
O O9 0.959378 0.550119 0.361740
O O10 0.474256 0.696696 0.842844
O O11 0.000000 0.001588 0.250000
#
# Coordination Sequence:
#
# PCOD9281958 Si02
#       5
#     8   8   8   8   8
#     4  10  24  43  63  97 132 170 217 270 318 394
#     4  11  23  41  65  94 138 173 214 265 333 388
#     4  10  21  38  66  96 124 167 215 263 317 388
#     4  10  22  41  67  96 127 166 224 267 325 376
#     4  11  19  40  70  87 126 169 209 269 322 371
#
# _framework density 25.889322
#
# number of rings (size 3 to 8) (size 9 to 14) (size 15 to 20)
#    0.000    1.600    4.000    1.200    0.000    0.800 
#    3.600    9.000    8.800    0.000    0.000    0.000 
#    0.000    0.000    0.000    0.000    0.000    0.000 
#
# Total GULP energy -111628.489403 kJ/mol
# GULP energy per Si atom -5581.424470 kJ/mol
# Density = 2.583040 g / cm^3
# Si number density = 25.889322 Si / 1000 Ang^3
#
#
#
# Elastic Constant Matrix: (Units=GPa)
#
#
# Indices 1 2 3 4 5 6 
#
# 1 206.9752 54.2886 64.3547 0.0000 44.1798 0.0000
# 2 54.2886 63.7754 -1.3917 0.0000 21.7679 0.0000
# 3 64.3547 -1.3917 68.7125 0.0000 25.9989 0.0000
# 4 0.0000 0.0000 0.0000 16.4398 0.0000 19.9613
# 5 44.1798 21.7679 25.9989 0.0000 74.5712 0.0000
# 6 0.0000 0.0000 0.0000 19.9613 0.0000 40.9307
#
#
#
# Elastic Compliance Matrix: (Units=1/GPa)
#
#
# Indices 1 2 3 4 5 6 
#
# 1 0.010181 -0.008855 -0.009689 0.000000 -0.000069 0.000000
# 2 -0.008855 0.025536 0.011112 0.000000 -0.006082 0.000000
# 3 -0.009689 0.011112 0.026389 0.000000 -0.006704 0.000000
# 4 0.000000 0.000000 0.000000 0.149141 0.000000 -0.072734
# 5 -0.000069 -0.006082 -0.006704 0.000000 0.017564 0.000000
# 6 0.000000 0.000000 0.000000 -0.072734 0.000000 0.059903
#
#
# Mechanical properties :
#
#
# Convention : Reuss Voigt Hill
#
# Bulk Modulus (GPa) = 21.16708 63.77403 42.47055
# Shear Modulus (GPa) = 15.65799 41.20243 28.43021
#
# Velocity S-wave (km/s) = 2.46195 3.99367 3.31742
# Velocity P-wave (km/s) = 4.03427 6.77884 5.57799
#
# Compressibility (1/GPa) = 0.04724317
#
# Stress axis : x y z
#
# Youngs Moduli (GPa) = 98.21913 39.16043 37.89406
#
# Poissons Ratio (x) = 0.34675 0.36715
# Poissons Ratio (y) = 0.86969 -0.42106
# Poissons Ratio (z) = 0.95162 -0.43514
#
# Static dielectric constant tensor:
#      x y z
#    x 2.192270 0.000000 -0.008380 
#    y 0.000000 2.227370 0.000000 
#    z -0.008380 0.000000 2.134440 
# 
# From -- ./inp_files/187975.got.cif
#   From: 2010.05.17/outbox.cif.g08.bks.cpg/sg15_94_cif.got.tgz:187975.got - 2010.06.03 18:47:42.
