data_PCOD9281078
_publ_section_title
;
Structure prediction by ZEFSAII (Michael W. Deem and Ramdas Pophale) SiO2 
 PCOD9281078
Probable space group: C 2/C
;
_chemical_formula_sum "Si O2"
_cell_formula_units_Z 40
_cell_length_a 9.910024
_cell_length_b 19.460997
_cell_length_c 14.392882
_cell_angle_alpha 90.000000
_cell_angle_beta 139.432542
_cell_angle_gamma 90.000000
_cell_volume 1805.219191
_symmetry_space_group_name_H-M "C 2/C"
_symmetry_group_IT_number 15
_symmetry_cell_setting 'monoclinic'
loop_
_space_group_symop_operation_xyz
x,y,z
-x,y,1/2-z
-x,-y,-z
x,-y,1/2+z
1/2+x,1/2+y,z
1/2-x,1/2+y,1/2-z
1/2-x,1/2-y,-z
1/2+x,1/2-y,1/2+z
loop_
_atom_site_type_symbol
_atom_site_label
_atom_site_fract_x
_atom_site_fract_y
_atom_site_fract_z
Si Si1 0.990626 0.822035 0.872592
Si Si2 0.795181 0.403134 0.920816
Si Si3 0.500000 0.191832 0.750000
Si Si4 0.217974 0.729337 0.377481
Si Si5 0.000000 0.970525 0.250000
Si Si6 0.254017 0.868304 0.279935
O O1 0.802426 0.857542 0.714625
O O2 0.042658 0.748326 0.853794
O O3 0.909529 0.811257 0.933465
O O4 0.186133 0.869330 0.953749
O O5 0.695110 0.478395 0.864002
O O6 0.039646 0.396531 0.058824
O O7 0.667802 0.146033 0.783235
O O8 0.250000 0.750000 0.500000
O O9 0.200752 0.796725 0.302972
O O10 0.000000 0.690867 0.250000
O O11 0.933918 0.920637 0.299876
#
# Coordination Sequence:
#
# PCOD9281078 Si02
#       6
#     8   8   4   8   4   8
#     4   8  18  36  57  88 114 150 196 230 289 360
#     4   9  19  37  63  77 111 160 198 239 282 358
#     4   8  19  32  58  82 115 138 190 230 290 350
#     4  11  22  35  58  92 128 153 187 249 308 350
#     4  10  21  38  58  82 113 148 202 244 300 332
#     4  11  20  37  58  85 115 153 193 246 292 350
#
# _framework density 22.157975
#
# number of rings (size 3 to 8) (size 9 to 14) (size 15 to 20)
#    0.000    2.800    1.000    1.800    0.000   10.400 
#    0.000    1.000   22.000    0.000    0.000    0.000 
#    0.000    0.000    0.000    0.000    0.000    0.000 
#
# Total GULP energy -111558.005826 kJ/mol
# GULP energy per Si atom -5577.900291 kJ/mol
# Density = 2.210754 g / cm^3
# Si number density = 22.157975 Si / 1000 Ang^3
#
#
#
# Elastic Constant Matrix: (Units=GPa)
#
#
# Indices 1 2 3 4 5 6 
#
# 1 160.5776 37.5313 19.7251 0.0002 -28.0820 0.0000
# 2 37.5313 92.8938 -3.8666 0.0002 -1.5516 0.0000
# 3 19.7251 -3.8666 76.2303 0.0010 0.0976 0.0002
# 4 0.0002 0.0002 0.0010 14.4529 0.0006 9.5050
# 5 -28.0820 -1.5516 0.0976 0.0006 45.5610 0.0001
# 6 0.0000 0.0000 0.0002 9.5050 0.0001 38.5840
#
#
#
# Elastic Compliance Matrix: (Units=1/GPa)
#
#
# Indices 1 2 3 4 5 6 
#
# 1 0.008137 -0.003301 -0.002279 0.000000 0.004908 0.000000
# 2 -0.003301 0.012133 0.001472 0.000000 -0.001624 0.000000
# 3 -0.002279 0.001472 0.013784 -0.000001 -0.001384 0.000000
# 4 0.000000 0.000000 -0.000001 0.082567 -0.000001 -0.020340
# 5 0.004908 -0.001624 -0.001384 -0.000001 0.024921 0.000000
# 6 0.000000 0.000000 0.000000 -0.020340 0.000000 0.030928
#
#
# Mechanical properties :
#
#
# Convention : Reuss Voigt Hill
#
# Bulk Modulus (GPa) = 38.70327 48.49791 43.60059
# Shear Modulus (GPa) = 26.41315 38.14038 32.27676
#
# Velocity S-wave (km/s) = 3.45634 4.15335 3.82077
# Velocity P-wave (km/s) = 5.78215 6.70338 6.25973
#
# Compressibility (1/GPa) = 0.02583761
#
# Stress axis : x y z
#
# Youngs Moduli (GPa) = 122.89207 82.42264 72.54611
#
# Poissons Ratio (x) = 0.27204 0.16535
# Poissons Ratio (y) = 0.40561 -0.10675
# Poissons Ratio (z) = 0.28010 -0.12129
#
# Static dielectric constant tensor:
#      x y z
#    x 1.804580 0.000000 0.002860 
#    y 0.000000 1.821740 0.000000 
#    z 0.002860 0.000000 2.004410 
# 
# From -- ./inp_files/136329.got.cif
#   From: 2010.05.17/outbox.cif.g08.bks.cpg/sg15_69_cif.got.tgz:136329.got - 2010.06.03 18:47:42.
