data_PCOD9281703
_publ_section_title
;
Structure prediction by ZEFSAII (Michael W. Deem and Ramdas Pophale) SiO2 
 PCOD9281703
Probable space group: C 2/C
;
_chemical_formula_sum "Si O2"
_cell_formula_units_Z 64
_cell_length_a 12.540953
_cell_length_b 21.882418
_cell_length_c 24.787948
_cell_angle_alpha 90.000000
_cell_angle_beta 153.698040
_cell_angle_gamma 90.000000
_cell_volume 3014.185647
_symmetry_space_group_name_H-M "C 2/C"
_symmetry_group_IT_number 15
_symmetry_cell_setting 'monoclinic'
loop_
_space_group_symop_operation_xyz
x,y,z
-x,y,1/2-z
-x,-y,-z
x,-y,1/2+z
1/2+x,1/2+y,z
1/2-x,1/2+y,1/2-z
1/2-x,1/2-y,-z
1/2+x,1/2-y,1/2+z
loop_
_atom_site_type_symbol
_atom_site_label
_atom_site_fract_x
_atom_site_fract_y
_atom_site_fract_z
Si Si1 0.924393 0.069477 0.868159
Si Si2 0.984549 0.246229 0.068595
Si Si3 0.268951 0.658364 0.884323
Si Si4 0.909276 0.056092 0.030043
Si Si5 0.637702 0.855762 0.754669
Si Si6 0.458123 0.031835 0.890351
Si Si7 0.284460 0.858944 0.377777
Si Si8 0.901498 0.603056 0.039337
O O1 0.880534 0.131263 0.880702
O O2 0.690457 0.044359 0.731994
O O3 0.035835 0.015316 0.955599
O O4 0.123103 0.083281 0.913654
O O5 0.204298 0.203850 0.187974
O O6 0.087435 0.312887 0.104906
O O7 0.750000 0.250000 0.000000
O O8 0.907572 0.211227 0.978654
O O9 0.000000 0.678232 0.750000
O O10 0.274042 0.598194 0.925171
O O11 0.163844 0.090107 0.152474
O O12 0.731601 0.053192 0.001180
O O13 0.500000 0.850568 0.750000
O O14 0.463420 0.869921 0.625820
O O15 0.339293 0.072866 0.882228
O O16 0.453400 0.960114 0.900941
O O17 0.415205 0.852524 0.494915
O O18 0.000000 0.846092 0.250000
#
# Coordination Sequence:
#
# PCOD9281703 Si02
#       8
#     8   8   8   8   8   8   8   8
#     4  11  21  38  64  99 142 173 219 274 336 405
#     4  11  27  48  67  91 135 178 229 289 339 392
#     4  11  22  38  64  96 125 175 226 277 335 404
#     4  10  21  38  63  98 142 177 210 271 343 395
#     4  11  23  45  69 100 139 174 221 282 338 399
#     4  11  22  43  65 101 140 175 222 274 332 402
#     4  12  25  46  69  96 132 182 228 281 331 396
#     4  11  24  42  70 101 137 179 225 268 341 409
#
# _framework density 21.232932000000002
#
# number of rings (size 3 to 8) (size 9 to 14) (size 15 to 20)
#    0.000    1.000    3.750    4.125    0.000    2.500 
#    0.000    3.750    0.000    0.000    0.000    0.000 
#    0.000    0.000    0.000    0.000    0.000    0.000 
#
# Total GULP energy -178665.317982 kJ/mol
# GULP energy per Si atom -5583.291187 kJ/mol
# Density = 2.118460 g / cm^3
# Si number density = 21.232932 Si / 1000 Ang^3
#
#
#
# Elastic Constant Matrix: (Units=GPa)
#
#
# Indices 1 2 3 4 5 6 
#
# 1 77.8892 24.7469 27.2126 -0.0012 12.0771 0.0014
# 2 24.7469 64.7351 13.7858 0.0042 3.8671 0.0012
# 3 27.2126 13.7858 88.2660 0.0177 4.1320 -0.0002
# 4 -0.0012 0.0042 0.0177 14.5034 0.0036 -1.4180
# 5 12.0771 3.8671 4.1320 0.0036 37.4376 0.0009
# 6 0.0014 0.0012 -0.0002 -1.4180 0.0009 32.4399
#
#
#
# Elastic Compliance Matrix: (Units=1/GPa)
#
#
# Indices 1 2 3 4 5 6 
#
# 1 0.016605 -0.005214 -0.004101 0.000009 -0.004365 0.000000
# 2 -0.005214 0.017688 -0.001154 -0.000004 -0.000018 -0.000001
# 3 -0.004101 -0.001154 0.012772 -0.000016 0.000032 0.000000
# 4 0.000009 -0.000004 -0.000016 0.069245 -0.000007 0.003027
# 5 -0.004365 -0.000018 0.000032 -0.000007 0.028118 -0.000001
# 6 0.000000 -0.000001 0.000000 0.003027 -0.000001 0.030959
#
#
# Mechanical properties :
#
#
# Convention : Reuss Voigt Hill
#
# Bulk Modulus (GPa) = 38.27381 40.26455 39.26918
# Shear Modulus (GPa) = 24.38640 27.88586 26.13613
#
# Velocity S-wave (km/s) = 3.39266 3.62792 3.51226
# Velocity P-wave (km/s) = 5.78028 6.04595 5.91461
#
# Compressibility (1/GPa) = 0.02612752
#
# Stress axis : x y z
#
# Youngs Moduli (GPa) = 60.22364 56.53702 78.29382
#
# Poissons Ratio (x) = 0.29476 0.32105
# Poissons Ratio (y) = 0.31398 0.09038
# Poissons Ratio (z) = 0.24696 0.06526
#
# Static dielectric constant tensor:
#      x y z
#    x 1.800190 0.000000 -0.024070 
#    y 0.000000 1.743220 -0.000010 
#    z -0.024070 -0.000010 1.781170 
# 
# From -- ./inp_files/271209.got.cif
#   From: 2010.05.17/outbox.cif.g08.bks.cpg/sg15_136_cif.got.tgz:271209.got - 2010.06.03 18:47:42.
