data_PCOD9281963
_publ_section_title
;
Structure prediction by ZEFSAII (Michael W. Deem and Ramdas Pophale) SiO2 
 PCOD9281963
Probable space group: C 2/C
;
_chemical_formula_sum "Si O2"
_cell_formula_units_Z 52
_cell_length_a 19.746856
_cell_length_b 13.185707
_cell_length_c 9.160828
_cell_angle_alpha 90.000000
_cell_angle_beta 132.430126
_cell_angle_gamma 90.000000
_cell_volume 1760.563613
_symmetry_space_group_name_H-M "C 2/C"
_symmetry_group_IT_number 15
_symmetry_cell_setting 'monoclinic'
loop_
_space_group_symop_operation_xyz
x,y,z
-x,y,1/2-z
-x,-y,-z
x,-y,1/2+z
1/2+x,1/2+y,z
1/2-x,1/2+y,1/2-z
1/2-x,1/2-y,-z
1/2+x,1/2-y,1/2+z
loop_
_atom_site_type_symbol
_atom_site_label
_atom_site_fract_x
_atom_site_fract_y
_atom_site_fract_z
Si Si1 0.965174 0.205575 0.338878
Si Si2 0.744731 0.001358 0.097128
Si Si3 0.868235 0.279789 0.782750
Si Si4 0.211676 0.774221 0.778803
Si Si5 0.116988 0.487669 0.144103
Si Si6 0.000000 0.632439 0.250000
Si Si7 0.567552 0.482596 0.233405
O O1 0.893832 0.256479 0.345012
O O2 0.921501 0.103494 0.207276
O O3 0.000000 0.268566 0.250000
O O4 0.059274 0.195365 0.562559
O O5 0.790443 0.102993 0.225513
O O6 0.704093 0.945886 0.177430
O O7 0.828017 0.946595 0.133892
O O8 0.657824 0.025333 0.866565
O O9 0.771930 0.250723 0.721229
O O10 0.882163 0.390792 0.876511
O O11 0.911750 0.305911 0.685888
O O12 0.250000 0.750000 0.000000
O O13 0.032174 0.439528 0.932431
O O14 0.500000 0.430249 0.250000
O O15 0.500000 0.500000 0.000000
#
# Coordination Sequence:
#
# PCOD9281963 Si02
#       7
#     8   8   8   8   8   4   8
#     4  10  21  39  68  97 128 175 231 277 341 415
#     4  10  22  39  65  95 132 170 227 277 337 411
#     4  11  24  41  66  96 139 176 230 289 341 419
#     4  10  21  38  66  97 123 174 228 282 334 406
#     4  11  23  41  66 100 137 181 223 283 347 419
#     4  12  26  40  62 102 140 188 226 272 366 412
#     4  10  21  41  67  96 125 172 227 285 340 400
#
# _framework density 29.535996000000001
#
# number of rings (size 3 to 8) (size 9 to 14) (size 15 to 20)
#    0.000    1.538    3.077    1.385    3.231    0.000 
#    1.385    0.769    0.000    0.000    0.000    0.000 
#    0.000    0.000    0.000    0.000    0.000    0.000 
#
# Total GULP energy -144961.123688 kJ/mol
# GULP energy per Si atom -5575.427834 kJ/mol
# Density = 2.946877 g / cm^3
# Si number density = 29.535996 Si / 1000 Ang^3
#
#
#
# Elastic Constant Matrix: (Units=GPa)
#
#
# Indices 1 2 3 4 5 6 
#
# 1 274.1030 2.1874 37.0988 0.0000 -4.4993 0.0000
# 2 2.1874 75.2668 3.5535 0.0000 5.2041 0.0000
# 3 37.0988 3.5535 104.5048 0.0000 -3.2065 0.0000
# 4 0.0000 0.0000 0.0000 43.1862 0.0000 6.7187
# 5 -4.4993 5.2041 -3.2065 0.0000 63.4056 0.0000
# 6 0.0000 0.0000 0.0000 6.7187 0.0000 46.4317
#
#
#
# Elastic Compliance Matrix: (Units=1/GPa)
#
#
# Indices 1 2 3 4 5 6 
#
# 1 0.003835 -0.000062 -0.001353 0.000000 0.000209 0.000000
# 2 -0.000062 0.013388 -0.000468 0.000000 -0.001127 0.000000
# 3 -0.001353 -0.000468 0.010079 0.000000 0.000452 0.000000
# 4 0.000000 0.000000 0.000000 0.023689 0.000000 -0.003428
# 5 0.000209 -0.001127 0.000452 0.000000 0.015902 0.000000
# 6 0.000000 0.000000 0.000000 -0.003428 0.000000 0.022033
#
#
# Mechanical properties :
#
#
# Convention : Reuss Voigt Hill
#
# Bulk Modulus (GPa) = 42.48705 59.95043 51.21874
# Shear Modulus (GPa) = 49.73300 58.00702 53.87001
#
# Velocity S-wave (km/s) = 4.10788 4.43645 4.27532
# Velocity P-wave (km/s) = 6.07582 6.82526 6.46142
#
# Compressibility (1/GPa) = 0.02353658
#
# Stress axis : x y z
#
# Youngs Moduli (GPa) = 260.73510 74.69449 99.21588
#
# Poissons Ratio (x) = 0.00463 0.13424
# Poissons Ratio (y) = 0.01617 0.04641
# Poissons Ratio (z) = 0.35278 0.03494
#
# Static dielectric constant tensor:
#      x y z
#    x 1.850990 0.000000 -0.476180 
#    y 0.000000 2.382840 0.000000 
#    z -0.476180 0.000000 1.971740 
# 
# From -- ./inp_files/57089.got.cif
#   From: 2010.05.17/outbox.cif.g08.bks.cpg/sg15_29_cif.got.tgz:57089.got - 2010.06.03 18:47:42.
