data_PCOD9281875
_publ_section_title
;
Structure prediction by ZEFSAII (Michael W. Deem and Ramdas Pophale) SiO2 
 PCOD9281875
Probable space group: C 2/C
;
_chemical_formula_sum "Si O2"
_cell_formula_units_Z 44
_cell_length_a 7.523763
_cell_length_b 18.576999
_cell_length_c 14.689770
_cell_angle_alpha 90.000000
_cell_angle_beta 64.742679
_cell_angle_gamma 90.000000
_cell_volume 1856.891457
_symmetry_space_group_name_H-M "C 2/C"
_symmetry_group_IT_number 15
_symmetry_cell_setting 'monoclinic'
loop_
_space_group_symop_operation_xyz
x,y,z
-x,y,1/2-z
-x,-y,-z
x,-y,1/2+z
1/2+x,1/2+y,z
1/2-x,1/2+y,1/2-z
1/2-x,1/2-y,-z
1/2+x,1/2-y,1/2+z
loop_
_atom_site_type_symbol
_atom_site_label
_atom_site_fract_x
_atom_site_fract_y
_atom_site_fract_z
Si Si1 0.788833 0.483929 0.321399
Si Si2 0.193419 0.648792 0.254309
Si Si3 0.749833 0.936246 0.974222
Si Si4 0.445291 0.844873 0.977759
Si Si5 0.554066 0.313786 0.946850
Si Si6 0.000000 0.008556 0.750000
O O1 0.788803 0.566261 0.283389
O O2 0.742851 0.486976 0.437794
O O3 0.634133 0.446182 0.288964
O O4 0.000000 0.453762 0.250000
O O5 0.134406 0.653851 0.369725
O O6 0.378990 0.686441 0.172928
O O7 0.000000 0.681711 0.250000
O O8 0.516585 0.915264 0.016723
O O9 0.864586 0.966676 0.858345
O O10 0.869425 0.866695 0.987594
O O11 0.237812 0.844439 0.968904
O O12 0.463801 0.768673 0.022106
#
# Coordination Sequence:
#
# PCOD9281875 Si02
#       6
#     8   8   8   8   8   4
#     4  11  25  43  63  95 133 178 221 273 328 405
#     4   9  18  39  63  90 126 171 220 256 325 400
#     4  12  23  40  67  99 131 173 226 274 326 402
#     4  10  21  40  65  95 132 175 214 272 335 390
#     4  10  21  38  65  95 128 173 217 270 328 399
#     4  12  24  40  70  96 124 182 218 276 336 382
#
# _framework density 23.695515
#
# number of rings (size 3 to 8) (size 9 to 14) (size 15 to 20)
#    0.000    1.455    3.636    1.091    0.000    2.182 
#    3.273    0.000    2.000    0.000    0.000    0.000 
#    0.000    0.000    0.000    0.000    0.000    0.000 
#
# Total GULP energy -122505.213241 kJ/mol
# GULP energy per Si atom -5568.418784 kJ/mol
# Density = 2.364158 g / cm^3
# Si number density = 23.695515 Si / 1000 Ang^3
#
#
#
# Elastic Constant Matrix: (Units=GPa)
#
#
# Indices 1 2 3 4 5 6 
#
# 1 129.9895 13.9748 25.1649 0.0000 11.1201 0.0000
# 2 13.9748 49.4728 17.6531 0.0000 8.2866 0.0000
# 3 25.1649 17.6531 87.3582 0.0000 20.9957 0.0000
# 4 0.0000 0.0000 0.0000 13.5630 0.0000 8.7850
# 5 11.1201 8.2866 20.9957 0.0000 34.3147 0.0000
# 6 0.0000 0.0000 0.0000 8.7850 0.0000 14.0693
#
#
#
# Elastic Compliance Matrix: (Units=1/GPa)
#
#
# Indices 1 2 3 4 5 6 
#
# 1 0.008307 -0.001500 -0.001794 0.000000 -0.001232 0.000000
# 2 -0.001500 0.022323 -0.003400 0.000000 -0.002824 0.000000
# 3 -0.001794 -0.003400 0.014437 0.000000 -0.007431 0.000000
# 4 0.000000 0.000000 0.000000 0.123799 0.000000 -0.077301
# 5 -0.001232 -0.002824 -0.007431 0.000000 0.034770 0.000000
# 6 0.000000 0.000000 0.000000 -0.077301 0.000000 0.119344
#
#
# Mechanical properties :
#
#
# Convention : Reuss Voigt Hill
#
# Bulk Modulus (GPa) = 31.56635 42.26735 36.91685
# Shear Modulus (GPa) = 14.41226 26.39127 20.40176
#
# Velocity S-wave (km/s) = 2.46890 3.34093 2.93746
# Velocity P-wave (km/s) = 4.63442 5.72354 5.20753
#
# Compressibility (1/GPa) = 0.03167930
#
# Stress axis : x y z
#
# Youngs Moduli (GPa) = 120.38275 44.79651 69.26714
#
# Poissons Ratio (x) = 0.06720 0.12424
# Poissons Ratio (y) = 0.18058 0.23552
# Poissons Ratio (z) = 0.21592 0.15231
#
# Static dielectric constant tensor:
#      x y z
#    x 2.043700 0.000000 0.093520 
#    y 0.000000 1.940910 0.000000 
#    z 0.093520 0.000000 1.972330 
# 
# From -- ./inp_files/135834.got.cif
#   From: 2010.05.17/outbox.cif.g08.bks.cpg/sg15_68_cif.got.tgz:135834.got - 2010.06.03 18:47:42.
