data_PCOD9281648
_publ_section_title
;
Structure prediction by ZEFSAII (Michael W. Deem and Ramdas Pophale) SiO2 
 PCOD9281648
Probable space group: C 2/C
;
_chemical_formula_sum "Si O2"
_cell_formula_units_Z 56
_cell_length_a 20.143743
_cell_length_b 19.583394
_cell_length_c 9.810046
_cell_angle_alpha 90.000000
_cell_angle_beta 137.376047
_cell_angle_gamma 90.000000
_cell_volume 2620.629566
_symmetry_space_group_name_H-M "C 2/C"
_symmetry_group_IT_number 15
_symmetry_cell_setting 'monoclinic'
loop_
_space_group_symop_operation_xyz
x,y,z
-x,y,1/2-z
-x,-y,-z
x,-y,1/2+z
1/2+x,1/2+y,z
1/2-x,1/2+y,1/2-z
1/2-x,1/2-y,-z
1/2+x,1/2-y,1/2+z
loop_
_atom_site_type_symbol
_atom_site_label
_atom_site_fract_x
_atom_site_fract_y
_atom_site_fract_z
Si Si1 0.291881 0.378097 0.376849
Si Si2 0.385616 0.864828 0.903701
Si Si3 0.827980 0.132019 0.448324
Si Si4 0.066985 0.006174 0.468472
Si Si5 0.598619 0.696320 0.210727
Si Si6 0.397682 0.139678 0.748891
Si Si7 0.878180 0.208212 0.797594
O O1 0.340325 0.444346 0.381852
O O2 0.359430 0.343105 0.595653
O O3 0.189440 0.391320 0.294545
O O4 0.290645 0.323010 0.254702
O O5 0.282881 0.894944 0.697496
O O6 0.380524 0.788104 0.834089
O O7 0.496692 0.887694 0.041398
O O8 0.383646 0.869214 0.065702
O O9 0.896781 0.066923 0.529990
O O10 0.837317 0.173715 0.321791
O O11 0.862693 0.181423 0.621877
O O12 0.000000 0.037178 0.250000
O O13 0.000000 0.000000 0.500000
O O14 0.605251 0.777810 0.238788
O O15 0.484201 0.680470 0.008897
#
# Coordination Sequence:
#
# PCOD9281648 Si02
#       7
#     8   8   8   8   8   8   8
#     4  12  21  38  63  87 117 164 206 245 294 351
#     4  10  21  39  61  90 120 152 201 256 304 355
#     4  12  23  39  57  87 127 163 195 243 309 361
#     4  12  26  42  60  89 125 162 205 248 294 364
#     4  11  20  36  63  90 121 156 202 245 301 363
#     4  10  21  38  63  93 113 151 211 256 291 357
#     4  11  22  35  58  92 126 155 189 252 315 368
#
# _framework density 21.368912000000002
#
# number of rings (size 3 to 8) (size 9 to 14) (size 15 to 20)
#    0.000    0.857    2.857    6.857    0.000    0.000 
#    0.000    2.857    0.000    0.000    0.000    0.000 
#    0.000    0.000    0.000    0.000    0.000    0.000 
#
# Total GULP energy -156459.782990 kJ/mol
# GULP energy per Si atom -5587.849393 kJ/mol
# Density = 2.132028 g / cm^3
# Si number density = 21.368912 Si / 1000 Ang^3
#
#
#
# Elastic Constant Matrix: (Units=GPa)
#
#
# Indices 1 2 3 4 5 6 
#
# 1 150.4849 31.3596 41.3458 0.0000 15.3631 0.0000
# 2 31.3596 29.5386 -0.3890 0.0000 2.1864 0.0000
# 3 41.3458 -0.3890 58.1460 0.0000 10.4240 0.0000
# 4 0.0000 0.0000 0.0000 10.4260 0.0000 5.4419
# 5 15.3631 2.1864 10.4240 0.0000 50.6525 0.0000
# 6 0.0000 0.0000 0.0000 5.4419 0.0000 31.4084
#
#
#
# Elastic Compliance Matrix: (Units=1/GPa)
#
#
# Indices 1 2 3 4 5 6 
#
# 1 0.011551 -0.012272 -0.008060 0.000000 -0.001315 0.000000
# 2 -0.012272 0.047015 0.009072 0.000000 -0.000174 0.000000
# 3 -0.008060 0.009072 0.023489 0.000000 -0.002781 0.000000
# 4 0.000000 0.000000 0.000000 0.105450 0.000000 -0.018270
# 5 -0.001315 -0.000174 -0.002781 0.000000 0.020721 0.000000
# 6 0.000000 0.000000 0.000000 -0.018270 0.000000 0.035004
#
#
# Mechanical properties :
#
#
# Convention : Reuss Voigt Hill
#
# Bulk Modulus (GPa) = 16.79687 42.53359 29.66523
# Shear Modulus (GPa) = 17.50723 29.55426 23.53075
#
# Velocity S-wave (km/s) = 2.86542 3.72297 3.32198
# Velocity P-wave (km/s) = 4.33878 6.19906 5.35039
#
# Compressibility (1/GPa) = 0.05953492
#
# Stress axis : x y z
#
# Youngs Moduli (GPa) = 86.56924 21.26964 42.57364
#
# Poissons Ratio (x) = 0.26103 0.34315
# Poissons Ratio (y) = 1.06241 -0.38624
# Poissons Ratio (z) = 0.69777 -0.19297
#
# Static dielectric constant tensor:
#      x y z
#    x 1.824370 0.000000 0.038480 
#    y 0.000000 1.774220 0.000000 
#    z 0.038480 0.000000 1.789850 
# 
# From -- ./inp_files/51575.got.cif
#   From: 2010.05.17/outbox.cif.g08.bks.cpg/sg15_26_cif.got.tgz:51575.got - 2010.06.03 18:47:42.
