data_PCOD9281085
_publ_section_title
;
Structure prediction by ZEFSAII (Michael W. Deem and Ramdas Pophale) SiO2 
 PCOD9281085
Probable space group: C 2/C
;
_chemical_formula_sum "Si O2"
_cell_formula_units_Z 60
_cell_length_a 25.166134
_cell_length_b 19.048318
_cell_length_c 9.678322
_cell_angle_alpha 90.000000
_cell_angle_beta 135.238225
_cell_angle_gamma 90.000000
_cell_volume 3266.968626
_symmetry_space_group_name_H-M "C 2/C"
_symmetry_group_IT_number 15
_symmetry_cell_setting 'monoclinic'
loop_
_space_group_symop_operation_xyz
x,y,z
-x,y,1/2-z
-x,-y,-z
x,-y,1/2+z
1/2+x,1/2+y,z
1/2-x,1/2+y,1/2-z
1/2-x,1/2-y,-z
1/2+x,1/2-y,1/2+z
loop_
_atom_site_type_symbol
_atom_site_label
_atom_site_fract_x
_atom_site_fract_y
_atom_site_fract_z
Si Si1 0.507659 0.850330 0.968133
Si Si2 0.381154 0.971577 0.449552
Si Si3 0.276941 0.018259 0.007724
Si Si4 0.647575 0.787363 0.918899
Si Si5 0.146355 0.267574 0.233014
Si Si6 0.245052 0.859458 0.888315
Si Si7 0.218598 0.149097 0.016373
Si Si8 0.000000 0.418674 0.250000
O O1 0.559954 0.911541 0.993904
O O2 0.557989 0.780480 0.068259
O O3 0.493600 0.875552 0.097825
O O4 0.430055 0.828808 0.750992
O O5 0.316070 0.952353 0.439793
O O6 0.341212 0.007483 0.243984
O O7 0.428392 0.030105 0.618662
O O8 0.213397 0.071196 0.946004
O O9 0.244887 0.940568 0.925814
O O10 0.712226 0.819387 0.943147
O O11 0.670771 0.789176 0.122741
O O12 0.649321 0.703961 0.884347
O O13 0.176220 0.189464 0.313153
O O14 0.183182 0.321029 0.410161
O O15 0.244849 0.855294 0.723150
#
# Coordination Sequence:
#
# PCOD9281085 Si02
#       8
#     8   8   8   8   8   8   8   4
#     4  12  24  37  58  84 119 160 192 236 291 360
#     4  12  24  35  55  86 119 155 192 230 292 357
#     4  12  22  38  58  84 117 156 196 242 292 345
#     4  10  23  38  58  83 113 155 199 241 282 349
#     4  10  21  38  58  83 113 154 200 239 293 344
#     4  10  21  38  58  83 116 151 197 248 288 346
#     4  10  22  39  58  82 114 152 198 244 288 341
#     4  12  26  36  48  84 128 160 180 234 294 352
#
# _framework density 18.365649999999999
#
# number of rings (size 3 to 8) (size 9 to 14) (size 15 to 20)
#    0.000    1.067    4.000    2.400    5.600    0.000 
#    0.000    0.000    0.000    0.800    0.000    0.000 
#    0.000    0.000    0.000    0.000    0.000    0.000 
#
# Total GULP energy -167424.312198 kJ/mol
# GULP energy per Si atom -5580.810407 kJ/mol
# Density = 1.832385 g / cm^3
# Si number density = 18.365650 Si / 1000 Ang^3
#
#
#
# Elastic Constant Matrix: (Units=GPa)
#
#
# Indices 1 2 3 4 5 6 
#
# 1 44.7715 29.0082 9.2641 0.0000 -14.4106 0.0000
# 2 29.0082 113.4508 24.0913 0.0000 -6.2849 0.0000
# 3 9.2641 24.0913 53.6318 0.0000 -11.5382 0.0000
# 4 0.0000 0.0000 0.0000 30.8245 0.0000 2.7085
# 5 -14.4106 -6.2849 -11.5382 0.0000 27.0665 0.0000
# 6 0.0000 0.0000 0.0000 2.7085 0.0000 23.2591
#
#
#
# Elastic Compliance Matrix: (Units=1/GPa)
#
#
# Indices 1 2 3 4 5 6 
#
# 1 0.032105 -0.007602 0.001285 0.000000 0.015876 0.000000
# 2 -0.007602 0.011549 -0.004589 0.000000 -0.003322 0.000000
# 3 0.001285 -0.004589 0.022463 0.000000 0.009194 0.000000
# 4 0.000000 0.000000 0.000000 0.032777 0.000000 -0.003817
# 5 0.015876 -0.003322 0.009194 0.000000 0.048546 0.000000
# 6 0.000000 0.000000 0.000000 -0.003817 0.000000 0.043438
#
#
# Mechanical properties :
#
#
# Convention : Reuss Voigt Hill
#
# Bulk Modulus (GPa) = 22.57152 37.39791 29.98471
# Shear Modulus (GPa) = 21.98179 26.19605 24.08892
#
# Velocity S-wave (km/s) = 3.46337 3.78082 3.62557
# Velocity P-wave (km/s) = 5.32072 6.28225 5.82137
#
# Compressibility (1/GPa) = 0.04430362
#
# Stress axis : x y z
#
# Youngs Moduli (GPa) = 31.14740 86.58973 44.51714
#
# Poissons Ratio (x) = 0.65829 -0.05719
# Poissons Ratio (y) = 0.23679 0.20430
# Poissons Ratio (z) = -0.04001 0.39738
#
# Static dielectric constant tensor:
#      x y z
#    x 1.657710 0.000000 -0.008580 
#    y 0.000000 1.708890 0.000000 
#    z -0.008580 0.000000 1.644070 
# 
# From -- ./inp_files/67035.got.cif
#   From: 2010.05.17/outbox.cif.g08.bks.cpg/sg15_34_cif.got.tgz:67035.got - 2010.06.03 18:47:42.
