data_PCOD9281208
_publ_section_title
;
Structure prediction by ZEFSAII (Michael W. Deem and Ramdas Pophale) SiO2 
 PCOD9281208
Probable space group: C 2/C
;
_chemical_formula_sum "Si O2"
_cell_formula_units_Z 56
_cell_length_a 13.692777
_cell_length_b 16.662201
_cell_length_c 20.801398
_cell_angle_alpha 90.000000
_cell_angle_beta 31.261912
_cell_angle_gamma 90.000000
_cell_volume 2462.877265
_symmetry_space_group_name_H-M "C 2/C"
_symmetry_group_IT_number 15
_symmetry_cell_setting 'monoclinic'
loop_
_space_group_symop_operation_xyz
x,y,z
-x,y,1/2-z
-x,-y,-z
x,-y,1/2+z
1/2+x,1/2+y,z
1/2-x,1/2+y,1/2-z
1/2-x,1/2-y,-z
1/2+x,1/2-y,1/2+z
loop_
_atom_site_type_symbol
_atom_site_label
_atom_site_fract_x
_atom_site_fract_y
_atom_site_fract_z
Si Si1 0.268170 0.912551 0.138862
Si Si2 0.603650 0.464258 0.357238
Si Si3 0.533905 0.325343 0.975207
Si Si4 0.402558 0.090323 0.238150
Si Si5 0.281364 0.902575 0.602323
Si Si6 0.641254 0.803352 0.510719
Si Si7 0.958390 0.123798 0.383108
O O1 0.165201 0.907985 0.264176
O O2 0.236333 0.002282 0.131023
O O3 0.493803 0.899187 0.020149
O O4 0.214114 0.847199 0.117708
O O5 0.529131 0.408104 0.455343
O O6 0.785361 0.515594 0.276634
O O7 0.463382 0.532716 0.409075
O O8 0.754533 0.339246 0.837799
O O9 0.445615 0.320613 0.953554
O O10 0.513168 0.253885 0.037513
O O11 0.500000 0.068064 0.250000
O O12 0.537921 0.126337 0.108157
O O13 0.201340 0.868621 0.580611
O O14 0.155844 0.867696 0.732150
O O15 0.750000 0.750000 0.500000
#
# Coordination Sequence:
#
# PCOD9281208 Si02
#       7
#     8   8   8   8   8   8   8
#     4  10  21  38  59  92 127 165 220 267 322 398
#     4  10  23  38  63  93 129 170 221 277 314 380
#     4  11  24  40  60  95 136 172 216 268 328 396
#     4  11  22  42  66  96 132 173 219 269 328 392
#     4   9  18  37  67  90 119 164 221 280 318 375
#     4  12  26  40  63  95 137 178 204 266 340 401
#     4   9  18  36  62  91 120 163 216 273 323 372
#
# _framework density 22.737632999999999
#
# number of rings (size 3 to 8) (size 9 to 14) (size 15 to 20)
#    0.000    1.714    1.429    5.143    4.000    3.429 
#    0.000    0.714    0.000    0.000    0.000    0.000 
#    0.000    0.000    0.000    0.000    0.000    0.000 
#
# Total GULP energy -156546.032562 kJ/mol
# GULP energy per Si atom -5590.929734 kJ/mol
# Density = 2.268588 g / cm^3
# Si number density = 22.737633 Si / 1000 Ang^3
#
#
#
# Elastic Constant Matrix: (Units=GPa)
#
#
# Indices 1 2 3 4 5 6 
#
# 1 143.5358 33.0076 40.3318 -0.0008 35.4312 0.0031
# 2 33.0076 67.4255 23.1537 -0.0029 18.2721 0.0020
# 3 40.3318 23.1537 82.7752 -0.0019 24.4343 0.0040
# 4 -0.0008 -0.0029 -0.0019 15.7248 0.0001 15.5920
# 5 35.4312 18.2721 24.4343 0.0001 41.0140 -0.0023
# 6 0.0031 0.0020 0.0040 15.5920 -0.0023 24.4120
#
#
#
# Elastic Compliance Matrix: (Units=1/GPa)
#
#
# Indices 1 2 3 4 5 6 
#
# 1 0.009598 -0.002315 -0.002288 0.000003 -0.005897 -0.000003
# 2 -0.002315 0.018078 -0.002599 0.000011 -0.004506 -0.000008
# 3 -0.002288 -0.002599 0.015771 0.000011 -0.006261 -0.000010
# 4 0.000003 0.000011 0.000011 0.173425 -0.000021 -0.110767
# 5 -0.005897 -0.004506 -0.006261 -0.000021 0.035214 0.000019
# 6 -0.000003 -0.000008 -0.000010 -0.110767 0.000019 0.111710
#
#
# Mechanical properties :
#
#
# Convention : Reuss Voigt Hill
#
# Bulk Modulus (GPa) = 34.43160 54.08028 44.25594
# Shear Modulus (GPa) = 12.89059 29.37972 21.13516
#
# Velocity S-wave (km/s) = 2.38361 3.59850 3.05212
# Velocity P-wave (km/s) = 4.76983 6.41107 5.65036
#
# Compressibility (1/GPa) = 0.02904309
#
# Stress axis : x y z
#
# Youngs Moduli (GPa) = 104.19059 55.31635 63.40749
#
# Poissons Ratio (x) = 0.12804 0.14510
# Poissons Ratio (y) = 0.24117 0.16478
# Poissons Ratio (z) = 0.23842 0.14375
#
# Static dielectric constant tensor:
#      x y z
#    x 1.911830 0.000000 0.005480 
#    y 0.000000 1.856610 0.000000 
#    z 0.005480 0.000000 1.862530 
# 
# From -- ./inp_files/245116.got.cif
#   From: 2010.05.17/outbox.cif.g08.bks.cpg/sg15_123_cif.got.tgz:245116.got - 2010.06.03 18:47:42.
