data_PCOD9281446
_publ_section_title
;
Structure prediction by ZEFSAII (Michael W. Deem and Ramdas Pophale) SiO2 
 PCOD9281446
Probable space group: C 2/C
;
_chemical_formula_sum "Si O2"
_cell_formula_units_Z 56
_cell_length_a 8.264281
_cell_length_b 16.198145
_cell_length_c 20.919999
_cell_angle_alpha 90.000000
_cell_angle_beta 71.863575
_cell_angle_gamma 90.000000
_cell_volume 2661.343833
_symmetry_space_group_name_H-M "C 2/C"
_symmetry_group_IT_number 15
_symmetry_cell_setting 'monoclinic'
loop_
_space_group_symop_operation_xyz
x,y,z
-x,y,1/2-z
-x,-y,-z
x,-y,1/2+z
1/2+x,1/2+y,z
1/2-x,1/2+y,1/2-z
1/2-x,1/2-y,-z
1/2+x,1/2-y,1/2+z
loop_
_atom_site_type_symbol
_atom_site_label
_atom_site_fract_x
_atom_site_fract_y
_atom_site_fract_z
Si Si1 0.996796 0.395790 0.032818
Si Si2 0.023639 0.349984 0.610857
Si Si3 0.651835 0.678525 0.845212
Si Si4 0.614382 0.582202 0.978093
Si Si5 0.500000 0.863394 0.250000
Si Si6 0.143946 0.777310 0.948424
Si Si7 0.000000 0.922227 0.250000
Si Si8 0.647435 0.012059 0.834773
O O1 0.195644 0.418365 0.016000
O O2 0.948066 0.304624 0.065159
O O3 0.881536 0.456523 0.089087
O O4 0.955203 0.388485 0.962904
O O5 0.914572 0.266111 0.621488
O O6 0.931822 0.421348 0.661674
O O7 0.209198 0.320369 0.611414
O O8 0.646773 0.609971 0.901293
O O9 0.537339 0.638856 0.804097
O O10 0.838197 0.687754 0.792464
O O11 0.500000 0.500000 0.000000
O O12 0.500109 0.655998 0.020190
O O13 0.451375 0.923295 0.197642
O O14 0.250000 0.750000 0.000000
O O15 0.159341 0.978597 0.211295
#
# Coordination Sequence:
#
# PCOD9281446 Si02
#       8
#     8   8   8   8   4   8   4   8
#     4  11  22  40  67  96 133 167 207 272 344 378
#     4  11  24  40  69  97 130 159 218 277 331 392
#     4  11  23  46  63  93 130 170 220 263 321 398
#     4  12  24  38  66  97 133 165 214 269 333 389
#     4  10  24  44  64  82 126 180 212 262 312 380
#     4  10  21  38  61  97 129 161 199 262 339 386
#     4  10  26  42  68  86 126 186 216 266 320 386
#     4  11  23  42  65  92 126 168 222 265 320 392
#
# _framework density 21.042002
#
# number of rings (size 3 to 8) (size 9 to 14) (size 15 to 20)
#    0.000    1.143    4.286    2.571    4.000    1.143 
#    0.000    0.000    0.000    0.000    0.000    0.000 
#    0.000    0.000    0.000    0.000    0.000    0.000 
#
# Total GULP energy -156380.873771 kJ/mol
# GULP energy per Si atom -5585.031206 kJ/mol
# Density = 2.099411 g / cm^3
# Si number density = 21.042002 Si / 1000 Ang^3
#
#
#
# Elastic Constant Matrix: (Units=GPa)
#
#
# Indices 1 2 3 4 5 6 
#
# 1 59.8669 21.8024 7.3332 0.0000 -14.0443 0.0000
# 2 21.8024 117.6028 38.0329 0.0000 -24.6785 0.0000
# 3 7.3332 38.0329 55.9986 0.0000 -4.4983 0.0000
# 4 0.0000 0.0000 0.0000 22.9682 0.0000 -14.4002
# 5 -14.0443 -24.6785 -4.4983 0.0000 27.8852 0.0000
# 6 0.0000 0.0000 0.0000 -14.4002 0.0000 24.3721
#
#
#
# Elastic Compliance Matrix: (Units=1/GPa)
#
#
# Indices 1 2 3 4 5 6 
#
# 1 0.019303 -0.001613 -0.000776 0.000000 0.008169 0.000000
# 2 -0.001613 0.013507 -0.008173 0.000000 0.009822 0.000000
# 3 -0.000776 -0.008173 0.023198 0.000000 -0.003882 0.000000
# 4 0.000000 0.000000 0.000000 0.069157 0.000000 0.040861
# 5 0.008169 0.009822 -0.003882 0.000000 0.048042 0.000000
# 6 0.000000 0.000000 0.000000 0.040861 0.000000 0.065173
#
#
# Mechanical properties :
#
#
# Convention : Reuss Voigt Hill
#
# Bulk Modulus (GPa) = 28.66722 40.86724 34.76723
# Shear Modulus (GPa) = 18.44122 26.13177 22.28649
#
# Velocity S-wave (km/s) = 2.96362 3.52786 3.25798
# Velocity P-wave (km/s) = 5.03628 6.00486 5.54177
#
# Compressibility (1/GPa) = 0.03488305
#
# Stress axis : x y z
#
# Youngs Moduli (GPa) = 51.80637 74.03715 43.10655
#
# Poissons Ratio (x) = 0.11946 0.03344
# Poissons Ratio (y) = 0.08359 0.35232
# Poissons Ratio (z) = 0.04019 0.60512
#
# Static dielectric constant tensor:
#      x y z
#    x 1.784640 0.000000 0.000370 
#    y 0.000000 1.755250 0.000000 
#    z 0.000370 0.000000 1.796410 
# 
# From -- ./inp_files/264621.got.cif
#   From: 2010.05.17/outbox.cif.g08.bks.cpg/sg15_133_cif.got.tgz:264621.got - 2010.06.03 18:47:42.
