data_PCOD9281615
_publ_section_title
;
Structure prediction by ZEFSAII (Michael W. Deem and Ramdas Pophale) SiO2 
 PCOD9281615
Probable space group: C 2/C
;
_chemical_formula_sum "Si O2"
_cell_formula_units_Z 56
_cell_length_a 24.849772
_cell_length_b 8.931699
_cell_length_c 10.707675
_cell_angle_alpha 90.000000
_cell_angle_beta 110.102401
_cell_angle_gamma 90.000000
_cell_volume 2231.794434
_symmetry_space_group_name_H-M "C 2/C"
_symmetry_group_IT_number 15
_symmetry_cell_setting 'monoclinic'
loop_
_space_group_symop_operation_xyz
x,y,z
-x,y,1/2-z
-x,-y,-z
x,-y,1/2+z
1/2+x,1/2+y,z
1/2-x,1/2+y,1/2-z
1/2-x,1/2-y,-z
1/2+x,1/2-y,1/2+z
loop_
_atom_site_type_symbol
_atom_site_label
_atom_site_fract_x
_atom_site_fract_y
_atom_site_fract_z
Si Si1 0.500000 0.468039 0.750000
Si Si2 0.893687 0.831157 0.755918
Si Si3 0.695430 0.499199 0.172638
Si Si4 0.193991 0.321544 0.704855
Si Si5 0.039955 0.216065 0.936440
Si Si6 0.337355 0.258240 0.061444
Si Si7 0.627765 0.024922 0.814395
Si Si8 0.000000 0.470961 0.750000
O O1 0.441406 0.376849 0.694722
O O2 0.500467 0.576563 0.870125
O O3 0.855181 0.969000 0.769181
O O4 0.852091 0.693283 0.689964
O O5 0.931562 0.784193 0.906731
O O6 0.755699 0.559755 0.273493
O O7 0.692593 0.328022 0.120587
O O8 0.683492 0.622856 0.055203
O O9 0.200586 0.233394 0.844361
O O10 0.139007 0.422144 0.700459
O O11 0.093863 0.211858 0.882204
O O12 0.005771 0.364273 0.875364
O O13 0.341237 0.074506 0.054100
O O14 0.560946 0.048564 0.789019
#
# Coordination Sequence:
#
# PCOD9281615 Si02
#       8
#     4   8   8   8   8   8   8   4
#     4  11  21  36  58  92 130 158 204 252 296 362
#     4  11  22  36  61  89 121 161 207 249 299 359
#     4  11  21  38  64  85 121 161 204 249 307 364
#     4  10  21  38  63  90 120 161 201 252 303 360
#     4   9  19  35  59  87 121 164 196 243 306 355
#     4   8  19  38  62  84 120 162 194 246 311 349
#     4   9  20  37  60  86 122 157 197 256 298 351
#     4   9  17  36  62  80 124 156 194 244 304 358
#
# _framework density 25.091918
#
# number of rings (size 3 to 8) (size 9 to 14) (size 15 to 20)
#    0.857    1.429    0.000    3.000    2.000    0.571 
#    0.000    2.143   15.714    0.000    0.000    0.000 
#    0.000    0.000    0.000    0.000    0.000    0.000 
#
# Total GULP energy -155952.568938 kJ/mol
# GULP energy per Si atom -5569.734605 kJ/mol
# Density = 2.503481 g / cm^3
# Si number density = 25.091918 Si / 1000 Ang^3
#
#
#
# Elastic Constant Matrix: (Units=GPa)
#
#
# Indices 1 2 3 4 5 6 
#
# 1 61.3909 -0.4367 -0.0520 0.0000 1.8821 0.0000
# 2 -0.4367 125.3754 17.1999 0.0000 0.3059 0.0000
# 3 -0.0520 17.1999 44.0375 0.0000 3.2452 0.0000
# 4 0.0000 0.0000 0.0000 30.8464 0.0000 2.0429
# 5 1.8821 0.3059 3.2452 0.0000 21.6378 0.0000
# 6 0.0000 0.0000 0.0000 2.0429 0.0000 27.4046
#
#
#
# Elastic Compliance Matrix: (Units=1/GPa)
#
#
# Indices 1 2 3 4 5 6 
#
# 1 0.016334 0.000046 0.000107 0.000000 -0.001437 0.000000
# 2 0.000046 0.008431 -0.003320 0.000000 0.000375 0.000000
# 3 0.000107 -0.003320 0.024270 0.000000 -0.003602 0.000000
# 4 0.000000 0.000000 0.000000 0.032580 0.000000 -0.002429
# 5 -0.001437 0.000375 -0.003602 0.000000 0.046875 0.000000
# 6 0.000000 0.000000 0.000000 -0.002429 0.000000 0.036671
#
#
# Mechanical properties :
#
#
# Convention : Reuss Voigt Hill
#
# Bulk Modulus (GPa) = 23.41922 29.35847 26.38885
# Shear Modulus (GPa) = 26.92092 30.25059 28.58575
#
# Velocity S-wave (km/s) = 3.27906 3.47593 3.37893
# Velocity P-wave (km/s) = 4.86723 5.27591 5.07568
#
# Compressibility (1/GPa) = 0.04269997
#
# Stress axis : x y z
#
# Youngs Moduli (GPa) = 61.22373 118.61257 41.20248
#
# Poissons Ratio (x) = -0.00542 -0.00442
# Poissons Ratio (y) = -0.00280 0.13681
# Poissons Ratio (z) = -0.00657 0.39384
#
# Static dielectric constant tensor:
#      x y z
#    x 1.961150 0.000000 -0.042360 
#    y 0.000000 2.076820 0.000000 
#    z -0.042360 0.000000 2.098670 
# 
# From -- ./inp_files/176251.got.cif
#   From: 2010.05.17/outbox.cif.g08.bks.cpg/sg15_89_cif.got.tgz:176251.got - 2010.06.03 18:47:42.
