data_PCOD9281622
_publ_section_title
;
Structure prediction by ZEFSAII (Michael W. Deem and Ramdas Pophale) SiO2 
 PCOD9281622
Probable space group: C 2/C
;
_chemical_formula_sum "Si O2"
_cell_formula_units_Z 48
_cell_length_a 11.876872
_cell_length_b 19.853330
_cell_length_c 13.842511
_cell_angle_alpha 90.000000
_cell_angle_beta 135.993546
_cell_angle_gamma 90.000000
_cell_volume 2267.630245
_symmetry_space_group_name_H-M "C 2/C"
_symmetry_group_IT_number 15
_symmetry_cell_setting 'monoclinic'
loop_
_space_group_symop_operation_xyz
x,y,z
-x,y,1/2-z
-x,-y,-z
x,-y,1/2+z
1/2+x,1/2+y,z
1/2-x,1/2+y,1/2-z
1/2-x,1/2-y,-z
1/2+x,1/2-y,1/2+z
loop_
_atom_site_type_symbol
_atom_site_label
_atom_site_fract_x
_atom_site_fract_y
_atom_site_fract_z
Si Si1 0.019630 0.327636 0.486621
Si Si2 0.146021 0.316976 0.914416
Si Si3 0.760049 0.794271 0.334715
Si Si4 0.552720 0.607279 0.983299
Si Si5 0.856312 0.411316 0.098031
Si Si6 0.514532 0.468400 0.871570
O O1 0.935630 0.340708 0.536588
O O2 0.882404 0.293802 0.332527
O O3 0.172855 0.278169 0.594335
O O4 0.080778 0.393606 0.468925
O O5 0.276472 0.369034 0.952513
O O6 0.000000 0.303379 0.750000
O O7 0.250000 0.250000 0.000000
O O8 0.694275 0.840033 0.382510
O O9 0.920461 0.833359 0.396914
O O10 0.570796 0.581633 0.105220
O O11 0.476940 0.544912 0.876794
O O12 0.000000 0.440279 0.250000
O O13 0.703893 0.458589 0.009615
O O14 0.500000 0.453041 0.750000
#
# Coordination Sequence:
#
# PCOD9281622 Si02
#       6
#     8   8   8   8   8   8
#     4  11  22  36  62  92 124 164 196 245 315 361
#     4  12  26  40  62  91 129 163 202 256 305 374
#     4  10  21  38  63  90 128 160 198 254 297 378
#     4  10  24  43  62  94 124 159 213 250 307 362
#     4   9  21  40  61  92 126 159 202 252 307 359
#     4  10  23  42  71  86 119 166 210 259 296 363
#
# _framework density 21.167473000000001
#
# number of rings (size 3 to 8) (size 9 to 14) (size 15 to 20)
#    0.000    1.667    1.667    1.500    4.667    2.000 
#    0.000    1.667    0.000    0.000    0.000    0.000 
#    0.000    0.000    0.000    0.000    0.000    0.000 
#
# Total GULP energy -134154.110703 kJ/mol
# GULP energy per Si atom -5589.754613 kJ/mol
# Density = 2.111929 g / cm^3
# Si number density = 21.167473 Si / 1000 Ang^3
#
#
#
# Elastic Constant Matrix: (Units=GPa)
#
#
# Indices 1 2 3 4 5 6 
#
# 1 100.0122 -13.1335 22.5633 0.0000 -15.3773 0.0000
# 2 -13.1335 19.0388 -0.7811 0.0000 -3.4732 0.0000
# 3 22.5633 -0.7811 55.9834 0.0000 -0.7896 0.0000
# 4 0.0000 0.0000 0.0000 5.1895 0.0000 6.3104
# 5 -15.3773 -3.4732 -0.7896 0.0000 33.1498 0.0000
# 6 0.0000 0.0000 0.0000 6.3104 0.0000 17.6030
#
#
#
# Elastic Compliance Matrix: (Units=1/GPa)
#
#
# Indices 1 2 3 4 5 6 
#
# 1 0.013706 0.010578 -0.005273 0.000000 0.007341 0.000000
# 2 0.010578 0.061749 -0.003242 0.000000 0.011299 0.000000
# 3 -0.005273 -0.003242 0.019910 0.000000 -0.002311 0.000000
# 4 0.000000 0.000000 0.000000 0.341608 0.000000 -0.122461
# 5 0.007341 0.011299 -0.002311 0.000000 0.034700 0.000000
# 6 0.000000 0.000000 0.000000 -0.122461 0.000000 0.100709
#
#
# Mechanical properties :
#
#
# Convention : Reuss Voigt Hill
#
# Bulk Modulus (GPa) = 10.05122 21.37017 15.71070
# Shear Modulus (GPa) = 8.31366 22.28085 15.29725
#
# Velocity S-wave (km/s) = 1.98396 3.24790 2.69118
# Velocity P-wave (km/s) = 3.16336 4.91760 4.13459
#
# Compressibility (1/GPa) = 0.09949039
#
# Stress axis : x y z
#
# Youngs Moduli (GPa) = 72.96040 16.19447 50.22664
#
# Poissons Ratio (x) = -0.17130 0.26484
# Poissons Ratio (y) = -0.77175 0.16285
# Poissons Ratio (z) = 0.38471 0.05251
#
# Static dielectric constant tensor:
#      x y z
#    x 1.772370 0.000000 -0.024000 
#    y 0.000000 1.742170 0.000000 
#    z -0.024000 0.000000 1.748700 
# 
# From -- ./inp_files/31921.got.cif
#   From: 2010.05.17/outbox.cif.g08.bks.cpg/sg15_16_cif.got.tgz:31921.got - 2010.06.03 18:47:42.
