data_PCOD9281155
_publ_section_title
;
Structure prediction by ZEFSAII (Michael W. Deem and Ramdas Pophale) SiO2 
 PCOD9281155
Probable space group: C 2/C
;
_chemical_formula_sum "Si O2"
_cell_formula_units_Z 56
_cell_length_a 8.992434
_cell_length_b 31.160031
_cell_length_c 20.516399
_cell_angle_alpha 90.000000
_cell_angle_beta 30.525409
_cell_angle_gamma 90.000000
_cell_volume 2919.926705
_symmetry_space_group_name_H-M "C 2/C"
_symmetry_group_IT_number 15
_symmetry_cell_setting 'monoclinic'
loop_
_space_group_symop_operation_xyz
x,y,z
-x,y,1/2-z
-x,-y,-z
x,-y,1/2+z
1/2+x,1/2+y,z
1/2-x,1/2+y,1/2-z
1/2-x,1/2-y,-z
1/2+x,1/2-y,1/2+z
loop_
_atom_site_type_symbol
_atom_site_label
_atom_site_fract_x
_atom_site_fract_y
_atom_site_fract_z
Si Si1 0.840832 0.987416 0.379209
Si Si2 0.203835 0.148273 0.107956
Si Si3 0.656881 0.227165 0.380663
Si Si4 0.327403 0.612350 0.882731
Si Si5 0.649649 0.681244 0.512486
Si Si6 0.351067 0.472805 0.613286
Si Si7 0.651607 0.372827 0.886430
O O1 0.880252 0.937022 0.382712
O O2 0.000000 0.994083 0.250000
O O3 0.500000 0.000000 0.500000
O O4 0.997756 0.014826 0.375730
O O5 0.358167 0.195571 0.050883
O O6 0.000000 0.144029 0.250000
O O7 0.009523 0.141037 0.118317
O O8 0.476952 0.116219 0.005915
O O9 0.514476 0.273405 0.427470
O O10 0.490217 0.196708 0.390928
O O11 0.000000 0.234564 0.250000
O O12 0.500000 0.620000 0.750000
O O13 0.408250 0.648588 0.905707
O O14 0.566525 0.656254 0.479223
O O15 0.500000 0.500000 0.500000
O O16 0.406399 0.422757 0.579029
O O17 0.000000 0.479864 0.750000
O O18 0.000000 0.368236 0.750000
#
# Coordination Sequence:
#
# PCOD9281155 Si02
#       7
#     8   8   8   8   8   8   8
#     4  11  23  40  63  88 117 157 202 243 289 351
#     4  10  21  39  62  87 117 153 197 242 286 346
#     4   9  19  38  59  82 114 151 192 238 287 341
#     4  10  22  40  60  87 120 154 194 241 292 346
#     4  10  21  38  59  84 116 152 191 237 290 348
#     4  11  24  40  59  88 123 155 193 245 300 350
#     4  11  22  37  61  88 114 152 197 242 292 344
#
# _framework density 19.178564000000001
#
# number of rings (size 3 to 8) (size 9 to 14) (size 15 to 20)
#    0.000    1.714    0.000    5.143    0.000    7.429 
#    0.000   15.000    0.000    0.000    0.000    0.000 
#    0.000    0.000    0.000    0.000    0.000    0.000 
#
# Total GULP energy -156083.292023 kJ/mol
# GULP energy per Si atom -5574.403287 kJ/mol
# Density = 1.913491 g / cm^3
# Si number density = 19.178564 Si / 1000 Ang^3
#
#
#
# Elastic Constant Matrix: (Units=GPa)
#
#
# Indices 1 2 3 4 5 6 
#
# 1 134.6637 43.5368 43.0907 0.0001 -2.4077 0.0003
# 2 43.5368 95.1398 32.9983 0.0002 13.3474 0.0005
# 3 43.0907 32.9983 83.9678 0.0000 -0.9220 -0.0002
# 4 0.0001 0.0002 0.0000 25.5494 0.0000 4.2050
# 5 -2.4077 13.3474 -0.9220 0.0000 32.0381 0.0001
# 6 0.0003 0.0005 -0.0002 4.2050 0.0001 45.1261
#
#
#
# Elastic Compliance Matrix: (Units=1/GPa)
#
#
# Indices 1 2 3 4 5 6 
#
# 1 0.009749 -0.003505 -0.003603 0.000000 0.002089 0.000000
# 2 -0.003505 0.014366 -0.003917 0.000000 -0.006361 0.000000
# 3 -0.003603 -0.003917 0.015317 0.000000 0.001802 0.000000
# 4 0.000000 0.000000 0.000000 0.039749 0.000000 -0.003704
# 5 0.002089 -0.006361 0.001802 0.000000 0.034072 0.000000
# 6 0.000000 0.000000 0.000000 -0.003704 0.000000 0.022505
#
#
# Mechanical properties :
#
#
# Convention : Reuss Voigt Hill
#
# Bulk Modulus (GPa) = 57.52657 61.44699 59.48678
# Shear Modulus (GPa) = 30.56207 33.48577 32.02392
#
# Velocity S-wave (km/s) = 3.99626 4.18305 4.09072
# Velocity P-wave (km/s) = 7.16616 7.44577 7.30730
#
# Compressibility (1/GPa) = 0.01738327
#
# Stress axis : x y z
#
# Youngs Moduli (GPa) = 102.57224 69.61104 65.28592
#
# Poissons Ratio (x) = 0.24397 0.23521
# Poissons Ratio (y) = 0.35950 0.25571
# Poissons Ratio (z) = 0.36955 0.27265
#
# Static dielectric constant tensor:
#      x y z
#    x 1.653310 0.000000 -0.010480 
#    y 0.000000 1.686780 0.000000 
#    z -0.010480 0.000000 1.675130 
# 
# From -- ./inp_files/234916.got.cif
#   From: 2010.05.17/outbox.cif.g08.bks.cpg/sg15_118_cif.got.tgz:234916.got - 2010.06.03 18:47:42.
