data_PCOD9281320
_publ_section_title
;
Structure prediction by ZEFSAII (Michael W. Deem and Ramdas Pophale) SiO2 
 PCOD9281320
Probable space group: C 2/C
;
_chemical_formula_sum "Si O2"
_cell_formula_units_Z 64
_cell_length_a 5.814313
_cell_length_b 17.192666
_cell_length_c 23.472857
_cell_angle_alpha 90.000000
_cell_angle_beta 89.248617
_cell_angle_gamma 90.000000
_cell_volume 2346.228147
_symmetry_space_group_name_H-M "C 2/C"
_symmetry_group_IT_number 15
_symmetry_cell_setting 'monoclinic'
loop_
_space_group_symop_operation_xyz
x,y,z
-x,y,1/2-z
-x,-y,-z
x,-y,1/2+z
1/2+x,1/2+y,z
1/2-x,1/2+y,1/2-z
1/2-x,1/2-y,-z
1/2+x,1/2-y,1/2+z
loop_
_atom_site_type_symbol
_atom_site_label
_atom_site_fract_x
_atom_site_fract_y
_atom_site_fract_z
Si Si1 0.188205 0.035910 0.382780
Si Si2 0.931227 0.154377 0.606698
Si Si3 0.445093 0.198743 0.972562
Si Si4 0.254738 0.865024 0.722466
Si Si5 0.215975 0.781103 0.882157
Si Si6 0.190836 0.473286 0.878591
Si Si7 0.748207 0.564755 0.512937
Si Si8 0.860464 0.692646 0.798988
O O1 0.205187 0.128091 0.368663
O O2 0.432559 0.000872 0.362775
O O3 0.159478 0.034612 0.452423
O O4 0.950359 0.997025 0.362328
O O5 0.036869 0.241111 0.613908
O O6 0.101865 0.114615 0.560357
O O7 0.690148 0.150746 0.574910
O O8 0.839456 0.143492 0.671190
O O9 0.606062 0.262552 0.943481
O O10 0.570290 0.131505 0.005972
O O11 0.250000 0.250000 0.000000
O O12 0.500000 0.890816 0.750000
O O13 0.280252 0.892504 0.656278
O O14 0.246609 0.771936 0.726192
O O15 0.000000 0.890367 0.750000
O O16 0.056403 0.729443 0.840567
O O17 0.176127 0.493321 0.946369
O O18 0.000000 0.648346 0.750000
#
# Coordination Sequence:
#
# PCOD9281320 Si02
#       8
#     8   8   8   8   8   8   8   8
#     4  12  25  42  69 105 140 185 233 286 349 411
#     4  10  22  39  64  91 137 180 225 281 344 413
#     4  10  21  38  63  93 129 179 225 272 330 409
#     4  11  24  44  74 104 133 178 227 295 361 405
#     4  10  21  38  61 100 129 173 220 283 346 410
#     4  12  27  45  70 102 141 181 240 290 339 421
#     4  11  26  42  67  95 143 192 232 276 346 414
#     4  10  22  37  67 101 133 163 226 295 364 408
#
# _framework density 27.277825
#
# number of rings (size 3 to 8) (size 9 to 14) (size 15 to 20)
#    0.000    1.250    1.250    3.750   12.250    2.000 
#    0.000    0.000    8.250    0.000    0.000    0.000 
#    0.000    0.000    0.000    0.000    0.000    0.000 
#
# Total GULP energy -178206.169278 kJ/mol
# GULP energy per Si atom -5568.942790 kJ/mol
# Density = 2.721574 g / cm^3
# Si number density = 27.277825 Si / 1000 Ang^3
#
#
#
# Elastic Constant Matrix: (Units=GPa)
#
#
# Indices 1 2 3 4 5 6 
#
# 1 195.7866 54.1866 35.1044 0.0000 -20.3013 0.0000
# 2 54.1866 102.7079 45.2554 0.0000 -26.2030 0.0000
# 3 35.1044 45.2554 89.4459 0.0000 -29.7126 0.0000
# 4 0.0000 0.0000 0.0000 39.8585 0.0000 -15.9853
# 5 -20.3013 -26.2030 -29.7126 0.0000 58.8978 0.0000
# 6 0.0000 0.0000 0.0000 -15.9853 0.0000 35.7323
#
#
#
# Elastic Compliance Matrix: (Units=1/GPa)
#
#
# Indices 1 2 3 4 5 6 
#
# 1 0.006056 -0.002701 -0.000860 0.000000 0.000452 0.000000
# 2 -0.002701 0.014147 -0.005185 0.000000 0.002747 0.000000
# 3 -0.000860 -0.005185 0.015949 0.000000 0.005443 0.000000
# 4 0.000000 0.000000 0.000000 0.030574 0.000000 0.013678
# 5 0.000452 0.002747 0.005443 0.000000 0.021102 0.000000
# 6 0.000000 0.000000 0.000000 0.013678 0.000000 0.034105
#
#
# Mechanical properties :
#
#
# Convention : Reuss Voigt Hill
#
# Bulk Modulus (GPa) = 53.59166 73.00368 63.29767
# Shear Modulus (GPa) = 34.33004 43.79066 39.06035
#
# Velocity S-wave (km/s) = 3.55143 4.01104 3.78821
# Velocity P-wave (km/s) = 6.04203 6.94783 6.51070
#
# Compressibility (1/GPa) = 0.01865962
#
# Stress axis : x y z
#
# Youngs Moduli (GPa) = 165.12053 70.68782 62.70027
#
# Poissons Ratio (x) = 0.19091 0.05394
# Poissons Ratio (y) = 0.44595 0.32511
# Poissons Ratio (z) = 0.14204 0.36652
#
# Static dielectric constant tensor:
#      x y z
#    x 2.295970 0.000000 0.035480 
#    y 0.000000 2.176810 0.000000 
#    z 0.035480 0.000000 2.268950 
# 
# From -- ./inp_files/286393.got.cif
#   From: 2010.05.17/outbox.cif.g08.bks.cpg/sg15_144_cif.got.tgz:286393.got - 2010.06.03 18:47:42.
