data_PCOD9281461
_publ_section_title
;
Structure prediction by ZEFSAII (Michael W. Deem and Ramdas Pophale) SiO2 
 PCOD9281461
Probable space group: C 2/C
;
_chemical_formula_sum "Si O2"
_cell_formula_units_Z 48
_cell_length_a 16.681740
_cell_length_b 11.060441
_cell_length_c 13.437327
_cell_angle_alpha 90.000000
_cell_angle_beta 94.389955
_cell_angle_gamma 90.000000
_cell_volume 2472.012520
_symmetry_space_group_name_H-M "C 2/C"
_symmetry_group_IT_number 15
_symmetry_cell_setting 'monoclinic'
loop_
_space_group_symop_operation_xyz
x,y,z
-x,y,1/2-z
-x,-y,-z
x,-y,1/2+z
1/2+x,1/2+y,z
1/2-x,1/2+y,1/2-z
1/2-x,1/2-y,-z
1/2+x,1/2-y,1/2+z
loop_
_atom_site_type_symbol
_atom_site_label
_atom_site_fract_x
_atom_site_fract_y
_atom_site_fract_z
Si Si1 0.864435 0.192374 0.464259
Si Si2 0.914224 0.066478 0.995681
Si Si3 0.027636 0.250571 0.364588
Si Si4 0.818763 0.263211 0.873826
Si Si5 0.697384 0.822569 0.856385
Si Si6 0.827007 0.594858 0.571469
O O1 0.787861 0.224752 0.388938
O O2 0.857509 0.247049 0.573135
O O3 0.947532 0.236026 0.423297
O O4 0.857779 0.047516 0.475677
O O5 0.890272 0.170746 0.914716
O O6 0.915311 0.137328 0.099759
O O7 0.000000 0.000000 0.000000
O O8 0.082527 0.365753 0.391619
O O9 0.000000 0.245129 0.250000
O O10 0.823287 0.304575 0.760783
O O11 0.737751 0.185180 0.884104
O O12 0.818413 0.374069 0.952804
O O13 0.688287 0.960631 0.891583
#
# Coordination Sequence:
#
# PCOD9281461 Si02
#       6
#     8   8   8   8   8   8
#     4  10  22  39  57  96 125 159 220 267 309 385
#     4   9  19  39  61  88 124 156 215 268 306 377
#     4  10  21  38  62  86 124 171 208 259 327 376
#     4  10  21  40  64  90 126 173 213 260 332 377
#     4  11  23  39  65  92 129 167 211 271 321 383
#     4  10  22  41  61  93 126 167 217 264 311 402
#
# _framework density 19.417376000000001
#
# number of rings (size 3 to 8) (size 9 to 14) (size 15 to 20)
#    0.000    2.000    1.667    1.000    0.000    7.333 
#    0.000   10.000    0.000    0.000    0.000    0.000 
#    0.000    0.000    0.000    0.000    0.000    0.000 
#
# Total GULP energy -133746.444988 kJ/mol
# GULP energy per Si atom -5572.768541 kJ/mol
# Density = 1.937318 g / cm^3
# Si number density = 19.417376 Si / 1000 Ang^3
#
#
#
# Elastic Constant Matrix: (Units=GPa)
#
#
# Indices 1 2 3 4 5 6 
#
# 1 87.1809 24.4957 45.4221 0.0000 -3.0120 0.0000
# 2 24.4957 82.3853 63.7699 0.0000 -4.9681 0.0000
# 3 45.4221 63.7699 189.5116 0.0000 8.7368 0.0000
# 4 0.0000 0.0000 0.0000 11.7212 0.0000 -3.4693
# 5 -3.0120 -4.9681 8.7368 0.0000 18.6474 0.0000
# 6 0.0000 0.0000 0.0000 -3.4693 0.0000 24.6272
#
#
#
# Elastic Compliance Matrix: (Units=1/GPa)
#
#
# Indices 1 2 3 4 5 6 
#
# 1 0.013511 -0.001644 -0.002826 0.000000 0.003069 0.000000
# 2 -0.001644 0.017592 -0.005856 0.000000 0.007165 0.000000
# 3 -0.002826 -0.005856 0.008195 0.000000 -0.005856 0.000000
# 4 0.000000 0.000000 0.000000 0.089028 0.000000 0.012542
# 5 0.003069 0.007165 -0.005856 0.000000 0.058775 0.000000
# 6 0.000000 0.000000 0.000000 0.012542 0.000000 0.042372
#
#
# Mechanical properties :
#
#
# Convention : Reuss Voigt Hill
#
# Bulk Modulus (GPa) = 53.63612 69.60593 61.62103
# Shear Modulus (GPa) = 19.50531 26.02515 22.76523
#
# Velocity S-wave (km/s) = 3.17287 3.66499 3.42777
# Velocity P-wave (km/s) = 6.41136 7.33720 6.88985
#
# Compressibility (1/GPa) = 0.01864415
#
# Stress axis : x y z
#
# Youngs Moduli (GPa) = 74.01333 56.84507 122.03212
#
# Poissons Ratio (x) = 0.09348 0.34492
# Poissons Ratio (y) = 0.12171 0.71458
# Poissons Ratio (z) = 0.20920 0.33287
#
# Static dielectric constant tensor:
#      x y z
#    x 1.744890 0.000000 0.020340 
#    y 0.000000 1.713650 0.000000 
#    z 0.020340 0.000000 1.643450 
# 
# From -- ./inp_files/103748.got.cif
#   From: 2010.05.17/outbox.cif.g08.bks.cpg/sg15_52_cif.got.tgz:103748.got - 2010.06.03 18:47:42.
