data_PCOD9281996
_publ_section_title
;
Structure prediction by ZEFSAII (Michael W. Deem and Ramdas Pophale) SiO2 
 PCOD9281996
Probable space group: C 2/C
;
_chemical_formula_sum "Si O2"
_cell_formula_units_Z 56
_cell_length_a 9.779260
_cell_length_b 27.931051
_cell_length_c 12.969466
_cell_angle_alpha 90.000000
_cell_angle_beta 55.863125
_cell_angle_gamma 90.000000
_cell_volume 2932.162095
_symmetry_space_group_name_H-M "C 2/C"
_symmetry_group_IT_number 15
_symmetry_cell_setting 'monoclinic'
loop_
_space_group_symop_operation_xyz
x,y,z
-x,y,1/2-z
-x,-y,-z
x,-y,1/2+z
1/2+x,1/2+y,z
1/2-x,1/2+y,1/2-z
1/2-x,1/2-y,-z
1/2+x,1/2-y,1/2+z
loop_
_atom_site_type_symbol
_atom_site_label
_atom_site_fract_x
_atom_site_fract_y
_atom_site_fract_z
Si Si1 0.000000 0.442378 0.250000
Si Si2 0.178293 0.599433 0.215955
Si Si3 0.848077 0.507915 0.141238
Si Si4 0.304929 0.226182 0.865308
Si Si5 0.500000 0.463784 0.250000
Si Si6 0.759112 0.124898 0.534947
Si Si7 0.474519 0.556360 0.986720
Si Si8 0.306434 0.324283 0.803476
O O1 0.113697 0.475559 0.274064
O O2 0.107599 0.408139 0.132455
O O3 0.158950 0.562050 0.317436
O O4 0.272478 0.645657 0.216822
O O5 0.000000 0.612112 0.250000
O O6 0.286814 0.571206 0.086727
O O7 0.669191 0.494300 0.171150
O O8 0.000000 0.500000 0.000000
O O9 0.500000 0.220068 0.750000
O O10 0.231179 0.172890 0.898590
O O11 0.244849 0.269773 0.818770
O O12 0.250000 0.250000 0.000000
O O13 0.483984 0.435278 0.150327
O O14 0.734764 0.146608 0.431502
O O15 0.914491 0.089823 0.486598
O O16 0.500000 0.500000 0.000000
O O17 0.500000 0.321611 0.750000
#
# Coordination Sequence:
#
# PCOD9281996 Si02
#       8
#     4   8   8   8   4   8   8   8
#     4  12  22  40  56  89 121 160 202 254 304 374
#     4  12  24  41  62  90 127 165 211 264 316 381
#     4  12  26  39  58  85 122 165 211 252 312 375
#     4   9  19  37  62  99 126 159 212 275 323 372
#     4  12  26  40  60  83 127 166 206 264 306 380
#     4  11  21  38  65  94 127 161 208 265 315 375
#     4  12  25  41  61  92 129 169 212 255 320 384
#     4  10  21  38  67  93 119 160 210 260 317 370
#
# _framework density 19.098534000000001
#
# number of rings (size 3 to 8) (size 9 to 14) (size 15 to 20)
#    0.000    0.857    5.714    1.714    5.000    0.000 
#    0.000    0.000    1.571    0.857    0.000    0.000 
#    0.000    0.000    0.000    0.000    0.000    0.000 
#
# Total GULP energy -156168.803243 kJ/mol
# GULP energy per Si atom -5577.457259 kJ/mol
# Density = 1.905507 g / cm^3
# Si number density = 19.098534 Si / 1000 Ang^3
#
#
#
# Elastic Constant Matrix: (Units=GPa)
#
#
# Indices 1 2 3 4 5 6 
#
# 1 70.6678 21.6380 -1.3666 0.0000 -15.7386 0.0000
# 2 21.6380 133.0192 4.7059 0.0000 0.9900 0.0000
# 3 -1.3666 4.7059 73.8402 0.0000 -12.9810 0.0000
# 4 0.0000 0.0000 0.0000 -14.0636 0.0000 -8.5380
# 5 -15.7386 0.9900 -12.9810 0.0000 27.3711 0.0000
# 6 0.0000 0.0000 0.0000 -8.5380 0.0000 16.8629
#
#
#
# Elastic Compliance Matrix: (Units=1/GPa)
#
#
# Indices 1 2 3 4 5 6 
#
# 1 0.017694 -0.003054 0.002542 0.000000 0.011490 0.000000
# 2 -0.003054 0.008069 -0.001015 0.000000 -0.002529 0.000000
# 3 0.002542 -0.001015 0.015184 0.000000 0.008700 0.000000
# 4 0.000000 0.000000 0.000000 -0.054387 0.000000 -0.027537
# 5 0.011490 -0.002529 0.008700 0.000000 0.047359 0.000000
# 6 0.000000 0.000000 0.000000 -0.027537 0.000000 0.045359
#
#
# Mechanical properties :
#
#
# Convention : Reuss Voigt Hill
#
# Bulk Modulus (GPa) = 26.39017 36.38686 31.38852
# Shear Modulus (GPa) = 52.65206 22.87071 37.76139
#
# Velocity S-wave (km/s) = 5.25628 3.46426 4.45138
# Velocity P-wave (km/s) = 7.11940 5.92410 6.54908
#
# Compressibility (1/GPa) = 0.03789289
#
# Stress axis : x y z
#
# Youngs Moduli (GPa) = 56.51656 123.92802 65.85924
#
# Poissons Ratio (x) = 0.37844 -0.16742
# Poissons Ratio (y) = 0.17258 0.06688
# Poissons Ratio (z) = -0.14367 0.12584
#
# Static dielectric constant tensor:
#      x y z
#    x 1.573090 0.000000 -0.223930 
#    y 0.000000 1.669140 0.000000 
#    z -0.223930 0.000000 1.288620 
# 
# From -- ./inp_files/82530.got.cif
#   From: 2010.05.17/outbox.cif.g08.bks.cpg/sg15_42_cif.got.tgz:82530.got - 2010.06.03 18:47:42.
