data_PCOD9281593
_publ_section_title
;
Structure prediction by ZEFSAII (Michael W. Deem and Ramdas Pophale) SiO2 
 PCOD9281593
Probable space group: C 2/C
;
_chemical_formula_sum "Si O2"
_cell_formula_units_Z 36
_cell_length_a 4.920688
_cell_length_b 13.901069
_cell_length_c 22.990874
_cell_angle_alpha 90.000000
_cell_angle_beta 82.262421
_cell_angle_gamma 90.000000
_cell_volume 1558.321971
_symmetry_space_group_name_H-M "C 2/C"
_symmetry_group_IT_number 15
_symmetry_cell_setting 'monoclinic'
loop_
_space_group_symop_operation_xyz
x,y,z
-x,y,1/2-z
-x,-y,-z
x,-y,1/2+z
1/2+x,1/2+y,z
1/2-x,1/2+y,1/2-z
1/2-x,1/2-y,-z
1/2+x,1/2-y,1/2+z
loop_
_atom_site_type_symbol
_atom_site_label
_atom_site_fract_x
_atom_site_fract_y
_atom_site_fract_z
Si Si1 0.369292 0.262208 0.432649
Si Si2 0.838101 0.417914 0.201559
Si Si3 0.091046 0.838772 0.622029
Si Si4 0.000000 0.228298 0.250000
Si Si5 0.109969 0.953164 0.374617
O O1 0.250000 0.250000 0.500000
O O2 0.615961 0.188271 0.412494
O O3 0.489107 0.368172 0.417375
O O4 0.126248 0.238517 0.395109
O O5 0.550565 0.445532 0.182587
O O6 0.000000 0.470121 0.250000
O O7 0.805517 0.308333 0.225466
O O8 0.069368 0.433813 0.145026
O O9 0.110201 0.831463 0.692059
O O10 0.971156 0.940249 0.604098
#
# Coordination Sequence:
#
# PCOD9281593 Si02
#       5
#     8   8   8   4   8
#     4  12  25  48  71  95 137 180 229 288 330 391
#     4  10  21  38  63  87 136 171 206 265 328 397
#     4  12  27  42  69 104 129 180 224 274 344 407
#     4  10  22  40  68  96 136 172 222 266 342 420
#     4  12  23  44  63  98 135 170 226 273 338 392
#
# _framework density 23.101775
#
# number of rings (size 3 to 8) (size 9 to 14) (size 15 to 20)
#    0.667    0.000    4.444    2.667    3.111    4.444 
#    0.000    0.000    0.000    0.000    0.000    0.000 
#    0.000    0.000    0.000    0.000    0.000    0.000 
#
# Total GULP energy -100510.752234 kJ/mol
# GULP energy per Si atom -5583.930680 kJ/mol
# Density = 2.304919 g / cm^3
# Si number density = 23.101775 Si / 1000 Ang^3
#
#
#
# Elastic Constant Matrix: (Units=GPa)
#
#
# Indices 1 2 3 4 5 6 
#
# 1 100.5724 2.3287 30.8560 0.0000 -20.6018 0.0000
# 2 2.3287 101.0089 46.2501 0.0000 -11.6448 0.0000
# 3 30.8560 46.2501 132.0534 0.0000 -32.4220 0.0000
# 4 0.0000 0.0000 0.0000 1.0325 0.0000 -1.5948
# 5 -20.6018 -11.6448 -32.4220 0.0000 32.7398 0.0000
# 6 0.0000 0.0000 0.0000 -1.5948 0.0000 15.2711
#
#
#
# Elastic Compliance Matrix: (Units=1/GPa)
#
#
# Indices 1 2 3 4 5 6 
#
# 1 0.011677 0.001188 -0.001634 0.000000 0.006152 0.000000
# 2 0.001188 0.011912 -0.004262 0.000000 0.000764 0.000000
# 3 -0.001634 -0.004262 0.011657 0.000000 0.008999 0.000000
# 4 0.000000 0.000000 0.000000 1.154754 0.000000 0.120592
# 5 0.006152 0.000764 0.008999 0.000000 0.043599 0.000000
# 6 0.000000 0.000000 0.000000 0.120592 0.000000 0.078077
#
#
# Mechanical properties :
#
#
# Convention : Reuss Voigt Hill
#
# Bulk Modulus (GPa) = 38.71439 54.72270 46.71855
# Shear Modulus (GPa) = 3.76024 26.75533 15.25778
#
# Velocity S-wave (km/s) = 1.27719 3.40685 2.57273
# Velocity P-wave (km/s) = 4.35540 6.26216 5.39371
#
# Compressibility (1/GPa) = 0.02583019
#
# Stress axis : x y z
#
# Youngs Moduli (GPa) = 85.63679 83.94609 85.78584
#
# Poissons Ratio (x) = -0.09976 0.14019
# Poissons Ratio (y) = -0.10176 0.36565
# Poissons Ratio (z) = 0.13995 0.35780
#
# Static dielectric constant tensor:
#      x y z
#    x 1.830260 0.000000 0.021200 
#    y 0.000000 1.938910 0.000000 
#    z 0.021200 0.000000 1.919730 
# 
# From -- ./inp_files/260059.got.cif
#   From: 2010.05.17/outbox.cif.g08.bks.cpg/sg15_131_cif.got.tgz:260059.got - 2010.06.03 18:47:42.
