data_PCOD9281210
_publ_section_title
;
Structure prediction by ZEFSAII (Michael W. Deem and Ramdas Pophale) SiO2 
 PCOD9281210
Probable space group: C 2/C
;
_chemical_formula_sum "Si O2"
_cell_formula_units_Z 64
_cell_length_a 5.755402
_cell_length_b 24.090581
_cell_length_c 23.419335
_cell_angle_alpha 90.000000
_cell_angle_beta 114.980186
_cell_angle_gamma 90.000000
_cell_volume 2943.358823
_symmetry_space_group_name_H-M "C 2/C"
_symmetry_group_IT_number 15
_symmetry_cell_setting 'monoclinic'
loop_
_space_group_symop_operation_xyz
x,y,z
-x,y,1/2-z
-x,-y,-z
x,-y,1/2+z
1/2+x,1/2+y,z
1/2-x,1/2+y,1/2-z
1/2-x,1/2-y,-z
1/2+x,1/2-y,1/2+z
loop_
_atom_site_type_symbol
_atom_site_label
_atom_site_fract_x
_atom_site_fract_y
_atom_site_fract_z
Si Si1 0.420807 0.490519 0.589352
Si Si2 0.583193 0.040108 0.818709
Si Si3 0.428341 0.176443 0.002031
Si Si4 0.184930 0.309515 0.713087
Si Si5 0.744606 0.065139 0.184592
Si Si6 0.347492 0.127002 0.587342
Si Si7 0.326172 0.573031 0.488035
Si Si8 0.411481 0.265272 0.403764
O O1 0.613178 0.529576 0.645341
O O2 0.292665 0.450707 0.622950
O O3 0.249233 0.528242 0.528862
O O4 0.599437 0.456814 0.562949
O O5 0.500000 0.064136 0.750000
O O6 0.503107 0.082248 0.860050
O O7 0.449560 0.981002 0.812688
O O8 0.528393 0.144256 0.958253
O O9 0.344104 0.127694 0.036291
O O10 0.184230 0.209736 0.951892
O O11 0.629904 0.217633 0.052506
O O12 0.500000 0.302134 0.750000
O O13 0.154296 0.372303 0.686411
O O14 0.089524 0.265029 0.656695
O O15 0.000000 0.304724 0.750000
O O16 0.000000 0.059014 0.250000
O O17 0.283761 0.183657 0.614089
O O18 0.086130 0.097458 0.541659
#
# Coordination Sequence:
#
# PCOD9281210 Si02
#       8
#     8   8   8   8   8   8   8   8
#     4  10  21  38  59  92 133 168 214 274 333 422
#     4  11  22  39  62  90 130 167 221 271 343 406
#     4  10  21  41  66  95 126 170 228 282 350 410
#     4  11  28  47  71 102 139 183 235 290 347 417
#     4  11  23  39  63  91 128 173 221 272 335 411
#     4  10  22  40  63  95 127 168 222 279 339 415
#     4   9  21  37  60  95 130 166 216 275 343 406
#     4  10  24  43  66  94 130 175 226 291 343 412
#
# _framework density 21.743867000000002
#
# number of rings (size 3 to 8) (size 9 to 14) (size 15 to 20)
#    0.000    1.750    1.250    1.500    7.000    0.500 
#    0.000    3.750    0.000    0.000    0.000    0.000 
#    0.000    0.000    0.000    0.000    0.000    0.000 
#
# Total GULP energy -178654.779228 kJ/mol
# GULP energy per Si atom -5582.961851 kJ/mol
# Density = 2.169438 g / cm^3
# Si number density = 21.743867 Si / 1000 Ang^3
#
#
#
# Elastic Constant Matrix: (Units=GPa)
#
#
# Indices 1 2 3 4 5 6 
#
# 1 51.4431 15.8117 23.2444 0.0000 -7.6265 0.0000
# 2 15.8117 91.3374 34.0385 0.0000 1.6806 0.0000
# 3 23.2444 34.0385 98.0505 0.0000 -16.5063 0.0000
# 4 0.0000 0.0000 0.0000 4.3729 0.0000 -25.5196
# 5 -7.6265 1.6806 -16.5063 0.0000 30.4977 0.0000
# 6 0.0000 0.0000 0.0000 -25.5196 0.0000 23.6047
#
#
#
# Elastic Compliance Matrix: (Units=1/GPa)
#
#
# Indices 1 2 3 4 5 6 
#
# 1 0.022497 -0.002534 -0.003832 0.000000 0.003691 0.000000
# 2 -0.002534 0.013182 -0.004626 0.000000 -0.003864 0.000000
# 3 -0.003832 -0.004626 0.013857 0.000000 0.006797 0.000000
# 4 0.000000 0.000000 0.000000 -0.043072 0.000000 -0.046566
# 5 0.003691 -0.003864 0.006797 0.000000 0.037604 0.000000
# 6 0.000000 0.000000 0.000000 -0.046566 0.000000 -0.007979
#
#
# Mechanical properties :
#
#
# Convention : Reuss Voigt Hill
#
# Bulk Modulus (GPa) = 36.29529 43.00224 39.64877
# Shear Modulus (GPa) = 74.34147 22.87749 48.60948
#
# Velocity S-wave (km/s) = 5.85353 3.24718 4.73329
# Velocity P-wave (km/s) = 7.90023 5.82053 6.93874
#
# Compressibility (1/GPa) = 0.02755178
#
# Stress axis : x y z
#
# Youngs Moduli (GPa) = 44.45111 75.86016 72.16410
#
# Poissons Ratio (x) = 0.19226 0.27653
# Poissons Ratio (y) = 0.11265 0.33382
# Poissons Ratio (z) = 0.17033 0.35092
#
# Static dielectric constant tensor:
#      x y z
#    x 1.832410 0.000000 0.004750 
#    y 0.000000 1.838290 0.000000 
#    z 0.004750 0.000000 1.815020 
# 
# From -- ./inp_files/261828.got.cif
#   From: 2010.05.17/outbox.cif.g08.bks.cpg/sg15_131_cif.got.tgz:261828.got - 2010.06.03 18:47:42.
