data_PCOD9281334
_publ_section_title
;
Structure prediction by ZEFSAII (Michael W. Deem and Ramdas Pophale) SiO2 
 PCOD9281334
Probable space group: C 2/C
;
_chemical_formula_sum "Si O2"
_cell_formula_units_Z 48
_cell_length_a 17.377844
_cell_length_b 29.855301
_cell_length_c 9.280256
_cell_angle_alpha 90.000000
_cell_angle_beta 149.919076
_cell_angle_gamma 90.000000
_cell_volume 2413.281634
_symmetry_space_group_name_H-M "C 2/C"
_symmetry_group_IT_number 15
_symmetry_cell_setting 'monoclinic'
loop_
_space_group_symop_operation_xyz
x,y,z
-x,y,1/2-z
-x,-y,-z
x,-y,1/2+z
1/2+x,1/2+y,z
1/2-x,1/2+y,1/2-z
1/2-x,1/2-y,-z
1/2+x,1/2-y,1/2+z
loop_
_atom_site_type_symbol
_atom_site_label
_atom_site_fract_x
_atom_site_fract_y
_atom_site_fract_z
Si Si1 0.905969 0.467048 0.451766
Si Si2 0.662901 0.381291 0.592964
Si Si3 0.466662 0.216371 0.920596
Si Si4 0.250848 0.719529 0.208084
Si Si5 0.391616 0.476340 0.937723
Si Si6 0.504237 0.114127 0.934103
O O1 0.751498 0.492575 0.249710
O O2 0.000000 0.500000 0.500000
O O3 0.901543 0.422309 0.348374
O O4 0.000000 0.457992 0.750000
O O5 0.697349 0.332404 0.714312
O O6 0.655086 0.425561 0.680510
O O7 0.813111 0.392140 0.738172
O O8 0.500000 0.376741 0.250000
O O9 0.390226 0.246244 0.919110
O O10 0.364558 0.226684 0.613010
O O11 0.643598 0.226848 0.172776
O O12 0.458593 0.162853 0.917787
O O13 0.500000 0.470179 0.250000
O O14 0.500000 0.500000 0.000000
O O15 0.500000 0.112730 0.750000
#
# Coordination Sequence:
#
# PCOD9281334 Si02
#       6
#     8   8   8   8   8   8
#     4  12  25  41  66  93 121 165 212 255 305 371
#     4  10  21  38  61  85 125 163 198 250 324 363
#     4   9  17  34  60  88 116 156 205 256 298 362
#     4   9  17  34  58  85 116 155 205 247 306 363
#     4  11  25  41  61  89 127 160 203 254 309 368
#     4  11  21  41  67  91 123 170 211 252 306 375
#
# _framework density 19.88993
#
# number of rings (size 3 to 8) (size 9 to 14) (size 15 to 20)
#    0.000    1.667    5.000    1.500    4.667    0.000 
#    3.000    4.167    0.000    0.000    0.000    0.000 
#    0.000    0.000    0.000    0.000    0.000    0.000 
#
# Total GULP energy -133748.636829 kJ/mol
# GULP energy per Si atom -5572.859868 kJ/mol
# Density = 1.984466 g / cm^3
# Si number density = 19.889930 Si / 1000 Ang^3
#
#
#
# Elastic Constant Matrix: (Units=GPa)
#
#
# Indices 1 2 3 4 5 6 
#
# 1 124.8038 104.3302 34.0836 0.0000 30.6897 0.0000
# 2 104.3302 161.3558 25.8421 0.0000 27.9587 0.0000
# 3 34.0836 25.8421 79.8003 0.0000 14.9100 0.0000
# 4 0.0000 0.0000 0.0000 23.3783 0.0000 13.0266
# 5 30.6897 27.9587 14.9100 0.0000 36.9490 0.0000
# 6 0.0000 0.0000 0.0000 13.0266 0.0000 37.8445
#
#
#
# Elastic Compliance Matrix: (Units=1/GPa)
#
#
# Indices 1 2 3 4 5 6 
#
# 1 0.020019 -0.011199 -0.003677 0.000000 -0.006669 0.000000
# 2 -0.011199 0.013547 0.000620 0.000000 -0.001199 0.000000
# 3 -0.003677 0.000620 0.014512 0.000000 -0.003271 0.000000
# 4 0.000000 0.000000 0.000000 0.052926 0.000000 -0.018218
# 5 -0.006669 -0.001199 -0.003271 0.000000 0.034831 0.000000
# 6 0.000000 0.000000 0.000000 -0.018218 0.000000 0.032695
#
#
# Mechanical properties :
#
#
# Convention : Reuss Voigt Hill
#
# Bulk Modulus (GPa) = 51.11031 77.16350 64.13690
# Shear Modulus (GPa) = 24.56211 33.08130 28.82170
#
# Velocity S-wave (km/s) = 3.51793 4.08268 3.81078
# Velocity P-wave (km/s) = 6.50027 7.81690 7.18879
#
# Compressibility (1/GPa) = 0.01956552
#
# Stress axis : x y z
#
# Youngs Moduli (GPa) = 49.95206 73.81532 68.90734
#
# Poissons Ratio (x) = 0.82669 0.25341
# Poissons Ratio (y) = 0.55944 -0.04275
# Poissons Ratio (z) = 0.18370 -0.04579
#
# Static dielectric constant tensor:
#      x y z
#    x 1.716800 0.000000 0.005660 
#    y 0.000000 1.718340 0.000000 
#    z 0.005660 0.000000 1.755850 
# 
# From -- ./inp_files/52894.got.cif
#   From: 2010.05.17/outbox.cif.g08.bks.cpg/sg15_27_cif.got.tgz:52894.got - 2010.06.03 18:47:42.
