data_PCOD9281586
_publ_section_title
;
Structure prediction by ZEFSAII (Michael W. Deem and Ramdas Pophale) SiO2 
 PCOD9281586
Probable space group: C 2/C
;
_chemical_formula_sum "Si O2"
_cell_formula_units_Z 40
_cell_length_a 27.575686
_cell_length_b 13.500377
_cell_length_c 11.989132
_cell_angle_alpha 90.000000
_cell_angle_beta 29.344187
_cell_angle_gamma 90.000000
_cell_volume 2187.281392
_symmetry_space_group_name_H-M "C 2/C"
_symmetry_group_IT_number 15
_symmetry_cell_setting 'monoclinic'
loop_
_space_group_symop_operation_xyz
x,y,z
-x,y,1/2-z
-x,-y,-z
x,-y,1/2+z
1/2+x,1/2+y,z
1/2-x,1/2+y,1/2-z
1/2-x,1/2-y,-z
1/2+x,1/2-y,1/2+z
loop_
_atom_site_type_symbol
_atom_site_label
_atom_site_fract_x
_atom_site_fract_y
_atom_site_fract_z
Si Si1 0.948423 0.605430 0.630180
Si Si2 0.354146 0.168574 0.182737
Si Si3 0.740924 0.133428 0.884957
Si Si4 0.753139 0.413172 0.668711
Si Si5 0.399947 0.763941 0.011592
O O1 0.931460 0.670440 0.553940
O O2 0.000000 0.500000 0.500000
O O3 0.028723 0.656836 0.548825
O O4 0.843781 0.596372 0.900718
O O5 0.312295 0.136944 0.387825
O O6 0.323052 0.281467 0.224115
O O7 0.300572 0.104246 0.195579
O O8 0.661436 0.167198 0.951379
O O9 0.782462 0.025600 0.773867
O O10 0.670207 0.329060 0.817871
O O11 0.500000 0.729257 0.750000
#
# Coordination Sequence:
#
# PCOD9281586 Si02
#       5
#     8   8   8   8   8
#     4  12  21  38  63  91 118 151 199 251 293 348
#     4  10  21  38  63  84 122 152 197 238 296 351
#     4  10  21  40  61  86 118 160 194 238 298 354
#     4  11  23  38  61  91 117 154 201 245 293 352
#     4  11  22  40  61  87 122 156 197 244 298 353
#
# _framework density 18.287541999999998
#
# number of rings (size 3 to 8) (size 9 to 14) (size 15 to 20)
#    0.000    1.200    4.000    2.400    0.000    0.000 
#    0.000    5.000    0.000    0.000    0.000    0.000 
#    0.000    0.000    0.000    0.000    0.000    0.000 
#
# Total GULP energy -111704.604139 kJ/mol
# GULP energy per Si atom -5585.230207 kJ/mol
# Density = 1.824592 g / cm^3
# Si number density = 18.287542 Si / 1000 Ang^3
#
#
#
# Elastic Constant Matrix: (Units=GPa)
#
#
# Indices 1 2 3 4 5 6 
#
# 1 96.9347 70.4761 21.5571 0.0000 -6.5054 0.0000
# 2 70.4761 152.2738 58.8799 0.0000 -1.1707 0.0000
# 3 21.5571 58.8799 85.8851 0.0000 -9.1767 0.0000
# 4 0.0000 0.0000 0.0000 25.7896 0.0000 0.4631
# 5 -6.5054 -1.1707 -9.1767 0.0000 27.9940 0.0000
# 6 0.0000 0.0000 0.0000 0.4631 0.0000 15.7311
#
#
#
# Elastic Compliance Matrix: (Units=1/GPa)
#
#
# Indices 1 2 3 4 5 6 
#
# 1 0.016103 -0.008200 0.002014 0.000000 0.004059 0.000000
# 2 -0.008200 0.013190 -0.007388 0.000000 -0.003776 0.000000
# 3 0.002014 -0.007388 0.016809 0.000000 0.005669 0.000000
# 4 0.000000 0.000000 0.000000 0.038796 0.000000 -0.001142
# 5 0.004059 -0.003776 0.005669 0.000000 0.038366 0.000000
# 6 0.000000 0.000000 0.000000 -0.001142 0.000000 0.063602
#
#
# Mechanical properties :
#
#
# Convention : Reuss Voigt Hill
#
# Bulk Modulus (GPa) = 52.76280 70.76888 61.76584
# Shear Modulus (GPa) = 22.69311 26.18162 24.43737
#
# Velocity S-wave (km/s) = 3.52647 3.78784 3.65949
# Velocity P-wave (km/s) = 6.74505 7.61000 7.19055
#
# Compressibility (1/GPa) = 0.01895275
#
# Stress axis : x y z
#
# Youngs Moduli (GPa) = 62.10119 75.81503 59.49346
#
# Poissons Ratio (x) = 0.62170 -0.11980
# Poissons Ratio (y) = 0.50924 0.43953
# Poissons Ratio (z) = -0.12505 0.56011
#
# Static dielectric constant tensor:
#      x y z
#    x 1.626110 0.000000 0.009270 
#    y 0.000000 1.628390 0.000000 
#    z 0.009270 0.000000 1.623550 
# 
# From -- ./inp_files/85611.got.cif
#   From: 2010.05.17/outbox.cif.g08.bks.cpg/sg15_43_cif.got.tgz:85611.got - 2010.06.03 18:47:42.
