data_PCOD9281925
_publ_section_title
;
Structure prediction by ZEFSAII (Michael W. Deem and Ramdas Pophale) SiO2 
 PCOD9281925
Probable space group: C 2/C
;
_chemical_formula_sum "Si O2"
_cell_formula_units_Z 52
_cell_length_a 16.186465
_cell_length_b 10.381291
_cell_length_c 19.131248
_cell_angle_alpha 90.000000
_cell_angle_beta 136.428889
_cell_angle_gamma 90.000000
_cell_volume 2215.777651
_symmetry_space_group_name_H-M "C 2/C"
_symmetry_group_IT_number 15
_symmetry_cell_setting 'monoclinic'
loop_
_space_group_symop_operation_xyz
x,y,z
-x,y,1/2-z
-x,-y,-z
x,-y,1/2+z
1/2+x,1/2+y,z
1/2-x,1/2+y,1/2-z
1/2-x,1/2-y,-z
1/2+x,1/2-y,1/2+z
loop_
_atom_site_type_symbol
_atom_site_label
_atom_site_fract_x
_atom_site_fract_y
_atom_site_fract_z
Si Si1 0.525694 0.406178 0.079449
Si Si2 0.779442 0.894540 0.990295
Si Si3 0.074173 0.370597 0.614992
Si Si4 0.634089 0.761044 0.798641
Si Si5 0.807358 0.010221 0.201526
Si Si6 0.500000 0.695245 0.250000
Si Si7 0.440536 0.060081 0.636956
O O1 0.514996 0.257035 0.044394
O O2 0.640873 0.464244 0.191197
O O3 0.500000 0.500000 0.000000
O O4 0.419116 0.417453 0.071516
O O5 0.724999 0.869047 0.880016
O O6 0.694898 0.012471 0.959144
O O7 0.750000 0.750000 0.000000
O O8 0.122914 0.290928 0.710945
O O9 0.176841 0.430803 0.631148
O O10 0.006625 0.487423 0.613433
O O11 0.500000 0.758709 0.750000
O O12 0.689378 0.619594 0.842147
O O13 0.895115 0.110436 0.218359
O O14 0.546193 0.788462 0.341450
O O15 0.500000 0.016795 0.750000
#
# Coordination Sequence:
#
# PCOD9281925 Si02
#       7
#     8   8   8   8   8   4   8
#     4  11  26  40  65  98 132 162 212 273 336 362
#     4  12  20  38  65  94 125 163 207 272 312 372
#     4  11  21  41  64  92 120 171 219 257 307 389
#     4  11  19  39  65  91 122 166 223 252 301 385
#     4  11  25  41  65  92 131 169 218 260 317 393
#     4  10  24  40  66  88 124 168 222 250 312 376
#     4  10  21  38  66  92 121 169 220 250 314 385
#
# _framework density 23.468060000000001
#
# number of rings (size 3 to 8) (size 9 to 14) (size 15 to 20)
#    0.462    0.615    5.385    1.846    6.462    0.000 
#    0.000    3.077    0.000    0.000    0.000    0.000 
#    0.000    0.000    0.000    0.000    0.000    0.000 
#
# Total GULP energy -144863.350994 kJ/mol
# GULP energy per Si atom -5571.667346 kJ/mol
# Density = 2.341465 g / cm^3
# Si number density = 23.468060 Si / 1000 Ang^3
#
#
#
# Elastic Constant Matrix: (Units=GPa)
#
#
# Indices 1 2 3 4 5 6 
#
# 1 110.6422 51.5685 -7.9806 0.0000 18.6147 0.0000
# 2 51.5685 131.3779 0.0047 0.0000 3.9428 0.0000
# 3 -7.9806 0.0047 35.9792 0.0000 1.1048 0.0000
# 4 0.0000 0.0000 0.0000 43.0394 0.0000 -0.4551
# 5 18.6147 3.9428 1.1048 0.0000 30.9081 0.0000
# 6 0.0000 0.0000 0.0000 -0.4551 0.0000 33.1551
#
#
#
# Elastic Compliance Matrix: (Units=1/GPa)
#
#
# Indices 1 2 3 4 5 6 
#
# 1 0.012677 -0.004762 0.003032 0.000000 -0.007136 0.000000
# 2 -0.004762 0.009430 -0.001110 0.000000 0.001705 0.000000
# 3 0.003032 -0.001110 0.028549 0.000000 -0.002705 0.000000
# 4 0.000000 0.000000 0.000000 0.023238 0.000000 0.000319
# 5 -0.007136 0.001705 -0.002705 0.000000 0.036531 0.000000
# 6 0.000000 0.000000 0.000000 0.000319 0.000000 0.030166
#
#
# Mechanical properties :
#
#
# Convention : Reuss Voigt Hill
#
# Bulk Modulus (GPa) = 22.23425 40.57607 31.40516
# Shear Modulus (GPa) = 31.00541 37.04762 34.02652
#
# Velocity S-wave (km/s) = 3.63874 3.97752 3.81190
# Velocity P-wave (km/s) = 5.21044 6.19852 5.72584
#
# Compressibility (1/GPa) = 0.04497566
#
# Stress axis : x y z
#
# Youngs Moduli (GPa) = 78.88461 106.04863 35.02694
#
# Poissons Ratio (x) = 0.50499 -0.10619
# Poissons Ratio (y) = 0.37564 0.03887
# Poissons Ratio (z) = -0.23914 0.11769
#
# Static dielectric constant tensor:
#      x y z
#    x 1.904720 0.000000 -0.079590 
#    y 0.000000 2.012170 0.000000 
#    z -0.079590 0.000000 2.246840 
# 
# From -- ./inp_files/243822.got.cif
#   From: 2010.05.17/outbox.cif.g08.bks.cpg/sg15_122_cif.got.tgz:243822.got - 2010.06.03 18:47:42.
