data_PCOD9281303
_publ_section_title
;
Structure prediction by ZEFSAII (Michael W. Deem and Ramdas Pophale) SiO2 
 PCOD9281303
Probable space group: C 2/C
;
_chemical_formula_sum "Si O2"
_cell_formula_units_Z 48
_cell_length_a 19.011662
_cell_length_b 18.748255
_cell_length_c 8.099250
_cell_angle_alpha 90.000000
_cell_angle_beta 124.650513
_cell_angle_gamma 90.000000
_cell_volume 2374.833408
_symmetry_space_group_name_H-M "C 2/C"
_symmetry_group_IT_number 15
_symmetry_cell_setting 'monoclinic'
loop_
_space_group_symop_operation_xyz
x,y,z
-x,y,1/2-z
-x,-y,-z
x,-y,1/2+z
1/2+x,1/2+y,z
1/2-x,1/2+y,1/2-z
1/2-x,1/2-y,-z
1/2+x,1/2-y,1/2+z
loop_
_atom_site_type_symbol
_atom_site_label
_atom_site_fract_x
_atom_site_fract_y
_atom_site_fract_z
Si Si1 0.284158 0.404196 0.153463
Si Si2 0.711381 0.969043 0.749806
Si Si3 0.169360 0.279611 0.993736
Si Si4 0.593356 0.074065 0.810190
Si Si5 0.099804 0.739251 0.741197
Si Si6 0.587980 0.717202 0.584167
O O1 0.273417 0.476253 0.239379
O O2 0.366098 0.356737 0.305859
O O3 0.271710 0.422816 0.946730
O O4 0.197845 0.359235 0.074046
O O5 0.657369 0.921820 0.551332
O O6 0.641265 0.016290 0.758006
O O7 0.097802 0.268073 0.758768
O O8 0.250000 0.250000 0.000000
O O9 0.154466 0.244336 0.151059
O O10 0.500000 0.049992 0.750000
O O11 0.582444 0.153728 0.722706
O O12 0.011585 0.781058 0.590675
O O13 0.131248 0.758675 0.967714
#
# Coordination Sequence:
#
# PCOD9281303 Si02
#       6
#     8   8   8   8   8   8
#     4  10  21  39  58  88 119 160 209 250 305 366
#     4  10  22  38  58  86 126 164 205 251 302 378
#     4  10  21  38  60  93 121 160 205 259 312 366
#     4  11  20  37  58  91 125 166 201 251 318 380
#     4  11  21  39  63  90 127 160 204 261 317 371
#     4  10  22  39  62  90 124 161 205 259 313 365
#
# _framework density 20.211943999999999
#
# number of rings (size 3 to 8) (size 9 to 14) (size 15 to 20)
#    0.000    1.667    3.333    2.000    0.000    2.667 
#   12.000    0.000    0.000    4.000    0.000    0.000 
#    0.000    0.000    0.000    0.000    0.000    0.000 
#
# Total GULP energy -133691.213664 kJ/mol
# GULP energy per Si atom -5570.467236 kJ/mol
# Density = 2.016594 g / cm^3
# Si number density = 20.211944 Si / 1000 Ang^3
#
#
#
# Elastic Constant Matrix: (Units=GPa)
#
#
# Indices 1 2 3 4 5 6 
#
# 1 79.5492 18.6002 40.3599 0.0000 -21.2819 0.0000
# 2 18.6002 55.7954 38.4220 0.0000 11.7050 0.0000
# 3 40.3599 38.4220 99.8446 0.0000 -2.1693 0.0000
# 4 0.0000 0.0000 0.0000 75.6805 0.0000 56.5930
# 5 -21.2819 11.7050 -2.1693 0.0000 29.4537 0.0000
# 6 0.0000 0.0000 0.0000 56.5930 0.0000 129.2210
#
#
#
# Elastic Compliance Matrix: (Units=1/GPa)
#
#
# Indices 1 2 3 4 5 6 
#
# 1 0.022128 -0.007303 -0.005733 0.000000 0.018469 0.000000
# 2 -0.007303 0.030451 -0.009158 0.000000 -0.018053 0.000000
# 3 -0.005733 -0.009158 0.015872 0.000000 0.000666 0.000000
# 4 0.000000 0.000000 0.000000 0.019648 0.000000 -0.008605
# 5 0.018469 -0.018053 0.000666 0.000000 0.054520 0.000000
# 6 0.000000 0.000000 0.000000 -0.008605 0.000000 0.011507
#
#
# Mechanical properties :
#
#
# Convention : Reuss Voigt Hill
#
# Bulk Modulus (GPa) = 41.55953 47.77260 44.66607
# Shear Modulus (GPa) = 24.20882 56.05816 40.13349
#
# Velocity S-wave (km/s) = 3.46460 5.27213 4.46088
# Velocity P-wave (km/s) = 6.05071 7.79408 6.97706
#
# Compressibility (1/GPa) = 0.02406187
#
# Stress axis : x y z
#
# Youngs Moduli (GPa) = 45.19099 32.83959 63.00508
#
# Poissons Ratio (x) = 0.23984 0.36122
# Poissons Ratio (y) = 0.33005 0.57701
# Poissons Ratio (z) = 0.25909 0.30075
#
# Static dielectric constant tensor:
#      x y z
#    x 1.817870 0.000000 -0.067190 
#    y 0.000000 1.748130 0.000000 
#    z -0.067190 0.000000 1.810300 
# 
# From -- ./inp_files/56780.got.cif
#   From: 2010.05.17/outbox.cif.g08.bks.cpg/sg15_29_cif.got.tgz:56780.got - 2010.06.03 18:47:42.
