data_PCOD9281118
_publ_section_title
;
Structure prediction by ZEFSAII (Michael W. Deem and Ramdas Pophale) SiO2 
 PCOD9281118
Probable space group: C 2/C
;
_chemical_formula_sum "Si O2"
_cell_formula_units_Z 64
_cell_length_a 29.883699
_cell_length_b 16.722804
_cell_length_c 8.854095
_cell_angle_alpha 90.000000
_cell_angle_beta 36.873763
_cell_angle_gamma 90.000000
_cell_volume 2655.082029
_symmetry_space_group_name_H-M "C 2/C"
_symmetry_group_IT_number 15
_symmetry_cell_setting 'monoclinic'
loop_
_space_group_symop_operation_xyz
x,y,z
-x,y,1/2-z
-x,-y,-z
x,-y,1/2+z
1/2+x,1/2+y,z
1/2-x,1/2+y,1/2-z
1/2-x,1/2-y,-z
1/2+x,1/2-y,1/2+z
loop_
_atom_site_type_symbol
_atom_site_label
_atom_site_fract_x
_atom_site_fract_y
_atom_site_fract_z
Si Si1 0.459842 0.128871 0.703849
Si Si2 0.952573 0.757344 0.237208
Si Si3 0.372206 0.995120 0.249300
Si Si4 0.323178 0.386413 0.950278
Si Si5 0.824917 0.161769 0.911171
Si Si6 0.645851 0.110946 0.973078
Si Si7 0.697324 0.493149 0.222712
Si Si8 0.823279 0.734844 0.108024
O O1 0.500000 0.103489 0.750000
O O2 0.500724 0.202573 0.507524
O O3 0.435654 0.059074 0.654792
O O4 0.380068 0.163760 0.966707
O O5 0.903295 0.822545 0.281283
O O6 0.896364 0.690413 0.458025
O O7 0.000000 0.788713 0.250000
O O8 0.378284 0.085209 0.293688
O O9 0.283192 0.983077 0.528964
O O10 0.375043 0.966000 0.070346
O O11 0.233680 0.377925 0.216793
O O12 0.343133 0.448692 0.030422
O O13 0.349861 0.297559 0.909397
O O14 0.338961 0.427767 0.749242
O O15 0.803659 0.073532 0.909035
O O16 0.824481 0.214873 0.759679
O O17 0.758672 0.198291 0.191198
#
# Coordination Sequence:
#
# PCOD9281118 Si02
#       8
#     8   8   8   8   8   8   8   8
#     4  12  26  40  62  95 133 174 220 260 325 401
#     4  12  24  44  59  92 136 174 213 266 333 386
#     4  10  23  38  59  90 129 173 211 265 316 391
#     4   9  18  38  60  92 122 157 208 274 320 371
#     4  10  21  40  69  90 124 176 223 262 325 388
#     4  10  21  38  58  87 126 171 211 259 321 386
#     4   9  20  36  63  92 120 158 214 272 316 372
#     4  10  21  38  66  94 120 171 223 272 312 386
#
# _framework density 24.104714999999999
#
# number of rings (size 3 to 8) (size 9 to 14) (size 15 to 20)
#    0.000    1.750    3.750    0.000    8.750    1.000 
#    2.250    3.125    0.000    1.500    0.000    0.000 
#    0.000    0.000    0.000    0.000    0.000    0.000 
#
# Total GULP energy -178821.997508 kJ/mol
# GULP energy per Si atom -5588.187422 kJ/mol
# Density = 2.404985 g / cm^3
# Si number density = 24.104715 Si / 1000 Ang^3
#
#
#
# Elastic Constant Matrix: (Units=GPa)
#
#
# Indices 1 2 3 4 5 6 
#
# 1 126.9555 39.5491 -0.3863 0.0000 -13.1340 0.0000
# 2 39.5491 66.5391 6.0304 0.0000 -6.3458 0.0000
# 3 -0.3863 6.0304 29.2769 0.0000 -0.9513 0.0000
# 4 0.0000 0.0000 0.0000 31.7618 0.0000 2.3196
# 5 -13.1340 -6.3458 -0.9513 0.0000 20.3028 0.0000
# 6 0.0000 0.0000 0.0000 2.3196 0.0000 53.8139
#
#
#
# Elastic Compliance Matrix: (Units=1/GPa)
#
#
# Indices 1 2 3 4 5 6 
#
# 1 0.010163 -0.005710 0.001468 0.000000 0.004858 0.000000
# 2 -0.005710 0.018973 -0.003917 0.000000 0.002053 0.000000
# 3 0.001468 -0.003917 0.035027 0.000000 0.001367 0.000000
# 4 0.000000 0.000000 0.000000 0.031584 0.000000 -0.001361
# 5 0.004858 0.002053 0.001367 0.000000 0.053103 0.000000
# 6 0.000000 0.000000 0.000000 -0.001361 0.000000 0.018641
#
#
# Mechanical properties :
#
#
# Convention : Reuss Voigt Hill
#
# Bulk Modulus (GPa) = 20.90050 34.79532 27.84791
# Shear Modulus (GPa) = 25.03037 33.01424 29.02230
#
# Velocity S-wave (km/s) = 3.22592 3.70485 3.47365
# Velocity P-wave (km/s) = 4.75026 5.72430 5.25987
#
# Compressibility (1/GPa) = 0.04784575
#
# Stress axis : x y z
#
# Youngs Moduli (GPa) = 98.39931 52.70519 28.54926
#
# Poissons Ratio (x) = 0.30095 -0.04191
# Poissons Ratio (y) = 0.56187 0.11182
# Poissons Ratio (z) = -0.14446 0.20643
#
# Static dielectric constant tensor:
#      x y z
#    x 1.965570 0.000000 0.004540 
#    y 0.000000 1.924380 0.000000 
#    z 0.004540 0.000000 1.932220 
# 
# From -- ./inp_files/70577.got.cif
#   From: 2010.05.17/outbox.cif.g08.bks.cpg/sg15_36_cif.got.tgz:70577.got - 2010.06.03 18:47:42.
