data_PCOD9281241
_publ_section_title
;
Structure prediction by ZEFSAII (Michael W. Deem and Ramdas Pophale) SiO2 
 PCOD9281241
Probable space group: C 2/C
;
_chemical_formula_sum "Si O2"
_cell_formula_units_Z 64
_cell_length_a 14.088939
_cell_length_b 26.361093
_cell_length_c 9.265923
_cell_angle_alpha 90.000000
_cell_angle_beta 70.042165
_cell_angle_gamma 90.000000
_cell_volume 3234.688012
_symmetry_space_group_name_H-M "C 2/C"
_symmetry_group_IT_number 15
_symmetry_cell_setting 'monoclinic'
loop_
_space_group_symop_operation_xyz
x,y,z
-x,y,1/2-z
-x,-y,-z
x,-y,1/2+z
1/2+x,1/2+y,z
1/2-x,1/2+y,1/2-z
1/2-x,1/2-y,-z
1/2+x,1/2-y,1/2+z
loop_
_atom_site_type_symbol
_atom_site_label
_atom_site_fract_x
_atom_site_fract_y
_atom_site_fract_z
Si Si1 0.041409 0.719482 0.888810
Si Si2 0.895499 0.131794 0.723115
Si Si3 0.710902 0.948504 0.976939
Si Si4 0.710271 0.056192 0.825873
Si Si5 0.084424 0.753004 0.309921
Si Si6 0.001015 0.394247 0.073915
Si Si7 0.717903 0.273169 0.671729
Si Si8 0.106920 0.126777 0.123912
O O1 0.156896 0.733822 0.803872
O O2 0.000000 0.720449 0.750000
O O3 0.014441 0.664193 0.963007
O O4 0.980330 0.760535 0.010987
O O5 0.799882 0.096475 0.812625
O O6 0.880656 0.191864 0.763611
O O7 0.903542 0.128852 0.544592
O O8 0.000000 0.116991 0.750000
O O9 0.806663 0.914185 0.888407
O O10 0.723669 0.003275 0.899843
O O11 0.708852 0.951653 0.152815
O O12 0.606701 0.920971 0.980948
O O13 0.599182 0.076807 0.923597
O O14 0.178181 0.717681 0.298246
O O15 0.000000 0.730786 0.250000
O O16 0.000000 0.393489 0.250000
O O17 0.750000 0.250000 0.500000
O O18 0.649674 0.321120 0.670079
O O19 0.000000 0.114709 0.250000
#
# Coordination Sequence:
#
# PCOD9281241 Si02
#       8
#     8   8   8   8   8   8   8   8
#     4  11  20  35  61  91 118 160 205 242 297 366
#     4  10  21  38  60  86 120 159 199 246 303 356
#     4  10  22  39  61  86 119 153 200 256 308 354
#     4  10  21  39  61  87 114 155 202 251 304 361
#     4  11  23  38  56  88 130 160 197 249 298 359
#     4   9  19  35  62  90 117 153 201 249 301 362
#     4  12  21  35  65  90 119 159 206 245 296 361
#     4  11  23  40  61  91 119 157 203 254 297 362
#
# _framework density 19.785525
#
# number of rings (size 3 to 8) (size 9 to 14) (size 15 to 20)
#    0.000    1.500    2.500    3.000    3.500    2.000 
#    0.000    6.250    0.000    0.750    0.000    0.000 
#    0.000    0.000    0.000    0.000    0.000    0.000 
#
# Total GULP energy -178540.977968 kJ/mol
# GULP energy per Si atom -5579.405562 kJ/mol
# Density = 1.974049 g / cm^3
# Si number density = 19.785525 Si / 1000 Ang^3
#
#
#
# Elastic Constant Matrix: (Units=GPa)
#
#
# Indices 1 2 3 4 5 6 
#
# 1 173.7014 54.9489 43.4701 0.0000 -10.8544 0.0000
# 2 54.9489 102.3238 28.6336 0.0000 -8.1348 0.0000
# 3 43.4701 28.6336 30.7750 0.0000 -13.7809 0.0000
# 4 0.0000 0.0000 0.0000 31.3581 0.0000 -0.9606
# 5 -10.8544 -8.1348 -13.7809 0.0000 35.2706 0.0000
# 6 0.0000 0.0000 0.0000 -0.9606 0.0000 40.9103
#
#
#
# Elastic Compliance Matrix: (Units=1/GPa)
#
#
# Indices 1 2 3 4 5 6 
#
# 1 0.009306 -0.001629 -0.012745 0.000000 -0.002492 0.000000
# 2 -0.001629 0.013631 -0.011149 0.000000 -0.001714 0.000000
# 3 -0.012745 -0.011149 0.070254 0.000000 0.020956 0.000000
# 4 0.000000 0.000000 0.000000 0.031913 0.000000 0.000749
# 5 -0.002492 -0.001714 0.020956 0.000000 0.035378 0.000000
# 6 0.000000 0.000000 0.000000 0.000749 0.000000 0.024461
#
#
# Mechanical properties :
#
#
# Convention : Reuss Voigt Hill
#
# Bulk Modulus (GPa) = 23.72773 62.32281 43.02527
# Shear Modulus (GPa) = 19.99693 33.49098 26.74395
#
# Velocity S-wave (km/s) = 3.18258 4.11871 3.68053
# Velocity P-wave (km/s) = 5.05208 7.36111 6.31306
#
# Compressibility (1/GPa) = 0.04214478
#
# Stress axis : x y z
#
# Youngs Moduli (GPa) = 107.45503 73.36000 14.23411
#
# Poissons Ratio (x) = 0.11951 0.18142
# Poissons Ratio (y) = 0.17506 0.15870
# Poissons Ratio (z) = 1.36952 0.81790
#
# Static dielectric constant tensor:
#      x y z
#    x 1.730120 0.000000 0.015410 
#    y 0.000000 1.729020 0.000000 
#    z 0.015410 0.000000 1.679690 
# 
# From -- ./inp_files/43509.got.cif
#   From: 2010.05.17/outbox.cif.g08.bks.cpg/sg15_22_cif.got.tgz:43509.got - 2010.06.03 18:47:42.
