data_PCOD9281973
_publ_section_title
;
Structure prediction by ZEFSAII (Michael W. Deem and Ramdas Pophale) SiO2 
 PCOD9281973
Probable space group: C 2/C
;
_chemical_formula_sum "Si O2"
_cell_formula_units_Z 44
_cell_length_a 14.355362
_cell_length_b 17.315553
_cell_length_c 8.068783
_cell_angle_alpha 90.000000
_cell_angle_beta 92.376323
_cell_angle_gamma 90.000000
_cell_volume 2003.940940
_symmetry_space_group_name_H-M "C 2/C"
_symmetry_group_IT_number 15
_symmetry_cell_setting 'monoclinic'
loop_
_space_group_symop_operation_xyz
x,y,z
-x,y,1/2-z
-x,-y,-z
x,-y,1/2+z
1/2+x,1/2+y,z
1/2-x,1/2+y,1/2-z
1/2-x,1/2-y,-z
1/2+x,1/2-y,1/2+z
loop_
_atom_site_type_symbol
_atom_site_label
_atom_site_fract_x
_atom_site_fract_y
_atom_site_fract_z
Si Si1 0.895949 0.917059 0.797803
Si Si2 0.155023 0.794677 0.442222
Si Si3 0.276883 0.453752 0.498561
Si Si4 0.794247 0.591741 0.819400
Si Si5 0.513316 0.910531 0.051447
Si Si6 0.500000 0.194728 0.250000
O O1 0.840313 0.903144 0.622650
O O2 0.000000 0.939506 0.750000
O O3 0.843500 0.986531 0.897151
O O4 0.892444 0.838964 0.906305
O O5 0.250000 0.750000 0.500000
O O6 0.198071 0.864733 0.340224
O O7 0.082765 0.747710 0.326830
O O8 0.217188 0.505231 0.618591
O O9 0.201875 0.411687 0.377154
O O10 0.878631 0.619619 0.937754
O O11 0.500000 0.904429 0.250000
O O12 0.468653 0.858716 0.903353
O O13 0.500000 0.000000 0.000000
#
# Coordination Sequence:
#
# PCOD9281973 Si02
#       6
#     8   8   8   8   8   4
#     4  10  21  38  66  98 135 174 230 282 345 418
#     4  11  25  46  65  91 140 187 224 277 350 421
#     4   9  20  37  66  98 130 174 221 287 344 401
#     4  10  21  42  64  98 137 176 223 281 347 408
#     4  12  25  44  75 105 132 175 236 296 353 405
#     4  12  28  48  70  98 144 182 232 290 348 420
#
# _framework density 21.956735999999999
#
# number of rings (size 3 to 8) (size 9 to 14) (size 15 to 20)
#    0.000    1.455    2.727    1.636    2.545    3.636 
#    3.273    1.818    0.000    0.000    0.000    0.000 
#    0.000    0.000    0.000    0.000    0.000    0.000 
#
# Total GULP energy -122508.817996 kJ/mol
# GULP energy per Si atom -5568.582636 kJ/mol
# Density = 2.190676 g / cm^3
# Si number density = 21.956736 Si / 1000 Ang^3
#
#
#
# Elastic Constant Matrix: (Units=GPa)
#
#
# Indices 1 2 3 4 5 6 
#
# 1 63.6906 23.6872 38.8632 0.0000 20.1117 0.0000
# 2 23.6872 67.5526 59.1462 0.0000 18.0418 0.0000
# 3 38.8632 59.1462 172.9249 0.0000 26.5419 0.0000
# 4 0.0000 0.0000 0.0000 40.4755 0.0000 14.0467
# 5 20.1117 18.0418 26.5419 0.0000 39.9453 0.0000
# 6 0.0000 0.0000 0.0000 14.0467 0.0000 27.6515
#
#
#
# Elastic Compliance Matrix: (Units=1/GPa)
#
#
# Indices 1 2 3 4 5 6 
#
# 1 0.020689 -0.003148 -0.002441 0.000000 -0.007373 0.000000
# 2 -0.003148 0.022660 -0.006365 0.000000 -0.004421 0.000000
# 3 -0.002441 -0.006365 0.008773 0.000000 -0.001726 0.000000
# 4 0.000000 0.000000 0.000000 0.029994 0.000000 -0.015237
# 5 -0.007373 -0.004421 -0.001726 0.000000 0.031890 0.000000
# 6 0.000000 0.000000 0.000000 -0.015237 0.000000 0.043905
#
#
# Mechanical properties :
#
#
# Convention : Reuss Voigt Hill
#
# Bulk Modulus (GPa) = 35.44198 60.84015 48.14106
# Shear Modulus (GPa) = 26.14725 33.77921 29.96323
#
# Velocity S-wave (km/s) = 3.45462 3.92656 3.69812
# Velocity P-wave (km/s) = 5.66474 6.95172 6.34096
#
# Compressibility (1/GPa) = 0.02821513
#
# Stress axis : x y z
#
# Youngs Moduli (GPa) = 48.33371 44.12976 113.98211
#
# Poissons Ratio (x) = 0.13892 0.27828
# Poissons Ratio (y) = 0.15216 0.72545
# Poissons Ratio (z) = 0.11800 0.28087
#
# Static dielectric constant tensor:
#      x y z
#    x 1.990440 0.000000 -0.032900 
#    y 0.000000 1.884720 0.000000 
#    z -0.032900 0.000000 1.901860 
# 
# From -- ./inp_files/39316.got.cif
#   From: 2010.05.17/outbox.cif.g08.bks.cpg/sg15_20_cif.got.tgz:39316.got - 2010.06.03 18:47:42.
