data_PCOD9281387
_publ_section_title
;
Structure prediction by ZEFSAII (Michael W. Deem and Ramdas Pophale) SiO2 
 PCOD9281387
Probable space group: C 2/C
;
_chemical_formula_sum "Si O2"
_cell_formula_units_Z 60
_cell_length_a 13.075652
_cell_length_b 15.557773
_cell_length_c 13.412074
_cell_angle_alpha 90.000000
_cell_angle_beta 103.650592
_cell_angle_gamma 90.000000
_cell_volume 2651.322830
_symmetry_space_group_name_H-M "C 2/C"
_symmetry_group_IT_number 15
_symmetry_cell_setting 'monoclinic'
loop_
_space_group_symop_operation_xyz
x,y,z
-x,y,1/2-z
-x,-y,-z
x,-y,1/2+z
1/2+x,1/2+y,z
1/2-x,1/2+y,1/2-z
1/2-x,1/2-y,-z
1/2+x,1/2-y,1/2+z
loop_
_atom_site_type_symbol
_atom_site_label
_atom_site_fract_x
_atom_site_fract_y
_atom_site_fract_z
Si Si1 0.362141 0.097866 0.275292
Si Si2 0.553184 0.152396 0.423106
Si Si3 0.163884 0.173524 0.174777
Si Si4 0.687135 0.909772 0.315071
Si Si5 0.500000 0.208886 0.750000
Si Si6 0.896268 0.016494 0.911103
Si Si7 0.765696 0.339006 0.389261
Si Si8 0.970214 0.164733 0.636980
O O1 0.443191 0.104329 0.384383
O O2 0.398897 0.137318 0.176848
O O3 0.255501 0.149678 0.274753
O O4 0.347913 0.999389 0.241996
O O5 0.638289 0.123585 0.524246
O O6 0.523768 0.252893 0.433478
O O7 0.217150 0.235831 0.104834
O O8 0.066888 0.227926 0.194893
O O9 0.131361 0.079027 0.131632
O O10 0.585649 0.853630 0.324091
O O11 0.783809 0.937037 0.410223
O O12 0.728985 0.859507 0.226964
O O13 0.948231 0.087386 0.851260
O O14 0.000000 0.000000 0.000000
O O15 0.650206 0.366150 0.397208
O O16 0.000000 0.204090 0.750000
#
# Coordination Sequence:
#
# PCOD9281387 Si02
#       8
#     8   8   8   8   4   8   8   8
#     4  10  21  38  61  90 122 159 205 250 319 363
#     4  11  21  35  65  94 119 155 204 266 314 373
#     4  10  22  42  61  87 123 168 203 256 306 381
#     4  10  23  42  61  86 126 169 202 257 310 380
#     4  10  22  40  66  82 124 172 210 244 318 378
#     4  11  25  40  64  93 127 161 209 257 316 374
#     4  11  22  38  63  93 121 157 210 258 319 368
#     4  12  21  37  62  95 122 155 205 262 315 368
#
# _framework density 22.630213000000001
#
# number of rings (size 3 to 8) (size 9 to 14) (size 15 to 20)
#    0.000    1.333    4.000    2.000    6.533    0.533 
#    0.000    0.667    2.933    0.000    0.000    0.000 
#    0.000    0.000    0.000    0.000    0.000    0.000 
#
# Total GULP energy -167047.704205 kJ/mol
# GULP energy per Si atom -5568.256807 kJ/mol
# Density = 2.257871 g / cm^3
# Si number density = 22.630213 Si / 1000 Ang^3
#
#
#
# Elastic Constant Matrix: (Units=GPa)
#
#
# Indices 1 2 3 4 5 6 
#
# 1 122.5190 41.2482 23.7465 0.0000 42.3607 0.0000
# 2 41.2482 116.2976 -2.3308 0.0000 6.8323 0.0000
# 3 23.7465 -2.3308 60.7432 0.0000 46.4169 0.0000
# 4 0.0000 0.0000 0.0000 13.6471 0.0000 7.6635
# 5 42.3607 6.8323 46.4169 0.0000 49.7492 0.0000
# 6 0.0000 0.0000 0.0000 7.6635 0.0000 30.1319
#
#
#
# Elastic Compliance Matrix: (Units=1/GPa)
#
#
# Indices 1 2 3 4 5 6 
#
# 1 0.015306 -0.003799 0.011953 0.000000 -0.023663 0.000000
# 2 -0.003799 0.009951 0.001531 0.000000 0.000440 0.000000
# 3 0.011953 0.001531 0.068935 0.000000 -0.074706 0.000000
# 4 0.000000 0.000000 0.000000 0.085485 0.000000 -0.021741
# 5 -0.023663 0.000440 -0.074706 0.000000 0.109891 0.000000
# 6 0.000000 0.000000 0.000000 -0.021741 0.000000 0.038717
#
#
# Mechanical properties :
#
#
# Convention : Reuss Voigt Hill
#
# Bulk Modulus (GPa) = 8.80576 47.20973 28.00775
# Shear Modulus (GPa) = 14.41884 34.49869 24.45876
#
# Velocity S-wave (km/s) = 2.52692 3.90866 3.29112
# Velocity P-wave (km/s) = 3.52326 6.42470 5.18123
#
# Compressibility (1/GPa) = 0.11356197
#
# Stress axis : x y z
#
# Youngs Moduli (GPa) = 65.33475 100.49382 14.50640
#
# Poissons Ratio (x) = 0.38176 -0.17340
# Poissons Ratio (y) = 0.24820 -0.02221
# Poissons Ratio (z) = -0.78095 -0.15385
#
# Static dielectric constant tensor:
#      x y z
#    x 1.185970 0.000000 0.743200 
#    y 0.000000 1.961380 0.000000 
#    z 0.743200 0.000000 1.281930 
# 
# From -- ./inp_files/154032.got.cif
#   From: 2010.05.17/outbox.cif.g08.bks.cpg/sg15_78_cif.got.tgz:154032.got - 2010.06.03 18:47:42.
