data_PCOD9281574
_publ_section_title
;
Structure prediction by ZEFSAII (Michael W. Deem and Ramdas Pophale) SiO2 
 PCOD9281574
Probable space group: C 2/C
;
_chemical_formula_sum "Si O2"
_cell_formula_units_Z 32
_cell_length_a 23.835940
_cell_length_b 5.982988
_cell_length_c 7.399863
_cell_angle_alpha 90.000000
_cell_angle_beta 109.253038
_cell_angle_gamma 90.000000
_cell_volume 996.274465
_symmetry_space_group_name_H-M "C 2/C"
_symmetry_group_IT_number 15
_symmetry_cell_setting 'monoclinic'
loop_
_space_group_symop_operation_xyz
x,y,z
-x,y,1/2-z
-x,-y,-z
x,-y,1/2+z
1/2+x,1/2+y,z
1/2-x,1/2+y,1/2-z
1/2-x,1/2-y,-z
1/2+x,1/2-y,1/2+z
loop_
_atom_site_type_symbol
_atom_site_label
_atom_site_fract_x
_atom_site_fract_y
_atom_site_fract_z
Si Si1 0.061418 0.007999 0.456129
Si Si2 0.182627 0.960964 0.319817
Si Si3 0.562092 0.000709 0.952069
Si Si4 0.811284 0.637726 0.827899
O O1 0.062364 0.755088 0.373657
O O2 0.120759 0.030413 0.641993
O O3 0.060840 0.252316 0.358465
O O4 0.000000 0.000000 0.500000
O O5 0.184100 0.781047 0.478679
O O6 0.243967 0.944588 0.272216
O O7 0.186185 0.226771 0.358983
O O8 0.627671 0.000527 0.113378
O O9 0.500000 0.000000 0.000000
#
# Coordination Sequence:
#
# PCOD9281574 Si02
#       4
#     8   8   8   8
#     4   9  18  36  62  91 127 172 223 278 337 404
#     4  10  21  38  62  98 138 185 236 290 357 427
#     4   9  18  36  61  91 125 171 225 280 339 404
#     4  10  21  38  64  98 141 186 236 295 357 429
#
# _framework density 32.119661999999998
#
# number of rings (size 3 to 8) (size 9 to 14) (size 15 to 20)
#    0.000    2.500    0.000    1.500    0.000    1.000 
#    0.000   26.250    0.000   30.000    0.000    0.000 
#    0.000    0.000    0.000    0.000    0.000    0.000 
#
# Total GULP energy -89162.266358 kJ/mol
# GULP energy per Si atom -5572.641647 kJ/mol
# Density = 3.204656 g / cm^3
# Si number density = 32.119662 Si / 1000 Ang^3
#
#
#
# Elastic Constant Matrix: (Units=GPa)
#
#
# Indices 1 2 3 4 5 6 
#
# 1 317.9012 46.3897 68.0345 0.0000 67.3785 0.0000
# 2 46.3897 313.8888 60.5844 0.0000 -6.0950 0.0000
# 3 68.0345 60.5844 190.0755 0.0000 81.5690 0.0000
# 4 0.0000 0.0000 0.0000 60.0267 0.0000 4.4040
# 5 67.3785 -6.0950 81.5690 0.0000 72.3663 0.0000
# 6 0.0000 0.0000 0.0000 4.4040 0.0000 67.3299
#
#
#
# Elastic Compliance Matrix: (Units=1/GPa)
#
#
# Indices 1 2 3 4 5 6 
#
# 1 0.004130 -0.000889 0.000944 0.000000 -0.004984 0.000000
# 2 -0.000889 0.003937 -0.002778 0.000000 0.004291 0.000000
# 3 0.000944 -0.002778 0.012176 0.000000 -0.014837 0.000000
# 4 0.000000 0.000000 0.000000 0.016740 0.000000 -0.001095
# 5 -0.004984 0.004291 -0.014837 0.000000 0.035545 0.000000
# 6 0.000000 0.000000 0.000000 -0.001095 0.000000 0.014924
#
#
# Mechanical properties :
#
#
# Convention : Reuss Voigt Hill
#
# Bulk Modulus (GPa) = 67.58326 130.20921 98.89624
# Shear Modulus (GPa) = 51.11003 83.06838 67.08920
#
# Velocity S-wave (km/s) = 3.99336 5.09100 4.57522
# Velocity P-wave (km/s) = 6.50764 8.67090 7.66596
#
# Compressibility (1/GPa) = 0.01479656
#
# Stress axis : x y z
#
# Youngs Moduli (GPa) = 242.14480 254.01777 82.13116
#
# Poissons Ratio (x) = 0.22592 -0.07756
# Poissons Ratio (y) = 0.21536 0.22814
# Poissons Ratio (z) = -0.22866 0.70559
#
# Static dielectric constant tensor:
#      x y z
#    x 2.451860 0.000000 -0.112390 
#    y 0.000000 2.616820 0.000000 
#    z -0.112390 0.000000 2.559980 
# 
# From -- ./inp_files/120620.got.cif
#   From: 2010.05.17/outbox.cif.g08.bks.cpg/sg15_61_cif.got.tgz:120620.got - 2010.06.03 18:47:42.
