data_PCOD9281425
_publ_section_title
;
Structure prediction by ZEFSAII (Michael W. Deem and Ramdas Pophale) SiO2 
 PCOD9281425
Probable space group: C 2/C
;
_chemical_formula_sum "Si O2"
_cell_formula_units_Z 60
_cell_length_a 15.336028
_cell_length_b 17.213028
_cell_length_c 14.159880
_cell_angle_alpha 90.000000
_cell_angle_beta 42.916813
_cell_angle_gamma 90.000000
_cell_volume 2545.282009
_symmetry_space_group_name_H-M "C 2/C"
_symmetry_group_IT_number 15
_symmetry_cell_setting 'monoclinic'
loop_
_space_group_symop_operation_xyz
x,y,z
-x,y,1/2-z
-x,-y,-z
x,-y,1/2+z
1/2+x,1/2+y,z
1/2-x,1/2+y,1/2-z
1/2-x,1/2-y,-z
1/2+x,1/2-y,1/2+z
loop_
_atom_site_type_symbol
_atom_site_label
_atom_site_fract_x
_atom_site_fract_y
_atom_site_fract_z
Si Si1 0.047800 0.587984 0.981403
Si Si2 0.047410 0.825229 0.813615
Si Si3 0.117459 0.403455 0.219928
Si Si4 0.396379 0.349344 0.522722
Si Si5 0.800190 0.223186 0.597943
Si Si6 0.000000 0.169729 0.750000
Si Si7 0.751034 0.195894 0.853821
Si Si8 0.882664 0.410149 0.775579
O O1 0.076786 0.620263 0.856799
O O2 0.182742 0.611458 0.924465
O O3 0.000000 0.500000 0.000000
O O4 0.931852 0.619001 0.134715
O O5 0.066031 0.872039 0.899167
O O6 0.185504 0.785595 0.683206
O O7 0.000000 0.859254 0.750000
O O8 0.933462 0.766560 0.938194
O O9 0.244111 0.356443 0.097413
O O10 0.128283 0.496263 0.209106
O O11 0.000000 0.380210 0.250000
O O12 0.483109 0.372632 0.364373
O O13 0.367023 0.256547 0.548136
O O14 0.258097 0.380443 0.603168
O O15 0.812635 0.206416 0.700384
O O16 0.134991 0.212477 0.662899
O O17 0.000000 0.387874 0.750000
#
# Coordination Sequence:
#
# PCOD9281425 Si02
#       8
#     8   8   8   8   8   4   8   8
#     4   9  19  37  61  87 117 157 210 260 303 362
#     4  11  23  40  63  94 128 169 213 270 331 390
#     4   9  19  36  63  91 121 163 208 265 315 382
#     4  11  25  37  60  93 128 176 206 262 318 378
#     4  10  21  40  62  93 127 162 214 264 332 381
#     4  12  22  40  56  86 138 168 212 248 318 380
#     4  10  22  35  60  88 125 166 205 253 317 375
#     4  10  21  38  61  93 124 162 218 257 318 382
#
# _framework density 23.573025999999999
#
# number of rings (size 3 to 8) (size 9 to 14) (size 15 to 20)
#    0.000    1.867    1.333    2.000    2.800    4.267 
#    0.000    0.667    1.467    0.000    0.000    0.000 
#    0.000    0.000    0.000    0.000    0.000    0.000 
#
# Total GULP energy -167132.903621 kJ/mol
# GULP energy per Si atom -5571.096787 kJ/mol
# Density = 2.351937 g / cm^3
# Si number density = 23.573026 Si / 1000 Ang^3
#
#
#
# Elastic Constant Matrix: (Units=GPa)
#
#
# Indices 1 2 3 4 5 6 
#
# 1 153.0507 27.0060 23.8363 0.0001 6.1692 0.0000
# 2 27.0060 55.0960 9.5982 0.0000 -11.8590 0.0000
# 3 23.8363 9.5982 112.9965 0.0001 9.3835 -0.0001
# 4 0.0001 0.0000 0.0001 19.8509 -0.0001 -9.9484
# 5 6.1692 -11.8590 9.3835 -0.0001 40.6520 0.0001
# 6 0.0000 0.0000 -0.0001 -9.9484 0.0001 22.2434
#
#
#
# Elastic Compliance Matrix: (Units=1/GPa)
#
#
# Indices 1 2 3 4 5 6 
#
# 1 0.007473 -0.003912 -0.001076 0.000000 -0.002027 0.000000
# 2 -0.003912 0.021943 -0.001651 0.000000 0.007376 0.000000
# 3 -0.001076 -0.001651 0.009424 0.000000 -0.002494 0.000000
# 4 0.000000 0.000000 0.000000 0.064929 0.000000 0.029039
# 5 -0.002027 0.007376 -0.002494 0.000000 0.027634 0.000000
# 6 0.000000 0.000000 0.000000 0.029039 0.000000 0.057945
#
#
# Mechanical properties :
#
#
# Convention : Reuss Voigt Hill
#
# Bulk Modulus (GPa) = 39.12012 49.11380 44.11696
# Shear Modulus (GPa) = 23.68015 33.92942 28.80479
#
# Velocity S-wave (km/s) = 3.17289 3.79797 3.49942
# Velocity P-wave (km/s) = 5.48218 6.33346 5.92314
#
# Compressibility (1/GPa) = 0.02556229
#
# Stress axis : x y z
#
# Youngs Moduli (GPa) = 133.80932 45.57273 106.11066
#
# Poissons Ratio (x) = 0.17828 0.11416
# Poissons Ratio (y) = 0.52346 0.17521
# Poissons Ratio (z) = 0.14396 0.07525
#
# Static dielectric constant tensor:
#      x y z
#    x 2.005310 0.000000 0.020990 
#    y 0.000000 1.933630 0.000000 
#    z 0.020990 0.000000 1.934470 
# 
# From -- ./inp_files/156360.got.cif
#   From: 2010.05.17/outbox.cif.g08.bks.cpg/sg15_79_cif.got.tgz:156360.got - 2010.06.03 18:47:42.
