data_PCOD9281248
_publ_section_title
;
Structure prediction by ZEFSAII (Michael W. Deem and Ramdas Pophale) SiO2 
 PCOD9281248
Probable space group: C 2/C
;
_chemical_formula_sum "Si O2"
_cell_formula_units_Z 32
_cell_length_a 24.190198
_cell_length_b 9.303210
_cell_length_c 14.533641
_cell_angle_alpha 90.000000
_cell_angle_beta 155.193423
_cell_angle_gamma 90.000000
_cell_volume 1372.261585
_symmetry_space_group_name_H-M "C 2/C"
_symmetry_group_IT_number 15
_symmetry_cell_setting 'monoclinic'
loop_
_space_group_symop_operation_xyz
x,y,z
-x,y,1/2-z
-x,-y,-z
x,-y,1/2+z
1/2+x,1/2+y,z
1/2-x,1/2+y,1/2-z
1/2-x,1/2-y,-z
1/2+x,1/2-y,1/2+z
loop_
_atom_site_type_symbol
_atom_site_label
_atom_site_fract_x
_atom_site_fract_y
_atom_site_fract_z
Si Si1 0.575529 0.325117 0.147865
Si Si2 0.631504 0.842792 0.906801
Si Si3 0.163972 0.076333 0.095350
Si Si4 0.898634 0.241636 0.015491
O O1 0.602189 0.190814 0.256386
O O2 0.719670 0.400738 0.360575
O O3 0.463045 0.411876 0.030366
O O4 0.536503 0.273678 0.987720
O O5 0.500000 0.913599 0.750000
O O6 0.642975 0.690980 0.980911
O O7 0.290764 0.135652 0.339492
O O8 0.173036 0.912775 0.076355
O O9 0.000000 0.262253 0.250000
#
# Coordination Sequence:
#
# PCOD9281248 Si02
#       4
#     8   8   8   8
#     4   9  17  33  59  85 116 160 198 240 301 355
#     4   8  15  31  56  88 118 150 197 246 292 352
#     4  10  21  38  60  87 120 158 201 247 299 356
#     4  11  23  40  60  88 122 159 201 249 298 354
#
# _framework density 23.31917
#
# number of rings (size 3 to 8) (size 9 to 14) (size 15 to 20)
#    0.000    2.500    0.000    3.000    0.000    1.000 
#    0.000   18.750    0.000    3.000    0.000    0.000 
#    0.000    0.000    0.000    0.000    0.000    0.000 
#
# Total GULP energy -89392.068631 kJ/mol
# GULP energy per Si atom -5587.004289 kJ/mol
# Density = 2.326610 g / cm^3
# Si number density = 23.319170 Si / 1000 Ang^3
#
#
#
# Elastic Constant Matrix: (Units=GPa)
#
#
# Indices 1 2 3 4 5 6 
#
# 1 134.5295 22.7138 57.6249 0.0000 -10.4113 0.0000
# 2 22.7138 96.1487 43.1398 0.0000 -8.6805 0.0000
# 3 57.6249 43.1398 184.2407 0.0000 -25.5758 0.0000
# 4 0.0000 0.0000 0.0000 25.3413 0.0000 -2.9587
# 5 -10.4113 -8.6805 -25.5758 0.0000 61.6195 0.0000
# 6 0.0000 0.0000 0.0000 -2.9587 0.0000 9.7836
#
#
#
# Elastic Compliance Matrix: (Units=1/GPa)
#
#
# Indices 1 2 3 4 5 6 
#
# 1 0.008662 -0.000918 -0.002450 0.000000 0.000317 0.000000
# 2 -0.000918 0.011736 -0.002390 0.000000 0.000506 0.000000
# 3 -0.002450 -0.002390 0.007056 0.000000 0.002178 0.000000
# 4 0.000000 0.000000 0.000000 0.040906 0.000000 0.012370
# 5 0.000317 0.000506 0.002178 0.000000 0.017257 0.000000
# 6 0.000000 0.000000 0.000000 0.012370 0.000000 0.105953
#
#
# Mechanical properties :
#
#
# Convention : Reuss Voigt Hill
#
# Bulk Modulus (GPa) = 62.75050 73.54178 68.14614
# Shear Modulus (GPa) = 23.99224 38.77822 31.38523
#
# Velocity S-wave (km/s) = 3.21107 4.08233 3.67263
# Velocity P-wave (km/s) = 6.38089 7.33663 6.87539
#
# Compressibility (1/GPa) = 0.01593613
#
# Stress axis : x y z
#
# Youngs Moduli (GPa) = 115.44031 85.20994 141.72097
#
# Poissons Ratio (x) = 0.07825 0.34726
# Poissons Ratio (y) = 0.10602 0.33878
# Poissons Ratio (z) = 0.28286 0.20369
#
# Static dielectric constant tensor:
#      x y z
#    x 1.896070 0.000000 -0.007870 
#    y 0.000000 1.970830 0.000000 
#    z -0.007870 0.000000 1.909620 
# 
# From -- ./inp_files/224347.got.cif
#   From: 2010.05.17/outbox.cif.g08.bks.cpg/sg15_113_cif.got.tgz:224347.got - 2010.06.03 18:47:42.
