data_PCOD9281091
_publ_section_title
;
Structure prediction by ZEFSAII (Michael W. Deem and Ramdas Pophale) SiO2 
 PCOD9281091
Probable space group: C 2/C
;
_chemical_formula_sum "Si O2"
_cell_formula_units_Z 64
_cell_length_a 27.620008
_cell_length_b 12.501881
_cell_length_c 9.383251
_cell_angle_alpha 90.000000
_cell_angle_beta 100.887351
_cell_angle_gamma 90.000000
_cell_volume 3181.736240
_symmetry_space_group_name_H-M "C 2/C"
_symmetry_group_IT_number 15
_symmetry_cell_setting 'monoclinic'
loop_
_space_group_symop_operation_xyz
x,y,z
-x,y,1/2-z
-x,-y,-z
x,-y,1/2+z
1/2+x,1/2+y,z
1/2-x,1/2+y,1/2-z
1/2-x,1/2-y,-z
1/2+x,1/2-y,1/2+z
loop_
_atom_site_type_symbol
_atom_site_label
_atom_site_fract_x
_atom_site_fract_y
_atom_site_fract_z
Si Si1 0.307969 0.250488 0.047366
Si Si2 0.253832 0.895793 0.898220
Si Si3 0.202079 0.963810 0.607171
Si Si4 0.944411 0.741370 0.210934
Si Si5 0.963082 0.495205 0.848557
Si Si6 0.358888 0.658785 0.836345
Si Si7 0.330287 0.228244 0.599532
Si Si8 0.385125 0.159559 0.912720
O O1 0.323011 0.356559 0.965831
O O2 0.337268 0.153337 0.990512
O O3 0.250000 0.250000 0.000000
O O4 0.321543 0.270871 0.218485
O O5 0.248107 0.941822 0.737581
O O6 0.218569 0.790792 0.873769
O O7 0.306225 0.869832 0.997542
O O8 0.224659 0.974290 0.986784
O O9 0.162969 0.039635 0.665787
O O10 0.947218 0.622313 0.283883
O O11 0.909310 0.818761 0.282124
O O12 0.000000 0.781734 0.250000
O O13 0.922734 0.723837 0.039225
O O14 0.914792 0.556820 0.874672
O O15 0.000000 0.544389 0.750000
O O16 0.000000 0.500000 0.000000
O O17 0.358430 0.702885 0.996186
O O18 0.364173 0.206844 0.753557
#
# Coordination Sequence:
#
# PCOD9281091 Si02
#       8
#     8   8   8   8   8   8   8   8
#     4  11  23  41  60  89 131 169 216 259 319 386
#     4  10  21  38  58  83 124 173 204 257 306 367
#     4  11  20  39  61  84 117 173 211 250 316 367
#     4  10  22  44  65  91 128 163 209 270 333 389
#     4  11  22  43  67  93 131 167 212 269 344 389
#     4  10  23  39  63  90 119 168 211 258 320 383
#     4  10  22  38  58  89 128 158 219 257 308 376
#     4  11  23  39  66  94 126 174 215 265 327 395
#
# _framework density 20.114802999999998
#
# number of rings (size 3 to 8) (size 9 to 14) (size 15 to 20)
#    0.000    1.500    5.000    0.750    5.250    0.000 
#   11.250    0.000    0.000    3.750    0.000    0.000 
#    0.000    0.000    0.000    0.000    0.000    0.000 
#
# Total GULP energy -178414.002107 kJ/mol
# GULP energy per Si atom -5575.437566 kJ/mol
# Density = 2.006902 g / cm^3
# Si number density = 20.114803 Si / 1000 Ang^3
#
#
#
# Elastic Constant Matrix: (Units=GPa)
#
#
# Indices 1 2 3 4 5 6 
#
# 1 95.2712 20.6086 19.6056 0.0000 10.1785 0.0000
# 2 20.6086 53.4183 19.3789 0.0000 -1.4113 0.0000
# 3 19.6056 19.3789 161.0089 0.0000 20.9581 0.0000
# 4 0.0000 0.0000 0.0000 19.5340 0.0000 -4.8584
# 5 10.1785 -1.4113 20.9581 0.0000 33.3377 0.0000
# 6 0.0000 0.0000 0.0000 -4.8584 0.0000 37.4479
#
#
#
# Elastic Compliance Matrix: (Units=1/GPa)
#
#
# Indices 1 2 3 4 5 6 
#
# 1 0.011951 -0.004543 -0.000445 0.000000 -0.003562 0.000000
# 2 -0.004543 0.021498 -0.002541 0.000000 0.003895 0.000000
# 3 -0.000445 -0.002541 0.007152 0.000000 -0.004468 0.000000
# 4 0.000000 0.000000 0.000000 0.052900 0.000000 0.006863
# 5 -0.003562 0.003895 -0.004468 0.000000 0.034057 0.000000
# 6 0.000000 0.000000 0.000000 0.006863 0.000000 0.027594
#
#
# Mechanical properties :
#
#
# Convention : Reuss Voigt Hill
#
# Bulk Modulus (GPa) = 39.15034 47.65385 43.40210
# Shear Modulus (GPa) = 27.97579 34.73760 31.35670
#
# Velocity S-wave (km/s) = 3.73340 4.16019 3.95256
# Velocity P-wave (km/s) = 6.17171 6.84241 6.51570
#
# Compressibility (1/GPa) = 0.02554256
#
# Stress axis : x y z
#
# Youngs Moduli (GPa) = 83.67350 46.51640 139.81172
#
# Poissons Ratio (x) = 0.21135 0.06219
# Poissons Ratio (y) = 0.38017 0.35529
# Poissons Ratio (z) = 0.03722 0.11821
#
# Static dielectric constant tensor:
#      x y z
#    x 1.730830 0.000000 0.001350 
#    y 0.000000 1.782560 0.000000 
#    z 0.001350 0.000000 1.700030 
# 
# From -- ./inp_files/66260.got.cif
#   From: 2010.05.17/outbox.cif.g08.bks.cpg/sg15_34_cif.got.tgz:66260.got - 2010.06.03 18:47:42.
