data_PCOD9281084
_publ_section_title
;
Structure prediction by ZEFSAII (Michael W. Deem and Ramdas Pophale) SiO2 
 PCOD9281084
Probable space group: C 2/C
;
_chemical_formula_sum "Si O2"
_cell_formula_units_Z 52
_cell_length_a 24.667909
_cell_length_b 7.733965
_cell_length_c 24.742266
_cell_angle_alpha 90.000000
_cell_angle_beta 150.665617
_cell_angle_gamma 90.000000
_cell_volume 2312.525310
_symmetry_space_group_name_H-M "C 2/C"
_symmetry_group_IT_number 15
_symmetry_cell_setting 'monoclinic'
loop_
_space_group_symop_operation_xyz
x,y,z
-x,y,1/2-z
-x,-y,-z
x,-y,1/2+z
1/2+x,1/2+y,z
1/2-x,1/2+y,1/2-z
1/2-x,1/2-y,-z
1/2+x,1/2-y,1/2+z
loop_
_atom_site_type_symbol
_atom_site_label
_atom_site_fract_x
_atom_site_fract_y
_atom_site_fract_z
Si Si1 0.210909 0.797671 0.404874
Si Si2 0.809153 0.547905 0.788947
Si Si3 0.084700 0.185776 0.589683
Si Si4 0.171096 0.371615 0.465823
Si Si5 0.382090 0.784674 0.465978
Si Si6 0.000000 0.611826 0.250000
Si Si7 0.987594 0.344886 0.085637
O O1 0.250000 0.750000 0.500000
O O2 0.289604 0.718304 0.426857
O O3 0.084554 0.734483 0.289894
O O4 0.241779 0.000538 0.428100
O O5 0.854819 0.356084 0.834672
O O6 0.679266 0.545745 0.667793
O O7 0.834085 0.641609 0.867855
O O8 0.879420 0.639674 0.802126
O O9 0.043055 0.248049 0.495706
O O10 0.980798 0.153163 0.537786
O O11 0.250000 0.250000 0.500000
O O12 0.086366 0.269034 0.430918
O O13 0.084408 0.489143 0.356168
O O14 0.441851 0.956757 0.542599
#
# Coordination Sequence:
#
# PCOD9281084 Si02
#       7
#     8   8   8   8   8   4   8
#     4   9  19  36  55  79 108 140 183 231 275 327
#     4   9  17  30  50  74  98 133 173 207 259 322
#     4   9  17  32  52  75 103 136 171 215 266 317
#     4  10  21  38  58  83 113 148 188 230 277 334
#     4   8  16  32  52  71  99 136 171 212 261 316
#     4  10  22  38  58  82 108 148 190 232 284 326
#     4   8  17  34  51  72 108 140 169 217 271 320
#
# _framework density 22.486238
#
# number of rings (size 3 to 8) (size 9 to 14) (size 15 to 20)
#    0.000    3.077    0.000    1.846    0.000    6.769 
#    0.000   10.769    0.000    0.000    0.000    0.000 
#    0.000    0.000    0.000    0.000    0.000    0.000 
#
# Total GULP energy -144932.199195 kJ/mol
# GULP energy per Si atom -5574.315354 kJ/mol
# Density = 2.243506 g / cm^3
# Si number density = 22.486238 Si / 1000 Ang^3
#
#
#
# Elastic Constant Matrix: (Units=GPa)
#
#
# Indices 1 2 3 4 5 6 
#
# 1 170.5337 27.2369 54.2082 0.0000 62.8472 0.0000
# 2 27.2369 46.8935 38.6055 0.0000 22.5401 0.0002
# 3 54.2082 38.6055 109.5796 0.0000 44.9302 0.0000
# 4 0.0000 0.0000 0.0000 30.0154 0.0000 32.5130
# 5 62.8472 22.5401 44.9302 0.0000 40.5004 0.0000
# 6 0.0000 0.0002 0.0000 32.5130 0.0000 -27.2346
#
#
#
# Elastic Compliance Matrix: (Units=1/GPa)
#
#
# Indices 1 2 3 4 5 6 
#
# 1 0.014617 0.001968 0.003348 0.000000 -0.027491 0.000000
# 2 0.001968 0.032262 -0.006834 0.000000 -0.013428 0.000000
# 3 0.003348 -0.006834 0.019166 0.000000 -0.022654 0.000000
# 4 0.000000 0.000000 0.000000 0.014529 0.000000 0.017344
# 5 -0.027491 -0.013428 -0.022654 0.000000 0.099956 0.000000
# 6 0.000000 0.000000 0.000000 0.017344 0.000000 -0.016012
#
#
# Mechanical properties :
#
#
# Convention : Reuss Voigt Hill
#
# Bulk Modulus (GPa) = 15.87072 63.01199 39.44136
# Shear Modulus (GPa) = 26.51717 22.45331 24.48524
#
# Velocity S-wave (km/s) = 3.43776 3.16339 3.30343
# Velocity P-wave (km/s) = 4.77817 6.43630 5.66820
#
# Compressibility (1/GPa) = 0.06300910
#
# Stress axis : x y z
#
# Youngs Moduli (GPa) = 68.41409 30.99590 52.17594
#
# Poissons Ratio (x) = -0.06101 -0.17468
# Poissons Ratio (y) = -0.13465 0.35657
# Poissons Ratio (z) = -0.22904 0.21183
#
# Static dielectric constant tensor:
#      x y z
#    x 1.920570 0.000000 0.014360 
#    y 0.000000 1.920380 0.000000 
#    z 0.014360 0.000000 1.856430 
# 
# From -- ./inp_files/121498.got.cif
#   From: 2010.05.17/outbox.cif.g08.bks.cpg/sg15_61_cif.got.tgz:121498.got - 2010.06.03 18:47:42.
