data_PCOD9281022
_publ_section_title
;
Structure prediction by ZEFSAII (Michael W. Deem and Ramdas Pophale) SiO2 
 PCOD9281022
Probable space group: C 2/C
;
_chemical_formula_sum "Si O2"
_cell_formula_units_Z 44
_cell_length_a 25.867745
_cell_length_b 9.417546
_cell_length_c 10.981285
_cell_angle_alpha 90.000000
_cell_angle_beta 141.800239
_cell_angle_gamma 90.000000
_cell_volume 1654.331576
_symmetry_space_group_name_H-M "C 2/C"
_symmetry_group_IT_number 15
_symmetry_cell_setting 'monoclinic'
loop_
_space_group_symop_operation_xyz
x,y,z
-x,y,1/2-z
-x,-y,-z
x,-y,1/2+z
1/2+x,1/2+y,z
1/2-x,1/2+y,1/2-z
1/2-x,1/2-y,-z
1/2+x,1/2-y,1/2+z
loop_
_atom_site_type_symbol
_atom_site_label
_atom_site_fract_x
_atom_site_fract_y
_atom_site_fract_z
Si Si1 0.961526 0.196880 0.478635
Si Si2 0.296422 0.346521 0.811702
Si Si3 0.000000 0.439428 0.750000
Si Si4 0.373013 0.838145 0.121570
Si Si5 0.142514 0.183059 0.815581
Si Si6 0.294141 0.963816 0.659969
O O1 0.879822 0.131823 0.389976
O O2 0.983993 0.337864 0.603606
O O3 0.938894 0.226633 0.296006
O O4 0.050843 0.120304 0.648829
O O5 0.215010 0.283944 0.593951
O O6 0.250984 0.479360 0.794760
O O7 0.331231 0.268569 0.998414
O O8 0.922132 0.544143 0.634195
O O9 0.345292 0.911807 0.197444
O O10 0.150785 0.319456 0.744360
O O11 0.216272 0.072349 0.926461
#
# Coordination Sequence:
#
# PCOD9281022 Si02
#       6
#     8   8   4   8   8   8
#     4  12  21  39  61  85 114 157 194 229 289 353
#     4  10  21  38  56  83 122 155 183 235 298 336
#     4  12  22  36  60  90 120 146 188 242 290 336
#     4  12  24  33  59  96 118 138 196 253 278 324
#     4   9  19  37  61  77 115 159 195 215 287 362
#     4   9  19  38  57  86 115 155 191 229 289 348
#
# _framework density 26.596844999999998
#
# number of rings (size 3 to 8) (size 9 to 14) (size 15 to 20)
#    1.091    0.364    3.636    2.182    2.545    0.000 
#    0.000    0.909    0.000    0.000    0.000    0.000 
#    0.000    0.000    0.000    0.000    0.000    0.000 
#
# Total GULP energy -122815.875021 kJ/mol
# GULP energy per Si atom -5582.539774 kJ/mol
# Density = 2.653631 g / cm^3
# Si number density = 26.596845 Si / 1000 Ang^3
#
#
#
# Elastic Constant Matrix: (Units=GPa)
#
#
# Indices 1 2 3 4 5 6 
#
# 1 88.9254 12.6908 29.3298 0.0000 33.3265 0.0000
# 2 12.6908 51.8964 20.8587 0.0000 9.0966 0.0000
# 3 29.3298 20.8587 195.4512 0.0000 30.3435 0.0000
# 4 0.0000 0.0000 0.0000 35.1426 0.0000 1.4314
# 5 33.3265 9.0966 30.3435 0.0000 47.6533 0.0000
# 6 0.0000 0.0000 0.0000 1.4314 0.0000 25.4389
#
#
#
# Elastic Compliance Matrix: (Units=1/GPa)
#
#
# Indices 1 2 3 4 5 6 
#
# 1 0.015481 -0.001785 -0.000560 0.000000 -0.010129 0.000000
# 2 -0.001785 0.020668 -0.001686 0.000000 -0.001623 0.000000
# 3 -0.000560 -0.001686 0.005848 0.000000 -0.003010 0.000000
# 4 0.000000 0.000000 0.000000 0.028521 0.000000 -0.001605
# 5 -0.010129 -0.001623 -0.003010 0.000000 0.030295 0.000000
# 6 0.000000 0.000000 0.000000 -0.001605 0.000000 0.039400
#
#
# Mechanical properties :
#
#
# Convention : Reuss Voigt Hill
#
# Bulk Modulus (GPa) = 29.46847 51.33682 40.40265
# Shear Modulus (GPa) = 31.33099 39.87320 35.60210
#
# Velocity S-wave (km/s) = 3.43592 3.87611 3.66263
# Velocity P-wave (km/s) = 5.18116 6.27504 5.75415
#
# Compressibility (1/GPa) = 0.03393457
#
# Stress axis : x y z
#
# Youngs Moduli (GPa) = 64.59523 48.38444 171.00990
#
# Poissons Ratio (x) = 0.08637 0.09577
# Poissons Ratio (y) = 0.11531 0.28828
# Poissons Ratio (z) = 0.03618 0.08156
#
# Static dielectric constant tensor:
#      x y z
#    x 2.071210 0.000000 -0.033600 
#    y 0.000000 2.140260 0.000000 
#    z -0.033600 0.000000 2.105400 
# 
# From -- ./inp_files/118629.got.cif
#   From: 2010.05.17/outbox.cif.g08.bks.cpg/sg15_60_cif.got.tgz:118629.got - 2010.06.03 18:47:42.
