data_PCOD9281543
_publ_section_title
;
Structure prediction by ZEFSAII (Michael W. Deem and Ramdas Pophale) SiO2 
 PCOD9281543
Probable space group: C 2/C
;
_chemical_formula_sum "Si O2"
_cell_formula_units_Z 64
_cell_length_a 15.221775
_cell_length_b 7.714834
_cell_length_c 22.410612
_cell_angle_alpha 90.000000
_cell_angle_beta 78.587184
_cell_angle_gamma 90.000000
_cell_volume 2579.717999
_symmetry_space_group_name_H-M "C 2/C"
_symmetry_group_IT_number 15
_symmetry_cell_setting 'monoclinic'
loop_
_space_group_symop_operation_xyz
x,y,z
-x,y,1/2-z
-x,-y,-z
x,-y,1/2+z
1/2+x,1/2+y,z
1/2-x,1/2+y,1/2-z
1/2-x,1/2-y,-z
1/2+x,1/2-y,1/2+z
loop_
_atom_site_type_symbol
_atom_site_label
_atom_site_fract_x
_atom_site_fract_y
_atom_site_fract_z
Si Si1 0.257740 0.387557 0.679857
Si Si2 0.297927 0.504738 0.964859
Si Si3 0.056733 0.983187 0.797048
Si Si4 0.473166 0.000447 0.573877
Si Si5 0.836364 0.382403 0.933756
Si Si6 0.648260 0.800304 0.210879
Si Si7 0.283068 0.986336 0.654942
Si Si8 0.556948 0.682221 0.102112
O O1 0.345402 0.503564 0.685396
O O2 0.229331 0.389489 0.613909
O O3 0.174936 0.500674 0.717986
O O4 0.272568 0.179194 0.685753
O O5 0.332878 0.699455 0.968861
O O6 0.272902 0.497818 0.898871
O O7 0.378274 0.371291 0.959838
O O8 0.209578 0.480544 0.015340
O O9 0.079978 0.792895 0.765077
O O10 0.000000 0.071973 0.750000
O O11 0.985878 0.982107 0.859679
O O12 0.381757 0.938749 0.617113
O O13 0.475960 0.203121 0.590082
O O14 0.500000 0.000000 0.500000
O O15 0.560340 0.916431 0.592599
O O16 0.732528 0.664800 0.198155
O O17 0.607725 0.780464 0.149433
#
# Coordination Sequence:
#
# PCOD9281543 Si02
#       8
#     8   8   8   8   8   8   8   8
#     4  11  22  40  68  91 126 165 210 266 318 378
#     4   9  20  39  63  91 128 172 212 256 313 389
#     4  10  23  42  67  92 125 162 216 275 324 376
#     4  12  22  37  60  94 134 167 209 264 318 374
#     4  10  21  38  62  93 129 168 214 259 318 386
#     4  10  23  42  69  93 121 175 216 257 331 389
#     4  10  22  40  64  97 132 164 212 269 310 380
#     4  10  21  41  64  91 129 167 210 266 318 378
#
# _framework density 24.808911999999999
#
# number of rings (size 3 to 8) (size 9 to 14) (size 15 to 20)
#    0.000    1.750    3.750    0.000    1.750    2.500 
#    0.000    1.250    2.750    2.250    0.000    0.000 
#    0.000    0.000    0.000    0.000    0.000    0.000 
#
# Total GULP energy -178175.625115 kJ/mol
# GULP energy per Si atom -5567.988285 kJ/mol
# Density = 2.475245 g / cm^3
# Si number density = 24.808912 Si / 1000 Ang^3
#
#
#
# Elastic Constant Matrix: (Units=GPa)
#
#
# Indices 1 2 3 4 5 6 
#
# 1 107.8670 9.2325 13.8139 0.0000 -17.5724 0.0000
# 2 9.2325 47.0764 34.1831 0.0000 -12.9984 0.0000
# 3 13.8139 34.1831 74.3628 0.0000 -17.7860 0.0000
# 4 0.0000 0.0000 0.0000 27.4123 0.0000 -1.6432
# 5 -17.5724 -12.9984 -17.7860 0.0000 50.2567 0.0000
# 6 0.0000 0.0000 0.0000 -1.6432 0.0000 28.6023
#
#
#
# Elastic Compliance Matrix: (Units=1/GPa)
#
#
# Indices 1 2 3 4 5 6 
#
# 1 0.009919 -0.000446 -0.000913 0.000000 0.003030 0.000000
# 2 -0.000446 0.032427 -0.014043 0.000000 0.003261 0.000000
# 3 -0.000913 -0.014043 0.020896 0.000000 0.003444 0.000000
# 4 0.000000 0.000000 0.000000 0.036606 0.000000 0.002103
# 5 0.003030 0.003261 0.003444 0.000000 0.023019 0.000000
# 6 0.000000 0.000000 0.000000 0.002103 0.000000 0.035083
#
#
# Mechanical properties :
#
#
# Convention : Reuss Voigt Hill
#
# Bulk Modulus (GPa) = 30.82759 38.19613 34.51186
# Shear Modulus (GPa) = 25.05410 32.72606 28.89008
#
# Velocity S-wave (km/s) = 3.18131 3.63592 3.41619
# Velocity P-wave (km/s) = 5.09385 5.74944 5.43155
#
# Compressibility (1/GPa) = 0.03243848
#
# Stress axis : x y z
#
# Youngs Moduli (GPa) = 100.81299 30.83852 47.85537
#
# Poissons Ratio (x) = 0.01375 0.04369
# Poissons Ratio (y) = 0.04494 0.67204
# Poissons Ratio (z) = 0.09205 0.43307
#
# Static dielectric constant tensor:
#      x y z
#    x 2.036350 0.000000 0.059350 
#    y 0.000000 2.021420 0.000000 
#    z 0.059350 0.000000 2.011830 
# 
# From -- ./inp_files/295107.got.cif
#   From: 2010.05.17/outbox.cif.g08.bks.cpg/sg15_148_cif.got.tgz:295107.got - 2010.06.03 18:47:42.
