data_PCOD9281776
_publ_section_title
;
Structure prediction by ZEFSAII (Michael W. Deem and Ramdas Pophale) SiO2 
 PCOD9281776
Probable space group: C 2/C
;
_chemical_formula_sum "Si O2"
_cell_formula_units_Z 56
_cell_length_a 16.543499
_cell_length_b 18.487816
_cell_length_c 11.659938
_cell_angle_alpha 90.000000
_cell_angle_beta 54.806166
_cell_angle_gamma 90.000000
_cell_volume 2914.347001
_symmetry_space_group_name_H-M "C 2/C"
_symmetry_group_IT_number 15
_symmetry_cell_setting 'monoclinic'
loop_
_space_group_symop_operation_xyz
x,y,z
-x,y,1/2-z
-x,-y,-z
x,-y,1/2+z
1/2+x,1/2+y,z
1/2-x,1/2+y,1/2-z
1/2-x,1/2-y,-z
1/2+x,1/2-y,1/2+z
loop_
_atom_site_type_symbol
_atom_site_label
_atom_site_fract_x
_atom_site_fract_y
_atom_site_fract_z
Si Si1 0.439284 0.924141 0.910856
Si Si2 0.590670 0.830137 0.926965
Si Si3 0.407126 0.542294 0.414586
Si Si4 0.284175 0.951349 0.586394
Si Si5 0.354535 0.412552 0.600019
Si Si6 0.491469 0.685616 0.393653
Si Si7 0.794602 0.318709 0.902243
O O1 0.500000 0.951627 0.750000
O O2 0.513470 0.890361 0.943243
O O3 0.374645 0.857589 0.916149
O O4 0.365667 0.986206 0.012647
O O5 0.661416 0.873236 0.957474
O O6 0.654170 0.806133 0.763408
O O7 0.538340 0.759975 0.021837
O O8 0.500000 0.541168 0.250000
O O9 0.301778 0.538514 0.436942
O O10 0.418596 0.474654 0.489145
O O11 0.412452 0.620442 0.470800
O O12 0.225940 0.951613 0.754249
O O13 0.412283 0.352874 0.628632
O O14 0.295655 0.372291 0.548745
O O15 0.500000 0.698611 0.250000
O O16 0.750000 0.250000 0.000000
#
# Coordination Sequence:
#
# PCOD9281776 Si02
#       7
#     8   8   8   8   8   8   8
#     4  10  21  42  66  94 127 163 212 265 310 372
#     4  10  24  40  62  93 130 169 206 258 318 374
#     4  11  23  41  66  92 126 164 210 259 315 375
#     4  11  22  42  65  94 125 163 212 258 316 370
#     4  11  22  41  64  92 124 163 208 267 308 370
#     4  11  23  42  60  87 130 164 207 256 312 378
#     4  10  21  38  64  93 126 163 211 261 312 366
#
# _framework density 19.215281999999998
#
# number of rings (size 3 to 8) (size 9 to 14) (size 15 to 20)
#    0.000    1.429    4.286    1.714    0.000    3.429 
#    2.571    0.000    0.000    0.000    0.000    0.000 
#    0.000    0.000    0.000    0.000    0.000    0.000 
#
# Total GULP energy -156240.682621 kJ/mol
# GULP energy per Si atom -5580.024379 kJ/mol
# Density = 1.917155 g / cm^3
# Si number density = 19.215282 Si / 1000 Ang^3
#
#
#
# Elastic Constant Matrix: (Units=GPa)
#
#
# Indices 1 2 3 4 5 6 
#
# 1 109.4586 34.2394 25.5786 0.0000 -9.2032 0.0000
# 2 34.2394 98.3175 72.2830 0.0000 -13.9714 0.0000
# 3 25.5786 72.2830 74.2981 0.0000 -17.1632 0.0000
# 4 0.0000 0.0000 0.0000 37.1188 0.0000 -11.9493
# 5 -9.2032 -13.9714 -17.1632 0.0000 18.7428 0.0000
# 6 0.0000 0.0000 0.0000 -11.9493 0.0000 14.7238
#
#
#
# Elastic Compliance Matrix: (Units=1/GPa)
#
#
# Indices 1 2 3 4 5 6 
#
# 1 0.010383 -0.003763 0.000781 0.000000 0.003009 0.000000
# 2 -0.003763 0.037738 -0.037221 0.000000 -0.007801 0.000000
# 3 0.000781 -0.037221 0.054639 0.000000 0.022672 0.000000
# 4 0.000000 0.000000 0.000000 0.036468 0.000000 0.029596
# 5 0.003009 -0.007801 0.022672 0.000000 0.069778 0.000000
# 6 0.000000 0.000000 0.000000 0.029596 0.000000 0.091936
#
#
# Mechanical properties :
#
#
# Convention : Reuss Voigt Hill
#
# Bulk Modulus (GPa) = 44.73225 60.69736 52.71480
# Shear Modulus (GPa) = 12.86012 24.11530 18.48771
#
# Velocity S-wave (km/s) = 2.58982 3.54645 3.10520
# Velocity P-wave (km/s) = 5.68093 6.95891 6.35214
#
# Compressibility (1/GPa) = 0.02235523
#
# Stress axis : x y z
#
# Youngs Moduli (GPa) = 96.30824 26.49872 18.30189
#
# Poissons Ratio (x) = 0.09970 -0.01429
# Poissons Ratio (y) = 0.36237 0.68121
# Poissons Ratio (z) = -0.07521 0.98630
#
# Static dielectric constant tensor:
#      x y z
#    x 1.708940 0.000000 -0.000650 
#    y 0.000000 1.673220 0.000000 
#    z -0.000650 0.000000 1.662420 
# 
# From -- ./inp_files/106620.got.cif
#   From: 2010.05.17/outbox.cif.g08.bks.cpg/sg15_54_cif.got.tgz:106620.got - 2010.06.03 18:47:42.
