data_PCOD9281353
_publ_section_title
;
Structure prediction by ZEFSAII (Michael W. Deem and Ramdas Pophale) SiO2 
 PCOD9281353
Probable space group: C 2/C
;
_chemical_formula_sum "Si O2"
_cell_formula_units_Z 48
_cell_length_a 6.544643
_cell_length_b 28.117621
_cell_length_c 14.213563
_cell_angle_alpha 90.000000
_cell_angle_beta 63.550910
_cell_angle_gamma 90.000000
_cell_volume 2341.805710
_symmetry_space_group_name_H-M "C 2/C"
_symmetry_group_IT_number 15
_symmetry_cell_setting 'monoclinic'
loop_
_space_group_symop_operation_xyz
x,y,z
-x,y,1/2-z
-x,-y,-z
x,-y,1/2+z
1/2+x,1/2+y,z
1/2-x,1/2+y,1/2-z
1/2-x,1/2-y,-z
1/2+x,1/2-y,1/2+z
loop_
_atom_site_type_symbol
_atom_site_label
_atom_site_fract_x
_atom_site_fract_y
_atom_site_fract_z
Si Si1 0.575410 0.114548 0.453857
Si Si2 0.484267 0.277203 0.473301
Si Si3 0.112579 0.930843 0.016564
Si Si4 0.711920 0.862195 0.135977
Si Si5 0.138656 0.801029 0.634869
Si Si6 0.599256 0.527542 0.124437
O O1 0.313683 0.107981 0.479588
O O2 0.603792 0.136294 0.552965
O O3 0.740903 0.149564 0.362041
O O4 0.685924 0.062654 0.423727
O O5 0.250000 0.250000 0.500000
O O6 0.614289 0.317782 0.385597
O O7 0.660561 0.233953 0.434242
O O8 0.476184 0.302344 0.577251
O O9 0.877109 0.907909 0.102120
O O10 0.163466 0.975530 0.073093
O O11 0.073030 0.950183 0.918703
O O12 0.500000 0.862542 0.250000
O O13 0.000000 0.781206 0.750000
O O14 0.500000 0.525892 0.250000
#
# Coordination Sequence:
#
# PCOD9281353 Si02
#       6
#     8   8   8   8   8   8
#     4  10  21  39  60  87 122 155 202 256 301 370
#     4  10  21  39  60  89 122 156 198 246 300 371
#     4  10  22  40  59  88 119 162 206 252 314 367
#     4  10  22  38  60  90 124 157 205 254 303 368
#     4  10  21  38  61  87 121 156 194 249 303 356
#     4  10  22  39  59  88 122 157 207 258 306 369
#
# _framework density 20.497002999999999
#
# number of rings (size 3 to 8) (size 9 to 14) (size 15 to 20)
#    0.000    2.000    0.000    2.500    2.333    1.333 
#    0.000    3.333    0.000    0.000    0.000    0.000 
#    0.000    0.000    0.000    0.000    0.000    0.000 
#
# Total GULP energy -133802.181618 kJ/mol
# GULP energy per Si atom -5575.090901 kJ/mol
# Density = 2.045035 g / cm^3
# Si number density = 20.497003 Si / 1000 Ang^3
#
#
#
# Elastic Constant Matrix: (Units=GPa)
#
#
# Indices 1 2 3 4 5 6 
#
# 1 86.8932 30.3509 53.5137 0.0000 -19.9457 0.0000
# 2 30.3509 96.7488 18.9147 0.0000 -6.0941 0.0000
# 3 53.5137 18.9147 114.8752 0.0000 -5.1797 0.0000
# 4 0.0000 0.0000 0.0000 19.0890 0.0000 -5.5971
# 5 -19.9457 -6.0941 -5.1797 0.0000 15.2210 0.0000
# 6 0.0000 0.0000 0.0000 -5.5971 0.0000 39.4503
#
#
#
# Elastic Compliance Matrix: (Units=1/GPa)
#
#
# Indices 1 2 3 4 5 6 
#
# 1 0.025728 -0.004318 -0.009985 0.000000 0.028588 0.000000
# 2 -0.004318 0.011618 0.000054 0.000000 -0.000989 0.000000
# 3 -0.009985 0.000054 0.012958 0.000000 -0.008654 0.000000
# 4 0.000000 0.000000 0.000000 0.054660 0.000000 0.007755
# 5 0.028588 -0.000989 -0.008654 0.000000 0.099820 0.000000
# 6 0.000000 0.000000 0.000000 0.007755 0.000000 0.026449
#
#
# Mechanical properties :
#
#
# Convention : Reuss Voigt Hill
#
# Bulk Modulus (GPa) = 45.86153 56.00842 50.93498
# Shear Modulus (GPa) = 18.72664 27.80124 23.26394
#
# Velocity S-wave (km/s) = 3.02591 3.68687 3.37262
# Velocity P-wave (km/s) = 5.88485 6.74600 6.33009
#
# Compressibility (1/GPa) = 0.02180477
#
# Stress axis : x y z
#
# Youngs Moduli (GPa) = 38.86767 86.07424 77.17500
#
# Poissons Ratio (x) = 0.37170 0.77062
# Poissons Ratio (y) = 0.16784 -0.00418
# Poissons Ratio (z) = 0.38811 -0.00466
#
# Static dielectric constant tensor:
#      x y z
#    x 1.809760 0.000000 0.042170 
#    y 0.000000 1.770170 0.000000 
#    z 0.042170 0.000000 1.730620 
# 
# From -- ./inp_files/130592.got.cif
#   From: 2010.05.17/outbox.cif.g08.bks.cpg/sg15_66_cif.got.tgz:130592.got - 2010.06.03 18:47:42.
