data_PCOD9281715
_publ_section_title
;
Structure prediction by ZEFSAII (Michael W. Deem and Ramdas Pophale) SiO2 
 PCOD9281715
Probable space group: C 2/C
;
_chemical_formula_sum "Si O2"
_cell_formula_units_Z 56
_cell_length_a 16.358053
_cell_length_b 10.661178
_cell_length_c 14.005130
_cell_angle_alpha 90.000000
_cell_angle_beta 92.085271
_cell_angle_gamma 90.000000
_cell_volume 2440.822828
_symmetry_space_group_name_H-M "C 2/C"
_symmetry_group_IT_number 15
_symmetry_cell_setting 'monoclinic'
loop_
_space_group_symop_operation_xyz
x,y,z
-x,y,1/2-z
-x,-y,-z
x,-y,1/2+z
1/2+x,1/2+y,z
1/2-x,1/2+y,1/2-z
1/2-x,1/2-y,-z
1/2+x,1/2-y,1/2+z
loop_
_atom_site_type_symbol
_atom_site_label
_atom_site_fract_x
_atom_site_fract_y
_atom_site_fract_z
Si Si1 0.847642 0.983131 0.759707
Si Si2 0.945241 0.147315 0.889386
Si Si3 0.906297 0.969047 0.571585
Si Si4 0.032257 0.769746 0.657661
Si Si5 0.785723 0.642983 0.132725
Si Si6 0.167276 0.622339 0.582386
Si Si7 0.914300 0.401292 0.798024
O O1 0.834852 0.982010 0.645281
O O2 0.902546 0.864541 0.793155
O O3 0.768000 0.965054 0.818548
O O4 0.908451 0.094791 0.789262
O O5 0.935991 0.294790 0.878129
O O6 0.888477 0.072798 0.964122
O O7 0.034453 0.089951 0.917494
O O8 0.962025 0.852981 0.608819
O O9 0.080074 0.694687 0.580376
O O10 0.000000 0.698484 0.750000
O O11 0.733957 0.774127 0.123308
O O12 0.860596 0.655033 0.208701
O O13 0.808431 0.600626 0.026502
O O14 0.859126 0.493137 0.349815
O O15 0.000000 0.436049 0.750000
#
# Coordination Sequence:
#
# PCOD9281715 Si02
#       7
#     8   8   8   8   8   8   8
#     4   9  18  38  61  91 128 173 228 274 333 401
#     4  10  21  38  64 105 134 173 228 284 346 407
#     4   9  18  36  65  98 135 175 222 288 340 406
#     4   8  15  33  62  89 122 174 227 270 332 403
#     4  10  25  46  70  94 133 190 230 277 345 417
#     4  10  23  47  67  95 135 188 232 274 346 423
#     4  12  27  44  69 109 142 175 229 293 348 410
#
# _framework density 22.943083000000001
#
# number of rings (size 3 to 8) (size 9 to 14) (size 15 to 20)
#    0.000    2.286    0.000    2.571    4.000    1.714 
#   15.429    1.429    0.000    0.000    0.000    0.000 
#    0.000    0.000    0.000    0.000    0.000    0.000 
#
# Total GULP energy -156033.649291 kJ/mol
# GULP energy per Si atom -5572.630332 kJ/mol
# Density = 2.289086 g / cm^3
# Si number density = 22.943083 Si / 1000 Ang^3
#
#
#
# Elastic Constant Matrix: (Units=GPa)
#
#
# Indices 1 2 3 4 5 6 
#
# 1 108.7763 44.7858 55.9929 0.0000 -24.4833 0.0000
# 2 44.7858 100.6089 54.0522 0.0000 -12.0577 0.0000
# 3 55.9929 54.0522 135.9882 0.0000 -23.6466 0.0000
# 4 0.0000 0.0000 0.0000 24.0768 0.0000 -2.1702
# 5 -24.4833 -12.0577 -23.6466 0.0000 47.6479 0.0000
# 6 0.0000 0.0000 0.0000 -2.1702 0.0000 15.0940
#
#
#
# Elastic Compliance Matrix: (Units=1/GPa)
#
#
# Indices 1 2 3 4 5 6 
#
# 1 0.013369 -0.003662 -0.003300 0.000000 0.004305 0.000000
# 2 -0.003662 0.013667 -0.003995 0.000000 -0.000406 0.000000
# 3 -0.003300 -0.003995 0.010758 0.000000 0.002632 0.000000
# 4 0.000000 0.000000 0.000000 0.042079 0.000000 0.006050
# 5 0.004305 -0.000406 0.002632 0.000000 0.024403 0.000000
# 6 0.000000 0.000000 0.000000 0.006050 0.000000 0.067121
#
#
# Mechanical properties :
#
#
# Convention : Reuss Voigt Hill
#
# Bulk Modulus (GPa) = 62.97604 72.78168 67.87886
# Shear Modulus (GPa) = 25.17548 30.06657 27.62102
#
# Velocity S-wave (km/s) = 3.31615 3.62399 3.47348
# Velocity P-wave (km/s) = 6.49391 7.02158 6.76289
#
# Compressibility (1/GPa) = 0.01587906
#
# Stress axis : x y z
#
# Youngs Moduli (GPa) = 74.80136 73.16679 92.95200
#
# Poissons Ratio (x) = 0.26794 0.30679
# Poissons Ratio (y) = 0.27392 0.37136
# Poissons Ratio (z) = 0.24688 0.29232
#
# Static dielectric constant tensor:
#      x y z
#    x 1.890190 0.000000 -0.043650 
#    y 0.000000 1.886120 0.000000 
#    z -0.043650 0.000000 2.275830 
# 
# From -- ./inp_files/154569.got.cif
#   From: 2010.05.17/outbox.cif.g08.bks.cpg/sg15_78_cif.got.tgz:154569.got - 2010.06.03 18:47:42.
