data_PCOD9281247
_publ_section_title
;
Structure prediction by ZEFSAII (Michael W. Deem and Ramdas Pophale) SiO2 
 PCOD9281247
Probable space group: C 2/C
;
_chemical_formula_sum "Si O2"
_cell_formula_units_Z 64
_cell_length_a 20.319626
_cell_length_b 25.555750
_cell_length_c 24.806953
_cell_angle_alpha 90.000000
_cell_angle_beta 15.791629
_cell_angle_gamma 90.000000
_cell_volume 3505.658496
_symmetry_space_group_name_H-M "C 2/C"
_symmetry_group_IT_number 15
_symmetry_cell_setting 'monoclinic'
loop_
_space_group_symop_operation_xyz
x,y,z
-x,y,1/2-z
-x,-y,-z
x,-y,1/2+z
1/2+x,1/2+y,z
1/2-x,1/2+y,1/2-z
1/2-x,1/2-y,-z
1/2+x,1/2-y,1/2+z
loop_
_atom_site_type_symbol
_atom_site_label
_atom_site_fract_x
_atom_site_fract_y
_atom_site_fract_z
Si Si1 0.499181 0.311113 0.580874
Si Si2 0.112513 0.911579 0.220671
Si Si3 0.842295 0.487800 0.178020
Si Si4 0.861027 0.307424 0.199648
Si Si5 0.019986 0.114188 0.907361
Si Si6 0.397555 0.645739 0.269981
Si Si7 0.187620 0.397812 0.765585
Si Si8 0.337619 0.469340 0.825432
O O1 0.736932 0.313035 0.356264
O O2 0.385958 0.253473 0.665723
O O3 0.539588 0.322562 0.612195
O O4 0.312862 0.354495 0.704587
O O5 0.986292 0.882893 0.369978
O O6 0.000000 0.903358 0.250000
O O7 0.091141 0.973551 0.251653
O O8 0.397223 0.897948 0.997540
O O9 0.667311 0.439302 0.305535
O O10 0.729729 0.543368 0.283051
O O11 0.000000 0.500000 0.000000
O O12 0.046993 0.472299 0.060733
O O13 0.686594 0.338559 0.296822
O O14 0.125254 0.332711 0.987726
O O15 0.780267 0.112901 0.132233
O O16 0.500000 0.648927 0.250000
O O17 0.388689 0.585429 0.256425
O O18 0.500000 0.464767 0.750000
#
# Coordination Sequence:
#
# PCOD9281247 Si02
#       8
#     8   8   8   8   8   8   8   8
#     4  11  23  39  58  82 111 145 195 243 281 332
#     4  10  21  38  60  87 120 150 181 226 288 352
#     4  11  17  32  57  82 115 147 193 232 278 337
#     4  11  23  39  58  83 108 148 195 241 285 329
#     4  11  21  35  59  86 111 148 188 239 283 339
#     4  11  22  38  58  79 117 158 191 233 278 327
#     4  10  22  35  58  88 109 149 189 237 285 335
#     4   9  18  33  55  82 116 156 186 222 278 333
#
# _framework density 18.2562
#
# number of rings (size 3 to 8) (size 9 to 14) (size 15 to 20)
#    0.000    1.500    5.000    1.875    0.000    1.500 
#    0.000    0.000    0.000    5.250    0.000    0.000 
#    0.000    0.000    0.000    0.000    0.000    0.000 
#
# Total GULP energy -178341.145635 kJ/mol
# GULP energy per Si atom -5573.160801 kJ/mol
# Density = 1.821465 g / cm^3
# Si number density = 18.256200 Si / 1000 Ang^3
#
#
#
# Elastic Constant Matrix: (Units=GPa)
#
#
# Indices 1 2 3 4 5 6 
#
# 1 97.0681 26.0302 27.8051 0.0187 23.4012 0.0387
# 2 26.0302 72.9587 10.8840 0.2585 8.3952 0.0657
# 3 27.8051 10.8840 52.8402 1.0948 20.4344 -0.0687
# 4 0.0187 0.2585 1.0948 15.8656 -0.1969 0.0775
# 5 23.4012 8.3952 20.4344 -0.1969 30.6786 -0.0588
# 6 0.0387 0.0657 -0.0687 0.0775 -0.0588 20.7403
#
#
#
# Elastic Compliance Matrix: (Units=1/GPa)
#
#
# Indices 1 2 3 4 5 6 
#
# 1 0.014127 -0.003631 -0.003917 0.000224 -0.007172 -0.000049
# 2 -0.003631 0.015230 -0.000918 -0.000190 -0.000788 -0.000046
# 3 -0.003917 -0.000918 0.026898 -0.002019 -0.014690 0.000065
# 4 0.000224 -0.000190 -0.002019 0.063193 0.001631 -0.000238
# 5 -0.007172 -0.000788 -0.014690 0.001631 0.048077 0.000097
# 6 -0.000049 -0.000046 0.000065 -0.000238 0.000097 0.048217
#
#
# Mechanical properties :
#
#
# Convention : Reuss Voigt Hill
#
# Bulk Modulus (GPa) = 25.43040 39.14507 32.28773
# Shear Modulus (GPa) = 20.34323 24.00010 22.17167
#
# Velocity S-wave (km/s) = 3.34176 3.62971 3.48871
# Velocity P-wave (km/s) = 5.37120 6.24940 5.82687
#
# Compressibility (1/GPa) = 0.03932302
#
# Stress axis : x y z
#
# Youngs Moduli (GPa) = 70.78763 65.65887 37.17742
#
# Poissons Ratio (x) = 0.23843 0.14562
# Poissons Ratio (y) = 0.25705 0.03412
# Poissons Ratio (z) = 0.27727 0.06025
#
# Static dielectric constant tensor:
#      x y z
#    x 1.658780 -0.000150 0.016370 
#    y -0.000150 1.650080 0.000480 
#    z 0.016370 0.000480 1.618880 
# 
# From -- ./inp_files/250270.got.cif
#   From: 2010.05.17/outbox.cif.g08.bks.cpg/sg15_126_cif.got.tgz:250270.got - 2010.06.03 18:47:42.
