data_PCOD9281736
_publ_section_title
;
Structure prediction by ZEFSAII (Michael W. Deem and Ramdas Pophale) SiO2 
 PCOD9281736
Probable space group: C 2/C
;
_chemical_formula_sum "Si O2"
_cell_formula_units_Z 56
_cell_length_a 14.665474
_cell_length_b 11.660880
_cell_length_c 14.468325
_cell_angle_alpha 90.000000
_cell_angle_beta 111.077536
_cell_angle_gamma 90.000000
_cell_volume 2308.720534
_symmetry_space_group_name_H-M "C 2/C"
_symmetry_group_IT_number 15
_symmetry_cell_setting 'monoclinic'
loop_
_space_group_symop_operation_xyz
x,y,z
-x,y,1/2-z
-x,-y,-z
x,-y,1/2+z
1/2+x,1/2+y,z
1/2-x,1/2+y,1/2-z
1/2-x,1/2-y,-z
1/2+x,1/2-y,1/2+z
loop_
_atom_site_type_symbol
_atom_site_label
_atom_site_fract_x
_atom_site_fract_y
_atom_site_fract_z
Si Si1 0.117741 0.536644 0.941151
Si Si2 0.718685 0.374877 0.453952
Si Si3 0.574964 0.084678 0.145714
Si Si4 0.514839 0.524557 0.856715
Si Si5 0.026305 0.236100 0.396021
Si Si6 0.679974 0.861400 0.208851
Si Si7 0.632347 0.320619 0.126778
O O1 0.038192 0.442714 0.883407
O O2 0.087319 0.655034 0.880763
O O3 0.222069 0.478078 0.975036
O O4 0.098517 0.560339 0.044660
O O5 0.750000 0.250000 0.500000
O O6 0.606078 0.405523 0.429634
O O7 0.751749 0.376149 0.357896
O O8 0.598664 0.214174 0.178672
O O9 0.637605 0.986675 0.217823
O O10 0.500000 0.571565 0.750000
O O11 0.533478 0.389495 0.855854
O O12 0.414306 0.555953 0.869897
O O13 0.913877 0.281926 0.352144
O O14 0.080000 0.212095 0.512506
O O15 0.752351 0.819891 0.315570
#
# Coordination Sequence:
#
# PCOD9281736 Si02
#       7
#     8   8   8   8   8   8   8
#     4   8  16  35  60  82 109 158 203 252 306 362
#     4  11  21  38  63  88 125 166 206 258 329 388
#     4   8  16  33  58  85 109 144 211 260 290 359
#     4  12  25  40  58  92 135 163 198 270 340 383
#     4  10  23  41  65  92 123 163 221 264 304 394
#     4  10  21  38  64  89 119 167 211 260 314 372
#     4  11  21  38  64  90 122 163 217 259 314 379
#
# _framework density 24.255858
#
# number of rings (size 3 to 8) (size 9 to 14) (size 15 to 20)
#    0.000    2.000    1.429    4.714    2.000    1.714 
#    0.000    0.000    3.143    0.000    0.000    0.000 
#    0.000    0.000    0.000    0.000    0.000    0.000 
#
# Total GULP energy -156328.039732 kJ/mol
# GULP energy per Si atom -5583.144276 kJ/mol
# Density = 2.420065 g / cm^3
# Si number density = 24.255858 Si / 1000 Ang^3
#
#
#
# Elastic Constant Matrix: (Units=GPa)
#
#
# Indices 1 2 3 4 5 6 
#
# 1 70.8067 14.5155 50.9075 0.0000 20.4983 0.0000
# 2 14.5155 127.4145 45.9199 0.0000 18.9771 0.0000
# 3 50.9075 45.9199 111.7541 0.0000 48.4390 0.0000
# 4 0.0000 0.0000 0.0000 -8.2878 0.0000 -0.4796
# 5 20.4983 18.9771 48.4390 0.0000 33.4176 0.0000
# 6 0.0000 0.0000 0.0000 -0.4796 0.0000 25.0433
#
#
#
# Elastic Compliance Matrix: (Units=1/GPa)
#
#
# Indices 1 2 3 4 5 6 
#
# 1 0.021264 0.001278 -0.011416 0.000000 0.002778 0.000000
# 2 0.001278 0.009295 -0.004772 0.000000 0.000855 0.000000
# 3 -0.011416 -0.004772 0.032012 0.000000 -0.036689 0.000000
# 4 0.000000 0.000000 0.000000 -0.120525 0.000000 -0.002308
# 5 0.002778 0.000855 -0.036689 0.000000 0.080916 0.000000
# 6 0.000000 0.000000 0.000000 -0.002308 0.000000 0.039887
#
#
# Mechanical properties :
#
#
# Convention : Reuss Voigt Hill
#
# Bulk Modulus (GPa) = 30.53261 59.18456 44.85858
# Shear Modulus (GPa) = 48.26906 23.27679 35.77292
#
# Velocity S-wave (km/s) = 4.46578 3.10116 3.84450
# Velocity P-wave (km/s) = 6.26146 6.10541 6.18393
#
# Compressibility (1/GPa) = 0.03275187
#
# Stress axis : x y z
#
# Youngs Moduli (GPa) = 47.02726 107.58052 31.23834
#
# Poissons Ratio (x) = -0.13748 0.35661
# Poissons Ratio (y) = -0.06010 0.14907
# Poissons Ratio (z) = 0.53685 0.51338
#
# Static dielectric constant tensor:
#      x y z
#    x 1.874270 0.000000 -0.190460 
#    y 0.000000 1.903800 0.000000 
#    z -0.190460 0.000000 1.802060 
# 
# From -- ./inp_files/210692.got.cif
#   From: 2010.05.17/outbox.cif.g08.bks.cpg/sg15_106_cif.got.tgz:210692.got - 2010.06.03 18:47:42.
