data_PCOD9281333
_publ_section_title
;
Structure prediction by ZEFSAII (Michael W. Deem and Ramdas Pophale) SiO2 
 PCOD9281333
Probable space group: C 2/C
;
_chemical_formula_sum "Si O2"
_cell_formula_units_Z 56
_cell_length_a 13.155180
_cell_length_b 13.566233
_cell_length_c 17.068361
_cell_angle_alpha 90.000000
_cell_angle_beta 110.365361
_cell_angle_gamma 90.000000
_cell_volume 2855.720589
_symmetry_space_group_name_H-M "C 2/C"
_symmetry_group_IT_number 15
_symmetry_cell_setting 'monoclinic'
loop_
_space_group_symop_operation_xyz
x,y,z
-x,y,1/2-z
-x,-y,-z
x,-y,1/2+z
1/2+x,1/2+y,z
1/2-x,1/2+y,1/2-z
1/2-x,1/2-y,-z
1/2+x,1/2-y,1/2+z
loop_
_atom_site_type_symbol
_atom_site_label
_atom_site_fract_x
_atom_site_fract_y
_atom_site_fract_z
Si Si1 0.815949 0.652681 0.996559
Si Si2 0.715358 0.349170 0.142735
Si Si3 0.774312 0.938738 0.876352
Si Si4 0.327745 0.781473 0.330944
Si Si5 0.446103 0.872849 0.121076
Si Si6 0.424222 0.064263 0.288575
Si Si7 0.429265 0.828416 0.940096
O O1 0.807319 0.645299 0.899972
O O2 0.750000 0.750000 0.000000
O O3 0.769763 0.573481 0.046179
O O4 0.942783 0.673294 0.045527
O O5 0.663085 0.458405 0.117832
O O6 0.746187 0.311944 0.239136
O O7 0.833324 0.347791 0.132131
O O8 0.632275 0.274562 0.079243
O O9 0.815859 0.831386 0.858724
O O10 0.676686 0.961884 0.790969
O O11 0.453839 0.796684 0.341123
O O12 0.501167 0.973082 0.165995
O O13 0.421897 0.878423 0.022262
O O14 0.500000 0.128587 0.250000
O O15 0.380696 0.111047 0.355580
#
# Coordination Sequence:
#
# PCOD9281333 Si02
#       7
#     8   8   8   8   8   8   8
#     4   9  20  39  60  83 118 157 193 242 305 352
#     4  12  22  38  60  90 120 157 204 246 290 353
#     4  11  21  38  61  92 116 154 201 250 297 351
#     4  10  21  38  61  85 121 159 197 239 304 353
#     4  11  22  39  57  86 123 163 192 239 308 354
#     4  12  19  35  64  89 114 151 202 258 288 341
#     4  11  23  36  59  93 119 151 202 253 291 351
#
# _framework density 19.609762
#
# number of rings (size 3 to 8) (size 9 to 14) (size 15 to 20)
#    0.000    1.143    5.714    1.286    0.000    1.143 
#    0.000    6.429    0.000    8.571    0.000    0.000 
#    0.000    0.000    0.000    0.000    0.000    0.000 
#
# Total GULP energy -155978.625726 kJ/mol
# GULP energy per Si atom -5570.665204 kJ/mol
# Density = 1.956513 g / cm^3
# Si number density = 19.609762 Si / 1000 Ang^3
#
#
#
# Elastic Constant Matrix: (Units=GPa)
#
#
# Indices 1 2 3 4 5 6 
#
# 1 34.2697 21.9630 -1.0700 0.0000 -13.0424 0.0000
# 2 21.9630 97.6639 23.3798 0.0000 -13.1611 0.0000
# 3 -1.0700 23.3798 110.4541 0.0000 -20.0550 0.0000
# 4 0.0000 0.0000 0.0000 20.9502 0.0000 -0.8682
# 5 -13.0424 -13.1611 -20.0550 0.0000 17.7625 0.0000
# 6 0.0000 0.0000 0.0000 -0.8682 0.0000 24.6168
#
#
#
# Elastic Compliance Matrix: (Units=1/GPa)
#
#
# Indices 1 2 3 4 5 6 
#
# 1 0.050878 -0.008081 0.009936 0.000000 0.042589 0.000000
# 2 -0.008081 0.012766 -0.002692 0.000000 0.000486 0.000000
# 3 0.009936 -0.002692 0.013437 0.000000 0.020472 0.000000
# 4 0.000000 0.000000 0.000000 0.047802 0.000000 0.001686
# 5 0.042589 0.000486 0.020472 0.000000 0.111044 0.000000
# 6 0.000000 0.000000 0.000000 0.001686 0.000000 0.040682
#
#
# Mechanical properties :
#
#
# Convention : Reuss Voigt Hill
#
# Bulk Modulus (GPa) = 13.26135 36.77037 25.01586
# Shear Modulus (GPa) = 16.47880 25.87354 21.17617
#
# Velocity S-wave (km/s) = 2.90200 3.63632 3.28972
# Velocity P-wave (km/s) = 4.24336 6.03508 5.21672
#
# Compressibility (1/GPa) = 0.07540712
#
# Stress axis : x y z
#
# Youngs Moduli (GPa) = 19.65477 78.33007 74.42290
#
# Poissons Ratio (x) = 0.63299 -0.73948
# Poissons Ratio (y) = 0.15883 0.20037
# Poissons Ratio (z) = -0.19529 0.21089
#
# Static dielectric constant tensor:
#      x y z
#    x 1.718930 0.000000 -0.014750 
#    y 0.000000 1.769460 0.000000 
#    z -0.014750 0.000000 1.858790 
# 
# From -- ./inp_files/204128.got.cif
#   From: 2010.05.17/outbox.cif.g08.bks.cpg/sg15_103_cif.got.tgz:204128.got - 2010.06.03 18:47:42.
