data_PCOD9281047
_publ_section_title
;
Structure prediction by ZEFSAII (Michael W. Deem and Ramdas Pophale) SiO2 
 PCOD9281047
Probable space group: C 2/C
;
_chemical_formula_sum "Si O2"
_cell_formula_units_Z 44
_cell_length_a 10.748669
_cell_length_b 8.969299
_cell_length_c 24.933394
_cell_angle_alpha 90.000000
_cell_angle_beta 113.459163
_cell_angle_gamma 90.000000
_cell_volume 2205.092628
_symmetry_space_group_name_H-M "C 2/C"
_symmetry_group_IT_number 15
_symmetry_cell_setting 'monoclinic'
loop_
_space_group_symop_operation_xyz
x,y,z
-x,y,1/2-z
-x,-y,-z
x,-y,1/2+z
1/2+x,1/2+y,z
1/2-x,1/2+y,1/2-z
1/2-x,1/2-y,-z
1/2+x,1/2-y,1/2+z
loop_
_atom_site_type_symbol
_atom_site_label
_atom_site_fract_x
_atom_site_fract_y
_atom_site_fract_z
Si Si1 0.006335 0.324292 0.835541
Si Si2 0.601557 0.179461 0.471764
Si Si3 0.531516 0.832877 0.335805
Si Si4 0.313565 0.320144 0.732391
Si Si5 0.500000 0.590470 0.750000
Si Si6 0.602415 0.822171 0.469965
O O1 0.058414 0.491136 0.832940
O O2 0.846333 0.326651 0.795654
O O3 0.061681 0.196498 0.806254
O O4 0.036060 0.289584 0.902486
O O5 0.750000 0.250000 0.500000
O O6 0.502033 0.231534 0.502308
O O7 0.615696 0.000602 0.478963
O O8 0.634644 0.740186 0.316446
O O9 0.384193 0.788389 0.287633
O O10 0.545734 0.795362 0.400548
O O11 0.384565 0.480380 0.752727
O O12 0.750000 0.750000 0.500000
#
# Coordination Sequence:
#
# PCOD9281047 Si02
#       6
#     8   8   8   8   4   8
#     4  11  21  37  58  81 115 151 183 231 288 337
#     4  10  24  39  57  88 119 149 194 241 283 339
#     4   9  20  37  58  84 114 147 189 233 281 338
#     4  10  21  38  57  84 114 144 187 237 281 335
#     4  10  22  34  58  86 108 146 188 228 284 342
#     4  10  21  41  63  82 115 159 192 234 288 338
#
# _framework density 19.953811000000002
#
# number of rings (size 3 to 8) (size 9 to 14) (size 15 to 20)
#    0.000    2.182    0.000    3.273    0.000    9.455 
#    0.000    5.455    0.000    0.000    0.000    0.000 
#    0.000    0.000    0.000    0.000    0.000    0.000 
#
# Total GULP energy -122895.051378 kJ/mol
# GULP energy per Si atom -5586.138699 kJ/mol
# Density = 1.990839 g / cm^3
# Si number density = 19.953811 Si / 1000 Ang^3
#
#
#
# Elastic Constant Matrix: (Units=GPa)
#
#
# Indices 1 2 3 4 5 6 
#
# 1 87.1106 13.8933 37.9199 0.0000 -2.6115 0.0000
# 2 13.8933 62.8522 48.7465 0.0000 -17.0660 0.0000
# 3 37.9199 48.7465 124.6704 0.0000 -17.5756 0.0000
# 4 0.0000 0.0000 0.0000 15.9854 0.0000 1.0584
# 5 -2.6115 -17.0660 -17.5756 0.0000 29.9389 0.0000
# 6 0.0000 0.0000 0.0000 1.0584 0.0000 28.3781
#
#
#
# Elastic Compliance Matrix: (Units=1/GPa)
#
#
# Indices 1 2 3 4 5 6 
#
# 1 0.013279 -0.000027 -0.004216 0.000000 -0.001332 0.000000
# 2 -0.000027 0.024995 -0.008456 0.000000 0.009281 0.000000
# 3 -0.004216 -0.008456 0.012950 0.000000 0.002414 0.000000
# 4 0.000000 0.000000 0.000000 0.062712 0.000000 -0.002339
# 5 -0.001332 0.009281 0.002414 0.000000 0.039993 0.000000
# 6 0.000000 0.000000 0.000000 -0.002339 0.000000 0.035326
#
#
# Mechanical properties :
#
#
# Convention : Reuss Voigt Hill
#
# Bulk Modulus (GPa) = 38.72189 52.86142 45.79165
# Shear Modulus (GPa) = 22.39506 26.46539 24.43022
#
# Velocity S-wave (km/s) = 3.35378 3.64584 3.50285
# Velocity P-wave (km/s) = 5.86898 6.65374 6.27364
#
# Compressibility (1/GPa) = 0.02582519
#
# Stress axis : x y z
#
# Youngs Moduli (GPa) = 75.30445 40.00797 77.21722
#
# Poissons Ratio (x) = 0.00108 0.32557
# Poissons Ratio (y) = 0.00204 0.65299
# Poissons Ratio (z) = 0.31751 0.33833
#
# Static dielectric constant tensor:
#      x y z
#    x 1.702230 0.000000 -0.016800 
#    y 0.000000 1.714610 0.000000 
#    z -0.016800 0.000000 1.680530 
# 
# From -- ./inp_files/268150.got.cif
#   From: 2010.05.17/outbox.cif.g08.bks.cpg/sg15_135_cif.got.tgz:268150.got - 2010.06.03 18:47:42.
