data_PCOD9281310
_publ_section_title
;
Structure prediction by ZEFSAII (Michael W. Deem and Ramdas Pophale) SiO2 
 PCOD9281310
Probable space group: C 2/C
;
_chemical_formula_sum "Si O2"
_cell_formula_units_Z 36
_cell_length_a 26.897380
_cell_length_b 5.841742
_cell_length_c 20.582203
_cell_angle_alpha 90.000000
_cell_angle_beta 28.228171
_cell_angle_gamma 90.000000
_cell_volume 1529.645102
_symmetry_space_group_name_H-M "C 2/C"
_symmetry_group_IT_number 15
_symmetry_cell_setting 'monoclinic'
loop_
_space_group_symop_operation_xyz
x,y,z
-x,y,1/2-z
-x,-y,-z
x,-y,1/2+z
1/2+x,1/2+y,z
1/2-x,1/2+y,1/2-z
1/2-x,1/2-y,-z
1/2+x,1/2-y,1/2+z
loop_
_atom_site_type_symbol
_atom_site_label
_atom_site_fract_x
_atom_site_fract_y
_atom_site_fract_z
Si Si1 0.560824 0.631294 0.803505
Si Si2 0.000000 0.566202 0.250000
Si Si3 0.093008 0.242949 0.048864
Si Si4 0.225834 0.605004 0.183432
Si Si5 0.383677 0.128521 0.585316
O O1 0.519481 0.381783 0.832096
O O2 0.675256 0.700255 0.696864
O O3 0.539666 0.782086 0.763866
O O4 0.481927 0.713918 0.952208
O O5 0.087455 0.403418 0.117788
O O6 0.109697 0.404558 0.967609
O O7 0.183115 0.051728 0.951846
O O8 0.135842 0.443663 0.318319
O O9 0.282766 0.730345 0.177598
#
# Coordination Sequence:
#
# PCOD9281310 Si02
#       5
#     8   4   8   8   8
#     4  10  23  39  64  89 122 167 204 248 305 358
#     4  10  22  44  62  88 124 164 210 250 294 360
#     4  10  22  41  62  89 129 158 204 257 295 365
#     4  11  21  39  63  94 125 160 199 250 311 364
#     4  10  21  38  60  94 129 157 199 250 303 371
#
# _framework density 23.534870999999999
#
# number of rings (size 3 to 8) (size 9 to 14) (size 15 to 20)
#    0.000    1.778    2.222    1.333    0.000    5.333 
#    0.000   15.556    0.000    0.000    0.000    0.000 
#    0.000    0.000    0.000    0.000    0.000    0.000 
#
# Total GULP energy -100639.203611 kJ/mol
# GULP energy per Si atom -5591.066867 kJ/mol
# Density = 2.348130 g / cm^3
# Si number density = 23.534871 Si / 1000 Ang^3
#
#
#
# Elastic Constant Matrix: (Units=GPa)
#
#
# Indices 1 2 3 4 5 6 
#
# 1 28.1341 -10.2125 19.8490 -0.0328 4.3778 0.0492
# 2 -10.2125 63.1996 18.1187 -0.0020 10.3322 0.0872
# 3 19.8490 18.1187 49.4477 -0.0608 14.6580 0.0355
# 4 -0.0328 -0.0020 -0.0608 25.7732 0.0265 9.0060
# 5 4.3778 10.3322 14.6580 0.0265 21.2365 -0.0135
# 6 0.0492 0.0872 0.0355 9.0060 -0.0135 25.0730
#
#
#
# Elastic Compliance Matrix: (Units=1/GPa)
#
#
# Indices 1 2 3 4 5 6 
#
# 1 0.067748 0.020954 -0.034839 0.000069 -0.000114 -0.000181
# 2 0.020954 0.024629 -0.015845 0.000039 -0.005366 -0.000121
# 3 -0.034839 -0.015845 0.044758 0.000067 -0.016002 0.000028
# 4 0.000069 0.000039 0.000067 0.044369 -0.000145 -0.015938
# 5 -0.000114 -0.005366 -0.016002 -0.000145 0.060768 0.000126
# 6 -0.000181 -0.000121 0.000028 -0.015938 0.000126 0.045609
#
#
# Mechanical properties :
#
#
# Convention : Reuss Voigt Hill
#
# Bulk Modulus (GPa) = 12.87416 21.81021 17.34218
# Shear Modulus (GPa) = 13.39643 21.95161 17.67402
#
# Velocity S-wave (km/s) = 2.38841 3.05737 2.74336
# Velocity P-wave (km/s) = 3.61775 4.66376 4.17366
#
# Compressibility (1/GPa) = 0.07767499
#
# Stress axis : x y z
#
# Youngs Moduli (GPa) = 14.76057 40.60252 22.34231
#
# Poissons Ratio (x) = -0.85080 0.77839
# Poissons Ratio (y) = -0.30930 0.35402
# Poissons Ratio (z) = 0.51425 0.64336
#
# Static dielectric constant tensor:
#      x y z
#    x 1.853010 -0.000010 -0.036340 
#    y -0.000010 1.888670 0.000020 
#    z -0.036340 0.000020 1.935380 
# 
# From -- ./inp_files/115608.got.cif
#   From: 2010.05.17/outbox.cif.g08.bks.cpg/sg15_58_cif.got.tgz:115608.got - 2010.06.03 18:47:42.
