data_PCOD9281794
_publ_section_title
;
Structure prediction by ZEFSAII (Michael W. Deem and Ramdas Pophale) SiO2 
 PCOD9281794
Probable space group: C 2/C
;
_chemical_formula_sum "Si O2"
_cell_formula_units_Z 56
_cell_length_a 9.243398
_cell_length_b 11.060325
_cell_length_c 25.725341
_cell_angle_alpha 90.000000
_cell_angle_beta 109.928884
_cell_angle_gamma 90.000000
_cell_volume 2472.534259
_symmetry_space_group_name_H-M "C 2/C"
_symmetry_group_IT_number 15
_symmetry_cell_setting 'monoclinic'
loop_
_space_group_symop_operation_xyz
x,y,z
-x,y,1/2-z
-x,-y,-z
x,-y,1/2+z
1/2+x,1/2+y,z
1/2-x,1/2+y,1/2-z
1/2-x,1/2-y,-z
1/2+x,1/2-y,1/2+z
loop_
_atom_site_type_symbol
_atom_site_label
_atom_site_fract_x
_atom_site_fract_y
_atom_site_fract_z
Si Si1 0.990040 0.936288 0.637670
Si Si2 0.368535 0.467429 0.443965
Si Si3 0.839212 0.694783 0.061118
Si Si4 0.000000 0.507819 0.250000
Si Si5 0.000000 0.927106 0.750000
Si Si6 0.190535 0.707007 0.328086
Si Si7 0.310661 0.773496 0.896798
Si Si8 0.261222 0.792702 0.228885
O O1 0.993082 0.995066 0.694986
O O2 0.828161 0.867470 0.613196
O O3 0.034350 0.023784 0.597217
O O4 0.132208 0.840627 0.652132
O O5 0.500000 0.500000 0.500000
O O6 0.239798 0.567940 0.434835
O O7 0.292540 0.336866 0.434745
O O8 0.827660 0.761341 0.116386
O O9 0.018999 0.677304 0.072145
O O10 0.750000 0.750000 0.000000
O O11 0.929421 0.595073 0.196601
O O12 0.863421 0.414077 0.246505
O O13 0.859915 0.832377 0.738629
O O14 0.173922 0.782955 0.272930
O O15 0.305482 0.718049 0.837420
#
# Coordination Sequence:
#
# PCOD9281794 Si02
#       8
#     8   8   8   4   4   8   8   8
#     4   9  20  38  64  94 125 168 208 265 319 382
#     4  11  23  43  66  89 125 171 219 262 323 381
#     4  11  23  43  65  91 132 175 217 277 315 377
#     4  11  20  38  68  95 132 169 202 262 338 383
#     4   7  14  32  54  87 126 147 196 254 310 371
#     4  10  21  38  64  95 130 167 215 259 326 388
#     4  11  22  42  68  93 130 167 213 269 328 378
#     4   9  18  34  62  96 123 161 206 258 316 395
#
# _framework density 22.648828000000002
#
# number of rings (size 3 to 8) (size 9 to 14) (size 15 to 20)
#    0.000    2.000    1.429    3.429    0.000    0.571 
#    0.000   10.714    0.000    1.714    0.000    0.000 
#    0.000    0.000    0.000    0.000    0.000    0.000 
#
# Total GULP energy -156149.337044 kJ/mol
# GULP energy per Si atom -5576.762037 kJ/mol
# Density = 2.259728 g / cm^3
# Si number density = 22.648828 Si / 1000 Ang^3
#
#
#
# Elastic Constant Matrix: (Units=GPa)
#
#
# Indices 1 2 3 4 5 6 
#
# 1 115.6079 22.6212 24.7679 0.0000 25.5427 0.0000
# 2 22.6212 44.0778 5.9835 0.0000 4.0947 0.0000
# 3 24.7679 5.9835 62.2155 0.0000 14.4758 0.0000
# 4 0.0000 0.0000 0.0000 22.8730 0.0000 -2.3908
# 5 25.5427 4.0947 14.4758 0.0000 43.1097 0.0000
# 6 0.0000 0.0000 0.0000 -2.3908 0.0000 18.5262
#
#
#
# Elastic Compliance Matrix: (Units=1/GPa)
#
#
# Indices 1 2 3 4 5 6 
#
# 1 0.011407 -0.004976 -0.002820 0.000000 -0.005339 0.000000
# 2 -0.004976 0.025255 -0.000625 0.000000 0.000759 0.000000
# 3 -0.002820 -0.000625 0.018282 0.000000 -0.004408 0.000000
# 4 0.000000 0.000000 0.000000 0.044318 0.000000 0.005719
# 5 -0.005339 0.000759 -0.004408 0.000000 0.027768 0.000000
# 6 0.000000 0.000000 0.000000 0.005719 0.000000 0.054716
#
#
# Mechanical properties :
#
#
# Convention : Reuss Voigt Hill
#
# Bulk Modulus (GPa) = 26.24486 36.51627 31.38057
# Shear Modulus (GPa) = 23.66437 28.13701 25.90069
#
# Velocity S-wave (km/s) = 3.23590 3.52847 3.38535
# Velocity P-wave (km/s) = 5.05711 5.72346 5.40057
#
# Compressibility (1/GPa) = 0.03810270
#
# Stress axis : x y z
#
# Youngs Moduli (GPa) = 87.66217 39.59620 54.69934
#
# Poissons Ratio (x) = 0.19701 0.15428
# Poissons Ratio (y) = 0.43617 0.03417
# Poissons Ratio (z) = 0.24725 0.02474
#
# Static dielectric constant tensor:
#      x y z
#    x 1.855180 0.000000 0.004720 
#    y 0.000000 1.894680 0.000000 
#    z 0.004720 0.000000 1.930140 
# 
# From -- ./inp_files/288101.got.cif
#   From: 2010.05.17/outbox.cif.g08.bks.cpg/sg15_145_cif.got.tgz:288101.got - 2010.06.03 18:47:42.
