data_PCOD9281315
_publ_section_title
;
Structure prediction by ZEFSAII (Michael W. Deem and Ramdas Pophale) SiO2 
 PCOD9281315
Probable space group: C 2/C
;
_chemical_formula_sum "Si O2"
_cell_formula_units_Z 28
_cell_length_a 9.401184
_cell_length_b 24.837625
_cell_length_c 9.968712
_cell_angle_alpha 90.000000
_cell_angle_beta 30.500184
_cell_angle_gamma 90.000000
_cell_volume 1181.416168
_symmetry_space_group_name_H-M "C 2/C"
_symmetry_group_IT_number 15
_symmetry_cell_setting 'monoclinic'
loop_
_space_group_symop_operation_xyz
x,y,z
-x,y,1/2-z
-x,-y,-z
x,-y,1/2+z
1/2+x,1/2+y,z
1/2-x,1/2+y,1/2-z
1/2-x,1/2-y,-z
1/2+x,1/2-y,1/2+z
loop_
_atom_site_type_symbol
_atom_site_label
_atom_site_fract_x
_atom_site_fract_y
_atom_site_fract_z
Si Si1 0.397537 0.279159 0.678121
Si Si2 0.500000 0.468773 0.750000
Si Si3 0.693261 0.073826 0.965289
Si Si4 0.744486 0.880096 0.148533
O O1 0.500000 0.277190 0.750000
O O2 0.570702 0.234488 0.453070
O O3 0.514089 0.335836 0.531460
O O4 0.261072 0.510102 0.893673
O O5 0.619521 0.431395 0.536041
O O6 0.604580 0.100656 0.899483
O O7 0.000000 0.097127 0.750000
O O8 0.500000 0.081174 0.250000
O O9 0.500000 0.858382 0.250000
#
# Coordination Sequence:
#
# PCOD9281315 Si02
#       4
#     8   4   8   8
#     4  10  21  38  60  96 130 155 203 273 324 364
#     4  10  24  40  66  96 130 168 214 266 308 384
#     4  10  26  45  61  90 140 172 207 259 319 380
#     4  12  24  39  71  97 126 169 219 261 320 377
#
# _framework density 23.700369999999999
#
# number of rings (size 3 to 8) (size 9 to 14) (size 15 to 20)
#    0.857    0.571    1.429    4.286    4.000    2.286 
#    0.000    0.000    0.000    5.143    0.000    0.000 
#    0.000    0.000    0.000    0.000    0.000    0.000 
#
# Total GULP energy -78327.139905 kJ/mol
# GULP energy per Si atom -5594.795708 kJ/mol
# Density = 2.364643 g / cm^3
# Si number density = 23.700370 Si / 1000 Ang^3
#
#
#
# Elastic Constant Matrix: (Units=GPa)
#
#
# Indices 1 2 3 4 5 6 
#
# 1 38.8825 25.9439 24.2612 -0.0005 5.8884 0.0007
# 2 25.9439 118.8239 55.6099 0.0000 25.5550 0.0000
# 3 24.2612 55.6099 186.0077 -0.0007 13.5917 0.0010
# 4 -0.0005 0.0000 -0.0007 341.1801 0.0004 -455.4674
# 5 5.8884 25.5550 13.5917 0.0004 30.8953 -0.0005
# 6 0.0007 0.0000 0.0010 -455.4674 -0.0005 652.9941
#
#
#
# Elastic Compliance Matrix: (Units=1/GPa)
#
#
# Indices 1 2 3 4 5 6 
#
# 1 0.030961 -0.005615 -0.002343 0.000000 -0.000226 0.000000
# 2 -0.005615 0.012545 -0.002416 0.000000 -0.008244 0.000000
# 3 -0.002343 -0.002416 0.006432 0.000000 -0.000385 0.000000
# 4 0.000000 0.000000 0.000000 0.042574 0.000000 0.029695
# 5 -0.000226 -0.008244 -0.000385 0.000000 0.039399 0.000000
# 6 0.000000 0.000000 0.000000 0.029695 0.000000 0.022244
#
#
# Mechanical properties :
#
#
# Convention : Reuss Voigt Hill
#
# Bulk Modulus (GPa) = 34.25726 61.70488 47.98107
# Shear Modulus (GPa) = 27.08073 220.87386 123.97729
#
# Velocity S-wave (km/s) = 3.38395 9.66419 7.24043
# Velocity P-wave (km/s) = 5.45471 12.27276 9.49670
#
# Compressibility (1/GPa) = 0.02919090
#
# Stress axis : x y z
#
# Youngs Moduli (GPa) = 32.29846 79.71050 155.46959
#
# Poissons Ratio (x) = 0.44757 0.36429
# Poissons Ratio (y) = 0.18135 0.37560
# Poissons Ratio (z) = 0.07568 0.19257
#
# Static dielectric constant tensor:
#      x y z
#    x 1.978610 0.000000 -0.027860 
#    y 0.000000 1.924760 0.000000 
#    z -0.027860 0.000000 1.876390 
# 
# From -- ./inp_files/24811.got.cif
#   From: 2010.05.17/outbox.cif.g08.bks.cpg/sg15_13_cif.got.tgz:24811.got - 2010.06.03 18:47:42.
