data_PCOD9281710
_publ_section_title
;
Structure prediction by ZEFSAII (Michael W. Deem and Ramdas Pophale) SiO2 
 PCOD9281710
Probable space group: C 2/C
;
_chemical_formula_sum "Si O2"
_cell_formula_units_Z 48
_cell_length_a 29.064727
_cell_length_b 9.330111
_cell_length_c 10.396986
_cell_angle_alpha 90.000000
_cell_angle_beta 124.548490
_cell_angle_gamma 90.000000
_cell_volume 2322.209488
_symmetry_space_group_name_H-M "C 2/C"
_symmetry_group_IT_number 15
_symmetry_cell_setting 'monoclinic'
loop_
_space_group_symop_operation_xyz
x,y,z
-x,y,1/2-z
-x,-y,-z
x,-y,1/2+z
1/2+x,1/2+y,z
1/2-x,1/2+y,1/2-z
1/2-x,1/2-y,-z
1/2+x,1/2-y,1/2+z
loop_
_atom_site_type_symbol
_atom_site_label
_atom_site_fract_x
_atom_site_fract_y
_atom_site_fract_z
Si Si1 0.210393 0.452604 0.740939
Si Si2 0.437062 0.046003 0.425075
Si Si3 0.124897 0.390815 0.940773
Si Si4 0.159729 0.901645 0.587825
Si Si5 0.814894 0.286184 0.127912
Si Si6 0.128193 0.220804 0.546994
O O1 0.184400 0.533365 0.573802
O O2 0.276437 0.439850 0.846919
O O3 0.190178 0.556890 0.820167
O O4 0.180907 0.297668 0.703037
O O5 0.407283 0.059745 0.238210
O O6 0.424820 0.197466 0.478111
O O7 0.500000 0.000000 0.500000
O O8 0.411306 0.935930 0.490052
O O9 0.134908 0.219789 0.954748
O O10 0.164048 0.822072 0.730347
O O11 0.127589 0.050742 0.550298
O O12 0.750000 0.250000 0.000000
O O13 0.855907 0.264462 0.073419
#
# Coordination Sequence:
#
# PCOD9281710 Si02
#       6
#     8   8   8   8   8   8
#     4  10  21  38  64 100 146 191 225 267 336 434
#     4  11  26  49  74  99 126 182 252 304 352 403
#     4  10  25  44  72 102 138 180 236 290 344 425
#     4  11  22  39  63 106 147 180 220 280 349 431
#     4  11  21  38  59  95 151 190 232 271 340 423
#     4  11  24  38  67  97 138 190 227 290 349 405
#
# _framework density 20.669971
#
# number of rings (size 3 to 8) (size 9 to 14) (size 15 to 20)
#    0.000    1.333    3.333    1.500   16.333    0.000 
#    0.000    5.833    0.000    4.000    0.000    0.000 
#    0.000    0.000    0.000    0.000    0.000    0.000 
#
# Total GULP energy -133889.293424 kJ/mol
# GULP energy per Si atom -5578.720559 kJ/mol
# Density = 2.062293 g / cm^3
# Si number density = 20.669971 Si / 1000 Ang^3
#
#
#
# Elastic Constant Matrix: (Units=GPa)
#
#
# Indices 1 2 3 4 5 6 
#
# 1 144.6150 55.5739 69.1318 0.0000 -6.0720 0.0000
# 2 55.5739 155.6258 45.9944 0.0000 8.2697 0.0000
# 3 69.1318 45.9944 123.3684 0.0000 -15.0768 0.0000
# 4 0.0000 0.0000 0.0000 22.6868 0.0000 -2.2615
# 5 -6.0720 8.2697 -15.0768 0.0000 33.8322 0.0000
# 6 0.0000 0.0000 0.0000 -2.2615 0.0000 23.4365
#
#
#
# Elastic Compliance Matrix: (Units=1/GPa)
#
#
# Indices 1 2 3 4 5 6 
#
# 1 0.010055 -0.002184 -0.004796 0.000000 0.000201 0.000000
# 2 -0.002184 0.008025 -0.002174 0.000000 -0.003322 0.000000
# 3 -0.004796 -0.002174 0.012229 0.000000 0.005121 0.000000
# 4 0.000000 0.000000 0.000000 0.044507 0.000000 0.004295
# 5 0.000201 -0.003322 0.005121 0.000000 0.032688 0.000000
# 6 0.000000 0.000000 0.000000 0.004295 0.000000 0.043083
#
#
# Mechanical properties :
#
#
# Convention : Reuss Voigt Hill
#
# Bulk Modulus (GPa) = 83.32022 85.00104 84.16063
# Shear Modulus (GPa) = 28.91935 32.85170 30.88552
#
# Velocity S-wave (km/s) = 3.74451 3.99098 3.86971
# Velocity P-wave (km/s) = 7.68716 7.90250 7.79557
#
# Compressibility (1/GPa) = 0.01200189
#
# Stress axis : x y z
#
# Youngs Moduli (GPa) = 99.45043 124.61662 81.76977
#
# Poissons Ratio (x) = 0.27217 0.39215
# Poissons Ratio (y) = 0.21721 0.17776
# Poissons Ratio (z) = 0.47694 0.27090
#
# Static dielectric constant tensor:
#      x y z
#    x 1.796860 0.000000 -0.031590 
#    y 0.000000 1.811950 0.000000 
#    z -0.031590 0.000000 1.810480 
# 
# From -- ./inp_files/121617.got.cif
#   From: 2010.05.17/outbox.cif.g08.bks.cpg/sg15_61_cif.got.tgz:121617.got - 2010.06.03 18:47:42.
