data_PCOD9281495
_publ_section_title
;
Structure prediction by ZEFSAII (Michael W. Deem and Ramdas Pophale) SiO2 
 PCOD9281495
Probable space group: C 2/C
;
_chemical_formula_sum "Si O2"
_cell_formula_units_Z 60
_cell_length_a 20.374707
_cell_length_b 26.793185
_cell_length_c 5.287311
_cell_angle_alpha 90.000000
_cell_angle_beta 67.029065
_cell_angle_gamma 90.000000
_cell_volume 2657.480605
_symmetry_space_group_name_H-M "C 2/C"
_symmetry_group_IT_number 15
_symmetry_cell_setting 'monoclinic'
loop_
_space_group_symop_operation_xyz
x,y,z
-x,y,1/2-z
-x,-y,-z
x,-y,1/2+z
1/2+x,1/2+y,z
1/2-x,1/2+y,1/2-z
1/2-x,1/2-y,-z
1/2+x,1/2-y,1/2+z
loop_
_atom_site_type_symbol
_atom_site_label
_atom_site_fract_x
_atom_site_fract_y
_atom_site_fract_z
Si Si1 0.633084 0.531768 0.909994
Si Si2 0.952887 0.132516 0.565558
Si Si3 0.698523 0.030392 0.816859
Si Si4 0.288321 0.190401 0.154399
Si Si5 0.856885 0.780411 0.390097
Si Si6 0.398011 0.195645 0.595131
Si Si7 0.000000 0.626073 0.750000
Si Si8 0.379924 0.888973 0.754306
O O1 0.618540 0.492568 0.705418
O O2 0.587587 0.580587 0.924144
O O3 0.717963 0.543632 0.779699
O O4 0.895326 0.176178 0.684980
O O5 0.000000 0.129225 0.750000
O O6 0.000000 0.143190 0.250000
O O7 0.648946 0.074966 0.986572
O O8 0.685792 0.987322 0.049044
O O9 0.206403 0.197025 0.344797
O O10 0.326080 0.236435 0.252441
O O11 0.314071 0.134883 0.198720
O O12 0.316683 0.195270 0.824876
O O13 0.911684 0.751771 0.494120
O O14 0.443715 0.165820 0.725460
O O15 0.409647 0.160825 0.338840
O O16 0.051894 0.592041 0.502070
#
# Coordination Sequence:
#
# PCOD9281495 Si02
#       8
#     8   8   8   8   8   8   4   8
#     4  10  22  46  72  96 125 168 220 267 319 392
#     4  12  28  44  63 100 136 177 213 265 330 383
#     4  10  23  41  69 102 128 159 211 279 338 372
#     4   9  20  39  66  90 120 169 215 272 328 380
#     4  10  22  41  60  93 129 161 219 271 332 376
#     4  10  21  38  62  90 119 174 218 261 313 386
#     4  10  22  38  60  86 126 174 222 248 308 392
#     4  10  21  39  61  92 125 166 213 261 314 398
#
# _framework density 22.577776
#
# number of rings (size 3 to 8) (size 9 to 14) (size 15 to 20)
#    0.000    1.867    0.000    2.400    5.600    4.800 
#    9.600    0.667    0.000    0.000    0.000    0.000 
#    0.000    0.000    0.000    0.000    0.000    0.000 
#
# Total GULP energy -167504.480929 kJ/mol
# GULP energy per Si atom -5583.482698 kJ/mol
# Density = 2.252639 g / cm^3
# Si number density = 22.577776 Si / 1000 Ang^3
#
#
#
# Elastic Constant Matrix: (Units=GPa)
#
#
# Indices 1 2 3 4 5 6 
#
# 1 32.5010 4.5210 9.3644 0.0000 -11.2508 0.0000
# 2 4.5210 36.7404 -10.3250 0.0000 -19.3883 0.0000
# 3 9.3644 -10.3250 44.2249 0.0000 2.4923 0.0000
# 4 0.0000 0.0000 0.0000 22.5549 0.0000 3.6999
# 5 -11.2508 -19.3883 2.4923 0.0000 26.3537 0.0000
# 6 0.0000 0.0000 0.0000 3.6999 0.0000 6.1042
#
#
#
# Elastic Compliance Matrix: (Units=1/GPa)
#
#
# Indices 1 2 3 4 5 6 
#
# 1 0.039873 0.003336 -0.008809 0.000000 0.020309 0.000000
# 2 0.003336 0.048270 0.008527 0.000000 0.036130 0.000000
# 3 -0.008809 0.008527 0.026467 0.000000 0.000010 0.000000
# 4 0.000000 0.000000 0.000000 0.049232 0.000000 -0.029841
# 5 0.020309 0.036130 0.000010 0.000000 0.073195 0.000000
# 6 0.000000 0.000000 0.000000 -0.029841 0.000000 0.181910
#
#
# Mechanical properties :
#
#
# Convention : Reuss Voigt Hill
#
# Bulk Modulus (GPa) = 8.28382 13.39857 10.84120
# Shear Modulus (GPa) = 11.03563 18.32960 14.68262
#
# Velocity S-wave (km/s) = 2.21324 2.85238 2.55289
# Velocity P-wave (km/s) = 3.19503 4.09821 3.67448
#
# Compressibility (1/GPa) = 0.12071726
#
# Stress axis : x y z
#
# Youngs Moduli (GPa) = 25.07986 20.71688 37.78283
#
# Poissons Ratio (x) = -0.06910 0.33281
# Poissons Ratio (y) = -0.08365 -0.32217
# Poissons Ratio (z) = 0.22092 -0.17665
#
# Static dielectric constant tensor:
#      x y z
#    x 1.945920 0.000000 0.050160 
#    y 0.000000 1.812650 0.000000 
#    z 0.050160 0.000000 1.882140 
# 
# From -- ./inp_files/14395.got.cif
#   From: 2010.05.17/outbox.cif.g08.bks.cpg/sg15_8_cif.got.tgz:14395.got - 2010.06.03 18:47:42.
