data_PCOD9281407
_publ_section_title
;
Structure prediction by ZEFSAII (Michael W. Deem and Ramdas Pophale) SiO2 
 PCOD9281407
Probable space group: C 2/C
;
_chemical_formula_sum "Si O2"
_cell_formula_units_Z 44
_cell_length_a 7.731466
_cell_length_b 23.067853
_cell_length_c 14.063378
_cell_angle_alpha 90.000000
_cell_angle_beta 45.028299
_cell_angle_gamma 90.000000
_cell_volume 1774.426744
_symmetry_space_group_name_H-M "C 2/C"
_symmetry_group_IT_number 15
_symmetry_cell_setting 'monoclinic'
loop_
_space_group_symop_operation_xyz
x,y,z
-x,y,1/2-z
-x,-y,-z
x,-y,1/2+z
1/2+x,1/2+y,z
1/2-x,1/2+y,1/2-z
1/2-x,1/2-y,-z
1/2+x,1/2-y,1/2+z
loop_
_atom_site_type_symbol
_atom_site_label
_atom_site_fract_x
_atom_site_fract_y
_atom_site_fract_z
Si Si1 0.000000 0.184204 0.250000
Si Si2 0.705207 0.493776 0.302420
Si Si3 0.455860 0.784620 0.128852
Si Si4 0.000000 0.613903 0.750000
Si Si5 0.812287 0.534493 0.467591
Si Si6 0.000000 0.265812 0.750000
Si Si7 0.533376 0.840607 0.572214
O O1 0.933102 0.227919 0.363554
O O2 0.238041 0.149583 0.191141
O O3 0.777735 0.429107 0.311439
O O4 0.744414 0.533933 0.380702
O O5 0.418470 0.495916 0.393051
O O6 0.916762 0.506586 0.143121
O O7 0.546199 0.842309 0.145409
O O8 0.165588 0.771808 0.256110
O O9 0.443042 0.796469 0.023013
O O10 0.838770 0.598923 0.495927
O O11 0.865779 0.310793 0.872285
#
# Coordination Sequence:
#
# PCOD9281407 Si02
#       7
#     4   8   8   4   8   4   8
#     4   9  22  42  58  90 140 166 216 265 322 384
#     4   9  19  41  61  96 125 173 210 278 336 384
#     4  10  21  38  61  91 129 174 213 262 320 395
#     4   9  20  39  62  88 126 173 218 259 328 390
#     4   9  19  37  68  88 127 165 220 263 334 392
#     4  10  22  37  60  92 136 161 218 270 320 386
#     4  11  21  40  62  97 120 177 214 271 322 398
#
# _framework density 24.796741999999998
#
# number of rings (size 3 to 8) (size 9 to 14) (size 15 to 20)
#    0.000    2.545    0.000    2.182    2.545    0.000 
#   22.909    3.636    0.000    0.000    0.000    0.000 
#    0.000    0.000    0.000    0.000    0.000    0.000 
#
# Total GULP energy -122729.912057 kJ/mol
# GULP energy per Si atom -5578.632366 kJ/mol
# Density = 2.474030 g / cm^3
# Si number density = 24.796742 Si / 1000 Ang^3
#
#
#
# Elastic Constant Matrix: (Units=GPa)
#
#
# Indices 1 2 3 4 5 6 
#
# 1 104.8093 29.5192 24.1713 0.0000 -7.6573 0.0000
# 2 29.5192 55.5373 7.5277 0.0000 -11.1296 0.0000
# 3 24.1713 7.5277 114.9911 0.0000 -15.1942 0.0000
# 4 0.0000 0.0000 0.0000 13.8278 0.0000 -19.4818
# 5 -7.6573 -11.1296 -15.1942 0.0000 47.9795 0.0000
# 6 0.0000 0.0000 0.0000 -19.4818 0.0000 3.8555
#
#
#
# Elastic Compliance Matrix: (Units=1/GPa)
#
#
# Indices 1 2 3 4 5 6 
#
# 1 0.011691 -0.005967 -0.002091 0.000000 -0.000180 0.000000
# 2 -0.005967 0.021981 0.000379 0.000000 0.004267 0.000000
# 3 -0.002091 0.000379 0.009475 0.000000 0.002755 0.000000
# 4 0.000000 0.000000 0.000000 -0.011818 0.000000 -0.059718
# 5 -0.000180 0.004267 0.002755 0.000000 0.022676 0.000000
# 6 0.000000 0.000000 0.000000 -0.059718 0.000000 -0.042387
#
#
# Mechanical properties :
#
#
# Convention : Reuss Voigt Hill
#
# Bulk Modulus (GPa) = 35.98398 44.19711 40.09054
# Shear Modulus (GPa) = 137.98102 27.40717 82.69410
#
# Velocity S-wave (km/s) = 7.46764 3.32817 5.78110
# Velocity P-wave (km/s) = 9.42853 5.71239 7.79515
#
# Compressibility (1/GPa) = 0.02779014
#
# Stress axis : x y z
#
# Youngs Moduli (GPa) = 85.53909 45.49399 105.54127
#
# Poissons Ratio (x) = 0.27144 0.22065
# Poissons Ratio (y) = 0.51037 -0.04000
# Poissons Ratio (z) = 0.17883 -0.01724
#
# Static dielectric constant tensor:
#      x y z
#    x 2.033460 0.000000 -0.117970 
#    y 0.000000 1.912320 0.000000 
#    z -0.117970 0.000000 2.145830 
# 
# From -- ./inp_files/193163.got.cif
#   From: 2010.05.17/outbox.cif.g08.bks.cpg/sg15_97_cif.got.tgz:193163.got - 2010.06.03 18:47:42.
