data_PCOD9281828
_publ_section_title
;
Structure prediction by ZEFSAII (Michael W. Deem and Ramdas Pophale) SiO2 
 PCOD9281828
Probable space group: C 2/C
;
_chemical_formula_sum "Si O2"
_cell_formula_units_Z 56
_cell_length_a 28.645857
_cell_length_b 11.632266
_cell_length_c 9.272946
_cell_angle_alpha 90.000000
_cell_angle_beta 115.615429
_cell_angle_gamma 90.000000
_cell_volume 2786.209173
_symmetry_space_group_name_H-M "C 2/C"
_symmetry_group_IT_number 15
_symmetry_cell_setting 'monoclinic'
loop_
_space_group_symop_operation_xyz
x,y,z
-x,y,1/2-z
-x,-y,-z
x,-y,1/2+z
1/2+x,1/2+y,z
1/2-x,1/2+y,1/2-z
1/2-x,1/2-y,-z
1/2+x,1/2-y,1/2+z
loop_
_atom_site_type_symbol
_atom_site_label
_atom_site_fract_x
_atom_site_fract_y
_atom_site_fract_z
Si Si1 0.300952 0.822366 0.103285
Si Si2 0.342052 0.198883 0.359210
Si Si3 0.814750 0.042122 0.749103
Si Si4 0.257664 0.943861 0.617966
Si Si5 0.047679 0.261495 0.409360
Si Si6 0.609058 0.645095 0.231191
Si Si7 0.011465 0.880964 0.434087
O O1 0.346678 0.741602 0.219776
O O2 0.285146 0.932100 0.172079
O O3 0.250000 0.750000 0.000000
O O4 0.319568 0.861020 0.971529
O O5 0.333023 0.337784 0.345610
O O6 0.303418 0.148720 0.188828
O O7 0.402890 0.173201 0.456596
O O8 0.771455 0.066100 0.572031
O O9 0.788425 0.952614 0.825767
O O10 0.862348 0.977398 0.734275
O O11 0.074607 0.173439 0.328342
O O12 0.022186 0.206327 0.516104
O O13 0.000000 0.313995 0.250000
O O14 0.570957 0.648798 0.045014
O O15 0.000000 0.885536 0.250000
O O16 0.000000 0.000000 0.500000
#
# Coordination Sequence:
#
# PCOD9281828 Si02
#       7
#     8   8   8   8   8   8   8
#     4  11  19  41  60  82 122 163 199 239 299 368
#     4  11  22  37  61  90 118 161 203 248 301 351
#     4  12  23  37  59  90 126 157 202 245 298 366
#     4  12  23  39  59  86 129 161 201 246 293 362
#     4   9  20  40  63  85 118 158 202 250 301 359
#     4  10  21  38  65  88 117 166 199 242 309 362
#     4  11  22  38  58  89 123 154 199 252 304 357
#
# _framework density 20.098994000000001
#
# number of rings (size 3 to 8) (size 9 to 14) (size 15 to 20)
#    0.000    1.143    4.286    3.429    0.000    3.429 
#    2.571    0.000    0.000    8.571    0.000    0.000 
#    0.000    0.000    0.000    0.000    0.000    0.000 
#
# Total GULP energy -156068.124100 kJ/mol
# GULP energy per Si atom -5573.861575 kJ/mol
# Density = 2.005325 g / cm^3
# Si number density = 20.098994 Si / 1000 Ang^3
#
#
#
# Elastic Constant Matrix: (Units=GPa)
#
#
# Indices 1 2 3 4 5 6 
#
# 1 89.1064 14.1637 42.2354 0.0000 27.4761 0.0000
# 2 14.1637 38.5983 2.7061 0.0000 8.7360 0.0000
# 3 42.2354 2.7061 145.6036 0.0000 20.0864 0.0000
# 4 0.0000 0.0000 0.0000 27.6452 0.0000 9.8594
# 5 27.4761 8.7360 20.0864 0.0000 39.0190 0.0000
# 6 0.0000 0.0000 0.0000 9.8594 0.0000 19.8916
#
#
#
# Elastic Compliance Matrix: (Units=1/GPa)
#
#
# Indices 1 2 3 4 5 6 
#
# 1 0.016128 -0.003693 -0.003398 0.000000 -0.008781 0.000000
# 2 -0.003693 0.028154 0.001140 0.000000 -0.004290 0.000000
# 3 -0.003398 0.001140 0.008114 0.000000 -0.002039 0.000000
# 4 0.000000 0.000000 0.000000 0.043940 0.000000 -0.021779
# 5 -0.008781 -0.004290 -0.002039 0.000000 0.033822 0.000000
# 6 0.000000 0.000000 0.000000 -0.021779 0.000000 0.061068
#
#
# Mechanical properties :
#
#
# Convention : Reuss Voigt Hill
#
# Bulk Modulus (GPa) = 24.69551 43.50207 34.09879
# Shear Modulus (GPa) = 23.08138 31.59134 27.33636
#
# Velocity S-wave (km/s) = 3.39246 3.96888 3.69194
# Velocity P-wave (km/s) = 5.25915 6.53403 5.93094
#
# Compressibility (1/GPa) = 0.04049319
#
# Stress axis : x y z
#
# Youngs Moduli (GPa) = 62.00509 35.51904 123.24665
#
# Poissons Ratio (x) = 0.13115 0.41882
# Poissons Ratio (y) = 0.22895 -0.14046
# Poissons Ratio (z) = 0.21071 -0.04048
#
# Static dielectric constant tensor:
#      x y z
#    x 1.947840 0.000000 0.115280 
#    y 0.000000 1.839090 0.000000 
#    z 0.115280 0.000000 1.779720 
# 
# From -- ./inp_files/69295.got.cif
#   From: 2010.05.17/outbox.cif.g08.bks.cpg/sg15_35_cif.got.tgz:69295.got - 2010.06.03 18:47:42.
