data_PCOD9281949
_publ_section_title
;
Structure prediction by ZEFSAII (Michael W. Deem and Ramdas Pophale) SiO2 
 PCOD9281949
Probable space group: C 2/C
;
_chemical_formula_sum "Si O2"
_cell_formula_units_Z 56
_cell_length_a 16.636519
_cell_length_b 5.031577
_cell_length_c 28.341875
_cell_angle_alpha 90.000000
_cell_angle_beta 121.305257
_cell_angle_gamma 90.000000
_cell_volume 2027.038857
_symmetry_space_group_name_H-M "C 2/C"
_symmetry_group_IT_number 15
_symmetry_cell_setting 'monoclinic'
loop_
_space_group_symop_operation_xyz
x,y,z
-x,y,1/2-z
-x,-y,-z
x,-y,1/2+z
1/2+x,1/2+y,z
1/2-x,1/2+y,1/2-z
1/2-x,1/2-y,-z
1/2+x,1/2-y,1/2+z
loop_
_atom_site_type_symbol
_atom_site_label
_atom_site_fract_x
_atom_site_fract_y
_atom_site_fract_z
Si Si1 0.911376 0.279650 0.470250
Si Si2 0.751973 0.021565 0.030445
Si Si3 0.740765 0.538991 0.634531
Si Si4 0.902275 0.869962 0.640055
Si Si5 0.300802 0.210437 0.282460
Si Si6 0.440634 0.324502 0.554566
Si Si7 0.407074 0.717814 0.729931
O O1 0.834886 0.501794 0.458738
O O2 0.995238 0.354067 0.459815
O O3 0.847047 0.079056 0.419306
O O4 0.941260 0.101667 0.525271
O O5 0.840689 0.919198 0.092482
O O6 0.750000 0.750000 0.000000
O O7 0.672816 0.256613 0.973984
O O8 0.819053 0.659908 0.623817
O O9 0.702697 0.741207 0.662949
O O10 0.807222 0.332116 0.682909
O O11 0.973296 0.795232 0.619170
O O12 0.926971 0.983034 0.698458
O O13 0.218887 0.406412 0.237281
O O14 0.391381 0.312803 0.280964
O O15 0.500000 0.896754 0.750000
#
# Coordination Sequence:
#
# PCOD9281949 Si02
#       7
#     8   8   8   8   8   8   8
#     4  11  21  41  69  96 143 182 229 295 352 439
#     4  10  21  38  66  94 137 179 224 281 354 429
#     4  11  22  42  68  94 135 185 228 288 369 423
#     4  10  22  42  62  98 131 177 231 281 356 429
#     4  10  22  42  66  97 132 178 234 291 357 430
#     4   9  23  39  64 103 130 179 232 279 354 428
#     4  11  24  43  66  96 135 177 235 297 360 429
#
# _framework density 27.626507
#
# number of rings (size 3 to 8) (size 9 to 14) (size 15 to 20)
#    0.857    0.857    2.857    1.286    2.000    2.286 
#    0.000    1.429    0.000    0.000    0.000    0.000 
#    0.000    0.000    0.000    0.000    0.000    0.000 
#
# Total GULP energy -156109.714515 kJ/mol
# GULP energy per Si atom -5575.346947 kJ/mol
# Density = 2.756363 g / cm^3
# Si number density = 27.626507 Si / 1000 Ang^3
#
#
#
# Elastic Constant Matrix: (Units=GPa)
#
#
# Indices 1 2 3 4 5 6 
#
# 1 198.8034 12.5552 27.1984 -0.0001 -54.1299 0.0003
# 2 12.5552 77.9069 9.2473 -0.0008 -17.1567 -0.0002
# 3 27.1984 9.2473 80.1674 0.0002 -30.3979 -0.0001
# 4 -0.0001 -0.0008 0.0002 35.0505 0.0000 -15.3376
# 5 -54.1299 -17.1567 -30.3979 0.0000 62.6530 -0.0001
# 6 0.0003 -0.0002 -0.0001 -15.3376 -0.0001 43.6505
#
#
#
# Elastic Compliance Matrix: (Units=1/GPa)
#
#
# Indices 1 2 3 4 5 6 
#
# 1 0.006581 0.000205 -0.000097 0.000000 0.005695 0.000000
# 2 0.000205 0.013668 -0.000196 0.000000 0.003825 0.000000
# 3 -0.000097 -0.000196 0.015290 0.000000 0.007281 0.000000
# 4 0.000000 0.000000 0.000000 0.033714 0.000000 0.011846
# 5 0.005695 0.003825 0.007281 0.000000 0.025461 0.000000
# 6 0.000000 0.000000 0.000000 0.011846 0.000000 0.027072
#
#
# Mechanical properties :
#
#
# Convention : Reuss Voigt Hill
#
# Bulk Modulus (GPa) = 28.27733 50.54218 39.40975
# Shear Modulus (GPa) = 37.38317 48.79591 43.08954
#
# Velocity S-wave (km/s) = 3.68253 4.20726 3.95361
# Velocity P-wave (km/s) = 5.32345 6.47580 5.92769
#
# Compressibility (1/GPa) = 0.03536402
#
# Stress axis : x y z
#
# Youngs Moduli (GPa) = 151.95262 73.16155 65.40122
#
# Poissons Ratio (x) = -0.01500 0.00635
# Poissons Ratio (y) = -0.03116 0.01281
# Poissons Ratio (z) = 0.01474 0.01433
#
# Static dielectric constant tensor:
#      x y z
#    x 2.341220 0.000000 -0.025670 
#    y 0.000000 2.245090 0.000000 
#    z -0.025670 0.000000 2.457030 
# 
# From -- ./inp_files/315123.got.cif
#   From: 2010.05.17/outbox.cif.g08.bks.cpg/sg15_158_cif.got.tgz:315123.got - 2010.06.03 18:47:42.
