data_PCOD9281388
_publ_section_title
;
Structure prediction by ZEFSAII (Michael W. Deem and Ramdas Pophale) SiO2 
 PCOD9281388
Probable space group: C 2/C
;
_chemical_formula_sum "Si O2"
_cell_formula_units_Z 32
_cell_length_a 15.885639
_cell_length_b 6.915637
_cell_length_c 27.421657
_cell_angle_alpha 90.000000
_cell_angle_beta 150.864690
_cell_angle_gamma 90.000000
_cell_volume 1466.719117
_symmetry_space_group_name_H-M "C 2/C"
_symmetry_group_IT_number 15
_symmetry_cell_setting 'monoclinic'
loop_
_space_group_symop_operation_xyz
x,y,z
-x,y,1/2-z
-x,-y,-z
x,-y,1/2+z
1/2+x,1/2+y,z
1/2-x,1/2+y,1/2-z
1/2-x,1/2-y,-z
1/2+x,1/2-y,1/2+z
loop_
_atom_site_type_symbol
_atom_site_label
_atom_site_fract_x
_atom_site_fract_y
_atom_site_fract_z
Si Si1 0.578560 0.680569 0.840647
Si Si2 0.334707 0.968721 0.243438
Si Si3 0.183684 0.974569 0.067381
Si Si4 0.020668 0.877109 0.890688
O O1 0.500000 0.604875 0.750000
O O2 0.605689 0.514153 0.893276
O O3 0.437510 0.831092 0.790403
O O4 0.741610 0.817171 0.911141
O O5 0.303571 0.898245 0.171852
O O6 0.150735 0.011521 0.175522
O O7 0.447502 0.817732 0.330466
O O8 0.000000 0.000000 0.000000
O O9 0.149049 0.852336 0.001356
#
# Coordination Sequence:
#
# PCOD9281388 Si02
#       4
#     8   8   8   8
#     4  10  21  38  62  89 122 159 200 246 301 359
#     4  10  21  38  61  90 123 156 201 253 300 357
#     4   9  21  39  61  90 124 158 200 254 296 353
#     4  11  20  39  64  86 122 164 201 245 308 358
#
# _framework density 21.817402999999999
#
# number of rings (size 3 to 8) (size 9 to 14) (size 15 to 20)
#    0.000    2.000    2.500    0.750    0.000    4.000 
#    0.000    6.250    0.000    0.000    0.000    0.000 
#    0.000    0.000    0.000    0.000    0.000    0.000 
#
# Total GULP energy -89421.583311 kJ/mol
# GULP energy per Si atom -5588.848957 kJ/mol
# Density = 2.176775 g / cm^3
# Si number density = 21.817403 Si / 1000 Ang^3
#
#
#
# Elastic Constant Matrix: (Units=GPa)
#
#
# Indices 1 2 3 4 5 6 
#
# 1 112.1482 39.7099 36.0654 0.0000 -4.7567 0.0002
# 2 39.7099 53.3010 31.7785 -0.0001 -25.1929 0.0005
# 3 36.0654 31.7785 70.4190 0.0000 -23.0298 0.0000
# 4 0.0000 -0.0001 0.0000 27.2506 0.0000 1.0615
# 5 -4.7567 -25.1929 -23.0298 0.0000 65.1176 0.0000
# 6 0.0002 0.0005 0.0000 1.0615 0.0000 3.5618
#
#
#
# Elastic Compliance Matrix: (Units=1/GPa)
#
#
# Indices 1 2 3 4 5 6 
#
# 1 0.013388 -0.009613 -0.003862 0.000000 -0.004107 0.000000
# 2 -0.009613 0.035347 -0.007673 0.000000 0.010259 -0.000004
# 3 -0.003862 -0.007673 0.021008 0.000000 0.004179 0.000001
# 4 0.000000 0.000000 0.000000 0.037127 0.000000 -0.011065
# 5 -0.004107 0.010259 0.004179 0.000000 0.020504 -0.000001
# 6 0.000000 -0.000004 0.000001 -0.011065 -0.000001 0.284055
#
#
# Mechanical properties :
#
#
# Convention : Reuss Voigt Hill
#
# Bulk Modulus (GPa) = 36.43277 50.10842 43.27059
# Shear Modulus (GPa) = 10.80207 27.74028 19.27118
#
# Velocity S-wave (km/s) = 2.22753 3.56964 2.97525
# Velocity P-wave (km/s) = 4.83229 6.32510 5.62840
#
# Compressibility (1/GPa) = 0.02744781
#
# Stress axis : x y z
#
# Youngs Moduli (GPa) = 74.69161 28.29097 47.60131
#
# Poissons Ratio (x) = 0.27197 0.18383
# Poissons Ratio (y) = 0.71803 0.36523
# Poissons Ratio (z) = 0.28845 0.21707
#
# Static dielectric constant tensor:
#      x y z
#    x 1.828800 0.000000 -0.011160 
#    y 0.000000 1.739200 0.000000 
#    z -0.011160 0.000000 1.810510 
# 
# From -- ./inp_files/93446.got.cif
#   From: 2010.05.17/outbox.cif.g08.bks.cpg/sg15_47_cif.got.tgz:93446.got - 2010.06.03 18:47:42.
