data_PCOD9281621
_publ_section_title
;
Structure prediction by ZEFSAII (Michael W. Deem and Ramdas Pophale) SiO2 
 PCOD9281621
Probable space group: C 2/C
;
_chemical_formula_sum "Si O2"
_cell_formula_units_Z 60
_cell_length_a 15.512236
_cell_length_b 27.474585
_cell_length_c 20.933136
_cell_angle_alpha 90.000000
_cell_angle_beta 161.235259
_cell_angle_gamma 90.000000
_cell_volume 2869.908548
_symmetry_space_group_name_H-M "C 2/C"
_symmetry_group_IT_number 15
_symmetry_cell_setting 'monoclinic'
loop_
_space_group_symop_operation_xyz
x,y,z
-x,y,1/2-z
-x,-y,-z
x,-y,1/2+z
1/2+x,1/2+y,z
1/2-x,1/2+y,1/2-z
1/2-x,1/2-y,-z
1/2+x,1/2-y,1/2+z
loop_
_atom_site_type_symbol
_atom_site_label
_atom_site_fract_x
_atom_site_fract_y
_atom_site_fract_z
Si Si1 0.491032 0.337069 0.445602
Si Si2 0.000000 0.761274 0.750000
Si Si3 0.247084 0.342227 0.736476
Si Si4 0.600081 0.430576 0.936625
Si Si5 0.268957 0.525751 0.709595
Si Si6 0.382055 0.078940 0.770817
Si Si7 0.939909 0.264369 0.342150
Si Si8 0.644219 0.367624 0.284035
O O1 0.708659 0.346022 0.654383
O O2 0.238878 0.370775 0.288801
O O3 0.352853 0.284492 0.349031
O O4 0.534223 0.349149 0.401457
O O5 0.013093 0.727151 0.820109
O O6 0.714107 0.786444 0.563957
O O7 0.379429 0.388558 0.793370
O O8 0.414454 0.293219 0.838307
O O9 0.936764 0.342172 0.496837
O O10 0.491151 0.485103 0.853544
O O11 0.755092 0.430246 0.112842
O O12 0.801444 0.419727 0.019675
O O13 0.224534 0.540283 0.752451
O O14 0.312267 0.575356 0.701077
O O15 0.000000 0.500000 0.500000
O O16 0.500000 0.361254 0.250000
#
# Coordination Sequence:
#
# PCOD9281621 Si02
#       8
#     8   4   8   8   8   8   8   8
#     4  10  23  44  65  94 134 171 217 266 323 389
#     4  10  22  30  60  98 130 180 206 250 320 386
#     4  11  23  42  66  94 133 173 213 272 325 381
#     4  10  21  38  63  90 127 165 210 255 321 382
#     4  11  22  40  60  90 124 161 207 265 319 383
#     4   9  22  38  60  92 126 166 208 255 312 389
#     4  11  21  38  61  96 137 173 221 260 319 393
#     4  11  26  46  67  94 125 165 226 278 329 389
#
# _framework density 20.906589
#
# number of rings (size 3 to 8) (size 9 to 14) (size 15 to 20)
#    0.000    1.600    2.667    1.200    5.600    0.533 
#    0.000    0.667    0.000    0.000    0.000    0.000 
#    0.000    0.000    0.000    0.000    0.000    0.000 
#
# Total GULP energy -167090.574369 kJ/mol
# GULP energy per Si atom -5569.685812 kJ/mol
# Density = 2.085900 g / cm^3
# Si number density = 20.906589 Si / 1000 Ang^3
#
#
#
# Elastic Constant Matrix: (Units=GPa)
#
#
# Indices 1 2 3 4 5 6 
#
# 1 101.9768 8.9418 6.2472 -0.0419 -0.6365 -0.0019
# 2 8.9418 65.2471 -2.8838 -0.0366 1.7614 0.0005
# 3 6.2472 -2.8838 41.8450 -0.1726 -2.3587 0.0693
# 4 -0.0419 -0.0366 -0.1726 21.2609 -0.0239 -1.6592
# 5 -0.6365 1.7614 -2.3587 -0.0239 25.4942 -0.0255
# 6 -0.0019 0.0005 0.0693 -1.6592 -0.0255 13.5250
#
#
#
# Elastic Compliance Matrix: (Units=1/GPa)
#
#
# Indices 1 2 3 4 5 6 
#
# 1 0.010032 -0.001450 -0.001586 0.000005 0.000204 0.000011
# 2 -0.001450 0.015607 0.001236 0.000033 -0.001000 -0.000005
# 3 -0.001586 0.001236 0.024341 0.000191 0.002127 -0.000098
# 4 0.000005 0.000033 0.000191 0.047491 0.000066 0.005825
# 5 0.000204 -0.001000 0.002127 0.000066 0.039496 0.000072
# 6 0.000011 -0.000005 -0.000098 0.005825 0.000072 0.074652
#
#
# Mechanical properties :
#
#
# Convention : Reuss Voigt Hill
#
# Bulk Modulus (GPa) = 21.56209 25.96437 23.76323
# Shear Modulus (GPa) = 21.67514 25.17358 23.42436
#
# Velocity S-wave (km/s) = 3.22337 3.47378 3.35091
# Velocity P-wave (km/s) = 4.91827 5.34188 5.13445
#
# Compressibility (1/GPa) = 0.04637770
#
# Stress axis : x y z
#
# Youngs Moduli (GPa) = 99.68330 64.07475 41.08373
#
# Poissons Ratio (x) = 0.09293 0.06516
# Poissons Ratio (y) = 0.14458 -0.05077
# Poissons Ratio (z) = 0.15811 -0.07919
#
# Static dielectric constant tensor:
#      x y z
#    x 1.778010 -0.000570 -0.082920 
#    y -0.000570 2.156750 -0.002930 
#    z -0.082920 -0.002930 1.630430 
# 
# From -- ./inp_files/245831.got.cif
#   From: 2010.05.17/outbox.cif.g08.bks.cpg/sg15_123_cif.got.tgz:245831.got - 2010.06.03 18:47:42.
