data_PCOD9281830
_publ_section_title
;
Structure prediction by ZEFSAII (Michael W. Deem and Ramdas Pophale) SiO2 
 PCOD9281830
Probable space group: C 2/C
;
_chemical_formula_sum "Si O2"
_cell_formula_units_Z 56
_cell_length_a 9.328658
_cell_length_b 21.909291
_cell_length_c 12.425742
_cell_angle_alpha 90.000000
_cell_angle_beta 71.601123
_cell_angle_gamma 90.000000
_cell_volume 2409.806249
_symmetry_space_group_name_H-M "C 2/C"
_symmetry_group_IT_number 15
_symmetry_cell_setting 'monoclinic'
loop_
_space_group_symop_operation_xyz
x,y,z
-x,y,1/2-z
-x,-y,-z
x,-y,1/2+z
1/2+x,1/2+y,z
1/2-x,1/2+y,1/2-z
1/2-x,1/2-y,-z
1/2+x,1/2-y,1/2+z
loop_
_atom_site_type_symbol
_atom_site_label
_atom_site_fract_x
_atom_site_fract_y
_atom_site_fract_z
Si Si1 0.912265 0.425741 0.595494
Si Si2 0.904658 0.315343 0.941577
Si Si3 0.447012 0.690714 0.654429
Si Si4 0.587214 0.353775 0.916846
Si Si5 0.118423 0.533282 0.629366
Si Si6 0.367633 0.479580 0.707896
Si Si7 0.881726 0.275866 0.192442
O O1 0.955155 0.358336 0.621705
O O2 0.888299 0.425121 0.473563
O O3 0.767435 0.455084 0.684472
O O4 0.052683 0.468761 0.598041
O O5 0.939804 0.248593 0.887304
O O6 0.753181 0.345017 0.930853
O O7 0.889477 0.308182 0.073966
O O8 0.500000 0.657152 0.750000
O O9 0.466781 0.653741 0.540806
O O10 0.280549 0.715184 0.715106
O O11 0.571873 0.418728 0.864683
O O12 0.578585 0.294994 0.841455
O O13 0.281581 0.522667 0.643462
O O14 0.000000 0.551697 0.750000
O O15 0.500000 0.506432 0.750000
O O16 0.000000 0.300757 0.250000
#
# Coordination Sequence:
#
# PCOD9281830 Si02
#       7
#     8   8   8   8   8   8   8
#     4  10  21  38  65  89 116 156 206 255 303 358
#     4  11  21  35  62  87 113 167 214 247 298 368
#     4  11  20  36  60  84 126 173 203 246 300 353
#     4  11  21  37  59  89 122 163 215 248 296 368
#     4   9  20  40  64  91 116 151 199 258 309 367
#     4  11  23  38  63  93 123 158 200 255 312 375
#     4  11  23  36  54  87 126 165 205 253 298 352
#
# _framework density 23.238382000000001
#
# number of rings (size 3 to 8) (size 9 to 14) (size 15 to 20)
#    0.000    1.429    4.286    2.143    0.000    4.571 
#    0.000    0.000    0.000    2.571    0.000    0.000 
#    0.000    0.000    0.000    0.000    0.000    0.000 
#
# Total GULP energy -156725.196667 kJ/mol
# GULP energy per Si atom -5597.328452 kJ/mol
# Density = 2.318549 g / cm^3
# Si number density = 23.238382 Si / 1000 Ang^3
#
#
#
# Elastic Constant Matrix: (Units=GPa)
#
#
# Indices 1 2 3 4 5 6 
#
# 1 121.0665 18.2243 43.8291 0.0000 24.3831 0.0000
# 2 18.2243 56.4126 6.6785 0.0000 5.8679 0.0000
# 3 43.8291 6.6785 114.8136 0.0000 11.3276 0.0000
# 4 0.0000 0.0000 0.0000 13.4457 0.0000 2.4123
# 5 24.3831 5.8679 11.3276 0.0000 40.0566 0.0000
# 6 0.0000 0.0000 0.0000 2.4123 0.0000 11.6708
#
#
#
# Elastic Compliance Matrix: (Units=1/GPa)
#
#
# Indices 1 2 3 4 5 6 
#
# 1 0.010995 -0.002582 -0.003522 0.000000 -0.005318 0.000000
# 2 -0.002582 0.018680 0.000014 0.000000 -0.001169 0.000000
# 3 -0.003522 0.000014 0.010125 0.000000 -0.000721 0.000000
# 4 0.000000 0.000000 0.000000 0.077238 0.000000 -0.015965
# 5 -0.005318 -0.001169 -0.000721 0.000000 0.028577 0.000000
# 6 0.000000 0.000000 0.000000 -0.015965 0.000000 0.088983
#
#
# Mechanical properties :
#
#
# Convention : Reuss Voigt Hill
#
# Bulk Modulus (GPa) = 36.20493 47.75071 41.97782
# Shear Modulus (GPa) = 19.53241 27.93868 23.73555
#
# Velocity S-wave (km/s) = 2.90232 3.47113 3.19939
# Velocity P-wave (km/s) = 5.18121 6.05457 5.63484
#
# Compressibility (1/GPa) = 0.02762055
#
# Stress axis : x y z
#
# Youngs Moduli (GPa) = 90.95148 53.53184 98.76836
#
# Poissons Ratio (x) = 0.13820 0.34789
# Poissons Ratio (y) = 0.23481 -0.00141
# Poissons Ratio (z) = 0.32036 -0.00076
#
# Static dielectric constant tensor:
#      x y z
#    x 1.865760 0.000000 0.005220 
#    y 0.000000 1.858030 0.000000 
#    z 0.005220 0.000000 1.867580 
# 
# From -- ./inp_files/81275.got.cif
#   From: 2010.05.17/outbox.cif.g08.bks.cpg/sg15_41_cif.got.tgz:81275.got - 2010.06.03 18:47:42.
