data_PCOD9281035
_publ_section_title
;
Structure prediction by ZEFSAII (Michael W. Deem and Ramdas Pophale) SiO2 
 PCOD9281035
Probable space group: C 2/C
;
_chemical_formula_sum "Si O2"
_cell_formula_units_Z 56
_cell_length_a 19.462535
_cell_length_b 26.853354
_cell_length_c 5.604196
_cell_angle_alpha 90.000000
_cell_angle_beta 98.244006
_cell_angle_gamma 90.000000
_cell_volume 2898.678720
_symmetry_space_group_name_H-M "C 2/C"
_symmetry_group_IT_number 15
_symmetry_cell_setting 'monoclinic'
loop_
_space_group_symop_operation_xyz
x,y,z
-x,y,1/2-z
-x,-y,-z
x,-y,1/2+z
1/2+x,1/2+y,z
1/2-x,1/2+y,1/2-z
1/2-x,1/2-y,-z
1/2+x,1/2-y,1/2+z
loop_
_atom_site_type_symbol
_atom_site_label
_atom_site_fract_x
_atom_site_fract_y
_atom_site_fract_z
Si Si1 0.664231 0.380545 0.609611
Si Si2 0.078635 0.047597 0.760221
Si Si3 0.960482 0.756012 0.469348
Si Si4 0.811565 0.291356 0.002998
Si Si5 0.765325 0.309343 0.479596
Si Si6 0.282511 0.481940 0.703246
Si Si7 0.930709 0.859817 0.564188
O O1 0.600569 0.413454 0.476460
O O2 0.699328 0.346065 0.429115
O O3 0.712538 0.423608 0.741115
O O4 0.633700 0.346093 0.799528
O O5 0.081370 0.085326 0.540963
O O6 0.000000 0.028486 0.750000
O O7 0.139924 0.007513 0.773965
O O8 0.886607 0.730867 0.481887
O O9 0.942957 0.813678 0.397877
O O10 0.000000 0.736442 0.250000
O O11 0.000000 0.754060 0.750000
O O12 0.810343 0.316273 0.264255
O O13 0.750000 0.250000 0.000000
O O14 0.794093 0.322873 0.756843
O O15 0.750000 0.250000 0.500000
O O16 0.251175 0.493671 0.428174
O O17 0.000000 0.862000 0.750000
#
# Coordination Sequence:
#
# PCOD9281035 Si02
#       7
#     8   8   8   8   8   8   8
#     4  11  23  35  52  72 103 138 189 243 290 330
#     4  11  22  34  51  69 106 142 198 239 289 326
#     4  11  24  38  58  82 112 146 189 241 294 336
#     4  10  21  38  57  77 109 141 186 234 284 347
#     4  10  22  35  55  77  98 136 178 237 284 341
#     4  10  22  37  50  70  96 139 184 234 284 331
#     4  11  21  32  48  73 100 140 183 241 286 326
#
# _framework density 19.319147000000001
#
# number of rings (size 3 to 8) (size 9 to 14) (size 15 to 20)
#    0.000    1.429    2.857    3.000    8.000    2.857 
#    0.000    0.000    0.000    0.000    0.000    0.000 
#    0.000    0.000    0.000    0.000    0.000  200.000 
#
# Total GULP energy -156015.752354 kJ/mol
# GULP energy per Si atom -5571.991156 kJ/mol
# Density = 1.927518 g / cm^3
# Si number density = 19.319147 Si / 1000 Ang^3
#
#
#
# Elastic Constant Matrix: (Units=GPa)
#
#
# Indices 1 2 3 4 5 6 
#
# 1 72.4646 25.3233 32.7573 0.0000 -19.6822 0.0000
# 2 25.3233 48.6887 13.4232 0.0000 -11.3669 0.0000
# 3 32.7573 13.4232 140.6078 0.0000 -27.8312 0.0000
# 4 0.0000 0.0000 0.0000 23.9621 0.0000 -8.3769
# 5 -19.6822 -11.3669 -27.8312 0.0000 36.0159 0.0000
# 6 0.0000 0.0000 0.0000 -8.3769 0.0000 22.9241
#
#
#
# Elastic Compliance Matrix: (Units=1/GPa)
#
#
# Indices 1 2 3 4 5 6 
#
# 1 0.019394 -0.007956 -0.002547 0.000000 0.006119 0.000000
# 2 -0.007956 0.025525 0.000178 0.000000 0.003846 0.000000
# 3 -0.002547 0.000178 0.008765 0.000000 0.005437 0.000000
# 4 0.000000 0.000000 0.000000 0.047844 0.000000 0.017483
# 5 0.006119 0.003846 0.005437 0.000000 0.036524 0.000000
# 6 0.000000 0.000000 0.000000 0.017483 0.000000 0.050011
#
#
# Mechanical properties :
#
#
# Convention : Reuss Voigt Hill
#
# Bulk Modulus (GPa) = 30.27314 44.97430 37.62372
# Shear Modulus (GPa) = 22.75568 29.26425 26.00996
#
# Velocity S-wave (km/s) = 3.43575 3.89624 3.67322
# Velocity P-wave (km/s) = 5.60743 6.60084 6.12431
#
# Compressibility (1/GPa) = 0.03303258
#
# Stress axis : x y z
#
# Youngs Moduli (GPa) = 51.56331 39.17672 114.09507
#
# Poissons Ratio (x) = 0.31169 0.29065
# Poissons Ratio (y) = 0.41023 -0.02030
# Poissons Ratio (z) = 0.13136 -0.00697
#
# Static dielectric constant tensor:
#      x y z
#    x 1.708290 0.000000 0.023720 
#    y 0.000000 1.640770 0.000000 
#    z 0.023720 0.000000 1.861100 
# 
# From -- ./inp_files/9058.got.cif
#   From: 2010.05.17/outbox.cif.g08.bks.cpg/sg15_5_cif.got.tgz:9058.got - 2010.06.03 18:47:42.
