data_PCOD9281003
_publ_section_title
;
Structure prediction by ZEFSAII (Michael W. Deem and Ramdas Pophale) SiO2 
 PCOD9281003
Probable space group: C 2/C
;
_chemical_formula_sum "Si O2"
_cell_formula_units_Z 48
_cell_length_a 22.395465
_cell_length_b 16.935262
_cell_length_c 9.149173
_cell_angle_alpha 90.000000
_cell_angle_beta 145.003531
_cell_angle_gamma 90.000000
_cell_volume 1990.155077
_symmetry_space_group_name_H-M "C 2/C"
_symmetry_group_IT_number 15
_symmetry_cell_setting 'monoclinic'
loop_
_space_group_symop_operation_xyz
x,y,z
-x,y,1/2-z
-x,-y,-z
x,-y,1/2+z
1/2+x,1/2+y,z
1/2-x,1/2+y,1/2-z
1/2-x,1/2-y,-z
1/2+x,1/2-y,1/2+z
loop_
_atom_site_type_symbol
_atom_site_label
_atom_site_fract_x
_atom_site_fract_y
_atom_site_fract_z
Si Si1 0.887589 0.375683 0.077177
Si Si2 0.885768 0.947637 0.978232
Si Si3 0.742106 0.657343 0.509810
Si Si4 0.387057 0.633154 0.963872
Si Si5 0.747597 0.624754 0.053064
Si Si6 0.068999 0.456034 0.763281
O O1 0.856718 0.366404 0.183323
O O2 0.806373 0.333727 0.806082
O O3 0.882137 0.470398 0.048222
O O4 0.000000 0.350465 0.250000
O O5 0.833736 0.893080 0.749789
O O6 0.816558 0.941411 0.985695
O O7 0.000000 0.917966 0.250000
O O8 0.895724 0.038717 0.951965
O O9 0.750000 0.750000 0.500000
O O10 0.698535 0.642820 0.581854
O O11 0.500000 0.659855 0.250000
O O12 0.338276 0.668047 0.717630
O O13 0.839591 0.591809 0.133555
O O14 0.000000 0.413578 0.750000
O O15 0.000000 0.500000 0.500000
#
# Coordination Sequence:
#
# PCOD9281003 Si02
#       6
#     8   8   8   8   8   8
#     4  10  21  38  55  84 126 174 213 253 321 393
#     4  10  21  41  68  95 129 172 222 277 327 391
#     4  11  25  43  64  94 135 174 214 273 341 394
#     4  11  23  39  67 101 128 168 226 277 329 389
#     4  11  20  34  58  90 128 164 207 269 325 381
#     4  11  20  32  56  92 128 166 206 264 323 378
#
# _framework density 24.118722000000002
#
# number of rings (size 3 to 8) (size 9 to 14) (size 15 to 20)
#    0.000    1.333    3.333    5.000    2.333    3.333 
#    0.000    5.000    0.000    0.000    0.000    0.000 
#    0.000    0.000    0.000    0.000    0.000    0.000 
#
# Total GULP energy -133953.194534 kJ/mol
# GULP energy per Si atom -5581.383106 kJ/mol
# Density = 2.406383 g / cm^3
# Si number density = 24.118722 Si / 1000 Ang^3
#
#
#
# Elastic Constant Matrix: (Units=GPa)
#
#
# Indices 1 2 3 4 5 6 
#
# 1 132.5154 -18.2328 43.1242 0.0000 8.2405 0.0000
# 2 -18.2328 59.0116 -5.0063 0.0000 -4.0772 0.0000
# 3 43.1242 -5.0063 145.8540 0.0000 -11.1542 0.0000
# 4 0.0000 0.0000 0.0000 -1.3593 0.0000 -10.6235
# 5 8.2405 -4.0772 -11.1542 0.0000 45.4318 0.0000
# 6 0.0000 0.0000 0.0000 -10.6235 0.0000 -18.6585
#
#
#
# Elastic Compliance Matrix: (Units=1/GPa)
#
#
# Indices 1 2 3 4 5 6 
#
# 1 0.008880 0.002372 -0.002702 0.000000 -0.002061 0.000000
# 2 0.002372 0.017759 -0.000003 0.000000 0.001163 0.000000
# 3 -0.002702 -0.000003 0.007840 0.000000 0.002415 0.000000
# 4 0.000000 0.000000 0.000000 0.213250 0.000000 -0.121417
# 5 -0.002061 0.001163 0.002415 0.000000 0.023082 0.000000
# 6 0.000000 0.000000 0.000000 -0.121417 0.000000 0.015536
#
#
# Mechanical properties :
#
#
# Convention : Reuss Voigt Hill
#
# Bulk Modulus (GPa) = 29.57418 41.90572 35.73995
# Shear Modulus (GPa) = 16.76266 26.24919 21.50592
#
# Velocity S-wave (km/s) = 2.63916 3.30257 2.98932
# Velocity P-wave (km/s) = 4.64493 5.65288 5.17351
#
# Compressibility (1/GPa) = 0.03381328
#
# Stress axis : x y z
#
# Youngs Moduli (GPa) = 112.61187 56.31013 127.55851
#
# Poissons Ratio (x) = -0.13357 0.34463
# Poissons Ratio (y) = -0.26712 0.00037
# Poissons Ratio (z) = 0.30425 0.00016
#
# Static dielectric constant tensor:
#      x y z
#    x 1.291990 0.000000 0.063340 
#    y 0.000000 1.997260 0.000000 
#    z 0.063340 0.000000 2.042350 
# 
# From -- ./inp_files/57957.got.cif
#   From: 2010.05.17/outbox.cif.g08.bks.cpg/sg15_29_cif.got.tgz:57957.got - 2010.06.03 18:47:42.
