data_PCOD9281868
_publ_section_title
;
Structure prediction by ZEFSAII (Michael W. Deem and Ramdas Pophale) SiO2 
 PCOD9281868
Probable space group: C 2/C
;
_chemical_formula_sum "Si O2"
_cell_formula_units_Z 56
_cell_length_a 18.410624
_cell_length_b 15.619444
_cell_length_c 8.838453
_cell_angle_alpha 90.000000
_cell_angle_beta 91.525621
_cell_angle_gamma 90.000000
_cell_volume 2540.717386
_symmetry_space_group_name_H-M "C 2/C"
_symmetry_group_IT_number 15
_symmetry_cell_setting 'monoclinic'
loop_
_space_group_symop_operation_xyz
x,y,z
-x,y,1/2-z
-x,-y,-z
x,-y,1/2+z
1/2+x,1/2+y,z
1/2-x,1/2+y,1/2-z
1/2-x,1/2-y,-z
1/2+x,1/2-y,1/2+z
loop_
_atom_site_type_symbol
_atom_site_label
_atom_site_fract_x
_atom_site_fract_y
_atom_site_fract_z
Si Si1 0.343381 0.730679 0.431169
Si Si2 0.826831 0.460949 0.899808
Si Si3 0.435128 0.997589 0.146295
Si Si4 0.234154 0.871982 0.360516
Si Si5 0.709093 0.342108 0.012658
Si Si6 0.973009 0.680910 0.078013
Si Si7 0.937369 0.200061 0.146456
O O1 0.272088 0.779862 0.374054
O O2 0.325943 0.639780 0.510310
O O3 0.392082 0.782399 0.553597
O O4 0.390163 0.735625 0.281740
O O5 0.878717 0.457313 0.759216
O O6 0.792881 0.556004 0.904172
O O7 0.757853 0.400406 0.905350
O O8 0.880881 0.442233 0.042474
O O9 0.500000 0.958346 0.250000
O O10 0.469019 0.078211 0.057229
O O11 0.211860 0.878770 0.184338
O O12 0.625123 0.343204 0.957534
O O13 0.750000 0.250000 0.000000
O O14 0.000000 0.696261 0.250000
O O15 0.023132 0.730931 0.959978
O O16 0.000000 0.152079 0.250000
#
# Coordination Sequence:
#
# PCOD9281868 Si02
#       7
#     8   8   8   8   8   8   8
#     4  10  21  38  66  94 132 179 229 287 332 410
#     4  12  26  45  63 103 142 184 233 283 352 411
#     4  11  25  42  63  96 144 190 219 277 345 423
#     4  11  23  40  65  99 136 176 231 289 348 396
#     4  12  26  42  71  97 137 184 238 287 344 420
#     4  10  21  38  65  94 135 176 226 275 343 415
#     4  10  23  42  66  99 132 176 233 288 341 408
#
# _framework density 22.041021000000001
#
# number of rings (size 3 to 8) (size 9 to 14) (size 15 to 20)
#    0.000    1.143    4.286    1.286    8.000    0.000 
#    2.571    0.000    0.000    8.571    0.000    0.000 
#    0.000    0.000    0.000    0.000    0.000    0.000 
#
# Total GULP energy -156190.418274 kJ/mol
# GULP energy per Si atom -5578.229224 kJ/mol
# Density = 2.199085 g / cm^3
# Si number density = 22.041021 Si / 1000 Ang^3
#
#
#
# Elastic Constant Matrix: (Units=GPa)
#
#
# Indices 1 2 3 4 5 6 
#
# 1 109.2120 14.2658 24.4832 0.0000 21.7668 0.0000
# 2 14.2658 26.4904 5.6000 0.0000 -2.2558 0.0000
# 3 24.4832 5.6000 95.6414 0.0000 8.8096 0.0000
# 4 0.0000 0.0000 0.0000 16.4158 0.0000 -3.9854
# 5 21.7668 -2.2558 8.8096 0.0000 44.3165 0.0000
# 6 0.0000 0.0000 0.0000 -3.9854 0.0000 36.8373
#
#
#
# Elastic Compliance Matrix: (Units=1/GPa)
#
#
# Indices 1 2 3 4 5 6 
#
# 1 0.011551 -0.006257 -0.002077 0.000000 -0.005579 0.000000
# 2 -0.006257 0.041871 -0.001354 0.000000 0.005474 0.000000
# 3 -0.002077 -0.001354 0.011184 0.000000 -0.001272 0.000000
# 4 0.000000 0.000000 0.000000 0.062560 0.000000 0.006768
# 5 -0.005579 0.005474 -0.001272 0.000000 0.025837 0.000000
# 6 0.000000 0.000000 0.000000 0.006768 0.000000 0.027879
#
#
# Mechanical properties :
#
#
# Convention : Reuss Voigt Hill
#
# Bulk Modulus (GPa) = 22.10871 35.56021 28.83446
# Shear Modulus (GPa) = 23.21968 31.98024 27.59996
#
# Velocity S-wave (km/s) = 3.24925 3.81326 3.54250
# Velocity P-wave (km/s) = 4.91216 5.96293 5.46287
#
# Compressibility (1/GPa) = 0.04523105
#
# Stress axis : x y z
#
# Youngs Moduli (GPa) = 86.56981 23.88267 89.41493
#
# Poissons Ratio (x) = 0.14943 0.18569
# Poissons Ratio (y) = 0.54165 0.12108
# Poissons Ratio (z) = 0.17979 0.03234
#
# Static dielectric constant tensor:
#      x y z
#    x 1.937170 0.000000 -0.048530 
#    y 0.000000 1.839020 0.000000 
#    z -0.048530 0.000000 1.943780 
# 
# From -- ./inp_files/55631.got.cif
#   From: 2010.05.17/outbox.cif.g08.bks.cpg/sg15_28_cif.got.tgz:55631.got - 2010.06.03 18:47:42.
