data_PCOD9281813
_publ_section_title
;
Structure prediction by ZEFSAII (Michael W. Deem and Ramdas Pophale) SiO2 
 PCOD9281813
Probable space group: C 2/C
;
_chemical_formula_sum "Si O2"
_cell_formula_units_Z 40
_cell_length_a 11.098702
_cell_length_b 21.309696
_cell_length_c 14.573097
_cell_angle_alpha 90.000000
_cell_angle_beta 143.784058
_cell_angle_gamma 90.000000
_cell_volume 2036.404121
_symmetry_space_group_name_H-M "C 2/C"
_symmetry_group_IT_number 15
_symmetry_cell_setting 'monoclinic'
loop_
_space_group_symop_operation_xyz
x,y,z
-x,y,1/2-z
-x,-y,-z
x,-y,1/2+z
1/2+x,1/2+y,z
1/2-x,1/2+y,1/2-z
1/2-x,1/2-y,-z
1/2+x,1/2-y,1/2+z
loop_
_atom_site_type_symbol
_atom_site_label
_atom_site_fract_x
_atom_site_fract_y
_atom_site_fract_z
Si Si1 0.308435 0.827175 0.293534
Si Si2 0.500000 0.725458 0.750000
Si Si3 0.500000 0.621703 0.250000
Si Si4 0.939352 0.429125 0.981622
Si Si5 0.436544 0.845786 0.801792
Si Si6 0.518000 0.700072 0.445419
O O1 0.412819 0.894928 0.355175
O O2 0.483441 0.774227 0.411255
O O3 0.814648 0.813057 0.374956
O O4 0.157341 0.816522 0.288444
O O5 0.554035 0.779108 0.861364
O O6 0.298518 0.580208 0.142032
O O7 0.546989 0.665720 0.366414
O O8 0.975516 0.385815 0.914404
O O9 0.000000 0.500000 0.000000
O O10 0.500000 0.882983 0.750000
O O11 0.200239 0.826396 0.654147
#
# Coordination Sequence:
#
# PCOD9281813 Si02
#       6
#     8   4   4   8   8   8
#     4  11  22  36  65  98 129 160 215 254 330 371
#     4   8  18  33  62  97 126 146 198 278 310 356
#     4  10  24  49  62  83 138 158 218 260 310 380
#     4  11  25  44  61  91 127 173 211 253 309 383
#     4   8  18  38  62  89 128 157 205 262 320 361
#     4  10  21  38  64  98 121 168 200 269 322 368
#
# _framework density 19.642467
#
# number of rings (size 3 to 8) (size 9 to 14) (size 15 to 20)
#    0.600    1.600    0.000    3.600    2.800    7.200 
#    3.600    2.000    0.000    0.000    0.000    0.000 
#    0.000    0.000    0.000    0.000    0.000    0.000 
#
# Total GULP energy -111488.517574 kJ/mol
# GULP energy per Si atom -5574.425879 kJ/mol
# Density = 1.959776 g / cm^3
# Si number density = 19.642467 Si / 1000 Ang^3
#
#
#
# Elastic Constant Matrix: (Units=GPa)
#
#
# Indices 1 2 3 4 5 6 
#
# 1 98.1969 36.3995 56.4946 0.0000 11.8876 0.0000
# 2 36.3995 138.5469 73.6435 0.0000 6.5865 0.0000
# 3 56.4946 73.6435 120.2363 0.0000 -14.8007 0.0000
# 4 0.0000 0.0000 0.0000 23.5891 0.0000 3.5310
# 5 11.8876 6.5865 -14.8007 0.0000 27.3828 0.0000
# 6 0.0000 0.0000 0.0000 3.5310 0.0000 13.9734
#
#
#
# Elastic Compliance Matrix: (Units=1/GPa)
#
#
# Indices 1 2 3 4 5 6 
#
# 1 0.017658 0.002051 -0.011310 0.000000 -0.014272 0.000000
# 2 0.002051 0.012163 -0.009517 0.000000 -0.008960 0.000000
# 3 -0.011310 -0.009517 0.021796 0.000000 0.018980 0.000000
# 4 0.000000 0.000000 0.000000 0.044059 0.000000 -0.011133
# 5 -0.014272 -0.008960 0.018980 0.000000 0.055129 0.000000
# 6 0.000000 0.000000 0.000000 -0.011133 0.000000 0.074378
#
#
# Mechanical properties :
#
#
# Convention : Reuss Voigt Hill
#
# Bulk Modulus (GPa) = 71.09016 76.67283 73.88150
# Shear Modulus (GPa) = 18.69692 25.68522 22.19107
#
# Velocity S-wave (km/s) = 3.08857 3.62005 3.36482
# Velocity P-wave (km/s) = 6.99926 7.52276 7.26573
#
# Compressibility (1/GPa) = 0.01406664
#
# Stress axis : x y z
#
# Youngs Moduli (GPa) = 56.63170 82.21436 45.87937
#
# Poissons Ratio (x) = -0.16863 0.51889
# Poissons Ratio (y) = -0.11616 0.43661
# Poissons Ratio (z) = 0.64050 0.78240
#
# Static dielectric constant tensor:
#      x y z
#    x 1.776220 0.000000 -0.027510 
#    y 0.000000 1.659350 0.000000 
#    z -0.027510 0.000000 1.770840 
# 
# From -- ./inp_files/240161.got.cif
#   From: 2010.05.17/outbox.cif.g08.bks.cpg/sg15_121_cif.got.tgz:240161.got - 2010.06.03 18:47:42.
