data_PCOD9281707
_publ_section_title
;
Structure prediction by ZEFSAII (Michael W. Deem and Ramdas Pophale) SiO2 
 PCOD9281707
Probable space group: C 2/C
;
_chemical_formula_sum "Si O2"
_cell_formula_units_Z 56
_cell_length_a 9.243223
_cell_length_b 25.676403
_cell_length_c 11.492409
_cell_angle_alpha 90.000000
_cell_angle_beta 116.852317
_cell_angle_gamma 90.000000
_cell_volume 2433.425911
_symmetry_space_group_name_H-M "C 2/C"
_symmetry_group_IT_number 15
_symmetry_cell_setting 'monoclinic'
loop_
_space_group_symop_operation_xyz
x,y,z
-x,y,1/2-z
-x,-y,-z
x,-y,1/2+z
1/2+x,1/2+y,z
1/2-x,1/2+y,1/2-z
1/2-x,1/2-y,-z
1/2+x,1/2-y,1/2+z
loop_
_atom_site_type_symbol
_atom_site_label
_atom_site_fract_x
_atom_site_fract_y
_atom_site_fract_z
Si Si1 0.293957 0.445251 0.980042
Si Si2 0.625600 0.560747 0.522186
Si Si3 0.507346 0.256963 0.928761
Si Si4 0.351995 0.215319 0.283319
Si Si5 0.500000 0.830843 0.250000
Si Si6 0.830680 0.575877 0.816269
Si Si7 0.000000 0.509927 0.250000
Si Si8 0.659231 0.358934 0.864511
O O1 0.361761 0.503879 0.029689
O O2 0.148912 0.454533 0.838740
O O3 0.444420 0.417861 0.973200
O O4 0.230181 0.420619 0.075166
O O5 0.692156 0.557372 0.676821
O O6 0.727361 0.600964 0.482628
O O7 0.311143 0.260650 0.836728
O O8 0.569231 0.208861 0.871741
O O9 0.584269 0.308452 0.900976
O O10 0.571536 0.248894 0.082420
O O11 0.500000 0.206866 0.250000
O O12 0.287234 0.162186 0.318894
O O13 0.611761 0.869475 0.215735
O O14 0.962658 0.530022 0.842775
O O15 0.500000 0.385288 0.750000
#
# Coordination Sequence:
#
# PCOD9281707 Si02
#       8
#     8   8   8   8   4   8   4   8
#     4  10  21  41  64  96 133 174 223 283 335 401
#     4  10  22  39  68  95 129 176 226 277 339 402
#     4  11  23  44  71  97 135 182 227 279 347 408
#     4  11  23  43  69 100 137 170 226 284 340 407
#     4  11  22  42  70  96 130 188 218 280 349 398
#     4  10  21  38  64 100 129 169 230 275 331 411
#     4   9  20  38  64  90 136 176 216 270 347 402
#     4  10  22  42  67  96 135 176 224 274 338 415
#
# _framework density 23.012823000000001
#
# number of rings (size 3 to 8) (size 9 to 14) (size 15 to 20)
#    0.000    1.714    2.143    2.571    2.000    3.429 
#    7.714    2.857    3.143    0.000    0.000    0.000 
#    0.000    0.000    0.000    0.000    0.000    0.000 
#
# Total GULP energy -156497.951731 kJ/mol
# GULP energy per Si atom -5589.212562 kJ/mol
# Density = 2.296044 g / cm^3
# Si number density = 23.012823 Si / 1000 Ang^3
#
#
#
# Elastic Constant Matrix: (Units=GPa)
#
#
# Indices 1 2 3 4 5 6 
#
# 1 135.6374 20.6481 46.3117 0.0000 -6.1752 0.0000
# 2 20.6481 59.9244 17.0682 0.0000 -12.2623 0.0000
# 3 46.3117 17.0682 91.4720 0.0000 5.4107 0.0000
# 4 0.0000 0.0000 0.0000 27.4924 0.0000 -3.6243
# 5 -6.1752 -12.2623 5.4107 0.0000 46.0122 0.0000
# 6 0.0000 0.0000 0.0000 -3.6243 0.0000 18.0809
#
#
#
# Elastic Compliance Matrix: (Units=1/GPa)
#
#
# Indices 1 2 3 4 5 6 
#
# 1 0.009193 -0.001637 -0.004427 0.000000 0.001318 0.000000
# 2 -0.001637 0.019201 -0.003065 0.000000 0.005258 0.000000
# 3 -0.004427 -0.003065 0.013926 0.000000 -0.003049 0.000000
# 4 0.000000 0.000000 0.000000 0.037361 0.000000 0.007489
# 5 0.001318 0.005258 -0.003049 0.000000 0.023670 0.000000
# 6 0.000000 0.000000 0.000000 0.007489 0.000000 0.056808
#
#
# Mechanical properties :
#
#
# Convention : Reuss Voigt Hill
#
# Bulk Modulus (GPa) = 41.55954 50.56554 46.06254
# Shear Modulus (GPa) = 26.81864 31.85082 29.33473
#
# Velocity S-wave (km/s) = 3.41747 3.72431 3.57418
# Velocity P-wave (km/s) = 5.80264 6.36510 6.09037
#
# Compressibility (1/GPa) = 0.02406187
#
# Stress axis : x y z
#
# Youngs Moduli (GPa) = 108.77394 52.08166 71.80860
#
# Poissons Ratio (x) = 0.08526 0.31790
# Poissons Ratio (y) = 0.17807 0.22009
# Poissons Ratio (z) = 0.48155 0.15962
#
# Static dielectric constant tensor:
#      x y z
#    x 1.911250 0.000000 0.059400 
#    y 0.000000 1.876490 0.000000 
#    z 0.059400 0.000000 1.948500 
# 
# From -- ./inp_files/81346.got.cif
#   From: 2010.05.17/outbox.cif.g08.bks.cpg/sg15_41_cif.got.tgz:81346.got - 2010.06.03 18:47:42.
