data_PCOD9281659
_publ_section_title
;
Structure prediction by ZEFSAII (Michael W. Deem and Ramdas Pophale) SiO2 
 PCOD9281659
Probable space group: C 2/C
;
_chemical_formula_sum "Si O2"
_cell_formula_units_Z 48
_cell_length_a 18.792948
_cell_length_b 12.671666
_cell_length_c 16.618595
_cell_angle_alpha 90.000000
_cell_angle_beta 142.014052
_cell_angle_gamma 90.000000
_cell_volume 2435.726651
_symmetry_space_group_name_H-M "C 2/C"
_symmetry_group_IT_number 15
_symmetry_cell_setting 'monoclinic'
loop_
_space_group_symop_operation_xyz
x,y,z
-x,y,1/2-z
-x,-y,-z
x,-y,1/2+z
1/2+x,1/2+y,z
1/2-x,1/2+y,1/2-z
1/2-x,1/2-y,-z
1/2+x,1/2-y,1/2+z
loop_
_atom_site_type_symbol
_atom_site_label
_atom_site_fract_x
_atom_site_fract_y
_atom_site_fract_z
Si Si1 0.953800 0.381002 0.958200
Si Si2 0.913860 0.765599 0.049515
Si Si3 0.409288 0.185133 0.598165
Si Si4 0.500000 0.888109 0.750000
Si Si5 0.709417 0.920084 0.822823
Si Si6 0.000000 0.924687 0.250000
Si Si7 0.187860 0.082093 0.475841
O O1 0.830611 0.393053 0.802804
O O2 0.029261 0.295742 0.974735
O O3 0.949461 0.345115 0.045825
O O4 0.000000 0.500000 0.000000
O O5 0.909296 0.678503 0.115461
O O6 0.997844 0.851678 0.168120
O O7 0.793790 0.824329 0.924814
O O8 0.500000 0.167870 0.750000
O O9 0.299585 0.114418 0.524427
O O10 0.377497 0.308590 0.568699
O O11 0.587732 0.935033 0.762683
O O12 0.778074 0.025278 0.909827
O O13 0.110686 0.999319 0.357757
#
# Coordination Sequence:
#
# PCOD9281659 Si02
#       7
#     8   8   8   4   8   4   8
#     4  11  25  42  61  96 130 170 215 273 328 387
#     4   9  20  38  64  93 131 163 209 271 321 390
#     4  11  24  43  66  92 130 175 224 267 324 394
#     4   9  18  34  61  94 126 161 206 262 319 384
#     4  10  21  38  63  93 127 166 213 267 331 377
#     4   9  18  44  65 100 126 167 222 264 337 384
#     4  10  22  40  68  93 126 178 217 271 321 397
#
# _framework density 19.706644000000001
#
# number of rings (size 3 to 8) (size 9 to 14) (size 15 to 20)
#    0.000    2.000    0.833    1.500    5.833    5.333 
#    4.500    1.667    0.000    0.000    0.000    0.000 
#    0.000    0.000    0.000    0.000    0.000    0.000 
#
# Total GULP energy -133744.200350 kJ/mol
# GULP energy per Si atom -5572.675015 kJ/mol
# Density = 1.966179 g / cm^3
# Si number density = 19.706644 Si / 1000 Ang^3
#
#
#
# Elastic Constant Matrix: (Units=GPa)
#
#
# Indices 1 2 3 4 5 6 
#
# 1 95.3450 59.5917 59.6966 0.0000 -23.4576 0.0000
# 2 59.5917 99.9166 49.5094 0.0000 0.7807 0.0000
# 3 59.6966 49.5094 150.1680 0.0000 -8.4766 0.0000
# 4 0.0000 0.0000 0.0000 36.1190 0.0000 -13.4703
# 5 -23.4576 0.7807 -8.4766 0.0000 29.9821 0.0000
# 6 0.0000 0.0000 0.0000 -13.4703 0.0000 30.8469
#
#
#
# Elastic Compliance Matrix: (Units=1/GPa)
#
#
# Indices 1 2 3 4 5 6 
#
# 1 0.027491 -0.013998 -0.005161 0.000000 0.020414 0.000000
# 2 -0.013998 0.019153 -0.001419 0.000000 -0.011852 0.000000
# 3 -0.005161 -0.001419 0.009098 0.000000 -0.001429 0.000000
# 4 0.000000 0.000000 0.000000 0.033072 0.000000 0.014442
# 5 0.020414 -0.011852 -0.001429 0.000000 0.049229 0.000000
# 6 0.000000 0.000000 0.000000 0.014442 0.000000 0.038725
#
#
# Mechanical properties :
#
#
# Convention : Reuss Voigt Hill
#
# Bulk Modulus (GPa) = 68.56099 75.89167 72.22633
# Shear Modulus (GPa) = 22.44297 31.16506 26.80402
#
# Velocity S-wave (km/s) = 3.37835 3.98106 3.69202
# Velocity P-wave (km/s) = 7.07700 7.72826 7.40979
#
# Compressibility (1/GPa) = 0.01458555
#
# Stress axis : x y z
#
# Youngs Moduli (GPa) = 36.37527 52.21187 109.91369
#
# Poissons Ratio (x) = 0.73088 0.56728
# Poissons Ratio (y) = 0.50919 0.15594
# Poissons Ratio (z) = 0.18774 0.07408
#
# Static dielectric constant tensor:
#      x y z
#    x 1.666580 0.000000 0.009900 
#    y 0.000000 1.737400 0.000000 
#    z 0.009900 0.000000 1.716890 
# 
# From -- ./inp_files/111489.got.cif
#   From: 2010.05.17/outbox.cif.g08.bks.cpg/sg15_56_cif.got.tgz:111489.got - 2010.06.03 18:47:42.
