data_PCOD9281849
_publ_section_title
;
Structure prediction by ZEFSAII (Michael W. Deem and Ramdas Pophale) SiO2 
 PCOD9281849
Probable space group: C 2/C
;
_chemical_formula_sum "Si O2"
_cell_formula_units_Z 40
_cell_length_a 22.973912
_cell_length_b 5.598503
_cell_length_c 13.958682
_cell_angle_alpha 90.000000
_cell_angle_beta 95.711525
_cell_angle_gamma 90.000000
_cell_volume 1786.445982
_symmetry_space_group_name_H-M "C 2/C"
_symmetry_group_IT_number 15
_symmetry_cell_setting 'monoclinic'
loop_
_space_group_symop_operation_xyz
x,y,z
-x,y,1/2-z
-x,-y,-z
x,-y,1/2+z
1/2+x,1/2+y,z
1/2-x,1/2+y,1/2-z
1/2-x,1/2-y,-z
1/2+x,1/2-y,1/2+z
loop_
_atom_site_type_symbol
_atom_site_label
_atom_site_fract_x
_atom_site_fract_y
_atom_site_fract_z
Si Si1 0.405046 0.577757 0.975612
Si Si2 0.492133 0.191646 0.083091
Si Si3 0.113523 0.533144 0.863888
Si Si4 0.813370 0.282197 0.467752
Si Si5 0.785989 0.521971 0.772635
O O1 0.442360 0.705015 0.896936
O O2 0.347030 0.445334 0.929849
O O3 0.451133 0.392497 0.029227
O O4 0.389753 0.744305 0.063638
O O5 0.452558 0.067058 0.158259
O O6 0.500000 0.000000 0.000000
O O7 0.155975 0.565865 0.781547
O O8 0.147826 0.345765 0.935223
O O9 0.750000 0.250000 0.500000
O O10 0.807555 0.481469 0.385837
O O11 0.753700 0.267939 0.743681
#
# Coordination Sequence:
#
# PCOD9281849 Si02
#       5
#     8   8   8   8   8
#     4   9  18  34  63  88 122 165 213 267 322 390
#     4   8  16  34  60  91 117 161 214 265 328 381
#     4  10  21  38  65  91 126 168 217 271 330 393
#     4  11  22  39  61  92 131 173 218 266 331 396
#     4  12  27  42  63  96 134 174 219 271 332 399
#
# _framework density 22.390827999999999
#
# number of rings (size 3 to 8) (size 9 to 14) (size 15 to 20)
#    0.000    2.000    2.000    1.200    5.600    1.600 
#    0.000    0.000    0.000   55.200    0.000    0.000 
#    0.000    0.000    0.000    0.000    0.000    0.000 
#
# Total GULP energy -111390.092173 kJ/mol
# GULP energy per Si atom -5569.504609 kJ/mol
# Density = 2.233987 g / cm^3
# Si number density = 22.390828 Si / 1000 Ang^3
#
#
#
# Elastic Constant Matrix: (Units=GPa)
#
#
# Indices 1 2 3 4 5 6 
#
# 1 130.7128 42.0333 37.3438 0.0000 -41.6111 0.0000
# 2 42.0333 75.2522 -4.4456 0.0000 -23.9087 0.0000
# 3 37.3438 -4.4456 84.6734 0.0000 -33.3760 0.0000
# 4 0.0000 0.0000 0.0000 15.6447 0.0000 1.7639
# 5 -41.6111 -23.9087 -33.3760 0.0000 47.4801 0.0000
# 6 0.0000 0.0000 0.0000 1.7639 0.0000 23.5348
#
#
#
# Elastic Compliance Matrix: (Units=1/GPa)
#
#
# Indices 1 2 3 4 5 6 
#
# 1 0.012055 -0.005158 -0.003385 0.000000 0.005588 0.000000
# 2 -0.005158 0.020117 0.007666 0.000000 0.010999 0.000000
# 3 -0.003385 0.007666 0.019446 0.000000 0.014564 0.000000
# 4 0.000000 0.000000 0.000000 0.064464 0.000000 -0.004832
# 5 0.005588 0.010999 0.014564 0.000000 0.041735 0.000000
# 6 0.000000 0.000000 0.000000 -0.004832 0.000000 0.042852
#
#
# Mechanical properties :
#
#
# Convention : Reuss Voigt Hill
#
# Bulk Modulus (GPa) = 20.05400 48.94461 34.49931
# Shear Modulus (GPa) = 22.82649 31.71237 27.26943
#
# Velocity S-wave (km/s) = 3.19636 3.76747 3.49361
# Velocity P-wave (km/s) = 4.75374 6.38998 5.63160
#
# Compressibility (1/GPa) = 0.04986536
#
# Stress axis : x y z
#
# Youngs Moduli (GPa) = 82.95331 49.70910 51.42466
#
# Poissons Ratio (x) = 0.25640 0.17406
# Poissons Ratio (y) = 0.42787 -0.39424
# Poissons Ratio (z) = 0.28077 -0.38109
#
# Static dielectric constant tensor:
#      x y z
#    x 1.913670 0.000000 -0.008520 
#    y 0.000000 1.993740 0.000000 
#    z -0.008520 0.000000 1.875590 
# 
# From -- ./inp_files/170482.got.cif
#   From: 2010.05.17/outbox.cif.g08.bks.cpg/sg15_86_cif.got.tgz:170482.got - 2010.06.03 18:47:42.
