data_PCOD9281773
_publ_section_title
;
Structure prediction by ZEFSAII (Michael W. Deem and Ramdas Pophale) SiO2 
 PCOD9281773
Probable space group: C 2/C
;
_chemical_formula_sum "Si O2"
_cell_formula_units_Z 48
_cell_length_a 15.019620
_cell_length_b 16.618809
_cell_length_c 15.837303
_cell_angle_alpha 90.000000
_cell_angle_beta 143.439361
_cell_angle_gamma 90.000000
_cell_volume 2354.768078
_symmetry_space_group_name_H-M "C 2/C"
_symmetry_group_IT_number 15
_symmetry_cell_setting 'monoclinic'
loop_
_space_group_symop_operation_xyz
x,y,z
-x,y,1/2-z
-x,-y,-z
x,-y,1/2+z
1/2+x,1/2+y,z
1/2-x,1/2+y,1/2-z
1/2-x,1/2-y,-z
1/2+x,1/2-y,1/2+z
loop_
_atom_site_type_symbol
_atom_site_label
_atom_site_fract_x
_atom_site_fract_y
_atom_site_fract_z
Si Si1 0.614592 0.338290 0.761250
Si Si2 0.152093 0.630842 0.403951
Si Si3 0.172563 0.995874 0.898739
Si Si4 0.598070 0.435785 0.022581
Si Si5 0.768416 0.802356 0.281253
Si Si6 0.390455 0.268196 0.999744
O O1 0.500000 0.316250 0.750000
O O2 0.700449 0.417085 0.863097
O O3 0.516231 0.370799 0.607393
O O4 0.716109 0.264379 0.809886
O O5 0.221040 0.571494 0.526217
O O6 0.278917 0.657096 0.432942
O O7 0.109001 0.713284 0.417022
O O8 0.000000 0.596249 0.250000
O O9 0.000000 0.019055 0.750000
O O10 0.176001 0.973307 0.999959
O O11 0.500000 0.500000 0.000000
O O12 0.723970 0.391012 0.173312
O O13 0.669265 0.783413 0.124392
O O14 0.940135 0.791870 0.385905
#
# Coordination Sequence:
#
# PCOD9281773 Si02
#       6
#     8   8   8   8   8   8
#     4   9  22  42  63  94 127 166 216 261 312 381
#     4  11  23  42  59  91 134 159 209 263 325 381
#     4   9  22  40  63  89 121 174 209 252 318 382
#     4  10  21  38  64  93 124 166 213 258 315 378
#     4  12  22  43  65  93 127 162 219 263 313 381
#     4  11  25  37  64  95 119 169 207 268 321 378
#
# _framework density 20.384172
#
# number of rings (size 3 to 8) (size 9 to 14) (size 15 to 20)
#    0.000    2.000    3.333    1.000    7.000    2.667 
#    3.000    0.833    0.000    0.000    0.000    0.000 
#    0.000    0.000    0.000    0.000    0.000    0.000 
#
# Total GULP energy -133892.963418 kJ/mol
# GULP energy per Si atom -5578.873476 kJ/mol
# Density = 2.033778 g / cm^3
# Si number density = 20.384172 Si / 1000 Ang^3
#
#
#
# Elastic Constant Matrix: (Units=GPa)
#
#
# Indices 1 2 3 4 5 6 
#
# 1 48.0602 1.2635 -12.4937 0.0000 5.1263 0.0000
# 2 1.2635 53.3753 -4.8537 0.0000 4.9948 0.0000
# 3 -12.4937 -4.8537 46.4882 -0.0001 -3.8681 -0.0001
# 4 0.0000 0.0000 -0.0001 35.2362 0.0000 0.6818
# 5 5.1263 4.9948 -3.8681 0.0000 29.4607 0.0000
# 6 0.0000 0.0000 -0.0001 0.6818 0.0000 10.9852
#
#
#
# Elastic Compliance Matrix: (Units=1/GPa)
#
#
# Indices 1 2 3 4 5 6 
#
# 1 0.022665 0.000298 0.005854 0.000000 -0.003226 0.000000
# 2 0.000298 0.019181 0.001828 0.000000 -0.003064 0.000000
# 3 0.005854 0.001828 0.023420 0.000000 0.001746 0.000000
# 4 0.000000 0.000000 0.000000 0.028414 0.000000 -0.001764
# 5 -0.003226 -0.003064 0.001746 0.000000 0.035254 0.000000
# 6 0.000000 0.000000 0.000000 -0.001764 0.000000 0.091141
#
#
# Mechanical properties :
#
#
# Convention : Reuss Voigt Hill
#
# Bulk Modulus (GPa) = 12.31142 12.86176 12.58659
# Shear Modulus (GPa) = 21.62710 26.07027 23.84868
#
# Velocity S-wave (km/s) = 3.26079 3.58012 3.42418
# Velocity P-wave (km/s) = 4.49776 4.83870 4.67134
#
# Compressibility (1/GPa) = 0.08122540
#
# Stress axis : x y z
#
# Youngs Moduli (GPa) = 44.12032 52.13461 42.69811
#
# Poissons Ratio (x) = -0.01552 -0.24995
# Poissons Ratio (y) = -0.01313 -0.07804
# Poissons Ratio (z) = -0.25828 -0.09529
#
# Static dielectric constant tensor:
#      x y z
#    x 1.751030 0.000000 -0.017600 
#    y 0.000000 1.751780 0.000000 
#    z -0.017600 0.000000 1.725470 
# 
# From -- ./inp_files/155269.got.cif
#   From: 2010.05.17/outbox.cif.g08.bks.cpg/sg15_78_cif.got.tgz:155269.got - 2010.06.03 18:47:42.
