data_PCOD9281847
_publ_section_title
;
Structure prediction by ZEFSAII (Michael W. Deem and Ramdas Pophale) SiO2 
 PCOD9281847
Probable space group: C 2/C
;
_chemical_formula_sum "Si O2"
_cell_formula_units_Z 44
_cell_length_a 22.822289
_cell_length_b 8.728777
_cell_length_c 14.038669
_cell_angle_alpha 90.000000
_cell_angle_beta 138.184133
_cell_angle_gamma 90.000000
_cell_volume 1864.637102
_symmetry_space_group_name_H-M "C 2/C"
_symmetry_group_IT_number 15
_symmetry_cell_setting 'monoclinic'
loop_
_space_group_symop_operation_xyz
x,y,z
-x,y,1/2-z
-x,-y,-z
x,-y,1/2+z
1/2+x,1/2+y,z
1/2-x,1/2+y,1/2-z
1/2-x,1/2-y,-z
1/2+x,1/2-y,1/2+z
loop_
_atom_site_type_symbol
_atom_site_label
_atom_site_fract_x
_atom_site_fract_y
_atom_site_fract_z
Si Si1 0.145439 0.345065 0.103220
Si Si2 0.772042 0.795551 0.632928
Si Si3 0.000000 0.833354 0.750000
Si Si4 0.669629 0.370581 0.281171
Si Si5 0.405442 0.363590 0.111968
Si Si6 0.414429 0.829085 0.983586
O O1 0.179463 0.337441 0.251295
O O2 0.232984 0.354515 0.143762
O O3 0.079915 0.487585 0.020433
O O4 0.110491 0.188203 0.014845
O O5 0.750000 0.750000 0.500000
O O6 0.678928 0.819368 0.572966
O O7 0.834181 0.944467 0.719861
O O8 0.991726 0.732331 0.645352
O O9 0.079364 0.954235 0.861615
O O10 0.656368 0.319466 0.374648
O O11 0.603636 0.275782 0.131984
O O12 0.500000 0.291883 0.250000
#
# Coordination Sequence:
#
# PCOD9281847 Si02
#       6
#     8   8   4   8   8   8
#     4  10  22  41  65  94 126 158 211 260 304 369
#     4  10  21  38  65  91 122 159 214 255 305 362
#     4  10  22  38  60  86 138 160 210 242 314 374
#     4  10  21  41  67  89 124 162 211 254 312 362
#     4  10  23  40  63  94 123 167 205 251 314 371
#     4  10  22  38  60  94 121 169 199 259 307 370
#
# _framework density 23.597083999999999
#
# number of rings (size 3 to 8) (size 9 to 14) (size 15 to 20)
#    0.545    1.455    0.000    2.727    1.273    9.455 
#    3.273    0.909    0.000    0.000    0.000    0.000 
#    0.000    0.000    0.000    0.000    0.000    0.000 
#
# Total GULP energy -122557.522391 kJ/mol
# GULP energy per Si atom -5570.796472 kJ/mol
# Density = 2.354338 g / cm^3
# Si number density = 23.597084 Si / 1000 Ang^3
#
#
#
# Elastic Constant Matrix: (Units=GPa)
#
#
# Indices 1 2 3 4 5 6 
#
# 1 87.8738 20.0605 22.2021 0.0000 -18.0270 0.0000
# 2 20.0605 87.7627 62.3476 0.0000 -15.5791 0.0000
# 3 22.2021 62.3476 114.7617 0.0000 -42.2191 0.0000
# 4 0.0000 0.0000 0.0000 40.3303 0.0000 -3.0870
# 5 -18.0270 -15.5791 -42.2191 0.0000 39.0463 0.0000
# 6 0.0000 0.0000 0.0000 -3.0870 0.0000 12.6807
#
#
#
# Elastic Compliance Matrix: (Units=1/GPa)
#
#
# Indices 1 2 3 4 5 6 
#
# 1 0.012976 -0.002788 0.001327 0.000000 0.006313 0.000000
# 2 -0.002788 0.019983 -0.013047 0.000000 -0.007421 0.000000
# 3 0.001327 -0.013047 0.023007 0.000000 0.020284 0.000000
# 4 0.000000 0.000000 0.000000 0.025266 0.000000 0.006151
# 5 0.006313 -0.007421 0.020284 0.000000 0.047496 0.000000
# 6 0.000000 0.000000 0.000000 0.006151 0.000000 0.080357
#
#
# Mechanical properties :
#
#
# Convention : Reuss Voigt Hill
#
# Bulk Modulus (GPa) = 37.10617 55.51317 46.30967
# Shear Modulus (GPa) = 20.23583 30.79733 25.51658
#
# Velocity S-wave (km/s) = 2.93158 3.61658 3.29195
# Velocity P-wave (km/s) = 5.21708 6.40438 5.84098
#
# Compressibility (1/GPa) = 0.02694970
#
# Stress axis : x y z
#
# Youngs Moduli (GPa) = 77.06362 50.04226 43.46429
#
# Poissons Ratio (x) = 0.13951 -0.05766
# Poissons Ratio (y) = 0.21484 0.56709
# Poissons Ratio (z) = -0.10223 0.65292
#
# Static dielectric constant tensor:
#      x y z
#    x 1.940680 0.000000 0.031550 
#    y 0.000000 1.965020 0.000000 
#    z 0.031550 0.000000 1.903120 
# 
# From -- ./inp_files/121777.got.cif
#   From: 2010.05.17/outbox.cif.g08.bks.cpg/sg15_61_cif.got.tgz:121777.got - 2010.06.03 18:47:42.
