data_PCOD9281128
_publ_section_title
;
Structure prediction by ZEFSAII (Michael W. Deem and Ramdas Pophale) SiO2 
 PCOD9281128
Probable space group: C 2/C
;
_chemical_formula_sum "Si O2"
_cell_formula_units_Z 60
_cell_length_a 11.123387
_cell_length_b 14.417099
_cell_length_c 16.672153
_cell_angle_alpha 90.000000
_cell_angle_beta 85.421160
_cell_angle_gamma 90.000000
_cell_volume 2665.129502
_symmetry_space_group_name_H-M "C 2/C"
_symmetry_group_IT_number 15
_symmetry_cell_setting 'monoclinic'
loop_
_space_group_symop_operation_xyz
x,y,z
-x,y,1/2-z
-x,-y,-z
x,-y,1/2+z
1/2+x,1/2+y,z
1/2-x,1/2+y,1/2-z
1/2-x,1/2-y,-z
1/2+x,1/2-y,1/2+z
loop_
_atom_site_type_symbol
_atom_site_label
_atom_site_fract_x
_atom_site_fract_y
_atom_site_fract_z
Si Si1 0.784171 0.810577 0.374300
Si Si2 0.343208 0.522985 0.348353
Si Si3 0.371751 0.702386 0.708777
Si Si4 0.055111 0.924174 0.935865
Si Si5 0.737127 0.491218 0.320861
Si Si6 0.000000 0.514425 0.250000
Si Si7 0.613571 0.121531 0.396218
Si Si8 0.569742 0.783582 0.497019
O O1 0.776773 0.775536 0.284308
O O2 0.658930 0.822813 0.425583
O O3 0.859781 0.738880 0.423749
O O4 0.843971 0.912330 0.364102
O O5 0.470148 0.565394 0.363330
O O6 0.305281 0.540181 0.259070
O O7 0.236518 0.567699 0.406482
O O8 0.500000 0.704391 0.750000
O O9 0.339969 0.603191 0.674127
O O10 0.362953 0.776556 0.640102
O O11 0.191117 0.949461 0.899605
O O12 0.039384 0.820847 0.970290
O O13 0.000000 0.000000 0.000000
O O14 0.877944 0.468898 0.294160
O O15 0.046536 0.571794 0.325013
O O16 0.532081 0.142182 0.477402
#
# Coordination Sequence:
#
# PCOD9281128 Si02
#       8
#     8   8   8   8   8   4   8   8
#     4  10  21  38  58  91 119 159 210 257 301 372
#     4  10  23  42  61  90 126 165 207 256 315 370
#     4  11  19  38  67  88 120 164 216 251 306 373
#     4  12  23  39  63  96 126 166 208 257 321 378
#     4  10  23  40  66  92 124 162 214 266 309 381
#     4  10  22  40  64  92 118 170 216 258 324 368
#     4  11  22  39  63  90 125 167 210 256 314 380
#     4  11  23  35  62  91 123 158 207 258 311 367
#
# _framework density 22.512975999999998
#
# number of rings (size 3 to 8) (size 9 to 14) (size 15 to 20)
#    0.000    1.333    3.333    2.800    7.467    1.067 
#    0.000    6.667    0.000    0.000    0.000    0.000 
#    0.000    0.000    0.000    0.000    0.000    0.000 
#
# Total GULP energy -167539.809236 kJ/mol
# GULP energy per Si atom -5584.660308 kJ/mol
# Density = 2.246174 g / cm^3
# Si number density = 22.512976 Si / 1000 Ang^3
#
#
#
# Elastic Constant Matrix: (Units=GPa)
#
#
# Indices 1 2 3 4 5 6 
#
# 1 72.7192 6.8310 15.4621 0.0000 -20.1839 0.0000
# 2 6.8310 31.2165 -7.9665 0.0000 -0.0150 0.0000
# 3 15.4621 -7.9665 58.8077 0.0000 -29.7085 0.0000
# 4 0.0000 0.0000 0.0000 20.4968 0.0000 -10.2984
# 5 -20.1839 -0.0150 -29.7085 0.0000 35.2952 0.0000
# 6 0.0000 0.0000 0.0000 -10.2984 0.0000 25.1485
#
#
#
# Elastic Compliance Matrix: (Units=1/GPa)
#
#
# Indices 1 2 3 4 5 6 
#
# 1 0.016755 -0.003691 -0.000114 0.000000 0.009484 0.000000
# 2 -0.003691 0.034905 0.008073 0.000000 0.004699 0.000000
# 3 -0.000114 0.008073 0.031485 0.000000 0.026439 0.000000
# 4 0.000000 0.000000 0.000000 0.061427 0.000000 0.025154
# 5 0.009484 0.004699 0.026439 0.000000 0.056012 0.000000
# 6 0.000000 0.000000 0.000000 0.025154 0.000000 0.050065
#
#
# Mechanical properties :
#
#
# Convention : Reuss Voigt Hill
#
# Bulk Modulus (GPa) = 10.90762 21.26628 16.08695
# Shear Modulus (GPa) = 18.33700 26.08255 22.20978
#
# Velocity S-wave (km/s) = 2.85706 3.40745 3.14432
# Velocity P-wave (km/s) = 3.96727 4.99477 4.51037
#
# Compressibility (1/GPa) = 0.09167904
#
# Stress axis : x y z
#
# Youngs Moduli (GPa) = 59.68430 28.64956 31.76123
#
# Poissons Ratio (x) = 0.10575 0.00363
# Poissons Ratio (y) = 0.22030 -0.25640
# Poissons Ratio (z) = 0.00683 -0.23128
#
# Static dielectric constant tensor:
#      x y z
#    x 1.934750 0.000000 -0.087790 
#    y 0.000000 1.820410 0.000000 
#    z -0.087790 0.000000 1.913010 
# 
# From -- ./inp_files/197831.got.cif
#   From: 2010.05.17/outbox.cif.g08.bks.cpg/sg15_99_cif.got.tgz:197831.got - 2010.06.03 18:47:42.
