data_PCOD9281965
_publ_section_title
;
Structure prediction by ZEFSAII (Michael W. Deem and Ramdas Pophale) SiO2 
 PCOD9281965
Probable space group: C 2/C
;
_chemical_formula_sum "Si O2"
_cell_formula_units_Z 32
_cell_length_a 13.152590
_cell_length_b 4.969635
_cell_length_c 19.583571
_cell_angle_alpha 90.000000
_cell_angle_beta 116.091839
_cell_angle_gamma 90.000000
_cell_volume 1149.602326
_symmetry_space_group_name_H-M "C 2/C"
_symmetry_group_IT_number 15
_symmetry_cell_setting 'monoclinic'
loop_
_space_group_symop_operation_xyz
x,y,z
-x,y,1/2-z
-x,-y,-z
x,-y,1/2+z
1/2+x,1/2+y,z
1/2-x,1/2+y,1/2-z
1/2-x,1/2-y,-z
1/2+x,1/2-y,1/2+z
loop_
_atom_site_type_symbol
_atom_site_label
_atom_site_fract_x
_atom_site_fract_y
_atom_site_fract_z
Si Si1 0.402935 0.811322 0.294378
Si Si2 0.760066 0.525763 0.463065
Si Si3 0.475768 0.786102 0.031221
Si Si4 0.340440 0.679804 0.704673
O O1 0.488589 0.866670 0.380474
O O2 0.418411 0.507493 0.274493
O O3 0.281252 0.811572 0.295013
O O4 0.386868 0.017962 0.226585
O O5 0.750000 0.250000 0.500000
O O6 0.836107 0.792408 0.513183
O O7 0.686708 0.473042 0.373220
O O8 0.905002 0.463410 0.470356
O O9 0.500000 0.500000 0.000000
#
# Coordination Sequence:
#
# PCOD9281965 Si02
#       4
#     8   8   8   8
#     4  10  21  38  66  97 125 169 229 290 330 399
#     4  12  26  44  65  98 142 182 218 281 363 427
#     4  12  24  42  70 101 132 174 241 287 333 414
#     4  10  21  39  64  94 132 171 221 279 348 406
#
# _framework density 27.835715
#
# number of rings (size 3 to 8) (size 9 to 14) (size 15 to 20)
#    0.000    1.000    2.500    4.500    7.000    0.000 
#    0.000    7.500    0.000    0.000    0.000    0.000 
#    0.000    0.000    0.000    0.000    0.000    0.000 
#
# Total GULP energy -89321.596442 kJ/mol
# GULP energy per Si atom -5582.599778 kJ/mol
# Density = 2.777236 g / cm^3
# Si number density = 27.835715 Si / 1000 Ang^3
#
#
#
# Elastic Constant Matrix: (Units=GPa)
#
#
# Indices 1 2 3 4 5 6 
#
# 1 225.8451 15.7118 23.9077 0.0000 10.9010 0.0000
# 2 15.7118 197.0017 77.1960 0.0000 -5.1880 0.0001
# 3 23.9077 77.1960 155.8920 0.0000 7.2541 0.0000
# 4 0.0000 0.0000 0.0000 45.6432 0.0000 -13.7325
# 5 10.9010 -5.1880 7.2541 0.0000 58.4961 0.0000
# 6 0.0000 0.0001 0.0000 -13.7325 0.0000 46.4829
#
#
#
# Elastic Compliance Matrix: (Units=1/GPa)
#
#
# Indices 1 2 3 4 5 6 
#
# 1 0.004538 -0.000154 -0.000583 0.000000 -0.000787 0.000000
# 2 -0.000154 0.006356 -0.003170 0.000000 0.000986 0.000000
# 3 -0.000583 -0.003170 0.008129 0.000000 -0.001181 0.000000
# 4 0.000000 0.000000 0.000000 0.024046 0.000000 0.007104
# 5 -0.000787 0.000986 -0.001181 0.000000 0.017476 0.000000
# 6 0.000000 0.000000 0.000000 0.007104 0.000000 0.023612
#
#
# Mechanical properties :
#
#
# Convention : Reuss Voigt Hill
#
# Bulk Modulus (GPa) = 89.21182 90.26333 89.73758
# Shear Modulus (GPa) = 52.24212 60.91933 56.58073
#
# Velocity S-wave (km/s) = 4.33691 4.68325 4.51340
# Velocity P-wave (km/s) = 7.56289 7.85756 7.71164
#
# Compressibility (1/GPa) = 0.01120928
#
# Stress axis : x y z
#
# Youngs Moduli (GPa) = 220.34930 157.31971 123.02054
#
# Poissons Ratio (x) = 0.02426 0.07172
# Poissons Ratio (y) = 0.03398 0.38996
# Poissons Ratio (z) = 0.12846 0.49868
#
# Static dielectric constant tensor:
#      x y z
#    x 3.107080 0.000000 0.224050 
#    y 0.000000 2.200000 0.000000 
#    z 0.224050 0.000000 -0.339810 
# 
# From -- ./inp_files/241566.got.cif
#   From: 2010.05.17/outbox.cif.g08.bks.cpg/sg15_121_cif.got.tgz:241566.got - 2010.06.03 18:47:42.
