data_PCOD9281419
_publ_section_title
;
Structure prediction by ZEFSAII (Michael W. Deem and Ramdas Pophale) SiO2 
 PCOD9281419
Probable space group: C 2/C
;
_chemical_formula_sum "Si O2"
_cell_formula_units_Z 44
_cell_length_a 10.570439
_cell_length_b 17.603155
_cell_length_c 10.428123
_cell_angle_alpha 90.000000
_cell_angle_beta 78.920707
_cell_angle_gamma 90.000000
_cell_volume 1904.228228
_symmetry_space_group_name_H-M "C 2/C"
_symmetry_group_IT_number 15
_symmetry_cell_setting 'monoclinic'
loop_
_space_group_symop_operation_xyz
x,y,z
-x,y,1/2-z
-x,-y,-z
x,-y,1/2+z
1/2+x,1/2+y,z
1/2-x,1/2+y,1/2-z
1/2-x,1/2-y,-z
1/2+x,1/2-y,1/2+z
loop_
_atom_site_type_symbol
_atom_site_label
_atom_site_fract_x
_atom_site_fract_y
_atom_site_fract_z
Si Si1 0.341492 0.157197 0.967986
Si Si2 0.721719 0.340062 0.016722
Si Si3 0.936993 0.826130 0.014217
Si Si4 0.271111 0.070946 0.244751
Si Si5 0.568186 0.055680 0.880338
Si Si6 0.500000 0.423754 0.750000
O O1 0.207535 0.151065 0.915509
O O2 0.451440 0.111616 0.877420
O O3 0.404470 0.239396 0.981652
O O4 0.308602 0.122159 0.114517
O O5 0.755359 0.376920 0.871501
O O6 0.750000 0.250000 0.000000
O O7 0.566063 0.341067 0.071366
O O8 0.815068 0.390495 0.088731
O O9 0.970414 0.871177 0.877606
O O10 0.131332 0.032886 0.249343
O O11 0.371700 0.003723 0.230656
O O12 0.500000 0.000000 0.000000
#
# Coordination Sequence:
#
# PCOD9281419 Si02
#       6
#     8   8   8   8   8   4
#     4   9  17  34  59  90 129 162 204 260 333 381
#     4  11  21  39  68  95 123 174 227 278 321 387
#     4   9  17  33  59  92 121 161 211 273 309 381
#     4   9  20  37  62  87 127 166 207 269 327 394
#     4  10  21  38  61  92 129 171 207 266 337 393
#     4   8  16  34  58  78 118 162 200 254 318 374
#
# _framework density 23.106473999999999
#
# number of rings (size 3 to 8) (size 9 to 14) (size 15 to 20)
#    0.000    2.545    1.818    0.000    0.000    2.909 
#    0.000   18.182   20.000    2.182    0.000    0.000 
#    0.000    0.000    0.000    0.000    0.000    0.000 
#
# Total GULP energy -122627.097080 kJ/mol
# GULP energy per Si atom -5573.958958 kJ/mol
# Density = 2.305388 g / cm^3
# Si number density = 23.106474 Si / 1000 Ang^3
#
#
#
# Elastic Constant Matrix: (Units=GPa)
#
#
# Indices 1 2 3 4 5 6 
#
# 1 222.8405 93.6651 46.9794 0.0000 -50.3113 0.0000
# 2 93.6651 100.1994 29.6811 0.0000 -21.7096 0.0000
# 3 46.9794 29.6811 66.7280 0.0000 -23.4294 0.0000
# 4 0.0000 0.0000 0.0000 -52.0296 0.0000 -0.1973
# 5 -50.3113 -21.7096 -23.4294 0.0000 30.9839 0.0000
# 6 0.0000 0.0000 0.0000 -0.1973 0.0000 45.3903
#
#
#
# Elastic Compliance Matrix: (Units=1/GPa)
#
#
# Indices 1 2 3 4 5 6 
#
# 1 0.009901 -0.006811 0.000038 0.000000 0.011334 0.000000
# 2 -0.006811 0.016971 -0.003351 0.000000 -0.001703 0.000000
# 3 0.000038 -0.003351 0.021304 0.000000 0.013823 0.000000
# 4 0.000000 0.000000 0.000000 -0.019219 0.000000 -0.000084
# 5 0.011334 -0.001703 0.013823 0.000000 0.059939 0.000000
# 6 0.000000 0.000000 0.000000 -0.000084 0.000000 0.022031
#
#
# Mechanical properties :
#
#
# Convention : Reuss Voigt Hill
#
# Bulk Modulus (GPa) = 35.80735 81.15768 58.48251
# Shear Modulus (GPa) = 35.59135 19.49838 27.54487
#
# Velocity S-wave (km/s) = 3.92895 2.90806 3.45640
# Velocity P-wave (km/s) = 6.00937 6.81728 6.42603
#
# Compressibility (1/GPa) = 0.02792723
#
# Stress axis : x y z
#
# Youngs Moduli (GPa) = 100.99661 58.92431 46.94048
#
# Poissons Ratio (x) = 0.40135 -0.00180
# Poissons Ratio (y) = 0.68792 0.15732
# Poissons Ratio (z) = -0.00388 0.19748
#
# Static dielectric constant tensor:
#      x y z
#    x 1.927910 0.000000 0.067440 
#    y 0.000000 1.851790 0.000000 
#    z 0.067440 0.000000 1.949460 
# 
# From -- ./inp_files/87720.got.cif
#   From: 2010.05.17/outbox.cif.g08.bks.cpg/sg15_44_cif.got.tgz:87720.got - 2010.06.03 18:47:42.
