data_PCOD9281217
_publ_section_title
;
Structure prediction by ZEFSAII (Michael W. Deem and Ramdas Pophale) SiO2 
 PCOD9281217
Probable space group: C 2/C
;
_chemical_formula_sum "Si O2"
_cell_formula_units_Z 56
_cell_length_a 15.415471
_cell_length_b 17.994778
_cell_length_c 19.589814
_cell_angle_alpha 90.000000
_cell_angle_beta 149.928209
_cell_angle_gamma 90.000000
_cell_volume 2722.982001
_symmetry_space_group_name_H-M "C 2/C"
_symmetry_group_IT_number 15
_symmetry_cell_setting 'monoclinic'
loop_
_space_group_symop_operation_xyz
x,y,z
-x,y,1/2-z
-x,-y,-z
x,-y,1/2+z
1/2+x,1/2+y,z
1/2-x,1/2+y,1/2-z
1/2-x,1/2-y,-z
1/2+x,1/2-y,1/2+z
loop_
_atom_site_type_symbol
_atom_site_label
_atom_site_fract_x
_atom_site_fract_y
_atom_site_fract_z
Si Si1 0.552810 0.891957 0.601430
Si Si2 0.993443 0.652666 0.914616
Si Si3 0.404028 0.423029 0.996220
Si Si4 0.071221 0.828868 0.624049
Si Si5 0.351303 0.823553 0.591732
Si Si6 0.266107 0.033520 0.721120
Si Si7 0.345098 0.324144 0.591557
O O1 0.460851 0.880753 0.467095
O O2 0.733589 0.846556 0.720081
O O3 0.444232 0.859036 0.589738
O O4 0.606650 0.975703 0.655553
O O5 0.959745 0.740514 0.897141
O O6 0.862376 0.610917 0.775062
O O7 0.188540 0.635065 0.023159
O O8 0.443373 0.366286 0.959966
O O9 0.287215 0.380500 0.970507
O O10 0.298280 0.490682 0.890210
O O11 0.591679 0.452201 0.145697
O O12 0.936116 0.860456 0.587679
O O13 0.500000 0.808813 0.750000
O O14 0.250000 0.750000 0.500000
O O15 0.500000 0.307319 0.750000
O O16 0.250000 0.250000 0.500000
#
# Coordination Sequence:
#
# PCOD9281217 Si02
#       7
#     8   8   8   8   8   8   8
#     4  11  23  43  63  94 138 172 227 279 343 409
#     4  11  23  38  68  95 132 170 227 273 348 399
#     4  10  23  46  66  94 139 174 233 271 348 410
#     4  10  21  38  66  92 127 170 214 282 328 401
#     4  12  25  43  71 104 140 177 232 292 343 410
#     4  10  23  43  67  92 130 186 217 278 339 417
#     4  10  21  38  59  96 129 160 213 272 330 392
#
# _framework density 20.565688999999999
#
# number of rings (size 3 to 8) (size 9 to 14) (size 15 to 20)
#    0.000    1.429    4.286    1.286    4.000    1.143 
#   10.286    0.000    0.000    0.000    0.000    0.000 
#    0.000    0.000    0.000    0.000    0.000    0.000 
#
# Total GULP energy -156383.251644 kJ/mol
# GULP energy per Si atom -5585.116130 kJ/mol
# Density = 2.051888 g / cm^3
# Si number density = 20.565689 Si / 1000 Ang^3
#
#
#
# Elastic Constant Matrix: (Units=GPa)
#
#
# Indices 1 2 3 4 5 6 
#
# 1 150.9240 38.0616 34.3864 0.0064 21.0665 -0.0036
# 2 38.0616 89.5587 34.4113 -0.0492 3.7222 -0.0013
# 3 34.3864 34.4113 68.6408 -0.0363 11.3790 -0.0008
# 4 0.0064 -0.0492 -0.0363 42.2242 0.0245 6.6420
# 5 21.0665 3.7222 11.3790 0.0245 19.4985 0.0018
# 6 -0.0036 -0.0013 -0.0008 6.6420 0.0018 17.0503
#
#
#
# Elastic Compliance Matrix: (Units=1/GPa)
#
#
# Indices 1 2 3 4 5 6 
#
# 1 0.008831 -0.002763 -0.001710 -0.000002 -0.008016 0.000003
# 2 -0.002763 0.014737 -0.006679 0.000010 0.004069 -0.000004
# 3 -0.001710 -0.006679 0.020211 0.000016 -0.008672 -0.000005
# 4 -0.000002 0.000010 0.000016 0.025229 -0.000040 -0.009828
# 5 -0.008016 0.004069 -0.008672 -0.000040 0.064231 0.000007
# 6 0.000003 -0.000004 -0.000005 -0.009828 0.000007 0.062479
#
#
# Mechanical properties :
#
#
# Convention : Reuss Voigt Hill
#
# Bulk Modulus (GPa) = 46.56316 58.09355 52.32836
# Shear Modulus (GPa) = 22.20447 29.23887 25.72167
#
# Velocity S-wave (km/s) = 3.28942 3.77467 3.54037
# Velocity P-wave (km/s) = 6.09240 6.87799 6.49708
#
# Compressibility (1/GPa) = 0.02147620
#
# Stress axis : x y z
#
# Youngs Moduli (GPa) = 113.23556 67.85609 49.47778
#
# Poissons Ratio (x) = 0.18748 0.08461
# Poissons Ratio (y) = 0.31286 0.33044
# Poissons Ratio (z) = 0.19364 0.45318
#
# Static dielectric constant tensor:
#      x y z
#    x 1.727220 -0.000030 0.001640 
#    y -0.000030 1.806610 -0.000020 
#    z 0.001640 -0.000020 1.757990 
# 
# From -- ./inp_files/245182.got.cif
#   From: 2010.05.17/outbox.cif.g08.bks.cpg/sg15_123_cif.got.tgz:245182.got - 2010.06.03 18:47:42.
