data_PCOD9281041
_publ_section_title
;
Structure prediction by ZEFSAII (Michael W. Deem and Ramdas Pophale) SiO2 
 PCOD9281041
Probable space group: C 2/C
;
_chemical_formula_sum "Si O2"
_cell_formula_units_Z 48
_cell_length_a 8.361515
_cell_length_b 10.895253
_cell_length_c 23.198462
_cell_angle_alpha 90.000000
_cell_angle_beta 91.958075
_cell_angle_gamma 90.000000
_cell_volume 2112.164922
_symmetry_space_group_name_H-M "C 2/C"
_symmetry_group_IT_number 15
_symmetry_cell_setting 'monoclinic'
loop_
_space_group_symop_operation_xyz
x,y,z
-x,y,1/2-z
-x,-y,-z
x,-y,1/2+z
1/2+x,1/2+y,z
1/2-x,1/2+y,1/2-z
1/2-x,1/2-y,-z
1/2+x,1/2-y,1/2+z
loop_
_atom_site_type_symbol
_atom_site_label
_atom_site_fract_x
_atom_site_fract_y
_atom_site_fract_z
Si Si1 0.788134 0.528286 0.391003
Si Si2 0.113866 0.521991 0.446276
Si Si3 0.312939 0.578558 0.237858
Si Si4 0.612318 0.384580 0.484581
Si Si5 0.173329 0.787681 0.079214
Si Si6 0.655115 0.663736 0.712421
O O1 0.722166 0.526357 0.326231
O O2 0.714005 0.422235 0.429188
O O3 0.737863 0.657841 0.419209
O O4 0.981656 0.537508 0.394861
O O5 0.253115 0.621341 0.463585
O O6 0.210602 0.397247 0.436524
O O7 0.000000 0.500000 0.500000
O O8 0.500000 0.599619 0.250000
O O9 0.257384 0.468552 0.279568
O O10 0.237184 0.713581 0.237955
O O11 0.500000 0.500000 0.500000
O O12 0.481063 0.284888 0.464237
O O13 0.122078 0.813382 0.144684
O O14 0.500000 0.649426 0.750000
#
# Coordination Sequence:
#
# PCOD9281041 Si02
#       6
#     8   8   8   8   8   8
#     4  10  21  38  57  82 116 152 192 241 293 350
#     4   9  20  36  56  84 113 147 192 235 282 347
#     4  10  22  39  60  85 118 158 197 246 302 354
#     4   9  18  34  56  82 113 148 188 233 283 347
#     4  10  21  38  59  83 116 154 190 239 296 349
#     4  10  22  39  60  88 120 154 198 247 297 357
#
# _framework density 22.725498999999999
#
# number of rings (size 3 to 8) (size 9 to 14) (size 15 to 20)
#    0.000    2.333    0.000    2.000    0.000   12.667 
#    0.000    5.000    0.000    0.000    0.000    0.000 
#    0.000    0.000    0.000    0.000    0.000    0.000 
#
# Total GULP energy -133933.369493 kJ/mol
# GULP energy per Si atom -5580.557062 kJ/mol
# Density = 2.267378 g / cm^3
# Si number density = 22.725499 Si / 1000 Ang^3
#
#
#
# Elastic Constant Matrix: (Units=GPa)
#
#
# Indices 1 2 3 4 5 6 
#
# 1 86.7138 15.5190 52.1690 0.0000 16.7503 0.0000
# 2 15.5190 93.1120 12.6661 0.0000 1.4331 0.0000
# 3 52.1690 12.6661 80.5628 0.0000 27.5345 0.0000
# 4 0.0000 0.0000 0.0000 35.5814 0.0000 10.2802
# 5 16.7503 1.4331 27.5345 0.0000 44.0327 0.0000
# 6 0.0000 0.0000 0.0000 10.2802 0.0000 32.1766
#
#
#
# Elastic Compliance Matrix: (Units=1/GPa)
#
#
# Indices 1 2 3 4 5 6 
#
# 1 0.019112 -0.001520 -0.012297 0.000000 0.000469 0.000000
# 2 -0.001520 0.011125 -0.001067 0.000000 0.000883 0.000000
# 3 -0.012297 -0.001067 0.024079 0.000000 -0.010344 0.000000
# 4 0.000000 0.000000 0.000000 0.030963 0.000000 -0.009892
# 5 0.000469 0.000883 -0.010344 0.000000 0.028972 0.000000
# 6 0.000000 0.000000 0.000000 -0.009892 0.000000 0.034239
#
#
# Mechanical properties :
#
#
# Convention : Reuss Voigt Hill
#
# Bulk Modulus (GPa) = 40.73670 46.78854 43.76262
# Shear Modulus (GPa) = 26.81832 34.36044 30.58938
#
# Velocity S-wave (km/s) = 3.43898 3.89263 3.67282
# Velocity P-wave (km/s) = 5.80803 6.39036 6.10614
#
# Compressibility (1/GPa) = 0.02454789
#
# Stress axis : x y z
#
# Youngs Moduli (GPa) = 52.32309 89.89117 41.52970
#
# Poissons Ratio (x) = 0.13662 0.51071
# Poissons Ratio (y) = 0.07952 0.04430
# Poissons Ratio (z) = 0.64344 0.09589
#
# Static dielectric constant tensor:
#      x y z
#    x 1.848830 0.000000 0.022430 
#    y 0.000000 1.959740 0.000000 
#    z 0.022430 0.000000 1.874790 
# 
# From -- ./inp_files/263257.got.cif
#   From: 2010.05.17/outbox.cif.g08.bks.cpg/sg15_132_cif.got.tgz:263257.got - 2010.06.03 18:47:42.
