data_PCOD9281743
_publ_section_title
;
Structure prediction by ZEFSAII (Michael W. Deem and Ramdas Pophale) SiO2 
 PCOD9281743
Probable space group: C 2/C
;
_chemical_formula_sum "Si O2"
_cell_formula_units_Z 52
_cell_length_a 15.181123
_cell_length_b 9.647187
_cell_length_c 27.679407
_cell_angle_alpha 90.000000
_cell_angle_beta 31.540548
_cell_angle_gamma 90.000000
_cell_volume 2120.545661
_symmetry_space_group_name_H-M "C 2/C"
_symmetry_group_IT_number 15
_symmetry_cell_setting 'monoclinic'
loop_
_space_group_symop_operation_xyz
x,y,z
-x,y,1/2-z
-x,-y,-z
x,-y,1/2+z
1/2+x,1/2+y,z
1/2-x,1/2+y,1/2-z
1/2-x,1/2-y,-z
1/2+x,1/2-y,1/2+z
loop_
_atom_site_type_symbol
_atom_site_label
_atom_site_fract_x
_atom_site_fract_y
_atom_site_fract_z
Si Si1 0.808545 0.388924 0.667240
Si Si2 0.668739 0.432851 0.639704
Si Si3 0.794836 0.848890 0.038883
Si Si4 0.000000 0.609585 0.250000
Si Si5 0.686563 0.589520 0.868101
Si Si6 0.011053 0.038272 0.122876
Si Si7 0.871218 0.357086 0.914106
O O1 0.812967 0.459750 0.611953
O O2 0.663611 0.451844 0.767662
O O3 0.974467 0.381547 0.621322
O O4 0.745353 0.234133 0.684247
O O5 0.500000 0.445277 0.750000
O O6 0.685691 0.278731 0.608996
O O7 0.641608 0.513421 0.602434
O O8 0.892577 0.880516 0.042723
O O9 0.700890 0.987999 0.064830
O O10 0.921801 0.822300 0.935385
O O11 0.841531 0.515864 0.305022
O O12 0.936068 0.686831 0.329099
O O13 0.542323 0.551023 0.898021
O O14 0.750000 0.250000 0.000000
#
# Coordination Sequence:
#
# PCOD9281743 Si02
#       7
#     8   8   8   4   8   8   8
#     4  10  22  38  65  88 126 163 209 258 318 375
#     4   9  21  37  61  90 122 163 210 262 309 376
#     4  10  22  37  64  91 123 157 218 259 308 380
#     4  10  22  40  66  94 120 168 216 258 310 386
#     4  10  21  38  64  91 118 160 212 261 309 368
#     4  11  20  36  61  95 121 158 207 267 313 367
#     4  11  23  41  64  97 132 165 208 270 323 374
#
# _framework density 24.521991
#
# number of rings (size 3 to 8) (size 9 to 14) (size 15 to 20)
#    0.000    1.846    1.538    1.846   16.154    3.692 
#    0.000    0.769   20.308    1.846    0.000    0.000 
#    0.000    0.000    0.000    0.000    0.000    0.000 
#
# Total GULP energy -144836.568402 kJ/mol
# GULP energy per Si atom -5570.637246 kJ/mol
# Density = 2.446618 g / cm^3
# Si number density = 24.521991 Si / 1000 Ang^3
#
#
#
# Elastic Constant Matrix: (Units=GPa)
#
#
# Indices 1 2 3 4 5 6 
#
# 1 235.5218 36.9341 80.3691 0.0000 55.7710 0.0000
# 2 36.9341 50.9863 4.9375 0.0000 3.1934 0.0000
# 3 80.3691 4.9375 79.6354 0.0000 16.1261 0.0000
# 4 0.0000 0.0000 0.0000 22.8755 0.0000 9.7097
# 5 55.7710 3.1934 16.1261 0.0000 36.9251 0.0000
# 6 0.0000 0.0000 0.0000 9.7097 0.0000 22.6734
#
#
#
# Elastic Compliance Matrix: (Units=1/GPa)
#
#
# Indices 1 2 3 4 5 6 
#
# 1 0.010990 -0.006389 -0.008168 0.000000 -0.012480 0.000000
# 2 -0.006389 0.023501 0.003782 0.000000 0.005965 0.000000
# 3 -0.008168 0.003782 0.019893 0.000000 0.003322 0.000000
# 4 0.000000 0.000000 0.000000 0.053426 0.000000 -0.022879
# 5 -0.012480 0.005965 0.003322 0.000000 0.043964 0.000000
# 6 0.000000 0.000000 0.000000 -0.022879 0.000000 0.053902
#
#
# Mechanical properties :
#
#
# Convention : Reuss Voigt Hill
#
# Bulk Modulus (GPa) = 30.45438 67.84721 49.15080
# Shear Modulus (GPa) = 20.99331 32.75501 26.87416
#
# Velocity S-wave (km/s) = 2.92910 3.65874 3.31406
# Velocity P-wave (km/s) = 4.88729 6.75104 5.89331
#
# Compressibility (1/GPa) = 0.03283600
#
# Stress axis : x y z
#
# Youngs Moduli (GPa) = 90.99032 42.55135 50.26777
#
# Poissons Ratio (x) = 0.27184 0.41060
# Poissons Ratio (y) = 0.58130 -0.19013
# Poissons Ratio (z) = 0.74323 -0.16095
#
# Static dielectric constant tensor:
#      x y z
#    x 1.999480 0.000000 0.002690 
#    y 0.000000 2.107390 0.000000 
#    z 0.002690 0.000000 2.071070 
# 
# From -- ./inp_files/295738.got.cif
#   From: 2010.05.17/outbox.cif.g08.bks.cpg/sg15_148_cif.got.tgz:295738.got - 2010.06.03 18:47:42.
