data_PCOD9281168
_publ_section_title
;
Structure prediction by ZEFSAII (Michael W. Deem and Ramdas Pophale) SiO2 
 PCOD9281168
Probable space group: C 2/C
;
_chemical_formula_sum "Si O2"
_cell_formula_units_Z 32
_cell_length_a 18.018647
_cell_length_b 5.221865
_cell_length_c 11.381998
_cell_angle_alpha 90.000000
_cell_angle_beta 92.905350
_cell_angle_gamma 90.000000
_cell_volume 1069.566356
_symmetry_space_group_name_H-M "C 2/C"
_symmetry_group_IT_number 15
_symmetry_cell_setting 'monoclinic'
loop_
_space_group_symop_operation_xyz
x,y,z
-x,y,1/2-z
-x,-y,-z
x,-y,1/2+z
1/2+x,1/2+y,z
1/2-x,1/2+y,1/2-z
1/2-x,1/2-y,-z
1/2+x,1/2-y,1/2+z
loop_
_atom_site_type_symbol
_atom_site_label
_atom_site_fract_x
_atom_site_fract_y
_atom_site_fract_z
Si Si1 0.469070 0.889688 0.122054
Si Si2 0.282415 0.534074 0.690905
Si Si3 0.159713 0.469381 0.524244
Si Si4 0.093029 0.971405 0.643339
O O1 0.622523 0.280618 0.079661
O O2 0.506984 0.605783 0.127697
O O3 0.500000 0.000000 0.000000
O O4 0.381460 0.956877 0.104213
O O5 0.257206 0.808974 0.737360
O O6 0.247709 0.486725 0.559132
O O7 0.368925 0.501511 0.725869
O O8 0.130391 0.721429 0.587982
O O9 0.000000 0.502440 0.750000
#
# Coordination Sequence:
#
# PCOD9281168 Si02
#       4
#     8   8   8   8
#     4  10  21  38  59  86 116 152 192 236 284 338
#     4   8  14  26  49  76 107 142 181 224 275 330
#     4   9  17  32  53  80 111 147 185 229 279 334
#     4   9  17  32  53  80 111 147 185 229 279 334
#
# _framework density 29.918668
#
# number of rings (size 3 to 8) (size 9 to 14) (size 15 to 20)
#    0.000    3.000    0.000    0.750    0.000    0.000 
#    0.000   21.250    0.000    0.000    0.000   68.250 
#    0.000    0.000    0.000    0.000    0.000    0.000 
#
# Total GULP energy -89414.458938 kJ/mol
# GULP energy per Si atom -5588.403684 kJ/mol
# Density = 2.985057 g / cm^3
# Si number density = 29.918668 Si / 1000 Ang^3
#
#
#
# Elastic Constant Matrix: (Units=GPa)
#
#
# Indices 1 2 3 4 5 6 
#
# 1 170.8904 56.7056 94.5751 0.0000 53.6068 0.0000
# 2 56.7056 202.2568 49.8804 0.0000 -27.6220 0.0000
# 3 94.5751 49.8804 231.5282 0.0000 63.0430 0.0000
# 4 0.0000 0.0000 0.0000 55.0469 0.0000 -17.2559
# 5 53.6068 -27.6220 63.0430 0.0000 84.0859 0.0000
# 6 0.0000 0.0000 0.0000 -17.2559 0.0000 36.5182
#
#
#
# Elastic Compliance Matrix: (Units=1/GPa)
#
#
# Indices 1 2 3 4 5 6 
#
# 1 0.009667 -0.003112 -0.001661 0.000000 -0.005940 0.000000
# 2 -0.003112 0.007021 -0.001771 0.000000 0.005618 0.000000
# 3 -0.001661 -0.001771 0.006596 0.000000 -0.004468 0.000000
# 4 0.000000 0.000000 0.000000 0.021325 0.000000 0.010077
# 5 -0.005940 0.005618 -0.004468 0.000000 0.020875 0.000000
# 6 0.000000 0.000000 0.000000 0.010077 0.000000 0.032145
#
#
# Mechanical properties :
#
#
# Convention : Reuss Voigt Hill
#
# Bulk Modulus (GPa) = 98.08336 111.88862 104.98599
# Shear Modulus (GPa) = 43.81569 62.03117 52.92343
#
# Velocity S-wave (km/s) = 3.83102 4.55832 4.21040
# Velocity P-wave (km/s) = 7.24041 8.07361 7.66833
#
# Compressibility (1/GPa) = 0.01019541
#
# Stress axis : x y z
#
# Youngs Moduli (GPa) = 103.44814 142.43620 151.61138
#
# Poissons Ratio (x) = 0.44322 0.25182
# Poissons Ratio (y) = 0.32190 0.26853
# Poissons Ratio (z) = 0.17182 0.25228
#
# Static dielectric constant tensor:
#      x y z
#    x 2.390060 0.000000 0.110680 
#    y 0.000000 2.366890 0.000000 
#    z 0.110680 0.000000 2.447260 
# 
# From -- ./inp_files/165156.got.cif
#   From: 2010.05.17/outbox.cif.g08.bks.cpg/sg15_83_cif.got.tgz:165156.got - 2010.06.03 18:47:42.
