data_PCOD9281198
_publ_section_title
;
Structure prediction by ZEFSAII (Michael W. Deem and Ramdas Pophale) SiO2 
 PCOD9281198
Probable space group: C 2/C
;
_chemical_formula_sum "Si O2"
_cell_formula_units_Z 60
_cell_length_a 20.748423
_cell_length_b 22.972881
_cell_length_c 9.366959
_cell_angle_alpha 90.000000
_cell_angle_beta 144.222680
_cell_angle_gamma 90.000000
_cell_volume 2610.268357
_symmetry_space_group_name_H-M "C 2/C"
_symmetry_group_IT_number 15
_symmetry_cell_setting 'monoclinic'
loop_
_space_group_symop_operation_xyz
x,y,z
-x,y,1/2-z
-x,-y,-z
x,-y,1/2+z
1/2+x,1/2+y,z
1/2-x,1/2+y,1/2-z
1/2-x,1/2-y,-z
1/2+x,1/2-y,1/2+z
loop_
_atom_site_type_symbol
_atom_site_label
_atom_site_fract_x
_atom_site_fract_y
_atom_site_fract_z
Si Si1 0.694133 0.873810 0.415043
Si Si2 0.331798 0.881434 0.676458
Si Si3 0.769729 0.795052 0.804609
Si Si4 0.168411 0.954095 0.018111
Si Si5 0.113179 0.679079 0.501945
Si Si6 0.000000 0.138415 0.750000
Si Si7 0.096303 0.059211 0.701052
Si Si8 0.881800 0.471045 0.996627
O O1 0.727383 0.822804 0.581681
O O2 0.793274 0.896223 0.493425
O O3 0.606247 0.848350 0.145839
O O4 0.657773 0.929212 0.444612
O O5 0.313285 0.819896 0.724360
O O6 0.370417 0.870243 0.586925
O O7 0.211133 0.909588 0.448734
O O8 0.398271 0.926639 0.893339
O O9 0.789364 0.726378 0.831961
O O10 0.889156 0.824248 0.045679
O O11 0.099058 0.942870 0.035839
O O12 0.281914 0.986253 0.275764
O O13 0.109559 0.996545 0.799184
O O14 0.000000 0.708434 0.250000
O O15 0.995243 0.096243 0.880009
O O16 0.000000 0.497608 0.250000
#
# Coordination Sequence:
#
# PCOD9281198 Si02
#       8
#     8   8   8   8   8   4   8   8
#     4  11  23  39  61  88 129 165 201 257 315 368
#     4   9  20  38  61  84 121 164 199 251 314 372
#     4  10  22  43  62  85 120 167 207 261 320 359
#     4  11  21  39  60  88 126 165 203 249 316 385
#     4  12  22  37  64  96 120 158 217 255 305 375
#     4  10  22  42  68  86 122 158 216 274 300 370
#     4  10  21  39  61  88 121 162 205 249 318 372
#     4  10  21  38  59  89 126 166 204 249 308 374
#
# _framework density 22.986142999999998
#
# number of rings (size 3 to 8) (size 9 to 14) (size 15 to 20)
#    0.000    1.600    3.333    2.400    0.000    1.600 
#    0.000    0.000    0.000    3.200    0.000    0.000 
#    0.000    0.000    0.000    0.000    0.000    0.000 
#
# Total GULP energy -167826.692142 kJ/mol
# GULP energy per Si atom -5594.223071 kJ/mol
# Density = 2.293383 g / cm^3
# Si number density = 22.986143 Si / 1000 Ang^3
#
#
#
# Elastic Constant Matrix: (Units=GPa)
#
#
# Indices 1 2 3 4 5 6 
#
# 1 85.1442 19.6137 28.2619 0.0000 -31.0039 0.0000
# 2 19.6137 57.5117 9.7431 0.0000 -13.1013 0.0000
# 3 28.2619 9.7431 80.0370 0.0000 -21.3090 0.0000
# 4 0.0000 0.0000 0.0000 18.1235 0.0000 4.2674
# 5 -31.0039 -13.1013 -21.3090 0.0000 44.1278 0.0000
# 6 0.0000 0.0000 0.0000 4.2674 0.0000 14.7537
#
#
#
# Elastic Compliance Matrix: (Units=1/GPa)
#
#
# Indices 1 2 3 4 5 6 
#
# 1 0.016936 -0.003091 -0.003076 0.000000 0.009496 0.000000
# 2 -0.003091 0.019272 -0.000355 0.000000 0.003378 0.000000
# 3 -0.003076 -0.000355 0.014941 0.000000 0.004949 0.000000
# 4 0.000000 0.000000 0.000000 0.059209 0.000000 -0.017126
# 5 0.009496 0.003378 0.004949 0.000000 0.032726 0.000000
# 6 0.000000 0.000000 0.000000 -0.017126 0.000000 0.072733
#
#
# Mechanical properties :
#
#
# Convention : Reuss Voigt Hill
#
# Bulk Modulus (GPa) = 26.24385 37.54782 31.89583
# Shear Modulus (GPa) = 20.69858 26.40593 23.55226
#
# Velocity S-wave (km/s) = 3.00406 3.39304 3.20445
# Velocity P-wave (km/s) = 4.84505 5.63211 5.25334
#
# Compressibility (1/GPa) = 0.03810417
#
# Stress axis : x y z
#
# Youngs Moduli (GPa) = 59.04742 51.88935 66.92998
#
# Poissons Ratio (x) = 0.16042 0.20585
# Poissons Ratio (y) = 0.18254 0.02376
# Poissons Ratio (z) = 0.18161 0.01842
#
# Static dielectric constant tensor:
#      x y z
#    x 1.863330 0.000000 0.029320 
#    y 0.000000 1.850080 0.000000 
#    z 0.029320 0.000000 1.897590 
# 
# From -- ./inp_files/58765.got.cif
#   From: 2010.05.17/outbox.cif.g08.bks.cpg/sg15_30_cif.got.tgz:58765.got - 2010.06.03 18:47:42.
