data_PCOD9281285
_publ_section_title
;
Structure prediction by ZEFSAII (Michael W. Deem and Ramdas Pophale) SiO2 
 PCOD9281285
Probable space group: C 2/C
;
_chemical_formula_sum "Si O2"
_cell_formula_units_Z 48
_cell_length_a 14.960844
_cell_length_b 10.371636
_cell_length_c 25.701434
_cell_angle_alpha 90.000000
_cell_angle_beta 27.595447
_cell_angle_gamma 90.000000
_cell_volume 1847.367418
_symmetry_space_group_name_H-M "C 2/C"
_symmetry_group_IT_number 15
_symmetry_cell_setting 'monoclinic'
loop_
_space_group_symop_operation_xyz
x,y,z
-x,y,1/2-z
-x,-y,-z
x,-y,1/2+z
1/2+x,1/2+y,z
1/2-x,1/2+y,1/2-z
1/2-x,1/2-y,-z
1/2+x,1/2-y,1/2+z
loop_
_atom_site_type_symbol
_atom_site_label
_atom_site_fract_x
_atom_site_fract_y
_atom_site_fract_z
Si Si1 0.071050 0.696245 0.476540
Si Si2 0.217267 0.557002 0.940276
Si Si3 0.286159 0.773883 0.218513
Si Si4 0.103697 0.358768 0.601724
Si Si5 0.066667 0.025774 0.322312
Si Si6 0.328742 0.458649 0.050151
O O1 0.893616 0.680273 0.527283
O O2 0.955612 0.708475 0.590143
O O3 0.178953 0.560464 0.421182
O O4 0.215152 0.817487 0.404142
O O5 0.440577 0.540101 0.841669
O O6 0.103429 0.542305 0.053476
O O7 0.343480 0.667844 0.232627
O O8 0.103947 0.703713 0.285285
O O9 0.208852 0.915816 0.271271
O O10 0.250000 0.250000 0.500000
O O11 0.171387 0.432786 0.618439
O O12 0.922044 0.050634 0.444703
O O13 0.500000 0.500000 0.000000
#
# Coordination Sequence:
#
# PCOD9281285 Si02
#       6
#     8   8   8   8   8   8
#     4  10  23  38  65  94 126 159 222 261 311 381
#     4  10  21  42  63  92 124 176 203 259 325 389
#     4  11  22  40  61  99 121 169 212 275 309 391
#     4  11  20  38  65  83 125 172 205 251 329 379
#     4  10  23  39  64  89 130 165 211 260 326 374
#     4  10  21  38  60  91 118 163 209 262 306 388
#
# _framework density 25.982921000000001
#
# number of rings (size 3 to 8) (size 9 to 14) (size 15 to 20)
#    0.000    1.667    3.333    2.000    0.000    8.000 
#    3.000    0.000    0.000    0.000    4.333    0.000 
#    0.000    0.000    0.000    0.000    0.000    0.000 
#
# Total GULP energy -133791.209678 kJ/mol
# GULP energy per Si atom -5574.633737 kJ/mol
# Density = 2.592378 g / cm^3
# Si number density = 25.982921 Si / 1000 Ang^3
#
#
#
# Elastic Constant Matrix: (Units=GPa)
#
#
# Indices 1 2 3 4 5 6 
#
# 1 103.5641 63.6089 2.6523 -0.0004 1.2145 0.0003
# 2 63.6089 124.0003 14.5239 -0.0005 -21.2924 0.0005
# 3 2.6523 14.5239 40.5753 -0.0005 -9.1292 -0.0018
# 4 -0.0004 -0.0005 -0.0005 27.6329 -0.0007 -7.6712
# 5 1.2145 -21.2924 -9.1292 -0.0007 24.8062 0.0006
# 6 0.0003 0.0005 -0.0018 -7.6712 0.0006 48.1683
#
#
#
# Elastic Compliance Matrix: (Units=1/GPa)
#
#
# Indices 1 2 3 4 5 6 
#
# 1 0.015639 -0.009590 0.000421 0.000000 -0.008842 0.000000
# 2 -0.009590 0.015448 -0.001977 0.000000 0.013002 0.000000
# 3 0.000421 -0.001977 0.027191 0.000001 0.008289 0.000001
# 4 0.000000 0.000000 0.000001 0.037863 0.000002 0.006030
# 5 -0.008842 0.013002 0.008289 0.000002 0.054956 0.000000
# 6 0.000000 0.000000 0.000001 0.006030 0.000000 0.021721
#
#
# Mechanical properties :
#
#
# Convention : Reuss Voigt Hill
#
# Bulk Modulus (GPa) = 27.78953 47.74555 37.76754
# Shear Modulus (GPa) = 24.14233 32.61177 28.37705
#
# Velocity S-wave (km/s) = 3.05152 3.54662 3.30834
# Velocity P-wave (km/s) = 4.80981 5.93186 5.40005
#
# Compressibility (1/GPa) = 0.03598478
#
# Stress axis : x y z
#
# Youngs Moduli (GPa) = 63.94295 64.73297 36.77723
#
# Poissons Ratio (x) = 0.62079 -0.01548
# Poissons Ratio (y) = 0.61321 0.07273
# Poissons Ratio (z) = -0.02692 0.12801
#
# Static dielectric constant tensor:
#      x y z
#    x 2.097570 0.000000 -0.058450 
#    y 0.000000 2.233460 0.000000 
#    z -0.058450 0.000000 2.068340 
# 
# From -- ./inp_files/296040.got.cif
#   From: 2010.05.17/outbox.cif.g08.bks.cpg/sg15_149_cif.got.tgz:296040.got - 2010.06.03 18:47:42.
