data_PCOD9281262
_publ_section_title
;
Structure prediction by ZEFSAII (Michael W. Deem and Ramdas Pophale) SiO2 
 PCOD9281262
Probable space group: C 2/C
;
_chemical_formula_sum "Si O2"
_cell_formula_units_Z 56
_cell_length_a 7.421366
_cell_length_b 16.794905
_cell_length_c 24.434277
_cell_angle_alpha 90.000000
_cell_angle_beta 115.004102
_cell_angle_gamma 90.000000
_cell_volume 2760.082772
_symmetry_space_group_name_H-M "C 2/C"
_symmetry_group_IT_number 15
_symmetry_cell_setting 'monoclinic'
loop_
_space_group_symop_operation_xyz
x,y,z
-x,y,1/2-z
-x,-y,-z
x,-y,1/2+z
1/2+x,1/2+y,z
1/2-x,1/2+y,1/2-z
1/2-x,1/2-y,-z
1/2+x,1/2-y,1/2+z
loop_
_atom_site_type_symbol
_atom_site_label
_atom_site_fract_x
_atom_site_fract_y
_atom_site_fract_z
Si Si1 0.804411 0.901912 0.651178
Si Si2 0.188018 0.396928 0.024719
Si Si3 0.675447 0.789052 0.546688
Si Si4 0.000000 0.775218 0.750000
Si Si5 0.145599 0.869432 0.108731
Si Si6 0.196747 0.374702 0.252985
Si Si7 0.050518 0.513326 0.913604
Si Si8 0.500000 0.483576 0.250000
O O1 0.794578 0.864246 0.588957
O O2 0.845435 0.829750 0.698110
O O3 0.597154 0.948683 0.633137
O O4 0.979221 0.962216 0.692928
O O5 0.419236 0.383580 0.062980
O O6 0.090146 0.429303 0.068189
O O7 0.167365 0.462886 0.974575
O O8 0.048768 0.322358 0.989598
O O9 0.750000 0.750000 0.500000
O O10 0.695334 0.717066 0.591395
O O11 0.116443 0.712288 0.726088
O O12 0.165587 0.866114 0.176463
O O13 0.299407 0.934730 0.103802
O O14 0.311170 0.426504 0.224951
O O15 0.000000 0.417922 0.250000
#
# Coordination Sequence:
#
# PCOD9281262 Si02
#       8
#     8   8   8   4   8   8   8   4
#     4  10  21  39  67  89 126 170 205 274 320 381
#     4  10  22  37  59  90 129 168 217 256 309 380
#     4  11  21  40  63  92 135 176 210 259 330 384
#     4   9  20  42  66  85 126 164 206 267 332 368
#     4  12  21  38  65  93 125 170 215 261 319 387
#     4  10  22  40  68  89 120 161 211 265 325 382
#     4  10  21  38  60  88 128 167 210 259 319 372
#     4  11  22  42  70  91 120 162 224 265 332 378
#
# _framework density 20.289245000000001
#
# number of rings (size 3 to 8) (size 9 to 14) (size 15 to 20)
#    0.429    1.143    2.857    2.571    0.000    0.000 
#    5.143    0.000   18.857    0.000    0.000    0.000 
#    0.000    0.000    0.000    0.000    0.000    0.000 
#
# Total GULP energy -156006.935729 kJ/mol
# GULP energy per Si atom -5571.676276 kJ/mol
# Density = 2.024307 g / cm^3
# Si number density = 20.289245 Si / 1000 Ang^3
#
#
#
# Elastic Constant Matrix: (Units=GPa)
#
#
# Indices 1 2 3 4 5 6 
#
# 1 49.0063 44.3133 20.6128 0.0000 13.1918 0.0000
# 2 44.3133 114.1179 42.0599 0.0000 7.1785 0.0000
# 3 20.6128 42.0599 97.9530 0.0000 14.3931 0.0000
# 4 0.0000 0.0000 0.0000 38.5240 0.0000 13.4892
# 5 13.1918 7.1785 14.3931 0.0000 26.9076 0.0000
# 6 0.0000 0.0000 0.0000 13.4892 0.0000 30.1844
#
#
#
# Elastic Compliance Matrix: (Units=1/GPa)
#
#
# Indices 1 2 3 4 5 6 
#
# 1 0.036094 -0.013177 0.000159 0.000000 -0.014265 0.000000
# 2 -0.013177 0.015225 -0.004468 0.000000 0.004788 0.000000
# 3 0.000159 -0.004468 0.012948 0.000000 -0.005812 0.000000
# 4 0.000000 0.000000 0.000000 0.030773 0.000000 -0.013752
# 5 -0.014265 0.004788 -0.005812 0.000000 0.045989 0.000000
# 6 0.000000 0.000000 0.000000 -0.013752 0.000000 0.039275
#
#
# Mechanical properties :
#
#
# Convention : Reuss Voigt Hill
#
# Bulk Modulus (GPa) = 34.13637 52.78325 43.45981
# Shear Modulus (GPa) = 22.21806 29.39595 25.80701
#
# Velocity S-wave (km/s) = 3.31277 3.81050 3.57032
# Velocity P-wave (km/s) = 5.61195 6.74031 6.20184
#
# Compressibility (1/GPa) = 0.02929427
#
# Stress axis : x y z
#
# Youngs Moduli (GPa) = 27.70574 65.68059 77.23085
#
# Poissons Ratio (x) = 0.86546 -0.01225
# Poissons Ratio (y) = 0.36507 0.34509
# Poissons Ratio (z) = -0.00440 0.29348
#
# Static dielectric constant tensor:
#      x y z
#    x 1.718390 0.000000 0.055050 
#    y 0.000000 1.759670 0.000000 
#    z 0.055050 0.000000 1.920020 
# 
# From -- ./inp_files/286131.got.cif
#   From: 2010.05.17/outbox.cif.g08.bks.cpg/sg15_144_cif.got.tgz:286131.got - 2010.06.03 18:47:42.
