data_PCOD9281885
_publ_section_title
;
Structure prediction by ZEFSAII (Michael W. Deem and Ramdas Pophale) SiO2 
 PCOD9281885
Probable space group: C 2/C
;
_chemical_formula_sum "Si O2"
_cell_formula_units_Z 64
_cell_length_a 8.607892
_cell_length_b 10.899167
_cell_length_c 26.325218
_cell_angle_alpha 90.000000
_cell_angle_beta 100.161181
_cell_angle_gamma 90.000000
_cell_volume 2431.063792
_symmetry_space_group_name_H-M "C 2/C"
_symmetry_group_IT_number 15
_symmetry_cell_setting 'monoclinic'
loop_
_space_group_symop_operation_xyz
x,y,z
-x,y,1/2-z
-x,-y,-z
x,-y,1/2+z
1/2+x,1/2+y,z
1/2-x,1/2+y,1/2-z
1/2-x,1/2-y,-z
1/2+x,1/2-y,1/2+z
loop_
_atom_site_type_symbol
_atom_site_label
_atom_site_fract_x
_atom_site_fract_y
_atom_site_fract_z
Si Si1 0.523037 0.943805 0.176851
Si Si2 0.233862 0.898458 0.222568
Si Si3 0.201929 0.925267 0.482388
Si Si4 0.552343 0.436454 0.649315
Si Si5 0.000785 0.282749 0.661695
Si Si6 0.158164 0.905985 0.063447
Si Si7 0.747923 0.149855 0.093091
Si Si8 0.176812 0.304735 0.102473
O O1 0.373770 0.870662 0.189907
O O2 0.673044 0.910379 0.219845
O O3 0.467030 0.082882 0.181647
O O4 0.573023 0.909799 0.123018
O O5 0.139977 0.025299 0.205402
O O6 0.108794 0.790956 0.207248
O O7 0.239806 0.978470 0.539862
O O8 0.231744 0.047634 0.449230
O O9 0.300887 0.825408 0.456284
O O10 0.016103 0.888532 0.471689
O O11 0.607917 0.548509 0.616369
O O12 0.368422 0.405921 0.641941
O O13 0.604616 0.319961 0.619340
O O14 0.090015 0.320164 0.614829
O O15 0.850920 0.202927 0.637015
O O16 0.266067 0.785204 0.068935
#
# Coordination Sequence:
#
# PCOD9281885 Si02
#       8
#     8   8   8   8   8   8   8   8
#     4  11  27  45  67  99 131 168 222 278 330 394
#     4  11  25  47  66  96 133 171 217 274 332 396
#     4  10  21  38  65  97 127 170 228 268 329 392
#     4  11  24  40  65  94 134 172 218 273 332 392
#     4  12  23  44  69  94 132 174 217 271 332 393
#     4  10  21  40  63  94 131 173 220 277 322 391
#     4  11  20  41  66  93 128 176 218 267 335 389
#     4  12  24  42  67  96 130 174 218 276 329 394
#
# _framework density 26.325921999999998
#
# number of rings (size 3 to 8) (size 9 to 14) (size 15 to 20)
#    0.000    1.000    5.000    1.875    1.750    1.000 
#    0.000    0.625    0.000    0.000    0.000    0.000 
#    0.000    0.000    0.000    0.000    0.000    0.000 
#
# Total GULP energy -178946.327645 kJ/mol
# GULP energy per Si atom -5592.072739 kJ/mol
# Density = 2.626600 g / cm^3
# Si number density = 26.325922 Si / 1000 Ang^3
#
#
#
# Elastic Constant Matrix: (Units=GPa)
#
#
# Indices 1 2 3 4 5 6 
#
# 1 84.2824 27.4571 29.6261 0.0000 -6.8852 0.0000
# 2 27.4571 125.4571 -2.4536 0.0000 3.7264 0.0000
# 3 29.6261 -2.4536 53.9091 0.0000 -8.7376 0.0000
# 4 0.0000 0.0000 0.0000 20.4834 0.0000 -3.3424
# 5 -6.8852 3.7264 -8.7376 0.0000 38.7217 0.0000
# 6 0.0000 0.0000 0.0000 -3.3424 0.0000 38.2527
#
#
#
# Elastic Compliance Matrix: (Units=1/GPa)
#
#
# Indices 1 2 3 4 5 6 
#
# 1 0.016350 -0.003791 -0.008955 0.000000 0.001251 0.000000
# 2 -0.003791 0.008876 0.002324 0.000000 -0.001004 0.000000
# 3 -0.008955 0.002324 0.024166 0.000000 0.003637 0.000000
# 4 0.000000 0.000000 0.000000 0.049526 0.000000 0.004327
# 5 0.001251 -0.001004 0.003637 0.000000 0.026965 0.000000
# 6 0.000000 0.000000 0.000000 0.004327 0.000000 0.026520
#
#
# Mechanical properties :
#
#
# Convention : Reuss Voigt Hill
#
# Bulk Modulus (GPa) = 35.02657 41.43423 38.23040
# Shear Modulus (GPa) = 27.35810 33.42617 30.39214
#
# Velocity S-wave (km/s) = 3.22717 3.56716 3.40142
# Velocity P-wave (km/s) = 5.21728 5.72182 5.47537
#
# Compressibility (1/GPa) = 0.02854975
#
# Stress axis : x y z
#
# Youngs Moduli (GPa) = 61.16350 112.66716 41.38016
#
# Poissons Ratio (x) = 0.42707 0.37055
# Poissons Ratio (y) = 0.23184 -0.09618
# Poissons Ratio (z) = 0.54770 -0.26188
#
# Static dielectric constant tensor:
#      x y z
#    x 2.152030 0.000000 0.045970 
#    y 0.000000 2.196340 0.000000 
#    z 0.045970 0.000000 2.084270 
# 
# From -- ./inp_files/307492.got.cif
#   From: 2010.05.17/outbox.cif.g08.bks.cpg/sg15_154_cif.got.tgz:307492.got - 2010.06.03 18:47:42.
