data_PCOD9281674
_publ_section_title
;
Structure prediction by ZEFSAII (Michael W. Deem and Ramdas Pophale) SiO2 
 PCOD9281674
Probable space group: C 2/C
;
_chemical_formula_sum "Si O2"
_cell_formula_units_Z 60
_cell_length_a 16.839915
_cell_length_b 29.383997
_cell_length_c 5.307442
_cell_angle_alpha 90.000000
_cell_angle_beta 91.734469
_cell_angle_gamma 90.000000
_cell_volume 2625.046480
_symmetry_space_group_name_H-M "C 2/C"
_symmetry_group_IT_number 15
_symmetry_cell_setting 'monoclinic'
loop_
_space_group_symop_operation_xyz
x,y,z
-x,y,1/2-z
-x,-y,-z
x,-y,1/2+z
1/2+x,1/2+y,z
1/2-x,1/2+y,1/2-z
1/2-x,1/2-y,-z
1/2+x,1/2-y,1/2+z
loop_
_atom_site_type_symbol
_atom_site_label
_atom_site_fract_x
_atom_site_fract_y
_atom_site_fract_z
Si Si1 0.105519 0.978307 0.353076
Si Si2 0.201497 0.619251 0.822428
Si Si3 0.500000 0.246167 0.750000
Si Si4 0.382474 0.384288 0.392845
Si Si5 0.078626 0.328580 0.613438
Si Si6 0.725686 0.199061 0.446253
Si Si7 0.893909 0.170754 0.374853
Si Si8 0.702216 0.025437 0.584449
O O1 0.085559 0.931820 0.207594
O O2 0.201564 0.978260 0.395404
O O3 0.079943 0.984768 0.639701
O O4 0.288266 0.606346 0.939938
O O5 0.216865 0.667203 0.687517
O O6 0.182295 0.578313 0.628845
O O7 0.127424 0.630092 0.993070
O O8 0.450098 0.211708 0.573386
O O9 0.558944 0.281772 0.618923
O O10 0.419079 0.361769 0.645131
O O11 0.394184 0.351354 0.151969
O O12 0.142889 0.305392 0.799742
O O13 0.000000 0.344404 0.750000
O O14 0.750000 0.250000 0.500000
O O15 0.801249 0.179997 0.303140
O O16 0.674017 0.004482 0.319361
#
# Coordination Sequence:
#
# PCOD9281674 Si02
#       8
#     8   8   4   8   8   8   8   8
#     4   9  16  29  54  91 130 161 203 263 322 386
#     4  10  22  38  62  98 130 173 223 276 331 394
#     4  12  30  44  62  94 128 180 222 276 332 396
#     4  10  21  38  63  95 130 172 216 268 330 389
#     4  12  25  43  65  91 132 174 229 273 335 399
#     4  11  24  41  67  96 130 176 225 282 338 396
#     4  11  24  42  64  93 129 172 223 270 329 392
#     4   9  19  33  59  91 131 168 211 269 333 390
#
# _framework density 22.856736000000001
#
# number of rings (size 3 to 8) (size 9 to 14) (size 15 to 20)
#    0.000    1.600    1.333    3.200    7.467    4.267 
#    0.000    0.000    0.000    0.800    0.000    9.333 
#    0.000    0.000    0.000    0.000    0.000    0.000 
#
# Total GULP energy -167655.390505 kJ/mol
# GULP energy per Si atom -5588.513017 kJ/mol
# Density = 2.280471 g / cm^3
# Si number density = 22.856736 Si / 1000 Ang^3
#
#
#
# Elastic Constant Matrix: (Units=GPa)
#
#
# Indices 1 2 3 4 5 6 
#
# 1 123.9259 21.6481 40.1742 0.0000 -11.3945 0.0000
# 2 21.6481 66.0172 15.8166 0.0000 -27.0014 0.0000
# 3 40.1742 15.8166 74.7985 0.0000 -19.2441 0.0000
# 4 0.0000 0.0000 0.0000 30.2737 0.0000 5.6384
# 5 -11.3945 -27.0014 -19.2441 0.0000 34.6039 0.0000
# 6 0.0000 0.0000 0.0000 5.6384 0.0000 -22.5519
#
#
#
# Elastic Compliance Matrix: (Units=1/GPa)
#
#
# Indices 1 2 3 4 5 6 
#
# 1 0.010109 -0.002775 -0.005302 0.000000 -0.001785 0.000000
# 2 -0.002775 0.023014 0.001177 0.000000 0.017699 0.000000
# 3 -0.005302 0.001177 0.018386 0.000000 0.009398 0.000000
# 4 0.000000 0.000000 0.000000 0.031562 0.000000 0.007891
# 5 -0.001785 0.017699 0.009398 0.000000 0.047348 0.000000
# 6 0.000000 0.000000 0.000000 0.007891 0.000000 -0.042369
#
#
# Mechanical properties :
#
#
# Convention : Reuss Voigt Hill
#
# Bulk Modulus (GPa) = 26.51774 46.66881 36.59327
# Shear Modulus (GPa) = 43.69950 20.93868 32.31909
#
# Velocity S-wave (km/s) = 4.37726 3.02997 3.76438
# Velocity P-wave (km/s) = 6.09705 5.71868 5.91089
#
# Compressibility (1/GPa) = 0.03771060
#
# Stress axis : x y z
#
# Youngs Moduli (GPa) = 98.92511 43.45103 54.39003
#
# Poissons Ratio (x) = 0.12056 0.28837
# Poissons Ratio (y) = 0.27448 -0.06404
# Poissons Ratio (z) = 0.52449 -0.05116
#
# Static dielectric constant tensor:
#      x y z
#    x 8.155300 0.000000 5.295920 
#    y 0.000000 1.392970 0.000000 
#    z 5.295920 0.000000 6.434410 
# 
# From -- ./inp_files/11554.got.cif
#   From: 2010.05.17/outbox.cif.g08.bks.cpg/sg15_6_cif.got.tgz:11554.got - 2010.06.03 18:47:42.
