data_PCOD9281906
_publ_section_title
;
Structure prediction by ZEFSAII (Michael W. Deem and Ramdas Pophale) SiO2 
 PCOD9281906
Probable space group: C 2/C
;
_chemical_formula_sum "Si O2"
_cell_formula_units_Z 40
_cell_length_a 7.619139
_cell_length_b 14.043871
_cell_length_c 16.801098
_cell_angle_alpha 90.000000
_cell_angle_beta 110.862618
_cell_angle_gamma 90.000000
_cell_volume 1679.888401
_symmetry_space_group_name_H-M "C 2/C"
_symmetry_group_IT_number 15
_symmetry_cell_setting 'monoclinic'
loop_
_space_group_symop_operation_xyz
x,y,z
-x,y,1/2-z
-x,-y,-z
x,-y,1/2+z
1/2+x,1/2+y,z
1/2-x,1/2+y,1/2-z
1/2-x,1/2-y,-z
1/2+x,1/2-y,1/2+z
loop_
_atom_site_type_symbol
_atom_site_label
_atom_site_fract_x
_atom_site_fract_y
_atom_site_fract_z
Si Si1 0.583618 0.777753 0.033969
Si Si2 0.738850 0.383082 0.986650
Si Si3 0.807364 0.624591 0.681692
Si Si4 0.778352 0.275433 0.716302
Si Si5 0.052843 0.960866 0.670833
O O1 0.423256 0.698458 0.029099
O O2 0.684976 0.794273 0.135089
O O3 0.750000 0.750000 0.000000
O O4 0.439546 0.858048 0.978998
O O5 0.622008 0.459400 0.917845
O O6 0.795993 0.398462 0.086993
O O7 0.783751 0.733751 0.707356
O O8 0.637296 0.564909 0.689221
O O9 0.000000 0.589405 0.750000
O O10 0.707777 0.379677 0.677196
O O11 0.000000 0.273781 0.750000
O O12 0.000000 0.930355 0.750000
#
# Coordination Sequence:
#
# PCOD9281906 Si02
#       5
#     8   8   8   8   8
#     4  10  21  38  66 106 133 178 230 277 345 424
#     4  10  23  43  68  98 142 182 226 288 351 412
#     4  12  23  45  69  98 138 182 237 288 350 414
#     4  11  23  40  70  98 134 179 227 288 349 413
#     4  11  26  43  66 101 138 182 233 289 351 417
#
# _framework density 23.811107
#
# number of rings (size 3 to 8) (size 9 to 14) (size 15 to 20)
#    0.000    1.200    2.000    3.600    8.400    0.000 
#    0.000    1.000    0.000    0.000    0.000    0.000 
#    0.000    0.000    0.000    0.000    0.000    0.000 
#
# Total GULP energy -111589.217868 kJ/mol
# GULP energy per Si atom -5579.460893 kJ/mol
# Density = 2.375691 g / cm^3
# Si number density = 23.811107 Si / 1000 Ang^3
#
#
#
# Elastic Constant Matrix: (Units=GPa)
#
#
# Indices 1 2 3 4 5 6 
#
# 1 140.5209 9.6000 50.4049 0.0000 27.8372 0.0000
# 2 9.6000 40.3555 10.2386 0.0000 11.3555 0.0000
# 3 50.4049 10.2386 172.3197 0.0000 36.4278 0.0000
# 4 0.0000 0.0000 0.0000 -97.5560 0.0000 40.9327
# 5 27.8372 11.3555 36.4278 0.0000 45.3764 0.0000
# 6 0.0000 0.0000 0.0000 40.9327 0.0000 -0.3035
#
#
#
# Elastic Compliance Matrix: (Units=1/GPa)
#
#
# Indices 1 2 3 4 5 6 
#
# 1 0.008490 -0.000546 -0.001661 0.000000 -0.003739 0.000000
# 2 -0.000546 0.026698 -0.000102 0.000000 -0.006264 0.000000
# 3 -0.001661 -0.000102 0.007316 0.000000 -0.004829 0.000000
# 4 0.000000 0.000000 0.000000 0.000184 0.000000 0.024870
# 5 -0.003739 -0.006264 -0.004829 0.000000 0.029775 0.000000
# 6 0.000000 0.000000 0.000000 0.024870 0.000000 0.059273
#
#
# Mechanical properties :
#
#
# Convention : Reuss Voigt Hill
#
# Bulk Modulus (GPa) = 26.39541 54.85370 40.62455
# Shear Modulus (GPa) = 33.56074 8.36688 20.96381
#
# Velocity S-wave (km/s) = 3.75835 1.87656 2.97041
# Velocity P-wave (km/s) = 5.47202 5.27090 5.37240
#
# Compressibility (1/GPa) = 0.03788538
#
# Stress axis : x y z
#
# Youngs Moduli (GPa) = 117.78606 37.45561 136.69134
#
# Poissons Ratio (x) = 0.02046 0.22699
# Poissons Ratio (y) = 0.06435 0.01399
# Poissons Ratio (z) = 0.19560 0.00383
#
# Static dielectric constant tensor:
#      x y z
#    x 1.954240 0.000000 -0.118030 
#    y 0.000000 2.020640 0.000000 
#    z -0.118030 0.000000 2.009470 
# 
# From -- ./inp_files/189051.got.cif
#   From: 2010.05.17/outbox.cif.g08.bks.cpg/sg15_95_cif.got.tgz:189051.got - 2010.06.03 18:47:42.
