data_PCOD9281909
_publ_section_title
;
Structure prediction by ZEFSAII (Michael W. Deem and Ramdas Pophale) SiO2 
 PCOD9281909
Probable space group: C 2/C
;
_chemical_formula_sum "Si O2"
_cell_formula_units_Z 48
_cell_length_a 16.108214
_cell_length_b 15.502604
_cell_length_c 14.149546
_cell_angle_alpha 90.000000
_cell_angle_beta 146.042311
_cell_angle_gamma 90.000000
_cell_volume 1973.696391
_symmetry_space_group_name_H-M "C 2/C"
_symmetry_group_IT_number 15
_symmetry_cell_setting 'monoclinic'
loop_
_space_group_symop_operation_xyz
x,y,z
-x,y,1/2-z
-x,-y,-z
x,-y,1/2+z
1/2+x,1/2+y,z
1/2-x,1/2+y,1/2-z
1/2-x,1/2-y,-z
1/2+x,1/2-y,1/2+z
loop_
_atom_site_type_symbol
_atom_site_label
_atom_site_fract_x
_atom_site_fract_y
_atom_site_fract_z
Si Si1 0.651756 0.169260 0.452764
Si Si2 0.145300 0.873405 0.673430
Si Si3 0.834549 0.993110 0.638147
Si Si4 0.171047 0.664189 0.884757
Si Si5 0.485301 0.677753 0.623776
Si Si6 0.165901 0.789929 0.132838
O O1 0.500000 0.150368 0.250000
O O2 0.750000 0.250000 0.500000
O O3 0.574917 0.227171 0.461630
O O4 0.857839 0.177389 0.782407
O O5 0.153047 0.959326 0.741956
O O6 0.285077 0.810054 0.821120
O O7 0.118439 0.885877 0.535094
O O8 0.994429 0.820470 0.561155
O O9 0.748855 0.917413 0.504459
O O10 0.000000 0.998493 0.750000
O O11 0.737937 0.079739 0.537874
O O12 0.208800 0.663030 0.809506
O O13 0.000000 0.666461 0.750000
O O14 0.250000 0.750000 0.000000
O O15 0.500000 0.668550 0.750000
#
# Coordination Sequence:
#
# PCOD9281909 Si02
#       6
#     8   8   8   8   8   8
#     4  11  26  48  79 110 148 219 271 328 395 477
#     4  10  22  38  71 110 155 205 265 329 403 471
#     4  12  23  45  73 115 162 203 268 333 402 489
#     4  12  22  37  70 110 164 219 252 327 413 489
#     4   9  23  43  76 104 147 207 271 322 394 472
#     4  10  21  38  66 113 156 200 269 316 409 483
#
# _framework density 24.319849999999999
#
# number of rings (size 3 to 8) (size 9 to 14) (size 15 to 20)
#    1.000    0.333    3.333    2.500    4.667    0.000 
#    0.000    0.833    3.667    7.000    0.000    0.000 
#    0.000    1.333    0.000    6.000    0.000    0.000 
#
# Total GULP energy -133790.236170 kJ/mol
# GULP energy per Si atom -5574.593174 kJ/mol
# Density = 2.426450 g / cm^3
# Si number density = 24.319850 Si / 1000 Ang^3
#
#
#
# Elastic Constant Matrix: (Units=GPa)
#
#
# Indices 1 2 3 4 5 6 
#
# 1 170.5284 69.6910 78.3872 0.0000 -8.7378 0.0001
# 2 69.6910 210.9891 104.0461 0.0000 8.1605 0.0000
# 3 78.3872 104.0461 139.7909 0.0000 20.2605 0.0000
# 4 0.0000 0.0000 0.0000 57.9988 0.0000 7.8801
# 5 -8.7378 8.1605 20.2605 0.0000 59.9269 0.0000
# 6 0.0001 0.0000 0.0000 7.8801 0.0000 20.4141
#
#
#
# Elastic Compliance Matrix: (Units=1/GPa)
#
#
# Indices 1 2 3 4 5 6 
#
# 1 0.008411 -0.000565 -0.004716 0.000000 0.002898 0.000000
# 2 -0.000565 0.007573 -0.005425 0.000000 0.000720 0.000000
# 3 -0.004716 -0.005425 0.014541 0.000000 -0.004865 0.000000
# 4 0.000000 0.000000 0.000000 0.018196 0.000000 -0.007024
# 5 0.002898 0.000720 -0.004865 0.000000 0.018656 0.000000
# 6 0.000000 0.000000 0.000000 -0.007024 0.000000 0.051697
#
#
# Mechanical properties :
#
#
# Convention : Reuss Voigt Hill
#
# Bulk Modulus (GPa) = 109.71738 113.95078 111.83408
# Shear Modulus (GPa) = 34.83735 45.61356 40.22546
#
# Velocity S-wave (km/s) = 3.78890 4.33548 4.07137
# Velocity P-wave (km/s) = 8.02205 8.48638 8.25748
#
# Compressibility (1/GPa) = 0.00911433
#
# Stress axis : x y z
#
# Youngs Moduli (GPa) = 118.88698 132.04360 68.77158
#
# Poissons Ratio (x) = 0.07455 0.32436
# Poissons Ratio (y) = 0.06712 0.37306
# Poissons Ratio (z) = 0.56072 0.71628
#
# Static dielectric constant tensor:
#      x y z
#    x 2.175670 0.000000 0.019160 
#    y 0.000000 1.954500 0.000000 
#    z 0.019160 0.000000 2.407750 
# 
# From -- ./inp_files/56778.got.cif
#   From: 2010.05.17/outbox.cif.g08.bks.cpg/sg15_29_cif.got.tgz:56778.got - 2010.06.03 18:47:42.
