data_PCOD9281243
_publ_section_title
;
Structure prediction by ZEFSAII (Michael W. Deem and Ramdas Pophale) SiO2 
 PCOD9281243
Probable space group: C 2/C
;
_chemical_formula_sum "Si O2"
_cell_formula_units_Z 32
_cell_length_a 8.143063
_cell_length_b 21.918926
_cell_length_c 13.479204
_cell_angle_alpha 90.000000
_cell_angle_beta 144.618283
_cell_angle_gamma 90.000000
_cell_volume 1393.046630
_symmetry_space_group_name_H-M "C 2/C"
_symmetry_group_IT_number 15
_symmetry_cell_setting 'monoclinic'
loop_
_space_group_symop_operation_xyz
x,y,z
-x,y,1/2-z
-x,-y,-z
x,-y,1/2+z
1/2+x,1/2+y,z
1/2-x,1/2+y,1/2-z
1/2-x,1/2-y,-z
1/2+x,1/2-y,1/2+z
loop_
_atom_site_type_symbol
_atom_site_label
_atom_site_fract_x
_atom_site_fract_y
_atom_site_fract_z
Si Si1 0.034447 0.999784 0.399289
Si Si2 0.872305 0.183316 0.576135
Si Si3 0.137685 0.390489 0.214379
Si Si4 0.955126 0.579678 0.415830
O O1 0.858965 0.940098 0.283871
O O2 0.344887 0.980645 0.511698
O O3 0.852548 0.057325 0.271804
O O4 0.000000 0.000000 0.500000
O O5 0.750000 0.250000 0.500000
O O6 0.621731 0.133521 0.438924
O O7 0.000000 0.178737 0.750000
O O8 0.158984 0.166408 0.657705
O O9 0.000000 0.410197 0.250000
O O10 0.939769 0.390524 0.019540
#
# Coordination Sequence:
#
# PCOD9281243 Si02
#       4
#     8   8   8   8
#     4  11  21  36  59  91 124 162 205 252 313 378
#     4   9  20  39  62  86 119 163 209 259 312 371
#     4  10  21  38  60  86 120 163 207 254 310 374
#     4  10  22  39  60  89 127 164 204 259 313 373
#
# _framework density 22.971233000000002
#
# number of rings (size 3 to 8) (size 9 to 14) (size 15 to 20)
#    0.000    2.000    0.000    5.250    0.000    6.000 
#    0.000    5.000    0.000   15.000    0.000    0.000 
#    0.000    0.000    0.000    0.000    0.000    0.000 
#
# Total GULP energy -89097.173971 kJ/mol
# GULP energy per Si atom -5568.573373 kJ/mol
# Density = 2.291895 g / cm^3
# Si number density = 22.971233 Si / 1000 Ang^3
#
#
#
# Elastic Constant Matrix: (Units=GPa)
#
#
# Indices 1 2 3 4 5 6 
#
# 1 158.9581 16.9597 55.1693 0.0000 0.6945 0.0000
# 2 16.9597 134.8115 54.4248 0.0000 19.9914 0.0000
# 3 55.1693 54.4248 106.7816 0.0000 11.1609 0.0000
# 4 0.0000 0.0000 0.0000 52.8419 0.0000 11.2289
# 5 0.6945 19.9914 11.1609 0.0000 49.1597 0.0000
# 6 0.0000 0.0000 0.0000 11.2289 0.0000 24.0092
#
#
#
# Elastic Compliance Matrix: (Units=1/GPa)
#
#
# Indices 1 2 3 4 5 6 
#
# 1 0.007751 0.000727 -0.004438 0.000000 0.000602 0.000000
# 2 0.000727 0.009795 -0.005071 0.000000 -0.002842 0.000000
# 3 -0.004438 -0.005071 0.014361 0.000000 -0.001136 0.000000
# 4 0.000000 0.000000 0.000000 0.021013 0.000000 -0.009827
# 5 0.000602 -0.002842 -0.001136 0.000000 0.021747 0.000000
# 6 0.000000 0.000000 0.000000 -0.009827 0.000000 0.046247
#
#
# Mechanical properties :
#
#
# Convention : Reuss Voigt Hill
#
# Bulk Modulus (GPa) = 69.71869 72.62875 71.17372
# Shear Modulus (GPa) = 34.90174 43.46866 39.18520
#
# Velocity S-wave (km/s) = 3.90213 4.35479 4.13466
# Velocity P-wave (km/s) = 7.12169 7.54794 7.33791
#
# Compressibility (1/GPa) = 0.01434336
#
# Stress axis : x y z
#
# Youngs Moduli (GPa) = 129.01332 102.09314 69.63145
#
# Poissons Ratio (x) = -0.07426 0.30905
# Poissons Ratio (y) = -0.09384 0.35311
# Poissons Ratio (z) = 0.57261 0.51772
#
# Static dielectric constant tensor:
#      x y z
#    x 1.978980 0.000000 0.045370 
#    y 0.000000 1.898160 0.000000 
#    z 0.045370 0.000000 2.065380 
# 
# From -- ./inp_files/23020.got.cif
#   From: 2010.05.17/outbox.cif.g08.bks.cpg/sg15_12_cif.got.tgz:23020.got - 2010.06.03 18:47:42.
