data_PCOD9281792
_publ_section_title
;
Structure prediction by ZEFSAII (Michael W. Deem and Ramdas Pophale) SiO2 
 PCOD9281792
Probable space group: C 2/C
;
_chemical_formula_sum "Si O2"
_cell_formula_units_Z 56
_cell_length_a 9.238815
_cell_length_b 18.347263
_cell_length_c 28.200108
_cell_angle_alpha 90.000000
_cell_angle_beta 145.496315
_cell_angle_gamma 90.000000
_cell_volume 2707.740208
_symmetry_space_group_name_H-M "C 2/C"
_symmetry_group_IT_number 15
_symmetry_cell_setting 'monoclinic'
loop_
_space_group_symop_operation_xyz
x,y,z
-x,y,1/2-z
-x,-y,-z
x,-y,1/2+z
1/2+x,1/2+y,z
1/2-x,1/2+y,1/2-z
1/2-x,1/2-y,-z
1/2+x,1/2-y,1/2+z
loop_
_atom_site_type_symbol
_atom_site_label
_atom_site_fract_x
_atom_site_fract_y
_atom_site_fract_z
Si Si1 0.619316 0.011837 0.082862
Si Si2 0.072579 0.108712 0.992708
Si Si3 0.121286 0.491379 0.387871
Si Si4 0.917222 0.194940 0.600743
Si Si5 0.739421 0.322830 0.850618
Si Si6 0.635198 0.247562 0.020951
Si Si7 0.899036 0.088577 0.774478
O O1 0.678346 0.094169 0.115751
O O2 0.426227 0.976489 0.069013
O O3 0.884026 0.969271 0.153928
O O4 0.500000 0.000000 0.000000
O O5 0.133828 0.142653 0.958153
O O6 0.864811 0.045325 0.929825
O O7 0.921262 0.170244 0.979500
O O8 0.300862 0.076634 0.086818
O O9 0.864805 0.456730 0.297461
O O10 0.643558 0.209466 0.550927
O O11 0.048553 0.268667 0.616049
O O12 0.097372 0.153509 0.686662
O O13 0.500000 0.323453 0.750000
O O14 0.695933 0.287848 0.891269
O O15 0.750000 0.250000 0.000000
O O16 0.000000 0.115252 0.750000
#
# Coordination Sequence:
#
# PCOD9281792 Si02
#       7
#     8   8   8   8   8   8   8
#     4  11  22  40  67  96 131 179 229 285 351 421
#     4  10  22  40  66  93 132 175 215 279 335 418
#     4  10  21  38  64  95 129 169 223 275 340 405
#     4  11  24  43  66  98 134 184 224 286 351 431
#     4  11  24  42  70  98 139 183 231 286 361 432
#     4  11  25  41  68  96 132 180 233 280 344 422
#     4  10  23  37  67  98 135 171 224 291 343 410
#
# _framework density 20.681452
#
# number of rings (size 3 to 8) (size 9 to 14) (size 15 to 20)
#    0.000    1.429    0.000    6.429   10.000    0.000 
#    0.000    0.000    3.143    0.000    0.000    0.000 
#    0.000    0.000    0.000    0.000    0.000    0.000 
#
# Total GULP energy -156202.118929 kJ/mol
# GULP energy per Si atom -5578.647105 kJ/mol
# Density = 2.063438 g / cm^3
# Si number density = 20.681452 Si / 1000 Ang^3
#
#
#
# Elastic Constant Matrix: (Units=GPa)
#
#
# Indices 1 2 3 4 5 6 
#
# 1 124.0868 40.8774 53.2608 -0.0001 -11.1543 0.0001
# 2 40.8774 97.9837 42.2633 0.0003 -15.0970 0.0002
# 3 53.2608 42.2633 128.3169 -0.0005 -17.9509 0.0009
# 4 -0.0001 0.0003 -0.0005 35.5485 0.0000 -8.9421
# 5 -11.1543 -15.0970 -17.9509 0.0000 29.0922 0.0005
# 6 0.0001 0.0002 0.0009 -8.9421 0.0005 19.1929
#
#
#
# Elastic Compliance Matrix: (Units=1/GPa)
#
#
# Indices 1 2 3 4 5 6 
#
# 1 0.010477 -0.002857 -0.003342 0.000000 0.000473 0.000000
# 2 -0.002857 0.013141 -0.002563 0.000000 0.004143 0.000000
# 3 -0.003342 -0.002563 0.010572 0.000000 0.003912 -0.000001
# 4 0.000000 0.000000 0.000000 0.031865 0.000000 0.014846
# 5 0.000473 0.004143 0.003912 0.000000 0.039118 -0.000001
# 6 0.000000 0.000000 -0.000001 0.014846 -0.000001 0.059019
#
#
# Mechanical properties :
#
#
# Convention : Reuss Voigt Hill
#
# Bulk Modulus (GPa) = 59.99826 69.24340 64.62083
# Shear Modulus (GPa) = 26.69935 31.03246 28.86590
#
# Velocity S-wave (km/s) = 3.59692 3.87783 3.74001
# Velocity P-wave (km/s) = 6.80618 7.32145 7.06851
#
# Compressibility (1/GPa) = 0.01666715
#
# Stress axis : x y z
#
# Youngs Moduli (GPa) = 95.45014 76.09569 94.59271
#
# Poissons Ratio (x) = 0.21737 0.31609
# Poissons Ratio (y) = 0.27266 0.24245
# Poissons Ratio (z) = 0.31896 0.19504
#
# Static dielectric constant tensor:
#      x y z
#    x 1.780820 0.000000 0.014550 
#    y 0.000000 1.721810 0.000000 
#    z 0.014550 0.000000 1.788820 
# 
# From -- ./inp_files/289748.got.cif
#   From: 2010.05.17/outbox.cif.g08.bks.cpg/sg15_145_cif.got.tgz:289748.got - 2010.06.03 18:47:42.
