data_PCOD9281911
_publ_section_title
;
Structure prediction by ZEFSAII (Michael W. Deem and Ramdas Pophale) SiO2 
 PCOD9281911
Probable space group: C 2/C
;
_chemical_formula_sum "Si O2"
_cell_formula_units_Z 40
_cell_length_a 12.837800
_cell_length_b 13.337658
_cell_length_c 20.375804
_cell_angle_alpha 90.000000
_cell_angle_beta 31.763772
_cell_angle_gamma 90.000000
_cell_volume 1836.605665
_symmetry_space_group_name_H-M "C 2/C"
_symmetry_group_IT_number 15
_symmetry_cell_setting 'monoclinic'
loop_
_space_group_symop_operation_xyz
x,y,z
-x,y,1/2-z
-x,-y,-z
x,-y,1/2+z
1/2+x,1/2+y,z
1/2-x,1/2+y,1/2-z
1/2-x,1/2-y,-z
1/2+x,1/2-y,1/2+z
loop_
_atom_site_type_symbol
_atom_site_label
_atom_site_fract_x
_atom_site_fract_y
_atom_site_fract_z
Si Si1 0.000000 0.153983 0.750000
Si Si2 0.321162 0.410673 0.723615
Si Si3 0.500000 0.287056 0.750000
Si Si4 0.853633 0.580281 0.608626
Si Si5 0.428875 0.289550 0.010542
Si Si6 0.017877 0.257847 0.609372
O O1 0.197926 0.094036 0.632116
O O2 0.934326 0.214271 0.721916
O O3 0.422953 0.357167 0.732053
O O4 0.273412 0.525821 0.766041
O O5 0.461702 0.376998 0.588434
O O6 0.104675 0.360380 0.831098
O O7 0.307282 0.221438 0.872995
O O8 0.000000 0.500000 0.500000
O O9 0.974405 0.681045 0.560995
O O10 0.473948 0.297132 0.064232
O O11 0.250000 0.250000 0.500000
#
# Coordination Sequence:
#
# PCOD9281911 Si02
#       6
#     4   8   4   8   8   8
#     4  12  23  40  66  99 130 174 223 274 336 409
#     4  11  22  40  62  98 132 177 224 281 339 399
#     4  10  21  38  66  87 132 180 219 274 340 407
#     4  12  22  38  65  96 130 172 228 272 334 405
#     4  11  23  40  65  98 135 174 232 275 342 411
#     4  11  19  38  64  95 132 172 213 278 342 395
#
# _framework density 21.779308
#
# number of rings (size 3 to 8) (size 9 to 14) (size 15 to 20)
#    0.000    0.800    8.000    1.200    0.000    0.000 
#    0.000    1.000    0.000    1.200    0.000    0.000 
#    0.000    0.000    0.000    0.000    0.000    0.000 
#
# Total GULP energy -111500.343367 kJ/mol
# GULP energy per Si atom -5575.017168 kJ/mol
# Density = 2.172974 g / cm^3
# Si number density = 21.779308 Si / 1000 Ang^3
#
#
#
# Elastic Constant Matrix: (Units=GPa)
#
#
# Indices 1 2 3 4 5 6 
#
# 1 113.9685 36.1484 42.8074 -0.0006 -18.7915 0.0001
# 2 36.1484 73.4218 41.4254 -0.0015 8.0567 0.0004
# 3 42.8074 41.4254 124.4660 -0.0052 -13.2098 0.0014
# 4 -0.0006 -0.0015 -0.0052 37.6168 0.0010 3.9172
# 5 -18.7915 8.0567 -13.2098 0.0010 62.1819 -0.0001
# 6 0.0001 0.0004 0.0014 3.9172 -0.0001 27.1877
#
#
#
# Elastic Compliance Matrix: (Units=1/GPa)
#
#
# Indices 1 2 3 4 5 6 
#
# 1 0.011749 -0.005109 -0.001937 0.000000 0.003801 0.000000
# 2 -0.005109 0.019740 -0.005369 0.000000 -0.005242 0.000000
# 3 -0.001937 -0.005369 0.010741 0.000001 0.002392 -0.000001
# 4 0.000000 0.000000 0.000001 0.026989 0.000000 -0.003889
# 5 0.003801 -0.005242 0.002392 0.000000 0.018418 0.000000
# 6 0.000000 0.000000 -0.000001 -0.003889 0.000000 0.037342
#
#
# Mechanical properties :
#
#
# Convention : Reuss Voigt Hill
#
# Bulk Modulus (GPa) = 57.47059 61.40209 59.43634
# Shear Modulus (GPa) = 32.13193 38.16230 35.14711
#
# Velocity S-wave (km/s) = 3.84519 4.19050 4.02155
# Velocity P-wave (km/s) = 6.79404 7.18803 6.99381
#
# Compressibility (1/GPa) = 0.01740021
#
# Stress axis : x y z
#
# Youngs Moduli (GPa) = 85.11348 50.65936 93.09729
#
# Poissons Ratio (x) = 0.25880 0.18034
# Poissons Ratio (y) = 0.43481 0.49986
# Poissons Ratio (z) = 0.16488 0.27200
#
# Static dielectric constant tensor:
#      x y z
#    x 1.795870 0.000000 -0.058510 
#    y 0.000000 1.911090 0.000000 
#    z -0.058510 0.000000 2.242740 
# 
# From -- ./inp_files/197616.got.cif
#   From: 2010.05.17/outbox.cif.g08.bks.cpg/sg15_99_cif.got.tgz:197616.got - 2010.06.03 18:47:42.
