data_PCOD9281935
_publ_section_title
;
Structure prediction by ZEFSAII (Michael W. Deem and Ramdas Pophale) SiO2 
 PCOD9281935
Probable space group: C 2/C
;
_chemical_formula_sum "Si O2"
_cell_formula_units_Z 60
_cell_length_a 18.246568
_cell_length_b 30.651071
_cell_length_c 8.075899
_cell_angle_alpha 90.000000
_cell_angle_beta 137.376659
_cell_angle_gamma 90.000000
_cell_volume 3058.575049
_symmetry_space_group_name_H-M "C 2/C"
_symmetry_group_IT_number 15
_symmetry_cell_setting 'monoclinic'
loop_
_space_group_symop_operation_xyz
x,y,z
-x,y,1/2-z
-x,-y,-z
x,-y,1/2+z
1/2+x,1/2+y,z
1/2-x,1/2+y,1/2-z
1/2-x,1/2-y,-z
1/2+x,1/2-y,1/2+z
loop_
_atom_site_type_symbol
_atom_site_label
_atom_site_fract_x
_atom_site_fract_y
_atom_site_fract_z
Si Si1 0.133954 0.544196 0.812812
Si Si2 0.581809 0.689002 0.739307
Si Si3 0.331101 0.787601 0.076245
Si Si4 0.500000 0.343520 0.750000
Si Si5 0.766837 0.873628 0.443433
Si Si6 0.392870 0.947722 0.839091
Si Si7 0.932835 0.717596 0.383277
Si Si8 0.698407 0.140256 0.457809
O O1 0.226120 0.578371 0.919619
O O2 0.150943 0.493169 0.806212
O O3 0.022839 0.555430 0.528713
O O4 0.117632 0.550256 0.980860
O O5 0.500000 0.676255 0.750000
O O6 0.534496 0.682856 0.473083
O O7 0.600662 0.740812 0.781014
O O8 0.691298 0.661254 0.931419
O O9 0.276712 0.835254 0.008561
O O10 0.440294 0.783544 0.365305
O O11 0.250000 0.750000 0.000000
O O12 0.368553 0.780321 0.950449
O O13 0.395485 0.370383 0.634232
O O14 0.716507 0.862442 0.182398
O O15 0.330352 0.906658 0.663160
O O16 0.897971 0.672996 0.241748
#
# Coordination Sequence:
#
# PCOD9281935 Si02
#       8
#     8   8   8   4   8   8   8   8
#     4  10  21  38  66  93 125 168 191 258 322 368
#     4  11  25  41  65  86 125 174 213 263 320 368
#     4  11  23  38  62  84 123 173 204 261 321 363
#     4  10  24  46  60  92 124 166 224 260 304 394
#     4  11  23  40  65  87 125 168 205 261 325 361
#     4  10  21  39  63  97 129 154 208 247 316 394
#     4  11  24  39  56  92 122 156 222 258 305 386
#     4  11  24  39  58  93 125 155 216 262 304 387
#
# _framework density 19.616976999999999
#
# number of rings (size 3 to 8) (size 9 to 14) (size 15 to 20)
#    0.000    1.333    0.000    6.000    7.467    4.800 
#    0.000    0.000    1.467    2.400    0.000    0.000 
#    0.000    0.000    0.000    0.000    0.000    0.000 
#
# Total GULP energy -167803.328630 kJ/mol
# GULP energy per Si atom -5593.444288 kJ/mol
# Density = 1.957233 g / cm^3
# Si number density = 19.616977 Si / 1000 Ang^3
#
#
#
# Elastic Constant Matrix: (Units=GPa)
#
#
# Indices 1 2 3 4 5 6 
#
# 1 92.9277 47.8850 31.4353 0.0000 17.5449 0.0000
# 2 47.8850 137.7904 43.3028 0.0000 27.1986 0.0000
# 3 31.4353 43.3028 74.5188 0.0000 12.6953 0.0000
# 4 0.0000 0.0000 0.0000 28.9848 0.0000 -6.6519
# 5 17.5449 27.1986 12.6953 0.0000 26.2974 0.0000
# 6 0.0000 0.0000 0.0000 -6.6519 0.0000 29.0498
#
#
#
# Elastic Compliance Matrix: (Units=1/GPa)
#
#
# Indices 1 2 3 4 5 6 
#
# 1 0.014384 -0.002927 -0.003539 0.000000 -0.004861 0.000000
# 2 -0.002927 0.010975 -0.003859 0.000000 -0.007535 0.000000
# 3 -0.003539 -0.003859 0.017513 0.000000 -0.002102 0.000000
# 4 0.000000 0.000000 0.000000 0.036414 0.000000 0.008338
# 5 -0.004861 -0.007535 -0.002102 0.000000 0.050078 0.000000
# 6 0.000000 0.000000 0.000000 0.008338 0.000000 0.036333
#
#
# Mechanical properties :
#
#
# Convention : Reuss Voigt Hill
#
# Bulk Modulus (GPa) = 45.00047 61.16478 53.08263
# Shear Modulus (GPa) = 25.80591 29.04065 27.42328
#
# Velocity S-wave (km/s) = 3.63090 3.85175 3.74295
# Velocity P-wave (km/s) = 6.36924 7.14342 6.76741
#
# Compressibility (1/GPa) = 0.02222199
#
# Stress axis : x y z
#
# Youngs Moduli (GPa) = 69.52043 91.11844 57.10105
#
# Poissons Ratio (x) = 0.26672 0.20207
# Poissons Ratio (y) = 0.20350 0.22035
# Poissons Ratio (z) = 0.24602 0.35162
#
# Static dielectric constant tensor:
#      x y z
#    x 1.711320 0.000000 -0.008790 
#    y 0.000000 1.671040 0.000000 
#    z -0.008790 0.000000 1.699450 
# 
# From -- ./inp_files/59139.got.cif
#   From: 2010.05.17/outbox.cif.g08.bks.cpg/sg15_30_cif.got.tgz:59139.got - 2010.06.03 18:47:42.
