data_PCOD9281817
_publ_section_title
;
Structure prediction by ZEFSAII (Michael W. Deem and Ramdas Pophale) SiO2 
 PCOD9281817
Probable space group: C 2/C
;
_chemical_formula_sum "Si O2"
_cell_formula_units_Z 56
_cell_length_a 17.932238
_cell_length_b 20.133739
_cell_length_c 7.969068
_cell_angle_alpha 90.000000
_cell_angle_beta 120.618714
_cell_angle_gamma 90.000000
_cell_volume 2476.027985
_symmetry_space_group_name_H-M "C 2/C"
_symmetry_group_IT_number 15
_symmetry_cell_setting 'monoclinic'
loop_
_space_group_symop_operation_xyz
x,y,z
-x,y,1/2-z
-x,-y,-z
x,-y,1/2+z
1/2+x,1/2+y,z
1/2-x,1/2+y,1/2-z
1/2-x,1/2-y,-z
1/2+x,1/2-y,1/2+z
loop_
_atom_site_type_symbol
_atom_site_label
_atom_site_fract_x
_atom_site_fract_y
_atom_site_fract_z
Si Si1 0.276647 0.856514 0.585444
Si Si2 0.662183 0.791307 0.171706
Si Si3 0.593932 0.589682 0.801293
Si Si4 0.031908 0.392485 0.118052
Si Si5 0.903125 0.938037 0.589303
Si Si6 0.910962 0.467801 0.754538
Si Si7 0.722261 0.659888 0.382536
O O1 0.302475 0.802124 0.476035
O O2 0.174770 0.868096 0.452775
O O3 0.329718 0.924764 0.601830
O O4 0.287225 0.843845 0.797129
O O5 0.574889 0.834559 0.063742
O O6 0.657254 0.717887 0.243297
O O7 0.726336 0.823004 0.386934
O O8 0.500000 0.616166 0.750000
O O9 0.601531 0.517112 0.894343
O O10 0.605233 0.580935 0.614782
O O11 0.099476 0.453985 0.223412
O O12 0.000000 0.359368 0.250000
O O13 0.946461 0.430532 0.958425
O O14 0.833426 0.904241 0.631963
O O15 0.000000 0.917221 0.750000
O O16 0.000000 0.460892 0.750000
#
# Coordination Sequence:
#
# PCOD9281817 Si02
#       7
#     8   8   8   8   8   8   8
#     4  12  23  42  71  96 132 175 222 275 341 394
#     4  11  24  43  65  90 135 181 224 272 332 385
#     4  11  23  41  68 102 132 168 212 282 345 403
#     4  10  21  39  62  96 134 167 216 274 333 399
#     4  11  22  42  65  97 133 165 221 277 333 406
#     4  10  21  38  64  98 132 163 215 278 331 396
#     4  11  25  42  63  96 129 180 228 272 320 405
#
# _framework density 22.616868
#
# number of rings (size 3 to 8) (size 9 to 14) (size 15 to 20)
#    0.000    1.143    2.857    4.714    2.000    1.714 
#    0.000    0.000    6.286    0.000    0.000    0.000 
#    0.000    0.000    0.000    0.000    0.000    0.000 
#
# Total GULP energy -156185.887647 kJ/mol
# GULP energy per Si atom -5578.067416 kJ/mol
# Density = 2.256539 g / cm^3
# Si number density = 22.616868 Si / 1000 Ang^3
#
#
#
# Elastic Constant Matrix: (Units=GPa)
#
#
# Indices 1 2 3 4 5 6 
#
# 1 86.9809 12.1967 14.1553 0.0000 -24.8511 0.0000
# 2 12.1967 33.8226 -6.2480 0.0000 5.8993 0.0000
# 3 14.1553 -6.2480 65.9729 0.0000 -22.4938 0.0000
# 4 0.0000 0.0000 0.0000 23.8678 0.0000 -5.5345
# 5 -24.8511 5.8993 -22.4938 0.0000 39.8558 0.0000
# 6 0.0000 0.0000 0.0000 -5.5345 0.0000 33.6018
#
#
#
# Elastic Compliance Matrix: (Units=1/GPa)
#
#
# Indices 1 2 3 4 5 6 
#
# 1 0.015676 -0.007593 -0.000454 0.000000 0.010642 0.000000
# 2 -0.007593 0.034175 0.001891 0.000000 -0.008726 0.000000
# 3 -0.000454 0.001891 0.018874 0.000000 0.010089 0.000000
# 4 0.000000 0.000000 0.000000 0.043561 0.000000 0.007175
# 5 0.010642 -0.008726 0.010089 0.000000 0.038712 0.000000
# 6 0.000000 0.000000 0.000000 0.007175 0.000000 0.030942
#
#
# Mechanical properties :
#
#
# Convention : Reuss Voigt Hill
#
# Bulk Modulus (GPa) = 17.72655 25.22049 21.47352
# Shear Modulus (GPa) = 23.46787 30.57657 27.02222
#
# Velocity S-wave (km/s) = 3.22472 3.68086 3.46031
# Velocity P-wave (km/s) = 4.66045 5.40743 5.04778
#
# Compressibility (1/GPa) = 0.05641254
#
# Stress axis : x y z
#
# Youngs Moduli (GPa) = 63.79252 29.26095 52.98235
#
# Poissons Ratio (x) = 0.22217 0.02406
# Poissons Ratio (y) = 0.48437 -0.10017
# Poissons Ratio (z) = 0.02897 -0.05532
#
# Static dielectric constant tensor:
#      x y z
#    x 1.946230 0.000000 -0.284280 
#    y 0.000000 1.864050 0.000000 
#    z -0.284280 0.000000 2.690760 
# 
# From -- ./inp_files/50327.got.cif
#   From: 2010.05.17/outbox.cif.g08.bks.cpg/sg15_26_cif.got.tgz:50327.got - 2010.06.03 18:47:42.
