data_PCOD9281603
_publ_section_title
;
Structure prediction by ZEFSAII (Michael W. Deem and Ramdas Pophale) SiO2 
 PCOD9281603
Probable space group: C 2/C
;
_chemical_formula_sum "Si O2"
_cell_formula_units_Z 56
_cell_length_a 15.826316
_cell_length_b 23.864395
_cell_length_c 9.116530
_cell_angle_alpha 90.000000
_cell_angle_beta 126.801475
_cell_angle_gamma 90.000000
_cell_volume 2757.009779
_symmetry_space_group_name_H-M "C 2/C"
_symmetry_group_IT_number 15
_symmetry_cell_setting 'monoclinic'
loop_
_space_group_symop_operation_xyz
x,y,z
-x,y,1/2-z
-x,-y,-z
x,-y,1/2+z
1/2+x,1/2+y,z
1/2-x,1/2+y,1/2-z
1/2-x,1/2-y,-z
1/2+x,1/2-y,1/2+z
loop_
_atom_site_type_symbol
_atom_site_label
_atom_site_fract_x
_atom_site_fract_y
_atom_site_fract_z
Si Si1 0.382698 0.401974 0.607061
Si Si2 0.709734 0.166307 0.490338
Si Si3 0.500000 0.414539 0.250000
Si Si4 0.309741 0.590558 0.360949
Si Si5 0.500000 0.239502 0.250000
Si Si6 0.306902 0.982168 0.177018
Si Si7 0.593438 0.323012 0.133189
Si Si8 0.599136 0.054022 0.457778
O O1 0.500000 0.428059 0.750000
O O2 0.342367 0.393490 0.731107
O O3 0.293868 0.440981 0.437973
O O4 0.399813 0.345969 0.525330
O O5 0.768903 0.145949 0.403711
O O6 0.604902 0.202279 0.362568
O O7 0.792659 0.195003 0.686002
O O8 0.674705 0.107389 0.522936
O O9 0.592750 0.438103 0.447437
O O10 0.562738 0.377602 0.196248
O O11 0.224408 0.541721 0.284105
O O12 0.511524 0.277713 0.114543
O O13 0.403321 0.957055 0.371839
O O14 0.345946 0.000533 0.059106
O O15 0.500000 0.065603 0.250000
#
# Coordination Sequence:
#
# PCOD9281603 Si02
#       8
#     8   8   4   8   4   8   8   8
#     4  12  23  38  61  91 136 168 200 255 316 368
#     4  10  21  40  65  91 120 155 211 263 302 369
#     4   9  18  36  58  90 118 162 210 244 297 366
#     4  10  22  37  60  92 132 167 205 248 306 367
#     4  11  22  42  72  90 110 164 218 260 319 366
#     4  11  23  37  57  94 129 170 207 248 299 374
#     4  10  21  38  63  89 117 155 204 264 311 364
#     4  11  21  39  62  89 124 168 210 250 307 366
#
# _framework density 20.311862000000001
#
# number of rings (size 3 to 8) (size 9 to 14) (size 15 to 20)
#    0.000    1.429    5.000    0.857    1.000    0.571 
#    0.000    0.714    0.000    0.000    0.000    0.000 
#    0.000    0.000    0.000    0.000    0.000    0.000 
#
# Total GULP energy -155916.189538 kJ/mol
# GULP energy per Si atom -5568.435341 kJ/mol
# Density = 2.026563 g / cm^3
# Si number density = 20.311862 Si / 1000 Ang^3
#
#
#
# Elastic Constant Matrix: (Units=GPa)
#
#
# Indices 1 2 3 4 5 6 
#
# 1 69.1317 22.1917 36.9058 0.0000 -3.8962 0.0000
# 2 22.1917 41.3776 33.4122 0.0000 -6.3990 0.0000
# 3 36.9058 33.4122 103.0310 0.0000 -5.1766 0.0000
# 4 0.0000 0.0000 0.0000 9.7679 0.0000 -0.9731
# 5 -3.8962 -6.3990 -5.1766 0.0000 46.3591 0.0000
# 6 0.0000 0.0000 0.0000 -0.9731 0.0000 -1.5176
#
#
#
# Elastic Compliance Matrix: (Units=1/GPa)
#
#
# Indices 1 2 3 4 5 6 
#
# 1 0.019053 -0.006348 -0.004757 0.000000 0.000194 0.000000
# 2 -0.006348 0.035383 -0.009033 0.000000 0.003342 0.000000
# 3 -0.004757 -0.009033 0.014337 0.000000 -0.000046 0.000000
# 4 0.000000 0.000000 0.000000 0.096230 0.000000 -0.061700
# 5 0.000194 0.003342 -0.000046 0.000000 0.022043 0.000000
# 6 0.000000 0.000000 0.000000 -0.061700 0.000000 -0.619357
#
#
# Mechanical properties :
#
#
# Convention : Reuss Voigt Hill
#
# Bulk Modulus (GPa) = 35.08967 44.28442 39.68704
# Shear Modulus (GPa) = -13.07058 18.99058 2.96000
#
# Velocity S-wave (km/s) = -2.53947 3.06101 1.20849
# Velocity P-wave (km/s) = 2.95202 5.86026 4.63988
#
# Compressibility (1/GPa) = 0.02849842
#
# Stress axis : x y z
#
# Youngs Moduli (GPa) = 52.48519 28.26240 69.75164
#
# Poissons Ratio (x) = 0.17940 0.33178
# Poissons Ratio (y) = 0.33316 0.63005
# Poissons Ratio (z) = 0.24965 0.25529
#
# Static dielectric constant tensor:
#      x y z
#    x 1.771820 0.000000 0.037240 
#    y 0.000000 1.744770 0.000000 
#    z 0.037240 0.000000 1.786990 
# 
# From -- ./inp_files/51614.got.cif
#   From: 2010.05.17/outbox.cif.g08.bks.cpg/sg15_26_cif.got.tgz:51614.got - 2010.06.03 18:47:42.
