data_PCOD9281136
_publ_section_title
;
Structure prediction by ZEFSAII (Michael W. Deem and Ramdas Pophale) SiO2 
 PCOD9281136
Probable space group: C 2/C
;
_chemical_formula_sum "Si O2"
_cell_formula_units_Z 56
_cell_length_a 23.610441
_cell_length_b 12.226067
_cell_length_c 23.146945
_cell_angle_alpha 90.000000
_cell_angle_beta 21.900720
_cell_angle_gamma 90.000000
_cell_volume 2492.256471
_symmetry_space_group_name_H-M "C 2/C"
_symmetry_group_IT_number 15
_symmetry_cell_setting 'monoclinic'
loop_
_space_group_symop_operation_xyz
x,y,z
-x,y,1/2-z
-x,-y,-z
x,-y,1/2+z
1/2+x,1/2+y,z
1/2-x,1/2+y,1/2-z
1/2-x,1/2-y,-z
1/2+x,1/2-y,1/2+z
loop_
_atom_site_type_symbol
_atom_site_label
_atom_site_fract_x
_atom_site_fract_y
_atom_site_fract_z
Si Si1 0.396939 0.902462 0.174696
Si Si2 0.984134 0.619101 0.147504
Si Si3 0.173213 0.053578 0.785313
Si Si4 0.220350 0.246836 0.367171
Si Si5 0.930083 0.829040 0.599395
Si Si6 0.000000 0.547091 0.250000
Si Si7 0.768824 0.627691 0.917332
Si Si8 0.500000 0.695215 0.250000
O O1 0.319170 0.946530 0.189860
O O2 0.472872 0.784483 0.089920
O O3 0.274337 0.882421 0.342480
O O4 0.498395 0.001038 0.103712
O O5 0.807114 0.652831 0.318485
O O6 0.054323 0.615555 0.144111
O O7 0.055535 0.717634 0.044104
O O8 0.200998 0.134750 0.706476
O O9 0.127791 0.932235 0.809434
O O10 0.049643 0.113263 0.943371
O O11 0.206297 0.207207 0.314497
O O12 0.134523 0.471794 0.147184
O O13 0.875681 0.731003 0.833502
O O14 0.605551 0.635340 0.102498
#
# Coordination Sequence:
#
# PCOD9281136 Si02
#       8
#     8   8   8   8   8   4   8   4
#     4  10  22  36  63  90 127 165 208 251 317 374
#     4  11  23  43  65  90 120 167 207 269 317 375
#     4  10  21  38  58  94 129 164 203 254 298 387
#     4  11  22  40  64  88 124 162 210 254 318 371
#     4  10  21  38  59  93 130 163 202 254 307 377
#     4   9  22  44  62  87 122 156 221 260 317 372
#     4   9  19  38  59  92 123 166 202 264 310 376
#     4   9  18  36  60  85 130 160 205 258 321 362
#
# _framework density 22.469598999999999
#
# number of rings (size 3 to 8) (size 9 to 14) (size 15 to 20)
#    0.000    2.000    2.857    0.000    2.000    5.143 
#    7.714    2.857    0.000    0.000    0.000    0.000 
#    0.000    0.000    0.000    0.000    0.000    0.000 
#
# Total GULP energy -156128.877393 kJ/mol
# GULP energy per Si atom -5576.031335 kJ/mol
# Density = 2.241846 g / cm^3
# Si number density = 22.469599 Si / 1000 Ang^3
#
#
#
# Elastic Constant Matrix: (Units=GPa)
#
#
# Indices 1 2 3 4 5 6 
#
# 1 58.3474 30.2018 -3.9997 -0.0001 9.7097 0.0000
# 2 30.2018 124.6723 26.8202 -0.0003 -1.1089 -0.0005
# 3 -3.9997 26.8202 70.3116 -0.0005 8.3121 0.0005
# 4 -0.0001 -0.0003 -0.0005 25.2062 0.0003 6.1360
# 5 9.7097 -1.1089 8.3121 0.0003 19.9073 -0.0002
# 6 0.0000 -0.0005 0.0005 6.1360 -0.0002 17.0959
#
#
#
# Elastic Compliance Matrix: (Units=1/GPa)
#
#
# Indices 1 2 3 4 5 6 
#
# 1 0.023565 -0.007067 0.005724 0.000000 -0.014277 -0.000001
# 2 -0.007067 0.010932 -0.005314 0.000000 0.006275 0.000001
# 3 0.005724 -0.005314 0.017820 0.000001 -0.010528 -0.000001
# 4 0.000000 0.000000 0.000001 0.043471 -0.000001 -0.015602
# 5 -0.014277 0.006275 -0.010528 -0.000001 0.061942 0.000002
# 6 -0.000001 0.000001 -0.000001 -0.015602 0.000002 0.064094
#
#
# Mechanical properties :
#
#
# Convention : Reuss Voigt Hill
#
# Bulk Modulus (GPa) = 25.63898 39.93067 32.78483
# Shear Modulus (GPa) = 20.15012 25.79580 22.97296
#
# Velocity S-wave (km/s) = 2.99786 3.39194 3.20097
# Velocity P-wave (km/s) = 4.83924 5.75759 5.31827
#
# Compressibility (1/GPa) = 0.03900311
#
# Stress axis : x y z
#
# Youngs Moduli (GPa) = 42.43578 91.47516 56.11816
#
# Poissons Ratio (x) = 0.64645 -0.32122
# Poissons Ratio (y) = 0.29989 0.29820
# Poissons Ratio (z) = -0.24290 0.48607
#
# Static dielectric constant tensor:
#      x y z
#    x 1.827590 0.000000 0.010940 
#    y 0.000000 1.838300 0.000000 
#    z 0.010940 0.000000 1.970830 
# 
# From -- ./inp_files/303267.got.cif
#   From: 2010.05.17/outbox.cif.g08.bks.cpg/sg15_152_cif.got.tgz:303267.got - 2010.06.03 18:47:42.
