data_PCOD9281377
_publ_section_title
;
Structure prediction by ZEFSAII (Michael W. Deem and Ramdas Pophale) SiO2 
 PCOD9281377
Probable space group: C 2/C
;
_chemical_formula_sum "Si O2"
_cell_formula_units_Z 40
_cell_length_a 8.579131
_cell_length_b 11.878013
_cell_length_c 15.065300
_cell_angle_alpha 90.000000
_cell_angle_beta 84.473498
_cell_angle_gamma 90.000000
_cell_volume 1528.063732
_symmetry_space_group_name_H-M "C 2/C"
_symmetry_group_IT_number 15
_symmetry_cell_setting 'monoclinic'
loop_
_space_group_symop_operation_xyz
x,y,z
-x,y,1/2-z
-x,-y,-z
x,-y,1/2+z
1/2+x,1/2+y,z
1/2-x,1/2+y,1/2-z
1/2-x,1/2-y,-z
1/2+x,1/2-y,1/2+z
loop_
_atom_site_type_symbol
_atom_site_label
_atom_site_fract_x
_atom_site_fract_y
_atom_site_fract_z
Si Si1 0.954294 0.698222 0.653199
Si Si2 0.788204 0.098881 0.092049
Si Si3 0.178026 0.488591 0.781075
Si Si4 0.969317 0.284019 0.647611
Si Si5 0.270023 0.633486 0.550914
O O1 0.810274 0.610490 0.674581
O O2 0.000000 0.738039 0.750000
O O3 0.098939 0.628942 0.606073
O O4 0.914587 0.802907 0.592937
O O5 0.783760 0.043346 0.191704
O O6 0.803377 0.995707 0.023314
O O7 0.621672 0.162803 0.093173
O O8 0.165465 0.381906 0.847049
O O9 0.000000 0.493020 0.750000
O O10 0.907217 0.170685 0.609748
O O11 0.000000 0.265796 0.750000
O O12 0.250000 0.750000 0.500000
#
# Coordination Sequence:
#
# PCOD9281377 Si02
#       5
#     8   8   8   8   8
#     4  11  19  40  67  89 125 165 210 262 308 365
#     4  10  21  38  61  89 119 162 210 257 308 370
#     4   8  15  33  62  85 113 152 207 254 300 350
#     4   9  19  40  64  87 122 160 212 262 300 363
#     4  12  25  41  61  94 135 166 201 257 320 375
#
# _framework density 26.176919999999999
#
# number of rings (size 3 to 8) (size 9 to 14) (size 15 to 20)
#    0.000    2.400    6.000    2.400    0.000    2.400 
#    3.600    1.000    0.000    0.000    0.000    0.000 
#    0.000    0.000    0.000    0.000    0.000    0.000 
#
# Total GULP energy -111686.197582 kJ/mol
# GULP energy per Si atom -5584.309879 kJ/mol
# Density = 2.611734 g / cm^3
# Si number density = 26.176920 Si / 1000 Ang^3
#
#
#
# Elastic Constant Matrix: (Units=GPa)
#
#
# Indices 1 2 3 4 5 6 
#
# 1 46.7044 46.7859 6.5202 0.0000 -3.1639 0.0000
# 2 46.7859 147.6942 20.3743 0.0000 9.1627 0.0000
# 3 6.5202 20.3743 32.4344 0.0000 2.9397 0.0000
# 4 0.0000 0.0000 0.0000 39.7779 0.0000 -4.4896
# 5 -3.1639 9.1627 2.9397 0.0000 23.0886 0.0000
# 6 0.0000 0.0000 0.0000 -4.4896 0.0000 37.2932
#
#
#
# Elastic Compliance Matrix: (Units=1/GPa)
#
#
# Indices 1 2 3 4 5 6 
#
# 1 0.033068 -0.010950 -0.000580 0.000000 0.008951 0.000000
# 2 -0.010950 0.011171 -0.004328 0.000000 -0.005383 0.000000
# 3 -0.000580 -0.004328 0.033910 0.000000 -0.002679 0.000000
# 4 0.000000 0.000000 0.000000 0.025486 0.000000 0.003068
# 5 0.008951 -0.005383 -0.002679 0.000000 0.047015 0.000000
# 6 0.000000 0.000000 0.000000 0.003068 0.000000 0.027184
#
#
# Mechanical properties :
#
#
# Convention : Reuss Voigt Hill
#
# Bulk Modulus (GPa) = 21.53708 41.57708 31.55708
# Shear Modulus (GPa) = 22.21952 30.24211 26.23082
#
# Velocity S-wave (km/s) = 2.91661 3.40265 3.16897
# Velocity P-wave (km/s) = 4.42578 5.59955 5.04691
#
# Compressibility (1/GPa) = 0.04643155
#
# Stress axis : x y z
#
# Youngs Moduli (GPa) = 30.24048 89.52114 29.49020
#
# Poissons Ratio (x) = 0.98030 0.01711
# Poissons Ratio (y) = 0.33115 0.12763
# Poissons Ratio (z) = 0.01754 0.38743
#
# Static dielectric constant tensor:
#      x y z
#    x 2.068980 0.000000 0.021960 
#    y 0.000000 2.161290 0.000000 
#    z 0.021960 0.000000 2.153810 
# 
# From -- ./inp_files/229804.got.cif
#   From: 2010.05.17/outbox.cif.g08.bks.cpg/sg15_115_cif.got.tgz:229804.got - 2010.06.03 18:47:42.
