data_PCOD9281798
_publ_section_title
;
Structure prediction by ZEFSAII (Michael W. Deem and Ramdas Pophale) SiO2 
 PCOD9281798
Probable space group: C 2/C
;
_chemical_formula_sum "Si O2"
_cell_formula_units_Z 56
_cell_length_a 8.450427
_cell_length_b 27.616934
_cell_length_c 18.977159
_cell_angle_alpha 90.000000
_cell_angle_beta 147.674185
_cell_angle_gamma 90.000000
_cell_volume 2368.221981
_symmetry_space_group_name_H-M "C 2/C"
_symmetry_group_IT_number 15
_symmetry_cell_setting 'monoclinic'
loop_
_space_group_symop_operation_xyz
x,y,z
-x,y,1/2-z
-x,-y,-z
x,-y,1/2+z
1/2+x,1/2+y,z
1/2-x,1/2+y,1/2-z
1/2-x,1/2-y,-z
1/2+x,1/2-y,1/2+z
loop_
_atom_site_type_symbol
_atom_site_label
_atom_site_fract_x
_atom_site_fract_y
_atom_site_fract_z
Si Si1 0.276435 0.583361 0.313138
Si Si2 0.892647 0.452229 0.054857
Si Si3 0.407434 0.863529 0.296869
Si Si4 0.512016 0.062342 0.074849
Si Si5 0.266706 0.800805 0.967280
Si Si6 0.743467 0.666088 0.961494
Si Si7 0.377915 0.193506 0.272833
O O1 0.572875 0.565182 0.459444
O O2 0.274292 0.571263 0.229269
O O3 0.222261 0.640463 0.293206
O O4 0.000000 0.560692 0.250000
O O5 0.926897 0.439654 0.985062
O O6 0.121690 0.418818 0.184428
O O7 0.902403 0.509966 0.058809
O O8 0.500000 0.863940 0.250000
O O9 0.653140 0.838452 0.439255
O O10 0.099932 0.833709 0.188066
O O11 0.306951 0.109531 0.004639
O O12 0.524359 0.814571 0.009187
O O13 0.250000 0.750000 0.000000
O O14 0.937258 0.797186 0.809084
O O15 0.848444 0.693171 0.071267
O O16 0.500000 0.221338 0.250000
#
# Coordination Sequence:
#
# PCOD9281798 Si02
#       7
#     8   8   8   8   8   8   8
#     4  10  21  38  64  95 138 185 242 298 349 425
#     4  11  23  41  64  99 143 191 250 299 362 439
#     4  12  27  46  70 105 155 198 242 315 381 436
#     4  10  23  39  68  99 136 192 250 296 358 432
#     4  12  26  47  75 107 140 186 248 312 380 455
#     4  11  24  46  73 105 147 199 243 301 373 441
#     4  10  21  43  72 101 138 190 237 291 364 439
#
# _framework density 23.646432000000001
#
# number of rings (size 3 to 8) (size 9 to 14) (size 15 to 20)
#    0.000    1.143    2.857    2.143    6.000    5.714 
#    0.000    2.143    0.000    0.000    0.000    0.000 
#    0.000    0.000    0.000    0.000    0.000    0.000 
#
# Total GULP energy -156067.793402 kJ/mol
# GULP energy per Si atom -5573.849764 kJ/mol
# Density = 2.359261 g / cm^3
# Si number density = 23.646432 Si / 1000 Ang^3
#
#
#
# Elastic Constant Matrix: (Units=GPa)
#
#
# Indices 1 2 3 4 5 6 
#
# 1 119.5096 12.5848 33.6595 0.0085 -1.6233 0.0118
# 2 12.5848 60.1849 3.4204 0.0013 12.0407 0.0059
# 3 33.6595 3.4204 112.7503 -0.0105 11.5993 -0.0350
# 4 0.0085 0.0013 -0.0105 -70.2633 0.0030 -131.6556
# 5 -1.6233 12.0407 11.5993 0.0030 26.3726 0.0072
# 6 0.0118 0.0059 -0.0350 -131.6556 0.0072 -213.2144
#
#
#
# Elastic Compliance Matrix: (Units=1/GPa)
#
#
# Indices 1 2 3 4 5 6 
#
# 1 0.009534 -0.002429 -0.003087 0.000002 0.003053 0.000000
# 2 -0.002429 0.018915 0.001105 0.000002 -0.009272 -0.000001
# 3 -0.003087 0.001105 0.010294 -0.000010 -0.005222 0.000004
# 4 0.000002 0.000002 -0.000010 0.090650 0.000009 -0.055974
# 5 0.003053 -0.009272 -0.005222 0.000009 0.044636 -0.000003
# 6 0.000000 -0.000001 0.000004 -0.055974 -0.000003 0.029873
#
#
# Mechanical properties :
#
#
# Convention : Reuss Voigt Hill
#
# Bulk Modulus (GPa) = 33.41933 43.53048 38.47490
# Shear Modulus (GPa) = 22.45191 -35.23566 -6.39187
#
# Velocity S-wave (km/s) = 3.08471 -3.86438 -1.64589
# Velocity P-wave (km/s) = 5.18178 1.20927 3.56290
#
# Compressibility (1/GPa) = 0.02992281
#
# Stress axis : x y z
#
# Youngs Moduli (GPa) = 104.88620 52.86676 97.14069
#
# Poissons Ratio (x) = 0.12842 0.29984
# Poissons Ratio (y) = 0.25478 -0.10736
# Poissons Ratio (z) = 0.32375 -0.05843
#
# Static dielectric constant tensor:
#      x y z
#    x 1.967630 -0.000010 0.015030 
#    y -0.000010 2.046550 0.000030 
#    z 0.015030 0.000030 1.769180 
# 
# From -- ./inp_files/234974.got.cif
#   From: 2010.05.17/outbox.cif.g08.bks.cpg/sg15_118_cif.got.tgz:234974.got - 2010.06.03 18:47:42.
