data_PCOD9281631
_publ_section_title
;
Structure prediction by ZEFSAII (Michael W. Deem and Ramdas Pophale) SiO2 
 PCOD9281631
Probable space group: C 2/C
;
_chemical_formula_sum "Si O2"
_cell_formula_units_Z 48
_cell_length_a 17.741263
_cell_length_b 31.089837
_cell_length_c 9.570837
_cell_angle_alpha 90.000000
_cell_angle_beta 25.519253
_cell_angle_gamma 90.000000
_cell_volume 2274.275519
_symmetry_space_group_name_H-M "C 2/C"
_symmetry_group_IT_number 15
_symmetry_cell_setting 'monoclinic'
loop_
_space_group_symop_operation_xyz
x,y,z
-x,y,1/2-z
-x,-y,-z
x,-y,1/2+z
1/2+x,1/2+y,z
1/2-x,1/2+y,1/2-z
1/2-x,1/2-y,-z
1/2+x,1/2-y,1/2+z
loop_
_atom_site_type_symbol
_atom_site_label
_atom_site_fract_x
_atom_site_fract_y
_atom_site_fract_z
Si Si1 0.874244 0.712406 0.842507
Si Si2 0.213591 0.040765 0.733830
Si Si3 0.709084 0.623773 0.567444
Si Si4 0.121981 0.711448 0.172675
Si Si5 0.212840 0.874502 0.735660
Si Si6 0.785269 0.957324 0.944853
O O1 0.000000 0.731233 0.750000
O O2 0.994548 0.699791 0.512361
O O3 0.750000 0.750000 0.000000
O O4 0.780588 0.670813 0.063710
O O5 0.269668 0.083187 0.556331
O O6 0.268571 0.998514 0.556468
O O7 0.270951 0.040533 0.799403
O O8 0.999412 0.041763 0.090746
O O9 0.772192 0.667932 0.531890
O O10 0.764538 0.620367 0.311840
O O11 0.498046 0.624957 0.917133
O O12 0.000000 0.725440 0.250000
O O13 0.250000 0.750000 0.000000
O O14 0.271685 0.914061 0.539823
#
# Coordination Sequence:
#
# PCOD9281631 Si02
#       6
#     8   8   8   8   8   8
#     4  12  25  45  66  94 125 167 214 263 319 383
#     4   9  17  31  55  89 127 164 211 259 307 367
#     4  10  21  39  61  92 127 167 211 261 318 370
#     4  12  27  44  67  93 128 167 212 265 322 385
#     4  10  21  38  63  91 127 167 211 263 314 374
#     4   9  17  31  55  90 125 166 209 259 309 364
#
# _framework density 21.105623000000001
#
# number of rings (size 3 to 8) (size 9 to 14) (size 15 to 20)
#    0.000    1.667    1.667    3.000    4.667    4.000 
#    3.000    0.000    0.000    2.000    0.000    0.000 
#    0.000    0.000    0.000    0.000    0.000    0.000 
#
# Total GULP energy -134202.956717 kJ/mol
# GULP energy per Si atom -5591.789863 kJ/mol
# Density = 2.105759 g / cm^3
# Si number density = 21.105623 Si / 1000 Ang^3
#
#
#
# Elastic Constant Matrix: (Units=GPa)
#
#
# Indices 1 2 3 4 5 6 
#
# 1 160.4337 95.3884 46.2931 0.0002 27.0369 0.0000
# 2 95.3884 209.4722 49.0572 0.0000 20.5571 0.0000
# 3 46.2931 49.0572 59.3904 0.0004 29.0045 -0.0001
# 4 0.0002 0.0000 0.0004 39.1628 -0.0003 12.5879
# 5 27.0369 20.5571 29.0045 -0.0003 33.3187 0.0000
# 6 0.0000 0.0000 -0.0001 12.5879 0.0000 31.6282
#
#
#
# Elastic Compliance Matrix: (Units=1/GPa)
#
#
# Indices 1 2 3 4 5 6 
#
# 1 0.009672 -0.003329 -0.003409 0.000000 -0.002827 0.000000
# 2 -0.003329 0.007086 -0.004249 0.000000 0.002028 0.000000
# 3 -0.003409 -0.004249 0.035440 -0.000001 -0.025464 0.000000
# 4 0.000000 0.000000 -0.000001 0.029280 0.000001 -0.011653
# 5 -0.002827 0.002028 -0.025464 0.000001 0.053223 0.000000
# 6 0.000000 0.000000 0.000000 -0.011653 0.000000 0.036255
#
#
# Mechanical properties :
#
#
# Convention : Reuss Voigt Hill
#
# Bulk Modulus (GPa) = 33.08452 90.08597 61.58524
# Shear Modulus (GPa) = 24.63004 36.72579 30.67792
#
# Velocity S-wave (km/s) = 3.41983 4.17597 3.81667
# Velocity P-wave (km/s) = 5.59494 8.12574 6.97607
#
# Compressibility (1/GPa) = 0.03022562
#
# Stress axis : x y z
#
# Youngs Moduli (GPa) = 103.38705 141.12918 28.21675
#
# Poissons Ratio (x) = 0.46978 0.09619
# Poissons Ratio (y) = 0.34415 0.11988
# Poissons Ratio (z) = 0.35244 0.59960
#
# Static dielectric constant tensor:
#      x y z
#    x 1.730650 0.000000 -0.029070 
#    y 0.000000 1.726650 0.000000 
#    z -0.029070 0.000000 1.771150 
# 
# From -- ./inp_files/52741.got.cif
#   From: 2010.05.17/outbox.cif.g08.bks.cpg/sg15_27_cif.got.tgz:52741.got - 2010.06.03 18:47:42.
