data_PCOD9281512
_publ_section_title
;
Structure prediction by ZEFSAII (Michael W. Deem and Ramdas Pophale) SiO2 
 PCOD9281512
Probable space group: C 2/C
;
_chemical_formula_sum "Si O2"
_cell_formula_units_Z 64
_cell_length_a 16.514661
_cell_length_b 12.793973
_cell_length_c 14.457890
_cell_angle_alpha 90.000000
_cell_angle_beta 103.115836
_cell_angle_gamma 90.000000
_cell_volume 2975.091312
_symmetry_space_group_name_H-M "C 2/C"
_symmetry_group_IT_number 15
_symmetry_cell_setting 'monoclinic'
loop_
_space_group_symop_operation_xyz
x,y,z
-x,y,1/2-z
-x,-y,-z
x,-y,1/2+z
1/2+x,1/2+y,z
1/2-x,1/2+y,1/2-z
1/2-x,1/2-y,-z
1/2+x,1/2-y,1/2+z
loop_
_atom_site_type_symbol
_atom_site_label
_atom_site_fract_x
_atom_site_fract_y
_atom_site_fract_z
Si Si1 0.160641 0.998769 0.660821
Si Si2 0.263176 0.919147 0.527909
Si Si3 0.580315 0.209474 0.386080
Si Si4 0.625489 0.414610 0.342985
Si Si5 0.579042 0.702518 0.548448
Si Si6 0.007094 0.892399 0.852497
Si Si7 0.377029 0.075533 0.456725
Si Si8 0.501537 0.015793 0.648605
O O1 0.173251 0.031124 0.770637
O O2 0.123268 0.102593 0.603889
O O3 0.237515 0.952601 0.624486
O O4 0.085517 0.915493 0.636793
O O5 0.332773 0.828942 0.546064
O O6 0.181027 0.897240 0.447768
O O7 0.301804 0.018526 0.485751
O O8 0.596615 0.296625 0.311735
O O9 0.510389 0.265341 0.431063
O O10 0.542023 0.097668 0.349443
O O11 0.551572 0.494441 0.349087
O O12 0.560159 0.671975 0.438220
O O13 0.635414 0.804974 0.572695
O O14 0.000000 0.842425 0.750000
O O15 0.410776 0.010049 0.377606
O O16 0.449552 0.073650 0.554705
O O17 0.500000 0.065437 0.750000
#
# Coordination Sequence:
#
# PCOD9281512 Si02
#       8
#     8   8   8   8   8   8   8   8
#     4  11  23  38  64  90 121 162 205 254 317 353
#     4  11  23  43  56  89 136 163 191 258 317 367
#     4  10  22  36  66  91 116 157 211 252 305 356
#     4  11  22  39  62  91 119 158 208 257 301 376
#     4  11  20  40  65  88 118 162 206 261 293 367
#     4  10  21  38  62  91 120 154 209 259 307 354
#     4   9  22  37  57  88 123 158 203 236 313 365
#     4   9  19  37  61  88 117 158 202 257 286 358
#
# _framework density 21.511944
#
# number of rings (size 3 to 8) (size 9 to 14) (size 15 to 20)
#    0.000    1.750    2.500    2.250    3.500    3.000 
#    0.000    2.500    0.000    0.000    0.000    0.000 
#    0.000    0.000    0.000    0.000    0.000    0.000 
#
# Total GULP energy -178629.508368 kJ/mol
# GULP energy per Si atom -5582.172136 kJ/mol
# Density = 2.146298 g / cm^3
# Si number density = 21.511944 Si / 1000 Ang^3
#
#
#
# Elastic Constant Matrix: (Units=GPa)
#
#
# Indices 1 2 3 4 5 6 
#
# 1 56.6662 9.1168 1.1105 0.0000 -15.7603 0.0000
# 2 9.1168 56.3971 -2.8946 0.0000 -10.2984 0.0000
# 3 1.1105 -2.8946 73.8638 0.0000 -10.5299 0.0000
# 4 0.0000 0.0000 0.0000 4.2464 0.0000 3.0596
# 5 -15.7603 -10.2984 -10.5299 0.0000 30.0386 0.0000
# 6 0.0000 0.0000 0.0000 3.0596 0.0000 18.7018
#
#
#
# Elastic Compliance Matrix: (Units=1/GPa)
#
#
# Indices 1 2 3 4 5 6 
#
# 1 0.020872 -0.001320 0.001191 0.000000 0.010916 0.000000
# 2 -0.001320 0.019217 0.001698 0.000000 0.006491 0.000000
# 3 0.001191 0.001698 0.014483 0.000000 0.006284 0.000000
# 4 0.000000 0.000000 0.000000 0.266961 0.000000 -0.043675
# 5 0.010916 0.006491 0.006284 0.000000 0.043446 0.000000
# 6 0.000000 0.000000 0.000000 -0.043675 0.000000 0.060616
#
#
# Mechanical properties :
#
#
# Convention : Reuss Voigt Hill
#
# Bulk Modulus (GPa) = 17.32772 22.39916 19.86344
# Shear Modulus (GPa) = 11.32006 22.57032 16.94519
#
# Velocity S-wave (km/s) = 2.29644 3.24265 2.80966
# Velocity P-wave (km/s) = 3.88638 4.94517 4.44740
#
# Compressibility (1/GPa) = 0.05771099
#
# Stress axis : x y z
#
# Youngs Moduli (GPa) = 47.91064 52.03655 69.04697
#
# Poissons Ratio (x) = 0.06867 -0.08221
# Poissons Ratio (y) = 0.06323 -0.11726
# Poissons Ratio (z) = -0.05705 -0.08837
#
# Static dielectric constant tensor:
#      x y z
#    x 1.804860 0.000000 0.017130 
#    y 0.000000 1.777020 0.000000 
#    z 0.017130 0.000000 1.808330 
# 
# From -- ./inp_files/161946.got.cif
#   From: 2010.05.17/outbox.cif.g08.bks.cpg/sg15_81_cif.got.tgz:161946.got - 2010.06.03 18:47:42.
