data_PCOD9281851
_publ_section_title
;
Structure prediction by ZEFSAII (Michael W. Deem and Ramdas Pophale) SiO2 
 PCOD9281851
Probable space group: C 2/C
;
_chemical_formula_sum "Si O2"
_cell_formula_units_Z 44
_cell_length_a 6.083879
_cell_length_b 26.714889
_cell_length_c 14.309404
_cell_angle_alpha 90.000000
_cell_angle_beta 75.870710
_cell_angle_gamma 90.000000
_cell_volume 2255.350733
_symmetry_space_group_name_H-M "C 2/C"
_symmetry_group_IT_number 15
_symmetry_cell_setting 'monoclinic'
loop_
_space_group_symop_operation_xyz
x,y,z
-x,y,1/2-z
-x,-y,-z
x,-y,1/2+z
1/2+x,1/2+y,z
1/2-x,1/2+y,1/2-z
1/2-x,1/2-y,-z
1/2+x,1/2-y,1/2+z
loop_
_atom_site_type_symbol
_atom_site_label
_atom_site_fract_x
_atom_site_fract_y
_atom_site_fract_z
Si Si1 0.707478 0.890381 0.415085
Si Si2 0.438312 0.792913 0.995705
Si Si3 0.000000 0.172329 0.750000
Si Si4 0.175629 0.462365 0.028823
Si Si5 0.191278 0.743189 0.656057
Si Si6 0.503557 0.508898 0.638443
O O1 0.688615 0.846290 0.493358
O O2 0.453065 0.911380 0.436755
O O3 0.867981 0.939310 0.405297
O O4 0.809222 0.862203 0.315754
O O5 0.556858 0.783080 0.084373
O O6 0.250000 0.750000 0.000000
O O7 0.645438 0.786090 0.902261
O O8 0.867514 0.205766 0.688414
O O9 0.259164 0.484691 0.117893
O O10 0.376824 0.464136 0.931756
O O11 0.000000 0.500000 0.000000
O O12 0.000000 0.759209 0.750000
O O13 0.500000 0.503841 0.750000
#
# Coordination Sequence:
#
# PCOD9281851 Si02
#       6
#     8   8   4   8   8   8
#     4  11  22  36  61  91 122 155 206 255 308 368
#     4  11  23  37  58  87 123 162 199 256 306 352
#     4  12  22  36  60  96 118 158 204 256 310 364
#     4   9  22  40  57  92 126 155 195 254 310 373
#     4  11  22  38  58  84 125 159 202 249 301 365
#     4  10  21  38  65  92 122 159 200 251 318 374
#
# _framework density 19.509160999999999
#
# number of rings (size 3 to 8) (size 9 to 14) (size 15 to 20)
#    0.000    1.455    4.545    0.000    2.545    4.364 
#    0.000    0.909    0.000   10.909    0.000    0.000 
#    0.000    0.000    0.000    0.000    0.000    0.000 
#
# Total GULP energy -122548.330760 kJ/mol
# GULP energy per Si atom -5570.378671 kJ/mol
# Density = 1.946476 g / cm^3
# Si number density = 19.509161 Si / 1000 Ang^3
#
#
#
# Elastic Constant Matrix: (Units=GPa)
#
#
# Indices 1 2 3 4 5 6 
#
# 1 86.4555 31.0933 51.8252 0.0000 11.5235 0.0000
# 2 31.0933 47.7497 48.6987 0.0000 -16.3048 0.0000
# 3 51.8252 48.6987 134.6276 0.0000 -8.1478 0.0000
# 4 0.0000 0.0000 0.0000 28.1797 0.0000 -16.8818
# 5 11.5235 -16.3048 -8.1478 0.0000 50.7870 0.0000
# 6 0.0000 0.0000 0.0000 -16.8818 0.0000 40.9592
#
#
#
# Elastic Compliance Matrix: (Units=1/GPa)
#
#
# Indices 1 2 3 4 5 6 
#
# 1 0.019116 -0.011677 -0.003660 0.000000 -0.008673 0.000000
# 2 -0.011677 0.044746 -0.010766 0.000000 0.015288 0.000000
# 3 -0.003660 -0.010766 0.012695 0.000000 -0.000589 0.000000
# 4 0.000000 0.000000 0.000000 0.047121 0.000000 0.019422
# 5 -0.008673 0.015288 -0.000589 0.000000 0.026472 0.000000
# 6 0.000000 0.000000 0.000000 0.019422 0.000000 0.032419
#
#
# Mechanical properties :
#
#
# Convention : Reuss Voigt Hill
#
# Bulk Modulus (GPa) = 41.06328 59.11856 50.09092
# Shear Modulus (GPa) = 20.58526 33.13290 26.85908
#
# Velocity S-wave (km/s) = 3.25184 4.12554 3.71447
# Velocity P-wave (km/s) = 5.93239 7.28438 6.64287
#
# Compressibility (1/GPa) = 0.02435266
#
# Stress axis : x y z
#
# Youngs Moduli (GPa) = 52.31186 22.34838 78.76914
#
# Poissons Ratio (x) = 0.26096 0.28828
# Poissons Ratio (y) = 0.61084 0.84800
# Poissons Ratio (z) = 0.19145 0.24059
#
# Static dielectric constant tensor:
#      x y z
#    x 1.756430 0.000000 -0.037330 
#    y 0.000000 1.701500 0.000000 
#    z -0.037330 0.000000 1.674600 
# 
# From -- ./inp_files/129782.got.cif
#   From: 2010.05.17/outbox.cif.g08.bks.cpg/sg15_65_cif.got.tgz:129782.got - 2010.06.03 18:47:42.
