data_PCOD9281459
_publ_section_title
;
Structure prediction by ZEFSAII (Michael W. Deem and Ramdas Pophale) SiO2 
 PCOD9281459
Probable space group: C 2/C
;
_chemical_formula_sum "Si O2"
_cell_formula_units_Z 64
_cell_length_a 24.339434
_cell_length_b 20.401443
_cell_length_c 8.616959
_cell_angle_alpha 90.000000
_cell_angle_beta 126.392980
_cell_angle_gamma 90.000000
_cell_volume 3444.317621
_symmetry_space_group_name_H-M "C 2/C"
_symmetry_group_IT_number 15
_symmetry_cell_setting 'monoclinic'
loop_
_space_group_symop_operation_xyz
x,y,z
-x,y,1/2-z
-x,-y,-z
x,-y,1/2+z
1/2+x,1/2+y,z
1/2-x,1/2+y,1/2-z
1/2-x,1/2-y,-z
1/2+x,1/2-y,1/2+z
loop_
_atom_site_type_symbol
_atom_site_label
_atom_site_fract_x
_atom_site_fract_y
_atom_site_fract_z
Si Si1 0.312799 0.081270 0.320123
Si Si2 0.309855 0.941527 0.186706
Si Si3 0.455228 0.865631 0.049653
Si Si4 0.057053 0.376117 0.947802
Si Si5 0.289573 0.673283 0.927375
Si Si6 0.715156 0.300544 0.711309
Si Si7 0.429732 0.721407 0.051885
Si Si8 0.075570 0.235859 0.825831
O O1 0.317196 0.068541 0.513536
O O2 0.388310 0.097567 0.383735
O O3 0.262582 0.143110 0.217472
O O4 0.291203 0.015448 0.198109
O O5 0.380630 0.918620 0.385838
O O6 0.251303 0.893875 0.154817
O O7 0.500000 0.904463 0.250000
O O8 0.426291 0.799627 0.083938
O O9 0.510607 0.849382 0.011586
O O10 0.081412 0.312048 0.892580
O O11 0.000000 0.413290 0.750000
O O12 0.251029 0.729516 0.763732
O O13 0.288374 0.688074 0.109549
O O14 0.367703 0.678790 0.009653
O O15 0.640095 0.298975 0.512696
O O16 0.500000 0.699410 0.250000
O O17 0.424154 0.724190 0.857125
O O18 0.000000 0.213969 0.750000
#
# Coordination Sequence:
#
# PCOD9281459 Si02
#       8
#     8   8   8   8   8   8   8   8
#     4  11  25  41  60  86 119 168 201 249 295 358
#     4  11  25  42  59  84 123 163 207 243 302 352
#     4  11  21  36  58  85 122 159 207 237 288 354
#     4  11  22  37  55  89 121 162 201 247 289 350
#     4  10  21  38  62  87 117 159 198 251 298 356
#     4  10  21  38  62  86 119 156 203 247 303 349
#     4  11  22  35  60  90 121 154 195 249 304 356
#     4  11  21  36  58  92 122 151 196 250 303 352
#
# _framework density 18.581327999999999
#
# number of rings (size 3 to 8) (size 9 to 14) (size 15 to 20)
#    0.000    1.250    6.250    0.750    3.500    2.500 
#    0.000    0.000    0.000    0.750    0.000    5.250 
#    0.000    0.000    0.000    0.000    0.000    0.000 
#
# Total GULP energy -178502.975932 kJ/mol
# GULP energy per Si atom -5578.217998 kJ/mol
# Density = 1.853904 g / cm^3
# Si number density = 18.581328 Si / 1000 Ang^3
#
#
#
# Elastic Constant Matrix: (Units=GPa)
#
#
# Indices 1 2 3 4 5 6 
#
# 1 71.4471 31.1592 11.1957 0.0000 18.1481 0.0000
# 2 31.1592 73.9939 23.0609 0.0000 15.3774 0.0000
# 3 11.1957 23.0609 86.6272 0.0000 25.7438 0.0000
# 4 0.0000 0.0000 0.0000 24.8558 0.0000 0.4973
# 5 18.1481 15.3774 25.7438 0.0000 34.0326 0.0000
# 6 0.0000 0.0000 0.0000 0.4973 0.0000 19.7464
#
#
#
# Elastic Compliance Matrix: (Units=1/GPa)
#
#
# Indices 1 2 3 4 5 6 
#
# 1 0.018772 -0.006745 0.001856 0.000000 -0.008367 0.000000
# 2 -0.006745 0.017784 -0.003281 0.000000 -0.001957 0.000000
# 3 0.001856 -0.003281 0.015520 0.000000 -0.011247 0.000000
# 4 0.000000 0.000000 0.000000 0.040252 0.000000 -0.001014
# 5 -0.008367 -0.001957 -0.011247 0.000000 0.043237 0.000000
# 6 0.000000 0.000000 0.000000 -0.001014 0.000000 0.050668
#
#
# Mechanical properties :
#
#
# Convention : Reuss Voigt Hill
#
# Bulk Modulus (GPa) = 27.98281 40.32219 34.15250
# Shear Modulus (GPa) = 23.31164 26.83711 25.07438
#
# Velocity S-wave (km/s) = 3.54584 3.80452 3.67746
# Velocity P-wave (km/s) = 5.64414 6.40677 6.03751
#
# Compressibility (1/GPa) = 0.03573622
#
# Stress axis : x y z
#
# Youngs Moduli (GPa) = 53.27020 56.22999 64.43450
#
# Poissons Ratio (x) = 0.37925 -0.11958
# Poissons Ratio (y) = 0.35929 0.21141
# Poissons Ratio (z) = -0.09886 0.18449
#
# Static dielectric constant tensor:
#      x y z
#    x 1.664960 0.000000 -0.033130 
#    y 0.000000 1.645020 0.000000 
#    z -0.033130 0.000000 1.696560 
# 
# From -- ./inp_files/63434.got.cif
#   From: 2010.05.17/outbox.cif.g08.bks.cpg/sg15_32_cif.got.tgz:63434.got - 2010.06.03 18:47:42.
