data_PCOD9281764
_publ_section_title
;
Structure prediction by ZEFSAII (Michael W. Deem and Ramdas Pophale) SiO2 
 PCOD9281764
Probable space group: C 2/C
;
_chemical_formula_sum "Si O2"
_cell_formula_units_Z 64
_cell_length_a 16.570761
_cell_length_b 7.538370
_cell_length_c 30.091158
_cell_angle_alpha 90.000000
_cell_angle_beta 40.013255
_cell_angle_gamma 90.000000
_cell_volume 2416.829481
_symmetry_space_group_name_H-M "C 2/C"
_symmetry_group_IT_number 15
_symmetry_cell_setting 'monoclinic'
loop_
_space_group_symop_operation_xyz
x,y,z
-x,y,1/2-z
-x,-y,-z
x,-y,1/2+z
1/2+x,1/2+y,z
1/2-x,1/2+y,1/2-z
1/2-x,1/2-y,-z
1/2+x,1/2-y,1/2+z
loop_
_atom_site_type_symbol
_atom_site_label
_atom_site_fract_x
_atom_site_fract_y
_atom_site_fract_z
Si Si1 0.117273 0.872062 0.779036
Si Si2 0.276697 0.238663 0.280567
Si Si3 0.998125 0.662710 0.372001
Si Si4 0.826146 0.305949 0.560723
Si Si5 0.044247 0.831603 0.012662
Si Si6 0.647753 0.928862 0.197893
Si Si7 0.639399 0.547475 0.614343
Si Si8 0.751857 0.526027 0.970879
O O1 0.140131 0.822577 0.821046
O O2 0.160499 0.698282 0.735157
O O3 0.970661 0.904957 0.831027
O O4 0.185331 0.055607 0.735208
O O5 0.362706 0.149413 0.205167
O O6 0.308065 0.127993 0.310908
O O7 0.001391 0.769090 0.417715
O O8 0.901313 0.499249 0.413555
O O9 0.936364 0.772835 0.356974
O O10 0.741038 0.169976 0.625225
O O11 0.757251 0.494466 0.594040
O O12 0.802392 0.213507 0.522933
O O13 0.969079 0.310812 0.515130
O O14 0.187255 0.881219 0.964347
O O15 0.000000 0.000000 0.000000
O O16 0.500000 0.931054 0.250000
O O17 0.692435 0.529064 0.542418
#
# Coordination Sequence:
#
# PCOD9281764 Si02
#       8
#     8   8   8   8   8   8   8   8
#     4  11  23  43  67  99 130 175 228 275 334 405
#     4  11  24  41  70  97 130 177 230 275 332 409
#     4  10  21  41  65  91 126 169 222 268 324 405
#     4  11  22  39  60  94 129 166 211 270 333 391
#     4   9  19  35  61  90 124 161 203 262 325 378
#     4  12  24  42  65  97 138 172 218 280 341 391
#     4  10  21  38  64  92 125 169 212 266 326 403
#     4  10  21  40  66  90 124 174 220 263 328 407
#
# _framework density 26.480974
#
# number of rings (size 3 to 8) (size 9 to 14) (size 15 to 20)
#    0.000    1.500    2.500    3.375    3.500    0.500 
#    2.250    2.500    0.000    0.000    0.000    0.000 
#    0.000    0.000    0.000    0.000    0.000    0.000 
#
# Total GULP energy -178440.713568 kJ/mol
# GULP energy per Si atom -5576.272299 kJ/mol
# Density = 2.642070 g / cm^3
# Si number density = 26.480974 Si / 1000 Ang^3
#
#
#
# Elastic Constant Matrix: (Units=GPa)
#
#
# Indices 1 2 3 4 5 6 
#
# 1 113.2784 41.8122 -1.0687 0.0011 -14.3917 -0.0003
# 2 41.8122 130.2620 3.7418 0.0010 -6.5218 -0.0099
# 3 -1.0687 3.7418 35.3742 -0.0003 8.5976 0.0022
# 4 0.0011 0.0010 -0.0003 23.5737 0.0011 -1.4192
# 5 -14.3917 -6.5218 8.5976 0.0011 34.8002 0.0006
# 6 -0.0003 -0.0099 0.0022 -1.4192 0.0006 40.9897
#
#
#
# Elastic Compliance Matrix: (Units=1/GPa)
#
#
# Indices 1 2 3 4 5 6 
#
# 1 0.010477 -0.003164 -0.000274 -0.000001 0.003807 -0.000001
# 2 -0.003164 0.008757 -0.001173 0.000000 0.000622 0.000002
# 3 -0.000274 -0.001173 0.030284 0.000001 -0.007815 -0.000002
# 4 -0.000001 0.000000 0.000001 0.042509 -0.000002 0.001472
# 5 0.003807 0.000622 -0.007815 -0.000002 0.032357 0.000000
# 6 -0.000001 0.000002 -0.000002 0.001472 0.000000 0.024447
#
#
# Mechanical properties :
#
#
# Convention : Reuss Voigt Hill
#
# Bulk Modulus (GPa) = 24.81682 40.87611 32.84647
# Shear Modulus (GPa) = 29.15660 35.50134 32.32897
#
# Velocity S-wave (km/s) = 3.32179 3.66544 3.49784
# Velocity P-wave (km/s) = 4.90961 5.77784 5.36133
#
# Compressibility (1/GPa) = 0.04029525
#
# Stress axis : x y z
#
# Youngs Moduli (GPa) = 95.44733 114.18862 33.02027
#
# Poissons Ratio (x) = 0.36134 0.00905
# Poissons Ratio (y) = 0.30204 0.03874
# Poissons Ratio (z) = 0.02617 0.13397
#
# Static dielectric constant tensor:
#      x y z
#    x 2.196520 -0.000010 0.046690 
#    y -0.000010 1.918490 -0.000030 
#    z 0.046690 -0.000030 2.125660 
# 
# From -- ./inp_files/313141.got.cif
#   From: 2010.05.17/outbox.cif.g08.bks.cpg/sg15_157_cif.got.tgz:313141.got - 2010.06.03 18:47:42.
