data_PCOD9281643
_publ_section_title
;
Structure prediction by ZEFSAII (Michael W. Deem and Ramdas Pophale) SiO2 
 PCOD9281643
Probable space group: C 2/C
;
_chemical_formula_sum "Si O2"
_cell_formula_units_Z 56
_cell_length_a 26.335617
_cell_length_b 8.270950
_cell_length_c 17.036407
_cell_angle_alpha 90.000000
_cell_angle_beta 145.246029
_cell_angle_gamma 90.000000
_cell_volume 2115.400848
_symmetry_space_group_name_H-M "C 2/C"
_symmetry_group_IT_number 15
_symmetry_cell_setting 'monoclinic'
loop_
_space_group_symop_operation_xyz
x,y,z
-x,y,1/2-z
-x,-y,-z
x,-y,1/2+z
1/2+x,1/2+y,z
1/2-x,1/2+y,1/2-z
1/2-x,1/2-y,-z
1/2+x,1/2-y,1/2+z
loop_
_atom_site_type_symbol
_atom_site_label
_atom_site_fract_x
_atom_site_fract_y
_atom_site_fract_z
Si Si1 0.675544 0.432938 0.354854
Si Si2 0.484836 0.653383 0.406116
Si Si3 0.400730 0.123064 0.543023
Si Si4 0.110001 0.389728 0.121223
Si Si5 0.742697 0.616347 0.594474
Si Si6 0.368552 0.813942 0.579516
Si Si7 0.132912 0.902428 0.562567
O O1 0.605736 0.552434 0.224897
O O2 0.712465 0.538238 0.474959
O O3 0.628088 0.277493 0.334034
O O4 0.763436 0.355069 0.426587
O O5 0.520602 0.750522 0.374852
O O6 0.478604 0.785722 0.469186
O O7 0.563149 0.521518 0.514227
O O8 0.313251 0.221133 0.461185
O O9 0.391492 0.024597 0.447648
O O10 0.412293 0.984988 0.621833
O O11 0.151865 0.406877 0.260815
O O12 0.167945 0.241873 0.159769
O O13 0.711235 0.505914 0.626898
O O14 0.407156 0.690050 0.563991
#
# Coordination Sequence:
#
# PCOD9281643 Si02
#       7
#     8   8   8   8   8   8   8
#     4  10  22  42  65  94 123 163 209 255 320 374
#     4  11  23  40  63  91 131 164 200 262 320 375
#     4  10  22  39  61  93 126 164 210 260 315 367
#     4  11  21  39  61  88 123 166 216 254 299 370
#     4  10  21  38  63  92 127 163 203 259 311 371
#     4   9  20  42  65  88 121 161 216 258 302 381
#     4   9  21  40  62  89 120 164 207 256 314 361
#
# _framework density 26.472525000000001
#
# number of rings (size 3 to 8) (size 9 to 14) (size 15 to 20)
#    0.000    2.000    0.000    2.571    0.000    8.571 
#    0.000   24.286    0.000    0.000    0.000    0.000 
#    0.000    0.000    0.000    0.000    0.000    0.000 
#
# Total GULP energy -156285.602108 kJ/mol
# GULP energy per Si atom -5581.628647 kJ/mol
# Density = 2.641227 g / cm^3
# Si number density = 26.472525 Si / 1000 Ang^3
#
#
#
# Elastic Constant Matrix: (Units=GPa)
#
#
# Indices 1 2 3 4 5 6 
#
# 1 110.8163 43.6264 36.6144 0.0000 3.2573 0.0000
# 2 43.6264 141.0484 24.2676 0.0000 0.4204 0.0000
# 3 36.6144 24.2676 77.7873 0.0000 7.4235 0.0000
# 4 0.0000 0.0000 0.0000 23.8474 0.0000 3.8529
# 5 3.2573 0.4204 7.4235 0.0000 24.9845 0.0000
# 6 0.0000 0.0000 0.0000 3.8529 0.0000 74.0434
#
#
#
# Elastic Compliance Matrix: (Units=1/GPa)
#
#
# Indices 1 2 3 4 5 6 
#
# 1 0.011654 -0.002813 -0.004598 0.000000 -0.000106 0.000000
# 2 -0.002813 0.008179 -0.001286 0.000000 0.000611 0.000000
# 3 -0.004598 -0.001286 0.015810 0.000000 -0.004076 0.000000
# 4 0.000000 0.000000 0.000000 0.042289 0.000000 -0.002201
# 5 -0.000106 0.000611 -0.004076 0.000000 0.041239 0.000000
# 6 0.000000 0.000000 0.000000 -0.002201 0.000000 0.013620
#
#
# Mechanical properties :
#
#
# Convention : Reuss Voigt Hill
#
# Bulk Modulus (GPa) = 54.79619 59.85211 57.32415
# Shear Modulus (GPa) = 31.99637 39.58463 35.79050
#
# Velocity S-wave (km/s) = 3.48036 3.87112 3.68093
# Velocity P-wave (km/s) = 6.07410 6.52985 6.30610
#
# Compressibility (1/GPa) = 0.01824945
#
# Stress axis : x y z
#
# Youngs Moduli (GPa) = 85.81020 122.25998 63.25160
#
# Poissons Ratio (x) = 0.34393 0.29081
# Poissons Ratio (y) = 0.24140 0.08134
# Poissons Ratio (z) = 0.39452 0.15722
#
# Static dielectric constant tensor:
#      x y z
#    x 2.151960 0.000000 0.042570 
#    y 0.000000 2.138160 0.000000 
#    z 0.042570 0.000000 2.132130 
# 
# From -- ./inp_files/259037.got.cif
#   From: 2010.05.17/outbox.cif.g08.bks.cpg/sg15_130_cif.got.tgz:259037.got - 2010.06.03 18:47:42.
