data_PCOD9281959
_publ_section_title
;
Structure prediction by ZEFSAII (Michael W. Deem and Ramdas Pophale) SiO2 
 PCOD9281959
Probable space group: C 2/C
;
_chemical_formula_sum "Si O2"
_cell_formula_units_Z 56
_cell_length_a 15.655807
_cell_length_b 17.273049
_cell_length_c 13.706687
_cell_angle_alpha 90.000000
_cell_angle_beta 130.137857
_cell_angle_gamma 90.000000
_cell_volume 2833.687627
_symmetry_space_group_name_H-M "C 2/C"
_symmetry_group_IT_number 15
_symmetry_cell_setting 'monoclinic'
loop_
_space_group_symop_operation_xyz
x,y,z
-x,y,1/2-z
-x,-y,-z
x,-y,1/2+z
1/2+x,1/2+y,z
1/2-x,1/2+y,1/2-z
1/2-x,1/2-y,-z
1/2+x,1/2-y,1/2+z
loop_
_atom_site_type_symbol
_atom_site_label
_atom_site_fract_x
_atom_site_fract_y
_atom_site_fract_z
Si Si1 0.592734 0.061948 0.238245
Si Si2 0.819291 0.871388 0.528627
Si Si3 0.957757 0.634575 0.979870
Si Si4 0.254741 0.561736 0.785141
Si Si5 0.582710 0.204175 0.896065
Si Si6 0.197725 0.666656 0.460980
Si Si7 0.130257 0.035800 0.832662
O O1 0.500000 0.034921 0.250000
O O2 0.641598 0.141177 0.318343
O O3 0.698062 0.006566 0.305132
O O4 0.537358 0.072003 0.091570
O O5 0.816842 0.886250 0.410505
O O6 0.695302 0.845630 0.469934
O O7 0.891990 0.794817 0.601117
O O8 0.853035 0.950412 0.608096
O O9 0.853634 0.602600 0.841612
O O10 0.028142 0.688191 0.960442
O O11 0.900166 0.671349 0.031450
O O12 0.333134 0.534850 0.754228
O O13 0.500000 0.177397 0.750000
O O14 0.250000 0.750000 0.500000
O O15 0.286208 0.599544 0.557507
O O16 0.000000 0.057185 0.750000
#
# Coordination Sequence:
#
# PCOD9281959 Si02
#       7
#     8   8   8   8   8   8   8
#     4  10  21  38  66  96 125 158 208 270 327 381
#     4  11  24  42  65  98 130 172 220 259 326 394
#     4  10  22  38  65  96 123 165 212 267 330 372
#     4  11  22  40  66  96 125 167 216 260 323 387
#     4  11  23  42  66  95 135 172 213 273 316 385
#     4  10  23  43  64  93 126 165 221 270 318 386
#     4  11  25  45  63  92 135 173 216 268 320 393
#
# _framework density 19.762235
#
# number of rings (size 3 to 8) (size 9 to 14) (size 15 to 20)
#    0.000    1.429    2.857    1.714    2.000    5.714 
#    5.143    0.000    0.000    0.000    0.000    0.000 
#    0.000    0.000    0.000    0.000    0.000    0.000 
#
# Total GULP energy -156272.248941 kJ/mol
# GULP energy per Si atom -5581.151748 kJ/mol
# Density = 1.971726 g / cm^3
# Si number density = 19.762235 Si / 1000 Ang^3
#
#
#
# Elastic Constant Matrix: (Units=GPa)
#
#
# Indices 1 2 3 4 5 6 
#
# 1 101.4976 32.4902 24.0301 0.0000 12.5180 0.0000
# 2 32.4902 65.7347 12.3586 0.0000 -4.9571 0.0000
# 3 24.0301 12.3586 69.9530 0.0000 2.2664 0.0000
# 4 0.0000 0.0000 0.0000 -38.0350 0.0000 -16.6125
# 5 12.5180 -4.9571 2.2664 0.0000 16.7363 0.0000
# 6 0.0000 0.0000 0.0000 -16.6125 0.0000 4.2604
#
#
#
# Elastic Compliance Matrix: (Units=1/GPa)
#
#
# Indices 1 2 3 4 5 6 
#
# 1 0.014622 -0.007572 -0.003272 0.000000 -0.012736 0.000000
# 2 -0.007572 0.020095 -0.001331 0.000000 0.011796 0.000000
# 3 -0.003272 -0.001331 0.015657 0.000000 -0.000067 0.000000
# 4 0.000000 0.000000 0.000000 -0.009726 0.000000 -0.037927
# 5 -0.012736 0.011796 -0.000067 0.000000 0.072779 0.000000
# 6 0.000000 0.000000 0.000000 -0.037927 0.000000 0.086834
#
#
# Mechanical properties :
#
#
# Convention : Reuss Voigt Hill
#
# Bulk Modulus (GPa) = 38.42890 41.66035 40.04463
# Shear Modulus (GPa) = 21.43283 7.81276 14.62279
#
# Velocity S-wave (km/s) = 3.29680 1.99047 2.72313
# Velocity P-wave (km/s) = 5.82921 5.13899 5.49495
#
# Compressibility (1/GPa) = 0.02602208
#
# Stress axis : x y z
#
# Youngs Moduli (GPa) = 68.39016 49.76317 63.87001
#
# Poissons Ratio (x) = 0.37682 0.20901
# Poissons Ratio (y) = 0.51787 0.08502
# Poissons Ratio (z) = 0.22380 0.06624
#
# Static dielectric constant tensor:
#      x y z
#    x 1.813620 0.000000 0.152690 
#    y 0.000000 1.767640 0.000000 
#    z 0.152690 0.000000 1.858810 
# 
# From -- ./inp_files/98825.got.cif
#   From: 2010.05.17/outbox.cif.g08.bks.cpg/sg15_50_cif.got.tgz:98825.got - 2010.06.03 18:47:42.
