data_PCOD9281059
_publ_section_title
;
Structure prediction by ZEFSAII (Michael W. Deem and Ramdas Pophale) SiO2 
 PCOD9281059
Probable space group: C 2/C
;
_chemical_formula_sum "Si O2"
_cell_formula_units_Z 44
_cell_length_a 20.211996
_cell_length_b 8.100672
_cell_length_c 17.379933
_cell_angle_alpha 90.000000
_cell_angle_beta 55.996639
_cell_angle_gamma 90.000000
_cell_volume 2359.040397
_symmetry_space_group_name_H-M "C 2/C"
_symmetry_group_IT_number 15
_symmetry_cell_setting 'monoclinic'
loop_
_space_group_symop_operation_xyz
x,y,z
-x,y,1/2-z
-x,-y,-z
x,-y,1/2+z
1/2+x,1/2+y,z
1/2-x,1/2+y,1/2-z
1/2-x,1/2-y,-z
1/2+x,1/2-y,1/2+z
loop_
_atom_site_type_symbol
_atom_site_label
_atom_site_fract_x
_atom_site_fract_y
_atom_site_fract_z
Si Si1 0.094724 0.593758 0.210858
Si Si2 0.219840 0.562287 0.517443
Si Si3 0.500000 0.658624 0.250000
Si Si4 0.381309 0.391216 0.397552
Si Si5 0.548433 0.113508 0.863597
Si Si6 0.100734 0.607090 0.993596
O O1 0.148483 0.472072 0.123990
O O2 0.126805 0.774388 0.171668
O O3 0.098947 0.536834 0.295124
O O4 0.000000 0.590373 0.250000
O O5 0.250000 0.750000 0.500000
O O6 0.297713 0.454440 0.483681
O O7 0.182822 0.484982 0.463203
O O8 0.435986 0.541470 0.334486
O O9 0.464772 0.766296 0.201328
O O10 0.413934 0.261510 0.439510
O O11 0.591218 0.171658 0.913156
O O12 0.465094 0.033713 0.945305
#
# Coordination Sequence:
#
# PCOD9281059 Si02
#       6
#     8   8   4   8   8   8
#     4  11  18  38  60  85 116 160 200 235 301 360
#     4  11  22  39  62  87 119 158 198 246 300 357
#     4  12  20  36  62  90 116 160 206 238 296 372
#     4  11  21  38  62  85 122 157 202 245 298 368
#     4  11  20  35  62  86 121 155 202 249 290 362
#     4  10  21  38  57  89 120 157 197 250 304 342
#
# _framework density 18.651651999999999
#
# number of rings (size 3 to 8) (size 9 to 14) (size 15 to 20)
#    0.000    1.091    5.455    4.364    0.000    0.727 
#    0.000    9.091    0.000    0.000    0.000    0.000 
#    0.000    0.000    0.000    0.000    0.000    0.000 
#
# Total GULP energy -122481.592008 kJ/mol
# GULP energy per Si atom -5567.345091 kJ/mol
# Density = 1.860920 g / cm^3
# Si number density = 18.651652 Si / 1000 Ang^3
#
#
#
# Elastic Constant Matrix: (Units=GPa)
#
#
# Indices 1 2 3 4 5 6 
#
# 1 73.9900 31.2965 40.3436 0.0001 14.1426 0.0000
# 2 31.2965 92.7412 28.1207 0.0001 5.7082 -0.0002
# 3 40.3436 28.1207 84.2791 0.0000 -0.9361 -0.0001
# 4 0.0001 0.0001 0.0000 37.8852 0.0000 -11.2766
# 5 14.1426 5.7082 -0.9361 0.0000 43.2216 0.0000
# 6 0.0000 -0.0002 -0.0001 -11.2766 0.0000 19.2590
#
#
#
# Elastic Compliance Matrix: (Units=1/GPa)
#
#
# Indices 1 2 3 4 5 6 
#
# 1 0.021402 -0.004098 -0.008951 0.000000 -0.006655 0.000000
# 2 -0.004098 0.012903 -0.002348 0.000000 -0.000414 0.000000
# 3 -0.008951 -0.002348 0.016974 0.000000 0.003607 0.000000
# 4 0.000000 0.000000 0.000000 0.031967 0.000000 0.018717
# 5 -0.006655 -0.000414 0.003607 0.000000 0.025447 0.000000
# 6 0.000000 0.000000 0.000000 0.018717 0.000000 0.062883
#
#
# Mechanical properties :
#
#
# Convention : Reuss Voigt Hill
#
# Bulk Modulus (GPa) = 48.82034 50.05911 49.43973
# Shear Modulus (GPa) = 23.90070 30.15645 27.02857
#
# Velocity S-wave (km/s) = 3.58358 4.02534 3.81087
# Velocity P-wave (km/s) = 6.58441 6.96432 6.77702
#
# Compressibility (1/GPa) = 0.02048327
#
# Stress axis : x y z
#
# Youngs Moduli (GPa) = 46.72499 77.50017 58.91452
#
# Poissons Ratio (x) = 0.31763 0.52736
# Poissons Ratio (y) = 0.19150 0.13833
# Poissons Ratio (z) = 0.41825 0.18197
#
# Static dielectric constant tensor:
#      x y z
#    x 1.675590 0.000000 0.002150 
#    y 0.000000 1.684580 0.000000 
#    z 0.002150 0.000000 1.660850 
# 
# From -- ./inp_files/159393.got.cif
#   From: 2010.05.17/outbox.cif.g08.bks.cpg/sg15_80_cif.got.tgz:159393.got - 2010.06.03 18:47:42.
