data_PCOD9281713
_publ_section_title
;
Structure prediction by ZEFSAII (Michael W. Deem and Ramdas Pophale) SiO2 
 PCOD9281713
Probable space group: C 2/C
;
_chemical_formula_sum "Si O2"
_cell_formula_units_Z 40
_cell_length_a 11.976549
_cell_length_b 23.491286
_cell_length_c 5.272929
_cell_angle_alpha 90.000000
_cell_angle_beta 83.112303
_cell_angle_gamma 90.000000
_cell_volume 1472.803454
_symmetry_space_group_name_H-M "C 2/C"
_symmetry_group_IT_number 15
_symmetry_cell_setting 'monoclinic'
loop_
_space_group_symop_operation_xyz
x,y,z
-x,y,1/2-z
-x,-y,-z
x,-y,1/2+z
1/2+x,1/2+y,z
1/2-x,1/2+y,1/2-z
1/2-x,1/2-y,-z
1/2+x,1/2-y,1/2+z
loop_
_atom_site_type_symbol
_atom_site_label
_atom_site_fract_x
_atom_site_fract_y
_atom_site_fract_z
Si Si1 0.620654 0.241369 0.856274
Si Si2 0.366939 0.028819 0.724351
Si Si3 0.000000 0.336678 0.750000
Si Si4 0.500000 0.458288 0.250000
Si Si5 0.313379 0.863805 0.443083
Si Si6 0.116751 0.128113 0.378132
O O1 0.500000 0.243879 0.750000
O O2 0.695271 0.200899 0.654119
O O3 0.644378 0.305596 0.931502
O O4 0.594712 0.204130 0.108922
O O5 0.500000 0.021657 0.750000
O O6 0.319597 0.995844 0.498287
O O7 0.333489 0.094229 0.703835
O O8 0.069024 0.371112 0.936977
O O9 0.500000 0.500000 0.500000
O O10 0.404896 0.412616 0.374368
O O11 0.214119 0.884521 0.649531
O O12 0.000000 0.126416 0.250000
#
# Coordination Sequence:
#
# PCOD9281713 Si02
#       6
#     8   8   4   4   8   8
#     4   9  20  40  69 106 146 189 238 303 382 450
#     4  10  23  41  66  98 139 183 235 289 360 439
#     4  10  21  38  64 102 150 183 236 296 378 450
#     4  12  27  54  80 108 148 203 262 316 370 438
#     4  11  24  40  70 104 144 192 242 310 375 445
#     4  11  25  47  74 104 145 191 253 308 373 442
#
# _framework density 27.159085999999999
#
# number of rings (size 3 to 8) (size 9 to 14) (size 15 to 20)
#    0.000    1.600    1.000    3.000    7.000    4.000 
#    0.000    0.000    0.000    0.000    0.000    0.000 
#    0.000    0.000    0.000    0.000    0.000    0.000 
#
# Total GULP energy -111857.331858 kJ/mol
# GULP energy per Si atom -5592.866593 kJ/mol
# Density = 2.709727 g / cm^3
# Si number density = 27.159086 Si / 1000 Ang^3
#
#
#
# Elastic Constant Matrix: (Units=GPa)
#
#
# Indices 1 2 3 4 5 6 
#
# 1 117.2864 18.8234 37.6729 0.0000 -6.6505 0.0000
# 2 18.8234 185.9631 82.0931 0.0000 -18.9509 0.0000
# 3 37.6729 82.0931 172.4388 0.0000 -13.2784 0.0000
# 4 0.0000 0.0000 0.0000 22.1838 0.0000 -40.0902
# 5 -6.6505 -18.9509 -13.2784 0.0000 46.1853 0.0000
# 6 0.0000 0.0000 0.0000 -40.0902 0.0000 -8.9273
#
#
#
# Elastic Compliance Matrix: (Units=1/GPa)
#
#
# Indices 1 2 3 4 5 6 
#
# 1 0.009196 0.000010 -0.001955 0.000000 0.000766 0.000000
# 2 0.000010 0.006976 -0.003173 0.000000 0.001952 0.000000
# 3 -0.001955 -0.003173 0.007787 0.000000 0.000655 0.000000
# 4 0.000000 0.000000 0.000000 0.004945 0.000000 -0.022207
# 5 0.000766 0.001952 0.000655 0.000000 0.022752 0.000000
# 6 0.000000 0.000000 0.000000 -0.022207 0.000000 -0.012288
#
#
# Mechanical properties :
#
#
# Convention : Reuss Voigt Hill
#
# Bulk Modulus (GPa) = 72.86597 83.65190 78.25893
# Shear Modulus (GPa) = 92.28946 34.36161 63.32553
#
# Velocity S-wave (km/s) = 5.83565 3.56082 4.83396
# Velocity P-wave (km/s) = 8.50259 6.91184 7.74814
#
# Compressibility (1/GPa) = 0.01372383
#
# Stress axis : x y z
#
# Youngs Moduli (GPa) = 108.74454 143.34890 128.41413
#
# Poissons Ratio (x) = -0.00147 0.25104
# Poissons Ratio (y) = -0.00112 0.40746
# Poissons Ratio (z) = 0.21259 0.45485
#
# Static dielectric constant tensor:
#      x y z
#    x 2.105680 0.000000 0.021290 
#    y 0.000000 2.100120 0.000000 
#    z 0.021290 0.000000 2.180480 
# 
# From -- ./inp_files/7521.got.cif
#   From: 2010.05.17/outbox.cif.g08.bks.cpg/sg15_4_cif.got.tgz:7521.got - 2010.06.03 18:47:42.
