data_PCOD9281623
_publ_section_title
;
Structure prediction by ZEFSAII (Michael W. Deem and Ramdas Pophale) SiO2 
 PCOD9281623
Probable space group: C 2/C
;
_chemical_formula_sum "Si O2"
_cell_formula_units_Z 44
_cell_length_a 14.702337
_cell_length_b 28.213420
_cell_length_c 12.479757
_cell_angle_alpha 90.000000
_cell_angle_beta 29.195073
_cell_angle_gamma 90.000000
_cell_volume 2525.086818
_symmetry_space_group_name_H-M "C 2/C"
_symmetry_group_IT_number 15
_symmetry_cell_setting 'monoclinic'
loop_
_space_group_symop_operation_xyz
x,y,z
-x,y,1/2-z
-x,-y,-z
x,-y,1/2+z
1/2+x,1/2+y,z
1/2-x,1/2+y,1/2-z
1/2-x,1/2-y,-z
1/2+x,1/2-y,1/2+z
loop_
_atom_site_type_symbol
_atom_site_label
_atom_site_fract_x
_atom_site_fract_y
_atom_site_fract_z
Si Si1 0.481595 0.962827 0.926598
Si Si2 0.787304 0.806904 0.340924
Si Si3 0.015708 0.638796 0.969034
Si Si4 0.500000 0.094176 0.750000
Si Si5 0.775476 0.806182 0.595644
Si Si6 0.221008 0.994257 0.538647
O O1 0.487639 0.910620 0.964585
O O2 0.283046 0.976204 0.078706
O O3 0.500000 0.000000 0.000000
O O4 0.659566 0.975580 0.670279
O O5 0.687859 0.832374 0.344021
O O6 0.719292 0.821013 0.531405
O O7 0.754560 0.750411 0.367438
O O8 0.006856 0.816100 0.114635
O O9 0.014971 0.625443 0.843463
O O10 0.839729 0.668506 0.192961
O O11 0.676713 0.057448 0.562208
O O12 0.000000 0.991240 0.750000
#
# Coordination Sequence:
#
# PCOD9281623 Si02
#       6
#     8   8   8   4   8   8
#     4  10  21  41  59  87 125 158 199 253 305 358
#     4  10  21  38  63  91 118 152 197 254 317 364
#     4  12  22  40  64  85 126 165 203 250 298 368
#     4  10  24  44  58  88 122 174 208 248 300 352
#     4  10  21  38  63  91 118 152 197 254 317 364
#     4  10  22  40  62  86 127 159 203 257 306 359
#
# _framework density 17.425144
#
# number of rings (size 3 to 8) (size 9 to 14) (size 15 to 20)
#    0.000    1.818    5.455    0.545    5.091    3.636 
#    0.000    0.909    0.000    0.000    0.000    0.000 
#    0.000    0.000    0.000    0.000    0.000    0.000 
#
# Total GULP energy -122522.404740 kJ/mol
# GULP energy per Si atom -5569.200215 kJ/mol
# Density = 1.738548 g / cm^3
# Si number density = 17.425144 Si / 1000 Ang^3
#
#
#
# Elastic Constant Matrix: (Units=GPa)
#
#
# Indices 1 2 3 4 5 6 
#
# 1 143.3926 55.2803 76.2823 0.0000 0.2287 -0.0002
# 2 55.2803 82.9254 32.9053 0.0000 11.3908 0.0000
# 3 76.2823 32.9053 85.0368 -0.0012 -21.7022 -0.0004
# 4 0.0000 0.0000 -0.0012 20.7319 0.0002 2.4646
# 5 0.2287 11.3908 -21.7022 0.0002 38.5432 0.0002
# 6 -0.0002 0.0000 -0.0004 2.4646 0.0002 29.5045
#
#
#
# Elastic Compliance Matrix: (Units=1/GPa)
#
#
# Indices 1 2 3 4 5 6 
#
# 1 0.016703 -0.003996 -0.015369 -0.000001 -0.007572 0.000000
# 2 -0.003996 0.018100 -0.005581 0.000000 -0.008468 0.000000
# 3 -0.015369 -0.005581 0.032874 0.000002 0.020251 0.000000
# 4 -0.000001 0.000000 0.000002 0.048719 0.000001 -0.004070
# 5 -0.007572 -0.008468 0.020251 0.000001 0.039895 0.000000
# 6 0.000000 0.000000 0.000000 -0.004070 0.000000 0.034233
#
#
# Mechanical properties :
#
#
# Convention : Reuss Voigt Hill
#
# Bulk Modulus (GPa) = 56.22498 71.14339 63.68418
# Shear Modulus (GPa) = 20.29682 27.54839 23.92260
#
# Velocity S-wave (km/s) = 3.41662 3.98044 3.70926
# Velocity P-wave (km/s) = 6.92106 7.87666 7.41427
#
# Compressibility (1/GPa) = 0.01778569
#
# Stress axis : x y z
#
# Youngs Moduli (GPa) = 59.87112 55.24789 30.41872
#
# Poissons Ratio (x) = 0.22075 0.46752
# Poissons Ratio (y) = 0.23922 0.16976
# Poissons Ratio (z) = 0.92018 0.30833
#
# Static dielectric constant tensor:
#      x y z
#    x 1.615370 0.000000 0.004260 
#    y 0.000000 1.560480 0.000000 
#    z 0.004260 0.000000 1.596830 
# 
# From -- ./inp_files/101054.got.cif
#   From: 2010.05.17/outbox.cif.g08.bks.cpg/sg15_51_cif.got.tgz:101054.got - 2010.06.03 18:47:42.
