data_PCOD9281772
_publ_section_title
;
Structure prediction by ZEFSAII (Michael W. Deem and Ramdas Pophale) SiO2 
 PCOD9281772
Probable space group: C 2/C
;
_chemical_formula_sum "Si O2"
_cell_formula_units_Z 56
_cell_length_a 20.332172
_cell_length_b 11.562169
_cell_length_c 9.481559
_cell_angle_alpha 90.000000
_cell_angle_beta 69.719504
_cell_angle_gamma 90.000000
_cell_volume 2090.782758
_symmetry_space_group_name_H-M "C 2/C"
_symmetry_group_IT_number 15
_symmetry_cell_setting 'monoclinic'
loop_
_space_group_symop_operation_xyz
x,y,z
-x,y,1/2-z
-x,-y,-z
x,-y,1/2+z
1/2+x,1/2+y,z
1/2-x,1/2+y,1/2-z
1/2-x,1/2-y,-z
1/2+x,1/2-y,1/2+z
loop_
_atom_site_type_symbol
_atom_site_label
_atom_site_fract_x
_atom_site_fract_y
_atom_site_fract_z
Si Si1 0.074638 0.641286 0.487846
Si Si2 0.614682 0.396024 0.470210
Si Si3 0.762247 0.592050 0.929543
Si Si4 0.817320 0.656428 0.357065
Si Si5 0.307158 0.288674 0.741806
Si Si6 0.928613 0.046782 0.225308
Si Si7 0.943298 0.380799 0.916207
O O1 0.095944 0.766654 0.532352
O O2 0.128643 0.634839 0.314683
O O3 0.078110 0.516437 0.559104
O O4 0.991812 0.650453 0.512389
O O5 0.695895 0.400355 0.372333
O O6 0.564917 0.438133 0.382571
O O7 0.613237 0.483761 0.602126
O O8 0.785312 0.463287 0.933441
O O9 0.820401 0.663754 0.800862
O O10 0.738199 0.649146 0.095372
O O11 0.748261 0.716974 0.345138
O O12 0.874191 0.693311 0.433353
O O13 0.378402 0.363009 0.682159
O O14 0.000000 0.084263 0.250000
O O15 0.000000 0.366785 0.750000
#
# Coordination Sequence:
#
# PCOD9281772 Si02
#       7
#     8   8   8   8   8   8   8
#     4  10  21  41  64  95 128 173 212 267 346 389
#     4  11  23  44  72  92 131 179 222 274 331 395
#     4  10  21  38  64  93 122 173 214 268 332 390
#     4  11  19  35  63  92 131 157 216 269 320 399
#     4  10  21  39  62  89 126 167 224 264 329 388
#     4  11  25  44  66  96 129 175 227 276 319 394
#     4   9  21  37  60  97 133 162 212 270 330 403
#
# _framework density 26.784226
#
# number of rings (size 3 to 8) (size 9 to 14) (size 15 to 20)
#    0.000    1.714    2.857    1.286    4.000    2.286 
#    5.143    0.000    3.143    6.000    0.000    0.000 
#    0.000    0.000    0.000    0.000    0.000    0.000 
#
# Total GULP energy -156293.634693 kJ/mol
# GULP energy per Si atom -5581.915525 kJ/mol
# Density = 2.672326 g / cm^3
# Si number density = 26.784226 Si / 1000 Ang^3
#
#
#
# Elastic Constant Matrix: (Units=GPa)
#
#
# Indices 1 2 3 4 5 6 
#
# 1 241.6943 42.4251 23.9216 0.0000 10.6691 0.0000
# 2 42.4251 49.8511 18.1989 0.0000 1.4419 0.0000
# 3 23.9216 18.1989 26.7207 0.0000 6.9105 0.0000
# 4 0.0000 0.0000 0.0000 24.9092 0.0000 -10.1427
# 5 10.6691 1.4419 6.9105 0.0000 40.5747 0.0000
# 6 0.0000 0.0000 0.0000 -10.1427 0.0000 27.8349
#
#
#
# Elastic Compliance Matrix: (Units=1/GPa)
#
#
# Indices 1 2 3 4 5 6 
#
# 1 0.004979 -0.003550 -0.001813 0.000000 -0.000874 0.000000
# 2 -0.003550 0.029426 -0.017610 0.000000 0.002887 0.000000
# 3 -0.001813 -0.017610 0.053095 0.000000 -0.007940 0.000000
# 4 0.000000 0.000000 0.000000 0.047140 0.000000 0.017177
# 5 -0.000874 0.002887 -0.007940 0.000000 0.026126 0.000000
# 6 0.000000 0.000000 0.000000 0.017177 0.000000 0.042185
#
#
# Mechanical properties :
#
#
# Convention : Reuss Voigt Hill
#
# Bulk Modulus (GPa) = 24.06559 54.15081 39.10820
# Shear Modulus (GPa) = 19.02961 34.24513 26.63737
#
# Velocity S-wave (km/s) = 2.66837 3.57957 3.15702
# Velocity P-wave (km/s) = 4.30094 6.11112 5.28412
#
# Compressibility (1/GPa) = 0.04155310
#
# Stress axis : x y z
#
# Youngs Moduli (GPa) = 200.85941 33.98352 18.83410
#
# Poissons Ratio (x) = 0.12063 0.03415
# Poissons Ratio (y) = 0.71299 0.33167
# Poissons Ratio (z) = 0.36424 0.59846
#
# Static dielectric constant tensor:
#      x y z
#    x 2.204670 0.000000 -0.046280 
#    y 0.000000 2.075270 0.000000 
#    z -0.046280 0.000000 2.227540 
# 
# From -- ./inp_files/111577.got.cif
#   From: 2010.05.17/outbox.cif.g08.bks.cpg/sg15_56_cif.got.tgz:111577.got - 2010.06.03 18:47:42.
