data_PCOD9281725
_publ_section_title
;
Structure prediction by ZEFSAII (Michael W. Deem and Ramdas Pophale) SiO2 
 PCOD9281725
Probable space group: C 2/C
;
_chemical_formula_sum "Si O2"
_cell_formula_units_Z 60
_cell_length_a 9.141409
_cell_length_b 20.314264
_cell_length_c 26.514465
_cell_angle_alpha 90.000000
_cell_angle_beta 39.776448
_cell_angle_gamma 90.000000
_cell_volume 3150.192925
_symmetry_space_group_name_H-M "C 2/C"
_symmetry_group_IT_number 15
_symmetry_cell_setting 'monoclinic'
loop_
_space_group_symop_operation_xyz
x,y,z
-x,y,1/2-z
-x,-y,-z
x,-y,1/2+z
1/2+x,1/2+y,z
1/2-x,1/2+y,1/2-z
1/2-x,1/2-y,-z
1/2+x,1/2-y,1/2+z
loop_
_atom_site_type_symbol
_atom_site_label
_atom_site_fract_x
_atom_site_fract_y
_atom_site_fract_z
Si Si1 0.500000 0.550768 0.250000
Si Si2 0.777572 0.941698 0.500099
Si Si3 0.192325 0.269578 0.738507
Si Si4 0.018285 0.026914 0.840616
Si Si5 0.786193 0.922042 0.044740
Si Si6 0.655842 0.396513 0.865475
Si Si7 0.905321 0.364461 0.218072
Si Si8 0.962887 0.625772 0.153321
O O1 0.581993 0.505542 0.182602
O O2 0.716911 0.592567 0.211177
O O3 0.609505 0.885949 0.564506
O O4 0.827882 0.943439 0.428003
O O5 0.022025 0.935727 0.463377
O O6 0.690507 0.011255 0.544994
O O7 0.312367 0.332733 0.678894
O O8 0.334044 0.207589 0.718308
O O9 0.076837 0.300089 0.818921
O O10 0.000000 0.247568 0.750000
O O11 0.201955 0.081782 0.776192
O O12 0.126522 0.965007 0.843239
O O13 0.587200 0.887574 0.128128
O O14 0.934750 0.888389 0.960548
O O15 0.878172 0.402559 0.843099
O O16 0.000000 0.360857 0.250000
#
# Coordination Sequence:
#
# PCOD9281725 Si02
#       8
#     4   8   8   8   8   8   8   8
#     4  12  24  32  62  94 126 152 206 258 298 362
#     4   9  18  37  61  90 125 152 204 245 315 361
#     4  10  23  42  61  85 122 168 207 247 303 366
#     4  11  23  37  62  95 123 158 202 257 310 360
#     4   9  18  34  63  98 115 150 203 263 295 362
#     4   9  20  41  70  85 115 162 212 246 307 370
#     4  12  25  37  62  91 129 160 202 255 303 356
#     4  10  21  38  64  88 118 162 203 256 295 366
#
# _framework density 19.046451999999999
#
# number of rings (size 3 to 8) (size 9 to 14) (size 15 to 20)
#    0.000    1.867    2.667    1.600    3.733    1.067 
#    0.000    0.667    0.000    0.000    0.000    0.000 
#    0.000    0.000    0.000    0.000    0.000    0.000 
#
# Total GULP energy -167320.634308 kJ/mol
# GULP energy per Si atom -5577.354477 kJ/mol
# Density = 1.900310 g / cm^3
# Si number density = 19.046452 Si / 1000 Ang^3
#
#
#
# Elastic Constant Matrix: (Units=GPa)
#
#
# Indices 1 2 3 4 5 6 
#
# 1 58.0021 33.2445 41.8485 0.0603 8.3608 0.0046
# 2 33.2445 74.0018 51.3002 0.0440 -4.6097 0.0090
# 3 41.8485 51.3002 131.0914 -0.0494 6.9951 0.0071
# 4 0.0603 0.0440 -0.0494 -44.1424 -0.0271 -18.8807
# 5 8.3608 -4.6097 6.9951 -0.0271 16.4989 0.0025
# 6 0.0046 0.0090 0.0071 -18.8807 0.0025 18.5343
#
#
#
# Elastic Compliance Matrix: (Units=1/GPa)
#
#
# Indices 1 2 3 4 5 6 
#
# 1 0.028841 -0.011210 -0.003963 0.000029 -0.016067 0.000031
# 2 -0.011210 0.024129 -0.006677 0.000007 0.015253 -0.000001
# 3 -0.003963 -0.006677 0.011765 -0.000016 -0.004846 -0.000016
# 4 0.000029 0.000007 -0.000016 -0.015779 -0.000030 -0.016074
# 5 -0.016067 0.015253 -0.004846 -0.000030 0.075068 -0.000042
# 6 0.000031 -0.000001 -0.000016 -0.016074 -0.000042 0.037580
#
#
# Mechanical properties :
#
#
# Convention : Reuss Voigt Hill
#
# Bulk Modulus (GPa) = 47.54309 57.32018 52.43164
# Shear Modulus (GPa) = 23.54980 7.29164 15.42072
#
# Velocity S-wave (km/s) = 3.52012 1.95874 2.84850
# Velocity P-wave (km/s) = 6.44496 5.93934 6.19731
#
# Compressibility (1/GPa) = 0.02103355
#
# Stress axis : x y z
#
# Youngs Moduli (GPa) = 34.67264 41.44475 84.99842
#
# Poissons Ratio (x) = 0.46461 0.33682
# Poissons Ratio (y) = 0.38870 0.56757
# Poissons Ratio (z) = 0.13740 0.27675
#
# Static dielectric constant tensor:
#      x y z
#    x 1.668440 0.000000 0.003970 
#    y 0.000000 1.642460 0.000000 
#    z 0.003970 0.000000 1.696120 
# 
# From -- ./inp_files/290110.got.cif
#   From: 2010.05.17/outbox.cif.g08.bks.cpg/sg15_146_cif.got.tgz:290110.got - 2010.06.03 18:47:42.
