data_PCOD9281516
_publ_section_title
;
Structure prediction by ZEFSAII (Michael W. Deem and Ramdas Pophale) SiO2 
 PCOD9281516
Probable space group: C 2/C
;
_chemical_formula_sum "Si O2"
_cell_formula_units_Z 60
_cell_length_a 10.768932
_cell_length_b 9.107541
_cell_length_c 27.815907
_cell_angle_alpha 90.000000
_cell_angle_beta 94.898484
_cell_angle_gamma 90.000000
_cell_volume 2718.177762
_symmetry_space_group_name_H-M "C 2/C"
_symmetry_group_IT_number 15
_symmetry_cell_setting 'monoclinic'
loop_
_space_group_symop_operation_xyz
x,y,z
-x,y,1/2-z
-x,-y,-z
x,-y,1/2+z
1/2+x,1/2+y,z
1/2-x,1/2+y,1/2-z
1/2-x,1/2-y,-z
1/2+x,1/2-y,1/2+z
loop_
_atom_site_type_symbol
_atom_site_label
_atom_site_fract_x
_atom_site_fract_y
_atom_site_fract_z
Si Si1 0.421748 0.569928 0.819483
Si Si2 0.000000 0.705998 0.250000
Si Si3 0.024520 0.815781 0.946193
Si Si4 0.604301 0.668258 0.343409
Si Si5 0.559418 0.022819 0.437451
Si Si6 0.308425 0.512389 0.980616
Si Si7 0.640655 0.996827 0.328280
Si Si8 0.356523 0.758208 0.903390
O O1 0.408760 0.687220 0.776423
O O2 0.540349 0.465225 0.813283
O O3 0.288973 0.491976 0.824011
O O4 0.440310 0.666056 0.868522
O O5 0.070024 0.605774 0.290833
O O6 0.027669 0.642048 0.952222
O O7 0.020942 0.834296 0.888953
O O8 0.145832 0.901227 0.970876
O O9 0.911901 0.895248 0.968940
O O10 0.599918 0.827059 0.318294
O O11 0.746217 0.665351 0.368754
O O12 0.675742 0.065156 0.474477
O O13 0.605694 0.024226 0.383019
O O14 0.441794 0.128108 0.434079
O O15 0.304318 0.638471 0.939018
#
# Coordination Sequence:
#
# PCOD9281516 Si02
#       8
#     8   4   8   8   8   8   8   8
#     4  11  23  44  64  93 123 161 199 252 315 364
#     4  12  26  42  66  96 120 152 202 264 306 366
#     4  10  21  38  62  91 125 170 206 251 304 351
#     4  10  21  42  64  88 128 167 201 246 305 370
#     4  11  21  40  63  89 124 168 200 251 310 358
#     4  11  21  40  61  91 130 161 210 258 293 363
#     4  10  23  43  65  91 123 157 204 249 307 369
#     4  11  22  38  64  91 125 162 208 250 303 366
#
# _framework density 22.073612000000001
#
# number of rings (size 3 to 8) (size 9 to 14) (size 15 to 20)
#    0.000    1.333    6.667    0.400    0.000    5.333 
#    4.800    1.333    0.000    0.000    0.000    0.000 
#    0.000    0.000    0.000    0.000    0.000    0.000 
#
# Total GULP energy -167629.381487 kJ/mol
# GULP energy per Si atom -5587.646050 kJ/mol
# Density = 2.202337 g / cm^3
# Si number density = 22.073612 Si / 1000 Ang^3
#
#
#
# Elastic Constant Matrix: (Units=GPa)
#
#
# Indices 1 2 3 4 5 6 
#
# 1 92.4798 49.3294 23.7061 0.0000 14.3729 0.0000
# 2 49.3294 66.3685 27.8912 0.0000 16.2875 0.0000
# 3 23.7061 27.8912 73.6127 0.0000 4.9792 0.0000
# 4 0.0000 0.0000 0.0000 40.2221 0.0000 1.4346
# 5 14.3729 16.2875 4.9792 0.0000 26.8568 0.0000
# 6 0.0000 0.0000 0.0000 1.4346 0.0000 38.3222
#
#
#
# Elastic Compliance Matrix: (Units=1/GPa)
#
#
# Indices 1 2 3 4 5 6 
#
# 1 0.018041 -0.012564 -0.000924 0.000000 -0.001864 0.000000
# 2 -0.012564 0.029591 -0.006488 0.000000 -0.010019 0.000000
# 3 -0.000924 -0.006488 0.016244 0.000000 0.001417 0.000000
# 4 0.000000 0.000000 0.000000 0.024895 0.000000 -0.000932
# 5 -0.001864 -0.010019 0.001417 0.000000 0.044046 0.000000
# 6 0.000000 0.000000 0.000000 -0.000932 0.000000 0.026129
#
#
# Mechanical properties :
#
#
# Convention : Reuss Voigt Hill
#
# Bulk Modulus (GPa) = 41.79568 48.25717 45.02643
# Shear Modulus (GPa) = 24.16940 29.84918 27.00929
#
# Velocity S-wave (km/s) = 3.31259 3.68129 3.50180
# Velocity P-wave (km/s) = 5.79713 6.32286 6.06570
#
# Compressibility (1/GPa) = 0.02392592
#
# Stress axis : x y z
#
# Youngs Moduli (GPa) = 55.42831 33.79406 61.55954
#
# Poissons Ratio (x) = 0.42458 0.05685
# Poissons Ratio (y) = 0.69639 0.39940
# Poissons Ratio (z) = 0.05119 0.21926
#
# Static dielectric constant tensor:
#      x y z
#    x 1.847000 0.000000 -0.004760 
#    y 0.000000 1.815580 0.000000 
#    z -0.004760 0.000000 1.823810 
# 
# From -- ./inp_files/310340.got.cif
#   From: 2010.05.17/outbox.cif.g08.bks.cpg/sg15_156_cif.got.tgz:310340.got - 2010.06.03 18:47:42.
