data_PCOD9281083
_publ_section_title
;
Structure prediction by ZEFSAII (Michael W. Deem and Ramdas Pophale) SiO2 
 PCOD9281083
Probable space group: C 2/C
;
_chemical_formula_sum "Si O2"
_cell_formula_units_Z 48
_cell_length_a 10.056146
_cell_length_b 16.531040
_cell_length_c 15.492987
_cell_angle_alpha 90.000000
_cell_angle_beta 88.529464
_cell_angle_gamma 90.000000
_cell_volume 2574.683481
_symmetry_space_group_name_H-M "C 2/C"
_symmetry_group_IT_number 15
_symmetry_cell_setting 'monoclinic'
loop_
_space_group_symop_operation_xyz
x,y,z
-x,y,1/2-z
-x,-y,-z
x,-y,1/2+z
1/2+x,1/2+y,z
1/2-x,1/2+y,1/2-z
1/2-x,1/2-y,-z
1/2+x,1/2-y,1/2+z
loop_
_atom_site_type_symbol
_atom_site_label
_atom_site_fract_x
_atom_site_fract_y
_atom_site_fract_z
Si Si1 0.034656 0.737442 0.983829
Si Si2 0.349052 0.322728 0.285299
Si Si3 0.605384 0.160919 0.668848
Si Si4 0.874443 0.504040 0.437770
Si Si5 0.209186 0.881810 0.039408
Si Si6 0.057289 0.333314 0.653670
O O1 0.093157 0.827144 0.998399
O O2 0.945705 0.725588 0.900907
O O3 0.157624 0.673946 0.970564
O O4 0.971550 0.703921 0.075264
O O5 0.500000 0.329817 0.250000
O O6 0.245733 0.321266 0.210366
O O7 0.319700 0.389319 0.358500
O O8 0.333675 0.237463 0.336885
O O9 0.500000 0.153486 0.750000
O O10 0.624558 0.078203 0.615218
O O11 0.745763 0.533387 0.494256
O O12 0.895225 0.578931 0.373033
O O13 0.000000 0.500000 0.500000
O O14 0.000000 0.339109 0.750000
#
# Coordination Sequence:
#
# PCOD9281083 Si02
#       6
#     8   8   8   8   8   8
#     4   9  17  32  57  84 114 151 197 243 299 361
#     4  10  21  38  58  82 117 160 197 247 306 365
#     4  12  21  34  60  94 116 150 211 254 288 362
#     4  11  19  32  57  90 118 151 198 255 304 348
#     4   9  17  34  55  80 117 157 188 242 310 355
#     4   9  18  34  55  81 115 152 190 243 306 346
#
# _framework density 18.643066999999999
#
# number of rings (size 3 to 8) (size 9 to 14) (size 15 to 20)
#    0.000    2.000    5.000    1.500    0.000    0.000 
#    0.000    8.333    3.667    0.000    0.000    0.000 
#    0.000    0.000    0.000    0.000    0.000    0.000 
#
# Total GULP energy -133611.114810 kJ/mol
# GULP energy per Si atom -5567.129784 kJ/mol
# Density = 1.860063 g / cm^3
# Si number density = 18.643067 Si / 1000 Ang^3
#
#
#
# Elastic Constant Matrix: (Units=GPa)
#
#
# Indices 1 2 3 4 5 6 
#
# 1 78.1365 18.5889 56.5043 0.0000 17.2685 0.0000
# 2 18.5889 46.4340 30.2915 0.0000 13.5530 0.0000
# 3 56.5043 30.2915 147.9277 0.0000 17.3494 0.0000
# 4 0.0000 0.0000 0.0000 26.3538 0.0000 1.0131
# 5 17.2685 13.5530 17.3494 0.0000 37.4276 0.0000
# 6 0.0000 0.0000 0.0000 1.0131 0.0000 15.0603
#
#
#
# Elastic Compliance Matrix: (Units=1/GPa)
#
#
# Indices 1 2 3 4 5 6 
#
# 1 0.018895 -0.002026 -0.006203 0.000000 -0.005109 0.000000
# 2 -0.002026 0.026951 -0.003923 0.000000 -0.007006 0.000000
# 3 -0.006203 -0.003923 0.009973 0.000000 -0.000340 0.000000
# 4 0.000000 0.000000 0.000000 0.038044 0.000000 -0.002559
# 5 -0.005109 -0.007006 -0.000340 0.000000 0.031770 0.000000
# 6 0.000000 0.000000 0.000000 -0.002559 0.000000 0.066572
#
#
# Mechanical properties :
#
#
# Convention : Reuss Voigt Hill
#
# Bulk Modulus (GPa) = 31.73250 53.69639 42.71445
# Shear Modulus (GPa) = 22.02497 26.90923 24.46710
#
# Velocity S-wave (km/s) = 3.44088 3.80332 3.62663
# Velocity P-wave (km/s) = 5.73099 6.93915 6.36381
#
# Compressibility (1/GPa) = 0.03151343
#
# Stress axis : x y z
#
# Youngs Moduli (GPa) = 52.92363 37.10393 100.27261
#
# Poissons Ratio (x) = 0.07519 0.62202
# Poissons Ratio (y) = 0.10725 0.39339
# Poissons Ratio (z) = 0.32830 0.14557
#
# Static dielectric constant tensor:
#      x y z
#    x 1.691810 0.000000 -0.062860 
#    y 0.000000 1.659840 0.000000 
#    z -0.062860 0.000000 1.761830 
# 
# From -- ./inp_files/144700.got.cif
#   From: 2010.05.17/outbox.cif.g08.bks.cpg/sg15_73_cif.got.tgz:144700.got - 2010.06.03 18:47:42.
