data_PCOD9281666
_publ_section_title
;
Structure prediction by ZEFSAII (Michael W. Deem and Ramdas Pophale) SiO2 
 PCOD9281666
Probable space group: C 2/C
;
_chemical_formula_sum "Si O2"
_cell_formula_units_Z 64
_cell_length_a 12.707993
_cell_length_b 11.804101
_cell_length_c 21.244441
_cell_angle_alpha 90.000000
_cell_angle_beta 123.536165
_cell_angle_gamma 90.000000
_cell_volume 2656.318930
_symmetry_space_group_name_H-M "C 2/C"
_symmetry_group_IT_number 15
_symmetry_cell_setting 'monoclinic'
loop_
_space_group_symop_operation_xyz
x,y,z
-x,y,1/2-z
-x,-y,-z
x,-y,1/2+z
1/2+x,1/2+y,z
1/2-x,1/2+y,1/2-z
1/2-x,1/2-y,-z
1/2+x,1/2-y,1/2+z
loop_
_atom_site_type_symbol
_atom_site_label
_atom_site_fract_x
_atom_site_fract_y
_atom_site_fract_z
Si Si1 0.712470 0.575228 0.541166
Si Si2 0.086441 0.749642 0.217874
Si Si3 0.325630 0.865771 0.333425
Si Si4 0.451710 0.983755 0.633956
Si Si5 0.815160 0.317622 0.946253
Si Si6 0.928983 0.110227 0.576618
Si Si7 0.583554 0.156600 0.494419
Si Si8 0.862899 0.969363 0.677118
O O1 0.785532 0.637801 0.506410
O O2 0.648768 0.686869 0.547844
O O3 0.604283 0.489427 0.483174
O O4 0.821180 0.524804 0.622843
O O5 0.235336 0.763770 0.280188
O O6 0.030968 0.624766 0.184074
O O7 0.000000 0.783824 0.250000
O O8 0.053836 0.837767 0.151135
O O9 0.363914 0.841476 0.418114
O O10 0.452212 0.911427 0.341911
O O11 0.230485 0.972544 0.304499
O O12 0.383916 0.935121 0.547736
O O13 0.694530 0.352249 0.866097
O O14 0.936431 0.375925 0.956295
O O15 0.883564 0.224055 0.527060
O O16 0.864503 0.054101 0.617373
O O17 0.000000 0.954531 0.750000
#
# Coordination Sequence:
#
# PCOD9281666 Si02
#       8
#     8   8   8   8   8   8   8   8
#     4  10  22  40  64  90 126 165 208 260 316 371
#     4  11  24  42  62  92 127 167 213 258 318 385
#     4  12  21  41  64  94 125 170 207 265 309 377
#     4  11  24  41  65  95 127 163 212 264 315 374
#     4  10  21  41  62  95 125 162 214 256 310 388
#     4  10  21  38  63  94 123 161 209 264 312 373
#     4  11  22  36  69  98 121 161 215 266 314 369
#     4  11  20  39  66  89 124 172 213 257 317 376
#
# _framework density 24.093492999999999
#
# number of rings (size 3 to 8) (size 9 to 14) (size 15 to 20)
#    0.000    1.250    5.000    1.875    1.750    2.000 
#    4.500    3.125    0.000    0.000    0.000    0.000 
#    0.000    0.000    0.000    0.000    0.000    0.000 
#
# Total GULP energy -178345.913496 kJ/mol
# GULP energy per Si atom -5573.309797 kJ/mol
# Density = 2.403866 g / cm^3
# Si number density = 24.093493 Si / 1000 Ang^3
#
#
#
# Elastic Constant Matrix: (Units=GPa)
#
#
# Indices 1 2 3 4 5 6 
#
# 1 43.0407 -5.6677 20.9574 0.0000 2.6706 0.0000
# 2 -5.6677 119.1844 40.8762 0.0000 -4.6372 0.0000
# 3 20.9574 40.8762 131.5483 0.0000 20.5055 0.0000
# 4 0.0000 0.0000 0.0000 34.4600 0.0000 15.9565
# 5 2.6706 -4.6372 20.5055 0.0000 14.4911 0.0000
# 6 0.0000 0.0000 0.0000 15.9565 0.0000 7.3226
#
#
#
# Elastic Compliance Matrix: (Units=1/GPa)
#
#
# Indices 1 2 3 4 5 6 
#
# 1 0.026337 0.003510 -0.006036 0.000000 0.004811 0.000000
# 2 0.003510 0.010911 -0.005636 0.000000 0.010820 0.000000
# 3 -0.006036 -0.005636 0.013372 0.000000 -0.019613 0.000000
# 4 0.000000 0.000000 0.000000 -3.222962 0.000000 7.023065
# 5 0.004811 0.010820 -0.019613 0.000000 0.099337 0.000000
# 6 0.000000 0.000000 0.000000 7.023065 0.000000-15.167198
#
#
# Mechanical properties :
#
#
# Convention : Reuss Voigt Hill
#
# Bulk Modulus (GPa) = 29.15921 45.12279 37.14100
# Shear Modulus (GPa) = -0.27454 27.09526 13.41036
#
# Velocity S-wave (km/s) = -0.33793 3.35713 2.36179
# Velocity P-wave (km/s) = 3.46071 5.81343 4.78396
#
# Compressibility (1/GPa) = 0.03429448
#
# Stress axis : x y z
#
# Youngs Moduli (GPa) = 37.96983 91.64785 74.78273
#
# Poissons Ratio (x) = -0.32167 0.45141
# Poissons Ratio (y) = -0.13327 0.42150
# Poissons Ratio (z) = 0.22920 0.51656
#
# Static dielectric constant tensor:
#      x y z
#    x 1.938650 0.000000 -0.021850 
#    y 0.000000 1.953000 0.000000 
#    z -0.021850 0.000000 1.956060 
# 
# From -- ./inp_files/296175.got.cif
#   From: 2010.05.17/outbox.cif.g08.bks.cpg/sg15_149_cif.got.tgz:296175.got - 2010.06.03 18:47:42.
