data_PCOD9281423
_publ_section_title
;
Structure prediction by ZEFSAII (Michael W. Deem and Ramdas Pophale) SiO2 
 PCOD9281423
Probable space group: C 2/C
;
_chemical_formula_sum "Si O2"
_cell_formula_units_Z 48
_cell_length_a 18.300653
_cell_length_b 8.492855
_cell_length_c 22.534408
_cell_angle_alpha 90.000000
_cell_angle_beta 135.025435
_cell_angle_gamma 90.000000
_cell_volume 2475.475153
_symmetry_space_group_name_H-M "C 2/C"
_symmetry_group_IT_number 15
_symmetry_cell_setting 'monoclinic'
loop_
_space_group_symop_operation_xyz
x,y,z
-x,y,1/2-z
-x,-y,-z
x,-y,1/2+z
1/2+x,1/2+y,z
1/2-x,1/2+y,1/2-z
1/2-x,1/2-y,-z
1/2+x,1/2-y,1/2+z
loop_
_atom_site_type_symbol
_atom_site_label
_atom_site_fract_x
_atom_site_fract_y
_atom_site_fract_z
Si Si1 0.791459 0.680895 0.084637
Si Si2 0.784021 0.157319 0.703784
Si Si3 0.577322 0.668402 0.401226
Si Si4 0.165205 0.790275 0.745083
Si Si5 0.247020 0.318790 0.413030
Si Si6 0.010710 0.841862 0.321946
O O1 0.759363 0.788429 0.122505
O O2 0.764295 0.501264 0.077641
O O3 0.914177 0.698635 0.147484
O O4 0.750000 0.750000 0.000000
O O5 0.705537 0.231423 0.704983
O O6 0.901295 0.216566 0.782160
O O7 0.800380 0.970954 0.722814
O O8 0.459681 0.727573 0.324540
O O9 0.639508 0.724624 0.495818
O O10 0.657598 0.719600 0.395686
O O11 0.560512 0.478908 0.390182
O O12 0.224275 0.697568 0.830796
O O13 0.000000 0.919981 0.250000
#
# Coordination Sequence:
#
# PCOD9281423 Si02
#       6
#     8   8   8   8   8   8
#     4  11  21  37  62  94 122 153 205 251 297 359
#     4  10  23  40  62  85 124 165 201 248 308 362
#     4  10  21  38  61  93 121 160 202 251 304 357
#     4  11  23  43  62  89 127 162 203 249 309 364
#     4  11  22  36  65  92 122 157 206 250 302 360
#     4   9  18  37  60  85 118 163 200 245 303 356
#
# _framework density 19.390217
#
# number of rings (size 3 to 8) (size 9 to 14) (size 15 to 20)
#    0.000    1.667    1.667    4.500    2.333    5.333 
#    3.000    3.333    0.000    0.000    0.000    0.000 
#    0.000    0.000    0.000    0.000    0.000    0.000 
#
# Total GULP energy -133784.369450 kJ/mol
# GULP energy per Si atom -5574.348727 kJ/mol
# Density = 1.934608 g / cm^3
# Si number density = 19.390217 Si / 1000 Ang^3
#
#
#
# Elastic Constant Matrix: (Units=GPa)
#
#
# Indices 1 2 3 4 5 6 
#
# 1 53.9333 -8.3633 26.1640 0.0000 -2.9747 0.0000
# 2 -8.3633 35.3178 10.5055 0.0000 -1.8587 0.0000
# 3 26.1640 10.5055 105.6695 0.0000 -5.6677 0.0000
# 4 0.0000 0.0000 0.0000 26.7157 0.0000 -0.2283
# 5 -2.9747 -1.8587 -5.6677 0.0000 25.5643 0.0000
# 6 0.0000 0.0000 0.0000 -0.2283 0.0000 25.6774
#
#
#
# Elastic Compliance Matrix: (Units=1/GPa)
#
#
# Indices 1 2 3 4 5 6 
#
# 1 0.022836 0.007373 -0.006291 0.000000 0.001799 0.000000
# 2 0.007373 0.031615 -0.004857 0.000000 0.002080 0.000000
# 3 -0.006291 -0.004857 0.011584 0.000000 0.001483 0.000000
# 4 0.000000 0.000000 0.000000 0.037434 0.000000 0.000333
# 5 0.001799 0.002080 0.001483 0.000000 0.039806 0.000000
# 6 0.000000 0.000000 0.000000 0.000333 0.000000 0.038948
#
#
# Mechanical properties :
#
#
# Convention : Reuss Voigt Hill
#
# Bulk Modulus (GPa) = 17.09846 27.94811 22.52329
# Shear Modulus (GPa) = 23.89304 26.69910 25.29607
#
# Velocity S-wave (km/s) = 3.51411 3.71474 3.61581
# Velocity P-wave (km/s) = 5.03016 5.73095 5.39195
#
# Compressibility (1/GPa) = 0.05848479
#
# Stress axis : x y z
#
# Youngs Moduli (GPa) = 43.79093 31.63098 86.32965
#
# Poissons Ratio (x) = -0.23323 0.54308
# Poissons Ratio (y) = -0.32289 0.41932
# Poissons Ratio (z) = 0.27548 0.15364
#
# Static dielectric constant tensor:
#      x y z
#    x 1.668300 0.000000 0.015570 
#    y 0.000000 1.683170 0.000000 
#    z 0.015570 0.000000 1.760310 
# 
# From -- ./inp_files/247646.got.cif
#   From: 2010.05.17/outbox.cif.g08.bks.cpg/sg15_124_cif.got.tgz:247646.got - 2010.06.03 18:47:42.
