data_PCOD9281706
_publ_section_title
;
Structure prediction by ZEFSAII (Michael W. Deem and Ramdas Pophale) SiO2 
 PCOD9281706
Probable space group: C 2/C
;
_chemical_formula_sum "Si O2"
_cell_formula_units_Z 40
_cell_length_a 10.185891
_cell_length_b 22.130054
_cell_length_c 10.040898
_cell_angle_alpha 90.000000
_cell_angle_beta 57.499747
_cell_angle_gamma 90.000000
_cell_volume 1908.894926
_symmetry_space_group_name_H-M "C 2/C"
_symmetry_group_IT_number 15
_symmetry_cell_setting 'monoclinic'
loop_
_space_group_symop_operation_xyz
x,y,z
-x,y,1/2-z
-x,-y,-z
x,-y,1/2+z
1/2+x,1/2+y,z
1/2-x,1/2+y,1/2-z
1/2-x,1/2-y,-z
1/2+x,1/2-y,1/2+z
loop_
_atom_site_type_symbol
_atom_site_label
_atom_site_fract_x
_atom_site_fract_y
_atom_site_fract_z
Si Si1 0.825158 0.803028 0.375963
Si Si2 0.835494 0.080279 0.059598
Si Si3 0.407313 0.938169 0.588614
Si Si4 0.373584 0.868004 0.204311
Si Si5 0.847308 0.943208 0.995979
O O1 0.750000 0.750000 0.500000
O O2 0.829139 0.865271 0.459407
O O3 0.735245 0.814762 0.286775
O O4 0.000000 0.786081 0.250000
O O5 0.671785 0.069607 0.224982
O O6 0.871569 0.015186 0.975097
O O7 0.985665 0.088130 0.074995
O O8 0.530391 0.888117 0.477723
O O9 0.259932 0.929531 0.571266
O O10 0.500000 0.000000 0.500000
O O11 0.500000 0.854859 0.250000
O O12 0.261228 0.921496 0.320808
#
# Coordination Sequence:
#
# PCOD9281706 Si02
#       5
#     8   8   8   8   8
#     4  12  28  49  70  96 135 187 239 283 338 413
#     4  11  23  38  67  95 137 179 226 280 346 407
#     4  11  21  35  60 101 140 171 216 268 348 420
#     4  10  22  43  67  97 135 172 219 285 344 406
#     4  10  21  38  63  99 138 176 213 286 353 409
#
# _framework density 20.954532
#
# number of rings (size 3 to 8) (size 9 to 14) (size 15 to 20)
#    0.000    1.200    4.000    1.800    2.800    1.600 
#    0.000    3.000    0.000    0.000    0.000    0.000 
#    0.000    0.000    0.000    0.000    0.000    0.000 
#
# Total GULP energy -111654.094929 kJ/mol
# GULP energy per Si atom -5582.704746 kJ/mol
# Density = 2.090684 g / cm^3
# Si number density = 20.954532 Si / 1000 Ang^3
#
#
#
# Elastic Constant Matrix: (Units=GPa)
#
#
# Indices 1 2 3 4 5 6 
#
# 1 130.5150 35.2074 24.1432 0.0000 -34.1577 0.0000
# 2 35.2074 72.3400 21.9171 0.0000 -2.8278 0.0000
# 3 24.1432 21.9171 110.3931 0.0000 -30.2187 0.0000
# 4 0.0000 0.0000 0.0000 32.7441 0.0000 0.7568
# 5 -34.1577 -2.8278 -30.2187 0.0000 28.1985 0.0000
# 6 0.0000 0.0000 0.0000 0.7568 0.0000 5.5196
#
#
#
# Elastic Compliance Matrix: (Units=1/GPa)
#
#
# Indices 1 2 3 4 5 6 
#
# 1 0.014450 -0.007451 0.004112 0.000000 0.021164 0.000000
# 2 -0.007451 0.018661 -0.005708 0.000000 -0.013272 0.000000
# 3 0.004112 -0.005708 0.014858 0.000000 0.020331 0.000000
# 4 0.000000 0.000000 0.000000 0.030637 0.000000 -0.004201
# 5 0.021164 -0.013272 0.020331 0.000000 0.081556 0.000000
# 6 0.000000 0.000000 0.000000 -0.004201 0.000000 0.181749
#
#
# Mechanical properties :
#
#
# Convention : Reuss Voigt Hill
#
# Bulk Modulus (GPa) = 33.47363 52.86484 43.16924
# Shear Modulus (GPa) = 13.51487 28.75780 21.13633
#
# Velocity S-wave (km/s) = 2.54236 3.70860 3.17941
# Velocity P-wave (km/s) = 4.96258 6.60465 5.84160
#
# Compressibility (1/GPa) = 0.02987426
#
# Stress axis : x y z
#
# Youngs Moduli (GPa) = 69.20351 53.58824 67.30423
#
# Poissons Ratio (x) = 0.39931 -0.27678
# Poissons Ratio (y) = 0.51566 0.38419
# Poissons Ratio (z) = -0.28459 0.30589
#
# Static dielectric constant tensor:
#      x y z
#    x 1.819320 0.000000 -0.005620 
#    y 0.000000 1.713850 0.000000 
#    z -0.005620 0.000000 1.831300 
# 
# From -- ./inp_files/77653.got.cif
#   From: 2010.05.17/outbox.cif.g08.bks.cpg/sg15_39_cif.got.tgz:77653.got - 2010.06.03 18:47:42.
