data_PCOD9281833
_publ_section_title
;
Structure prediction by ZEFSAII (Michael W. Deem and Ramdas Pophale) SiO2 
 PCOD9281833
Probable space group: C 2/C
;
_chemical_formula_sum "Si O2"
_cell_formula_units_Z 52
_cell_length_a 5.757219
_cell_length_b 30.520143
_cell_length_c 14.020067
_cell_angle_alpha 90.000000
_cell_angle_beta 69.757677
_cell_angle_gamma 90.000000
_cell_volume 2311.331746
_symmetry_space_group_name_H-M "C 2/C"
_symmetry_group_IT_number 15
_symmetry_cell_setting 'monoclinic'
loop_
_space_group_symop_operation_xyz
x,y,z
-x,y,1/2-z
-x,-y,-z
x,-y,1/2+z
1/2+x,1/2+y,z
1/2-x,1/2+y,1/2-z
1/2-x,1/2-y,-z
1/2+x,1/2-y,1/2+z
loop_
_atom_site_type_symbol
_atom_site_label
_atom_site_fract_x
_atom_site_fract_y
_atom_site_fract_z
Si Si1 0.346429 0.948576 0.634805
Si Si2 0.000000 0.858436 0.250000
Si Si3 0.842428 0.018190 0.131953
Si Si4 0.262783 0.915695 0.354652
Si Si5 0.322987 0.861675 0.541539
Si Si6 0.262394 0.798678 0.095787
Si Si7 0.469713 0.715049 0.462712
O O1 0.255604 0.965484 0.750698
O O2 0.635955 0.962891 0.587337
O O3 0.344887 0.896263 0.622827
O O4 0.131374 0.967105 0.593965
O O5 0.046778 0.889058 0.332836
O O6 0.225208 0.825933 0.196313
O O7 0.818616 0.966051 0.128111
O O8 0.500000 0.914112 0.250000
O O9 0.315656 0.891842 0.447121
O O10 0.541029 0.826491 0.494125
O O11 0.088294 0.829393 0.583768
O O12 0.317166 0.747528 0.103737
O O13 0.021607 0.799071 0.063750
O O14 0.250000 0.750000 0.500000
#
# Coordination Sequence:
#
# PCOD9281833 Si02
#       7
#     8   4   8   8   8   8   8
#     4  10  22  41  67  89 131 174 227 263 337 387
#     4  12  22  36  68  96 128 168 212 272 336 400
#     4  10  23  44  62  90 137 185 208 288 330 382
#     4  12  23  39  61  94 134 166 220 271 334 383
#     4  11  23  37  67  96 122 173 222 272 323 406
#     4  10  21  38  65  89 128 161 207 265 335 392
#     4   9  20  41  60  86 125 161 200 266 325 387
#
# _framework density 22.497852000000002
#
# number of rings (size 3 to 8) (size 9 to 14) (size 15 to 20)
#    0.000    1.538    4.615    0.923    2.154    1.231 
#    0.000    0.000   20.308    0.000    0.000    0.000 
#    0.000    0.000    0.000    0.000    0.000    0.000 
#
# Total GULP energy -144937.110693 kJ/mol
# GULP energy per Si atom -5574.504257 kJ/mol
# Density = 2.244665 g / cm^3
# Si number density = 22.497852 Si / 1000 Ang^3
#
#
#
# Elastic Constant Matrix: (Units=GPa)
#
#
# Indices 1 2 3 4 5 6 
#
# 1 112.9113 49.1372 4.3699 0.0000 9.5209 0.0000
# 2 49.1372 198.8744 34.2183 0.0000 9.7203 0.0000
# 3 4.3699 34.2183 47.4549 0.0000 5.4485 0.0000
# 4 0.0000 0.0000 0.0000 24.8784 0.0000 0.4589
# 5 9.5209 9.7203 5.4485 0.0000 12.1199 0.0000
# 6 0.0000 0.0000 0.0000 0.4589 0.0000 45.8340
#
#
#
# Elastic Compliance Matrix: (Units=1/GPa)
#
#
# Indices 1 2 3 4 5 6 
#
# 1 0.010482 -0.002536 0.001661 0.000000 -0.006947 0.000000
# 2 -0.002536 0.006452 -0.004274 0.000000 -0.001261 0.000000
# 3 0.001661 -0.004274 0.025051 0.000000 -0.009139 0.000000
# 4 0.000000 0.000000 0.000000 0.040203 0.000000 -0.000403
# 5 -0.006947 -0.001261 -0.009139 0.000000 0.093086 0.000000
# 6 0.000000 0.000000 0.000000 -0.000403 0.000000 0.021822
#
#
# Mechanical properties :
#
#
# Convention : Reuss Voigt Hill
#
# Bulk Modulus (GPa) = 31.55929 59.41017 45.48473
# Shear Modulus (GPa) = 22.94053 34.66747 28.80400
#
# Velocity S-wave (km/s) = 3.19670 3.92972 3.58201
# Velocity P-wave (km/s) = 5.26150 6.85964 6.11302
#
# Compressibility (1/GPa) = 0.03168639
#
# Stress axis : x y z
#
# Youngs Moduli (GPa) = 95.40500 154.99309 39.91891
#
# Poissons Ratio (x) = 0.39307 -0.06631
# Poissons Ratio (y) = 0.24195 0.17061
# Poissons Ratio (z) = -0.15847 0.66244
#
# Static dielectric constant tensor:
#      x y z
#    x 1.984540 0.000000 -0.040530 
#    y 0.000000 1.815530 0.000000 
#    z -0.040530 0.000000 1.865620 
# 
# From -- ./inp_files/130679.got.cif
#   From: 2010.05.17/outbox.cif.g08.bks.cpg/sg15_66_cif.got.tgz:130679.got - 2010.06.03 18:47:42.
