data_PCOD9281940
_publ_section_title
;
Structure prediction by ZEFSAII (Michael W. Deem and Ramdas Pophale) SiO2 
 PCOD9281940
Probable space group: C 2/C
;
_chemical_formula_sum "Si O2"
_cell_formula_units_Z 40
_cell_length_a 5.512283
_cell_length_b 21.376112
_cell_length_c 14.880337
_cell_angle_alpha 90.000000
_cell_angle_beta 84.377267
_cell_angle_gamma 90.000000
_cell_volume 1744.931503
_symmetry_space_group_name_H-M "C 2/C"
_symmetry_group_IT_number 15
_symmetry_cell_setting 'monoclinic'
loop_
_space_group_symop_operation_xyz
x,y,z
-x,y,1/2-z
-x,-y,-z
x,-y,1/2+z
1/2+x,1/2+y,z
1/2-x,1/2+y,1/2-z
1/2-x,1/2-y,-z
1/2+x,1/2-y,1/2+z
loop_
_atom_site_type_symbol
_atom_site_label
_atom_site_fract_x
_atom_site_fract_y
_atom_site_fract_z
Si Si1 0.772740 0.690501 0.566478
Si Si2 0.959874 0.019577 0.356388
Si Si3 0.769127 0.363687 0.695748
Si Si4 0.810694 0.443977 0.992643
Si Si5 0.240014 0.230894 0.895290
O O1 0.750000 0.750000 0.500000
O O2 0.857846 0.628790 0.509949
O O3 0.494506 0.686924 0.612473
O O4 0.987942 0.704020 0.629928
O O5 0.761684 0.075988 0.366919
O O6 0.000000 0.004020 0.250000
O O7 0.192413 0.047602 0.399209
O O8 0.882577 0.961944 0.421025
O O9 0.500000 0.362265 0.750000
O O10 0.801018 0.295825 0.653017
O O11 0.000000 0.374441 0.750000
O O12 0.000000 0.500000 0.000000
O O13 0.250000 0.250000 0.000000
#
# Coordination Sequence:
#
# PCOD9281940 Si02
#       5
#     8   8   8   8   8
#     4  10  22  39  68 100 134 176 230 287 351 422
#     4  10  25  44  68 103 142 186 239 305 362 428
#     4  11  24  42  71 103 140 182 242 297 357 428
#     4  11  26  42  74 104 139 190 248 292 368 445
#     4  10  21  38  66  93 132 171 221 275 346 407
#
# _framework density 22.923538000000001
#
# number of rings (size 3 to 8) (size 9 to 14) (size 15 to 20)
#    0.000    1.600    0.000    3.600   16.800    0.000 
#    0.000    3.000    4.400    0.000    0.000    0.000 
#    0.000    0.000    0.000    0.000    0.000    0.000 
#
# Total GULP energy -111613.553624 kJ/mol
# GULP energy per Si atom -5580.677681 kJ/mol
# Density = 2.287136 g / cm^3
# Si number density = 22.923538 Si / 1000 Ang^3
#
#
#
# Elastic Constant Matrix: (Units=GPa)
#
#
# Indices 1 2 3 4 5 6 
#
# 1 172.0609 44.8565 38.8579 0.0000 41.3011 0.0000
# 2 44.8565 141.6749 37.3491 0.0000 10.9214 0.0000
# 3 38.8579 37.3491 101.8625 0.0000 21.1220 0.0000
# 4 0.0000 0.0000 0.0000 32.0588 0.0000 2.6642
# 5 41.3011 10.9214 21.1220 0.0000 46.1647 0.0000
# 6 0.0000 0.0000 0.0000 2.6642 0.0000 37.6635
#
#
#
# Elastic Compliance Matrix: (Units=1/GPa)
#
#
# Indices 1 2 3 4 5 6 
#
# 1 0.008025 -0.001764 -0.001118 0.000000 -0.006250 0.000000
# 2 -0.001764 0.008216 -0.002501 0.000000 0.000779 0.000000
# 3 -0.001118 -0.002501 0.011966 0.000000 -0.003883 0.000000
# 4 0.000000 0.000000 0.000000 0.031377 0.000000 -0.002220
# 5 -0.006250 0.000779 -0.003883 0.000000 0.028845 0.000000
# 6 0.000000 0.000000 0.000000 -0.002220 0.000000 0.026708
#
#
# Mechanical properties :
#
#
# Convention : Reuss Voigt Hill
#
# Bulk Modulus (GPa) = 57.34040 73.08060 65.21050
# Shear Modulus (GPa) = 37.95997 42.81306 40.38651
#
# Velocity S-wave (km/s) = 4.07374 4.32632 4.20192
# Velocity P-wave (km/s) = 6.86987 7.54357 7.21459
#
# Compressibility (1/GPa) = 0.01743971
#
# Stress axis : x y z
#
# Youngs Moduli (GPa) = 124.61609 121.70966 83.57061
#
# Poissons Ratio (x) = 0.21471 0.09346
# Poissons Ratio (y) = 0.21983 0.20902
# Poissons Ratio (z) = 0.13936 0.30441
#
# Static dielectric constant tensor:
#      x y z
#    x 2.026150 0.000000 -0.092500 
#    y 0.000000 -2.415890 0.000000 
#    z -0.092500 0.000000 1.857620 
# 
# From -- ./inp_files/184379.got.cif
#   From: 2010.05.17/outbox.cif.g08.bks.cpg/sg15_93_cif.got.tgz:184379.got - 2010.06.03 18:47:42.
