data_PCOD9281457
_publ_section_title
;
Structure prediction by ZEFSAII (Michael W. Deem and Ramdas Pophale) SiO2 
 PCOD9281457
Probable space group: C 2/C
;
_chemical_formula_sum "Si O2"
_cell_formula_units_Z 48
_cell_length_a 14.341224
_cell_length_b 12.042545
_cell_length_c 13.392155
_cell_angle_alpha 90.000000
_cell_angle_beta 109.495317
_cell_angle_gamma 90.000000
_cell_volume 2180.289103
_symmetry_space_group_name_H-M "C 2/C"
_symmetry_group_IT_number 15
_symmetry_cell_setting 'monoclinic'
loop_
_space_group_symop_operation_xyz
x,y,z
-x,y,1/2-z
-x,-y,-z
x,-y,1/2+z
1/2+x,1/2+y,z
1/2-x,1/2+y,1/2-z
1/2-x,1/2-y,-z
1/2+x,1/2-y,1/2+z
loop_
_atom_site_type_symbol
_atom_site_label
_atom_site_fract_x
_atom_site_fract_y
_atom_site_fract_z
Si Si1 0.385153 0.500785 0.729859
Si Si2 0.769647 0.314704 0.828481
Si Si3 0.260137 0.572281 0.863947
Si Si4 0.689251 0.734692 0.875454
Si Si5 0.404039 0.980211 0.357628
Si Si6 0.386300 0.937505 0.570518
O O1 0.500000 0.485222 0.750000
O O2 0.322121 0.392959 0.676994
O O3 0.352610 0.524320 0.833981
O O4 0.349461 0.611706 0.659350
O O5 0.778085 0.201030 0.892376
O O6 0.759982 0.277055 0.708674
O O7 0.864803 0.395095 0.868100
O O8 0.168188 0.563478 0.752916
O O9 0.215943 0.498349 0.936591
O O10 0.603601 0.825768 0.862682
O O11 0.750000 0.750000 0.000000
O O12 0.519185 0.985485 0.375202
O O13 0.388451 0.913374 0.453883
#
# Coordination Sequence:
#
# PCOD9281457 Si02
#       6
#     8   8   8   8   8   8
#     4  10  22  38  60  90 120 164 204 245 308 370
#     4  10  21  40  60  84 128 156 202 255 308 363
#     4  10  21  38  62  85 121 165 193 255 310 354
#     4  11  22  38  65  86 123 163 208 252 306 365
#     4  10  22  38  60  99 116 154 213 257 307 362
#     4  11  21  37  65  91 121 156 209 257 305 371
#
# _framework density 22.015429000000001
#
# number of rings (size 3 to 8) (size 9 to 14) (size 15 to 20)
#    0.000    1.667    3.333    3.500    4.667    2.000 
#    0.000    0.833    0.000    0.000    0.000    0.000 
#    0.000    0.000    0.000    0.000    0.000    0.000 
#
# Total GULP energy -134026.460469 kJ/mol
# GULP energy per Si atom -5584.435853 kJ/mol
# Density = 2.196532 g / cm^3
# Si number density = 22.015429 Si / 1000 Ang^3
#
#
#
# Elastic Constant Matrix: (Units=GPa)
#
#
# Indices 1 2 3 4 5 6 
#
# 1 142.3488 24.2321 16.1731 0.0000 -20.5524 0.0000
# 2 24.2321 92.6434 -14.7826 0.0000 -10.3944 0.0000
# 3 16.1731 -14.7826 65.6094 0.0000 -10.0711 0.0000
# 4 0.0000 0.0000 0.0000 29.4492 0.0000 -0.2043
# 5 -20.5524 -10.3944 -10.0711 0.0000 22.9875 0.0000
# 6 0.0000 0.0000 0.0000 -0.2043 0.0000 10.5916
#
#
#
# Elastic Compliance Matrix: (Units=1/GPa)
#
#
# Indices 1 2 3 4 5 6 
#
# 1 0.008367 -0.001759 -0.001536 0.000000 0.006012 0.000000
# 2 -0.001759 0.012590 0.004184 0.000000 0.005953 0.000000
# 3 -0.001536 0.004184 0.017843 0.000000 0.008336 0.000000
# 4 0.000000 0.000000 0.000000 0.033961 0.000000 0.000655
# 5 0.006012 0.005953 0.008336 0.000000 0.055221 0.000000
# 6 0.000000 0.000000 0.000000 0.000655 0.000000 0.094428
#
#
# Mechanical properties :
#
#
# Convention : Reuss Voigt Hill
#
# Bulk Modulus (GPa) = 24.64416 39.09409 31.86912
# Shear Modulus (GPa) = 21.35318 30.93758 26.14538
#
# Velocity S-wave (km/s) = 3.11773 3.75276 3.44989
# Velocity P-wave (km/s) = 4.91718 6.04762 5.51146
#
# Compressibility (1/GPa) = 0.04057757
#
# Stress axis : x y z
#
# Youngs Moduli (GPa) = 119.51703 79.42983 56.04565
#
# Poissons Ratio (x) = 0.13972 0.08608
# Poissons Ratio (y) = 0.21023 -0.23450
# Poissons Ratio (z) = 0.18357 -0.33234
#
# Static dielectric constant tensor:
#      x y z
#    x 1.809160 0.000000 -0.017670 
#    y 0.000000 1.849650 0.000000 
#    z -0.017670 0.000000 1.859490 
# 
# From -- ./inp_files/152083.got.cif
#   From: 2010.05.17/outbox.cif.g08.bks.cpg/sg15_77_cif.got.tgz:152083.got - 2010.06.03 18:47:42.
