data_PCOD9281127
_publ_section_title
;
Structure prediction by ZEFSAII (Michael W. Deem and Ramdas Pophale) SiO2 
 PCOD9281127
Probable space group: C 2/C
;
_chemical_formula_sum "Si O2"
_cell_formula_units_Z 60
_cell_length_a 25.674036
_cell_length_b 9.252450
_cell_length_c 29.873222
_cell_angle_alpha 90.000000
_cell_angle_beta 25.770212
_cell_angle_gamma 90.000000
_cell_volume 3085.215481
_symmetry_space_group_name_H-M "C 2/C"
_symmetry_group_IT_number 15
_symmetry_cell_setting 'monoclinic'
loop_
_space_group_symop_operation_xyz
x,y,z
-x,y,1/2-z
-x,-y,-z
x,-y,1/2+z
1/2+x,1/2+y,z
1/2-x,1/2+y,1/2-z
1/2-x,1/2-y,-z
1/2+x,1/2-y,1/2+z
loop_
_atom_site_type_symbol
_atom_site_label
_atom_site_fract_x
_atom_site_fract_y
_atom_site_fract_z
Si Si1 0.764769 0.324596 0.248111
Si Si2 0.278335 0.611336 0.311673
Si Si3 0.527579 0.270496 0.380119
Si Si4 0.950376 0.957083 0.885662
Si Si5 0.224114 0.680695 0.607869
Si Si6 0.500000 0.628854 0.250000
Si Si7 0.679408 0.953140 0.715372
Si Si8 0.352072 0.813755 0.089432
O O1 0.744205 0.173790 0.289805
O O2 0.644193 0.346563 0.312400
O O3 0.792274 0.439302 0.265309
O O4 0.868446 0.318464 0.130388
O O5 0.423016 0.619447 0.200249
O O6 0.228535 0.714621 0.389195
O O7 0.228559 0.452678 0.359637
O O8 0.454948 0.392157 0.409233
O O9 0.567470 0.146006 0.315008
O O10 0.463798 0.193144 0.470774
O O11 0.964273 0.965115 0.821156
O O12 0.832654 0.869497 0.992077
O O13 0.172793 0.543563 0.675107
O O14 0.115165 0.768853 0.670042
O O15 0.785170 0.836412 0.631347
#
# Coordination Sequence:
#
# PCOD9281127 Si02
#       8
#     8   8   8   8   8   4   8   8
#     4  10  22  36  55  89 129 171 214 256 289 361
#     4  10  22  38  59  91 129 164 211 260 297 367
#     4  11  23  35  63  88 130 172 210 255 311 369
#     4  11  21  42  65  92 120 166 205 259 324 376
#     4  10  22  42  69  92 120 162 206 263 320 379
#     4  10  24  42  70  94 122 148 212 274 318 386
#     4  10  21  38  58  90 129 163 207 257 304 365
#     4  11  20  35  56  86 127 168 211 249 303 359
#
# _framework density 19.447586999999999
#
# number of rings (size 3 to 8) (size 9 to 14) (size 15 to 20)
#    0.000    1.600    4.000    2.000    0.000    8.000 
#    0.000    0.667    0.000    4.800    0.000    0.000 
#    0.000    0.000    0.000    0.000    0.000    0.000 
#
# Total GULP energy -167244.999048 kJ/mol
# GULP energy per Si atom -5574.833302 kJ/mol
# Density = 1.940332 g / cm^3
# Si number density = 19.447587 Si / 1000 Ang^3
#
#
#
# Elastic Constant Matrix: (Units=GPa)
#
#
# Indices 1 2 3 4 5 6 
#
# 1 74.6603 15.9603 29.9432 -0.0002 17.9091 0.0011
# 2 15.9603 63.4851 18.0051 0.0008 4.3036 -0.0005
# 3 29.9432 18.0051 121.7849 -0.0008 23.1111 0.0004
# 4 -0.0002 0.0008 -0.0008 9.6894 0.0001 -4.2886
# 5 17.9091 4.3036 23.1111 0.0001 24.9513 -0.0006
# 6 0.0011 -0.0005 0.0004 -4.2886 -0.0006 6.3672
#
#
#
# Elastic Compliance Matrix: (Units=1/GPa)
#
#
# Indices 1 2 3 4 5 6 
#
# 1 0.017231 -0.003120 -0.001857 -0.000002 -0.010110 -0.000005
# 2 -0.003120 0.017016 -0.001961 -0.000001 0.001121 0.000001
# 3 -0.001857 -0.001961 0.010483 0.000001 -0.008039 -0.000001
# 4 -0.000002 -0.000001 0.000001 0.147043 0.000003 0.099042
# 5 -0.010110 0.001121 -0.008039 0.000003 0.054587 0.000009
# 6 -0.000005 0.000001 -0.000001 0.099042 0.000009 0.223766
#
#
# Mechanical properties :
#
#
# Convention : Reuss Voigt Hill
#
# Bulk Modulus (GPa) = 32.41059 43.08306 37.74683
# Shear Modulus (GPa) = 10.11558 21.26967 15.69262
#
# Velocity S-wave (km/s) = 2.28314 3.31069 2.84371
# Velocity P-wave (km/s) = 4.86334 6.06760 5.49854
#
# Compressibility (1/GPa) = 0.03085412
#
# Stress axis : x y z
#
# Youngs Moduli (GPa) = 58.03608 58.76699 95.39003
#
# Poissons Ratio (x) = 0.18335 0.17711
# Poissons Ratio (y) = 0.18107 0.18710
# Poissons Ratio (z) = 0.10776 0.11527
#
# Static dielectric constant tensor:
#      x y z
#    x 1.675310 0.000000 0.002050 
#    y 0.000000 1.704390 0.000000 
#    z 0.002050 0.000000 1.711250 
# 
# From -- ./inp_files/302043.got.cif
#   From: 2010.05.17/outbox.cif.g08.bks.cpg/sg15_152_cif.got.tgz:302043.got - 2010.06.03 18:47:42.
