data_PCOD9281644
_publ_section_title
;
Structure prediction by ZEFSAII (Michael W. Deem and Ramdas Pophale) SiO2 
 PCOD9281644
Probable space group: C 2/C
;
_chemical_formula_sum "Si O2"
_cell_formula_units_Z 56
_cell_length_a 15.515219
_cell_length_b 8.956710
_cell_length_c 21.246133
_cell_angle_alpha 90.000000
_cell_angle_beta 95.308344
_cell_angle_gamma 90.000000
_cell_volume 2939.813139
_symmetry_space_group_name_H-M "C 2/C"
_symmetry_group_IT_number 15
_symmetry_cell_setting 'monoclinic'
loop_
_space_group_symop_operation_xyz
x,y,z
-x,y,1/2-z
-x,-y,-z
x,-y,1/2+z
1/2+x,1/2+y,z
1/2-x,1/2+y,1/2-z
1/2-x,1/2-y,-z
1/2+x,1/2-y,1/2+z
loop_
_atom_site_type_symbol
_atom_site_label
_atom_site_fract_x
_atom_site_fract_y
_atom_site_fract_z
Si Si1 0.500000 0.151117 0.750000
Si Si2 0.056248 0.925294 0.947889
Si Si3 0.436619 0.419404 0.829574
Si Si4 0.500000 0.338864 0.250000
Si Si5 0.427543 0.078187 0.536233
Si Si6 0.595387 0.909816 0.832916
Si Si7 0.753544 0.526695 0.972531
Si Si8 0.727123 0.310347 0.604641
O O1 0.462157 0.263254 0.799199
O O2 0.574118 0.043641 0.783080
O O3 0.045881 0.747573 0.950240
O O4 0.014203 0.974115 0.879523
O O5 0.158325 0.959917 0.955539
O O6 0.000000 0.000000 0.000000
O O7 0.429662 0.548068 0.776143
O O8 0.355756 0.383257 0.868347
O O9 0.463247 0.227736 0.194220
O O10 0.500000 0.000000 0.500000
O O11 0.422608 0.982498 0.600077
O O12 0.335658 0.077611 0.493045
O O13 0.692183 0.847390 0.845112
O O14 0.777608 0.636978 0.916364
O O15 0.743019 0.613892 0.037940
#
# Coordination Sequence:
#
# PCOD9281644 Si02
#       8
#     4   8   8   4   8   8   8   8
#     4  10  22  42  62  82 122 172 216 258 304 378
#     4  12  23  39  65  96 129 164 209 268 322 384
#     4  11  22  40  64  91 122 167 214 257 321 370
#     4  10  24  40  64  88 120 168 214 264 304 380
#     4  11  24  39  66  94 127 172 206 261 329 385
#     4  10  22  42  62  87 127 162 213 259 313 374
#     4  10  22  38  60  97 133 159 205 256 322 385
#     4  10  21  38  63  92 128 161 203 263 314 376
#
# _framework density 19.048829000000001
#
# number of rings (size 3 to 8) (size 9 to 14) (size 15 to 20)
#    0.000    1.429    2.857    2.143    6.000    1.143 
#    0.000    0.000    0.000    0.000    0.000    0.000 
#    0.000    0.000    0.000    0.000    0.000    0.000 
#
# Total GULP energy -156129.951901 kJ/mol
# GULP energy per Si atom -5576.069711 kJ/mol
# Density = 1.900547 g / cm^3
# Si number density = 19.048829 Si / 1000 Ang^3
#
#
#
# Elastic Constant Matrix: (Units=GPa)
#
#
# Indices 1 2 3 4 5 6 
#
# 1 86.9669 22.5249 35.0839 0.0000 8.9781 0.0000
# 2 22.5249 107.2504 35.1717 0.0000 2.3365 0.0000
# 3 35.0839 35.1717 77.0469 0.0000 12.4094 0.0000
# 4 0.0000 0.0000 0.0000 37.9214 0.0000 -0.8545
# 5 8.9781 2.3365 12.4094 0.0000 28.9750 0.0000
# 6 0.0000 0.0000 0.0000 -0.8545 0.0000 25.5880
#
#
#
# Elastic Compliance Matrix: (Units=1/GPa)
#
#
# Indices 1 2 3 4 5 6 
#
# 1 0.014275 -0.001088 -0.005698 0.000000 -0.001895 0.000000
# 2 -0.001088 0.011098 -0.004813 0.000000 0.001504 0.000000
# 3 -0.005698 -0.004813 0.018715 0.000000 -0.005862 0.000000
# 4 0.000000 0.000000 0.000000 0.026390 0.000000 0.000881
# 5 -0.001895 0.001504 -0.005862 0.000000 0.037489 0.000000
# 6 0.000000 0.000000 0.000000 0.000881 0.000000 0.039110
#
#
# Mechanical properties :
#
#
# Convention : Reuss Voigt Hill
#
# Bulk Modulus (GPa) = 47.87113 50.75838 49.31475
# Shear Modulus (GPa) = 28.21049 30.39577 29.30313
#
# Velocity S-wave (km/s) = 3.85249 3.99893 3.92639
# Velocity P-wave (km/s) = 6.70628 6.93009 6.81911
#
# Compressibility (1/GPa) = 0.02088942
#
# Stress axis : x y z
#
# Youngs Moduli (GPa) = 70.05333 90.10547 53.43295
#
# Poissons Ratio (x) = 0.09804 0.30447
# Poissons Ratio (y) = 0.07622 0.25717
# Poissons Ratio (z) = 0.39918 0.43367
#
# Static dielectric constant tensor:
#      x y z
#    x 1.662620 0.000000 0.019210 
#    y 0.000000 1.428740 0.000000 
#    z 0.019210 0.000000 1.676630 
# 
# From -- ./inp_files/242827.got.cif
#   From: 2010.05.17/outbox.cif.g08.bks.cpg/sg15_122_cif.got.tgz:242827.got - 2010.06.03 18:47:42.
