data_PCOD9281866
_publ_section_title
;
Structure prediction by ZEFSAII (Michael W. Deem and Ramdas Pophale) SiO2 
 PCOD9281866
Probable space group: C 2/C
;
_chemical_formula_sum "Si O2"
_cell_formula_units_Z 60
_cell_length_a 20.566990
_cell_length_b 5.101430
_cell_length_c 28.484706
_cell_angle_alpha 90.000000
_cell_angle_beta 103.337530
_cell_angle_gamma 90.000000
_cell_volume 2908.035723
_symmetry_space_group_name_H-M "C 2/C"
_symmetry_group_IT_number 15
_symmetry_cell_setting 'monoclinic'
loop_
_space_group_symop_operation_xyz
x,y,z
-x,y,1/2-z
-x,-y,-z
x,-y,1/2+z
1/2+x,1/2+y,z
1/2-x,1/2+y,1/2-z
1/2-x,1/2-y,-z
1/2+x,1/2-y,1/2+z
loop_
_atom_site_type_symbol
_atom_site_label
_atom_site_fract_x
_atom_site_fract_y
_atom_site_fract_z
Si Si1 0.726577 0.504676 0.526527
Si Si2 0.500000 0.011673 0.750000
Si Si3 0.082408 0.252823 0.498874
Si Si4 0.975477 0.256580 0.555946
Si Si5 0.273350 0.323605 0.225666
Si Si6 0.795384 0.565788 0.138210
Si Si7 0.117486 0.833847 0.792236
Si Si8 0.557658 0.299786 0.346064
O O1 0.750000 0.750000 0.500000
O O2 0.649099 0.586694 0.519301
O O3 0.757931 0.492347 0.583807
O O4 0.750000 0.250000 0.500000
O O5 0.566976 0.177508 0.751189
O O6 0.479781 0.839631 0.702402
O O7 0.080096 0.527201 0.469687
O O8 0.043509 0.323832 0.540147
O O9 0.040853 0.039604 0.462389
O O10 0.978999 0.248421 0.611997
O O11 0.235221 0.568398 0.242965
O O12 0.349464 0.424679 0.230043
O O13 0.254315 0.240408 0.169095
O O14 0.821246 0.322898 0.174213
O O15 0.865671 0.701281 0.136174
O O16 0.070705 0.909682 0.828747
#
# Coordination Sequence:
#
# PCOD9281866 Si02
#       8
#     8   4   8   8   8   8   8   8
#     4  12  26  40  67 101 138 174 223 277 332 391
#     4  10  22  40  62 100 130 164 224 282 324 392
#     4  10  22  43  63  98 129 170 218 265 319 402
#     4  10  22  41  71  89 131 173 212 264 336 389
#     4  11  22  42  69  93 127 179 221 266 337 400
#     4  10  23  40  66  97 133 174 226 274 330 408
#     4  10  22  41  66  94 134 167 229 274 329 396
#     4  10  21  38  65  94 128 171 219 273 336 387
#
# _framework density 20.632482
#
# number of rings (size 3 to 8) (size 9 to 14) (size 15 to 20)
#    0.000    1.600    1.333    2.800    9.333    0.000 
#    0.000    6.667    0.000    0.000    0.000    0.000 
#    0.000    0.000    0.000    0.000    0.000    0.000 
#
# Total GULP energy -167159.165419 kJ/mol
# GULP energy per Si atom -5571.972181 kJ/mol
# Density = 2.058552 g / cm^3
# Si number density = 20.632482 Si / 1000 Ang^3
#
#
#
# Elastic Constant Matrix: (Units=GPa)
#
#
# Indices 1 2 3 4 5 6 
#
# 1 74.8476 27.5240 66.5341 0.0000 -6.0270 0.0000
# 2 27.5240 111.9453 31.4417 0.0002 -8.1010 -0.0003
# 3 66.5341 31.4417 118.9468 -0.0002 -14.6006 0.0001
# 4 0.0000 0.0002 -0.0002 12.4343 0.0000 -7.2928
# 5 -6.0270 -8.1010 -14.6006 0.0000 28.1865 0.0000
# 6 0.0000 -0.0003 0.0001 -7.2928 0.0000 42.8995
#
#
#
# Elastic Compliance Matrix: (Units=1/GPa)
#
#
# Indices 1 2 3 4 5 6 
#
# 1 0.027449 -0.002741 -0.014957 0.000000 -0.002666 0.000000
# 2 -0.002741 0.009987 -0.000882 0.000000 0.001827 0.000000
# 3 -0.014957 -0.000882 0.017709 0.000000 0.005721 0.000000
# 4 0.000000 0.000000 0.000000 0.089329 0.000000 0.015186
# 5 -0.002666 0.001827 0.005721 0.000000 0.038397 0.000000
# 6 0.000000 0.000000 0.000000 0.015186 0.000000 0.025892
#
#
# Mechanical properties :
#
#
# Convention : Reuss Voigt Hill
#
# Bulk Modulus (GPa) = 55.60265 61.85993 58.73129
# Shear Modulus (GPa) = 19.84778 28.72007 24.28393
#
# Velocity S-wave (km/s) = 3.10493 3.73498 3.43443
# Velocity P-wave (km/s) = 6.31361 6.97474 6.65239
#
# Compressibility (1/GPa) = 0.01798476
#
# Stress axis : x y z
#
# Youngs Moduli (GPa) = 36.43097 100.13095 56.46898
#
# Poissons Ratio (x) = 0.27446 0.84459
# Poissons Ratio (y) = 0.09986 0.04983
# Poissons Ratio (z) = 0.54489 0.08835
#
# Static dielectric constant tensor:
#      x y z
#    x 1.929630 0.000000 -0.001410 
#    y 0.000000 1.837280 0.000000 
#    z -0.001410 0.000000 1.710280 
# 
# From -- ./inp_files/299967.got.cif
#   From: 2010.05.17/outbox.cif.g08.bks.cpg/sg15_150_cif.got.tgz:299967.got - 2010.06.03 18:47:42.
