data_PCOD9281107
_publ_section_title
;
Structure prediction by ZEFSAII (Michael W. Deem and Ramdas Pophale) SiO2 
 PCOD9281107
Probable space group: C 2/C
;
_chemical_formula_sum "Si O2"
_cell_formula_units_Z 56
_cell_length_a 12.738228
_cell_length_b 6.968435
_cell_length_c 26.323372
_cell_angle_alpha 90.000000
_cell_angle_beta 70.381332
_cell_angle_gamma 90.000000
_cell_volume 2200.963144
_symmetry_space_group_name_H-M "C 2/C"
_symmetry_group_IT_number 15
_symmetry_cell_setting 'monoclinic'
loop_
_space_group_symop_operation_xyz
x,y,z
-x,y,1/2-z
-x,-y,-z
x,-y,1/2+z
1/2+x,1/2+y,z
1/2-x,1/2+y,1/2-z
1/2-x,1/2-y,-z
1/2+x,1/2-y,1/2+z
loop_
_atom_site_type_symbol
_atom_site_label
_atom_site_fract_x
_atom_site_fract_y
_atom_site_fract_z
Si Si1 0.428253 0.470728 0.306736
Si Si2 0.501887 0.068826 0.310173
Si Si3 0.134530 0.694169 0.604723
Si Si4 0.961991 0.090287 0.082064
Si Si5 0.577086 0.264236 0.018085
Si Si6 0.687581 0.842888 0.342570
Si Si7 0.162663 0.432270 0.953142
O O1 0.500000 0.558835 0.250000
O O2 0.396635 0.638741 0.349787
O O3 0.315267 0.366304 0.305619
O O4 0.502664 0.297588 0.316409
O O5 0.500000 0.031859 0.250000
O O6 0.393089 0.996289 0.359624
O O7 0.606113 0.959399 0.318372
O O8 0.041002 0.724473 0.577240
O O9 0.250303 0.758319 0.562166
O O10 0.864886 0.130954 0.138819
O O11 0.908885 0.107896 0.034995
O O12 0.049978 0.914287 0.067132
O O13 0.458115 0.159262 0.033186
O O14 0.665152 0.089744 0.998491
O O15 0.683873 0.945061 0.398461
#
# Coordination Sequence:
#
# PCOD9281107 Si02
#       7
#     8   8   8   8   8   8   8
#     4  10  22  42  60  89 120 155 203 251 303 368
#     4  10  22  42  60  89 120 155 203 251 303 368
#     4  10  21  38  58  86 116 152 200 246 297 370
#     4   9  19  34  56  82 114 154 192 243 299 355
#     4   9  18  34  53  82 114 150 197 238 300 361
#     4   9  20  40  59  86 120 152 203 248 294 371
#     4   9  19  34  56  82 114 154 192 243 299 355
#
# _framework density 25.443407000000001
#
# number of rings (size 3 to 8) (size 9 to 14) (size 15 to 20)
#    0.000    2.571    0.000    0.429    4.000    1.143 
#   20.571    0.000    0.000    0.000    0.000    0.000 
#    0.000    0.000    0.000    0.000    0.000    0.000 
#
# Total GULP energy -156328.246314 kJ/mol
# GULP energy per Si atom -5583.151654 kJ/mol
# Density = 2.538550 g / cm^3
# Si number density = 25.443407 Si / 1000 Ang^3
#
#
#
# Elastic Constant Matrix: (Units=GPa)
#
#
# Indices 1 2 3 4 5 6 
#
# 1 66.4350 -1.8454 24.4606 0.0000 -15.7174 0.0000
# 2 -1.8454 85.5308 19.5716 0.0000 -2.4413 0.0000
# 3 24.4606 19.5716 87.2978 0.0000 -8.5475 0.0000
# 4 0.0000 0.0000 0.0000 43.2564 0.0000 -2.1125
# 5 -15.7174 -2.4413 -8.5475 0.0000 34.3411 0.0000
# 6 0.0000 0.0000 0.0000 -2.1125 0.0000 35.6986
#
#
#
# Elastic Compliance Matrix: (Units=1/GPa)
#
#
# Indices 1 2 3 4 5 6 
#
# 1 0.018662 0.001734 -0.004889 0.000000 0.007448 0.000000
# 2 0.001734 0.012486 -0.003199 0.000000 0.000885 0.000000
# 3 -0.004889 -0.003199 0.013633 0.000000 0.000928 0.000000
# 4 0.000000 0.000000 0.000000 0.023185 0.000000 0.001372
# 5 0.007448 0.000885 0.000928 0.000000 0.032822 0.000000
# 6 0.000000 0.000000 0.000000 0.001372 0.000000 0.028093
#
#
# Mechanical properties :
#
#
# Convention : Reuss Voigt Hill
#
# Bulk Modulus (GPa) = 31.17690 35.95970 33.56830
# Shear Modulus (GPa) = 32.83411 35.79767 34.31589
#
# Velocity S-wave (km/s) = 3.59622 3.75501 3.67647
# Velocity P-wave (km/s) = 5.43357 5.74143 5.58962
#
# Compressibility (1/GPa) = 0.03207503
#
# Stress axis : x y z
#
# Youngs Moduli (GPa) = 53.58349 80.08796 73.35251
#
# Poissons Ratio (x) = -0.13886 0.35859
# Poissons Ratio (y) = -0.09291 0.23462
# Poissons Ratio (z) = 0.26195 0.25616
#
# Static dielectric constant tensor:
#      x y z
#    x 2.092260 0.000000 -0.029810 
#    y 0.000000 2.052930 0.000000 
#    z -0.029810 0.000000 2.066420 
# 
# From -- ./inp_files/295075.got.cif
#   From: 2010.05.17/outbox.cif.g08.bks.cpg/sg15_148_cif.got.tgz:295075.got - 2010.06.03 18:47:42.
