data_PCOD9281265
_publ_section_title
;
Structure prediction by ZEFSAII (Michael W. Deem and Ramdas Pophale) SiO2 
 PCOD9281265
Probable space group: C 2/C
;
_chemical_formula_sum "Si O2"
_cell_formula_units_Z 64
_cell_length_a 26.947888
_cell_length_b 11.309430
_cell_length_c 21.259582
_cell_angle_alpha 90.000000
_cell_angle_beta 148.833227
_cell_angle_gamma 90.000000
_cell_volume 3353.176697
_symmetry_space_group_name_H-M "C 2/C"
_symmetry_group_IT_number 15
_symmetry_cell_setting 'monoclinic'
loop_
_space_group_symop_operation_xyz
x,y,z
-x,y,1/2-z
-x,-y,-z
x,-y,1/2+z
1/2+x,1/2+y,z
1/2-x,1/2+y,1/2-z
1/2-x,1/2-y,-z
1/2+x,1/2-y,1/2+z
loop_
_atom_site_type_symbol
_atom_site_label
_atom_site_fract_x
_atom_site_fract_y
_atom_site_fract_z
Si Si1 0.663821 0.685449 0.743677
Si Si2 0.399426 0.410572 0.672586
Si Si3 0.365094 0.769630 0.929156
Si Si4 0.680595 0.418382 0.719592
Si Si5 0.738867 0.410660 0.089846
Si Si6 0.670799 0.641337 0.066304
Si Si7 0.034465 0.171782 0.720160
Si Si8 0.919003 0.736960 0.808255
O O1 0.629461 0.738704 0.639254
O O2 0.659159 0.543746 0.728425
O O3 0.771961 0.735655 0.868015
O O4 0.603728 0.722901 0.740534
O O5 0.500000 0.375288 0.750000
O O6 0.311492 0.383846 0.531156
O O7 0.413230 0.549343 0.702645
O O8 0.394002 0.333606 0.728555
O O9 0.287600 0.874092 0.852487
O O10 0.322636 0.660853 0.924133
O O11 0.470550 0.796780 0.068787
O O12 0.671755 0.420976 0.635208
O O13 0.610330 0.310824 0.661977
O O14 0.729242 0.550170 0.087096
O O15 0.846956 0.369484 0.217241
O O16 0.564652 0.647887 0.923905
O O17 0.000000 0.228619 0.750000
#
# Coordination Sequence:
#
# PCOD9281265 Si02
#       8
#     8   8   8   8   8   8   8   8
#     4  11  23  39  62  86 119 160 197 244 293 347
#     4  11  19  35  60  86 113 149 199 246 284 345
#     4  10  21  38  60  89 120 152 192 246 295 356
#     4  10  22  37  60  90 116 153 197 237 296 354
#     4  11  21  37  59  89 119 151 194 244 298 347
#     4  11  22  40  59  88 120 149 198 248 291 347
#     4  11  22  39  62  84 112 156 207 242 281 347
#     4  11  21  36  61  86 120 155 188 242 301 351
#
# _framework density 19.086379000000001
#
# number of rings (size 3 to 8) (size 9 to 14) (size 15 to 20)
#    0.000    1.250    6.250    1.125    0.000    1.500 
#    2.250    1.250    0.000    0.750    0.000    0.000 
#    0.000    0.000    0.000    0.000    0.000    0.000 
#
# Total GULP energy -178378.979852 kJ/mol
# GULP energy per Si atom -5574.343120 kJ/mol
# Density = 1.904294 g / cm^3
# Si number density = 19.086379 Si / 1000 Ang^3
#
#
#
# Elastic Constant Matrix: (Units=GPa)
#
#
# Indices 1 2 3 4 5 6 
#
# 1 61.3759 -10.5258 16.5237 0.0000 -8.3833 0.0000
# 2 -10.5258 12.6760 6.7556 0.0000 -1.0652 0.0000
# 3 16.5237 6.7556 75.4512 0.0000 -13.5132 0.0000
# 4 0.0000 0.0000 0.0000 10.9045 0.0000 -1.3533
# 5 -8.3833 -1.0652 -13.5132 0.0000 16.7049 0.0000
# 6 0.0000 0.0000 0.0000 -1.3533 0.0000 14.9869
#
#
#
# Elastic Compliance Matrix: (Units=1/GPa)
#
#
# Indices 1 2 3 4 5 6 
#
# 1 0.022797 0.022572 -0.005504 0.000000 0.008427 0.000000
# 2 0.022572 0.105201 -0.013018 0.000000 0.007505 0.000000
# 3 -0.005504 -0.013018 0.017519 0.000000 0.010580 0.000000
# 4 0.000000 0.000000 0.000000 0.092745 0.000000 0.008375
# 5 0.008427 0.007505 0.010580 0.000000 0.073129 0.000000
# 6 0.000000 0.000000 0.000000 0.008375 0.000000 0.067481
#
#
# Mechanical properties :
#
#
# Convention : Reuss Voigt Hill
#
# Bulk Modulus (GPa) = 6.50977 19.44557 12.97767
# Shear Modulus (GPa) = 11.84895 17.63590 14.74243
#
# Velocity S-wave (km/s) = 2.49430 3.04304 2.78223
# Velocity P-wave (km/s) = 3.42250 4.74943 4.13948
#
# Compressibility (1/GPa) = 0.15361522
#
# Stress axis : x y z
#
# Youngs Moduli (GPa) = 43.86554 9.50566 57.07959
#
# Poissons Ratio (x) = -0.21456 0.31417
# Poissons Ratio (y) = -0.99011 0.74307
# Poissons Ratio (z) = 0.24144 0.12375
#
# Static dielectric constant tensor:
#      x y z
#    x 1.918510 0.000000 -0.060620 
#    y 0.000000 1.653850 0.000000 
#    z -0.060620 0.000000 1.658140 
# 
# From -- ./inp_files/257535.got.cif
#   From: 2010.05.17/outbox.cif.g08.bks.cpg/sg15_129_cif.got.tgz:257535.got - 2010.06.03 18:47:42.
