data_PCOD9281566
_publ_section_title
;
Structure prediction by ZEFSAII (Michael W. Deem and Ramdas Pophale) SiO2 
 PCOD9281566
Probable space group: C 2/C
;
_chemical_formula_sum "Si O2"
_cell_formula_units_Z 56
_cell_length_a 10.906723
_cell_length_b 26.407872
_cell_length_c 13.815995
_cell_angle_alpha 90.000000
_cell_angle_beta 46.122799
_cell_angle_gamma 90.000000
_cell_volume 2868.407739
_symmetry_space_group_name_H-M "C 2/C"
_symmetry_group_IT_number 15
_symmetry_cell_setting 'monoclinic'
loop_
_space_group_symop_operation_xyz
x,y,z
-x,y,1/2-z
-x,-y,-z
x,-y,1/2+z
1/2+x,1/2+y,z
1/2-x,1/2+y,1/2-z
1/2-x,1/2-y,-z
1/2+x,1/2-y,1/2+z
loop_
_atom_site_type_symbol
_atom_site_label
_atom_site_fract_x
_atom_site_fract_y
_atom_site_fract_z
Si Si1 0.762202 0.967765 0.311231
Si Si2 0.529955 0.587482 0.959225
Si Si3 0.650342 0.444837 0.597904
Si Si4 0.459000 0.891431 0.521057
Si Si5 0.794770 0.196292 0.596017
Si Si6 0.502101 0.211279 0.595878
Si Si7 0.335675 0.939081 0.775695
O O1 0.901446 0.935152 0.178222
O O2 0.611408 0.930614 0.422432
O O3 0.812903 0.000113 0.377539
O O4 0.706684 0.010761 0.263891
O O5 0.612911 0.643037 0.931306
O O6 0.596195 0.555533 0.016591
O O7 0.327281 0.581419 0.077389
O O8 0.500000 0.424125 0.750000
O O9 0.813969 0.410515 0.526207
O O10 0.512951 0.834854 0.469757
O O11 0.383328 0.897863 0.668695
O O12 0.654749 0.194846 0.586079
O O13 0.675325 0.214828 0.749666
O O14 0.934843 0.237233 0.487633
O O15 0.500000 0.949342 0.750000
#
# Coordination Sequence:
#
# PCOD9281566 Si02
#       7
#     8   8   8   8   8   8   8
#     4  11  25  37  61  91 128 171 217 249 310 378
#     4  12  23  41  65  91 130 172 208 266 319 372
#     4  11  22  37  60  91 128 168 212 252 312 374
#     4  11  22  40  60  91 128 168 204 261 312 376
#     4  10  22  37  63  97 127 161 202 259 321 381
#     4  10  21  38  62  97 128 158 202 262 320 378
#     4  11  26  40  60  89 126 173 211 255 310 382
#
# _framework density 19.523025000000001
#
# number of rings (size 3 to 8) (size 9 to 14) (size 15 to 20)
#    0.000    1.143    5.714    2.143    6.000    0.000 
#    0.000    0.000    0.000    0.857    0.000    0.000 
#    0.000    0.000    0.000    0.000    0.000    0.000 
#
# Total GULP energy -156450.778488 kJ/mol
# GULP energy per Si atom -5587.527803 kJ/mol
# Density = 1.947859 g / cm^3
# Si number density = 19.523025 Si / 1000 Ang^3
#
#
#
# Elastic Constant Matrix: (Units=GPa)
#
#
# Indices 1 2 3 4 5 6 
#
# 1 46.3452 35.0402 22.7415 0.0000 -18.8471 0.0000
# 2 35.0402 125.1102 61.5566 0.0000 -2.5166 0.0000
# 3 22.7415 61.5566 143.8587 0.0000 -18.4920 0.0000
# 4 0.0000 0.0000 0.0000 29.2781 0.0000 7.1441
# 5 -18.8471 -2.5166 -18.4920 0.0000 24.5065 0.0000
# 6 0.0000 0.0000 0.0000 7.1441 0.0000 17.6839
#
#
#
# Elastic Compliance Matrix: (Units=1/GPa)
#
#
# Indices 1 2 3 4 5 6 
#
# 1 0.044351 -0.013285 0.003192 0.000000 0.035153 0.000000
# 2 -0.013285 0.014241 -0.005669 0.000000 -0.013032 0.000000
# 3 0.003192 -0.005669 0.010092 0.000000 0.009488 0.000000
# 4 0.000000 0.000000 0.000000 0.037890 0.000000 -0.015307
# 5 0.035153 -0.013032 0.009488 0.000000 0.073661 0.000000
# 6 0.000000 0.000000 0.000000 -0.015307 0.000000 0.062733
#
#
# Mechanical properties :
#
#
# Convention : Reuss Voigt Hill
#
# Bulk Modulus (GPa) = 26.91034 61.55454 44.23244
# Shear Modulus (GPa) = 17.42906 27.35875 22.39391
#
# Velocity S-wave (km/s) = 2.99112 3.74753 3.39049
# Velocity P-wave (km/s) = 5.07375 7.09387 6.16709
#
# Compressibility (1/GPa) = 0.03716044
#
# Stress axis : x y z
#
# Youngs Moduli (GPa) = 22.54752 70.22144 99.09040
#
# Poissons Ratio (x) = 0.93290 -0.31632
# Poissons Ratio (y) = 0.29955 0.56170
# Poissons Ratio (z) = -0.07198 0.39805
#
# Static dielectric constant tensor:
#      x y z
#    x 1.715150 0.000000 -0.027820 
#    y 0.000000 1.659290 0.000000 
#    z -0.027820 0.000000 1.714490 
# 
# From -- ./inp_files/148539.got.cif
#   From: 2010.05.17/outbox.cif.g08.bks.cpg/sg15_75_cif.got.tgz:148539.got - 2010.06.03 18:47:42.
