data_PCOD9281159
_publ_section_title
;
Structure prediction by ZEFSAII (Michael W. Deem and Ramdas Pophale) SiO2 
 PCOD9281159
Probable space group: C 2/C
;
_chemical_formula_sum "Si O2"
_cell_formula_units_Z 48
_cell_length_a 15.983599
_cell_length_b 12.953623
_cell_length_c 12.960174
_cell_angle_alpha 90.000000
_cell_angle_beta 70.761644
_cell_angle_gamma 90.000000
_cell_volume 2533.497147
_symmetry_space_group_name_H-M "C 2/C"
_symmetry_group_IT_number 15
_symmetry_cell_setting 'monoclinic'
loop_
_space_group_symop_operation_xyz
x,y,z
-x,y,1/2-z
-x,-y,-z
x,-y,1/2+z
1/2+x,1/2+y,z
1/2-x,1/2+y,1/2-z
1/2-x,1/2-y,-z
1/2+x,1/2-y,1/2+z
loop_
_atom_site_type_symbol
_atom_site_label
_atom_site_fract_x
_atom_site_fract_y
_atom_site_fract_z
Si Si1 0.322821 0.174136 0.327273
Si Si2 0.131373 0.859840 0.322458
Si Si3 0.477935 0.677863 0.428797
Si Si4 0.500000 0.497324 0.750000
Si Si5 0.856477 0.701161 0.543526
Si Si6 0.674090 0.051264 0.767423
Si Si7 0.500000 0.156108 0.750000
O O1 0.371739 0.248523 0.228512
O O2 0.230776 0.230948 0.395374
O O3 0.370517 0.172792 0.418654
O O4 0.311780 0.065972 0.273794
O O5 0.085171 0.851765 0.451620
O O6 0.233205 0.893096 0.297430
O O7 0.081055 0.933739 0.260450
O O8 0.482255 0.577408 0.354314
O O9 0.566557 0.724339 0.445160
O O10 0.459192 0.770013 0.355562
O O11 0.843661 0.592514 0.608976
O O12 0.583738 0.089833 0.751165
#
# Coordination Sequence:
#
# PCOD9281159 Si02
#       7
#     8   8   8   4   8   8   4
#     4  10  21  38  59  84 119 154 194 239 282 342
#     4  11  23  36  60  91 113 149 199 236 285 347
#     4  10  21  39  60  84 118 149 191 244 286 340
#     4  11  22  37  60  88 120 151 184 239 300 342
#     4   9  20  39  59  83 118 156 189 237 294 336
#     4  10  22  39  59  84 115 155 195 234 287 343
#     4   9  22  41  58  82 118 159 192 233 292 340
#
# _framework density 18.946142999999999
#
# number of rings (size 3 to 8) (size 9 to 14) (size 15 to 20)
#    0.000    2.000    0.000    2.500    0.000    9.333 
#    0.000    3.333    0.000    0.000    0.000    0.000 
#    0.000    0.000    0.000    0.000    0.000    0.000 
#
# Total GULP energy -133617.722383 kJ/mol
# GULP energy per Si atom -5567.405099 kJ/mol
# Density = 1.890302 g / cm^3
# Si number density = 18.946143 Si / 1000 Ang^3
#
#
#
# Elastic Constant Matrix: (Units=GPa)
#
#
# Indices 1 2 3 4 5 6 
#
# 1 53.3391 20.5669 48.4034 0.0000 5.5369 0.0000
# 2 20.5669 104.8076 55.4785 0.0000 14.4098 0.0000
# 3 48.4034 55.4785 125.8617 0.0000 11.0967 0.0000
# 4 0.0000 0.0000 0.0000 6.4993 0.0000 6.7123
# 5 5.5369 14.4098 11.0967 0.0000 20.3479 0.0000
# 6 0.0000 0.0000 0.0000 6.7123 0.0000 17.1505
#
#
#
# Elastic Compliance Matrix: (Units=1/GPa)
#
#
# Indices 1 2 3 4 5 6 
#
# 1 0.028889 0.000532 -0.011154 0.000000 -0.002154 0.000000
# 2 0.000532 0.013224 -0.005457 0.000000 -0.006533 0.000000
# 3 -0.011154 -0.005457 0.014741 0.000000 -0.001139 0.000000
# 4 0.000000 0.000000 0.000000 0.258247 0.000000 -0.101071
# 5 -0.002154 -0.006533 -0.001139 0.000000 0.054979 0.000000
# 6 0.000000 0.000000 0.000000 -0.101071 0.000000 0.097864
#
#
# Mechanical properties :
#
#
# Convention : Reuss Voigt Hill
#
# Bulk Modulus (GPa) = 40.49660 59.21177 49.85418
# Shear Modulus (GPa) = 9.83603 19.43686 14.63645
#
# Velocity S-wave (km/s) = 2.28097 3.20644 2.78246
# Velocity P-wave (km/s) = 5.32523 6.71036 6.05752
#
# Compressibility (1/GPa) = 0.02469343
#
# Stress axis : x y z
#
# Youngs Moduli (GPa) = 34.61553 75.61983 67.83842
#
# Poissons Ratio (x) = -0.04020 0.75669
# Poissons Ratio (y) = -0.01840 0.37022
# Poissons Ratio (z) = 0.38611 0.41269
#
# Static dielectric constant tensor:
#      x y z
#    x 1.725420 0.000000 -0.030080 
#    y 0.000000 1.657900 0.000000 
#    z -0.030080 0.000000 1.706840 
# 
# From -- ./inp_files/104209.got.cif
#   From: 2010.05.17/outbox.cif.g08.bks.cpg/sg15_53_cif.got.tgz:104209.got - 2010.06.03 18:47:42.
