data_PCOD9281979
_publ_section_title
;
Structure prediction by ZEFSAII (Michael W. Deem and Ramdas Pophale) SiO2 
 PCOD9281979
Probable space group: C 2/C
;
_chemical_formula_sum "Si O2"
_cell_formula_units_Z 60
_cell_length_a 16.468911
_cell_length_b 8.941758
_cell_length_c 20.538022
_cell_angle_alpha 90.000000
_cell_angle_beta 63.091917
_cell_angle_gamma 90.000000
_cell_volume 2697.003970
_symmetry_space_group_name_H-M "C 2/C"
_symmetry_group_IT_number 15
_symmetry_cell_setting 'monoclinic'
loop_
_space_group_symop_operation_xyz
x,y,z
-x,y,1/2-z
-x,-y,-z
x,-y,1/2+z
1/2+x,1/2+y,z
1/2-x,1/2+y,1/2-z
1/2-x,1/2-y,-z
1/2+x,1/2-y,1/2+z
loop_
_atom_site_type_symbol
_atom_site_label
_atom_site_fract_x
_atom_site_fract_y
_atom_site_fract_z
Si Si1 0.000000 0.299262 0.250000
Si Si2 0.284397 0.598178 0.591758
Si Si3 0.791425 0.552402 0.653633
Si Si4 0.684976 0.275046 0.741339
Si Si5 0.600371 0.985591 0.103983
Si Si6 0.924371 0.114081 0.004537
Si Si7 0.929601 0.645081 0.023456
Si Si8 0.174119 0.192731 0.579240
O O1 0.084115 0.207521 0.248474
O O2 0.038322 0.404339 0.179150
O O3 0.239848 0.661551 0.673521
O O4 0.201867 0.582164 0.571943
O O5 0.335659 0.438533 0.577305
O O6 0.357843 0.718803 0.542067
O O7 0.736722 0.431581 0.717005
O O8 0.818247 0.691953 0.688670
O O9 0.877760 0.461661 0.593818
O O10 0.725870 0.608530 0.618426
O O11 0.615979 0.159031 0.117107
O O12 0.565145 0.944424 0.045658
O O13 0.893188 0.094101 0.941026
O O14 0.974439 0.273179 0.994716
O O15 0.000000 0.000000 0.000000
O O16 0.250000 0.250000 0.500000
#
# Coordination Sequence:
#
# PCOD9281979 Si02
#       8
#     4   8   8   8   8   8   8   8
#     4  10  26  44  66 102 140 176 232 284 360 402
#     4   9  19  40  64  96 135 183 225 273 348 415
#     4  11  25  46  69 100 139 188 239 275 353 422
#     4  10  25  45  71  97 137 189 232 288 343 420
#     4  11  22  41  66  98 136 177 223 285 348 410
#     4  10  22  39  65 103 137 175 223 288 348 397
#     4  10  21  38  67 101 136 173 230 287 335 410
#     4  12  24  42  69  99 137 181 231 285 348 417
#
# _framework density 22.246908999999999
#
# number of rings (size 3 to 8) (size 9 to 14) (size 15 to 20)
#    0.000    1.600    2.667    0.400    5.600    8.000 
#    0.000    3.333    0.000    0.000    0.000    0.000 
#    0.000    0.000    0.000    0.000    0.000    0.000 
#
# Total GULP energy -167577.017996 kJ/mol
# GULP energy per Si atom -5585.900600 kJ/mol
# Density = 2.219627 g / cm^3
# Si number density = 22.246909 Si / 1000 Ang^3
#
#
#
# Elastic Constant Matrix: (Units=GPa)
#
#
# Indices 1 2 3 4 5 6 
#
# 1 127.9318 51.0285 39.4114 0.0000 4.4384 0.0000
# 2 51.0285 109.1003 44.3315 0.0000 8.2993 0.0000
# 3 39.4114 44.3315 49.8674 0.0000 4.5150 0.0000
# 4 0.0000 0.0000 0.0000 42.5226 0.0000 -2.4393
# 5 4.4384 8.2993 4.5150 0.0000 37.9853 0.0000
# 6 0.0000 0.0000 0.0000 -2.4393 0.0000 39.2526
#
#
#
# Elastic Compliance Matrix: (Units=1/GPa)
#
#
# Indices 1 2 3 4 5 6 
#
# 1 0.010740 -0.002466 -0.006298 0.000000 0.000033 0.000000
# 2 -0.002466 0.015017 -0.011251 0.000000 -0.001656 0.000000
# 3 -0.006298 -0.011251 0.035121 0.000000 -0.000981 0.000000
# 4 0.000000 0.000000 0.000000 0.023601 0.000000 0.001467
# 5 0.000033 -0.001656 -0.000981 0.000000 0.026800 0.000000
# 6 0.000000 0.000000 0.000000 0.001467 0.000000 0.025567
#
#
# Mechanical properties :
#
#
# Convention : Reuss Voigt Hill
#
# Bulk Modulus (GPa) = 47.96781 61.82693 54.89737
# Shear Modulus (GPa) = 27.19963 34.09395 30.64679
#
# Velocity S-wave (km/s) = 3.50040 3.91900 3.71560
# Velocity P-wave (km/s) = 6.15999 6.95195 6.56792
#
# Compressibility (1/GPa) = 0.02084731
#
# Stress axis : x y z
#
# Youngs Moduli (GPa) = 93.11380 66.59103 28.47285
#
# Poissons Ratio (x) = 0.16425 0.17932
# Poissons Ratio (y) = 0.22966 0.32034
# Poissons Ratio (z) = 0.58643 0.74920
#
# Static dielectric constant tensor:
#      x y z
#    x 1.848780 0.000000 0.002950 
#    y 0.000000 1.846010 0.000000 
#    z 0.002950 0.000000 1.801650 
# 
# From -- ./inp_files/247403.got.cif
#   From: 2010.05.17/outbox.cif.g08.bks.cpg/sg15_124_cif.got.tgz:247403.got - 2010.06.03 18:47:42.
