data_PCOD9281175
_publ_section_title
;
Structure prediction by ZEFSAII (Michael W. Deem and Ramdas Pophale) SiO2 
 PCOD9281175
Probable space group: C 2/C
;
_chemical_formula_sum "Si O2"
_cell_formula_units_Z 40
_cell_length_a 8.250369
_cell_length_b 27.277335
_cell_length_c 8.497805
_cell_angle_alpha 90.000000
_cell_angle_beta 99.113251
_cell_angle_gamma 90.000000
_cell_volume 1888.274668
_symmetry_space_group_name_H-M "C 2/C"
_symmetry_group_IT_number 15
_symmetry_cell_setting 'monoclinic'
loop_
_space_group_symop_operation_xyz
x,y,z
-x,y,1/2-z
-x,-y,-z
x,-y,1/2+z
1/2+x,1/2+y,z
1/2-x,1/2+y,1/2-z
1/2-x,1/2-y,-z
1/2+x,1/2-y,1/2+z
loop_
_atom_site_type_symbol
_atom_site_label
_atom_site_fract_x
_atom_site_fract_y
_atom_site_fract_z
Si Si1 0.576858 0.722666 0.435853
Si Si2 0.562265 0.813096 0.935041
Si Si3 0.725967 0.129079 0.940151
Si Si4 0.469143 0.554346 0.058864
Si Si5 0.650400 0.635139 0.876426
O O1 0.500000 0.726444 0.250000
O O2 0.750000 0.750000 0.500000
O O3 0.457763 0.756471 0.521447
O O4 0.629648 0.666816 0.477199
O O5 0.500000 0.819433 0.750000
O O6 0.438525 0.846617 0.019724
O O7 0.746385 0.831412 0.990477
O O8 0.785686 0.076249 0.008612
O O9 0.728862 0.124784 0.752183
O O10 0.500000 0.557396 0.250000
O O11 0.500000 0.500000 0.000000
O O12 0.582612 0.588854 0.963228
O O13 0.500000 0.657157 0.750000
#
# Coordination Sequence:
#
# PCOD9281175 Si02
#       5
#     8   8   8   8   8
#     4  10  21  38  59  86 121 164 205 249 302 363
#     4  11  22  38  61  93 129 166 206 258 310 367
#     4  10  21  40  62  88 123 166 209 255 308 370
#     4  11  22  40  63  91 124 162 205 253 309 375
#     4  10  22  40  63  90 121 162 206 253 309 365
#
# _framework density 21.183357999999998
#
# number of rings (size 3 to 8) (size 9 to 14) (size 15 to 20)
#    0.000    1.600    0.000    6.600    0.000    7.200 
#    0.000   10.000    0.000    2.400    0.000    0.000 
#    0.000    0.000    0.000    0.000    0.000    0.000 
#
# Total GULP energy -111517.618859 kJ/mol
# GULP energy per Si atom -5575.880943 kJ/mol
# Density = 2.113514 g / cm^3
# Si number density = 21.183358 Si / 1000 Ang^3
#
#
#
# Elastic Constant Matrix: (Units=GPa)
#
#
# Indices 1 2 3 4 5 6 
#
# 1 97.2746 57.8159 43.6188 0.0000 13.7991 0.0000
# 2 57.8159 128.2541 29.2465 0.0000 14.9143 0.0000
# 3 43.6188 29.2465 172.4287 0.0000 16.9891 0.0000
# 4 0.0000 0.0000 0.0000 32.6795 0.0000 -11.1554
# 5 13.7991 14.9143 16.9891 0.0000 47.9998 0.0000
# 6 0.0000 0.0000 0.0000 -11.1554 0.0000 34.9515
#
#
#
# Elastic Compliance Matrix: (Units=1/GPa)
#
#
# Indices 1 2 3 4 5 6 
#
# 1 0.015347 -0.006124 -0.002690 0.000000 -0.001557 0.000000
# 2 -0.006124 0.010765 -0.000125 0.000000 -0.001540 0.000000
# 3 -0.002690 -0.000125 0.006653 0.000000 -0.001543 0.000000
# 4 0.000000 0.000000 0.000000 0.034342 0.000000 0.010961
# 5 -0.001557 -0.001540 -0.001543 0.000000 0.022306 0.000000
# 6 0.000000 0.000000 0.000000 0.010961 0.000000 0.032109
#
#
# Mechanical properties :
#
#
# Convention : Reuss Voigt Hill
#
# Bulk Modulus (GPa) = 67.17104 73.25777 70.21441
# Shear Modulus (GPa) = 34.63492 40.94457 37.78974
#
# Velocity S-wave (km/s) = 4.04791 4.40121 4.22825
# Velocity P-wave (km/s) = 7.32295 7.77723 7.55350
#
# Compressibility (1/GPa) = 0.01488737
#
# Stress axis : x y z
#
# Youngs Moduli (GPa) = 65.15887 92.89183 150.30283
#
# Poissons Ratio (x) = 0.56885 0.40435
# Poissons Ratio (y) = 0.39902 0.01880
# Poissons Ratio (z) = 0.17529 0.01162
#
# Static dielectric constant tensor:
#      x y z
#    x 1.909140 0.000000 -0.040860 
#    y 0.000000 1.752540 0.000000 
#    z -0.040860 0.000000 1.765240 
# 
# From -- ./inp_files/24575.got.cif
#   From: 2010.05.17/outbox.cif.g08.bks.cpg/sg15_13_cif.got.tgz:24575.got - 2010.06.03 18:47:42.
