data_PCOD9281362
_publ_section_title
;
Structure prediction by ZEFSAII (Michael W. Deem and Ramdas Pophale) SiO2 
 PCOD9281362
Probable space group: C 2/C
;
_chemical_formula_sum "Si O2"
_cell_formula_units_Z 56
_cell_length_a 8.134230
_cell_length_b 14.211139
_cell_length_c 24.615485
_cell_angle_alpha 90.000000
_cell_angle_beta 107.036917
_cell_angle_gamma 90.000000
_cell_volume 2720.598149
_symmetry_space_group_name_H-M "C 2/C"
_symmetry_group_IT_number 15
_symmetry_cell_setting 'monoclinic'
loop_
_space_group_symop_operation_xyz
x,y,z
-x,y,1/2-z
-x,-y,-z
x,-y,1/2+z
1/2+x,1/2+y,z
1/2-x,1/2+y,1/2-z
1/2-x,1/2-y,-z
1/2+x,1/2-y,1/2+z
loop_
_atom_site_type_symbol
_atom_site_label
_atom_site_fract_x
_atom_site_fract_y
_atom_site_fract_z
Si Si1 0.721875 0.383834 0.889865
Si Si2 0.266735 0.315363 0.126244
Si Si3 0.865462 0.510421 0.689311
Si Si4 0.619214 0.120774 0.411143
Si Si5 0.516028 0.779710 0.314015
Si Si6 0.308986 0.961734 0.473296
Si Si7 0.989982 0.032636 0.686693
O O1 0.610146 0.293322 0.863430
O O2 0.696263 0.449554 0.941157
O O3 0.665550 0.460345 0.839092
O O4 0.922306 0.357424 0.909108
O O5 0.296596 0.212502 0.106229
O O6 0.160512 0.307708 0.172120
O O7 0.181098 0.382397 0.072520
O O8 0.445321 0.370037 0.153016
O O9 0.900600 0.458252 0.636679
O O10 0.669219 0.488368 0.685780
O O11 0.000000 0.483584 0.750000
O O12 0.882996 0.622369 0.683177
O O13 0.731316 0.084454 0.472808
O O14 0.500000 0.742150 0.250000
O O15 0.500000 0.000000 0.500000
O O16 0.000000 0.054327 0.750000
#
# Coordination Sequence:
#
# PCOD9281362 Si02
#       7
#     8   8   8   8   8   8   8
#     4  10  21  38  61  88 117 157 199 246 299 353
#     4  11  23  39  62  90 121 160 202 249 303 358
#     4  11  23  39  61  90 122 160 200 248 304 364
#     4  11  22  40  61  88 122 160 202 249 301 361
#     4  11  22  39  59  88 123 158 200 250 302 362
#     4   9  20  41  63  86 120 160 202 252 301 355
#     4  11  21  38  59  86 120 157 198 248 304 365
#
# _framework density 20.583707
#
# number of rings (size 3 to 8) (size 9 to 14) (size 15 to 20)
#    0.000    1.429    0.000    7.714    0.000    1.714 
#    0.000   14.286    0.000    0.000    0.000    0.000 
#    0.000    0.000    0.000    0.000    0.000    0.000 
#
# Total GULP energy -156180.967947 kJ/mol
# GULP energy per Si atom -5577.891712 kJ/mol
# Density = 2.053686 g / cm^3
# Si number density = 20.583707 Si / 1000 Ang^3
#
#
#
# Elastic Constant Matrix: (Units=GPa)
#
#
# Indices 1 2 3 4 5 6 
#
# 1 62.0005 -4.7756 18.7743 0.0000 0.5843 0.0000
# 2 -4.7756 55.7897 24.3509 0.0000 9.8644 0.0000
# 3 18.7743 24.3509 106.8554 0.0000 10.1655 0.0000
# 4 0.0000 0.0000 0.0000 35.1642 0.0000 25.0488
# 5 0.5843 9.8644 10.1655 0.0000 23.9448 0.0000
# 6 0.0000 0.0000 0.0000 25.0488 0.0000 117.5918
#
#
#
# Elastic Compliance Matrix: (Units=1/GPa)
#
#
# Indices 1 2 3 4 5 6 
#
# 1 0.017523 0.003177 -0.003791 0.000000 -0.000127 0.000000
# 2 0.003177 0.021514 -0.004804 0.000000 -0.006901 0.000000
# 3 -0.003791 -0.004804 0.011382 0.000000 -0.002760 0.000000
# 4 0.000000 0.000000 0.000000 0.033525 0.000000 -0.007141
# 5 -0.000127 -0.006901 -0.002760 0.000000 0.045781 0.000000
# 6 0.000000 0.000000 0.000000 -0.007141 0.000000 0.010025
#
#
# Mechanical properties :
#
#
# Convention : Reuss Voigt Hill
#
# Bulk Modulus (GPa) = 25.26399 33.48277 29.37338
# Shear Modulus (GPa) = 30.52895 47.75988 39.14442
#
# Velocity S-wave (km/s) = 3.85536 4.82215 4.36560
# Velocity P-wave (km/s) = 5.66735 6.87794 6.30178
#
# Compressibility (1/GPa) = 0.03958203
#
# Stress axis : x y z
#
# Youngs Moduli (GPa) = 57.06909 46.48234 87.85894
#
# Poissons Ratio (x) = -0.14767 0.33304
# Poissons Ratio (y) = -0.18130 0.42210
# Poissons Ratio (z) = 0.21632 0.22332
#
# Static dielectric constant tensor:
#      x y z
#    x 1.754510 0.000000 0.029480 
#    y 0.000000 1.723850 0.000000 
#    z 0.029480 0.000000 1.915230 
# 
# From -- ./inp_files/264404.got.cif
#   From: 2010.05.17/outbox.cif.g08.bks.cpg/sg15_133_cif.got.tgz:264404.got - 2010.06.03 18:47:42.
