data_PCOD9281458
_publ_section_title
;
Structure prediction by ZEFSAII (Michael W. Deem and Ramdas Pophale) SiO2 
 PCOD9281458
Probable space group: C 2/C
;
_chemical_formula_sum "Si O2"
_cell_formula_units_Z 28
_cell_length_a 10.073825
_cell_length_b 24.726992
_cell_length_c 4.900182
_cell_angle_alpha 90.000000
_cell_angle_beta 78.730669
_cell_angle_gamma 90.000000
_cell_volume 1197.078605
_symmetry_space_group_name_H-M "C 2/C"
_symmetry_group_IT_number 15
_symmetry_cell_setting 'monoclinic'
loop_
_space_group_symop_operation_xyz
x,y,z
-x,y,1/2-z
-x,-y,-z
x,-y,1/2+z
1/2+x,1/2+y,z
1/2-x,1/2+y,1/2-z
1/2-x,1/2-y,-z
1/2+x,1/2-y,1/2+z
loop_
_atom_site_type_symbol
_atom_site_label
_atom_site_fract_x
_atom_site_fract_y
_atom_site_fract_z
Si Si1 0.637692 0.687866 0.562777
Si Si2 0.342438 0.535711 0.280642
Si Si3 0.217280 0.644901 0.496152
Si Si4 0.000000 0.704243 0.250000
O O1 0.500000 0.663355 0.750000
O O2 0.669092 0.674288 0.239135
O O3 0.610004 0.751795 0.601168
O O4 0.752278 0.661260 0.707214
O O5 0.500000 0.552984 0.250000
O O6 0.323884 0.483108 0.478548
O O7 0.242853 0.582413 0.420049
O O8 0.076559 0.668029 0.440074
#
# Coordination Sequence:
#
# PCOD9281458 Si02
#       4
#     8   8   8   4
#     4  10  23  36  63  87 123 158 200 244 291 354
#     4  10  21  38  62  86 113 150 202 253 296 342
#     4  12  22  42  60  91 124 161 197 248 301 352
#     4  10  26  38  62  90 128 162 198 238 296 374
#
# _framework density 23.390277000000001
#
# number of rings (size 3 to 8) (size 9 to 14) (size 15 to 20)
#    0.857    0.571    0.000    6.000    0.000    5.714 
#    0.000    1.429    0.000    0.000    0.000    0.000 
#    0.000    0.000    0.000    0.000    0.000    0.000 
#
# Total GULP energy -78292.282501 kJ/mol
# GULP energy per Si atom -5592.305893 kJ/mol
# Density = 2.333704 g / cm^3
# Si number density = 23.390277 Si / 1000 Ang^3
#
#
#
# Elastic Constant Matrix: (Units=GPa)
#
#
# Indices 1 2 3 4 5 6 
#
# 1 95.7896 25.7588 -6.3655 0.0000 8.9073 0.0000
# 2 25.7588 96.2707 -4.0617 0.0000 1.8191 0.0000
# 3 -6.3655 -4.0617 68.6740 0.0000 -5.6072 0.0000
# 4 0.0000 0.0000 0.0000 30.3754 0.0000 3.9401
# 5 8.9073 1.8191 -5.6072 0.0000 31.9228 0.0000
# 6 0.0000 0.0000 0.0000 3.9401 0.0000 -0.8374
#
#
#
# Elastic Compliance Matrix: (Units=1/GPa)
#
#
# Indices 1 2 3 4 5 6 
#
# 1 0.011566 -0.003012 0.000654 0.000000 -0.002941 0.000000
# 2 -0.003012 0.011205 0.000406 0.000000 0.000273 0.000000
# 3 0.000654 0.000406 0.014842 0.000000 0.002401 0.000000
# 4 0.000000 0.000000 0.000000 0.020444 0.000000 0.096192
# 5 -0.002941 0.000273 0.002401 0.000000 0.032552 0.000000
# 6 0.000000 0.000000 0.000000 0.096192 0.000000 -0.741578
#
#
# Mechanical properties :
#
#
# Convention : Reuss Voigt Hill
#
# Bulk Modulus (GPa) = 29.66483 32.37751 31.02117
# Shear Modulus (GPa) = -7.86377 28.65235 10.39429
#
# Velocity S-wave (km/s) = -1.83556 3.50375 2.11033
# Velocity P-wave (km/s) = 2.86665 5.49916 4.38511
#
# Compressibility (1/GPa) = 0.03370995
#
# Stress axis : x y z
#
# Youngs Moduli (GPa) = 86.45804 89.24479 67.37527
#
# Poissons Ratio (x) = 0.26877 -0.04405
# Poissons Ratio (y) = 0.26038 -0.02735
# Poissons Ratio (z) = -0.05653 -0.03622
#
# Static dielectric constant tensor:
#      x y z
#    x 2.007020 0.000000 -0.069830 
#    y 0.000000 1.877590 0.000000 
#    z -0.069830 0.000000 1.817470 
# 
# From -- ./inp_files/3864.got.cif
#   From: 2010.05.17/outbox.cif.g08.bks.cpg/sg15_2_cif.got.tgz:3864.got - 2010.06.03 18:47:42.
