data_PCOD9281494
_publ_section_title
;
Structure prediction by ZEFSAII (Michael W. Deem and Ramdas Pophale) SiO2 
 PCOD9281494
Probable space group: C 2/C
;
_chemical_formula_sum "Si O2"
_cell_formula_units_Z 40
_cell_length_a 17.224630
_cell_length_b 22.554685
_cell_length_c 10.715866
_cell_angle_alpha 90.000000
_cell_angle_beta 31.322389
_cell_angle_gamma 90.000000
_cell_volume 2164.185410
_symmetry_space_group_name_H-M "C 2/C"
_symmetry_group_IT_number 15
_symmetry_cell_setting 'monoclinic'
loop_
_space_group_symop_operation_xyz
x,y,z
-x,y,1/2-z
-x,-y,-z
x,-y,1/2+z
1/2+x,1/2+y,z
1/2-x,1/2+y,1/2-z
1/2-x,1/2-y,-z
1/2+x,1/2-y,1/2+z
loop_
_atom_site_type_symbol
_atom_site_label
_atom_site_fract_x
_atom_site_fract_y
_atom_site_fract_z
Si Si1 0.672990 0.251101 0.792064
Si Si2 0.852274 0.291573 0.775897
Si Si3 0.077896 0.420998 0.778270
Si Si4 0.885173 0.445762 0.290898
Si Si5 0.152220 0.155578 0.113499
O O1 0.801348 0.275071 0.706467
O O2 0.744022 0.199518 0.610664
O O3 0.620965 0.306480 0.780061
O O4 0.526112 0.223863 0.057583
O O5 0.828721 0.361209 0.831515
O O6 0.750000 0.250000 0.000000
O O7 0.157107 0.485096 0.666851
O O8 0.000000 0.415421 0.750000
O O9 0.964972 0.425584 0.051866
O O10 0.746364 0.403395 0.507594
O O11 0.000000 0.441330 0.250000
O O12 0.000000 0.143370 0.250000
#
# Coordination Sequence:
#
# PCOD9281494 Si02
#       5
#     8   8   8   8   8
#     4  11  23  38  58  91 120 158 201 248 304 358
#     4  12  23  39  61  87 125 161 199 246 302 369
#     4  10  21  38  62  90 119 161 209 246 296 365
#     4  10  21  39  65  89 117 160 210 253 294 362
#     4  11  22  37  61  90 124 151 196 261 307 349
#
# _framework density 18.482703999999998
#
# number of rings (size 3 to 8) (size 9 to 14) (size 15 to 20)
#    0.000    1.200    4.000    3.000    0.000    0.000 
#    0.000    2.000    0.000   13.200    0.000    0.000 
#    0.000    0.000    0.000    0.000    0.000    0.000 
#
# Total GULP energy -111640.092351 kJ/mol
# GULP energy per Si atom -5582.004618 kJ/mol
# Density = 1.844064 g / cm^3
# Si number density = 18.482704 Si / 1000 Ang^3
#
#
#
# Elastic Constant Matrix: (Units=GPa)
#
#
# Indices 1 2 3 4 5 6 
#
# 1 59.0560 25.3501 4.6530 -0.0015 3.2628 0.0009
# 2 25.3501 163.2417 35.4081 -0.0008 -9.5544 0.0007
# 3 4.6530 35.4081 56.8196 -0.0001 -4.5972 -0.0005
# 4 -0.0015 -0.0008 -0.0001 25.0570 0.0007 -3.0754
# 5 3.2628 -9.5544 -4.5972 0.0007 32.7440 0.0004
# 6 0.0009 0.0007 -0.0005 -3.0754 0.0004 22.1367
#
#
#
# Elastic Compliance Matrix: (Units=1/GPa)
#
#
# Indices 1 2 3 4 5 6 
#
# 1 0.018377 -0.003050 0.000178 0.000001 -0.002696 0.000000
# 2 -0.003050 0.007660 -0.004368 0.000000 0.001926 0.000000
# 3 0.000178 -0.004368 0.020434 0.000000 0.001577 0.000001
# 4 0.000001 0.000000 0.000000 0.040601 -0.000001 0.005641
# 5 -0.002696 0.001926 0.001577 -0.000001 0.031592 -0.000001
# 6 0.000000 0.000000 0.000001 0.005641 -0.000001 0.045957
#
#
# Mechanical properties :
#
#
# Convention : Reuss Voigt Hill
#
# Bulk Modulus (GPa) = 31.25873 45.54885 38.40379
# Shear Modulus (GPa) = 26.34826 30.23464 28.29145
#
# Velocity S-wave (km/s) = 3.77976 4.04893 3.91666
# Velocity P-wave (km/s) = 5.99983 6.82320 6.42471
#
# Compressibility (1/GPa) = 0.03199106
#
# Stress axis : x y z
#
# Youngs Moduli (GPa) = 54.41481 130.55446 48.93721
#
# Poissons Ratio (x) = 0.39822 -0.00870
# Poissons Ratio (y) = 0.16598 0.21374
# Poissons Ratio (z) = -0.00967 0.57022
#
# Static dielectric constant tensor:
#      x y z
#    x 1.765250 0.000000 -0.055750 
#    y 0.000000 1.629050 0.000000 
#    z -0.055750 0.000000 1.679130 
# 
# From -- ./inp_files/30194.got.cif
#   From: 2010.05.17/outbox.cif.g08.bks.cpg/sg15_16_cif.got.tgz:30194.got - 2010.06.03 18:47:42.
