data_PCOD9281013
_publ_section_title
;
Structure prediction by ZEFSAII (Michael W. Deem and Ramdas Pophale) SiO2 
 PCOD9281013
Probable space group: C 2/C
;
_chemical_formula_sum "Si O2"
_cell_formula_units_Z 44
_cell_length_a 12.860452
_cell_length_b 32.562505
_cell_length_c 5.107582
_cell_angle_alpha 90.000000
_cell_angle_beta 98.126188
_cell_angle_gamma 90.000000
_cell_volume 2117.418305
_symmetry_space_group_name_H-M "C 2/C"
_symmetry_group_IT_number 15
_symmetry_cell_setting 'monoclinic'
loop_
_space_group_symop_operation_xyz
x,y,z
-x,y,1/2-z
-x,-y,-z
x,-y,1/2+z
1/2+x,1/2+y,z
1/2-x,1/2+y,1/2-z
1/2-x,1/2-y,-z
1/2+x,1/2-y,1/2+z
loop_
_atom_site_type_symbol
_atom_site_label
_atom_site_fract_x
_atom_site_fract_y
_atom_site_fract_z
Si Si1 0.125903 0.359290 0.775658
Si Si2 0.574867 0.684298 0.523894
Si Si3 0.000000 0.528873 0.750000
Si Si4 0.425429 0.224678 0.472895
Si Si5 0.231488 0.529403 0.760299
Si Si6 0.251396 0.883738 0.159936
O O1 0.140997 0.314350 0.645847
O O2 0.184141 0.387934 0.588617
O O3 0.000000 0.366341 0.750000
O O4 0.177490 0.365871 0.076780
O O5 0.500000 0.683438 0.750000
O O6 0.623652 0.730322 0.505499
O O7 0.660980 0.649451 0.580622
O O8 0.500000 0.677651 0.250000
O O9 0.112956 0.548714 0.748700
O O10 0.000000 0.500000 0.500000
O O11 0.500000 0.230322 0.250000
O O12 0.500000 0.214798 0.750000
O O13 0.243853 0.502107 0.505299
O O14 0.295898 0.571482 0.785938
#
# Coordination Sequence:
#
# PCOD9281013 Si02
#       6
#     8   8   4   8   8   8
#     4  11  23  37  56  89 131 158 189 238 291 360
#     4  10  22  41  64  87 116 154 206 257 292 344
#     4   8  16  30  50  72 100 144 182 208 264 336
#     4   9  18  36  58  82 120 163 193 235 295 345
#     4  10  21  38  56  81 116 154 192 237 290 357
#     4  12  24  38  63  90 115 161 201 246 303 342
#
# _framework density 20.780024000000001
#
# number of rings (size 3 to 8) (size 9 to 14) (size 15 to 20)
#    0.000    1.818    0.000    4.909    2.545    1.455 
#    3.273    0.000    0.000    3.273    0.000    0.000 
#    0.000    0.000    0.000    0.000    0.000    0.000 
#
# Total GULP energy -122656.616138 kJ/mol
# GULP energy per Si atom -5575.300734 kJ/mol
# Density = 2.073273 g / cm^3
# Si number density = 20.780024 Si / 1000 Ang^3
#
#
#
# Elastic Constant Matrix: (Units=GPa)
#
#
# Indices 1 2 3 4 5 6 
#
# 1 38.6950 15.0768 24.1841 0.0000 -0.5851 0.0000
# 2 15.0768 102.3898 7.5318 0.0000 20.4193 0.0000
# 3 24.1841 7.5318 148.4953 0.0000 -0.5347 0.0000
# 4 0.0000 0.0000 0.0000 26.5006 0.0000 10.0622
# 5 -0.5851 20.4193 -0.5347 0.0000 18.5546 0.0000
# 6 0.0000 0.0000 0.0000 10.0622 0.0000 19.0171
#
#
#
# Elastic Compliance Matrix: (Units=1/GPa)
#
#
# Indices 1 2 3 4 5 6 
#
# 1 0.031119 -0.005638 -0.004757 0.000000 0.007049 0.000000
# 2 -0.005638 0.013604 0.000174 0.000000 -0.015144 0.000000
# 3 -0.004757 0.000174 0.007500 0.000000 -0.000125 0.000000
# 4 0.000000 0.000000 0.000000 0.047222 0.000000 -0.024986
# 5 0.007049 -0.015144 -0.000125 0.000000 0.070780 0.000000
# 6 0.000000 0.000000 0.000000 -0.024986 0.000000 0.065805
#
#
# Mechanical properties :
#
#
# Convention : Reuss Voigt Hill
#
# Bulk Modulus (GPa) = 31.46554 42.57394 37.01974
# Shear Modulus (GPa) = 18.72197 29.00029 23.86113
#
# Velocity S-wave (km/s) = 3.00486 3.73981 3.39229
# Velocity P-wave (km/s) = 5.21670 6.25944 5.76171
#
# Compressibility (1/GPa) = 0.03178080
#
# Stress axis : x y z
#
# Youngs Moduli (GPa) = 32.13425 73.50679 133.33947
#
# Poissons Ratio (x) = 0.41444 0.63427
# Poissons Ratio (y) = 0.18118 -0.02316
# Poissons Ratio (z) = 0.15286 -0.01277
#
# Static dielectric constant tensor:
#      x y z
#    x 1.769470 0.000000 0.012260 
#    y 0.000000 1.818750 0.000000 
#    z 0.012260 0.000000 1.718760 
# 
# From -- ./inp_files/5879.got.cif
#   From: 2010.05.17/outbox.cif.g08.bks.cpg/sg15_3_cif.got.tgz:5879.got - 2010.06.03 18:47:42.
