data_PCOD9281684
_publ_section_title
;
Structure prediction by ZEFSAII (Michael W. Deem and Ramdas Pophale) SiO2 
 PCOD9281684
Probable space group: C 2/C
;
_chemical_formula_sum "Si O2"
_cell_formula_units_Z 56
_cell_length_a 6.362640
_cell_length_b 31.367640
_cell_length_c 14.725819
_cell_angle_alpha 90.000000
_cell_angle_beta 87.849337
_cell_angle_gamma 90.000000
_cell_volume 2936.923473
_symmetry_space_group_name_H-M "C 2/C"
_symmetry_group_IT_number 15
_symmetry_cell_setting 'monoclinic'
loop_
_space_group_symop_operation_xyz
x,y,z
-x,y,1/2-z
-x,-y,-z
x,-y,1/2+z
1/2+x,1/2+y,z
1/2-x,1/2+y,1/2-z
1/2-x,1/2-y,-z
1/2+x,1/2-y,1/2+z
loop_
_atom_site_type_symbol
_atom_site_label
_atom_site_fract_x
_atom_site_fract_y
_atom_site_fract_z
Si Si1 0.685538 0.242596 0.396514
Si Si2 0.587466 0.046916 0.082811
Si Si3 0.500000 0.905399 0.750000
Si Si4 0.879545 0.183935 0.845881
Si Si5 0.654130 0.652618 0.162204
Si Si6 0.500000 0.213573 0.750000
Si Si7 0.423603 0.389809 0.492843
Si Si8 0.191258 0.967296 0.479441
O O1 0.750000 0.250000 0.500000
O O2 0.474531 0.270347 0.379157
O O3 0.711587 0.192359 0.379366
O O4 0.845226 0.260457 0.317751
O O5 0.627504 0.065215 0.180240
O O6 0.719637 0.079998 0.016825
O O7 0.658317 0.997762 0.080476
O O8 0.341976 0.045673 0.060584
O O9 0.666019 0.877909 0.802450
O O10 0.640882 0.187796 0.818102
O O11 0.000000 0.172859 0.750000
O O12 0.896130 0.148832 0.923636
O O13 0.500000 0.663863 0.250000
O O14 0.515712 0.630523 0.084867
O O15 0.591950 0.423292 0.448948
O O16 0.000000 0.000000 0.500000
#
# Coordination Sequence:
#
# PCOD9281684 Si02
#       8
#     8   8   4   8   8   4   8   8
#     4  11  23  41  64  91 125 173 219 264 334 389
#     4  10  21  38  63  96 127 168 203 259 328 386
#     4  12  24  36  64  99 134 160 212 263 326 398
#     4  10  24  43  63  90 124 173 222 269 319 380
#     4  12  24  39  61 100 134 164 210 272 328 387
#     4  10  24  42  58  87 132 164 216 283 308 376
#     4  11  21  41  66  92 128 169 213 263 325 384
#     4   9  20  40  63  88 124 164 207 256 314 385
#
# _framework density 19.067574
#
# number of rings (size 3 to 8) (size 9 to 14) (size 15 to 20)
#    0.000    1.429    5.000    0.000    3.000    4.000 
#    0.000    4.286    0.000    0.000    0.000    0.000 
#    0.000    0.000    0.000    0.000    0.000    0.000 
#
# Total GULP energy -155873.953656 kJ/mol
# GULP energy per Si atom -5566.926916 kJ/mol
# Density = 1.902418 g / cm^3
# Si number density = 19.067574 Si / 1000 Ang^3
#
#
#
# Elastic Constant Matrix: (Units=GPa)
#
#
# Indices 1 2 3 4 5 6 
#
# 1 71.2059 32.7877 16.0922 0.0000 29.9252 0.0000
# 2 32.7877 122.0001 51.0166 0.0000 20.9697 0.0000
# 3 16.0922 51.0166 99.9227 0.0000 22.7791 0.0000
# 4 0.0000 0.0000 0.0000 92.2344 0.0000 25.6424
# 5 29.9252 20.9697 22.7791 0.0000 29.4178 0.0000
# 6 0.0000 0.0000 0.0000 25.6424 0.0000 27.4347
#
#
#
# Elastic Compliance Matrix: (Units=1/GPa)
#
#
# Indices 1 2 3 4 5 6 
#
# 1 0.026389 -0.004129 0.004016 0.000000 -0.027010 0.000000
# 2 -0.004129 0.011474 -0.005205 0.000000 0.000051 0.000000
# 3 0.004016 -0.005205 0.014698 0.000000 -0.011756 0.000000
# 4 0.000000 0.000000 0.000000 0.014648 0.000000 -0.013691
# 5 -0.027010 0.000051 -0.011756 0.000000 0.070536 0.000000
# 6 0.000000 0.000000 0.000000 -0.013691 0.000000 0.049247
#
#
# Mechanical properties :
#
#
# Convention : Reuss Voigt Hill
#
# Bulk Modulus (GPa) = 23.85189 54.76905 39.31047
# Shear Modulus (GPa) = 23.62904 42.69952 33.16428
#
# Velocity S-wave (km/s) = 3.52408 4.73734 4.17502
# Velocity P-wave (km/s) = 5.39400 7.66219 6.62587
#
# Compressibility (1/GPa) = 0.04192540
#
# Stress axis : x y z
#
# Youngs Moduli (GPa) = 37.89475 87.15331 68.03416
#
# Poissons Ratio (x) = 0.35982 -0.27320
# Poissons Ratio (y) = 0.15645 0.35412
# Poissons Ratio (z) = -0.15217 0.45363
#
# Static dielectric constant tensor:
#      x y z
#    x 1.814580 0.000000 0.004150 
#    y 0.000000 1.694430 0.000000 
#    z 0.004150 0.000000 1.697200 
# 
# From -- ./inp_files/130833.got.cif
#   From: 2010.05.17/outbox.cif.g08.bks.cpg/sg15_66_cif.got.tgz:130833.got - 2010.06.03 18:47:42.
