data_PCOD9281731
_publ_section_title
;
Structure prediction by ZEFSAII (Michael W. Deem and Ramdas Pophale) SiO2 
 PCOD9281731
Probable space group: C 2/C
;
_chemical_formula_sum "Si O2"
_cell_formula_units_Z 60
_cell_length_a 6.956920
_cell_length_b 19.030459
_cell_length_c 18.075694
_cell_angle_alpha 90.000000
_cell_angle_beta 88.652885
_cell_angle_gamma 90.000000
_cell_volume 2392.440822
_symmetry_space_group_name_H-M "C 2/C"
_symmetry_group_IT_number 15
_symmetry_cell_setting 'monoclinic'
loop_
_space_group_symop_operation_xyz
x,y,z
-x,y,1/2-z
-x,-y,-z
x,-y,1/2+z
1/2+x,1/2+y,z
1/2-x,1/2+y,1/2-z
1/2-x,1/2-y,-z
1/2+x,1/2-y,1/2+z
loop_
_atom_site_type_symbol
_atom_site_label
_atom_site_fract_x
_atom_site_fract_y
_atom_site_fract_z
Si Si1 0.228807 0.791356 0.322901
Si Si2 0.728887 0.057854 0.737361
Si Si3 0.458631 0.818854 0.056456
Si Si4 0.000000 0.828003 0.750000
Si Si5 0.799883 0.462667 0.023480
Si Si6 0.154476 0.429782 0.635723
Si Si7 0.688615 0.449618 0.646528
Si Si8 0.627368 0.215572 0.108976
O O1 0.204255 0.865344 0.282987
O O2 0.351870 0.808716 0.396645
O O3 0.340115 0.732610 0.274543
O O4 0.024540 0.761984 0.347970
O O5 0.500000 0.066425 0.750000
O O6 0.736832 0.996586 0.675997
O O7 0.829532 0.020124 0.804841
O O8 0.362106 0.895089 0.071200
O O9 0.311972 0.759139 0.083738
O O10 0.475145 0.811133 0.966945
O O11 0.070930 0.886534 0.685255
O O12 0.667792 0.520269 0.063610
O O13 0.744294 0.432132 0.945046
O O14 0.000000 0.500000 0.000000
O O15 0.190180 0.350034 0.659340
O O16 0.920840 0.433508 0.645210
#
# Coordination Sequence:
#
# PCOD9281731 Si02
#       8
#     8   8   8   4   8   8   8   8
#     4  12  23  42  64  97 132 176 217 279 330 399
#     4  10  21  38  64  88 132 174 221 266 334 396
#     4  10  22  40  69  97 132 171 220 277 337 401
#     4  12  26  38  60  96 138 170 226 276 342 406
#     4   9  18  36  67  90 124 175 220 269 339 392
#     4   9  18  38  62  90 121 173 217 266 330 396
#     4  10  21  39  59  88 124 173 217 269 326 404
#     4  10  22  41  66  99 133 171 221 272 337 399
#
# _framework density 25.078989
#
# number of rings (size 3 to 8) (size 9 to 14) (size 15 to 20)
#    0.000    1.867    2.000    2.800    1.867    1.067 
#    2.400    0.667    0.000    4.000    0.000    0.000 
#    0.000    0.000    0.000    0.000    0.000    0.000 
#
# Total GULP energy -167570.603122 kJ/mol
# GULP energy per Si atom -5585.686771 kJ/mol
# Density = 2.502191 g / cm^3
# Si number density = 25.078989 Si / 1000 Ang^3
#
#
#
# Elastic Constant Matrix: (Units=GPa)
#
#
# Indices 1 2 3 4 5 6 
#
# 1 89.8213 47.1169 26.0690 0.0000 -9.3977 0.0000
# 2 47.1169 233.9733 67.7949 0.0000 -14.3881 0.0000
# 3 26.0690 67.7949 99.5293 0.0000 -10.9164 0.0000
# 4 0.0000 0.0000 0.0000 22.5819 0.0000 19.8207
# 5 -9.3977 -14.3881 -10.9164 0.0000 24.4357 0.0000
# 6 0.0000 0.0000 0.0000 19.8207 0.0000 4.1922
#
#
#
# Elastic Compliance Matrix: (Units=1/GPa)
#
#
# Indices 1 2 3 4 5 6 
#
# 1 0.012968 -0.001914 -0.001756 0.000000 0.003076 0.000000
# 2 -0.001914 0.005667 -0.003232 0.000000 0.001157 0.000000
# 3 -0.001756 -0.003232 0.013066 0.000000 0.003259 0.000000
# 4 0.000000 0.000000 0.000000 -0.014059 0.000000 0.066470
# 5 0.003076 0.001157 0.003259 0.000000 0.044244 0.000000
# 6 0.000000 0.000000 0.000000 0.066470 0.000000 -0.075729
#
#
# Mechanical properties :
#
#
# Convention : Reuss Voigt Hill
#
# Bulk Modulus (GPa) = 55.87008 78.36507 67.11758
# Shear Modulus (GPa) = 843.63895 29.06484 436.35189
#
# Velocity S-wave (km/s) = 18.36091 3.40800 13.20488
# Velocity P-wave (km/s) = 21.72150 6.84113 16.10317
#
# Compressibility (1/GPa) = 0.01789867
#
# Stress axis : x y z
#
# Youngs Moduli (GPa) = 77.10995 176.46087 76.53388
#
# Poissons Ratio (x) = 0.33768 0.13438
# Poissons Ratio (y) = 0.14756 0.24736
# Poissons Ratio (z) = 0.13540 0.57032
#
# Static dielectric constant tensor:
#      x y z
#    x 2.822900 0.000000 0.664220 
#    y 0.000000 -6.429590 0.000000 
#    z 0.664220 0.000000 2.387210 
# 
# From -- ./inp_files/232659.got.cif
#   From: 2010.05.17/outbox.cif.g08.bks.cpg/sg15_117_cif.got.tgz:232659.got - 2010.06.03 18:47:42.
