data_PCOD9281382
_publ_section_title
;
Structure prediction by ZEFSAII (Michael W. Deem and Ramdas Pophale) SiO2 
 PCOD9281382
Probable space group: C 2/C
;
_chemical_formula_sum "Si O2"
_cell_formula_units_Z 40
_cell_length_a 12.261198
_cell_length_b 12.672800
_cell_length_c 19.295322
_cell_angle_alpha 90.000000
_cell_angle_beta 140.019152
_cell_angle_gamma 90.000000
_cell_volume 1926.424304
_symmetry_space_group_name_H-M "C 2/C"
_symmetry_group_IT_number 15
_symmetry_cell_setting 'monoclinic'
loop_
_space_group_symop_operation_xyz
x,y,z
-x,y,1/2-z
-x,-y,-z
x,-y,1/2+z
1/2+x,1/2+y,z
1/2-x,1/2+y,1/2-z
1/2-x,1/2-y,-z
1/2+x,1/2-y,1/2+z
loop_
_atom_site_type_symbol
_atom_site_label
_atom_site_fract_x
_atom_site_fract_y
_atom_site_fract_z
Si Si1 0.914697 0.493715 0.381267
Si Si2 0.935136 0.270223 0.057409
Si Si3 0.399150 0.369234 0.130247
Si Si4 0.040359 0.079927 0.193680
Si Si5 0.523783 0.788804 0.944089
O O1 0.712018 0.510274 0.283095
O O2 0.000000 0.500000 0.500000
O O3 0.980723 0.383644 0.382881
O O4 0.971124 0.605553 0.377244
O O5 0.045139 0.172520 0.140302
O O6 0.750000 0.250000 0.000000
O O7 0.928622 0.271881 0.970421
O O8 0.500000 0.358321 0.250000
O O9 0.392258 0.493567 0.108609
O O10 0.489781 0.310831 0.111414
O O11 0.220414 0.312697 0.055645
O O12 0.000000 0.126468 0.250000
#
# Coordination Sequence:
#
# PCOD9281382 Si02
#       5
#     8   8   8   8   8
#     4  10  21  38  61  89 129 166 212 260 320 387
#     4  11  22  40  63  94 132 167 212 270 324 386
#     4  10  21  40  65  87 120 169 216 257 311 385
#     4  11  22  37  65  90 127 173 217 255 326 385
#     4  10  22  39  65  90 126 164 213 261 321 375
#
# _framework density 20.763857999999999
#
# number of rings (size 3 to 8) (size 9 to 14) (size 15 to 20)
#    0.000    1.600    0.000    8.400    5.600    0.800 
#    0.000    1.000    0.000    0.000    0.000    0.000 
#    0.000    0.000    0.000    0.000    0.000    0.000 
#
# Total GULP energy -111554.930911 kJ/mol
# GULP energy per Si atom -5577.746546 kJ/mol
# Density = 2.071660 g / cm^3
# Si number density = 20.763858 Si / 1000 Ang^3
#
#
#
# Elastic Constant Matrix: (Units=GPa)
#
#
# Indices 1 2 3 4 5 6 
#
# 1 111.8884 54.1660 24.4987 0.0000 5.0739 0.0000
# 2 54.1660 144.8721 39.5247 0.0000 -15.8311 0.0000
# 3 24.4987 39.5247 61.6467 0.0000 12.9043 0.0000
# 4 0.0000 0.0000 0.0000 28.3487 0.0000 5.5568
# 5 5.0739 -15.8311 12.9043 0.0000 24.4388 0.0000
# 6 0.0000 0.0000 0.0000 5.5568 0.0000 23.5700
#
#
#
# Elastic Compliance Matrix: (Units=1/GPa)
#
#
# Indices 1 2 3 4 5 6 
#
# 1 0.011592 -0.004797 -0.000424 0.000000 -0.005290 0.000000
# 2 -0.004797 0.012760 -0.009235 0.000000 0.014138 0.000000
# 3 -0.000424 -0.009235 0.026470 0.000000 -0.019871 0.000000
# 4 0.000000 0.000000 0.000000 0.036984 0.000000 -0.008719
# 5 -0.005290 0.014138 -0.019871 0.000000 0.061668 0.000000
# 6 0.000000 0.000000 0.000000 -0.008719 0.000000 0.044482
#
#
# Mechanical properties :
#
#
# Convention : Reuss Voigt Hill
#
# Bulk Modulus (GPa) = 45.63644 61.64288 53.63966
# Shear Modulus (GPa) = 21.72290 28.61935 25.17112
#
# Velocity S-wave (km/s) = 3.23799 3.71661 3.48552
# Velocity P-wave (km/s) = 6.00050 6.94043 6.48751
#
# Compressibility (1/GPa) = 0.02191231
#
# Stress axis : x y z
#
# Youngs Moduli (GPa) = 86.26421 78.36757 37.77816
#
# Poissons Ratio (x) = 0.37589 0.01603
# Poissons Ratio (y) = 0.41377 0.34887
# Poissons Ratio (z) = 0.03659 0.72369
#
# Static dielectric constant tensor:
#      x y z
#    x 1.789990 0.000000 0.085880 
#    y 0.000000 1.827360 0.000000 
#    z 0.085880 0.000000 1.821420 
# 
# From -- ./inp_files/237802.got.cif
#   From: 2010.05.17/outbox.cif.g08.bks.cpg/sg15_119_cif.got.tgz:237802.got - 2010.06.03 18:47:42.
