data_PCOD9281524
_publ_section_title
;
Structure prediction by ZEFSAII (Michael W. Deem and Ramdas Pophale) SiO2 
 PCOD9281524
Probable space group: C 2/C
;
_chemical_formula_sum "Si O2"
_cell_formula_units_Z 40
_cell_length_a 5.625648
_cell_length_b 19.656305
_cell_length_c 19.608490
_cell_angle_alpha 90.000000
_cell_angle_beta 121.479567
_cell_angle_gamma 90.000000
_cell_volume 1849.180252
_symmetry_space_group_name_H-M "C 2/C"
_symmetry_group_IT_number 15
_symmetry_cell_setting 'monoclinic'
loop_
_space_group_symop_operation_xyz
x,y,z
-x,y,1/2-z
-x,-y,-z
x,-y,1/2+z
1/2+x,1/2+y,z
1/2-x,1/2+y,1/2-z
1/2-x,1/2-y,-z
1/2+x,1/2-y,1/2+z
loop_
_atom_site_type_symbol
_atom_site_label
_atom_site_fract_x
_atom_site_fract_y
_atom_site_fract_z
Si Si1 0.748015 0.811707 0.160176
Si Si2 0.174640 0.466200 0.847235
Si Si3 0.317849 0.266345 0.432095
Si Si4 0.174534 0.037521 0.847474
Si Si5 0.310027 0.823071 0.578520
O O1 0.434560 0.804276 0.142313
O O2 0.782781 0.742493 0.123374
O O3 0.000000 0.812038 0.250000
O O4 0.764319 0.884122 0.125506
O O5 0.468596 0.502091 0.871485
O O6 0.222835 0.391591 0.885402
O O7 0.000000 0.461814 0.750000
O O8 0.970092 0.503324 0.871238
O O9 0.250000 0.250000 0.500000
O O10 0.390294 0.194089 0.409136
O O11 0.587217 0.313715 0.484278
O O12 0.000000 0.036802 0.750000
#
# Coordination Sequence:
#
# PCOD9281524 Si02
#       5
#     8   8   8   8   8
#     4  10  21  38  62  92 118 159 205 252 307 372
#     4  10  21  39  61  92 124 162 202 256 311 366
#     4   9  21  39  59  84 125 157 205 257 310 353
#     4   9  21  38  59  88 131 160 196 254 316 363
#     4  10  21  38  64  86 119 163 207 254 305 363
#
# _framework density 21.631208000000001
#
# number of rings (size 3 to 8) (size 9 to 14) (size 15 to 20)
#    0.000    2.400    0.000    0.600    8.400    0.800 
#    3.600    2.000    0.000    0.000    0.000    0.000 
#    0.000    0.000    0.000    0.000    0.000    0.000 
#
# Total GULP energy -111394.672616 kJ/mol
# GULP energy per Si atom -5569.733631 kJ/mol
# Density = 2.158197 g / cm^3
# Si number density = 21.631208 Si / 1000 Ang^3
#
#
#
# Elastic Constant Matrix: (Units=GPa)
#
#
# Indices 1 2 3 4 5 6 
#
# 1 152.8098 89.4080 37.8289 0.0000 12.0844 0.0000
# 2 89.4080 167.5814 38.8400 0.0000 6.0064 0.0000
# 3 37.8289 38.8400 50.8652 0.0000 21.5474 0.0000
# 4 0.0000 0.0000 0.0000 19.9416 0.0000 -1.8044
# 5 12.0844 6.0064 21.5474 0.0000 23.2166 0.0000
# 6 0.0000 0.0000 0.0000 -1.8044 0.0000 53.1453
#
#
#
# Elastic Compliance Matrix: (Units=1/GPa)
#
#
# Indices 1 2 3 4 5 6 
#
# 1 0.010195 -0.004511 -0.003928 0.000000 -0.000493 0.000000
# 2 -0.004511 0.009678 -0.006541 0.000000 0.005915 0.000000
# 3 -0.003928 -0.006541 0.042833 0.000000 -0.036017 0.000000
# 4 0.000000 0.000000 0.000000 0.050301 0.000000 0.001708
# 5 -0.000493 0.005915 -0.036017 0.000000 0.075226 0.000000
# 6 0.000000 0.000000 0.000000 0.001708 0.000000 0.018874
#
#
# Mechanical properties :
#
#
# Convention : Reuss Voigt Hill
#
# Bulk Modulus (GPa) = 30.53825 78.15669 54.34747
# Shear Modulus (GPa) = 20.16267 32.93934 26.55100
#
# Velocity S-wave (km/s) = 3.05636 3.90650 3.50728
# Velocity P-wave (km/s) = 5.15785 7.52048 6.44829
#
# Compressibility (1/GPa) = 0.03274582
#
# Stress axis : x y z
#
# Youngs Moduli (GPa) = 98.08712 103.32841 23.34647
#
# Poissons Ratio (x) = 0.46612 0.09172
# Poissons Ratio (y) = 0.44248 0.15270
# Poissons Ratio (z) = 0.38533 0.67582
#
# Static dielectric constant tensor:
#      x y z
#    x 2.160460 0.000000 0.030120 
#    y 0.000000 1.765550 0.000000 
#    z 0.030120 0.000000 1.829940 
# 
# From -- ./inp_files/184223.got.cif
#   From: 2010.05.17/outbox.cif.g08.bks.cpg/sg15_93_cif.got.tgz:184223.got - 2010.06.03 18:47:42.
