data_PCOD9281578
_publ_section_title
;
Structure prediction by ZEFSAII (Michael W. Deem and Ramdas Pophale) SiO2 
 PCOD9281578
Probable space group: C 2/C
;
_chemical_formula_sum "Si O2"
_cell_formula_units_Z 64
_cell_length_a 20.210473
_cell_length_b 18.151540
_cell_length_c 18.484537
_cell_angle_alpha 90.000000
_cell_angle_beta 27.031648
_cell_angle_gamma 90.000000
_cell_volume 3081.880404
_symmetry_space_group_name_H-M "C 2/C"
_symmetry_group_IT_number 15
_symmetry_cell_setting 'monoclinic'
loop_
_space_group_symop_operation_xyz
x,y,z
-x,y,1/2-z
-x,-y,-z
x,-y,1/2+z
1/2+x,1/2+y,z
1/2-x,1/2+y,1/2-z
1/2-x,1/2-y,-z
1/2+x,1/2-y,1/2+z
loop_
_atom_site_type_symbol
_atom_site_label
_atom_site_fract_x
_atom_site_fract_y
_atom_site_fract_z
Si Si1 0.519382 0.321393 0.898534
Si Si2 0.515488 0.852080 0.929266
Si Si3 0.274929 0.669546 0.440094
Si Si4 0.970145 0.344299 0.427296
Si Si5 0.618817 0.945288 0.693870
Si Si6 0.771720 0.092477 0.588333
Si Si7 0.341772 0.319821 0.440869
Si Si8 0.806556 0.772311 0.634508
O O1 0.611476 0.325600 0.735438
O O2 0.439373 0.242204 0.971715
O O3 0.624177 0.314699 0.864968
O O4 0.404440 0.387451 0.011464
O O5 0.536933 0.904110 0.839909
O O6 0.635122 0.787353 0.801102
O O7 0.549406 0.884125 0.976206
O O8 0.359833 0.811930 0.086053
O O9 0.250000 0.750000 0.500000
O O10 0.131396 0.636898 0.541082
O O11 0.319960 0.617403 0.461506
O O12 0.135723 0.356404 0.243052
O O13 0.500000 0.969093 0.750000
O O14 0.733317 0.889679 0.544210
O O15 0.709185 0.011129 0.642130
O O16 0.500000 0.327486 0.250000
O O17 0.250000 0.250000 0.500000
O O18 0.365791 0.304685 0.502172
#
# Coordination Sequence:
#
# PCOD9281578 Si02
#       8
#     8   8   8   8   8   8   8   8
#     4  11  22  38  60  96 131 166 217 265 328 394
#     4  10  22  39  66  92 132 166 214 273 334 397
#     4  12  21  37  61  93 127 168 215 270 325 393
#     4  11  21  38  61  92 124 169 221 263 327 392
#     4  11  25  47  65  95 134 176 224 279 343 403
#     4  12  26  39  62  93 134 177 220 279 329 401
#     4  11  22  42  73 103 129 168 225 282 339 392
#     4  10  21  38  63 100 127 164 216 276 327 392
#
# _framework density 20.766542999999999
#
# number of rings (size 3 to 8) (size 9 to 14) (size 15 to 20)
#    0.000    1.000    3.750    4.125    5.250    1.500 
#    0.000    2.500    0.000    0.000    0.000    0.000 
#    0.000    0.000    0.000    0.000    0.000    0.000 
#
# Total GULP energy -178730.401690 kJ/mol
# GULP energy per Si atom -5585.325053 kJ/mol
# Density = 2.071928 g / cm^3
# Si number density = 20.766543 Si / 1000 Ang^3
#
#
#
# Elastic Constant Matrix: (Units=GPa)
#
#
# Indices 1 2 3 4 5 6 
#
# 1 75.6866 10.6819 30.0250 -0.0021 7.1149 0.0004
# 2 10.6819 74.8182 11.0893 -0.0026 -7.5366 0.0009
# 3 30.0250 11.0893 92.4346 -0.0033 16.5722 0.0012
# 4 -0.0021 -0.0026 -0.0033 12.5161 0.0014 -2.6041
# 5 7.1149 -7.5366 16.5722 0.0014 37.5432 -0.0001
# 6 0.0004 0.0009 0.0012 -2.6041 -0.0001 21.3106
#
#
#
# Elastic Compliance Matrix: (Units=1/GPa)
#
#
# Indices 1 2 3 4 5 6 
#
# 1 0.015375 -0.001640 -0.004578 0.000001 -0.001222 0.000000
# 2 -0.001640 0.014286 -0.001902 0.000002 0.004018 0.000000
# 3 -0.004578 -0.001902 0.013516 0.000003 -0.005480 0.000000
# 4 0.000001 0.000002 0.000003 0.081982 -0.000004 0.010018
# 5 -0.001222 0.004018 -0.005480 -0.000004 0.030093 0.000000
# 6 0.000000 0.000000 0.000000 0.010018 0.000000 0.048149
#
#
# Mechanical properties :
#
#
# Convention : Reuss Voigt Hill
#
# Bulk Modulus (GPa) = 37.12191 38.50354 37.81272
# Shear Modulus (GPa) = 21.87031 27.01687 24.44359
#
# Velocity S-wave (km/s) = 3.24875 3.61082 3.43456
# Velocity P-wave (km/s) = 5.65572 5.99712 5.82892
#
# Compressibility (1/GPa) = 0.02693827
#
# Stress axis : x y z
#
# Youngs Moduli (GPa) = 65.04108 69.99648 73.98452
#
# Poissons Ratio (x) = 0.11477 0.33873
# Poissons Ratio (y) = 0.10664 0.14070
# Poissons Ratio (z) = 0.29778 0.13311
#
# Static dielectric constant tensor:
#      x y z
#    x 1.804300 0.000000 -0.059360 
#    y 0.000000 1.750830 0.000000 
#    z -0.059360 0.000000 1.873500 
# 
# From -- ./inp_files/216152.got.cif
#   From: 2010.05.17/outbox.cif.g08.bks.cpg/sg15_109_cif.got.tgz:216152.got - 2010.06.03 18:47:42.
