data_PCOD9281941
_publ_section_title
;
Structure prediction by ZEFSAII (Michael W. Deem and Ramdas Pophale) SiO2 
 PCOD9281941
Probable space group: C 2/C
;
_chemical_formula_sum "Si O2"
_cell_formula_units_Z 64
_cell_length_a 17.082695
_cell_length_b 8.887400
_cell_length_c 30.119549
_cell_angle_alpha 90.000000
_cell_angle_beta 40.147103
_cell_angle_gamma 90.000000
_cell_volume 2948.305271
_symmetry_space_group_name_H-M "C 2/C"
_symmetry_group_IT_number 15
_symmetry_cell_setting 'monoclinic'
loop_
_space_group_symop_operation_xyz
x,y,z
-x,y,1/2-z
-x,-y,-z
x,-y,1/2+z
1/2+x,1/2+y,z
1/2-x,1/2+y,1/2-z
1/2-x,1/2-y,-z
1/2+x,1/2-y,1/2+z
loop_
_atom_site_type_symbol
_atom_site_label
_atom_site_fract_x
_atom_site_fract_y
_atom_site_fract_z
Si Si1 0.053050 0.904663 0.018932
Si Si2 0.315811 0.118121 0.304456
Si Si3 0.699507 0.708700 0.849183
Si Si4 0.560408 0.498873 0.609886
Si Si5 0.152084 0.219692 0.302695
Si Si6 0.678871 0.794662 0.599892
Si Si7 0.891503 0.821112 0.827480
Si Si8 0.983453 0.541087 0.838615
O O1 0.081627 0.014017 0.048241
O O2 0.943680 0.799045 0.083721
O O3 0.175208 0.807335 0.960208
O O4 0.000000 0.000000 0.000000
O O5 0.220156 0.218371 0.319444
O O6 0.356777 0.190461 0.332624
O O7 0.247359 0.958676 0.341065
O O8 0.421863 0.074375 0.224376
O O9 0.752486 0.749976 0.778122
O O10 0.769209 0.816247 0.852908
O O11 0.420124 0.437981 0.674672
O O12 0.609258 0.660579 0.605217
O O13 0.626171 0.394605 0.617214
O O14 0.053952 0.352999 0.342119
O O15 0.630503 0.945519 0.596759
O O16 0.000000 0.889642 0.750000
O O17 0.940191 0.655321 0.819030
#
# Coordination Sequence:
#
# PCOD9281941 Si02
#       8
#     8   8   8   8   8   8   8   8
#     4  12  24  47  71  92 141 193 230 267 332 438
#     4  11  20  39  66  99 130 174 230 277 341 405
#     4  11  21  41  70  94 136 186 220 271 349 409
#     4  11  25  41  65 102 133 168 232 289 336 384
#     4  10  22  41  66  98 135 170 231 281 340 401
#     4  12  24  42  66 100 136 180 227 277 341 404
#     4  11  18  41  66  98 131 175 217 283 341 402
#     4  10  21  38  66  93 133 176 231 273 335 410
#
# _framework density 21.707384999999999
#
# number of rings (size 3 to 8) (size 9 to 14) (size 15 to 20)
#    0.000    1.000    7.500    0.750    1.750    1.000 
#    4.500    7.500    0.000    0.000    0.000    0.000 
#    0.000    0.000    0.000    0.000    0.000    0.000 
#
# Total GULP energy -178484.950945 kJ/mol
# GULP energy per Si atom -5577.654717 kJ/mol
# Density = 2.165798 g / cm^3
# Si number density = 21.707385 Si / 1000 Ang^3
#
#
#
# Elastic Constant Matrix: (Units=GPa)
#
#
# Indices 1 2 3 4 5 6 
#
# 1 149.3054 52.3016 32.5771 0.0001 3.8086 -0.0002
# 2 52.3016 58.3967 29.9152 0.0001 0.5147 0.0005
# 3 32.5771 29.9152 50.2415 0.0000 -18.8668 -0.0001
# 4 0.0001 0.0001 0.0000 15.5821 0.0000 -1.7509
# 5 3.8086 0.5147 -18.8668 0.0000 41.3808 -0.0001
# 6 -0.0002 0.0005 -0.0001 -1.7509 -0.0001 28.4983
#
#
#
# Elastic Compliance Matrix: (Units=1/GPa)
#
#
# Indices 1 2 3 4 5 6 
#
# 1 0.009987 -0.007487 -0.002809 0.000000 -0.002107 0.000000
# 2 -0.007487 0.032966 -0.017700 0.000000 -0.007791 -0.000001
# 3 -0.002809 -0.017700 0.039146 0.000000 0.018327 0.000000
# 4 0.000000 0.000000 0.000000 0.064622 0.000000 0.003970
# 5 -0.002107 -0.007791 0.018327 0.000000 0.032812 0.000000
# 6 0.000000 -0.000001 0.000000 0.003970 0.000000 0.035334
#
#
# Mechanical properties :
#
#
# Convention : Reuss Voigt Hill
#
# Bulk Modulus (GPa) = 38.30280 54.17019 46.23649
# Shear Modulus (GPa) = 17.88521 26.63554 22.26038
#
# Velocity S-wave (km/s) = 2.87352 3.50669 3.20578
# Velocity P-wave (km/s) = 5.35657 6.43465 5.92020
#
# Compressibility (1/GPa) = 0.02610775
#
# Stress axis : x y z
#
# Youngs Moduli (GPa) = 100.12990 30.33451 25.54550
#
# Poissons Ratio (x) = 0.22712 0.07175
# Poissons Ratio (y) = 0.74970 0.45214
# Poissons Ratio (z) = 0.28123 0.53691
#
# Static dielectric constant tensor:
#      x y z
#    x 1.811860 0.000000 -0.023290 
#    y 0.000000 1.836350 0.000000 
#    z -0.023290 0.000000 1.844310 
# 
# From -- ./inp_files/315697.got.cif
#   From: 2010.05.17/outbox.cif.g08.bks.cpg/sg15_158_cif.got.tgz:315697.got - 2010.06.03 18:47:42.
