data_PCOD9281215
_publ_section_title
;
Structure prediction by ZEFSAII (Michael W. Deem and Ramdas Pophale) SiO2 
 PCOD9281215
Probable space group: C 2/C
;
_chemical_formula_sum "Si O2"
_cell_formula_units_Z 64
_cell_length_a 13.573306
_cell_length_b 28.130622
_cell_length_c 8.735374
_cell_angle_alpha 90.000000
_cell_angle_beta 101.349433
_cell_angle_gamma 90.000000
_cell_volume 3270.166160
_symmetry_space_group_name_H-M "C 2/C"
_symmetry_group_IT_number 15
_symmetry_cell_setting 'monoclinic'
loop_
_space_group_symop_operation_xyz
x,y,z
-x,y,1/2-z
-x,-y,-z
x,-y,1/2+z
1/2+x,1/2+y,z
1/2-x,1/2+y,1/2-z
1/2-x,1/2-y,-z
1/2+x,1/2-y,1/2+z
loop_
_atom_site_type_symbol
_atom_site_label
_atom_site_fract_x
_atom_site_fract_y
_atom_site_fract_z
Si Si1 0.730037 0.745393 0.673156
Si Si2 0.776805 0.002290 0.618302
Si Si3 0.969848 0.791317 0.415588
Si Si4 0.042723 0.883976 0.590002
Si Si5 0.065931 0.292806 0.128768
Si Si6 0.082910 0.962525 0.083186
Si Si7 0.382877 0.830850 0.673538
Si Si8 0.732595 0.927799 0.852568
O O1 0.750000 0.750000 0.500000
O O2 0.649459 0.702270 0.641981
O O3 0.837511 0.734853 0.778116
O O4 0.678286 0.789275 0.752641
O O5 0.721694 0.044624 0.511175
O O6 0.824396 0.968306 0.504406
O O7 0.719780 0.968461 0.719668
O O8 0.871105 0.024713 0.739759
O O9 0.000000 0.785703 0.250000
O O10 0.033576 0.830963 0.523411
O O11 0.992210 0.743732 0.518389
O O12 0.152296 0.908018 0.620058
O O13 0.000000 0.886806 0.750000
O O14 0.969437 0.912636 0.454501
O O15 0.000000 0.313445 0.250000
O O16 0.114602 0.324530 0.009718
O O17 0.000000 0.000000 0.000000
O O18 0.500000 0.829038 0.750000
O O19 0.336079 0.882183 0.693866
#
# Coordination Sequence:
#
# PCOD9281215 Si02
#       8
#     8   8   8   8   8   8   8   8
#     4  12  24  42  71  95 135 187 220 274 337 387
#     4  10  21  38  59  93 126 168 215 264 342 394
#     4  12  26  41  60  99 138 179 226 273 320 392
#     4  12  24  36  57  99 140 179 219 265 324 405
#     4  12  23  46  69  94 135 175 221 280 334 395
#     4  11  18  33  58  84 135 176 205 257 324 397
#     4  12  25  48  69  97 128 175 232 277 339 399
#     4  11  25  40  68  93 129 175 215 282 339 405
#
# _framework density 19.570869999999999
#
# number of rings (size 3 to 8) (size 9 to 14) (size 15 to 20)
#    0.000    0.500    7.500    1.875    5.250    0.000 
#    0.000    4.375    0.000    0.000    0.000    0.000 
#    0.000    0.000    0.000    0.000    0.000    0.000 
#
# Total GULP energy -178441.747763 kJ/mol
# GULP energy per Si atom -5576.304618 kJ/mol
# Density = 1.952633 g / cm^3
# Si number density = 19.570870 Si / 1000 Ang^3
#
#
#
# Elastic Constant Matrix: (Units=GPa)
#
#
# Indices 1 2 3 4 5 6 
#
# 1 85.4174 12.5211 41.2517 0.0000 0.7691 0.0000
# 2 12.5211 58.7437 32.3955 0.0000 -0.7665 0.0000
# 3 41.2517 32.3955 115.0730 0.0000 -19.6527 0.0000
# 4 0.0000 0.0000 0.0000 19.8486 0.0000 4.8531
# 5 0.7691 -0.7665 -19.6527 0.0000 27.6668 0.0000
# 6 0.0000 0.0000 0.0000 4.8531 0.0000 32.8836
#
#
#
# Elastic Compliance Matrix: (Units=1/GPa)
#
#
# Indices 1 2 3 4 5 6 
#
# 1 0.014682 0.000188 -0.006129 0.000000 -0.004756 0.000000
# 2 0.000188 0.020541 -0.006548 0.000000 -0.004088 0.000000
# 3 -0.006129 -0.006548 0.014486 0.000000 0.010279 0.000000
# 4 0.000000 0.000000 0.000000 0.052267 0.000000 -0.007714
# 5 -0.004756 -0.004088 0.010279 0.000000 0.043465 0.000000
# 6 0.000000 0.000000 0.000000 -0.007714 0.000000 0.031549
#
#
# Mechanical properties :
#
#
# Convention : Reuss Voigt Hill
#
# Bulk Modulus (GPa) = 40.43371 47.95229 44.19300
# Shear Modulus (GPa) = 23.78557 27.61752 25.70154
#
# Velocity S-wave (km/s) = 3.48998 3.76061 3.62782
# Velocity P-wave (km/s) = 6.07823 6.58873 6.33862
#
# Compressibility (1/GPa) = 0.02473184
#
# Stress axis : x y z
#
# Youngs Moduli (GPa) = 68.10964 48.68348 69.03170
#
# Poissons Ratio (x) = -0.00916 0.42307
# Poissons Ratio (y) = -0.01282 0.45204
# Poissons Ratio (z) = 0.41742 0.31879
#
# Static dielectric constant tensor:
#      x y z
#    x -0.420160 0.000000 1.045690 
#    y 0.000000 1.723500 0.000000 
#    z 1.045690 0.000000 1.180750 
# 
# From -- ./inp_files/35708.got.cif
#   From: 2010.05.17/outbox.cif.g08.bks.cpg/sg15_18_cif.got.tgz:35708.got - 2010.06.03 18:47:42.
