data_PCOD9281471
_publ_section_title
;
Structure prediction by ZEFSAII (Michael W. Deem and Ramdas Pophale) SiO2 
 PCOD9281471
Probable space group: C 2/C
;
_chemical_formula_sum "Si O2"
_cell_formula_units_Z 44
_cell_length_a 24.951994
_cell_length_b 8.730288
_cell_length_c 11.252523
_cell_angle_alpha 90.000000
_cell_angle_beta 60.810504
_cell_angle_gamma 90.000000
_cell_volume 2139.950377
_symmetry_space_group_name_H-M "C 2/C"
_symmetry_group_IT_number 15
_symmetry_cell_setting 'monoclinic'
loop_
_space_group_symop_operation_xyz
x,y,z
-x,y,1/2-z
-x,-y,-z
x,-y,1/2+z
1/2+x,1/2+y,z
1/2-x,1/2+y,1/2-z
1/2-x,1/2-y,-z
1/2+x,1/2-y,1/2+z
loop_
_atom_site_type_symbol
_atom_site_label
_atom_site_fract_x
_atom_site_fract_y
_atom_site_fract_z
Si Si1 0.764831 0.662163 0.602020
Si Si2 0.590754 0.760374 0.329244
Si Si3 0.000000 0.635358 0.750000
Si Si4 0.616609 0.982129 0.990364
Si Si5 0.319634 0.556178 0.159066
Si Si6 0.315724 0.713134 0.488400
O O1 0.750000 0.750000 0.500000
O O2 0.828938 0.577587 0.508156
O O3 0.713337 0.546455 0.705207
O O4 0.779960 0.789193 0.685507
O O5 0.525819 0.766567 0.332864
O O6 0.600007 0.919893 0.390950
O O7 0.611845 0.618733 0.389157
O O8 0.638495 0.741048 0.170247
O O9 0.943886 0.537413 0.864305
O O10 0.651750 0.819020 0.944217
O O11 0.315702 0.455270 0.044499
O O12 0.250000 0.750000 0.500000
#
# Coordination Sequence:
#
# PCOD9281471 Si02
#       6
#     8   8   4   8   8   8
#     4  11  22  37  60  92 124 154 190 241 303 364
#     4  10  22  40  59  85 118 155 201 250 295 348
#     4  10  22  40  64  86 114 160 210 252 292 346
#     4  10  21  38  62  88 119 158 201 246 293 352
#     4  11  22  36  59  92 123 154 192 241 303 367
#     4  11  21  36  60  91 124 156 189 240 305 364
#
# _framework density 20.561223999999999
#
# number of rings (size 3 to 8) (size 9 to 14) (size 15 to 20)
#    0.000    1.455    0.000    7.091    0.000    5.818 
#    0.000    3.636    0.000   26.182    0.000    0.000 
#    0.000    0.000    0.000    0.000    0.000    0.000 
#
# Total GULP energy -122640.782442 kJ/mol
# GULP energy per Si atom -5574.581020 kJ/mol
# Density = 2.051443 g / cm^3
# Si number density = 20.561224 Si / 1000 Ang^3
#
#
#
# Elastic Constant Matrix: (Units=GPa)
#
#
# Indices 1 2 3 4 5 6 
#
# 1 102.7319 43.8093 22.6949 0.0000 13.1885 0.0000
# 2 43.8093 109.4661 26.0415 0.0000 1.7975 0.0000
# 3 22.6949 26.0415 78.2226 0.0000 -12.1954 0.0000
# 4 0.0000 0.0000 0.0000 39.9540 0.0000 13.9599
# 5 13.1885 1.7975 -12.1954 0.0000 34.0667 0.0000
# 6 0.0000 0.0000 0.0000 13.9599 0.0000 25.0916
#
#
#
# Elastic Compliance Matrix: (Units=1/GPa)
#
#
# Indices 1 2 3 4 5 6 
#
# 1 0.013090 -0.004359 -0.003284 0.000000 -0.006014 0.000000
# 2 -0.004359 0.011478 -0.002529 0.000000 0.000176 0.000000
# 3 -0.003284 -0.002529 0.015673 0.000000 0.007016 0.000000
# 4 0.000000 0.000000 0.000000 0.031068 0.000000 -0.017285
# 5 -0.006014 0.000176 0.007016 0.000000 0.034184 0.000000
# 6 0.000000 0.000000 0.000000 -0.017285 0.000000 0.049471
#
#
# Mechanical properties :
#
#
# Convention : Reuss Voigt Hill
#
# Bulk Modulus (GPa) = 50.25945 52.83468 51.54706
# Shear Modulus (GPa) = 27.48130 33.01413 30.24771
#
# Velocity S-wave (km/s) = 3.65986 4.01140 3.83966
# Velocity P-wave (km/s) = 6.50818 6.87075 6.69192
#
# Compressibility (1/GPa) = 0.01989676
#
# Stress axis : x y z
#
# Youngs Moduli (GPa) = 76.39169 87.11952 63.80511
#
# Poissons Ratio (x) = 0.37974 0.20956
# Poissons Ratio (y) = 0.33298 0.16138
# Poissons Ratio (z) = 0.25090 0.22035
#
# Static dielectric constant tensor:
#      x y z
#    x 1.795920 0.000000 0.048570 
#    y 0.000000 1.803620 0.000000 
#    z 0.048570 0.000000 1.753490 
# 
# From -- ./inp_files/116535.got.cif
#   From: 2010.05.17/outbox.cif.g08.bks.cpg/sg15_59_cif.got.tgz:116535.got - 2010.06.03 18:47:42.
