data_PCOD9281894
_publ_section_title
;
Structure prediction by ZEFSAII (Michael W. Deem and Ramdas Pophale) SiO2 
 PCOD9281894
Probable space group: C 2/C
;
_chemical_formula_sum "Si O2"
_cell_formula_units_Z 56
_cell_length_a 10.210833
_cell_length_b 32.677937
_cell_length_c 9.035103
_cell_angle_alpha 90.000000
_cell_angle_beta 71.713143
_cell_angle_gamma 90.000000
_cell_volume 2862.481762
_symmetry_space_group_name_H-M "C 2/C"
_symmetry_group_IT_number 15
_symmetry_cell_setting 'monoclinic'
loop_
_space_group_symop_operation_xyz
x,y,z
-x,y,1/2-z
-x,-y,-z
x,-y,1/2+z
1/2+x,1/2+y,z
1/2-x,1/2+y,1/2-z
1/2-x,1/2-y,-z
1/2+x,1/2-y,1/2+z
loop_
_atom_site_type_symbol
_atom_site_label
_atom_site_fract_x
_atom_site_fract_y
_atom_site_fract_z
Si Si1 0.835790 0.458819 0.986202
Si Si2 0.838476 0.454650 0.632558
Si Si3 0.253221 0.380966 0.325191
Si Si4 0.500000 0.681243 0.750000
Si Si5 0.396930 0.738907 0.028892
Si Si6 0.224516 0.874078 0.533507
Si Si7 0.995863 0.673301 0.929081
Si Si8 0.500000 0.316256 0.750000
O O1 0.824407 0.459279 0.813584
O O2 0.997936 0.449006 0.962634
O O3 0.801039 0.503064 0.065208
O O4 0.742416 0.424068 0.094191
O O5 0.748273 0.416215 0.612326
O O6 0.371597 0.348539 0.316395
O O7 0.113130 0.359229 0.426852
O O8 0.258438 0.385207 0.145722
O O9 0.506131 0.711499 0.609817
O O10 0.468085 0.782422 0.025250
O O11 0.402909 0.713226 0.181694
O O12 0.250000 0.750000 0.000000
O O13 0.350528 0.844163 0.529568
O O14 0.090013 0.847460 0.617775
O O15 0.000000 0.676096 0.750000
#
# Coordination Sequence:
#
# PCOD9281894 Si02
#       8
#     8   8   8   4   8   8   8   4
#     4  10  21  38  65  99 135 168 223 275 331 412
#     4  10  21  38  65  99 131 174 217 277 338 397
#     4  11  22  42  63  96 133 171 220 273 340 405
#     4  12  26  42  63  98 132 178 221 284 338 398
#     4  12  26  45  66  94 132 179 231 286 337 403
#     4  11  24  41  66  94 131 177 216 280 342 401
#     4  10  22  40  66  91 126 173 223 275 339 401
#     4  12  28  46  65  96 138 178 233 284 340 412
#
# _framework density 19.563444
#
# number of rings (size 3 to 8) (size 9 to 14) (size 15 to 20)
#    0.000    1.143    5.000    0.857    4.000    1.714 
#    0.000    0.714    0.000    3.429    0.000    0.000 
#    0.000    0.000    0.000    0.000    0.000    0.000 
#
# Total GULP energy -156278.234641 kJ/mol
# GULP energy per Si atom -5581.365523 kJ/mol
# Density = 1.951892 g / cm^3
# Si number density = 19.563444 Si / 1000 Ang^3
#
#
#
# Elastic Constant Matrix: (Units=GPa)
#
#
# Indices 1 2 3 4 5 6 
#
# 1 43.1353 37.5588 7.1558 0.0000 -9.5920 0.0000
# 2 37.5588 175.9528 52.1440 0.0000 5.5063 0.0000
# 3 7.1558 52.1440 58.6224 0.0000 -5.5236 0.0000
# 4 0.0000 0.0000 0.0000 46.4128 0.0000 5.4263
# 5 -9.5920 5.5063 -5.5236 0.0000 23.1365 0.0000
# 6 0.0000 0.0000 0.0000 5.4263 0.0000 35.0085
#
#
#
# Elastic Compliance Matrix: (Units=1/GPa)
#
#
# Indices 1 2 3 4 5 6 
#
# 1 0.034774 -0.009839 0.006226 0.000000 0.018245 0.000000
# 2 -0.009839 0.010798 -0.009238 0.000000 -0.008855 0.000000
# 3 0.006226 -0.009238 0.025541 0.000000 0.010877 0.000000
# 4 0.000000 0.000000 0.000000 0.021943 0.000000 -0.003401
# 5 0.018245 -0.008855 0.010877 0.000000 0.055490 0.000000
# 6 0.000000 0.000000 0.000000 -0.003401 0.000000 0.029092
#
#
# Mechanical properties :
#
#
# Convention : Reuss Voigt Hill
#
# Bulk Modulus (GPa) = 22.02138 52.38087 37.20112
# Shear Modulus (GPa) = 22.88562 32.96835 27.92698
#
# Velocity S-wave (km/s) = 3.42397 4.10957 3.78234
# Velocity P-wave (km/s) = 5.18770 7.02504 6.17509
#
# Compressibility (1/GPa) = 0.04541041
#
# Stress axis : x y z
#
# Youngs Moduli (GPa) = 28.75717 92.60580 39.15308
#
# Poissons Ratio (x) = 0.91113 -0.24376
# Poissons Ratio (y) = 0.28294 0.36171
# Poissons Ratio (z) = -0.17904 0.85553
#
# Static dielectric constant tensor:
#      x y z
#    x 1.701490 0.000000 0.037910 
#    y 0.000000 1.664160 0.000000 
#    z 0.037910 0.000000 1.664670 
# 
# From -- ./inp_files/34244.got.cif
#   From: 2010.05.17/outbox.cif.g08.bks.cpg/sg15_18_cif.got.tgz:34244.got - 2010.06.03 18:47:42.
