data_PCOD9281749
_publ_section_title
;
Structure prediction by ZEFSAII (Michael W. Deem and Ramdas Pophale) SiO2 
 PCOD9281749
Probable space group: C 2/C
;
_chemical_formula_sum "Si O2"
_cell_formula_units_Z 48
_cell_length_a 8.324891
_cell_length_b 28.455525
_cell_length_c 16.102945
_cell_angle_alpha 90.000000
_cell_angle_beta 144.634287
_cell_angle_gamma 90.000000
_cell_volume 2207.872283
_symmetry_space_group_name_H-M "C 2/C"
_symmetry_group_IT_number 15
_symmetry_cell_setting 'monoclinic'
loop_
_space_group_symop_operation_xyz
x,y,z
-x,y,1/2-z
-x,-y,-z
x,-y,1/2+z
1/2+x,1/2+y,z
1/2-x,1/2+y,1/2-z
1/2-x,1/2-y,-z
1/2+x,1/2-y,1/2+z
loop_
_atom_site_type_symbol
_atom_site_label
_atom_site_fract_x
_atom_site_fract_y
_atom_site_fract_z
Si Si1 0.702845 0.750000 0.579217
Si Si2 0.250000 0.014873 0.500000
Si Si3 0.299357 0.567144 0.391028
Si Si4 0.796786 0.352609 0.919807
Si Si5 0.700643 0.932856 0.108972
Si Si6 0.703214 0.352609 0.080194
O O1 0.750000 0.750000 0.500000
O O2 0.577003 0.800949 0.547041
O O3 0.577004 0.699051 0.547041
O O4 0.000000 0.750000 0.750000
O O5 0.522036 0.047470 0.611023
O O6 0.977964 0.047470 0.388976
O O7 0.257151 0.979484 0.579636
O O8 0.242849 0.979484 0.420365
O O9 0.501887 0.604735 0.518785
O O10 0.000000 0.589205 0.250000
O O11 0.500000 0.356948 0.750000
O O12 0.750001 0.354041 0.000000
O O13 0.998114 0.395265 0.981215
O O14 0.000000 0.910795 0.250000
O O15 0.000000 0.356948 0.250000
#
# Coordination Sequence:
#
# PCOD9281749 Si02
#       6
#     8   8   8   8   8   8
#     4   8  16  34  59  89 118 161 198 242 304 372
#     4  10  24  40  58  86 126 164 210 250 314 366
#     4  11  23  39  62  89 123 162 211 254 312 360
#     4  10  21  38  64  91 125 160 205 251 308 367
#     4  11  23  39  62  89 123 162 211 254 312 360
#     4  10  21  38  64  91 125 160 205 251 308 367
#
# _framework density 21.740387999999999
#
# number of rings (size 3 to 8) (size 9 to 14) (size 15 to 20)
#    0.000    2.000    1.667    1.000    4.667    5.333 
#    0.000    0.833    0.000    1.000    0.000    0.000 
#    0.000    0.000    0.000    0.000    0.000    0.000 
#
# Total GULP energy -133868.136172 kJ/mol
# GULP energy per Si atom -5577.839007 kJ/mol
# Density = 2.169091 g / cm^3
# Si number density = 21.740388 Si / 1000 Ang^3
#
#
#
# Elastic Constant Matrix: (Units=GPa)
#
#
# Indices 1 2 3 4 5 6 
#
# 1 55.5496 19.6937 38.1104 0.0000 9.4861 0.0000
# 2 19.6937 169.6287 48.6480 0.0000 25.8488 0.0000
# 3 38.1104 48.6480 137.0319 0.0000 6.9643 0.0000
# 4 0.0000 0.0000 0.0000 -5.1111 0.0000 -80.3217
# 5 9.4861 25.8488 6.9643 0.0000 36.7153 0.0000
# 6 0.0000 0.0000 0.0000 -80.3217 0.0000 -154.7296
#
#
#
# Elastic Compliance Matrix: (Units=1/GPa)
#
#
# Indices 1 2 3 4 5 6 
#
# 1 0.023057 -0.000220 -0.006098 0.000000 -0.004646 0.000000
# 2 -0.000220 0.007284 -0.002289 0.000000 -0.004637 0.000000
# 3 -0.006098 -0.002289 0.009738 0.000000 0.001340 0.000000
# 4 0.000000 0.000000 0.000000 0.027334 0.000000 -0.014189
# 5 -0.004646 -0.004637 0.001340 0.000000 0.031447 0.000000
# 6 0.000000 0.000000 0.000000 -0.014189 0.000000 0.000903
#
#
# Mechanical properties :
#
#
# Convention : Reuss Voigt Hill
#
# Bulk Modulus (GPa) = 43.73614 63.90160 53.81887
# Shear Modulus (GPa) = 40.12872 -7.57454 16.27709
#
# Velocity S-wave (km/s) = 4.30095 -1.86860 2.73921
# Velocity P-wave (km/s) = 6.69518 4.98009 5.90029
#
# Compressibility (1/GPa) = 0.02286439
#
# Stress axis : x y z
#
# Youngs Moduli (GPa) = 43.37074 137.28999 102.68952
#
# Poissons Ratio (x) = 0.03021 0.62622
# Poissons Ratio (y) = 0.00954 0.23506
# Poissons Ratio (z) = 0.26448 0.31426
#
# Static dielectric constant tensor:
#      x y z
#    x 1.854760 0.000000 -0.007240 
#    y 0.000000 1.833700 0.000000 
#    z -0.007240 0.000000 1.788540 
# 
# From -- ./inp_files/194185.got.cif
#   From: 2010.05.17/outbox.cif.g08.bks.cpg/sg15_98_cif.got.tgz:194185.got - 2010.06.03 18:47:42.
