data_PCOD9281646
_publ_section_title
;
Structure prediction by ZEFSAII (Michael W. Deem and Ramdas Pophale) SiO2 
 PCOD9281646
Probable space group: C 2/C
;
_chemical_formula_sum "Si O2"
_cell_formula_units_Z 52
_cell_length_a 14.029790
_cell_length_b 12.690142
_cell_length_c 14.019351
_cell_angle_alpha 90.000000
_cell_angle_beta 119.729187
_cell_angle_gamma 90.000000
_cell_volume 2167.478904
_symmetry_space_group_name_H-M "C 2/C"
_symmetry_group_IT_number 15
_symmetry_cell_setting 'monoclinic'
loop_
_space_group_symop_operation_xyz
x,y,z
-x,y,1/2-z
-x,-y,-z
x,-y,1/2+z
1/2+x,1/2+y,z
1/2-x,1/2+y,1/2-z
1/2-x,1/2-y,-z
1/2+x,1/2-y,1/2+z
loop_
_atom_site_type_symbol
_atom_site_label
_atom_site_fract_x
_atom_site_fract_y
_atom_site_fract_z
Si Si1 0.869777 0.111746 0.882880
Si Si2 0.171598 0.720174 0.548881
Si Si3 0.369925 0.002299 0.409433
Si Si4 0.806457 0.639339 0.553968
Si Si5 0.077376 0.115863 0.130526
Si Si6 0.945135 0.681465 0.326238
Si Si7 0.000000 0.263281 0.250000
O O1 0.758073 0.099059 0.886026
O O2 0.876831 0.214033 0.819590
O O3 0.897322 0.005579 0.840141
O O4 0.962507 0.120813 0.013723
O O5 0.250000 0.750000 0.500000
O O6 0.184352 0.613491 0.618108
O O7 0.163907 0.825192 0.606914
O O8 0.051983 0.696509 0.445663
O O9 0.308753 0.063111 0.465073
O O10 0.375255 0.078646 0.320443
O O11 0.500000 0.000000 0.500000
O O12 0.750000 0.750000 0.500000
O O13 0.930218 0.665026 0.645141
O O14 0.072181 0.185214 0.222386
O O15 0.000000 0.676615 0.250000
#
# Coordination Sequence:
#
# PCOD9281646 Si02
#       7
#     8   8   8   8   8   8   4
#     4  10  21  42  69  92 136 178 218 282 356 385
#     4  10  21  42  63  91 134 168 216 275 339 389
#     4  10  21  42  66  94 130 178 216 269 345 393
#     4  12  22  44  69  96 137 178 223 286 338 401
#     4  10  22  41  65  99 130 174 226 282 331 413
#     4  10  21  38  63  92 129 173 220 264 327 410
#     4  12  24  40  66 102 136 170 236 268 330 422
#
# _framework density 23.991005999999999
#
# number of rings (size 3 to 8) (size 9 to 14) (size 15 to 20)
#    0.000    1.538    3.077    2.769    1.077    1.231 
#   12.462    3.077    0.000    0.000    0.000    0.000 
#    0.000    0.000    0.000    0.000    0.000    0.000 
#
# Total GULP energy -145461.838811 kJ/mol
# GULP energy per Si atom -5594.686108 kJ/mol
# Density = 2.393640 g / cm^3
# Si number density = 23.991006 Si / 1000 Ang^3
#
#
#
# Elastic Constant Matrix: (Units=GPa)
#
#
# Indices 1 2 3 4 5 6 
#
# 1 109.2867 47.1856 11.8956 0.0000 -35.7667 0.0000
# 2 47.1856 134.5024 26.4764 0.0000 -8.0202 0.0000
# 3 11.8956 26.4764 56.1947 0.0000 -6.1769 0.0000
# 4 0.0000 0.0000 0.0000 19.8473 0.0000 -1.9118
# 5 -35.7667 -8.0202 -6.1769 0.0000 53.9760 0.0000
# 6 0.0000 0.0000 0.0000 -1.9118 0.0000 38.4444
#
#
#
# Elastic Compliance Matrix: (Units=1/GPa)
#
#
# Indices 1 2 3 4 5 6 
#
# 1 0.013806 -0.004348 0.000061 0.000000 0.008509 0.000000
# 2 -0.004348 0.009597 -0.003809 0.000000 -0.001891 0.000000
# 3 0.000061 -0.003809 0.019768 0.000000 0.001737 0.000000
# 4 0.000000 0.000000 0.000000 0.050627 0.000000 0.002518
# 5 0.008509 -0.001891 0.001737 0.000000 0.024083 0.000000
# 6 0.000000 0.000000 0.000000 0.002518 0.000000 0.026137
#
#
# Mechanical properties :
#
#
# Convention : Reuss Voigt Hill
#
# Bulk Modulus (GPa) = 37.06549 52.34433 44.70491
# Shear Modulus (GPa) = 29.55040 36.74862 33.14951
#
# Velocity S-wave (km/s) = 3.51341 3.91802 3.72122
# Velocity P-wave (km/s) = 5.65172 6.50643 6.09408
#
# Compressibility (1/GPa) = 0.02697928
#
# Stress axis : x y z
#
# Youngs Moduli (GPa) = 72.43401 104.19688 50.58701
#
# Poissons Ratio (x) = 0.45304 -0.00311
# Poissons Ratio (y) = 0.31494 0.19270
# Poissons Ratio (z) = -0.00445 0.39691
#
# Static dielectric constant tensor:
#      x y z
#    x 1.861900 0.000000 0.111230 
#    y 0.000000 1.943350 0.000000 
#    z 0.111230 0.000000 1.974620 
# 
# From -- ./inp_files/152707.got.cif
#   From: 2010.05.17/outbox.cif.g08.bks.cpg/sg15_77_cif.got.tgz:152707.got - 2010.06.03 18:47:42.
