data_PCOD9281688
_publ_section_title
;
Structure prediction by ZEFSAII (Michael W. Deem and Ramdas Pophale) SiO2 
 PCOD9281688
Probable space group: C 2/C
;
_chemical_formula_sum "Si O2"
_cell_formula_units_Z 36
_cell_length_a 13.947286
_cell_length_b 26.894062
_cell_length_c 4.944205
_cell_angle_alpha 90.000000
_cell_angle_beta 114.054272
_cell_angle_gamma 90.000000
_cell_volume 1693.516183
_symmetry_space_group_name_H-M "C 2/C"
_symmetry_group_IT_number 15
_symmetry_cell_setting 'monoclinic'
loop_
_space_group_symop_operation_xyz
x,y,z
-x,y,1/2-z
-x,-y,-z
x,-y,1/2+z
1/2+x,1/2+y,z
1/2-x,1/2+y,1/2-z
1/2-x,1/2-y,-z
1/2+x,1/2-y,1/2+z
loop_
_atom_site_type_symbol
_atom_site_label
_atom_site_fract_x
_atom_site_fract_y
_atom_site_fract_z
Si Si1 0.500000 0.584697 0.250000
Si Si2 0.000000 0.688590 0.750000
Si Si3 0.346877 0.663244 0.817602
Si Si4 0.286852 0.138658 0.348948
Si Si5 0.000000 0.244395 0.750000
Si Si6 0.800550 0.967064 0.749237
O O1 0.567487 0.620304 0.523759
O O2 0.581617 0.552194 0.173884
O O3 0.904332 0.656548 0.524582
O O4 0.038806 0.722326 0.544498
O O5 0.260525 0.646371 0.502338
O O6 0.409055 0.710035 0.771751
O O7 0.288160 0.669726 0.034455
O O8 0.271133 0.080497 0.397585
O O9 0.784032 0.013225 0.530517
#
# Coordination Sequence:
#
# PCOD9281688 Si02
#       6
#     4   4   8   8   4   8
#     4  10  21  38  63  96 132 160 185 244 319 382
#     4  12  27  44  64  87 122 167 224 262 293 350
#     4  11  23  41  65  94 133 162 194 247 319 377
#     4  11  25  44  62  89 128 168 203 260 312 350
#     4  12  24  40  67  99 120 161 209 248 308 386
#     4  11  22  37  61  92 122 158 204 248 305 378
#
# _framework density 21.257546000000001
#
# number of rings (size 3 to 8) (size 9 to 14) (size 15 to 20)
#    0.000    0.889    0.000    9.333    0.000    8.889 
#    0.000    1.111    0.000    0.000    0.000    0.000 
#    0.000    0.000    0.000    0.000    0.000    0.000 
#
# Total GULP energy -100790.685017 kJ/mol
# GULP energy per Si atom -5599.482501 kJ/mol
# Density = 2.120916 g / cm^3
# Si number density = 21.257546 Si / 1000 Ang^3
#
#
#
# Elastic Constant Matrix: (Units=GPa)
#
#
# Indices 1 2 3 4 5 6 
#
# 1 33.3333 20.2040 8.5333 0.0000 13.2983 0.0000
# 2 20.2040 75.7104 28.6303 0.0000 27.5426 0.0000
# 3 8.5333 28.6303 119.7139 0.0000 11.7603 0.0000
# 4 0.0000 0.0000 0.0000 23.2164 0.0000 11.1212
# 5 13.2983 27.5426 11.7603 0.0000 36.8995 0.0000
# 6 0.0000 0.0000 0.0000 11.1212 0.0000 20.4304
#
#
#
# Elastic Compliance Matrix: (Units=1/GPa)
#
#
# Indices 1 2 3 4 5 6 
#
# 1 0.037563 -0.006926 -0.000206 0.000000 -0.008302 0.000000
# 2 -0.006926 0.020599 -0.003270 0.000000 -0.011838 0.000000
# 3 -0.000206 -0.003270 0.009191 0.000000 -0.000414 0.000000
# 4 0.000000 0.000000 0.000000 0.058266 0.000000 -0.031717
# 5 -0.008302 -0.011838 -0.000414 0.000000 0.039061 0.000000
# 6 0.000000 0.000000 0.000000 -0.031717 0.000000 0.066212
#
#
# Mechanical properties :
#
#
# Convention : Reuss Voigt Hill
#
# Bulk Modulus (GPa) = 21.48234 38.16588 29.82411
# Shear Modulus (GPa) = 18.71181 27.53525 23.12353
#
# Velocity S-wave (km/s) = 2.97011 3.60296 3.30173
# Velocity P-wave (km/s) = 4.67865 5.94150 5.34748
#
# Compressibility (1/GPa) = 0.04654986
#
# Stress axis : x y z
#
# Youngs Moduli (GPa) = 26.62211 48.54495 108.80662
#
# Poissons Ratio (x) = 0.33623 0.02236
# Poissons Ratio (y) = 0.18439 0.35579
# Poissons Ratio (z) = 0.00547 0.15874
#
# Static dielectric constant tensor:
#      x y z
#    x 1.750510 0.000000 -0.014320 
#    y 0.000000 1.772370 0.000000 
#    z -0.014320 0.000000 1.745360 
# 
# From -- ./inp_files/5323.got.cif
#   From: 2010.05.17/outbox.cif.g08.bks.cpg/sg15_3_cif.got.tgz:5323.got - 2010.06.03 18:47:42.
