data_PCOD9281814
_publ_section_title
;
Structure prediction by ZEFSAII (Michael W. Deem and Ramdas Pophale) SiO2 
 PCOD9281814
Probable space group: C 2/C
;
_chemical_formula_sum "Si O2"
_cell_formula_units_Z 64
_cell_length_a 9.527137
_cell_length_b 26.165710
_cell_length_c 11.805377
_cell_angle_alpha 90.000000
_cell_angle_beta 82.085641
_cell_angle_gamma 90.000000
_cell_volume 2914.864072
_symmetry_space_group_name_H-M "C 2/C"
_symmetry_group_IT_number 15
_symmetry_cell_setting 'monoclinic'
loop_
_space_group_symop_operation_xyz
x,y,z
-x,y,1/2-z
-x,-y,-z
x,-y,1/2+z
1/2+x,1/2+y,z
1/2-x,1/2+y,1/2-z
1/2-x,1/2-y,-z
1/2+x,1/2-y,1/2+z
loop_
_atom_site_type_symbol
_atom_site_label
_atom_site_fract_x
_atom_site_fract_y
_atom_site_fract_z
Si Si1 0.112634 0.570359 0.438417
Si Si2 0.334143 0.504652 0.275267
Si Si3 0.457805 0.214497 0.881383
Si Si4 0.279200 0.351774 0.051692
Si Si5 0.960527 0.833593 0.627640
Si Si6 0.166388 0.112001 0.709230
Si Si7 0.895097 0.509820 0.362612
Si Si8 0.718966 0.811284 0.494696
O O1 0.239394 0.544309 0.354269
O O2 0.173452 0.622685 0.474388
O O3 0.090517 0.533324 0.546566
O O4 0.962642 0.564168 0.391797
O O5 0.500000 0.513997 0.250000
O O6 0.307518 0.447250 0.326130
O O7 0.265740 0.509694 0.158724
O O8 0.500000 0.194873 0.750000
O O9 0.291838 0.203019 0.917241
O O10 0.492835 0.274225 0.875966
O O11 0.556113 0.190163 0.969440
O O12 0.268405 0.379674 0.173520
O O13 0.434431 0.355956 0.980146
O O14 0.000000 0.853527 0.750000
O O15 0.798146 0.834104 0.598740
O O16 0.212502 0.154896 0.614592
O O17 0.000000 0.117489 0.750000
O O18 0.000000 0.493620 0.250000
O O19 0.750000 0.750000 0.500000
#
# Coordination Sequence:
#
# PCOD9281814 Si02
#       8
#     8   8   8   8   8   8   8   8
#     4  10  22  38  59  90 124 168 204 267 332 375
#     4  10  22  40  62  91 126 163 220 266 325 380
#     4  10  21  38  64  98 127 164 212 271 321 384
#     4  12  22  39  66  98 125 162 228 265 318 385
#     4  10  23  43  63  89 136 175 209 259 331 391
#     4  11  21  39  66 101 124 164 220 279 312 382
#     4   9  19  39  58  82 121 163 202 256 323 380
#     4  10  21  40  63  97 135 166 208 266 335 381
#
# _framework density 21.956426
#
# number of rings (size 3 to 8) (size 9 to 14) (size 15 to 20)
#    0.000    1.750    3.750    0.375    0.000    4.500 
#    0.000    8.125    0.000    0.000    0.000    0.000 
#    0.000    0.000    0.000    0.000    0.000    0.000 
#
# Total GULP energy -178198.468572 kJ/mol
# GULP energy per Si atom -5568.702143 kJ/mol
# Density = 2.190645 g / cm^3
# Si number density = 21.956426 Si / 1000 Ang^3
#
#
#
# Elastic Constant Matrix: (Units=GPa)
#
#
# Indices 1 2 3 4 5 6 
#
# 1 82.6460 12.7154 -0.0199 0.0000 23.4201 0.0000
# 2 12.7154 57.1995 4.8174 0.0000 2.5245 0.0000
# 3 -0.0199 4.8174 69.7528 0.0000 15.4038 0.0000
# 4 0.0000 0.0000 0.0000 22.3506 0.0000 0.3722
# 5 23.4201 2.5245 15.4038 0.0000 18.4315 0.0000
# 6 0.0000 0.0000 0.0000 0.3722 0.0000 24.4861
#
#
#
# Elastic Compliance Matrix: (Units=1/GPa)
#
#
# Indices 1 2 3 4 5 6 
#
# 1 0.022616 -0.004162 0.007989 0.000000 -0.034843 0.000000
# 2 -0.004162 0.018395 -0.002309 0.000000 0.004700 0.000000
# 3 0.007989 -0.002309 0.020443 0.000000 -0.026919 0.000000
# 4 0.000000 0.000000 0.000000 0.044753 0.000000 -0.000680
# 5 -0.034843 0.004700 -0.026919 0.000000 0.120382 0.000000
# 6 0.000000 0.000000 0.000000 -0.000680 0.000000 0.040850
#
#
# Mechanical properties :
#
#
# Convention : Reuss Voigt Hill
#
# Bulk Modulus (GPa) = 15.50705 27.18045 21.34375
# Shear Modulus (GPa) = 17.48858 25.85934 21.67396
#
# Velocity S-wave (km/s) = 2.82532 3.43557 3.14528
# Velocity P-wave (km/s) = 4.20966 5.30506 4.78878
#
# Compressibility (1/GPa) = 0.06448680
#
# Stress axis : x y z
#
# Youngs Moduli (GPa) = 44.21660 54.36239 48.91709
#
# Poissons Ratio (x) = 0.22628 -0.39077
# Poissons Ratio (y) = 0.18405 0.11297
# Poissons Ratio (z) = -0.35322 0.12555
#
# Static dielectric constant tensor:
#      x y z
#    x 1.836830 0.000000 0.052710 
#    y 0.000000 1.821870 0.000000 
#    z 0.052710 0.000000 1.888790 
# 
# From -- ./inp_files/82618.got.cif
#   From: 2010.05.17/outbox.cif.g08.bks.cpg/sg15_42_cif.got.tgz:82618.got - 2010.06.03 18:47:42.
