data_PCOD9281677
_publ_section_title
;
Structure prediction by ZEFSAII (Michael W. Deem and Ramdas Pophale) SiO2 
 PCOD9281677
Probable space group: C 2/C
;
_chemical_formula_sum "Si O2"
_cell_formula_units_Z 56
_cell_length_a 18.173833
_cell_length_b 12.418943
_cell_length_c 10.945675
_cell_angle_alpha 90.000000
_cell_angle_beta 98.580262
_cell_angle_gamma 90.000000
_cell_volume 2442.787085
_symmetry_space_group_name_H-M "C 2/C"
_symmetry_group_IT_number 15
_symmetry_cell_setting 'monoclinic'
loop_
_space_group_symop_operation_xyz
x,y,z
-x,y,1/2-z
-x,-y,-z
x,-y,1/2+z
1/2+x,1/2+y,z
1/2-x,1/2+y,1/2-z
1/2-x,1/2-y,-z
1/2+x,1/2-y,1/2+z
loop_
_atom_site_type_symbol
_atom_site_label
_atom_site_fract_x
_atom_site_fract_y
_atom_site_fract_z
Si Si1 0.322504 0.263447 0.140023
Si Si2 0.078222 0.709052 0.117620
Si Si3 0.314301 0.338761 0.773698
Si Si4 0.191056 0.669271 0.927808
Si Si5 0.758815 0.486417 0.421689
Si Si6 0.432026 0.977920 0.388260
Si Si7 0.567210 0.251997 0.548852
O O1 0.372004 0.274101 0.274793
O O2 0.256463 0.182749 0.158244
O O3 0.285646 0.376341 0.095240
O O4 0.372586 0.222139 0.041193
O O5 0.063901 0.592981 0.180321
O O6 0.006476 0.770855 0.049485
O O7 0.122694 0.677043 0.005043
O O8 0.323171 0.224857 0.703656
O O9 0.289254 0.431344 0.674783
O O10 0.391931 0.346483 0.865920
O O11 0.250000 0.750000 0.000000
O O12 0.226658 0.550893 0.947033
O O13 0.843290 0.473695 0.394096
O O14 0.448689 0.851784 0.368916
O O15 0.500000 0.000000 0.500000
#
# Coordination Sequence:
#
# PCOD9281677 Si02
#       7
#     8   8   8   8   8   8   8
#     4  12  22  40  65  94 129 170 210 263 324 385
#     4  10  21  43  64  90 129 169 207 264 331 375
#     4  11  22  40  62  93 126 168 215 267 313 384
#     4   9  18  40  65  85 118 167 214 262 311 371
#     4  10  21  38  63  96 120 171 220 253 317 391
#     4   9  18  37  59  89 124 157 201 258 320 378
#     4  11  24  39  61  97 132 160 211 268 325 389
#
# _framework density 22.924633
#
# number of rings (size 3 to 8) (size 9 to 14) (size 15 to 20)
#    0.000    1.714    5.714    0.857    0.000    1.714 
#    7.714    0.714    6.286    0.000    0.000    0.000 
#    0.000    0.000    0.000    0.000    0.000    0.000 
#
# Total GULP energy -155900.341866 kJ/mol
# GULP energy per Si atom -5567.869352 kJ/mol
# Density = 2.287246 g / cm^3
# Si number density = 22.924633 Si / 1000 Ang^3
#
#
#
# Elastic Constant Matrix: (Units=GPa)
#
#
# Indices 1 2 3 4 5 6 
#
# 1 107.7204 26.7611 48.1550 0.0000 27.9306 0.0000
# 2 26.7611 62.1324 30.4472 0.0000 4.6098 0.0000
# 3 48.1550 30.4472 95.7286 0.0000 32.4811 0.0000
# 4 0.0000 0.0000 0.0000 36.8120 0.0000 16.2288
# 5 27.9306 4.6098 32.4811 0.0000 57.5755 0.0000
# 6 0.0000 0.0000 0.0000 16.2288 0.0000 27.1090
#
#
#
# Elastic Compliance Matrix: (Units=1/GPa)
#
#
# Indices 1 2 3 4 5 6 
#
# 1 0.012918 -0.003213 -0.004251 0.000000 -0.003611 0.000000
# 2 -0.003213 0.020124 -0.005895 0.000000 0.003273 0.000000
# 3 -0.004251 -0.005895 0.016819 0.000000 -0.006954 0.000000
# 4 0.000000 0.000000 0.000000 0.036905 0.000000 -0.022093
# 5 -0.003611 0.003273 -0.006954 0.000000 0.022782 0.000000
# 6 0.000000 0.000000 0.000000 -0.022093 0.000000 0.050114
#
#
# Mechanical properties :
#
#
# Convention : Reuss Voigt Hill
#
# Bulk Modulus (GPa) = 43.20824 52.92312 48.06568
# Shear Modulus (GPa) = 25.76053 34.98051 30.37052
#
# Velocity S-wave (km/s) = 3.35581 3.91050 3.64373
# Velocity P-wave (km/s) = 5.82273 6.59736 6.22211
#
# Compressibility (1/GPa) = 0.02314373
#
# Stress axis : x y z
#
# Youngs Moduli (GPa) = 77.40983 49.69070 59.45556
#
# Poissons Ratio (x) = 0.15965 0.25275
# Poissons Ratio (y) = 0.24871 0.35050
# Poissons Ratio (z) = 0.32908 0.29293
#
# Static dielectric constant tensor:
#      x y z
#    x 1.941060 0.000000 -0.084410 
#    y 0.000000 1.892990 0.000000 
#    z -0.084410 0.000000 1.986640 
# 
# From -- ./inp_files/111673.got.cif
#   From: 2010.05.17/outbox.cif.g08.bks.cpg/sg15_56_cif.got.tgz:111673.got - 2010.06.03 18:47:42.
