data_PCOD9281153
_publ_section_title
;
Structure prediction by ZEFSAII (Michael W. Deem and Ramdas Pophale) SiO2 
 PCOD9281153
Probable space group: C 2/C
;
_chemical_formula_sum "Si O2"
_cell_formula_units_Z 44
_cell_length_a 14.620585
_cell_length_b 9.114325
_cell_length_c 26.053291
_cell_angle_alpha 90.000000
_cell_angle_beta 137.579307
_cell_angle_gamma 90.000000
_cell_volume 2341.953453
_symmetry_space_group_name_H-M "C 2/C"
_symmetry_group_IT_number 15
_symmetry_cell_setting 'monoclinic'
loop_
_space_group_symop_operation_xyz
x,y,z
-x,y,1/2-z
-x,-y,-z
x,-y,1/2+z
1/2+x,1/2+y,z
1/2-x,1/2+y,1/2-z
1/2-x,1/2-y,-z
1/2+x,1/2-y,1/2+z
loop_
_atom_site_type_symbol
_atom_site_label
_atom_site_fract_x
_atom_site_fract_y
_atom_site_fract_z
Si Si1 0.000000 0.213015 0.750000
Si Si2 0.620588 0.907228 0.156467
Si Si3 0.275616 0.903602 0.409266
Si Si4 0.219942 0.608422 0.286007
Si Si5 0.350459 0.434452 0.944989
Si Si6 0.302913 0.915402 0.024650
O O1 0.880340 0.123386 0.672858
O O2 0.922455 0.313450 0.759269
O O3 0.649041 0.962848 0.110313
O O4 0.674571 0.740244 0.180427
O O5 0.462478 0.915128 0.102590
O O6 0.703336 0.001556 0.231731
O O7 0.341023 0.742574 0.446436
O O8 0.283645 0.003801 0.462215
O O9 0.268811 0.531660 0.358671
O O10 0.278852 0.502508 0.964681
O O11 0.500000 0.500000 0.000000
O O12 0.250000 0.750000 0.000000
#
# Coordination Sequence:
#
# PCOD9281153 Si02
#       6
#     4   8   8   8   8   8
#     4   8  18  38  58  80 110 152 198 232 282 352
#     4  10  22  39  60  86 118 152 192 242 292 348
#     4  10  22  39  60  85 117 157 194 236 294 356
#     4  10  21  38  59  84 113 151 193 237 288 345
#     4  10  22  40  61  85 116 158 199 239 290 357
#     4  12  24  38  59  89 121 152 194 248 296 346
#
# _framework density 18.787734
#
# number of rings (size 3 to 8) (size 9 to 14) (size 15 to 20)
#    0.000    2.182    0.000    5.455    0.000    8.727 
#    0.000    0.000    0.000    0.000    0.000    0.000 
#    0.000    0.000    0.000    0.000    0.000    0.000 
#
# Total GULP energy -122849.666940 kJ/mol
# GULP energy per Si atom -5584.075770 kJ/mol
# Density = 1.874497 g / cm^3
# Si number density = 18.787734 Si / 1000 Ang^3
#
#
#
# Elastic Constant Matrix: (Units=GPa)
#
#
# Indices 1 2 3 4 5 6 
#
# 1 128.6905 42.0791 56.0256 0.0000 -15.4318 0.0000
# 2 42.0791 78.1133 48.7283 0.0000 -27.8102 0.0000
# 3 56.0256 48.7283 81.9703 0.0000 -11.5031 0.0000
# 4 0.0000 0.0000 0.0000 21.5433 0.0000 -17.0783
# 5 -15.4318 -27.8102 -11.5031 0.0000 51.3116 0.0000
# 6 0.0000 0.0000 0.0000 -17.0783 0.0000 28.4805
#
#
#
# Elastic Compliance Matrix: (Units=1/GPa)
#
#
# Indices 1 2 3 4 5 6 
#
# 1 0.011303 -0.001565 -0.006646 0.000000 0.001061 0.000000
# 2 -0.001565 0.025033 -0.012362 0.000000 0.010325 0.000000
# 3 -0.006646 -0.012362 0.023613 0.000000 -0.003405 0.000000
# 4 0.000000 0.000000 0.000000 0.088477 0.000000 0.053055
# 5 0.001061 0.010325 -0.003405 0.000000 0.024641 0.000000
# 6 0.000000 0.000000 0.000000 0.053055 0.000000 0.066926
#
#
# Mechanical properties :
#
#
# Convention : Reuss Voigt Hill
#
# Bulk Modulus (GPa) = 53.18641 64.71557 58.95099
# Shear Modulus (GPa) = 17.39693 29.72984 23.56338
#
# Velocity S-wave (km/s) = 3.04628 3.98226 3.54530
# Velocity P-wave (km/s) = 6.38308 7.46090 6.94293
#
# Compressibility (1/GPa) = 0.01880180
#
# Stress axis : x y z
#
# Youngs Moduli (GPa) = 88.47231 39.94725 42.34915
#
# Poissons Ratio (x) = 0.06252 0.28146
# Poissons Ratio (y) = 0.13847 0.52354
# Poissons Ratio (z) = 0.58800 0.49385
#
# Static dielectric constant tensor:
#      x y z
#    x 1.643560 0.000000 0.005650 
#    y 0.000000 1.642400 0.000000 
#    z 0.005650 0.000000 1.647550 
# 
# From -- ./inp_files/236216.got.cif
#   From: 2010.05.17/outbox.cif.g08.bks.cpg/sg15_119_cif.got.tgz:236216.got - 2010.06.03 18:47:42.
