data_PCOD9281450
_publ_section_title
;
Structure prediction by ZEFSAII (Michael W. Deem and Ramdas Pophale) SiO2 
 PCOD9281450
Probable space group: C 2/C
;
_chemical_formula_sum "Si O2"
_cell_formula_units_Z 56
_cell_length_a 9.084191
_cell_length_b 18.063892
_cell_length_c 17.658635
_cell_angle_alpha 90.000000
_cell_angle_beta 104.138273
_cell_angle_gamma 90.000000
_cell_volume 2809.934335
_symmetry_space_group_name_H-M "C 2/C"
_symmetry_group_IT_number 15
_symmetry_cell_setting 'monoclinic'
loop_
_space_group_symop_operation_xyz
x,y,z
-x,y,1/2-z
-x,-y,-z
x,-y,1/2+z
1/2+x,1/2+y,z
1/2-x,1/2+y,1/2-z
1/2-x,1/2-y,-z
1/2+x,1/2-y,1/2+z
loop_
_atom_site_type_symbol
_atom_site_label
_atom_site_fract_x
_atom_site_fract_y
_atom_site_fract_z
Si Si1 0.047215 0.641104 0.636565
Si Si2 0.572495 0.236373 0.488598
Si Si3 0.451471 0.033101 0.391665
Si Si4 0.964573 0.891919 0.433251
Si Si5 0.740247 0.182549 0.796517
Si Si6 0.741764 0.505218 0.998494
Si Si7 0.084074 0.677848 0.182837
O O1 0.045666 0.684080 0.557165
O O2 0.051543 0.553056 0.628928
O O3 0.190981 0.663000 0.705754
O O4 0.897177 0.662073 0.664903
O O5 0.750000 0.250000 0.500000
O O6 0.493825 0.317209 0.485224
O O7 0.508490 0.200342 0.403870
O O8 0.626141 0.046707 0.438115
O O9 0.397804 0.089877 0.321343
O O10 0.336473 0.039792 0.447655
O O11 0.886452 0.862018 0.346495
O O12 0.122917 0.936755 0.447374
O O13 0.850476 0.948329 0.460675
O O14 0.769932 0.270129 0.803092
O O15 0.000000 0.696767 0.250000
#
# Coordination Sequence:
#
# PCOD9281450 Si02
#       7
#     8   8   8   8   8   8   8
#     4  11  23  42  67  91 130 176 223 261 337 404
#     4  11  22  39  65  92 124 171 215 267 330 399
#     4  11  22  39  66  93 132 174 215 265 333 405
#     4  10  21  38  65  95 134 166 220 277 332 384
#     4  10  24  42  63  93 129 172 217 277 323 400
#     4  10  21  38  62 101 130 169 217 273 325 403
#     4  11  25  39  64  93 127 161 218 275 331 381
#
# _framework density 19.929290000000002
#
# number of rings (size 3 to 8) (size 9 to 14) (size 15 to 20)
#    0.000    1.429    1.429    4.286    4.000    2.286 
#    0.000    1.429    0.000    0.000    0.000    0.000 
#    0.000    0.000    0.000    0.000    0.000    0.000 
#
# Total GULP energy -156390.023146 kJ/mol
# GULP energy per Si atom -5585.357969 kJ/mol
# Density = 1.988393 g / cm^3
# Si number density = 19.929290 Si / 1000 Ang^3
#
#
#
# Elastic Constant Matrix: (Units=GPa)
#
#
# Indices 1 2 3 4 5 6 
#
# 1 71.3777 37.5959 27.6432 0.0000 10.2911 0.0000
# 2 37.5959 101.2163 43.5651 0.0000 10.8121 0.0000
# 3 27.6432 43.5651 118.5872 0.0000 11.2676 0.0000
# 4 0.0000 0.0000 0.0000 16.6663 0.0000 4.4963
# 5 10.2911 10.8121 11.2676 0.0000 33.8327 0.0000
# 6 0.0000 0.0000 0.0000 4.4963 0.0000 21.3538
#
#
#
# Elastic Compliance Matrix: (Units=1/GPa)
#
#
# Indices 1 2 3 4 5 6 
#
# 1 0.018131 -0.005596 -0.001876 0.000000 -0.003102 0.000000
# 2 -0.005596 0.013653 -0.003571 0.000000 -0.001472 0.000000
# 3 -0.001876 -0.003571 0.010347 0.000000 -0.001734 0.000000
# 4 0.000000 0.000000 0.000000 0.063615 0.000000 -0.013395
# 5 -0.003102 -0.001472 -0.001734 0.000000 0.031548 0.000000
# 6 0.000000 0.000000 0.000000 -0.013395 0.000000 0.049650
#
#
# Mechanical properties :
#
#
# Convention : Reuss Voigt Hill
#
# Bulk Modulus (GPa) = 49.88968 56.53217 53.21093
# Shear Modulus (GPa) = 23.17901 26.52902 24.85401
#
# Velocity S-wave (km/s) = 3.41407 3.65246 3.53528
# Velocity P-wave (km/s) = 6.37408 6.79818 6.58954
#
# Compressibility (1/GPa) = 0.02004422
#
# Stress axis : x y z
#
# Youngs Moduli (GPa) = 55.15356 73.24551 96.64964
#
# Poissons Ratio (x) = 0.40987 0.18131
# Poissons Ratio (y) = 0.30863 0.34517
# Poissons Ratio (z) = 0.10347 0.26158
#
# Static dielectric constant tensor:
#      x y z
#    x 1.693820 0.000000 0.011560 
#    y 0.000000 1.738880 0.000000 
#    z 0.011560 0.000000 1.734120 
# 
# From -- ./inp_files/191045.got.cif
#   From: 2010.05.17/outbox.cif.g08.bks.cpg/sg15_96_cif.got.tgz:191045.got - 2010.06.03 18:47:42.
