data_PCOD9281928
_publ_section_title
;
Structure prediction by ZEFSAII (Michael W. Deem and Ramdas Pophale) SiO2 
 PCOD9281928
Probable space group: C 2/C
;
_chemical_formula_sum "Si O2"
_cell_formula_units_Z 32
_cell_length_a 6.533965
_cell_length_b 29.582457
_cell_length_c 8.024198
_cell_angle_alpha 90.000000
_cell_angle_beta 110.884154
_cell_angle_gamma 90.000000
_cell_volume 1449.107059
_symmetry_space_group_name_H-M "C 2/C"
_symmetry_group_IT_number 15
_symmetry_cell_setting 'monoclinic'
loop_
_space_group_symop_operation_xyz
x,y,z
-x,y,1/2-z
-x,-y,-z
x,-y,1/2+z
1/2+x,1/2+y,z
1/2-x,1/2+y,1/2-z
1/2-x,1/2-y,-z
1/2+x,1/2-y,1/2+z
loop_
_atom_site_type_symbol
_atom_site_label
_atom_site_fract_x
_atom_site_fract_y
_atom_site_fract_z
Si Si1 0.671443 0.120883 0.945642
Si Si2 0.544744 0.550801 0.067957
Si Si3 0.000000 0.222830 0.750000
Si Si4 0.515640 0.784209 0.079363
Si Si5 0.500000 0.913449 0.750000
O O1 0.500000 0.107755 0.750000
O O2 0.657362 0.175320 0.948416
O O3 0.600816 0.110812 0.116787
O O4 0.890019 0.092478 0.964624
O O5 0.500000 0.550600 0.250000
O O6 0.799138 0.559528 0.112730
O O7 0.500000 0.500000 0.000000
O O8 0.230713 0.197872 0.853684
O O9 0.022652 0.254913 0.594583
O O10 0.500000 0.757494 0.250000
#
# Coordination Sequence:
#
# PCOD9281928 Si02
#       5
#     8   8   4   8   4
#     4  10  23  39  62  93 126 165 209 258 316 371
#     4  10  24  40  63  92 121 167 211 259 319 375
#     4  10  21  38  66  92 122 172 202 252 326 372
#     4  10  21  39  60  94 128 160 210 257 305 381
#     4  10  23  42  60  88 126 162 204 262 310 374
#
# _framework density 22.082561999999999
#
# number of rings (size 3 to 8) (size 9 to 14) (size 15 to 20)
#    0.000    2.000    0.000    1.500    5.250    6.000 
#    0.000   18.750    0.000    0.000    0.000    0.000 
#    0.000    0.000    0.000    0.000    0.000    0.000 
#
# Total GULP energy -89070.685418 kJ/mol
# GULP energy per Si atom -5566.917839 kJ/mol
# Density = 2.203230 g / cm^3
# Si number density = 22.082562 Si / 1000 Ang^3
#
#
#
# Elastic Constant Matrix: (Units=GPa)
#
#
# Indices 1 2 3 4 5 6 
#
# 1 93.0255 49.9300 17.9066 0.0000 20.9607 0.0000
# 2 49.9300 97.1723 34.6602 0.0000 14.6722 0.0000
# 3 17.9066 34.6602 108.4875 0.0000 -8.2051 0.0000
# 4 0.0000 0.0000 0.0000 47.3316 0.0000 -4.3147
# 5 20.9607 14.6722 -8.2051 0.0000 42.6601 0.0000
# 6 0.0000 0.0000 0.0000 -4.3147 0.0000 11.3624
#
#
#
# Elastic Compliance Matrix: (Units=1/GPa)
#
#
# Indices 1 2 3 4 5 6 
#
# 1 0.015952 -0.007074 -0.000793 0.000000 -0.005557 0.000000
# 2 -0.007074 0.015798 -0.004087 0.000000 -0.002744 0.000000
# 3 -0.000793 -0.004087 0.010949 0.000000 0.003901 0.000000
# 4 0.000000 0.000000 0.000000 0.021885 0.000000 0.008311
# 5 -0.005557 -0.002744 0.003901 0.000000 0.027865 0.000000
# 6 0.000000 0.000000 0.000000 0.008311 0.000000 0.091166
#
#
# Mechanical properties :
#
#
# Convention : Reuss Voigt Hill
#
# Bulk Modulus (GPa) = 53.21991 55.96433 54.59212
# Shear Modulus (GPa) = 23.38766 33.35005 28.36886
#
# Velocity S-wave (km/s) = 3.25791 3.89040 3.58812
# Velocity P-wave (km/s) = 6.18908 6.75119 6.47624
#
# Compressibility (1/GPa) = 0.01878996
#
# Stress axis : x y z
#
# Youngs Moduli (GPa) = 62.68953 63.29855 91.32945
#
# Poissons Ratio (x) = 0.44780 0.07243
# Poissons Ratio (y) = 0.44350 0.37327
# Poissons Ratio (z) = 0.04971 0.25871
#
# Static dielectric constant tensor:
#      x y z
#    x 1.931060 0.000000 0.035000 
#    y 0.000000 1.868750 0.000000 
#    z 0.035000 0.000000 1.836710 
# 
# From -- ./inp_files/20149.got.cif
#   From: 2010.05.17/outbox.cif.g08.bks.cpg/sg15_11_cif.got.tgz:20149.got - 2010.06.03 18:47:42.
