data_PCOD9281750
_publ_section_title
;
Structure prediction by ZEFSAII (Michael W. Deem and Ramdas Pophale) SiO2 
 PCOD9281750
Probable space group: C 2/C
;
_chemical_formula_sum "Si O2"
_cell_formula_units_Z 44
_cell_length_a 11.166871
_cell_length_b 14.453400
_cell_length_c 21.883551
_cell_angle_alpha 90.000000
_cell_angle_beta 40.491290
_cell_angle_gamma 90.000000
_cell_volume 2293.434919
_symmetry_space_group_name_H-M "C 2/C"
_symmetry_group_IT_number 15
_symmetry_cell_setting 'monoclinic'
loop_
_space_group_symop_operation_xyz
x,y,z
-x,y,1/2-z
-x,-y,-z
x,-y,1/2+z
1/2+x,1/2+y,z
1/2-x,1/2+y,1/2-z
1/2-x,1/2-y,-z
1/2+x,1/2-y,1/2+z
loop_
_atom_site_type_symbol
_atom_site_label
_atom_site_fract_x
_atom_site_fract_y
_atom_site_fract_z
Si Si1 0.248284 0.699096 0.810013
Si Si2 0.476353 0.070952 0.688346
Si Si3 0.187310 0.899500 0.793841
Si Si4 0.626778 0.505558 0.010728
Si Si5 0.635186 0.607205 0.622704
Si Si6 0.500000 0.438115 0.750000
O O1 0.093143 0.653562 0.827863
O O2 0.263654 0.808130 0.795460
O O3 0.436441 0.653507 0.711418
O O4 0.228939 0.668971 0.888601
O O5 0.500000 0.097858 0.750000
O O6 0.326716 0.986625 0.743608
O O7 0.672344 0.037401 0.587236
O O8 0.130608 0.883632 0.745410
O O9 0.995817 0.925237 0.901036
O O10 0.654765 0.415560 0.043751
O O11 0.500000 0.500000 0.000000
O O12 0.625987 0.508517 0.661373
#
# Coordination Sequence:
#
# PCOD9281750 Si02
#       6
#     8   8   8   8   8   4
#     4  10  21  38  64  91 126 160 203 260 307 365
#     4  12  23  40  66  88 122 170 204 253 321 364
#     4  11  22  41  63  92 125 163 207 255 311 364
#     4  11  22  40  65  88 126 165 210 256 308 371
#     4   9  18  40  60  86 123 163 204 256 297 364
#     4   8  16  38  60  78 120 158 192 252 302 348
#
# _framework density 19.185196999999999
#
# number of rings (size 3 to 8) (size 9 to 14) (size 15 to 20)
#    0.000    1.818    7.273    0.000    3.818    1.455 
#    0.000    5.455    0.000    0.000    0.000    0.000 
#    0.000    0.000    0.000    0.000    0.000    0.000 
#
# Total GULP energy -122535.688719 kJ/mol
# GULP energy per Si atom -5569.804033 kJ/mol
# Density = 1.914153 g / cm^3
# Si number density = 19.185197 Si / 1000 Ang^3
#
#
#
# Elastic Constant Matrix: (Units=GPa)
#
#
# Indices 1 2 3 4 5 6 
#
# 1 117.0187 12.7853 5.3817 0.0003 21.8072 -0.0003
# 2 12.7853 51.6299 2.0310 0.0003 4.9114 -0.0003
# 3 5.3817 2.0310 69.9433 0.0002 -4.2526 -0.0003
# 4 0.0003 0.0003 0.0002 8.0421 -0.0001 5.4369
# 5 21.8072 4.9114 -4.2526 -0.0001 30.4245 0.0001
# 6 -0.0003 -0.0003 -0.0003 5.4369 0.0001 17.9726
#
#
#
# Elastic Compliance Matrix: (Units=1/GPa)
#
#
# Indices 1 2 3 4 5 6 
#
# 1 0.010122 -0.001783 -0.001161 -0.000001 -0.007130 0.000000
# 2 -0.001783 0.020026 -0.000568 -0.000001 -0.002034 0.000001
# 3 -0.001161 -0.000568 0.014583 -0.000001 0.002962 0.000000
# 4 -0.000001 -0.000001 -0.000001 0.156315 0.000001 -0.047287
# 5 -0.007130 -0.002034 0.002962 0.000001 0.038721 -0.000001
# 6 0.000000 0.000001 0.000000 -0.047287 -0.000001 0.069945
#
#
# Mechanical properties :
#
#
# Convention : Reuss Voigt Hill
#
# Bulk Modulus (GPa) = 26.51898 30.99866 28.75882
# Shear Modulus (GPa) = 15.18350 25.84744 20.51547
#
# Velocity S-wave (km/s) = 2.81627 3.67449 3.27362
# Velocity P-wave (km/s) = 4.94245 5.84766 5.41401
#
# Compressibility (1/GPa) = 0.03770884
#
# Stress axis : x y z
#
# Youngs Moduli (GPa) = 98.78984 49.93520 68.57217
#
# Poissons Ratio (x) = 0.08902 0.07958
# Poissons Ratio (y) = 0.17612 0.03895
# Poissons Ratio (z) = 0.11466 0.02837
#
# Static dielectric constant tensor:
#      x y z
#    x 1.748890 0.000000 0.042260 
#    y 0.000000 1.674910 0.000000 
#    z 0.042260 0.000000 1.690760 
# 
# From -- ./inp_files/197141.got.cif
#   From: 2010.05.17/outbox.cif.g08.bks.cpg/sg15_99_cif.got.tgz:197141.got - 2010.06.03 18:47:42.
