data_PCOD9281272
_publ_section_title
;
Structure prediction by ZEFSAII (Michael W. Deem and Ramdas Pophale) SiO2 
 PCOD9281272
Probable space group: C 2/C
;
_chemical_formula_sum "Si O2"
_cell_formula_units_Z 48
_cell_length_a 8.817542
_cell_length_b 15.720920
_cell_length_c 29.925273
_cell_angle_alpha 90.000000
_cell_angle_beta 149.540332
_cell_angle_gamma 90.000000
_cell_volume 2102.873158
_symmetry_space_group_name_H-M "C 2/C"
_symmetry_group_IT_number 15
_symmetry_cell_setting 'monoclinic'
loop_
_space_group_symop_operation_xyz
x,y,z
-x,y,1/2-z
-x,-y,-z
x,-y,1/2+z
1/2+x,1/2+y,z
1/2-x,1/2+y,1/2-z
1/2-x,1/2-y,-z
1/2+x,1/2-y,1/2+z
loop_
_atom_site_type_symbol
_atom_site_label
_atom_site_fract_x
_atom_site_fract_y
_atom_site_fract_z
Si Si1 0.340681 0.239690 0.929517
Si Si2 0.161821 0.475538 0.922524
Si Si3 0.892269 0.332145 0.090276
Si Si4 0.860001 0.977280 0.764463
Si Si5 0.420761 0.084050 0.451612
Si Si6 0.283523 0.835935 0.236820
O O1 0.440056 0.223858 0.903839
O O2 0.985642 0.228938 0.842071
O O3 0.534673 0.319640 0.995053
O O4 0.483213 0.164079 0.995263
O O5 0.027228 0.570077 0.899101
O O6 0.979536 0.448201 0.831950
O O7 0.100012 0.419550 0.950282
O O8 0.500000 0.500000 0.000000
O O9 0.015053 0.309518 0.169974
O O10 0.853548 0.072107 0.783775
O O11 0.000000 0.974864 0.750000
O O12 0.072067 0.920817 0.849441
O O13 0.500000 0.000000 0.500000
O O14 0.500000 0.846863 0.250000
#
# Coordination Sequence:
#
# PCOD9281272 Si02
#       6
#     8   8   8   8   8   8
#     4  11  22  41  66  87 125 165 214 260 310 383
#     4  10  21  38  60  89 125 159 200 255 314 371
#     4  10  23  42  62  87 122 170 209 249 318 382
#     4   9  19  37  59  84 120 161 205 246 307 377
#     4  11  19  35  63  92 115 158 210 258 298 364
#     4  11  22  37  61  90 120 163 205 256 315 381
#
# _framework density 22.825913
#
# number of rings (size 3 to 8) (size 9 to 14) (size 15 to 20)
#    0.000    1.667    3.333    2.500    4.667    0.667 
#    3.000    0.833    0.000    0.000    0.000    0.000 
#    0.000    0.000    0.000    0.000    0.000    0.000 
#
# Total GULP energy -134143.778652 kJ/mol
# GULP energy per Si atom -5589.324110 kJ/mol
# Density = 2.277396 g / cm^3
# Si number density = 22.825913 Si / 1000 Ang^3
#
#
#
# Elastic Constant Matrix: (Units=GPa)
#
#
# Indices 1 2 3 4 5 6 
#
# 1 86.3201 8.2861 55.9706 0.0000 -10.1659 0.0000
# 2 8.2861 42.4113 -3.7541 -0.0009 -20.8258 0.0001
# 3 55.9706 -3.7541 155.3230 -0.0019 -10.3051 -0.0005
# 4 0.0000 -0.0009 -0.0019 31.6353 0.0000 -0.9862
# 5 -10.1659 -20.8258 -10.3051 0.0000 38.9127 0.0000
# 6 0.0000 0.0001 -0.0005 -0.9862 0.0000 16.9535
#
#
#
# Elastic Compliance Matrix: (Units=1/GPa)
#
#
# Indices 1 2 3 4 5 6 
#
# 1 0.015660 -0.003102 -0.005656 0.000000 0.000933 0.000000
# 2 -0.003102 0.033185 0.003099 0.000001 0.017771 0.000000
# 3 -0.005656 0.003099 0.008716 0.000001 0.002489 0.000000
# 4 0.000000 0.000001 0.000001 0.031668 0.000001 0.001842
# 5 0.000933 0.017771 0.002489 0.000001 0.036112 0.000000
# 6 0.000000 0.000000 0.000000 0.001842 0.000000 0.059092
#
#
# Mechanical properties :
#
#
# Convention : Reuss Voigt Hill
#
# Bulk Modulus (GPa) = 21.62487 45.00663 33.31575
# Shear Modulus (GPa) = 23.67803 32.40376 28.04090
#
# Velocity S-wave (km/s) = 3.22426 3.77185 3.50875
# Velocity P-wave (km/s) = 4.83275 6.22329 5.57157
#
# Compressibility (1/GPa) = 0.04624306
#
# Stress axis : x y z
#
# Youngs Moduli (GPa) = 63.85728 30.13393 114.72597
#
# Poissons Ratio (x) = 0.09348 0.64890
# Poissons Ratio (y) = 0.19809 -0.35552
# Poissons Ratio (z) = 0.36118 -0.09338
#
# Static dielectric constant tensor:
#      x y z
#    x 1.839580 0.000000 0.040450 
#    y 0.000000 1.939970 0.000000 
#    z 0.040450 0.000000 1.904170 
# 
# From -- ./inp_files/191953.got.cif
#   From: 2010.05.17/outbox.cif.g08.bks.cpg/sg15_96_cif.got.tgz:191953.got - 2010.06.03 18:47:42.
