data_PCOD9281936
_publ_section_title
;
Structure prediction by ZEFSAII (Michael W. Deem and Ramdas Pophale) SiO2 
 PCOD9281936
Probable space group: C 2/C
;
_chemical_formula_sum "Si O2"
_cell_formula_units_Z 36
_cell_length_a 7.797528
_cell_length_b 23.573939
_cell_length_c 14.341340
_cell_angle_alpha 90.000000
_cell_angle_beta 135.994694
_cell_angle_gamma 90.000000
_cell_volume 1831.436003
_symmetry_space_group_name_H-M "C 2/C"
_symmetry_group_IT_number 15
_symmetry_cell_setting 'monoclinic'
loop_
_space_group_symop_operation_xyz
x,y,z
-x,y,1/2-z
-x,-y,-z
x,-y,1/2+z
1/2+x,1/2+y,z
1/2-x,1/2+y,1/2-z
1/2-x,1/2-y,-z
1/2+x,1/2-y,1/2+z
loop_
_atom_site_type_symbol
_atom_site_label
_atom_site_fract_x
_atom_site_fract_y
_atom_site_fract_z
Si Si1 0.705015 0.779104 0.113455
Si Si2 0.178135 0.626472 0.737075
Si Si3 0.186352 0.838600 0.528852
Si Si4 0.214426 0.492620 0.161999
Si Si5 0.000000 0.435198 0.750000
O O1 0.585445 0.818008 0.145732
O O2 0.636533 0.713343 0.080056
O O3 0.000000 0.780516 0.250000
O O4 0.660301 0.809071 0.995724
O O5 0.214656 0.574450 0.682265
O O6 0.000000 0.609095 0.750000
O O7 0.436449 0.641077 0.884756
O O8 0.314873 0.892064 0.625735
O O9 0.500000 0.508954 0.250000
O O10 0.130780 0.526469 0.222269
O O11 0.000000 0.500000 0.000000
#
# Coordination Sequence:
#
# PCOD9281936 Si02
#       5
#     8   8   8   8   4
#     4   9  18  39  63  90 125 170 218 263 332 394
#     4  11  23  40  63  94 132 171 219 273 331 393
#     4  10  21  38  66  93 126 171 217 270 329 394
#     4  12  27  46  69  98 136 181 226 279 335 398
#     4  12  24  42  70 100 132 170 230 270 332 402
#
# _framework density 19.656704999999999
#
# number of rings (size 3 to 8) (size 9 to 14) (size 15 to 20)
#    0.000    1.333    2.222    4.667    3.111    2.667 
#    0.000    1.111    0.000    0.000    0.000    0.000 
#    0.000    0.000    0.000    0.000    0.000    0.000 
#
# Total GULP energy -100461.206603 kJ/mol
# GULP energy per Si atom -5581.178145 kJ/mol
# Density = 1.961197 g / cm^3
# Si number density = 19.656705 Si / 1000 Ang^3
#
#
#
# Elastic Constant Matrix: (Units=GPa)
#
#
# Indices 1 2 3 4 5 6 
#
# 1 92.4222 34.5680 39.8757 0.0000 0.7708 0.0000
# 2 34.5680 107.3062 45.1980 0.0000 1.1774 0.0000
# 3 39.8757 45.1980 106.8611 0.0000 -2.0802 0.0000
# 4 0.0000 0.0000 0.0000 55.1337 0.0000 -11.2650
# 5 0.7708 1.1774 -2.0802 0.0000 18.8015 0.0000
# 6 0.0000 0.0000 0.0000 -11.2650 0.0000 23.5759
#
#
#
# Elastic Compliance Matrix: (Units=1/GPa)
#
#
# Indices 1 2 3 4 5 6 
#
# 1 0.013528 -0.002696 -0.003924 0.000000 -0.000820 0.000000
# 2 -0.002696 0.011906 -0.004051 0.000000 -0.001083 0.000000
# 3 -0.003924 -0.004051 0.012570 0.000000 0.001805 0.000000
# 4 0.000000 0.000000 0.000000 0.020100 0.000000 0.009604
# 5 -0.000820 -0.001083 0.001805 0.000000 0.053488 0.000000
# 6 0.000000 0.000000 0.000000 0.009604 0.000000 0.047005
#
#
# Mechanical properties :
#
#
# Convention : Reuss Voigt Hill
#
# Bulk Modulus (GPa) = 60.01239 60.65253 60.33246
# Shear Modulus (GPa) = 26.95516 31.96543 29.46029
#
# Velocity S-wave (km/s) = 3.70712 4.03697 3.87556
# Velocity P-wave (km/s) = 6.99429 7.25620 7.12645
#
# Compressibility (1/GPa) = 0.01666323
#
# Stress axis : x y z
#
# Youngs Moduli (GPa) = 73.92038 83.99294 79.55185
#
# Poissons Ratio (x) = 0.22647 0.31213
# Poissons Ratio (y) = 0.19932 0.32223
# Poissons Ratio (z) = 0.29003 0.34022
#
# Static dielectric constant tensor:
#      x y z
#    x 1.716780 0.000000 -0.038740 
#    y 0.000000 1.686740 0.000000 
#    z -0.038740 0.000000 1.626400 
# 
# From -- ./inp_files/77587.got.cif
#   From: 2010.05.17/outbox.cif.g08.bks.cpg/sg15_39_cif.got.tgz:77587.got - 2010.06.03 18:47:42.
