data_PCOD9281926
_publ_section_title
;
Structure prediction by ZEFSAII (Michael W. Deem and Ramdas Pophale) SiO2 
 PCOD9281926
Probable space group: C 2/C
;
_chemical_formula_sum "Si O2"
_cell_formula_units_Z 56
_cell_length_a 8.812270
_cell_length_b 23.842993
_cell_length_c 16.143994
_cell_angle_alpha 90.000000
_cell_angle_beta 119.763161
_cell_angle_gamma 90.000000
_cell_volume 2944.568829
_symmetry_space_group_name_H-M "C 2/C"
_symmetry_group_IT_number 15
_symmetry_cell_setting 'monoclinic'
loop_
_space_group_symop_operation_xyz
x,y,z
-x,y,1/2-z
-x,-y,-z
x,-y,1/2+z
1/2+x,1/2+y,z
1/2-x,1/2+y,1/2-z
1/2-x,1/2-y,-z
1/2+x,1/2-y,1/2+z
loop_
_atom_site_type_symbol
_atom_site_label
_atom_site_fract_x
_atom_site_fract_y
_atom_site_fract_z
Si Si1 0.189329 0.595980 0.408606
Si Si2 0.374241 0.493531 0.386069
Si Si3 0.739611 0.301604 0.696754
Si Si4 0.180922 0.372878 0.629051
Si Si5 0.000000 0.955224 0.750000
Si Si6 0.000000 0.201902 0.750000
Si Si7 0.153203 0.191744 0.466360
Si Si8 0.460453 0.627566 0.902419
O O1 0.222954 0.538459 0.366958
O O2 0.199521 0.647578 0.346553
O O3 0.348492 0.605919 0.515789
O O4 0.006384 0.599826 0.405889
O O5 0.500000 0.500000 0.500000
O O6 0.469823 0.511298 0.326880
O O7 0.338292 0.427621 0.366020
O O8 0.798020 0.319459 0.804326
O O9 0.530372 0.300527 0.631945
O O10 0.834632 0.244191 0.697148
O O11 0.331416 0.416196 0.694329
O O12 0.224866 0.351741 0.549611
O O13 0.024195 0.162348 0.677248
O O14 0.250000 0.250000 0.500000
O O15 0.105967 0.167557 0.542818
#
# Coordination Sequence:
#
# PCOD9281926 Si02
#       8
#     8   8   8   8   4   4   8   8
#     4  10  21  38  66  92 122 161 216 266 309 385
#     4  10  21  42  63  89 126 165 214 274 325 388
#     4  11  21  37  62  94 127 161 215 262 308 383
#     4  12  20  37  62  99 121 162 217 265 322 375
#     4  12  21  36  68  90 122 169 212 268 330 376
#     4  12  23  38  68  90 130 175 218 258 324 402
#     4  11  24  39  62  91 132 169 208 267 330 383
#     4  10  24  43  61  89 126 173 206 262 333 387
#
# _framework density 19.018065
#
# number of rings (size 3 to 8) (size 9 to 14) (size 15 to 20)
#    0.000    1.143    4.286    3.000    2.000    1.143 
#    0.000    6.429    6.286    0.000    0.000    0.000 
#    0.000    0.000    0.000    0.000    0.000    0.000 
#
# Total GULP energy -156371.936077 kJ/mol
# GULP energy per Si atom -5584.712003 kJ/mol
# Density = 1.897478 g / cm^3
# Si number density = 19.018065 Si / 1000 Ang^3
#
#
#
# Elastic Constant Matrix: (Units=GPa)
#
#
# Indices 1 2 3 4 5 6 
#
# 1 142.6960 54.2641 41.7865 0.0000 -5.3030 0.0000
# 2 54.2641 128.9711 43.7320 0.0000 -5.3955 0.0000
# 3 41.7865 43.7320 82.9061 0.0000 -30.4559 0.0000
# 4 0.0000 0.0000 0.0000 12.3002 0.0000 -16.0871
# 5 -5.3030 -5.3955 -30.4559 0.0000 28.5461 0.0000
# 6 0.0000 0.0000 0.0000 -16.0871 0.0000 21.6291
#
#
#
# Elastic Compliance Matrix: (Units=1/GPa)
#
#
# Indices 1 2 3 4 5 6 
#
# 1 0.009175 -0.002406 -0.004763 0.000000 -0.003832 0.000000
# 2 -0.002406 0.010697 -0.006334 0.000000 -0.005183 0.000000
# 3 -0.004763 -0.006334 0.028021 0.000000 0.027814 0.000000
# 4 0.000000 0.000000 0.000000 2.985255 0.000000 2.220351
# 5 -0.003832 -0.005183 0.027814 0.000000 0.063014 0.000000
# 6 0.000000 0.000000 0.000000 2.220351 0.000000 1.697671
#
#
# Mechanical properties :
#
#
# Convention : Reuss Voigt Hill
#
# Bulk Modulus (GPa) = 47.87531 70.45981 59.16756
# Shear Modulus (GPa) = 1.03567 26.81446 13.92506
#
# Velocity S-wave (km/s) = 0.73875 3.75900 2.70886
# Velocity P-wave (km/s) = 5.09470 7.48127 6.40021
#
# Compressibility (1/GPa) = 0.02088759
#
# Stress axis : x y z
#
# Youngs Moduli (GPa) = 108.99015 93.48707 35.68737
#
# Poissons Ratio (x) = 0.22489 0.16999
# Poissons Ratio (y) = 0.26218 0.22604
# Poissons Ratio (z) = 0.51916 0.59213
#
# Static dielectric constant tensor:
#      x y z
#    x 1.658830 0.000000 0.000740 
#    y 0.000000 1.682990 0.000000 
#    z 0.000740 0.000000 1.680860 
# 
# From -- ./inp_files/137320.got.cif
#   From: 2010.05.17/outbox.cif.g08.bks.cpg/sg15_69_cif.got.tgz:137320.got - 2010.06.03 18:47:42.
