data_PCOD9281689
_publ_section_title
;
Structure prediction by ZEFSAII (Michael W. Deem and Ramdas Pophale) SiO2 
 PCOD9281689
Probable space group: C 2/C
;
_chemical_formula_sum "Si O2"
_cell_formula_units_Z 60
_cell_length_a 8.367484
_cell_length_b 17.969383
_cell_length_c 18.598381
_cell_angle_alpha 90.000000
_cell_angle_beta 91.719597
_cell_angle_gamma 90.000000
_cell_volume 2795.165773
_symmetry_space_group_name_H-M "C 2/C"
_symmetry_group_IT_number 15
_symmetry_cell_setting 'monoclinic'
loop_
_space_group_symop_operation_xyz
x,y,z
-x,y,1/2-z
-x,-y,-z
x,-y,1/2+z
1/2+x,1/2+y,z
1/2-x,1/2+y,1/2-z
1/2-x,1/2-y,-z
1/2+x,1/2-y,1/2+z
loop_
_atom_site_type_symbol
_atom_site_label
_atom_site_fract_x
_atom_site_fract_y
_atom_site_fract_z
Si Si1 0.000000 0.472043 0.750000
Si Si2 0.185933 0.581119 0.657894
Si Si3 0.953923 0.993198 0.606251
Si Si4 0.792581 0.260132 0.372557
Si Si5 0.992379 0.259076 0.521799
Si Si6 0.151488 0.893677 0.020297
Si Si7 0.010646 0.416094 0.476581
Si Si8 0.836034 0.896328 0.796327
O O1 0.046943 0.529647 0.687319
O O2 0.163218 0.425076 0.765050
O O3 0.346298 0.532902 0.665313
O O4 0.194405 0.667455 0.679005
O O5 0.145967 0.592543 0.573297
O O6 0.012456 0.060815 0.557555
O O7 0.852783 0.932563 0.558853
O O8 0.107423 0.951333 0.639256
O O9 0.921461 0.255682 0.439545
O O10 0.629496 0.262307 0.416497
O O11 0.808131 0.185708 0.326950
O O12 0.122034 0.193959 0.522608
O O13 0.023667 0.347331 0.532199
O O14 0.319808 0.908479 0.060536
O O15 0.000000 0.500000 0.500000
O O16 0.000000 0.894501 0.750000
#
# Coordination Sequence:
#
# PCOD9281689 Si02
#       8
#     4   8   8   8   8   8   8   8
#     4  12  28  46  72  94 126 176 236 280 328 390
#     4  11  23  45  62  98 132 176 221 275 330 396
#     4  11  22  39  68  92 132 170 217 270 339 398
#     4  10  23  41  68  93 133 173 218 271 337 398
#     4  10  21  38  63  96 134 171 212 270 339 405
#     4  11  21  37  62  99 132 173 210 270 341 400
#     4  11  23  35  61  98 135 170 217 269 329 401
#     4  12  26  47  69  98 130 180 228 282 331 400
#
# _framework density 21.465633
#
# number of rings (size 3 to 8) (size 9 to 14) (size 15 to 20)
#    0.000    1.067    5.333    1.200    4.667    0.000 
#    0.000    1.333    0.000    0.000    0.000    0.000 
#    0.000    0.000    0.000    0.000    0.000    0.000 
#
# Total GULP energy -167102.611214 kJ/mol
# GULP energy per Si atom -5570.087040 kJ/mol
# Density = 2.141678 g / cm^3
# Si number density = 21.465633 Si / 1000 Ang^3
#
#
#
# Elastic Constant Matrix: (Units=GPa)
#
#
# Indices 1 2 3 4 5 6 
#
# 1 115.7353 65.4979 16.6966 0.0000 -0.9715 0.0000
# 2 65.4979 209.9537 33.8041 0.0000 -4.5697 0.0000
# 3 16.6966 33.8041 28.3864 0.0000 -4.3212 0.0000
# 4 0.0000 0.0000 0.0000 26.2021 0.0000 -8.7257
# 5 -0.9715 -4.5697 -4.3212 0.0000 25.3366 0.0000
# 6 0.0000 0.0000 0.0000 -8.7257 0.0000 31.9317
#
#
#
# Elastic Compliance Matrix: (Units=1/GPa)
#
#
# Indices 1 2 3 4 5 6 
#
# 1 0.010687 -0.002871 -0.002961 0.000000 -0.000613 0.000000
# 2 -0.002871 0.006664 -0.006244 0.000000 0.000027 0.000000
# 3 -0.002961 -0.006244 0.045395 0.000000 0.006502 0.000000
# 4 0.000000 0.000000 0.000000 0.041986 0.000000 0.011473
# 5 -0.000613 0.000027 0.006502 0.000000 0.040559 0.000000
# 6 0.000000 0.000000 0.000000 0.011473 0.000000 0.034452
#
#
# Mechanical properties :
#
#
# Convention : Reuss Voigt Hill
#
# Bulk Modulus (GPa) = 25.90946 65.11917 45.51432
# Shear Modulus (GPa) = 23.06718 32.56588 27.81653
#
# Velocity S-wave (km/s) = 3.28168 3.89924 3.60372
# Velocity P-wave (km/s) = 5.14351 7.11860 6.21008
#
# Compressibility (1/GPa) = 0.03859594
#
# Stress axis : x y z
#
# Youngs Moduli (GPa) = 93.57218 150.05249 22.02893
#
# Poissons Ratio (x) = 0.43073 0.06522
# Poissons Ratio (y) = 0.26860 0.13754
# Poissons Ratio (z) = 0.27705 0.93688
#
# Static dielectric constant tensor:
#      x y z
#    x 1.804020 0.000000 -0.015390 
#    y 0.000000 1.865830 0.000000 
#    z -0.015390 0.000000 1.840680 
# 
# From -- ./inp_files/232668.got.cif
#   From: 2010.05.17/outbox.cif.g08.bks.cpg/sg15_117_cif.got.tgz:232668.got - 2010.06.03 18:47:42.
