data_PCOD9281924
_publ_section_title
;
Structure prediction by ZEFSAII (Michael W. Deem and Ramdas Pophale) SiO2 
 PCOD9281924
Probable space group: C 2/C
;
_chemical_formula_sum "Si O2"
_cell_formula_units_Z 48
_cell_length_a 17.425448
_cell_length_b 17.001164
_cell_length_c 20.217322
_cell_angle_alpha 90.000000
_cell_angle_beta 23.755875
_cell_angle_gamma 90.000000
_cell_volume 2412.789360
_symmetry_space_group_name_H-M "C 2/C"
_symmetry_group_IT_number 15
_symmetry_cell_setting 'monoclinic'
loop_
_space_group_symop_operation_xyz
x,y,z
-x,y,1/2-z
-x,-y,-z
x,-y,1/2+z
1/2+x,1/2+y,z
1/2-x,1/2+y,1/2-z
1/2-x,1/2-y,-z
1/2+x,1/2-y,1/2+z
loop_
_atom_site_type_symbol
_atom_site_label
_atom_site_fract_x
_atom_site_fract_y
_atom_site_fract_z
Si Si1 0.796379 0.524042 0.632237
Si Si2 0.849419 0.645556 0.470560
Si Si3 0.244035 0.313372 0.598380
Si Si4 0.835586 0.162442 0.679320
Si Si5 0.468660 0.745998 0.449385
Si Si6 0.135267 0.136347 0.205841
O O1 0.818020 0.577883 0.549172
O O2 0.707403 0.575749 0.761195
O O3 0.681493 0.446292 0.703670
O O4 0.000000 0.500000 0.500000
O O5 0.782739 0.634620 0.447177
O O6 0.730831 0.721745 0.588398
O O7 0.075479 0.664627 0.282323
O O8 0.458872 0.320641 0.452560
O O9 0.652028 0.216224 0.842464
O O10 0.861565 0.185576 0.582434
O O11 0.333998 0.818341 0.534571
O O12 0.534057 0.695392 0.336178
O O13 0.000000 0.125198 0.250000
#
# Coordination Sequence:
#
# PCOD9281924 Si02
#       6
#     8   8   8   8   8   8
#     4  12  26  42  61  96 138 166 205 271 325 382
#     4  10  22  39  60  95 130 170 216 256 312 376
#     4  10  21  38  66  91 127 175 214 257 303 392
#     4  11  22  38  67  94 129 164 212 264 321 381
#     4  10  23  45  69  97 119 170 227 267 313 389
#     4  11  25  46  71  94 126 170 217 275 328 378
#
# _framework density 19.893986000000002
#
# number of rings (size 3 to 8) (size 9 to 14) (size 15 to 20)
#    0.000    1.333    1.667    3.500    7.000    2.000 
#    0.000    0.000    3.667    0.000    0.000    0.000 
#    0.000    0.000    0.000    0.000    0.000    0.000 
#
# Total GULP energy -133949.799890 kJ/mol
# GULP energy per Si atom -5581.241662 kJ/mol
# Density = 1.984871 g / cm^3
# Si number density = 19.893986 Si / 1000 Ang^3
#
#
#
# Elastic Constant Matrix: (Units=GPa)
#
#
# Indices 1 2 3 4 5 6 
#
# 1 77.3058 30.0848 14.3808 0.0131 -29.6807 -0.0009
# 2 30.0848 85.4072 19.4329 0.0194 -5.1247 0.0058
# 3 14.3808 19.4329 75.3474 -0.0139 -17.0936 0.0017
# 4 0.0131 0.0194 -0.0139 24.9713 0.0084 -0.7902
# 5 -29.6807 -5.1247 -17.0936 0.0084 25.1939 0.0029
# 6 -0.0009 0.0058 0.0017 -0.7902 0.0029 40.2247
#
#
#
# Elastic Compliance Matrix: (Units=1/GPa)
#
#
# Indices 1 2 3 4 5 6 
#
# 1 0.029642 -0.009400 0.005030 -0.000018 0.036421 -0.000001
# 2 -0.009400 0.015423 -0.004709 -0.000006 -0.011132 -0.000002
# 3 0.005030 -0.004709 0.017319 0.000005 0.016718 -0.000001
# 4 -0.000018 -0.000006 0.000005 0.040071 -0.000032 0.000787
# 5 0.036421 -0.011132 0.016718 -0.000032 0.091678 -0.000006
# 6 -0.000001 -0.000002 -0.000001 0.000787 -0.000006 0.024876
#
#
# Mechanical properties :
#
#
# Convention : Reuss Voigt Hill
#
# Bulk Modulus (GPa) = 22.61194 40.65081 31.63138
# Shear Modulus (GPa) = 19.84835 29.68878 24.76856
#
# Velocity S-wave (km/s) = 3.16208 3.86728 3.53232
# Velocity P-wave (km/s) = 4.97217 6.35761 5.70709
#
# Compressibility (1/GPa) = 0.04422443
#
# Stress axis : x y z
#
# Youngs Moduli (GPa) = 33.73631 64.83636 57.73921
#
# Poissons Ratio (x) = 0.60948 -0.29041
# Poissons Ratio (y) = 0.31713 0.27191
# Poissons Ratio (z) = -0.16968 0.30533
#
# Static dielectric constant tensor:
#      x y z
#    x 1.721730 0.000000 0.001470 
#    y 0.000000 1.689680 0.000010 
#    z 0.001470 0.000010 1.752090 
# 
# From -- ./inp_files/249715.got.cif
#   From: 2010.05.17/outbox.cif.g08.bks.cpg/sg15_125_cif.got.tgz:249715.got - 2010.06.03 18:47:42.
