data_PCOD9281549
_publ_section_title
;
Structure prediction by ZEFSAII (Michael W. Deem and Ramdas Pophale) SiO2 
 PCOD9281549
Probable space group: C 2/C
;
_chemical_formula_sum "Si O2"
_cell_formula_units_Z 48
_cell_length_a 21.362832
_cell_length_b 12.026704
_cell_length_c 21.485680
_cell_angle_alpha 90.000000
_cell_angle_beta 153.503424
_cell_angle_gamma 90.000000
_cell_volume 2462.804450
_symmetry_space_group_name_H-M "C 2/C"
_symmetry_group_IT_number 15
_symmetry_cell_setting 'monoclinic'
loop_
_space_group_symop_operation_xyz
x,y,z
-x,y,1/2-z
-x,-y,-z
x,-y,1/2+z
1/2+x,1/2+y,z
1/2-x,1/2+y,1/2-z
1/2-x,1/2-y,-z
1/2+x,1/2-y,1/2+z
loop_
_atom_site_type_symbol
_atom_site_label
_atom_site_fract_x
_atom_site_fract_y
_atom_site_fract_z
Si Si1 0.126449 0.170237 0.591359
Si Si2 0.347576 0.117699 0.627082
Si Si3 0.830591 0.242491 0.378340
Si Si4 0.920993 0.517098 0.995963
Si Si5 0.787072 0.474446 0.677935
Si Si6 0.272626 0.816531 0.921141
O O1 0.241833 0.231265 0.737164
O O2 0.186730 0.047373 0.633755
O O3 0.120660 0.234335 0.520134
O O4 0.977742 0.185984 0.491073
O O5 0.500000 0.072516 0.750000
O O6 0.261646 0.024929 0.587332
O O7 0.295123 0.147857 0.512134
O O8 0.352964 0.226354 0.678073
O O9 0.860676 0.358757 0.439156
O O10 0.745495 0.153920 0.342805
O O11 0.050743 0.503927 0.159155
O O12 0.798143 0.428576 0.903298
O O13 0.000000 0.500000 0.000000
#
# Coordination Sequence:
#
# PCOD9281549 Si02
#       6
#     8   8   8   8   8   8
#     4  11  22  37  63  92 130 158 206 260 314 370
#     4  10  21  39  66  87 121 163 208 261 301 363
#     4  12  23  38  59  97 128 165 201 256 315 384
#     4  12  20  38  62  89 128 162 203 255 323 373
#     4  11  22  39  60  89 123 168 207 253 313 371
#     4  10  21  38  62  94 115 160 211 253 309 363
#
# _framework density 19.489977
#
# number of rings (size 3 to 8) (size 9 to 14) (size 15 to 20)
#    0.000    1.000    6.667    0.500    2.333    0.000 
#    0.000    0.833    0.000    0.000    0.000    0.000 
#    0.000    0.000    0.000    0.000    0.000    0.000 
#
# Total GULP energy -133603.196185 kJ/mol
# GULP energy per Si atom -5566.799841 kJ/mol
# Density = 1.944562 g / cm^3
# Si number density = 19.489977 Si / 1000 Ang^3
#
#
#
# Elastic Constant Matrix: (Units=GPa)
#
#
# Indices 1 2 3 4 5 6 
#
# 1 78.0364 46.6766 7.9812 0.0001 -6.4011 -0.0001
# 2 46.6766 141.9984 7.6876 0.0004 -4.1682 0.0000
# 3 7.9812 7.6876 41.5745 0.0005 -3.5795 0.0001
# 4 0.0001 0.0004 0.0005 24.8570 0.0003 3.2411
# 5 -6.4011 -4.1682 -3.5795 0.0003 25.8474 0.0000
# 6 -0.0001 0.0000 0.0001 3.2411 0.0000 26.1971
#
#
#
# Elastic Compliance Matrix: (Units=1/GPa)
#
#
# Indices 1 2 3 4 5 6 
#
# 1 0.016355 -0.005185 -0.001927 0.000000 0.002947 0.000000
# 2 -0.005185 0.008782 -0.000625 0.000000 0.000046 0.000000
# 3 -0.001927 -0.000625 0.024784 -0.000001 0.002854 0.000000
# 4 0.000000 0.000000 -0.000001 0.040890 -0.000001 -0.005059
# 5 0.002947 0.000046 0.002854 -0.000001 0.039821 0.000000
# 6 0.000000 0.000000 0.000000 -0.005059 0.000000 0.038798
#
#
# Mechanical properties :
#
#
# Convention : Reuss Voigt Hill
#
# Bulk Modulus (GPa) = 29.02972 42.92224 35.97598
# Shear Modulus (GPa) = 25.46000 28.66454 27.06227
#
# Velocity S-wave (km/s) = 3.61822 3.83917 3.73033
# Velocity P-wave (km/s) = 5.69055 6.45932 6.08709
#
# Compressibility (1/GPa) = 0.03444745
#
# Stress axis : x y z
#
# Youngs Moduli (GPa) = 61.14399 113.87036 40.34794
#
# Poissons Ratio (x) = 0.59044 0.07776
# Poissons Ratio (y) = 0.31704 0.02520
# Poissons Ratio (z) = 0.11783 0.07112
#
# Static dielectric constant tensor:
#      x y z
#    x 1.696840 0.000000 -0.024850 
#    y 0.000000 1.708990 0.000000 
#    z -0.024850 0.000000 1.721020 
# 
# From -- ./inp_files/110542.got.cif
#   From: 2010.05.17/outbox.cif.g08.bks.cpg/sg15_56_cif.got.tgz:110542.got - 2010.06.03 18:47:42.
