data_PCOD9281551
_publ_section_title
;
Structure prediction by ZEFSAII (Michael W. Deem and Ramdas Pophale) SiO2 
 PCOD9281551
Probable space group: C 2/C
;
_chemical_formula_sum "Si O2"
_cell_formula_units_Z 60
_cell_length_a 22.634736
_cell_length_b 8.848333
_cell_length_c 22.743019
_cell_angle_alpha 90.000000
_cell_angle_beta 38.991691
_cell_angle_gamma 90.000000
_cell_volume 2866.018724
_symmetry_space_group_name_H-M "C 2/C"
_symmetry_group_IT_number 15
_symmetry_cell_setting 'monoclinic'
loop_
_space_group_symop_operation_xyz
x,y,z
-x,y,1/2-z
-x,-y,-z
x,-y,1/2+z
1/2+x,1/2+y,z
1/2-x,1/2+y,1/2-z
1/2-x,1/2-y,-z
1/2+x,1/2-y,1/2+z
loop_
_atom_site_type_symbol
_atom_site_label
_atom_site_fract_x
_atom_site_fract_y
_atom_site_fract_z
Si Si1 0.959106 0.591591 0.974950
Si Si2 0.618462 0.415278 0.290407
Si Si3 0.300368 0.127624 0.599087
Si Si4 0.342629 0.326812 0.456210
Si Si5 0.074772 0.063157 0.034430
Si Si6 0.500000 0.798623 0.750000
Si Si7 0.809293 0.081879 0.154688
Si Si8 0.901128 0.578687 0.215034
O O1 0.945410 0.768447 0.972977
O O2 0.027519 0.534076 0.870628
O O3 0.853750 0.527612 0.056642
O O4 0.000000 0.500000 0.000000
O O5 0.688691 0.398336 0.180709
O O6 0.521701 0.502953 0.363052
O O7 0.678542 0.507121 0.291793
O O8 0.593988 0.240740 0.323018
O O9 0.348058 0.225694 0.511059
O O10 0.312757 0.235777 0.646808
O O11 0.250000 0.250000 0.500000
O O12 0.348692 0.499494 0.476446
O O13 0.429368 0.295081 0.345916
O O14 0.106846 0.979911 0.950082
O O15 0.564149 0.893397 0.745538
O O16 0.708347 0.036500 0.205483
#
# Coordination Sequence:
#
# PCOD9281551 Si02
#       8
#     8   8   8   8   8   4   8   8
#     4  12  23  40  63  99 146 179 220 287 370 434
#     4  11  20  39  63  95 130 172 230 286 341 420
#     4  10  22  40  61  96 129 176 230 280 358 423
#     4  11  23  43  71  95 127 182 245 298 348 421
#     4  11  23  38  62  98 134 173 229 282 355 427
#     4  12  20  44  74  88 136 180 254 294 338 444
#     4  10  21  38  62  94 130 172 232 281 346 426
#     4  11  23  40  68  98 126 189 229 278 366 417
#
# _framework density 20.934964000000001
#
# number of rings (size 3 to 8) (size 9 to 14) (size 15 to 20)
#    0.000    1.067    2.667    6.000    0.000    3.200 
#    0.000    1.333    0.000    0.000    0.000    0.000 
#    0.000    0.000    0.000    0.000    0.000    0.000 
#
# Total GULP energy -167097.833413 kJ/mol
# GULP energy per Si atom -5569.927780 kJ/mol
# Density = 2.088731 g / cm^3
# Si number density = 20.934964 Si / 1000 Ang^3
#
#
#
# Elastic Constant Matrix: (Units=GPa)
#
#
# Indices 1 2 3 4 5 6 
#
# 1 99.6914 28.5513 15.5056 0.0001 -3.2619 -0.0001
# 2 28.5513 123.5009 47.9575 0.0004 -12.1372 -0.0004
# 3 15.5056 47.9575 125.9740 0.0002 -11.2630 -0.0003
# 4 0.0001 0.0004 0.0002 28.6537 -0.0003 2.2192
# 5 -3.2619 -12.1372 -11.2630 -0.0003 37.6018 0.0003
# 6 -0.0001 -0.0004 -0.0003 2.2192 0.0003 31.3180
#
#
#
# Elastic Compliance Matrix: (Units=1/GPa)
#
#
# Indices 1 2 3 4 5 6 
#
# 1 0.010763 -0.002312 -0.000440 0.000000 0.000056 0.000000
# 2 -0.002312 0.010153 -0.003396 0.000000 0.002059 0.000000
# 3 -0.000440 -0.003396 0.009437 0.000000 0.001692 0.000000
# 4 0.000000 0.000000 0.000000 0.035092 0.000000 -0.002487
# 5 0.000056 0.002059 0.001692 0.000000 0.027771 0.000000
# 6 0.000000 0.000000 0.000000 -0.002487 0.000000 0.032107
#
#
# Mechanical properties :
#
#
# Convention : Reuss Voigt Hill
#
# Bulk Modulus (GPa) = 55.38196 59.24392 57.31294
# Shear Modulus (GPa) = 34.80982 36.65816 35.73399
#
# Velocity S-wave (km/s) = 4.08212 4.18909 4.13595
# Velocity P-wave (km/s) = 6.98069 7.19434 7.08832
#
# Compressibility (1/GPa) = 0.01805642
#
# Stress axis : x y z
#
# Youngs Moduli (GPa) = 92.90796 98.49407 105.97097
#
# Poissons Ratio (x) = 0.22773 0.04659
# Poissons Ratio (y) = 0.21481 0.35992
# Poissons Ratio (z) = 0.04085 0.33453
#
# Static dielectric constant tensor:
#      x y z
#    x 1.866450 0.000000 -0.016470 
#    y 0.000000 1.763500 0.000000 
#    z -0.016470 0.000000 1.761390 
# 
# From -- ./inp_files/281658.got.cif
#   From: 2010.05.17/outbox.cif.g08.bks.cpg/sg15_141_cif.got.tgz:281658.got - 2010.06.03 18:47:42.
