data_PCOD9281392
_publ_section_title
;
Structure prediction by ZEFSAII (Michael W. Deem and Ramdas Pophale) SiO2 
 PCOD9281392
Probable space group: C 2/C
;
_chemical_formula_sum "Si O2"
_cell_formula_units_Z 32
_cell_length_a 8.156054
_cell_length_b 7.048261
_cell_length_c 19.957459
_cell_angle_alpha 90.000000
_cell_angle_beta 76.968561
_cell_angle_gamma 90.000000
_cell_volume 1117.728084
_symmetry_space_group_name_H-M "C 2/C"
_symmetry_group_IT_number 15
_symmetry_cell_setting 'monoclinic'
loop_
_space_group_symop_operation_xyz
x,y,z
-x,y,1/2-z
-x,-y,-z
x,-y,1/2+z
1/2+x,1/2+y,z
1/2-x,1/2+y,1/2-z
1/2-x,1/2-y,-z
1/2+x,1/2-y,1/2+z
loop_
_atom_site_type_symbol
_atom_site_label
_atom_site_fract_x
_atom_site_fract_y
_atom_site_fract_z
Si Si1 0.164937 0.503861 0.576804
Si Si2 0.699729 0.627346 0.809690
Si Si3 0.197741 0.954553 0.158644
Si Si4 0.559831 0.259274 0.970188
O O1 0.300320 0.146647 0.590085
O O2 0.357301 0.465424 0.538874
O O3 0.066273 0.350056 0.540342
O O4 0.103052 0.705269 0.556028
O O5 0.827697 0.501630 0.843545
O O6 0.738962 0.635442 0.727649
O O7 0.732087 0.834180 0.837048
O O8 0.995007 0.942122 0.167288
#
# Coordination Sequence:
#
# PCOD9281392 Si02
#       4
#     8   8   8   8
#     4  10  21  38  61  90 126 171 221 273 331 395
#     4  11  24  41  63  94 129 171 222 274 332 396
#     4  11  24  41  63  94 129 171 222 274 332 396
#     4  10  21  38  61  90 126 171 221 273 331 395
#
# _framework density 28.629503
#
# number of rings (size 3 to 8) (size 9 to 14) (size 15 to 20)
#    0.000    1.500    0.000    4.500    0.000    7.000 
#    0.000    0.000    0.000    0.000    0.000    0.000 
#    0.000    0.000    0.000    0.000    0.000    0.000 
#
# Total GULP energy -89616.232910 kJ/mol
# GULP energy per Si atom -5601.014557 kJ/mol
# Density = 2.856434 g / cm^3
# Si number density = 28.629503 Si / 1000 Ang^3
#
#
#
# Elastic Constant Matrix: (Units=GPa)
#
#
# Indices 1 2 3 4 5 6 
#
# 1 130.4850 33.6017 54.7606 0.0000 18.4644 0.0000
# 2 33.6017 73.1966 27.0296 0.0000 19.2076 0.0000
# 3 54.7606 27.0296 225.4864 0.0000 46.1710 0.0000
# 4 0.0000 0.0000 0.0000 59.5675 0.0000 19.5435
# 5 18.4644 19.2076 46.1710 0.0000 62.4038 0.0000
# 6 0.0000 0.0000 0.0000 19.5435 0.0000 60.6703
#
#
#
# Elastic Compliance Matrix: (Units=1/GPa)
#
#
# Indices 1 2 3 4 5 6 
#
# 1 0.009376 -0.003552 -0.001776 0.000000 -0.000367 0.000000
# 2 -0.003552 0.016400 -0.000336 0.000000 -0.003748 0.000000
# 3 -0.001776 -0.000336 0.005631 0.000000 -0.003537 0.000000
# 4 0.000000 0.000000 0.000000 0.018772 0.000000 -0.006047
# 5 -0.000367 -0.003748 -0.003537 0.000000 0.019904 0.000000
# 6 0.000000 0.000000 0.000000 -0.006047 0.000000 0.018430
#
#
# Mechanical properties :
#
#
# Convention : Reuss Voigt Hill
#
# Bulk Modulus (GPa) = 49.80347 73.32800 61.56573
# Shear Modulus (GPa) = 46.93397 57.44673 52.19035
#
# Velocity S-wave (km/s) = 4.05329 4.48432 4.27424
# Velocity P-wave (km/s) = 6.27209 7.24434 6.77568
#
# Compressibility (1/GPa) = 0.02007892
#
# Stress axis : x y z
#
# Youngs Moduli (GPa) = 106.65943 60.97566 177.59774
#
# Poissons Ratio (x) = 0.21658 0.31542
# Poissons Ratio (y) = 0.37884 0.05963
# Poissons Ratio (z) = 0.18943 0.02047
#
# Static dielectric constant tensor:
#      x y z
#    x 2.240990 0.000000 -0.022420 
#    y 0.000000 2.368760 0.000000 
#    z -0.022420 0.000000 2.152290 
# 
# From -- ./inp_files/267132.got.cif
#   From: 2010.05.17/outbox.cif.g08.bks.cpg/sg15_134_cif.got.tgz:267132.got - 2010.06.03 18:47:42.
