data_PCOD9281931
_publ_section_title
;
Structure prediction by ZEFSAII (Michael W. Deem and Ramdas Pophale) SiO2 
 PCOD9281931
Probable space group: C 2/C
;
_chemical_formula_sum "Si O2"
_cell_formula_units_Z 60
_cell_length_a 9.851687
_cell_length_b 18.301775
_cell_length_c 14.052786
_cell_angle_alpha 90.000000
_cell_angle_beta 77.068501
_cell_angle_gamma 90.000000
_cell_volume 2469.503973
_symmetry_space_group_name_H-M "C 2/C"
_symmetry_group_IT_number 15
_symmetry_cell_setting 'monoclinic'
loop_
_space_group_symop_operation_xyz
x,y,z
-x,y,1/2-z
-x,-y,-z
x,-y,1/2+z
1/2+x,1/2+y,z
1/2-x,1/2+y,1/2-z
1/2-x,1/2-y,-z
1/2+x,1/2-y,1/2+z
loop_
_atom_site_type_symbol
_atom_site_label
_atom_site_fract_x
_atom_site_fract_y
_atom_site_fract_z
Si Si1 0.500000 0.373770 0.750000
Si Si2 0.150222 0.116685 0.770669
Si Si3 0.673756 0.141521 0.087101
Si Si4 0.075939 0.270569 0.874522
Si Si5 0.198230 0.421557 0.787370
Si Si6 0.856636 0.043983 0.531319
Si Si7 0.167945 0.550117 0.918061
Si Si8 0.511555 0.315046 0.946538
O O1 0.364871 0.425658 0.777656
O O2 0.527931 0.319143 0.832338
O O3 0.138190 0.198378 0.815630
O O4 0.182624 0.061914 0.853513
O O5 0.253166 0.103801 0.667199
O O6 0.000000 0.099253 0.750000
O O7 0.582362 0.210954 0.133086
O O8 0.673833 0.088606 0.178648
O O9 0.833906 0.163295 0.039035
O O10 0.602105 0.104856 0.005930
O O11 0.158866 0.343431 0.838771
O O12 0.052815 0.252891 0.989256
O O13 0.117955 0.487511 0.851975
O O14 0.899809 0.121831 0.483584
O O15 0.752291 0.000227 0.480821
O O16 0.000000 0.000000 0.500000
#
# Coordination Sequence:
#
# PCOD9281931 Si02
#       8
#     4   8   8   8   8   8   8   8
#     4  10  22  38  62  94 128 166 212 262 322 386
#     4  11  22  36  64  93 127 164 218 265 321 381
#     4  11  23  41  67  94 130 168 223 267 320 383
#     4  11  25  45  63  93 132 176 218 263 326 388
#     4  11  25  42  68  93 133 172 209 271 333 380
#     4  11  19  34  57  98 128 157 207 270 325 364
#     4  12  23  37  65  97 127 167 214 271 323 388
#     4  10  21  38  66  92 129 173 210 268 315 380
#
# _framework density 24.296375999999999
#
# number of rings (size 3 to 8) (size 9 to 14) (size 15 to 20)
#    0.000    1.067    4.000    3.200    2.800    3.200 
#    0.000    0.000    2.933    0.000    0.000    0.000 
#    0.000    0.000    0.000    0.000    0.000    0.000 
#
# Total GULP energy -167559.090614 kJ/mol
# GULP energy per Si atom -5585.303020 kJ/mol
# Density = 2.424108 g / cm^3
# Si number density = 24.296376 Si / 1000 Ang^3
#
#
#
# Elastic Constant Matrix: (Units=GPa)
#
#
# Indices 1 2 3 4 5 6 
#
# 1 28.7922 12.9229 15.4910 0.0000 -8.5519 0.0000
# 2 12.9229 135.7981 53.2667 0.0000 -7.6996 0.0000
# 3 15.4910 53.2667 149.6557 0.0000 0.8097 0.0000
# 4 0.0000 0.0000 0.0000 57.9885 0.0000 2.6831
# 5 -8.5519 -7.6996 0.8097 0.0000 26.4489 0.0000
# 6 0.0000 0.0000 0.0000 2.6831 0.0000 20.3611
#
#
#
# Elastic Compliance Matrix: (Units=1/GPa)
#
#
# Indices 1 2 3 4 5 6 
#
# 1 0.041378 -0.001736 -0.003735 0.000000 0.012988 0.000000
# 2 -0.001736 0.008812 -0.002968 0.000000 0.002095 0.000000
# 3 -0.003735 -0.002968 0.008138 0.000000 -0.002321 0.000000
# 4 0.000000 0.000000 0.000000 0.017351 0.000000 -0.002286
# 5 0.012988 0.002095 -0.002321 0.000000 0.042689 0.000000
# 6 0.000000 0.000000 0.000000 -0.002286 0.000000 0.049415
#
#
# Mechanical properties :
#
#
# Convention : Reuss Voigt Hill
#
# Bulk Modulus (GPa) = 24.12610 53.06748 38.59679
# Shear Modulus (GPa) = 25.19171 36.46406 30.82788
#
# Velocity S-wave (km/s) = 3.22351 3.87822 3.56592
# Velocity P-wave (km/s) = 4.87916 6.47636 5.73365
#
# Compressibility (1/GPa) = 0.04144889
#
# Stress axis : x y z
#
# Youngs Moduli (GPa) = 24.16720 113.48049 122.88553
#
# Poissons Ratio (x) = 0.19701 0.45904
# Poissons Ratio (y) = 0.04195 0.36474
# Poissons Ratio (z) = 0.09028 0.33682
#
# Static dielectric constant tensor:
#      x y z
#    x 1.899280 0.000000 0.121640 
#    y 0.000000 2.190200 0.000000 
#    z 0.121640 0.000000 1.867200 
# 
# From -- ./inp_files/146057.got.cif
#   From: 2010.05.17/outbox.cif.g08.bks.cpg/sg15_74_cif.got.tgz:146057.got - 2010.06.03 18:47:42.
