data_PCOD9281365
_publ_section_title
;
Structure prediction by ZEFSAII (Michael W. Deem and Ramdas Pophale) SiO2 
 PCOD9281365
Probable space group: C 2/C
;
_chemical_formula_sum "Si O2"
_cell_formula_units_Z 40
_cell_length_a 27.257068
_cell_length_b 13.123998
_cell_length_c 15.229182
_cell_angle_alpha 90.000000
_cell_angle_beta 18.774285
_cell_angle_gamma 90.000000
_cell_volume 1753.327173
_symmetry_space_group_name_H-M "C 2/C"
_symmetry_group_IT_number 15
_symmetry_cell_setting 'monoclinic'
loop_
_space_group_symop_operation_xyz
x,y,z
-x,y,1/2-z
-x,-y,-z
x,-y,1/2+z
1/2+x,1/2+y,z
1/2-x,1/2+y,1/2-z
1/2-x,1/2-y,-z
1/2+x,1/2-y,1/2+z
loop_
_atom_site_type_symbol
_atom_site_label
_atom_site_fract_x
_atom_site_fract_y
_atom_site_fract_z
Si Si1 0.333684 0.403012 0.672647
Si Si2 0.500000 0.947209 0.250000
Si Si3 0.922652 0.247861 0.170176
Si Si4 0.538510 0.126244 0.052255
Si Si5 0.384896 0.626369 0.525099
Si Si6 0.500000 0.714549 0.750000
O O1 0.421374 0.341762 0.599041
O O2 0.368171 0.522993 0.610515
O O3 0.379654 0.357653 0.500756
O O4 0.155298 0.386728 0.990275
O O5 0.496644 0.019160 0.342615
O O6 0.750000 0.250000 0.500000
O O7 0.970606 0.349255 0.034987
O O8 0.041496 0.215541 0.042465
O O9 0.716194 0.148250 0.774698
O O10 0.442319 0.208605 0.271882
O O11 0.500000 0.606324 0.250000
#
# Coordination Sequence:
#
# PCOD9281365 Si02
#       6
#     8   4   8   8   8   4
#     4  10  21  38  61  88 119 154 201 240 295 353
#     4   9  20  40  64  85 120 162 190 247 296 344
#     4  11  22  36  59  92 119 154 201 243 290 355
#     4   9  20  39  59  84 123 157 196 241 293 352
#     4  11  20  37  60  85 119 159 192 241 296 344
#     4   9  18  36  60  85 116 156 194 243 292 342
#
# _framework density 22.813766999999999
#
# number of rings (size 3 to 8) (size 9 to 14) (size 15 to 20)
#    0.000    2.000    3.000    0.600    0.000    3.200 
#    0.000   19.000    0.000    0.000    0.000    0.000 
#    0.000    0.000    0.000    0.000    0.000    0.000 
#
# Total GULP energy -111788.189639 kJ/mol
# GULP energy per Si atom -5589.409482 kJ/mol
# Density = 2.276184 g / cm^3
# Si number density = 22.813767 Si / 1000 Ang^3
#
#
#
# Elastic Constant Matrix: (Units=GPa)
#
#
# Indices 1 2 3 4 5 6 
#
# 1 70.4587 20.3411 28.5862 0.0002 6.6563 -0.0001
# 2 20.3411 45.4660 2.4031 0.0003 -2.5099 -0.0001
# 3 28.5862 2.4031 109.3824 0.0004 7.2148 -0.0001
# 4 0.0002 0.0003 0.0004 32.5320 -0.0004 6.7039
# 5 6.6563 -2.5099 7.2148 -0.0004 30.2973 0.0001
# 6 -0.0001 -0.0001 -0.0001 6.7039 0.0001 38.6370
#
#
#
# Elastic Compliance Matrix: (Units=1/GPa)
#
#
# Indices 1 2 3 4 5 6 
#
# 1 0.018781 -0.008373 -0.004477 0.000000 -0.003754 0.000000
# 2 -0.008373 0.025869 0.001379 0.000000 0.003654 0.000000
# 3 -0.004477 0.001379 0.010372 0.000000 -0.001372 0.000000
# 4 0.000000 0.000000 0.000000 0.031879 0.000000 -0.005531
# 5 -0.003754 0.003654 -0.001372 0.000000 0.034460 0.000000
# 6 0.000000 0.000000 0.000000 -0.005531 0.000000 0.026842
#
#
# Mechanical properties :
#
#
# Convention : Reuss Voigt Hill
#
# Bulk Modulus (GPa) = 31.17119 36.44088 33.80604
# Shear Modulus (GPa) = 27.49687 31.89170 29.69428
#
# Velocity S-wave (km/s) = 3.47547 3.74293 3.61168
# Velocity P-wave (km/s) = 5.45877 5.88958 5.67827
#
# Compressibility (1/GPa) = 0.03208090
#
# Stress axis : x y z
#
# Youngs Moduli (GPa) = 53.24572 38.65580 96.40965
#
# Poissons Ratio (x) = 0.32367 0.43160
# Poissons Ratio (y) = 0.44583 -0.13293
# Poissons Ratio (z) = 0.23836 -0.05330
#
# Static dielectric constant tensor:
#      x y z
#    x 1.857650 0.000000 0.039470 
#    y 0.000000 1.890250 0.000000 
#    z 0.039470 0.000000 1.839530 
# 
# From -- ./inp_files/86014.got.cif
#   From: 2010.05.17/outbox.cif.g08.bks.cpg/sg15_44_cif.got.tgz:86014.got - 2010.06.03 18:47:42.
