data_PCOD9281181
_publ_section_title
;
Structure prediction by ZEFSAII (Michael W. Deem and Ramdas Pophale) SiO2 
 PCOD9281181
Probable space group: C 2/C
;
_chemical_formula_sum "Si O2"
_cell_formula_units_Z 52
_cell_length_a 12.270163
_cell_length_b 8.049027
_cell_length_c 25.870794
_cell_angle_alpha 90.000000
_cell_angle_beta 110.631483
_cell_angle_gamma 90.000000
_cell_volume 2391.207000
_symmetry_space_group_name_H-M "C 2/C"
_symmetry_group_IT_number 15
_symmetry_cell_setting 'monoclinic'
loop_
_space_group_symop_operation_xyz
x,y,z
-x,y,1/2-z
-x,-y,-z
x,-y,1/2+z
1/2+x,1/2+y,z
1/2-x,1/2+y,1/2-z
1/2-x,1/2-y,-z
1/2+x,1/2-y,1/2+z
loop_
_atom_site_type_symbol
_atom_site_label
_atom_site_fract_x
_atom_site_fract_y
_atom_site_fract_z
Si Si1 0.189316 0.268871 0.116519
Si Si2 0.272278 0.433570 0.225815
Si Si3 0.000000 0.272939 0.750000
Si Si4 0.208331 0.626709 0.067419
Si Si5 0.586704 0.027037 0.355174
Si Si6 0.565868 0.799261 0.444348
Si Si7 0.732321 0.209802 0.823943
O O1 0.181683 0.330820 0.175150
O O2 0.217435 0.438477 0.089504
O O3 0.292560 0.135186 0.124651
O O4 0.060425 0.213990 0.078075
O O5 0.389511 0.342297 0.229496
O O6 0.277157 0.620629 0.208386
O O7 0.263421 0.423406 0.285750
O O8 0.997558 0.377297 0.802912
O O9 0.330650 0.686211 0.062331
O O10 0.188046 0.746967 0.113509
O O11 0.109497 0.649884 0.008217
O O12 0.555549 0.966087 0.407050
O O13 0.614359 0.857652 0.329025
#
# Coordination Sequence:
#
# PCOD9281181 Si02
#       7
#     8   8   4   8   8   8   8
#     4  10  21  40  60  93 124 163 209 261 311 375
#     4  10  21  38  59  87 123 156 206 254 319 372
#     4  10  22  38  56  92 122 154 210 262 306 394
#     4   9  21  41  62  95 124 162 223 249 312 384
#     4  10  23  39  60  93 124 161 217 250 320 381
#     4  10  21  41  67  87 129 173 201 268 313 364
#     4  10  21  41  60  85 128 157 201 267 304 385
#
# _framework density 21.74634
#
# number of rings (size 3 to 8) (size 9 to 14) (size 15 to 20)
#    0.000    2.154    0.000    2.308    6.462    1.231 
#   19.385    6.923    0.000    0.000    0.000    0.000 
#    0.000    0.000    0.000    0.000    0.000    0.000 
#
# Total GULP energy -145123.854040 kJ/mol
# GULP energy per Si atom -5581.686694 kJ/mol
# Density = 2.169684 g / cm^3
# Si number density = 21.746340 Si / 1000 Ang^3
#
#
#
# Elastic Constant Matrix: (Units=GPa)
#
#
# Indices 1 2 3 4 5 6 
#
# 1 42.3526 16.9013 44.2723 0.0000 12.0897 0.0000
# 2 16.9013 63.6963 43.7820 0.0000 -2.1067 0.0000
# 3 44.2723 43.7820 139.7202 0.0000 -11.9803 0.0000
# 4 0.0000 0.0000 0.0000 20.6027 0.0000 -4.7183
# 5 12.0897 -2.1067 -11.9803 0.0000 40.7225 0.0000
# 6 0.0000 0.0000 0.0000 -4.7183 0.0000 21.0774
#
#
#
# Elastic Compliance Matrix: (Units=1/GPa)
#
#
# Indices 1 2 3 4 5 6 
#
# 1 0.045757 -0.002172 -0.015381 0.000000 -0.018222 0.000000
# 2 -0.002172 0.020140 -0.005620 0.000000 0.000033 0.000000
# 3 -0.015381 -0.005620 0.014525 0.000000 0.008549 0.000000
# 4 0.000000 0.000000 0.000000 0.051160 0.000000 0.011453
# 5 -0.018222 0.000033 0.008549 0.000000 0.032483 0.000000
# 6 0.000000 0.000000 0.000000 0.011453 0.000000 0.050008
#
#
# Mechanical properties :
#
#
# Convention : Reuss Voigt Hill
#
# Bulk Modulus (GPa) = 29.34540 50.63115 39.98827
# Shear Modulus (GPa) = 18.39745 25.86807 22.13276
#
# Velocity S-wave (km/s) = 2.91177 3.45271 3.19371
# Velocity P-wave (km/s) = 4.98279 6.26323 5.65934
#
# Compressibility (1/GPa) = 0.03407689
#
# Stress axis : x y z
#
# Youngs Moduli (GPa) = 21.85439 49.65308 68.84808
#
# Poissons Ratio (x) = 0.10785 1.05893
# Poissons Ratio (y) = 0.04747 0.38691
# Poissons Ratio (z) = 0.33614 0.27904
#
# Static dielectric constant tensor:
#      x y z
#    x 1.843190 0.000000 -0.012460 
#    y 0.000000 1.801390 0.000000 
#    z -0.012460 0.000000 1.858840 
# 
# From -- ./inp_files/272598.got.cif
#   From: 2010.05.17/outbox.cif.g08.bks.cpg/sg15_137_cif.got.tgz:272598.got - 2010.06.03 18:47:42.
