data_PCOD9281037
_publ_section_title
;
Structure prediction by ZEFSAII (Michael W. Deem and Ramdas Pophale) SiO2 
 PCOD9281037
Probable space group: C 2/C
;
_chemical_formula_sum "Si O2"
_cell_formula_units_Z 36
_cell_length_a 7.953593
_cell_length_b 20.062067
_cell_length_c 11.964824
_cell_angle_alpha 90.000000
_cell_angle_beta 50.913379
_cell_angle_gamma 90.000000
_cell_volume 1481.888208
_symmetry_space_group_name_H-M "C 2/C"
_symmetry_group_IT_number 15
_symmetry_cell_setting 'monoclinic'
loop_
_space_group_symop_operation_xyz
x,y,z
-x,y,1/2-z
-x,-y,-z
x,-y,1/2+z
1/2+x,1/2+y,z
1/2-x,1/2+y,1/2-z
1/2-x,1/2-y,-z
1/2+x,1/2-y,1/2+z
loop_
_atom_site_type_symbol
_atom_site_label
_atom_site_fract_x
_atom_site_fract_y
_atom_site_fract_z
Si Si1 0.686315 0.050767 0.303091
Si Si2 0.652955 0.730120 0.353902
Si Si3 0.928102 0.321343 0.938170
Si Si4 0.500000 0.931549 0.250000
Si Si5 0.613347 0.607459 0.054486
O O1 0.493048 0.103950 0.382066
O O2 0.785163 0.067981 0.382898
O O3 0.882744 0.070022 0.136546
O O4 0.593536 0.979991 0.308254
O O5 0.860101 0.721317 0.188366
O O6 0.607624 0.804415 0.416656
O O7 0.458473 0.684026 0.392841
O O8 0.731326 0.697438 0.439338
O O9 0.291709 0.893435 0.383925
#
# Coordination Sequence:
#
# PCOD9281037 Si02
#       5
#     8   8   8   4   8
#     4  10  21  38  57  81 114 151 187 233 293 338
#     4   9  18  35  56  82 112 145 187 230 280 338
#     4   9  18  34  58  81 110 149 183 227 284 341
#     4  12  22  38  60  82 114 154 198 236 276 340
#     4  10  22  37  56  83 113 147 190 238 283 336
#
# _framework density 24.293330999999998
#
# number of rings (size 3 to 8) (size 9 to 14) (size 15 to 20)
#    0.000    2.222    0.000    4.000    0.000    2.667 
#    0.000    2.222    0.000    2.667    0.000    0.000 
#    0.000    0.000    0.000    0.000    0.000    0.000 
#
# Total GULP energy -100476.235659 kJ/mol
# GULP energy per Si atom -5582.013092 kJ/mol
# Density = 2.423804 g / cm^3
# Si number density = 24.293331 Si / 1000 Ang^3
#
#
#
# Elastic Constant Matrix: (Units=GPa)
#
#
# Indices 1 2 3 4 5 6 
#
# 1 101.5153 21.1440 11.0947 0.0000 -5.0920 0.0000
# 2 21.1440 40.0263 28.5339 0.0000 -6.5151 0.0000
# 3 11.0947 28.5339 136.3658 0.0000 -6.8848 0.0000
# 4 0.0000 0.0000 0.0000 32.7079 0.0000 -1.1470
# 5 -5.0920 -6.5151 -6.8848 0.0000 22.6740 0.0000
# 6 0.0000 0.0000 0.0000 -1.1470 0.0000 38.6626
#
#
#
# Elastic Compliance Matrix: (Units=1/GPa)
#
#
# Indices 1 2 3 4 5 6 
#
# 1 0.011102 -0.006004 0.000398 0.000000 0.000889 0.000000
# 2 -0.006004 0.033640 -0.006226 0.000000 0.006427 0.000000
# 3 0.000398 -0.006226 0.008650 0.000000 0.000927 0.000000
# 4 0.000000 0.000000 0.000000 0.030605 0.000000 0.000908
# 5 0.000889 0.006427 0.000927 0.000000 0.046431 0.000000
# 6 0.000000 0.000000 0.000000 0.000908 0.000000 0.025892
#
#
# Mechanical properties :
#
#
# Convention : Reuss Voigt Hill
#
# Bulk Modulus (GPa) = 33.63768 44.38363 39.01065
# Shear Modulus (GPa) = 26.33049 33.28457 29.80753
#
# Velocity S-wave (km/s) = 3.29577 3.70552 3.50663
# Velocity P-wave (km/s) = 5.32535 6.05123 5.69985
#
# Compressibility (1/GPa) = 0.02972857
#
# Stress axis : x y z
#
# Youngs Moduli (GPa) = 90.07120 29.72691 115.60158
#
# Poissons Ratio (x) = 0.17847 -0.04599
# Poissons Ratio (y) = 0.54077 0.71973
# Poissons Ratio (z) = -0.03584 0.18508
#
# Static dielectric constant tensor:
#      x y z
#    x 2.031880 0.000000 0.037460 
#    y 0.000000 1.983930 0.000000 
#    z 0.037460 0.000000 1.948930 
# 
# From -- ./inp_files/23067.got.cif
#   From: 2010.05.17/outbox.cif.g08.bks.cpg/sg15_12_cif.got.tgz:23067.got - 2010.06.03 18:47:42.
