data_PCOD9281378
_publ_section_title
;
Structure prediction by ZEFSAII (Michael W. Deem and Ramdas Pophale) SiO2 
 PCOD9281378
Probable space group: C 2/C
;
_chemical_formula_sum "Si O2"
_cell_formula_units_Z 32
_cell_length_a 5.035185
_cell_length_b 37.853425
_cell_length_c 9.817064
_cell_angle_alpha 90.000000
_cell_angle_beta 60.510701
_cell_angle_gamma 90.000000
_cell_volume 1628.714234
_symmetry_space_group_name_H-M "C 2/C"
_symmetry_group_IT_number 15
_symmetry_cell_setting 'monoclinic'
loop_
_space_group_symop_operation_xyz
x,y,z
-x,y,1/2-z
-x,-y,-z
x,-y,1/2+z
1/2+x,1/2+y,z
1/2-x,1/2+y,1/2-z
1/2-x,1/2-y,-z
1/2+x,1/2-y,1/2+z
loop_
_atom_site_type_symbol
_atom_site_label
_atom_site_fract_x
_atom_site_fract_y
_atom_site_fract_z
Si Si1 0.135624 0.472045 0.861733
Si Si2 0.641530 0.892007 0.862512
Si Si3 0.802378 0.670160 0.936681
Si Si4 0.332410 0.210259 0.437462
O O1 0.500000 0.473528 0.750000
O O2 0.033410 0.431770 0.922357
O O3 0.000000 0.480438 0.750000
O O4 0.000000 0.500000 0.000000
O O5 0.500000 0.881084 0.750000
O O6 0.000000 0.894890 0.750000
O O7 0.628154 0.865256 0.992744
O O8 0.000000 0.669093 0.750000
O O9 0.455487 0.682855 0.992685
O O10 0.931504 0.699130 0.006515
O O11 0.500000 0.209330 0.250000
O O12 0.250000 0.250000 0.500000
#
# Coordination Sequence:
#
# PCOD9281378 Si02
#       4
#     8   8   8   8
#     4  10  21  38  61  89 122 160 203 251 302 360
#     4  10  21  39  61  86 120 162 203 245 302 363
#     4  12  24  40  62  91 120 154 200 250 299 355
#     4  12  25  43  64  88 120 158 197 244 299 360
#
# _framework density 19.647400000000001
#
# number of rings (size 3 to 8) (size 9 to 14) (size 15 to 20)
#    0.000    1.000    0.000    8.250    0.000    1.000 
#    0.000    2.500    0.000    0.000    0.000    0.000 
#    0.000    0.000    0.000    0.000    0.000    0.000 
#
# Total GULP energy -89279.652619 kJ/mol
# GULP energy per Si atom -5579.978289 kJ/mol
# Density = 1.960268 g / cm^3
# Si number density = 19.647400 Si / 1000 Ang^3
#
#
#
# Elastic Constant Matrix: (Units=GPa)
#
#
# Indices 1 2 3 4 5 6 
#
# 1 92.6299 -19.0219 10.0257 0.0000 6.6597 0.0000
# 2 -19.0219 79.9593 50.5331 0.0000 -4.3838 0.0000
# 3 10.0257 50.5331 129.0773 0.0000 -9.0418 0.0000
# 4 0.0000 0.0000 0.0000 18.9937 0.0000 0.8472
# 5 6.6597 -4.3838 -9.0418 0.0000 30.7238 0.0000
# 6 0.0000 0.0000 0.0000 0.8472 0.0000 56.8899
#
#
#
# Elastic Compliance Matrix: (Units=1/GPa)
#
#
# Indices 1 2 3 4 5 6 
#
# 1 0.012277 0.004641 -0.002972 0.000000 -0.002874 0.000000
# 2 0.004641 0.018379 -0.007599 0.000000 -0.000620 0.000000
# 3 -0.002972 -0.007599 0.011152 0.000000 0.002842 0.000000
# 4 0.000000 0.000000 0.000000 0.052684 0.000000 -0.000785
# 5 -0.002874 -0.000620 0.002842 0.000000 0.033919 0.000000
# 6 0.000000 0.000000 0.000000 -0.000785 0.000000 0.017589
#
#
# Mechanical properties :
#
#
# Convention : Reuss Voigt Hill
#
# Bulk Modulus (GPa) = 33.39046 42.74892 38.06969
# Shear Modulus (GPa) = 29.78966 38.66346 34.22656
#
# Velocity S-wave (km/s) = 3.89808 4.44088 4.17830
# Velocity P-wave (km/s) = 6.10670 6.93545 6.53423
#
# Compressibility (1/GPa) = 0.02994867
#
# Stress axis : x y z
#
# Youngs Moduli (GPa) = 81.45304 54.40951 89.66777
#
# Poissons Ratio (x) = -0.25253 0.26649
# Poissons Ratio (y) = -0.37805 0.68141
# Poissons Ratio (z) = 0.24207 0.41347
#
# Static dielectric constant tensor:
#      x y z
#    x 1.786890 0.000000 0.195350 
#    y 0.000000 1.769100 0.000000 
#    z 0.195350 0.000000 1.932040 
# 
# From -- ./inp_files/20140.got.cif
#   From: 2010.05.17/outbox.cif.g08.bks.cpg/sg15_11_cif.got.tgz:20140.got - 2010.06.03 18:47:42.
