data_PCOD9281281
_publ_section_title
;
Structure prediction by ZEFSAII (Michael W. Deem and Ramdas Pophale) SiO2 
 PCOD9281281
Probable space group: C 2/C
;
_chemical_formula_sum "Si O2"
_cell_formula_units_Z 40
_cell_length_a 23.829914
_cell_length_b 5.247832
_cell_length_c 11.262469
_cell_angle_alpha 90.000000
_cell_angle_beta 77.690447
_cell_angle_gamma 90.000000
_cell_volume 1376.052598
_symmetry_space_group_name_H-M "C 2/C"
_symmetry_group_IT_number 15
_symmetry_cell_setting 'monoclinic'
loop_
_space_group_symop_operation_xyz
x,y,z
-x,y,1/2-z
-x,-y,-z
x,-y,1/2+z
1/2+x,1/2+y,z
1/2-x,1/2+y,1/2-z
1/2-x,1/2-y,-z
1/2+x,1/2-y,1/2+z
loop_
_atom_site_type_symbol
_atom_site_label
_atom_site_fract_x
_atom_site_fract_y
_atom_site_fract_z
Si Si1 0.424455 0.481212 0.673416
Si Si2 0.178684 0.047784 0.137145
Si Si3 0.978140 0.608710 0.884064
Si Si4 0.778414 0.860857 0.127965
Si Si5 0.378415 0.984102 0.563704
O O1 0.389482 0.482386 0.812916
O O2 0.490392 0.387224 0.635840
O O3 0.408577 0.743744 0.618490
O O4 0.392681 0.246513 0.620604
O O5 0.210953 0.320171 0.140098
O O6 0.205438 0.919447 0.243799
O O7 0.197083 0.974818 0.994699
O O8 0.000000 0.490183 0.750000
O O9 0.911162 0.539579 0.923929
O O10 0.000000 0.500000 0.000000
O O11 0.812782 0.595683 0.091212
#
# Coordination Sequence:
#
# PCOD9281281 Si02
#       5
#     8   8   8   8   8
#     4  10  21  40  64  93 125 162 207 256 309 366
#     4  10  21  38  60  90 125 164 208 256 310 368
#     4  10  21  40  63  92 126 164 208 256 310 368
#     4  10  21  38  60  90 125 164 208 256 310 368
#     4  10  21  40  64  93 125 162 207 256 309 366
#
# _framework density 29.068659
#
# number of rings (size 3 to 8) (size 9 to 14) (size 15 to 20)
#    0.000    2.000    0.000    3.000    0.000    0.800 
#    0.000   62.000    0.000    0.000    0.000    0.000 
#    0.000    0.000    0.000    0.000    0.000    0.000 
#
# Total GULP energy -111643.166767 kJ/mol
# GULP energy per Si atom -5582.158338 kJ/mol
# Density = 2.900250 g / cm^3
# Si number density = 29.068659 Si / 1000 Ang^3
#
#
#
# Elastic Constant Matrix: (Units=GPa)
#
#
# Indices 1 2 3 4 5 6 
#
# 1 116.4362 16.4886 38.1377 0.0000 -27.2764 0.0000
# 2 16.4886 118.0006 51.8000 0.0000 11.5489 0.0000
# 3 38.1377 51.8000 200.9703 0.0000 -11.9789 0.0000
# 4 0.0000 0.0000 0.0000 43.1919 0.0000 15.1526
# 5 -27.2764 11.5489 -11.9789 0.0000 85.4715 0.0000
# 6 0.0000 0.0000 0.0000 15.1526 0.0000 48.6543
#
#
#
# Elastic Compliance Matrix: (Units=1/GPa)
#
#
# Indices 1 2 3 4 5 6 
#
# 1 0.009936 -0.001068 -0.001425 0.000000 0.003116 0.000000
# 2 -0.001068 0.009907 -0.002472 0.000000 -0.002026 0.000000
# 3 -0.001425 -0.002472 0.005926 0.000000 0.000710 0.000000
# 4 0.000000 0.000000 0.000000 0.025992 0.000000 -0.008095
# 5 0.003116 -0.002026 0.000710 0.000000 0.013067 0.000000
# 6 0.000000 0.000000 0.000000 -0.008095 0.000000 0.023074
#
#
# Mechanical properties :
#
#
# Convention : Reuss Voigt Hill
#
# Bulk Modulus (GPa) = 63.12989 72.02887 67.57938
# Shear Modulus (GPa) = 48.49146 57.39559 52.94353
#
# Velocity S-wave (km/s) = 4.08875 4.44834 4.27233
# Velocity P-wave (km/s) = 6.63741 7.15655 6.90186
#
# Compressibility (1/GPa) = 0.01584036
#
# Stress axis : x y z
#
# Youngs Moduli (GPa) = 100.64328 100.93845 168.76023
#
# Poissons Ratio (x) = 0.10780 0.24041
# Poissons Ratio (y) = 0.10748 0.41711
# Poissons Ratio (z) = 0.14337 0.24948
#
# Static dielectric constant tensor:
#      x y z
#    x 2.406290 0.000000 -0.061190 
#    y 0.000000 2.370740 0.000000 
#    z -0.061190 0.000000 2.330110 
# 
# From -- ./inp_files/124925.got.cif
#   From: 2010.05.17/outbox.cif.g08.bks.cpg/sg15_63_cif.got.tgz:124925.got - 2010.06.03 18:47:42.
