data_PCOD9281809
_publ_section_title
;
Structure prediction by ZEFSAII (Michael W. Deem and Ramdas Pophale) SiO2 
 PCOD9281809
Probable space group: C 2/C
;
_chemical_formula_sum "Si O2"
_cell_formula_units_Z 56
_cell_length_a 12.809626
_cell_length_b 14.836079
_cell_length_c 14.795180
_cell_angle_alpha 90.000000
_cell_angle_beta 103.443521
_cell_angle_gamma 90.000000
_cell_volume 2734.701391
_symmetry_space_group_name_H-M "C 2/C"
_symmetry_group_IT_number 15
_symmetry_cell_setting 'monoclinic'
loop_
_space_group_symop_operation_xyz
x,y,z
-x,y,1/2-z
-x,-y,-z
x,-y,1/2+z
1/2+x,1/2+y,z
1/2-x,1/2+y,1/2-z
1/2-x,1/2-y,-z
1/2+x,1/2-y,1/2+z
loop_
_atom_site_type_symbol
_atom_site_label
_atom_site_fract_x
_atom_site_fract_y
_atom_site_fract_z
Si Si1 0.881689 0.851507 0.839540
Si Si2 0.031882 0.005891 0.901350
Si Si3 0.232036 0.777167 0.854621
Si Si4 0.958006 0.801921 0.338777
Si Si5 0.145539 0.373938 0.459320
Si Si6 0.250925 0.561548 0.478205
Si Si7 0.573456 0.807233 0.019806
O O1 0.824256 0.835236 0.733534
O O2 0.806147 0.901252 0.898274
O O3 0.904299 0.755278 0.889692
O O4 0.988790 0.912218 0.853600
O O5 0.968897 0.090260 0.846857
O O6 0.156926 0.031352 0.931770
O O7 0.000000 0.000000 0.000000
O O8 0.337738 0.729862 0.834077
O O9 0.158104 0.698561 0.881571
O O10 0.274363 0.837390 0.946383
O O11 0.000000 0.771175 0.250000
O O12 0.032075 0.759379 0.432213
O O13 0.182752 0.473072 0.440894
O O14 0.026227 0.371087 0.475233
O O15 0.175422 0.637199 0.506762
#
# Coordination Sequence:
#
# PCOD9281809 Si02
#       7
#     8   8   8   8   8   8   8
#     4  11  23  41  69 100 132 171 228 281 330 404
#     4  10  21  38  64  97 133 167 217 279 334 385
#     4  10  23  42  68  94 132 184 221 273 343 406
#     4  11  22  39  65  99 132 175 222 282 338 403
#     4  10  24  44  66  91 139 177 222 272 341 404
#     4  11  22  41  70  99 133 175 219 284 336 390
#     4  11  23  42  68  95 134 178 225 270 337 404
#
# _framework density 20.477554999999999
#
# number of rings (size 3 to 8) (size 9 to 14) (size 15 to 20)
#    0.000    1.429    2.857    3.429    6.000    1.714 
#    2.571    0.000    9.429    0.000    0.000    0.000 
#    0.000    0.000    0.000    0.000    0.000    0.000 
#
# Total GULP energy -156574.561118 kJ/mol
# GULP energy per Si atom -5591.948611 kJ/mol
# Density = 2.043095 g / cm^3
# Si number density = 20.477555 Si / 1000 Ang^3
#
#
#
# Elastic Constant Matrix: (Units=GPa)
#
#
# Indices 1 2 3 4 5 6 
#
# 1 92.6229 46.6711 36.6368 0.0000 -6.3994 0.0000
# 2 46.6711 100.0645 22.1636 0.0000 2.6140 0.0000
# 3 36.6368 22.1636 88.0971 0.0000 3.7148 0.0000
# 4 0.0000 0.0000 0.0000 26.1163 0.0000 9.9278
# 5 -6.3994 2.6140 3.7148 0.0000 20.0492 0.0000
# 6 0.0000 0.0000 0.0000 9.9278 0.0000 66.6582
#
#
#
# Elastic Compliance Matrix: (Units=1/GPa)
#
#
# Indices 1 2 3 4 5 6 
#
# 1 0.017004 -0.006871 -0.005654 0.000000 0.007371 0.000000
# 2 -0.006871 0.013376 -0.000344 0.000000 -0.003873 0.000000
# 3 -0.005654 -0.000344 0.013972 0.000000 -0.004349 0.000000
# 4 0.000000 0.000000 0.000000 0.040588 0.000000 -0.006045
# 5 0.007371 -0.003873 -0.004349 0.000000 0.053541 0.000000
# 6 0.000000 0.000000 0.000000 -0.006045 0.000000 0.015902
#
#
# Mechanical properties :
#
#
# Convention : Reuss Voigt Hill
#
# Bulk Modulus (GPa) = 53.72299 54.63641 54.17970
# Shear Modulus (GPa) = 26.83459 34.25228 30.54344
#
# Velocity S-wave (km/s) = 3.62393 4.09427 3.86626
# Velocity P-wave (km/s) = 6.61834 7.00641 6.81514
#
# Compressibility (1/GPa) = 0.01861401
#
# Stress axis : x y z
#
# Youngs Moduli (GPa) = 58.80834 74.76170 71.57033
#
# Poissons Ratio (x) = 0.51371 0.40464
# Poissons Ratio (y) = 0.40409 0.02464
# Poissons Ratio (z) = 0.33249 0.02573
#
# Static dielectric constant tensor:
#      x y z
#    x 1.737730 0.000000 0.009460 
#    y 0.000000 1.717210 0.000000 
#    z 0.009460 0.000000 1.705350 
# 
# From -- ./inp_files/144217.got.cif
#   From: 2010.05.17/outbox.cif.g08.bks.cpg/sg15_73_cif.got.tgz:144217.got - 2010.06.03 18:47:42.
