data_PCOD9281834
_publ_section_title
;
Structure prediction by ZEFSAII (Michael W. Deem and Ramdas Pophale) SiO2 
 PCOD9281834
Probable space group: C 2/C
;
_chemical_formula_sum "Si O2"
_cell_formula_units_Z 40
_cell_length_a 16.202922
_cell_length_b 9.345291
_cell_length_c 22.238612
_cell_angle_alpha 90.000000
_cell_angle_beta 33.422390
_cell_angle_gamma 90.000000
_cell_volume 1854.783618
_symmetry_space_group_name_H-M "C 2/C"
_symmetry_group_IT_number 15
_symmetry_cell_setting 'monoclinic'
loop_
_space_group_symop_operation_xyz
x,y,z
-x,y,1/2-z
-x,-y,-z
x,-y,1/2+z
1/2+x,1/2+y,z
1/2-x,1/2+y,1/2-z
1/2-x,1/2-y,-z
1/2+x,1/2-y,1/2+z
loop_
_atom_site_type_symbol
_atom_site_label
_atom_site_fract_x
_atom_site_fract_y
_atom_site_fract_z
Si Si1 0.477487 0.575264 0.382373
Si Si2 0.742240 0.541628 0.670970
Si Si3 0.000000 0.234629 0.750000
Si Si4 0.443826 0.852748 0.473012
Si Si5 0.345536 0.986830 0.912819
Si Si6 0.500000 0.225895 0.750000
O O1 0.636048 0.497308 0.291552
O O2 0.445728 0.689652 0.452681
O O3 0.331838 0.475702 0.467252
O O4 0.495541 0.668691 0.310099
O O5 0.631480 0.636586 0.697575
O O6 0.807114 0.401052 0.598239
O O7 0.895309 0.618465 0.595583
O O8 0.076179 0.341710 0.655552
O O9 0.421481 0.949470 0.426777
O O10 0.372108 0.109243 0.845534
#
# Coordination Sequence:
#
# PCOD9281834 Si02
#       6
#     8   8   4   8   8   4
#     4  11  20  38  66  89 118 163 213 253 302 370
#     4  11  24  40  61  91 128 163 201 261 309 364
#     4  11  25  42  62  94 131 163 206 252 314 371
#     4  10  23  41  62  91 125 163 208 255 310 362
#     4  10  21  38  65  90 121 165 208 253 308 368
#     4   9  17  34  62  90 115 151 208 256 292 359
#
# _framework density 21.565856
#
# number of rings (size 3 to 8) (size 9 to 14) (size 15 to 20)
#    0.000    1.600    0.000    6.600    2.800    3.200 
#    3.600    1.000    0.000    0.000    0.000    0.000 
#    0.000    0.000    0.000    0.000    0.000    0.000 
#
# Total GULP energy -111619.585284 kJ/mol
# GULP energy per Si atom -5580.979264 kJ/mol
# Density = 2.151677 g / cm^3
# Si number density = 21.565856 Si / 1000 Ang^3
#
#
#
# Elastic Constant Matrix: (Units=GPa)
#
#
# Indices 1 2 3 4 5 6 
#
# 1 53.8980 9.9600 42.0705 0.0000 -31.3277 0.0000
# 2 9.9600 45.4706 29.6118 0.0001 -21.0593 0.0000
# 3 42.0705 29.6118 163.0650 0.0000 -41.8346 0.0000
# 4 0.0000 0.0001 0.0000 23.6245 0.0000 -1.8801
# 5 -31.3277 -21.0593 -41.8346 0.0000 34.7680 0.0000
# 6 0.0000 0.0000 0.0000 -1.8801 0.0000 1.5227
#
#
#
# Elastic Compliance Matrix: (Units=1/GPa)
#
#
# Indices 1 2 3 4 5 6 
#
# 1 0.043647 0.012310 -0.002161 0.000000 0.044185 0.000000
# 2 0.012310 0.034191 -0.001774 0.000000 0.029668 0.000000
# 3 -0.002161 -0.001774 0.009022 0.000000 0.007835 0.000000
# 4 0.000000 0.000000 0.000000 0.046942 0.000000 0.057959
# 5 0.044185 0.029668 0.007835 0.000000 0.095972 0.000001
# 6 0.000000 0.000000 0.000000 0.057959 0.000001 0.728272
#
#
# Mechanical properties :
#
#
# Convention : Reuss Voigt Hill
#
# Bulk Modulus (GPa) = 9.65132 47.30203 28.47668
# Shear Modulus (GPa) = 5.12383 24.03580 14.57981
#
# Velocity S-wave (km/s) = 1.54307 3.34208 2.60294
# Velocity P-wave (km/s) = 2.76762 6.07240 4.71878
#
# Compressibility (1/GPa) = 0.10361279
#
# Stress axis : x y z
#
# Youngs Moduli (GPa) = 22.91088 29.24718 110.83988
#
# Poissons Ratio (x) = -0.36004 0.23949
# Poissons Ratio (y) = -0.28204 0.19659
# Poissons Ratio (z) = 0.04950 0.05187
#
# Static dielectric constant tensor:
#      x y z
#    x 1.789720 0.000000 0.030650 
#    y 0.000000 1.794950 0.000000 
#    z 0.030650 0.000000 1.797220 
# 
# From -- ./inp_files/102873.got.cif
#   From: 2010.05.17/outbox.cif.g08.bks.cpg/sg15_52_cif.got.tgz:102873.got - 2010.06.03 18:47:42.
