data_PCOD9281753
_publ_section_title
;
Structure prediction by ZEFSAII (Michael W. Deem and Ramdas Pophale) SiO2 
 PCOD9281753
Probable space group: C 2/C
;
_chemical_formula_sum "Si O2"
_cell_formula_units_Z 56
_cell_length_a 27.582051
_cell_length_b 11.030425
_cell_length_c 8.763958
_cell_angle_alpha 90.000000
_cell_angle_beta 61.943229
_cell_angle_gamma 90.000000
_cell_volume 2353.016327
_symmetry_space_group_name_H-M "C 2/C"
_symmetry_group_IT_number 15
_symmetry_cell_setting 'monoclinic'
loop_
_space_group_symop_operation_xyz
x,y,z
-x,y,1/2-z
-x,-y,-z
x,-y,1/2+z
1/2+x,1/2+y,z
1/2-x,1/2+y,1/2-z
1/2-x,1/2-y,-z
1/2+x,1/2-y,1/2+z
loop_
_atom_site_type_symbol
_atom_site_label
_atom_site_fract_x
_atom_site_fract_y
_atom_site_fract_z
Si Si1 0.460838 0.924134 0.667320
Si Si2 0.019485 0.837745 0.398016
Si Si3 0.768352 0.402368 0.291082
Si Si4 0.338464 0.543111 0.965058
Si Si5 0.411309 0.420162 0.646060
Si Si6 0.659917 0.020709 0.106843
Si Si7 0.700369 0.747204 0.692757
O O1 0.500000 0.898703 0.750000
O O2 0.448591 0.787711 0.629033
O O3 0.405282 0.989753 0.803624
O O4 0.500000 0.000000 0.500000
O O5 0.000000 0.862057 0.250000
O O6 0.961644 0.827449 0.573209
O O7 0.055632 0.950963 0.401148
O O8 0.721600 0.504706 0.388974
O O9 0.808012 0.404477 0.377131
O O10 0.731117 0.287612 0.302509
O O11 0.808725 0.431869 0.089372
O O12 0.371291 0.428046 0.849419
O O13 0.333451 0.634359 0.828668
O O14 0.374337 0.596501 0.049827
O O15 0.669902 0.126432 0.219760
O O16 0.750000 0.750000 0.500000
#
# Coordination Sequence:
#
# PCOD9281753 Si02
#       7
#     8   8   8   8   8   8   8
#     4  11  25  47  68  92 124 177 235 272 317 381
#     4  10  22  42  65  94 128 175 217 266 332 391
#     4  11  21  39  64  95 127 166 213 257 318 394
#     4  12  20  37  64  98 134 164 201 263 324 402
#     4  11  22  37  65 101 134 164 209 265 337 392
#     4  11  23  43  69  90 129 177 214 272 321 381
#     4  10  21  38  64  91 128 173 210 248 327 395
#
# _framework density 23.799240999999999
#
# number of rings (size 3 to 8) (size 9 to 14) (size 15 to 20)
#    0.000    1.143    5.714    1.714    2.000    0.000 
#    2.571    2.143    0.000    0.000    0.000    0.000 
#    0.000    0.000    0.000    0.000    0.000    0.000 
#
# Total GULP energy -156327.454413 kJ/mol
# GULP energy per Si atom -5583.123372 kJ/mol
# Density = 2.374507 g / cm^3
# Si number density = 23.799241 Si / 1000 Ang^3
#
#
#
# Elastic Constant Matrix: (Units=GPa)
#
#
# Indices 1 2 3 4 5 6 
#
# 1 116.6644 10.9823 28.2336 0.0000 -36.6943 0.0000
# 2 10.9823 48.9018 11.0080 0.0000 1.6992 0.0000
# 3 28.2336 11.0080 75.3844 0.0000 -35.1878 0.0000
# 4 0.0000 0.0000 0.0000 30.2646 0.0000 -0.2220
# 5 -36.6943 1.6992 -35.1878 0.0000 41.7354 0.0000
# 6 0.0000 0.0000 0.0000 -0.2220 0.0000 23.1741
#
#
#
# Elastic Compliance Matrix: (Units=1/GPa)
#
#
# Indices 1 2 3 4 5 6 
#
# 1 0.012438 -0.003616 0.001720 0.000000 0.012532 0.000000
# 2 -0.003616 0.023055 -0.006488 0.000000 -0.009587 0.000000
# 3 0.001720 -0.006488 0.023741 0.000000 0.021792 0.000000
# 4 0.000000 0.000000 0.000000 0.033044 0.000000 0.000317
# 5 0.012532 -0.009587 0.021792 0.000000 0.053743 0.000000
# 6 0.000000 0.000000 0.000000 0.000317 0.000000 0.043155
#
#
# Mechanical properties :
#
#
# Convention : Reuss Voigt Hill
#
# Bulk Modulus (GPa) = 23.54851 37.93316 30.74083
# Shear Modulus (GPa) = 22.71722 31.74994 27.23358
#
# Velocity S-wave (km/s) = 3.09291 3.65646 3.38643
# Velocity P-wave (km/s) = 4.76140 5.81375 5.31369
#
# Compressibility (1/GPa) = 0.04246554
#
# Stress axis : x y z
#
# Youngs Moduli (GPa) = 80.40147 43.37512 42.12157
#
# Poissons Ratio (x) = 0.15683 -0.07243
# Poissons Ratio (y) = 0.29071 0.27327
# Poissons Ratio (z) = -0.13826 0.28140
#
# Static dielectric constant tensor:
#      x y z
#    x 1.954360 0.000000 -0.023480 
#    y 0.000000 2.062560 0.000000 
#    z -0.023480 0.000000 1.881690 
# 
# From -- ./inp_files/69292.got.cif
#   From: 2010.05.17/outbox.cif.g08.bks.cpg/sg15_35_cif.got.tgz:69292.got - 2010.06.03 18:47:42.
