data_PCOD9281219
_publ_section_title
;
Structure prediction by ZEFSAII (Michael W. Deem and Ramdas Pophale) SiO2 
 PCOD9281219
Probable space group: C 2/C
;
_chemical_formula_sum "Si O2"
_cell_formula_units_Z 56
_cell_length_a 11.012418
_cell_length_b 15.171636
_cell_length_c 22.351561
_cell_angle_alpha 90.000000
_cell_angle_beta 33.160635
_cell_angle_gamma 90.000000
_cell_volume 2042.682723
_symmetry_space_group_name_H-M "C 2/C"
_symmetry_group_IT_number 15
_symmetry_cell_setting 'monoclinic'
loop_
_space_group_symop_operation_xyz
x,y,z
-x,y,1/2-z
-x,-y,-z
x,-y,1/2+z
1/2+x,1/2+y,z
1/2-x,1/2+y,1/2-z
1/2-x,1/2-y,-z
1/2+x,1/2-y,1/2+z
loop_
_atom_site_type_symbol
_atom_site_label
_atom_site_fract_x
_atom_site_fract_y
_atom_site_fract_z
Si Si1 0.462141 0.691265 0.393961
Si Si2 0.485001 0.684497 0.569978
Si Si3 0.768403 0.953967 0.233308
Si Si4 0.356279 0.941409 0.474538
Si Si5 0.000000 0.937655 0.250000
Si Si6 0.369530 0.418327 0.591884
Si Si7 0.911838 0.626755 0.510247
Si Si8 0.500000 0.764540 0.250000
O O1 0.250000 0.750000 0.500000
O O2 0.382948 0.590281 0.449725
O O3 0.653813 0.682539 0.361887
O O4 0.531263 0.710182 0.298544
O O5 0.428719 0.627164 0.650796
O O6 0.664373 0.632947 0.457674
O O7 0.552228 0.785887 0.541618
O O8 0.233540 0.684534 0.644249
O O9 0.537034 0.915227 0.351703
O O10 0.890535 0.994341 0.241592
O O11 0.728581 0.019957 0.195713
O O12 0.388130 0.889152 0.524120
O O13 0.394727 0.041187 0.475675
O O14 0.798091 0.881901 0.359370
O O15 0.500000 0.500000 0.500000
#
# Coordination Sequence:
#
# PCOD9281219 Si02
#       8
#     8   8   8   8   4   8   8   4
#     4  12  22  39  67  99 140 175 227 287 343 408
#     4  11  23  43  64  99 140 172 224 279 357 415
#     4  10  23  41  69  93 135 178 223 280 347 421
#     4  10  21  38  59  99 128 167 219 282 332 396
#     4  10  22  43  64  89 124 176 230 272 331 398
#     4  10  23  42  63  93 138 180 215 280 351 415
#     4  10  21  40  63  89 133 170 217 280 327 409
#     4  12  24  37  72 111 128 180 222 294 353 410
#
# _framework density 27.414929000000001
#
# number of rings (size 3 to 8) (size 9 to 14) (size 15 to 20)
#    0.000    1.429    2.857    1.714    2.000    4.000 
#    0.000    0.000    0.000    0.000    0.000    0.000 
#    0.000    0.000    0.000    0.000    0.000    0.000 
#
# Total GULP energy -156023.729268 kJ/mol
# GULP energy per Si atom -5572.276045 kJ/mol
# Density = 2.735253 g / cm^3
# Si number density = 27.414929 Si / 1000 Ang^3
#
#
#
# Elastic Constant Matrix: (Units=GPa)
#
#
# Indices 1 2 3 4 5 6 
#
# 1 74.4048 26.6933 32.2609 -0.0002 27.3708 0.0022
# 2 26.6933 134.7570 19.5461 -0.0062 24.6562 0.0029
# 3 32.2609 19.5461 119.1835 -0.0100 24.5084 0.0045
# 4 -0.0002 -0.0062 -0.0100 11.4813 -0.0005 27.1784
# 5 27.3708 24.6562 24.5084 -0.0005 43.3384 -0.0006
# 6 0.0022 0.0029 0.0045 27.1784 -0.0006 25.1190
#
#
#
# Elastic Compliance Matrix: (Units=1/GPa)
#
#
# Indices 1 2 3 4 5 6 
#
# 1 0.018665 -0.001585 -0.002890 0.000000 -0.009252 -0.000002
# 2 -0.001585 0.008438 -0.000196 -0.000004 -0.003688 0.000003
# 3 -0.002890 -0.000196 0.009965 -0.000008 -0.003699 0.000007
# 4 0.000000 -0.000004 -0.000008 -0.055786 0.000007 0.060360
# 5 -0.009252 -0.003688 -0.003699 0.000007 0.033108 -0.000004
# 6 -0.000002 0.000003 0.000007 0.060360 -0.000004 -0.025499
#
#
# Mechanical properties :
#
#
# Convention : Reuss Voigt Hill
#
# Bulk Modulus (GPa) = 36.06722 53.92731 44.99726
# Shear Modulus (GPa) = 668.79528 32.64406 350.71967
#
# Velocity S-wave (km/s) = 15.63594 3.45445 11.32289
# Velocity P-wave (km/s) = 18.41633 5.96863 13.68915
#
# Compressibility (1/GPa) = 0.02772601
#
# Stress axis : x y z
#
# Youngs Moduli (GPa) = 53.57567 118.50977 100.34678
#
# Poissons Ratio (x) = 0.18787 0.28998
# Poissons Ratio (y) = 0.08493 0.01969
# Poissons Ratio (z) = 0.15482 0.02326
#
# Static dielectric constant tensor:
#      x y z
#    x 3.447370 0.000070 0.015560 
#    y 0.000070 2.361580 0.000020 
#    z 0.015560 0.000020 2.578340 
# 
# From -- ./inp_files/274498.got.cif
#   From: 2010.05.17/outbox.cif.g08.bks.cpg/sg15_138_cif.got.tgz:274498.got - 2010.06.03 18:47:42.
