data_PCOD9281191
_publ_section_title
;
Structure prediction by ZEFSAII (Michael W. Deem and Ramdas Pophale) SiO2 
 PCOD9281191
Probable space group: C 2/C
;
_chemical_formula_sum "Si O2"
_cell_formula_units_Z 24
_cell_length_a 14.647957
_cell_length_b 11.772322
_cell_length_c 5.299204
_cell_angle_alpha 90.000000
_cell_angle_beta 69.856165
_cell_angle_gamma 90.000000
_cell_volume 857.901199
_symmetry_space_group_name_H-M "C 2/C"
_symmetry_group_IT_number 15
_symmetry_cell_setting 'monoclinic'
loop_
_space_group_symop_operation_xyz
x,y,z
-x,y,1/2-z
-x,-y,-z
x,-y,1/2+z
1/2+x,1/2+y,z
1/2-x,1/2+y,1/2-z
1/2-x,1/2-y,-z
1/2+x,1/2-y,1/2+z
loop_
_atom_site_type_symbol
_atom_site_label
_atom_site_fract_x
_atom_site_fract_y
_atom_site_fract_z
Si Si1 0.107804 0.159160 0.706689
Si Si2 0.221794 0.121365 0.086207
Si Si3 0.429484 0.106761 0.011224
O O1 0.173724 0.131289 0.405096
O O2 0.000000 0.119077 0.750000
O O3 0.099888 0.296796 0.758277
O O4 0.151466 0.100079 0.915194
O O5 0.250000 0.250000 0.000000
O O6 0.327585 0.062201 0.994558
O O7 0.500000 0.175114 0.750000
O O8 0.500000 0.000000 0.000000
#
# Coordination Sequence:
#
# PCOD9281191 Si02
#       3
#     8   8   8
#     4  11  21  39  63  90 124 171 221 269 320 390
#     4  10  21  38  59  88 128 171 215 269 326 388
#     4  11  23  37  59  96 138 174 210 270 343 400
#
# _framework density 27.975245999999999
#
# number of rings (size 3 to 8) (size 9 to 14) (size 15 to 20)
#    0.000    1.333    0.000   10.000    0.000    2.667 
#    0.000    0.000    0.000    0.000    0.000   23.333 
#    0.000   18.667    0.000    1.000    0.000    0.000 
#
# Total GULP energy -67211.362459 kJ/mol
# GULP energy per Si atom -5600.946872 kJ/mol
# Density = 2.791157 g / cm^3
# Si number density = 27.975246 Si / 1000 Ang^3
#
#
#
# Elastic Constant Matrix: (Units=GPa)
#
#
# Indices 1 2 3 4 5 6 
#
# 1 329.0411 50.8721 123.5298 0.0000 7.7171 0.0000
# 2 50.8721 184.3797 38.2391 0.0000 2.3024 0.0000
# 3 123.5298 38.2391 229.2003 0.0000 5.2580 0.0000
# 4 0.0000 0.0000 0.0000 -143.9958 0.0000 -15.8144
# 5 7.7171 2.3024 5.2580 0.0000 55.7800 0.0000
# 6 0.0000 0.0000 0.0000 -15.8144 0.0000 54.3378
#
#
#
# Elastic Compliance Matrix: (Units=1/GPa)
#
#
# Indices 1 2 3 4 5 6 
#
# 1 0.003892 -0.000659 -0.001980 0.000000 -0.000325 0.000000
# 2 -0.000659 0.005731 -0.000599 0.000000 -0.000089 0.000000
# 3 -0.001980 -0.000599 0.005535 0.000000 -0.000223 0.000000
# 4 0.000000 0.000000 0.000000 -0.006730 0.000000 -0.001959
# 5 -0.000325 -0.000089 -0.000223 0.000000 0.017997 0.000000
# 6 0.000000 0.000000 0.000000 -0.001959 0.000000 0.017833
#
#
# Mechanical properties :
#
#
# Convention : Reuss Voigt Hill
#
# Bulk Modulus (GPa) = 115.18450 129.76703 122.47576
# Shear Modulus (GPa) = 93.23231 28.55641 60.89436
#
# Velocity S-wave (km/s) = 5.77919 3.19842 4.67060
# Velocity P-wave (km/s) = 9.26257 7.75416 8.54173
#
# Compressibility (1/GPa) = 0.00868172
#
# Stress axis : x y z
#
# Youngs Moduli (GPa) = 256.93126 174.49723 180.65845
#
# Poissons Ratio (x) = 0.11501 0.35775
# Poissons Ratio (y) = 0.16935 0.10818
# Poissons Ratio (z) = 0.50879 0.10449
#
# Static dielectric constant tensor:
#      x y z
#    x 2.309990 0.000000 0.152110 
#    y 0.000000 2.221730 0.000000 
#    z 0.152110 0.000000 2.502180 
# 
# From -- ./inp_files/6233.got.cif
#   From: 2010.05.17/outbox.cif.g08.bks.cpg/sg15_4_cif.got.tgz:6233.got - 2010.06.03 18:47:42.
