data_PCOD9281138
_publ_section_title
;
Structure prediction by ZEFSAII (Michael W. Deem and Ramdas Pophale) SiO2 
 PCOD9281138
Probable space group: C 2/C
;
_chemical_formula_sum "Si O2"
_cell_formula_units_Z 48
_cell_length_a 22.750025
_cell_length_b 10.335978
_cell_length_c 12.729254
_cell_angle_alpha 90.000000
_cell_angle_beta 144.209623
_cell_angle_gamma 90.000000
_cell_volume 1750.490255
_symmetry_space_group_name_H-M "C 2/C"
_symmetry_group_IT_number 15
_symmetry_cell_setting 'monoclinic'
loop_
_space_group_symop_operation_xyz
x,y,z
-x,y,1/2-z
-x,-y,-z
x,-y,1/2+z
1/2+x,1/2+y,z
1/2-x,1/2+y,1/2-z
1/2-x,1/2-y,-z
1/2+x,1/2-y,1/2+z
loop_
_atom_site_type_symbol
_atom_site_label
_atom_site_fract_x
_atom_site_fract_y
_atom_site_fract_z
Si Si1 0.610200 0.656356 0.262074
Si Si2 0.687725 0.054238 0.923450
Si Si3 0.866969 0.273659 0.660655
Si Si4 0.580752 0.978604 0.461622
Si Si5 0.101346 0.801878 0.075355
Si Si6 0.160366 0.730567 0.619764
O O1 0.639196 0.803618 0.340613
O O2 0.695889 0.567938 0.439792
O O3 0.634943 0.666930 0.172936
O O4 0.493650 0.622417 0.111705
O O5 0.682760 0.026359 0.040693
O O6 0.631065 0.926070 0.800952
O O7 0.750000 0.250000 0.500000
O O8 0.910833 0.186778 0.816527
O O9 0.884901 0.246768 0.563309
O O10 0.500000 0.991657 0.250000
O O11 0.570527 0.844222 0.501970
O O12 0.598809 0.100692 0.560981
O O13 0.219590 0.802821 0.213817
#
# Coordination Sequence:
#
# PCOD9281138 Si02
#       6
#     8   8   8   8   8   8
#     4  11  22  36  64  93 123 160 203 260 314 363
#     4  10  21  38  58  96 126 154 203 264 305 365
#     4   9  21  40  60  85 126 166 203 252 305 367
#     4  11  21  38  63  90 124 161 209 256 306 364
#     4  11  22  40  62  92 119 167 209 248 314 371
#     4  10  23  38  57  91 126 157 202 262 299 363
#
# _framework density 27.420888000000001
#
# number of rings (size 3 to 8) (size 9 to 14) (size 15 to 20)
#    0.000    1.667    3.333    1.000    4.667    1.333 
#    0.000    7.500    0.000    0.000   13.000    0.000 
#    0.000    0.000    0.000    0.000    0.000    0.000 
#
# Total GULP energy -133846.462763 kJ/mol
# GULP energy per Si atom -5576.935948 kJ/mol
# Density = 2.735848 g / cm^3
# Si number density = 27.420888 Si / 1000 Ang^3
#
#
#
# Elastic Constant Matrix: (Units=GPa)
#
#
# Indices 1 2 3 4 5 6 
#
# 1 73.9509 -5.6568 31.7530 0.0000 -0.9445 0.0000
# 2 -5.6568 32.4771 15.6032 0.0000 4.3049 0.0000
# 3 31.7530 15.6032 145.8320 0.0000 39.1442 0.0000
# 4 0.0000 0.0000 0.0000 31.7763 0.0000 -6.2558
# 5 -0.9445 4.3049 39.1442 0.0000 56.9151 0.0000
# 6 0.0000 0.0000 0.0000 -6.2558 0.0000 18.4882
#
#
#
# Elastic Compliance Matrix: (Units=1/GPa)
#
#
# Indices 1 2 3 4 5 6 
#
# 1 0.016011 0.004693 -0.004862 0.000000 0.003255 0.000000
# 2 0.004693 0.033835 -0.004876 0.000000 0.000872 0.000000
# 3 -0.004862 -0.004876 0.010253 0.000000 -0.006763 0.000000
# 4 0.000000 0.000000 0.000000 0.033716 0.000000 0.011408
# 5 0.003255 0.000872 -0.006763 0.000000 0.022210 0.000000
# 6 0.000000 0.000000 0.000000 0.011408 0.000000 0.057949
#
#
# Mechanical properties :
#
#
# Convention : Reuss Voigt Hill
#
# Bulk Modulus (GPa) = 19.99631 37.29542 28.64586
# Shear Modulus (GPa) = 24.90869 35.47329 30.19099
#
# Velocity S-wave (km/s) = 3.01721 3.60065 3.32176
# Velocity P-wave (km/s) = 4.40979 5.56029 5.01812
#
# Compressibility (1/GPa) = 0.05000923
#
# Stress axis : x y z
#
# Youngs Moduli (GPa) = 62.45856 29.55479 97.53257
#
# Poissons Ratio (x) = -0.13870 0.47419
# Poissons Ratio (y) = -0.29313 0.47559
# Poissons Ratio (z) = 0.30366 0.14412
#
# Static dielectric constant tensor:
#      x y z
#    x 2.382200 0.000000 0.033230 
#    y 0.000000 2.242270 0.000000 
#    z 0.033230 0.000000 2.269100 
# 
# From -- ./inp_files/177898.got.cif
#   From: 2010.05.17/outbox.cif.g08.bks.cpg/sg15_89_cif.got.tgz:177898.got - 2010.06.03 18:47:42.
