data_PCOD9281609
_publ_section_title
;
Structure prediction by ZEFSAII (Michael W. Deem and Ramdas Pophale) SiO2 
 PCOD9281609
Probable space group: C 2/C
;
_chemical_formula_sum "Si O2"
_cell_formula_units_Z 56
_cell_length_a 10.792246
_cell_length_b 16.684105
_cell_length_c 13.926985
_cell_angle_alpha 90.000000
_cell_angle_beta 113.936786
_cell_angle_gamma 90.000000
_cell_volume 2292.002238
_symmetry_space_group_name_H-M "C 2/C"
_symmetry_group_IT_number 15
_symmetry_cell_setting 'monoclinic'
loop_
_space_group_symop_operation_xyz
x,y,z
-x,y,1/2-z
-x,-y,-z
x,-y,1/2+z
1/2+x,1/2+y,z
1/2-x,1/2+y,1/2-z
1/2-x,1/2-y,-z
1/2+x,1/2-y,1/2+z
loop_
_atom_site_type_symbol
_atom_site_label
_atom_site_fract_x
_atom_site_fract_y
_atom_site_fract_z
Si Si1 0.966405 0.924403 0.846397
Si Si2 0.492652 0.211993 0.015234
Si Si3 0.630202 0.264373 0.724168
Si Si4 0.219387 0.607869 0.013245
Si Si5 0.824068 0.564255 0.926585
Si Si6 0.252449 0.391702 0.302913
Si Si7 0.549056 0.388912 0.438277
O O1 0.853554 0.859214 0.775687
O O2 0.000000 0.962331 0.750000
O O3 0.922574 0.927254 0.947399
O O4 0.118952 0.889602 0.919789
O O5 0.417637 0.239027 0.895274
O O6 0.643460 0.184725 0.032618
O O7 0.415697 0.128600 0.013125
O O8 0.470441 0.292653 0.068791
O O9 0.500000 0.248633 0.750000
O O10 0.749047 0.203995 0.785789
O O11 0.195166 0.599119 0.891559
O O12 0.158660 0.527342 0.039298
O O13 0.829313 0.572642 0.812420
O O14 0.671693 0.587334 0.909608
O O15 0.406235 0.424717 0.354853
#
# Coordination Sequence:
#
# PCOD9281609 Si02
#       7
#     8   8   8   8   8   8   8
#     4   9  21  34  59  93 125 151 201 269 313 358
#     4  10  21  38  63  89 122 161 216 261 306 368
#     4   9  16  32  58  91 116 147 203 255 302 355
#     4  11  23  39  64  94 125 167 214 266 312 384
#     4  11  24  41  61  90 133 172 205 256 326 390
#     4  10  22  38  67  88 122 169 209 253 317 385
#     4  10  22  39  65  88 123 163 213 254 318 378
#
# _framework density 24.432787000000001
#
# number of rings (size 3 to 8) (size 9 to 14) (size 15 to 20)
#    0.000    2.000    1.429    1.286    4.000    6.286 
#    0.000    0.000    6.286    0.000    0.000    0.000 
#    0.000    0.000    0.000    0.000    0.000    0.000 
#
# Total GULP energy -156028.632302 kJ/mol
# GULP energy per Si atom -5572.451154 kJ/mol
# Density = 2.437718 g / cm^3
# Si number density = 24.432787 Si / 1000 Ang^3
#
#
#
# Elastic Constant Matrix: (Units=GPa)
#
#
# Indices 1 2 3 4 5 6 
#
# 1 45.0681 -10.9504 -2.5775 0.0000 -1.1115 0.0000
# 2 -10.9504 59.0808 17.2194 0.0000 -25.2009 0.0000
# 3 -2.5775 17.2194 92.6147 0.0000 -23.6716 0.0000
# 4 0.0000 0.0000 0.0000 9.2561 0.0000 120.4293
# 5 -1.1115 -25.2009 -23.6716 0.0000 24.4447 0.0000
# 6 0.0000 0.0000 0.0000 120.4293 0.0000 484.7164
#
#
#
# Elastic Compliance Matrix: (Units=1/GPa)
#
#
# Indices 1 2 3 4 5 6 
#
# 1 0.024989 0.009632 0.002303 0.000000 0.013296 0.000000
# 2 0.009632 0.034615 0.004073 0.000000 0.040069 0.000000
# 3 0.002303 0.004073 0.014890 0.000000 0.018723 0.000000
# 4 0.000000 0.000000 0.000000 -0.048391 0.000000 0.012023
# 5 0.013296 0.040069 0.018723 0.000000 0.100952 0.000000
# 6 0.000000 0.000000 0.000000 0.012023 0.000000 -0.000924
#
#
# Mechanical properties :
#
#
# Convention : Reuss Voigt Hill
#
# Bulk Modulus (GPa) = 9.38879 22.68295 16.03587
# Shear Modulus (GPa) = 38.57520 116.55492 77.56506
#
# Velocity S-wave (km/s) = 3.97776 6.91432 5.64050
# Velocity P-wave (km/s) = 4.99478 8.54680 6.99984
#
# Compressibility (1/GPa) = 0.10651002
#
# Stress axis : x y z
#
# Youngs Moduli (GPa) = 40.01825 28.88904 67.16107
#
# Poissons Ratio (x) = -0.27825 -0.15468
# Poissons Ratio (y) = -0.38545 -0.27358
# Poissons Ratio (z) = -0.09216 -0.11768
#
# Static dielectric constant tensor:
#      x y z
#    x 1.929610 0.000000 0.016780 
#    y 0.000000 2.192720 0.000000 
#    z 0.016780 0.000000 1.950820 
# 
# From -- ./inp_files/146143.got.cif
#   From: 2010.05.17/outbox.cif.g08.bks.cpg/sg15_74_cif.got.tgz:146143.got - 2010.06.03 18:47:42.
