data_PCOD9281144
_publ_section_title
;
Structure prediction by ZEFSAII (Michael W. Deem and Ramdas Pophale) SiO2 
 PCOD9281144
Probable space group: C 2/C
;
_chemical_formula_sum "Si O2"
_cell_formula_units_Z 56
_cell_length_a 23.713392
_cell_length_b 13.754524
_cell_length_c 8.084922
_cell_angle_alpha 90.000000
_cell_angle_beta 109.100921
_cell_angle_gamma 90.000000
_cell_volume 2491.844816
_symmetry_space_group_name_H-M "C 2/C"
_symmetry_group_IT_number 15
_symmetry_cell_setting 'monoclinic'
loop_
_space_group_symop_operation_xyz
x,y,z
-x,y,1/2-z
-x,-y,-z
x,-y,1/2+z
1/2+x,1/2+y,z
1/2-x,1/2+y,1/2-z
1/2-x,1/2-y,-z
1/2+x,1/2-y,1/2+z
loop_
_atom_site_type_symbol
_atom_site_label
_atom_site_fract_x
_atom_site_fract_y
_atom_site_fract_z
Si Si1 0.090825 0.070449 0.088071
Si Si2 0.773776 0.651021 0.384647
Si Si3 0.618244 0.270945 0.845902
Si Si4 0.181645 0.707280 0.617308
Si Si5 0.252610 0.545103 0.793389
Si Si6 0.960760 0.149306 0.963480
Si Si7 0.851103 0.147885 0.667826
O O1 0.124039 0.117003 0.279099
O O2 0.064692 0.962281 0.063144
O O3 0.134957 0.081471 0.977245
O O4 0.030602 0.135292 0.008724
O O5 0.834331 0.712026 0.490648
O O6 0.727750 0.732888 0.278949
O O7 0.754570 0.590833 0.531100
O O8 0.765235 0.567263 0.238159
O O9 0.622243 0.215557 0.673594
O O10 0.559250 0.288817 0.897122
O O11 0.202826 0.598537 0.633629
O O12 0.181189 0.759536 0.441678
O O13 0.313517 0.587231 0.766363
O O14 0.915761 0.188417 0.782885
#
# Coordination Sequence:
#
# PCOD9281144 Si02
#       7
#     8   8   8   8   8   8   8
#     4  10  23  37  56  86 121 160 207 253 313 376
#     4  11  23  40  59  88 122 167 218 254 305 381
#     4  10  21  38  59  81 120 164 204 253 307 363
#     4  10  22  40  54  86 122 159 211 257 306 379
#     4  11  23  37  60  85 125 167 208 253 306 368
#     4  11  21  37  58  86 120 158 207 257 310 374
#     4  11  22  33  58  84 121 163 201 251 314 364
#
# _framework density 22.473309
#
# number of rings (size 3 to 8) (size 9 to 14) (size 15 to 20)
#    0.000    1.429    0.000    6.429    8.000    3.429 
#    2.571    0.000    0.000    0.000    0.000   38.000 
#    0.000    0.000    0.000    0.429    0.000    0.000 
#
# Total GULP energy -155957.722624 kJ/mol
# GULP energy per Si atom -5569.918665 kJ/mol
# Density = 2.242216 g / cm^3
# Si number density = 22.473309 Si / 1000 Ang^3
#
#
#
# Elastic Constant Matrix: (Units=GPa)
#
#
# Indices 1 2 3 4 5 6 
#
# 1 114.4616 32.2688 34.7694 0.0000 5.1710 0.0000
# 2 32.2688 88.6216 15.3404 0.0000 8.1219 0.0000
# 3 34.7694 15.3404 89.6453 0.0000 2.0303 0.0000
# 4 0.0000 0.0000 0.0000 36.4583 0.0000 3.9659
# 5 5.1710 8.1219 2.0303 0.0000 40.5838 0.0000
# 6 0.0000 0.0000 0.0000 3.9659 0.0000 33.4812
#
#
#
# Elastic Compliance Matrix: (Units=1/GPa)
#
#
# Indices 1 2 3 4 5 6 
#
# 1 0.010773 -0.003248 -0.003610 0.000000 -0.000542 0.000000
# 2 -0.003248 0.012813 -0.000885 0.000000 -0.002106 0.000000
# 3 -0.003610 -0.000885 0.012707 0.000000 0.000001 0.000000
# 4 0.000000 0.000000 0.000000 0.027787 0.000000 -0.003291
# 5 -0.000542 -0.002106 0.000001 0.000000 0.025131 0.000000
# 6 0.000000 0.000000 0.000000 -0.003291 0.000000 0.030257
#
#
# Mechanical properties :
#
#
# Convention : Reuss Voigt Hill
#
# Bulk Modulus (GPa) = 48.06349 50.83176 49.44762
# Shear Modulus (GPa) = 35.23841 36.12799 35.68320
#
# Velocity S-wave (km/s) = 3.96411 4.01383 3.98905
# Velocity P-wave (km/s) = 6.51042 6.64447 6.57779
#
# Compressibility (1/GPa) = 0.02080581
#
# Stress axis : x y z
#
# Youngs Moduli (GPa) = 92.82046 78.04655 78.69790
#
# Poissons Ratio (x) = 0.25351 0.28413
# Poissons Ratio (y) = 0.30150 0.06965
# Poissons Ratio (z) = 0.33512 0.06908
#
# Static dielectric constant tensor:
#      x y z
#    x 1.937660 0.000000 0.011620 
#    y 0.000000 1.846550 0.000000 
#    z 0.011620 0.000000 1.995760 
# 
# From -- ./inp_files/66006.got.cif
#   From: 2010.05.17/outbox.cif.g08.bks.cpg/sg15_34_cif.got.tgz:66006.got - 2010.06.03 18:47:42.
