data_PCOD9281182
_publ_section_title
;
Structure prediction by ZEFSAII (Michael W. Deem and Ramdas Pophale) SiO2 
 PCOD9281182
Probable space group: C 2/C
;
_chemical_formula_sum "Si O2"
_cell_formula_units_Z 48
_cell_length_a 4.964404
_cell_length_b 24.586974
_cell_length_c 22.377481
_cell_angle_alpha 90.000000
_cell_angle_beta 131.248375
_cell_angle_gamma 90.000000
_cell_volume 2053.617299
_symmetry_space_group_name_H-M "C 2/C"
_symmetry_group_IT_number 15
_symmetry_cell_setting 'monoclinic'
loop_
_space_group_symop_operation_xyz
x,y,z
-x,y,1/2-z
-x,-y,-z
x,-y,1/2+z
1/2+x,1/2+y,z
1/2-x,1/2+y,1/2-z
1/2-x,1/2-y,-z
1/2+x,1/2-y,1/2+z
loop_
_atom_site_type_symbol
_atom_site_label
_atom_site_fract_x
_atom_site_fract_y
_atom_site_fract_z
Si Si1 0.179418 0.773917 0.660365
Si Si2 0.501458 0.487244 0.070424
Si Si3 0.355576 0.167406 0.912054
Si Si4 0.621442 0.883885 0.335565
Si Si5 0.339244 0.910663 0.957304
Si Si6 0.822988 0.653410 0.338593
O O1 0.500000 0.751768 0.750000
O O2 0.094623 0.730065 0.597330
O O3 0.357757 0.826786 0.656417
O O4 0.851427 0.793730 0.653253
O O5 0.806509 0.446711 0.137042
O O6 0.481931 0.546543 0.096874
O O7 0.500000 0.500000 0.000000
O O8 0.150470 0.449664 0.029337
O O9 0.361801 0.138456 0.848453
O O10 0.985171 0.152848 0.891358
O O11 0.665448 0.139142 0.996873
O O12 0.500000 0.879230 0.250000
O O13 0.434229 0.887086 0.906886
O O14 0.500000 0.631953 0.250000
#
# Coordination Sequence:
#
# PCOD9281182 Si02
#       6
#     8   8   8   8   8   8
#     4  10  21  38  59  87 123 157 196 248 302 347
#     4  10  21  42  61  83 123 158 196 253 303 350
#     4  11  22  38  64  89 122 159 195 251 300 357
#     4  11  22  38  61  93 120 154 205 247 298 361
#     4  10  23  40  61  87 119 160 201 246 305 353
#     4  10  23  41  60  89 123 159 201 245 292 361
#
# _framework density 23.373389
#
# number of rings (size 3 to 8) (size 9 to 14) (size 15 to 20)
#    0.000    1.667    1.667    2.500    2.333    2.667 
#    3.000    0.000    0.000    0.000    0.000    0.000 
#    0.000    0.000    0.000    0.000    0.000    0.000 
#
# Total GULP energy -134118.517655 kJ/mol
# GULP energy per Si atom -5588.271569 kJ/mol
# Density = 2.332019 g / cm^3
# Si number density = 23.373389 Si / 1000 Ang^3
#
#
#
# Elastic Constant Matrix: (Units=GPa)
#
#
# Indices 1 2 3 4 5 6 
#
# 1 64.7910 -5.2125 0.2453 0.0000 -13.0122 0.0000
# 2 -5.2125 67.5129 22.6767 0.0000 -3.3318 0.0000
# 3 0.2453 22.6767 76.9621 0.0000 -15.1862 0.0000
# 4 0.0000 0.0000 0.0000 38.3603 0.0000 -14.7736
# 5 -13.0122 -3.3318 -15.1862 0.0000 32.9945 0.0000
# 6 0.0000 0.0000 0.0000 -14.7736 0.0000 32.9050
#
#
#
# Elastic Compliance Matrix: (Units=1/GPa)
#
#
# Indices 1 2 3 4 5 6 
#
# 1 0.017004 0.001340 0.000991 0.000000 0.007297 0.000000
# 2 0.001340 0.016556 -0.004893 0.000000 -0.000052 0.000000
# 3 0.000991 -0.004893 0.015851 0.000000 0.007192 0.000000
# 4 0.000000 0.000000 0.000000 0.031519 0.000000 0.014151
# 5 0.007297 -0.000052 0.007192 0.000000 0.036491 0.000000
# 6 0.000000 0.000000 0.000000 0.014151 0.000000 0.036744
#
#
# Mechanical properties :
#
#
# Convention : Reuss Voigt Hill
#
# Bulk Modulus (GPa) = 22.57963 27.18722 24.88342
# Shear Modulus (GPa) = 28.72719 33.62239 31.17479
#
# Velocity S-wave (km/s) = 3.50959 3.79686 3.65605
# Velocity P-wave (km/s) = 5.10924 5.55684 5.33773
#
# Compressibility (1/GPa) = 0.04428771
#
# Stress axis : x y z
#
# Youngs Moduli (GPa) = 58.81026 60.39994 63.08718
#
# Poissons Ratio (x) = -0.08094 -0.06251
# Poissons Ratio (y) = -0.07881 0.30867
# Poissons Ratio (z) = -0.05827 0.29552
#
# Static dielectric constant tensor:
#      x y z
#    x 1.896120 0.000000 0.065330 
#    y 0.000000 1.934790 0.000000 
#    z 0.065330 0.000000 1.878820 
# 
# From -- ./inp_files/185240.got.cif
#   From: 2010.05.17/outbox.cif.g08.bks.cpg/sg15_93_cif.got.tgz:185240.got - 2010.06.03 18:47:42.
