data_PCOD9281404
_publ_section_title
;
Structure prediction by ZEFSAII (Michael W. Deem and Ramdas Pophale) SiO2 
 PCOD9281404
Probable space group: C 2/C
;
_chemical_formula_sum "Si O2"
_cell_formula_units_Z 56
_cell_length_a 20.319451
_cell_length_b 22.441837
_cell_length_c 12.154481
_cell_angle_alpha 90.000000
_cell_angle_beta 29.720346
_cell_angle_gamma 90.000000
_cell_volume 2747.796010
_symmetry_space_group_name_H-M "C 2/C"
_symmetry_group_IT_number 15
_symmetry_cell_setting 'monoclinic'
loop_
_space_group_symop_operation_xyz
x,y,z
-x,y,1/2-z
-x,-y,-z
x,-y,1/2+z
1/2+x,1/2+y,z
1/2-x,1/2+y,1/2-z
1/2-x,1/2-y,-z
1/2+x,1/2-y,1/2+z
loop_
_atom_site_type_symbol
_atom_site_label
_atom_site_fract_x
_atom_site_fract_y
_atom_site_fract_z
Si Si1 0.584665 0.300064 0.016551
Si Si2 0.154000 0.447743 0.999946
Si Si3 0.955318 0.330686 0.942906
Si Si4 0.793648 0.626297 0.294430
Si Si5 0.243082 0.565161 0.774018
Si Si6 0.378531 0.455743 0.859785
Si Si7 0.922970 0.083645 0.710417
O O1 0.500000 0.292970 0.250000
O O2 0.565939 0.237128 0.985047
O O3 0.531304 0.363788 0.050445
O O4 0.735155 0.311639 0.833007
O O5 0.190844 0.416101 0.832251
O O6 0.158357 0.518585 0.969229
O O7 0.274816 0.435555 0.912917
O O8 0.000000 0.431434 0.250000
O O9 0.000000 0.330313 0.750000
O O10 0.068842 0.362624 0.846687
O O11 0.827496 0.371931 0.138915
O O12 0.689503 0.604574 0.538761
O O13 0.276672 0.535854 0.608904
O O14 0.370091 0.577243 0.664845
O O15 0.500000 0.422304 0.750000
O O16 0.448882 0.516305 0.713035
#
# Coordination Sequence:
#
# PCOD9281404 Si02
#       7
#     8   8   8   8   8   8   8
#     4   9  22  36  60  90 124 159 204 262 317 366
#     4  11  25  40  62  91 130 172 202 253 319 379
#     4  11  22  36  61  95 125 162 207 258 316 373
#     4  11  21  39  61  88 130 159 205 256 317 379
#     4  11  23  37  64  92 130 158 207 258 311 377
#     4  11  24  40  62  94 127 167 211 251 314 382
#     4  10  21  38  61  91 125 162 199 259 320 368
#
# _framework density 20.379968999999999
#
# number of rings (size 3 to 8) (size 9 to 14) (size 15 to 20)
#    0.000    1.429    2.857    2.571    6.000    4.000 
#    0.000    0.000    0.000    4.286    0.000    0.000 
#    0.000    0.000    0.000    0.000    0.000    0.000 
#
# Total GULP energy -155952.551994 kJ/mol
# GULP energy per Si atom -5569.734000 kJ/mol
# Density = 2.033358 g / cm^3
# Si number density = 20.379969 Si / 1000 Ang^3
#
#
#
# Elastic Constant Matrix: (Units=GPa)
#
#
# Indices 1 2 3 4 5 6 
#
# 1 159.3270 40.4326 26.6993 0.0009 2.9998 -0.0006
# 2 40.4326 80.5128 28.2327 0.0067 -1.3874 -0.0026
# 3 26.6993 28.2327 45.8424 0.0055 9.5103 -0.0018
# 4 0.0009 0.0067 0.0055 0.5343 -0.0001 5.9147
# 5 2.9998 -1.3874 9.5103 -0.0001 24.2083 -0.0003
# 6 -0.0006 -0.0026 -0.0018 5.9147 -0.0003 18.5811
#
#
#
# Elastic Compliance Matrix: (Units=1/GPa)
#
#
# Indices 1 2 3 4 5 6 
#
# 1 0.007426 -0.002831 -0.002566 -0.000021 -0.000074 0.000006
# 2 -0.002831 0.017536 -0.010269 0.000049 0.005390 -0.000014
# 3 -0.002566 -0.010269 0.032324 0.000087 -0.012969 -0.000026
# 4 -0.000021 0.000049 0.000087 -0.741610 -0.000029 0.236066
# 5 -0.000074 0.005390 -0.012969 -0.000029 0.046721 0.000009
# 6 0.000006 -0.000014 -0.000026 0.236066 0.000009 -0.021326
#
#
# Mechanical properties :
#
#
# Convention : Reuss Voigt Hill
#
# Bulk Modulus (GPa) = 38.53145 52.93460 45.73302
# Shear Modulus (GPa) = -8.07826 21.35260 6.63717
#
# Velocity S-wave (km/s) = -1.99310 3.24037 1.80659
# Velocity P-wave (km/s) = 3.69473 6.32694 5.18079
#
# Compressibility (1/GPa) = 0.02595282
#
# Stress axis : x y z
#
# Youngs Moduli (GPa) = 134.65808 57.02610 30.93724
#
# Poissons Ratio (x) = 0.16142 0.07940
# Poissons Ratio (y) = 0.38118 0.31770
# Poissons Ratio (z) = 0.34559 0.58562
#
# Static dielectric constant tensor:
#      x y z
#    x 1.798440 0.000000 -0.049210 
#    y 0.000000 1.755130 0.000000 
#    z -0.049210 0.000000 1.753170 
# 
# From -- ./inp_files/114692.got.cif
#   From: 2010.05.17/outbox.cif.g08.bks.cpg/sg15_58_cif.got.tgz:114692.got - 2010.06.03 18:47:42.
