data_PCOD9281359
_publ_section_title
;
Structure prediction by ZEFSAII (Michael W. Deem and Ramdas Pophale) SiO2 
 PCOD9281359
Probable space group: C 2/C
;
_chemical_formula_sum "Si O2"
_cell_formula_units_Z 56
_cell_length_a 23.682024
_cell_length_b 8.586512
_cell_length_c 13.508124
_cell_angle_alpha 90.000000
_cell_angle_beta 111.311800
_cell_angle_gamma 90.000000
_cell_volume 2558.985119
_symmetry_space_group_name_H-M "C 2/C"
_symmetry_group_IT_number 15
_symmetry_cell_setting 'monoclinic'
loop_
_space_group_symop_operation_xyz
x,y,z
-x,y,1/2-z
-x,-y,-z
x,-y,1/2+z
1/2+x,1/2+y,z
1/2-x,1/2+y,1/2-z
1/2-x,1/2-y,-z
1/2+x,1/2-y,1/2+z
loop_
_atom_site_type_symbol
_atom_site_label
_atom_site_fract_x
_atom_site_fract_y
_atom_site_fract_z
Si Si1 0.057835 0.713884 0.150276
Si Si2 0.305977 0.127470 0.048269
Si Si3 0.820964 0.271272 0.043829
Si Si4 0.187660 0.196209 0.240467
Si Si5 0.891621 0.970679 0.451601
Si Si6 0.184562 0.550736 0.212574
Si Si7 0.432429 0.268688 0.109465
O O1 0.066785 0.865661 0.090740
O O2 0.114453 0.604787 0.155941
O O3 0.063893 0.762870 0.269293
O O4 0.987232 0.664097 0.100592
O O5 0.304585 0.087206 0.163954
O O6 0.364106 0.218677 0.048625
O O7 0.250000 0.250000 0.000000
O O8 0.309231 0.131946 0.804033
O O9 0.850339 0.149562 0.987466
O O10 0.823169 0.454045 0.018158
O O11 0.750000 0.250000 0.000000
O O12 0.841460 0.225599 0.169033
O O13 0.256811 0.135899 0.296517
O O14 0.149834 0.077698 0.147613
O O15 0.932221 0.066487 0.554773
#
# Coordination Sequence:
#
# PCOD9281359 Si02
#       7
#     8   8   8   8   8   8   8
#     4  10  22  41  62  87 120 162 210 252 304 374
#     4  10  21  39  64  93 122 158 205 256 311 367
#     4  11  23  39  62  93 127 161 202 254 312 371
#     4  11  23  40  62  94 126 158 206 257 309 367
#     4  12  23  38  61  91 125 164 203 253 308 368
#     4  10  21  38  61  87 123 162 200 256 311 364
#     4  10  22  41  63  87 121 163 205 254 309 368
#
# _framework density 21.883676000000001
#
# number of rings (size 3 to 8) (size 9 to 14) (size 15 to 20)
#    0.000    1.429    0.000    6.429    0.000    6.857 
#    0.000    5.000    0.000    6.857    0.000    0.000 
#    0.000    0.000    0.000    0.000    0.000    0.000 
#
# Total GULP energy -156066.856098 kJ/mol
# GULP energy per Si atom -5573.816289 kJ/mol
# Density = 2.183387 g / cm^3
# Si number density = 21.883676 Si / 1000 Ang^3
#
#
#
# Elastic Constant Matrix: (Units=GPa)
#
#
# Indices 1 2 3 4 5 6 
#
# 1 144.5824 49.1554 25.1940 0.0000 0.5085 0.0000
# 2 49.1554 110.3570 25.4625 0.0000 -11.7198 0.0000
# 3 25.1940 25.4625 59.7983 0.0000 -11.0842 0.0000
# 4 0.0000 0.0000 0.0000 37.1381 0.0000 -9.1672
# 5 0.5085 -11.7198 -11.0842 0.0000 26.4357 0.0000
# 6 0.0000 0.0000 0.0000 -9.1672 0.0000 26.9458
#
#
#
# Elastic Compliance Matrix: (Units=1/GPa)
#
#
# Indices 1 2 3 4 5 6 
#
# 1 0.008582 -0.003513 -0.002645 0.000000 -0.002831 0.000000
# 2 -0.003513 0.011694 -0.002739 0.000000 0.004104 0.000000
# 3 -0.002645 -0.002739 0.020371 0.000000 0.007378 0.000000
# 4 0.000000 0.000000 0.000000 0.029395 0.000000 0.010000
# 5 -0.002831 0.004104 0.007378 0.000000 0.042795 0.000000
# 6 0.000000 0.000000 0.000000 0.010000 0.000000 0.040514
#
#
# Mechanical properties :
#
#
# Convention : Reuss Voigt Hill
#
# Bulk Modulus (GPa) = 43.75596 57.15127 50.45361
# Shear Modulus (GPa) = 27.97046 32.43232 30.20139
#
# Velocity S-wave (km/s) = 3.57899 3.85389 3.71898
# Velocity P-wave (km/s) = 6.09238 6.78056 6.44566
#
# Compressibility (1/GPa) = 0.02285403
#
# Stress axis : x y z
#
# Youngs Moduli (GPa) = 116.52862 85.51451 49.08998
#
# Poissons Ratio (x) = 0.30041 0.12982
# Poissons Ratio (y) = 0.40936 0.13444
# Poissons Ratio (z) = 0.30816 0.23419
#
# Static dielectric constant tensor:
#      x y z
#    x 1.794770 0.000000 0.013540 
#    y 0.000000 1.701000 0.000000 
#    z 0.013540 0.000000 1.922370 
# 
# From -- ./inp_files/118380.got.cif
#   From: 2010.05.17/outbox.cif.g08.bks.cpg/sg15_60_cif.got.tgz:118380.got - 2010.06.03 18:47:42.
