data_PCOD9281427
_publ_section_title
;
Structure prediction by ZEFSAII (Michael W. Deem and Ramdas Pophale) SiO2 
 PCOD9281427
Probable space group: C 2/C
;
_chemical_formula_sum "Si O2"
_cell_formula_units_Z 64
_cell_length_a 11.277071
_cell_length_b 9.900534
_cell_length_c 27.055567
_cell_angle_alpha 90.000000
_cell_angle_beta 65.904611
_cell_angle_gamma 90.000000
_cell_volume 2757.522716
_symmetry_space_group_name_H-M "C 2/C"
_symmetry_group_IT_number 15
_symmetry_cell_setting 'monoclinic'
loop_
_space_group_symop_operation_xyz
x,y,z
-x,y,1/2-z
-x,-y,-z
x,-y,1/2+z
1/2+x,1/2+y,z
1/2-x,1/2+y,1/2-z
1/2-x,1/2-y,-z
1/2+x,1/2-y,1/2+z
loop_
_atom_site_type_symbol
_atom_site_label
_atom_site_fract_x
_atom_site_fract_y
_atom_site_fract_z
Si Si1 0.516350 0.806198 0.694732
Si Si2 0.037105 0.237932 0.046506
Si Si3 0.624202 0.417548 0.438045
Si Si4 0.958438 0.999348 0.702456
Si Si5 0.807712 0.035695 0.412186
Si Si6 0.925472 0.648875 0.106291
Si Si7 0.176109 0.160786 0.356709
Si Si8 0.335159 0.985189 0.977281
O O1 0.500000 0.877775 0.750000
O O2 0.440494 0.661296 0.711940
O O3 0.450883 0.876070 0.659344
O O4 0.673651 0.801407 0.660956
O O5 0.087470 0.381673 0.017528
O O6 0.919848 0.274088 0.104545
O O7 0.144002 0.165250 0.063820
O O8 0.031949 0.141341 0.998035
O O9 0.622442 0.298885 0.398270
O O10 0.615755 0.547289 0.404155
O O11 0.753492 0.456004 0.445769
O O12 0.077271 0.999753 0.643682
O O13 0.000000 0.948655 0.750000
O O14 0.853813 0.902581 0.692469
O O15 0.685687 0.060491 0.398663
O O16 0.762080 0.935650 0.463404
O O17 0.063643 0.623859 0.057375
#
# Coordination Sequence:
#
# PCOD9281427 Si02
#       8
#     8   8   8   8   8   8   8   8
#     4  11  26  45  63  90 123 171 216 266 323 374
#     4  10  21  38  61  93 133 166 201 254 318 382
#     4  11  20  39  59  90 131 164 201 253 314 381
#     4  10  24  44  65  90 122 166 219 269 315 375
#     4  10  21  38  63  92 125 169 207 262 317 375
#     4  12  22  37  65  91 125 168 204 258 317 378
#     4  11  23  42  63  90 128 163 210 259 318 385
#     4  11  21  38  59  98 132 163 210 253 318 390
#
# _framework density 23.209237000000002
#
# number of rings (size 3 to 8) (size 9 to 14) (size 15 to 20)
#    0.000    1.250    5.000    1.500    3.500    0.000 
#    0.000    1.250    0.000    3.750    0.000    0.000 
#    0.000    0.000    0.000    0.000    0.000    0.000 
#
# Total GULP energy -178378.251760 kJ/mol
# GULP energy per Si atom -5574.320367 kJ/mol
# Density = 2.315641 g / cm^3
# Si number density = 23.209237 Si / 1000 Ang^3
#
#
#
# Elastic Constant Matrix: (Units=GPa)
#
#
# Indices 1 2 3 4 5 6 
#
# 1 107.8087 1.7102 40.1907 0.0000 22.8008 0.0000
# 2 1.7102 30.9900 4.1104 0.0000 10.8892 0.0000
# 3 40.1907 4.1104 98.1946 0.0000 40.7334 0.0000
# 4 0.0000 0.0000 0.0000 15.5151 0.0000 -2.3695
# 5 22.8008 10.8892 40.7334 0.0000 45.8403 0.0000
# 6 0.0000 0.0000 0.0000 -2.3695 0.0000 7.0290
#
#
#
# Elastic Compliance Matrix: (Units=1/GPa)
#
#
# Indices 1 2 3 4 5 6 
#
# 1 0.011120 0.000764 -0.003506 0.000000 -0.002597 0.000000
# 2 0.000764 0.035890 0.002976 0.000000 -0.011550 0.000000
# 3 -0.003506 0.002976 0.017523 0.000000 -0.014534 0.000000
# 4 0.000000 0.000000 0.000000 0.067952 0.000000 0.022906
# 5 -0.002597 -0.011550 -0.014534 0.000000 0.038765 0.000000
# 6 0.000000 0.000000 0.000000 0.022906 0.000000 0.149989
#
#
# Mechanical properties :
#
#
# Convention : Reuss Voigt Hill
#
# Bulk Modulus (GPa) = 15.38423 36.55734 25.97079
# Shear Modulus (GPa) = 14.60119 26.40903 20.50511
#
# Velocity S-wave (km/s) = 2.51093 3.37689 2.97558
# Velocity P-wave (km/s) = 3.87934 5.56686 4.79787
#
# Compressibility (1/GPa) = 0.06500162
#
# Stress axis : x y z
#
# Youngs Moduli (GPa) = 89.92934 27.86291 57.06651
#
# Poissons Ratio (x) = -0.02128 0.20007
# Poissons Ratio (y) = -0.06870 -0.16984
# Poissons Ratio (z) = 0.31529 -0.08293
#
# Static dielectric constant tensor:
#      x y z
#    x 1.990940 0.000000 -0.058680 
#    y 0.000000 2.075850 0.000000 
#    z -0.058680 0.000000 1.930410 
# 
# From -- ./inp_files/269233.got.cif
#   From: 2010.05.17/outbox.cif.g08.bks.cpg/sg15_135_cif.got.tgz:269233.got - 2010.06.03 18:47:42.
