data_PCOD9281298
_publ_section_title
;
Structure prediction by ZEFSAII (Michael W. Deem and Ramdas Pophale) SiO2 
 PCOD9281298
Probable space group: C 2/C
;
_chemical_formula_sum "Si O2"
_cell_formula_units_Z 56
_cell_length_a 16.518535
_cell_length_b 24.852657
_cell_length_c 13.367190
_cell_angle_alpha 90.000000
_cell_angle_beta 25.946332
_cell_angle_gamma 90.000000
_cell_volume 2400.995730
_symmetry_space_group_name_H-M "C 2/C"
_symmetry_group_IT_number 15
_symmetry_cell_setting 'monoclinic'
loop_
_space_group_symop_operation_xyz
x,y,z
-x,y,1/2-z
-x,-y,-z
x,-y,1/2+z
1/2+x,1/2+y,z
1/2-x,1/2+y,1/2-z
1/2-x,1/2-y,-z
1/2+x,1/2-y,1/2+z
loop_
_atom_site_type_symbol
_atom_site_label
_atom_site_fract_x
_atom_site_fract_y
_atom_site_fract_z
Si Si1 0.562297 0.349275 0.929820
Si Si2 0.282007 0.821460 0.868483
Si Si3 0.810222 0.577039 0.899063
Si Si4 0.587715 0.478106 0.245411
Si Si5 0.323715 0.551405 0.651708
Si Si6 0.717952 0.189748 0.499204
Si Si7 0.296875 0.802983 0.079190
O O1 0.672874 0.357201 0.910425
O O2 0.695916 0.318250 0.705811
O O3 0.487117 0.404369 0.967476
O O4 0.374276 0.316788 0.160634
O O5 0.502500 0.820234 0.604266
O O6 0.201350 0.761159 0.940378
O O7 0.262279 0.830370 0.009164
O O8 0.830753 0.567201 0.757341
O O9 0.718638 0.636241 0.011630
O O10 0.000000 0.575313 0.750000
O O11 0.686836 0.529431 0.083918
O O12 0.500000 0.446014 0.250000
O O13 0.414571 0.497779 0.505025
O O14 0.722327 0.452938 0.179640
O O15 0.500000 0.184735 0.750000
O O16 0.750000 0.250000 0.500000
#
# Coordination Sequence:
#
# PCOD9281298 Si02
#       7
#     8   8   8   8   8   8   8
#     4  12  24  39  65  93 131 181 227 282 351 402
#     4  10  21  38  60  92 124 172 226 285 339 419
#     4  10  22  44  67  96 139 176 223 291 352 412
#     4   9  19  41  69  98 126 166 221 278 346 428
#     4  10  22  39  68  96 124 174 222 276 345 420
#     4  11  28  42  62  95 136 182 235 289 333 402
#     4  10  21  38  62  88 127 174 231 277 347 414
#
# _framework density 23.323657000000001
#
# number of rings (size 3 to 8) (size 9 to 14) (size 15 to 20)
#    0.000    1.714    2.857    0.429    4.000    4.000 
#    0.000    0.000    3.143    0.000    0.000    0.000 
#    0.000    0.000    0.000    0.000    0.000    0.000 
#
# Total GULP energy -156314.958360 kJ/mol
# GULP energy per Si atom -5582.677084 kJ/mol
# Density = 2.327057 g / cm^3
# Si number density = 23.323657 Si / 1000 Ang^3
#
#
#
# Elastic Constant Matrix: (Units=GPa)
#
#
# Indices 1 2 3 4 5 6 
#
# 1 188.0973 41.7713 26.6029 -0.5413 4.0752 -0.4206
# 2 41.7713 64.5437 18.8163 -0.1046 9.2001 -0.2239
# 3 26.6029 18.8163 107.2717 -1.1413 1.5412 -0.8605
# 4 -0.5413 -0.1046 -1.1413 63.1966 1.1588 38.3604
# 5 4.0752 9.2001 1.5412 1.1588 39.3532 0.8936
# 6 -0.4206 -0.2239 -0.8605 38.3604 0.8936 42.0740
#
#
#
# Elastic Compliance Matrix: (Units=1/GPa)
#
#
# Indices 1 2 3 4 5 6 
#
# 1 0.006292 -0.003853 -0.000888 0.000034 0.000283 -0.000013
# 2 -0.003853 0.019248 -0.002362 -0.000070 -0.004010 0.000165
# 3 -0.000888 -0.002362 0.009955 0.000126 0.000249 0.000062
# 4 0.000034 -0.000070 0.000126 0.035439 -0.000302 -0.032302
# 5 0.000283 -0.004010 0.000249 -0.000302 0.026325 -0.000297
# 6 -0.000013 0.000165 0.000062 -0.032302 -0.000297 0.053227
#
#
# Mechanical properties :
#
#
# Convention : Reuss Voigt Hill
#
# Bulk Modulus (GPa) = 46.97767 59.36597 53.17182
# Shear Modulus (GPa) = 29.10547 47.10624 38.10586
#
# Velocity S-wave (km/s) = 3.53639 4.49896 4.04640
# Velocity P-wave (km/s) = 6.07125 7.24540 6.68416
#
# Compressibility (1/GPa) = 0.02128671
#
# Stress axis : x y z
#
# Youngs Moduli (GPa) = 158.94076 51.95376 100.45154
#
# Poissons Ratio (x) = 0.20019 0.08922
# Poissons Ratio (y) = 0.61244 0.23731
# Poissons Ratio (z) = 0.14117 0.12274
#
# Static dielectric constant tensor:
#      x y z
#    x 1.957890 -0.000030 0.023120 
#    y -0.000030 1.970480 0.000000 
#    z 0.023120 0.000000 1.841920 
# 
# From -- ./inp_files/101770.got.cif
#   From: 2010.05.17/outbox.cif.g08.bks.cpg/sg15_51_cif.got.tgz:101770.got - 2010.06.03 18:47:42.
