data_PCOD9281795
_publ_section_title
;
Structure prediction by ZEFSAII (Michael W. Deem and Ramdas Pophale) SiO2 
 PCOD9281795
Probable space group: C 2/C
;
_chemical_formula_sum "Si O2"
_cell_formula_units_Z 48
_cell_length_a 14.456572
_cell_length_b 13.249410
_cell_length_c 10.367757
_cell_angle_alpha 90.000000
_cell_angle_beta 96.986609
_cell_angle_gamma 90.000000
_cell_volume 1971.105334
_symmetry_space_group_name_H-M "C 2/C"
_symmetry_group_IT_number 15
_symmetry_cell_setting 'monoclinic'
loop_
_space_group_symop_operation_xyz
x,y,z
-x,y,1/2-z
-x,-y,-z
x,-y,1/2+z
1/2+x,1/2+y,z
1/2-x,1/2+y,1/2-z
1/2-x,1/2-y,-z
1/2+x,1/2-y,1/2+z
loop_
_atom_site_type_symbol
_atom_site_label
_atom_site_fract_x
_atom_site_fract_y
_atom_site_fract_z
Si Si1 0.000000 0.508714 0.750000
Si Si2 0.590032 0.838691 0.611078
Si Si3 0.853250 0.322013 0.153640
Si Si4 0.005803 0.139226 0.601317
Si Si5 0.734648 0.787510 0.848017
Si Si6 0.000000 0.844560 0.750000
Si Si7 0.371264 0.537315 0.417310
O O1 0.964653 0.439840 0.862518
O O2 0.913765 0.580282 0.699744
O O3 0.664062 0.838897 0.503741
O O4 0.514907 0.754014 0.556897
O O5 0.638754 0.807437 0.754674
O O6 0.781463 0.293768 0.256357
O O7 0.920492 0.225605 0.179880
O O8 0.000000 0.144549 0.750000
O O9 0.908253 0.083069 0.556018
O O10 0.102260 0.079960 0.580503
O O11 0.781205 0.901218 0.858169
O O12 0.750000 0.750000 0.000000
O O13 0.046114 0.915479 0.654275
#
# Coordination Sequence:
#
# PCOD9281795 Si02
#       7
#     4   8   8   8   8   4   8
#     4  11  26  43  76 104 140 187 252 299 364 430
#     4  12  24  43  70 104 139 183 237 298 355 429
#     4  10  23  44  68  97 136 185 241 287 352 431
#     4  11  21  37  67  99 126 163 223 276 331 417
#     4  11  26  44  67 100 147 187 228 299 363 419
#     4   9  16  37  64  90 124 165 220 279 332 404
#     4  10  21  38  64  95 131 173 217 272 349 413
#
# _framework density 24.351818000000002
#
# number of rings (size 3 to 8) (size 9 to 14) (size 15 to 20)
#    0.000    1.333    3.333    2.000    0.000    2.667 
#    0.000    3.333    0.000    0.000    0.000    0.000 
#    0.000    0.000    0.000    0.000    0.000    0.000 
#
# Total GULP energy -133663.703623 kJ/mol
# GULP energy per Si atom -5569.320984 kJ/mol
# Density = 2.429639 g / cm^3
# Si number density = 24.351818 Si / 1000 Ang^3
#
#
#
# Elastic Constant Matrix: (Units=GPa)
#
#
# Indices 1 2 3 4 5 6 
#
# 1 54.2192 19.4443 12.3816 0.0000 4.7564 0.0000
# 2 19.4443 115.5022 22.4775 0.0000 1.0069 0.0000
# 3 12.3816 22.4775 93.9273 0.0000 -10.9053 0.0000
# 4 0.0000 0.0000 0.0000 6.8074 0.0000 -3.9943
# 5 4.7564 1.0069 -10.9053 0.0000 23.3243 0.0000
# 6 0.0000 0.0000 0.0000 -3.9943 0.0000 38.7079
#
#
#
# Elastic Compliance Matrix: (Units=1/GPa)
#
#
# Indices 1 2 3 4 5 6 
#
# 1 0.020549 -0.002902 -0.002629 0.000000 -0.005294 0.000000
# 2 -0.002902 0.009540 -0.001987 0.000000 -0.000749 0.000000
# 3 -0.002629 -0.001987 0.012203 0.000000 0.006328 0.000000
# 4 0.000000 0.000000 0.000000 0.156367 0.000000 0.016136
# 5 -0.005294 -0.000749 0.006328 0.000000 0.046944 0.000000
# 6 0.000000 0.000000 0.000000 0.016136 0.000000 0.027500
#
#
# Mechanical properties :
#
#
# Convention : Reuss Voigt Hill
#
# Bulk Modulus (GPa) = 36.68940 41.36173 39.02556
# Shear Modulus (GPa) = 16.82232 27.72427 22.27329
#
# Velocity S-wave (km/s) = 2.63116 3.37781 3.02759
# Velocity P-wave (km/s) = 4.93252 5.67757 5.31811
#
# Compressibility (1/GPa) = 0.02725583
#
# Stress axis : x y z
#
# Youngs Moduli (GPa) = 48.66398 104.82614 81.94460
#
# Poissons Ratio (x) = 0.30416 0.21544
# Poissons Ratio (y) = 0.14120 0.16286
# Poissons Ratio (z) = 0.12795 0.20833
#
# Static dielectric constant tensor:
#      x y z
#    x 1.881080 0.000000 -0.156870 
#    y 0.000000 1.959950 0.000000 
#    z -0.156870 0.000000 1.911620 
# 
# From -- ./inp_files/110563.got.cif
#   From: 2010.05.17/outbox.cif.g08.bks.cpg/sg15_56_cif.got.tgz:110563.got - 2010.06.03 18:47:42.
