data_PCOD9281538
_publ_section_title
;
Structure prediction by ZEFSAII (Michael W. Deem and Ramdas Pophale) SiO2 
 PCOD9281538
Probable space group: C 2/C
;
_chemical_formula_sum "Si O2"
_cell_formula_units_Z 48
_cell_length_a 15.494806
_cell_length_b 17.710856
_cell_length_c 17.143499
_cell_angle_alpha 90.000000
_cell_angle_beta 151.642062
_cell_angle_gamma 90.000000
_cell_volume 2234.595615
_symmetry_space_group_name_H-M "C 2/C"
_symmetry_group_IT_number 15
_symmetry_cell_setting 'monoclinic'
loop_
_space_group_symop_operation_xyz
x,y,z
-x,y,1/2-z
-x,-y,-z
x,-y,1/2+z
1/2+x,1/2+y,z
1/2-x,1/2+y,1/2-z
1/2-x,1/2-y,-z
1/2+x,1/2-y,1/2+z
loop_
_atom_site_type_symbol
_atom_site_label
_atom_site_fract_x
_atom_site_fract_y
_atom_site_fract_z
Si Si1 0.506981 0.065669 0.848170
Si Si2 0.231404 0.361620 0.214323
Si Si3 0.501757 0.488016 0.095128
Si Si4 0.631177 0.632790 0.288355
Si Si5 0.634268 0.906786 0.789806
Si Si6 0.130023 0.294301 0.648861
O O1 0.500000 0.076232 0.750000
O O2 0.349770 0.111005 0.767793
O O3 0.468648 0.977229 0.833130
O O4 0.697148 0.093470 0.033325
O O5 0.329025 0.433044 0.253337
O O6 0.373853 0.294203 0.338089
O O7 0.060866 0.327497 0.032341
O O8 0.526254 0.566832 0.158322
O O9 0.500000 0.500000 0.000000
O O10 0.315692 0.445420 0.968142
O O11 0.500000 0.666274 0.250000
O O12 0.716596 0.690560 0.294607
O O13 0.500000 0.878175 0.750000
O O14 0.680266 0.842713 0.764759
#
# Coordination Sequence:
#
# PCOD9281538 Si02
#       6
#     8   8   8   8   8   8
#     4  10  21  38  62  93 126 161 215 264 314 372
#     4  11  24  40  64  89 124 173 207 261 320 375
#     4  12  22  40  67  92 127 164 213 257 310 371
#     4  11  23  38  64  97 127 167 210 261 316 378
#     4  11  22  40  66  92 125 166 209 265 313 369
#     4  11  24  42  61  91 132 166 212 258 320 379
#
# _framework density 21.480395999999999
#
# number of rings (size 3 to 8) (size 9 to 14) (size 15 to 20)
#    0.000    1.000    3.333    4.000    0.000    3.333 
#    0.000    7.500    0.000    0.000    0.000    0.000 
#    0.000    0.000    0.000    0.000    0.000    0.000 
#
# Total GULP energy -134303.033752 kJ/mol
# GULP energy per Si atom -5595.959740 kJ/mol
# Density = 2.143151 g / cm^3
# Si number density = 21.480396 Si / 1000 Ang^3
#
#
#
# Elastic Constant Matrix: (Units=GPa)
#
#
# Indices 1 2 3 4 5 6 
#
# 1 49.6429 -6.4840 16.6773 0.0082 5.5054 0.0101
# 2 -6.4840 34.6128 -10.7890 -0.0010 -10.2610 -0.0003
# 3 16.6773 -10.7890 64.0581 -0.0071 9.7439 -0.0030
# 4 0.0082 -0.0010 -0.0071 30.0150 -0.0002 9.4827
# 5 5.5054 -10.2610 9.7439 -0.0002 31.7181 0.0011
# 6 0.0101 -0.0003 -0.0030 9.4827 0.0011 2.7647
#
#
#
# Elastic Compliance Matrix: (Units=1/GPa)
#
#
# Indices 1 2 3 4 5 6 
#
# 1 0.022348 0.002084 -0.005224 -0.000240 -0.001600 0.000736
# 2 0.002084 0.033156 0.003635 -0.000031 0.009248 0.000104
# 3 -0.005224 0.003635 0.018113 0.000083 -0.003482 -0.000245
# 4 -0.000240 -0.000031 0.000083 -0.398339 -0.000044 1.366289
# 5 -0.001600 0.009248 -0.003482 -0.000044 0.035867 0.000140
# 6 0.000736 0.000104 -0.000245 1.366289 0.000140 -4.324617
#
#
# Mechanical properties :
#
#
# Convention : Reuss Voigt Hill
#
# Bulk Modulus (GPa) = 13.40359 16.34695 14.87527
# Shear Modulus (GPa) = -1.08942 22.82686 10.86872
#
# Velocity S-wave (km/s) = -0.71293 3.26342 2.25185
# Velocity P-wave (km/s) = 2.36131 4.67189 3.70151
#
# Compressibility (1/GPa) = 0.07460689
#
# Stress axis : x y z
#
# Youngs Moduli (GPa) = 44.74608 30.16049 55.20997
#
# Poissons Ratio (x) = -0.06285 0.28841
# Poissons Ratio (y) = -0.09324 -0.20069
# Poissons Ratio (z) = 0.23375 -0.10964
#
# Static dielectric constant tensor:
#      x y z
#    x 1.769290 0.000000 0.010900 
#    y 0.000000 1.733230 0.000000 
#    z 0.010900 0.000000 1.803480 
# 
# From -- ./inp_files/206372.got.cif
#   From: 2010.05.17/outbox.cif.g08.bks.cpg/sg15_104_cif.got.tgz:206372.got - 2010.06.03 18:47:42.
