data_PCOD9281435
_publ_section_title
;
Structure prediction by ZEFSAII (Michael W. Deem and Ramdas Pophale) SiO2 
 PCOD9281435
Probable space group: C 2/C
;
_chemical_formula_sum "Si O2"
_cell_formula_units_Z 56
_cell_length_a 13.062233
_cell_length_b 16.954409
_cell_length_c 9.917183
_cell_angle_alpha 90.000000
_cell_angle_beta 107.480764
_cell_angle_gamma 90.000000
_cell_volume 2094.854463
_symmetry_space_group_name_H-M "C 2/C"
_symmetry_group_IT_number 15
_symmetry_cell_setting 'monoclinic'
loop_
_space_group_symop_operation_xyz
x,y,z
-x,y,1/2-z
-x,-y,-z
x,-y,1/2+z
1/2+x,1/2+y,z
1/2-x,1/2+y,1/2-z
1/2-x,1/2-y,-z
1/2+x,1/2-y,1/2+z
loop_
_atom_site_type_symbol
_atom_site_label
_atom_site_fract_x
_atom_site_fract_y
_atom_site_fract_z
Si Si1 0.837406 0.788838 0.245381
Si Si2 0.984719 0.366284 0.457322
Si Si3 0.171661 0.918709 0.910077
Si Si4 0.673378 0.125364 0.813900
Si Si5 0.855443 0.391430 0.760116
Si Si6 0.686120 0.584225 0.990345
Si Si7 0.995531 0.179478 0.465862
O O1 0.732901 0.792914 0.301149
O O2 0.860630 0.699795 0.219741
O O3 0.807734 0.842512 0.108775
O O4 0.938449 0.822031 0.367342
O O5 0.082471 0.369011 0.389503
O O6 0.032110 0.402845 0.614113
O O7 0.962161 0.271668 0.448805
O O8 0.884851 0.407521 0.342673
O O9 0.263914 0.901620 0.838666
O O10 0.139073 0.009951 0.890170
O O11 0.228307 0.919392 0.080647
O O12 0.080607 0.852317 0.888968
O O13 0.801290 0.430353 0.607679
O O14 0.600680 0.617201 0.065191
#
# Coordination Sequence:
#
# PCOD9281435 Si02
#       7
#     8   8   8   8   8   8   8
#     4  10  21  39  63  89 126 169 212 259 311 374
#     4   9  18  37  67  93 115 158 226 277 300 354
#     4  10  23  39  61  91 134 171 206 257 315 387
#     4   9  18  37  66  87 121 161 214 265 309 355
#     4  10  22  39  61  91 123 167 222 260 305 374
#     4  12  24  38  61  92 136 170 202 253 331 384
#     4  10  21  38  61  95 128 166 211 258 316 377
#
# _framework density 26.732165999999999
#
# number of rings (size 3 to 8) (size 9 to 14) (size 15 to 20)
#    0.000    2.000    0.000    3.000    4.000    5.143 
#    2.571    2.857    6.286    0.000    0.000    0.000 
#    0.000    0.000    0.000    0.000    0.000    0.000 
#
# Total GULP energy -156472.658229 kJ/mol
# GULP energy per Si atom -5588.309222 kJ/mol
# Density = 2.667132 g / cm^3
# Si number density = 26.732166 Si / 1000 Ang^3
#
#
#
# Elastic Constant Matrix: (Units=GPa)
#
#
# Indices 1 2 3 4 5 6 
#
# 1 81.7042 -3.9403 6.9502 0.0000 5.1019 0.0000
# 2 -3.9403 75.3629 5.1133 0.0000 -0.2590 0.0000
# 3 6.9502 5.1133 151.8458 0.0000 32.4045 0.0000
# 4 0.0000 0.0000 0.0000 6.7306 0.0000 -4.2888
# 5 5.1019 -0.2590 32.4045 0.0000 43.5742 0.0000
# 6 0.0000 0.0000 0.0000 -4.2888 0.0000 9.0844
#
#
#
# Elastic Compliance Matrix: (Units=1/GPa)
#
#
# Indices 1 2 3 4 5 6 
#
# 1 0.012374 0.000666 -0.000333 0.000000 -0.001197 0.000000
# 2 0.000666 0.013344 -0.000571 0.000000 0.000426 0.000000
# 3 -0.000333 -0.000571 0.007860 0.000000 -0.005809 0.000000
# 4 0.000000 0.000000 0.000000 0.212504 0.000000 0.100325
# 5 -0.001197 0.000426 -0.005809 0.000000 0.027412 0.000000
# 6 0.000000 0.000000 0.000000 0.100325 0.000000 0.157444
#
#
# Mechanical properties :
#
#
# Convention : Reuss Voigt Hill
#
# Bulk Modulus (GPa) = 30.21023 36.12880 33.16951
# Shear Modulus (GPa) = 11.30073 31.93047 21.61560
#
# Velocity S-wave (km/s) = 2.05829 3.45984 2.84667
# Velocity P-wave (km/s) = 4.12000 5.43186 4.82076
#
# Compressibility (1/GPa) = 0.03310137
#
# Stress axis : x y z
#
# Youngs Moduli (GPa) = 80.81150 74.93944 127.22870
#
# Poissons Ratio (x) = -0.04987 0.04241
# Poissons Ratio (y) = -0.05378 0.07261
# Poissons Ratio (z) = 0.02694 0.04277
#
# Static dielectric constant tensor:
#      x y z
#    x 2.142290 0.000000 -0.018010 
#    y 0.000000 2.066850 0.000000 
#    z -0.018010 0.000000 2.148050 
# 
# From -- ./inp_files/98842.got.cif
#   From: 2010.05.17/outbox.cif.g08.bks.cpg/sg15_50_cif.got.tgz:98842.got - 2010.06.03 18:47:42.
