data_PCOD9281369
_publ_section_title
;
Structure prediction by ZEFSAII (Michael W. Deem and Ramdas Pophale) SiO2 
 PCOD9281369
Probable space group: C 2/C
;
_chemical_formula_sum "Si O2"
_cell_formula_units_Z 48
_cell_length_a 16.560487
_cell_length_b 11.668983
_cell_length_c 18.634249
_cell_angle_alpha 90.000000
_cell_angle_beta 147.530669
_cell_angle_gamma 90.000000
_cell_volume 1933.167183
_symmetry_space_group_name_H-M "C 2/C"
_symmetry_group_IT_number 15
_symmetry_cell_setting 'monoclinic'
loop_
_space_group_symop_operation_xyz
x,y,z
-x,y,1/2-z
-x,-y,-z
x,-y,1/2+z
1/2+x,1/2+y,z
1/2-x,1/2+y,1/2-z
1/2-x,1/2-y,-z
1/2+x,1/2-y,1/2+z
loop_
_atom_site_type_symbol
_atom_site_label
_atom_site_fract_x
_atom_site_fract_y
_atom_site_fract_z
Si Si1 0.614603 0.810795 0.002253
Si Si2 0.432945 0.723747 0.274849
Si Si3 0.603939 0.751267 0.542164
Si Si4 0.542209 0.002543 0.200227
Si Si5 0.567546 0.627086 0.725905
Si Si6 0.842177 0.973743 0.344218
O O1 0.524959 0.814554 0.010472
O O2 0.580823 0.931589 0.939005
O O3 0.550179 0.707183 0.905418
O O4 0.789379 0.795393 0.146863
O O5 0.500000 0.686592 0.250000
O O6 0.527338 0.690939 0.416339
O O7 0.258409 0.688551 0.138462
O O8 0.455860 0.864021 0.296277
O O9 0.672278 0.660504 0.649422
O O10 0.500000 0.038299 0.250000
O O11 0.702322 0.032857 0.280190
O O12 0.500000 0.585155 0.750000
O O13 0.631601 0.528985 0.721114
O O14 0.000000 0.000000 0.500000
#
# Coordination Sequence:
#
# PCOD9281369 Si02
#       6
#     8   8   8   8   8   8
#     4  11  23  40  68  94 128 170 211 266 324 389
#     4  10  21  40  61  90 122 164 214 262 314 379
#     4  10  21  38  61  88 120 163 213 255 318 378
#     4  10  23  40  65  92 129 171 210 262 327 381
#     4  11  25  42  66  99 131 167 221 261 326 392
#     4  10  24  40  64  91 132 170 208 269 325 373
#
# _framework density 24.829720999999999
#
# number of rings (size 3 to 8) (size 9 to 14) (size 15 to 20)
#    0.000    1.667    0.000    4.500    9.333    2.667 
#    0.000    0.833    0.000    0.000    0.000    0.000 
#    0.000    0.000    0.000    0.000    0.000    0.000 
#
# Total GULP energy -134036.195533 kJ/mol
# GULP energy per Si atom -5584.841481 kJ/mol
# Density = 2.477321 g / cm^3
# Si number density = 24.829721 Si / 1000 Ang^3
#
#
#
# Elastic Constant Matrix: (Units=GPa)
#
#
# Indices 1 2 3 4 5 6 
#
# 1 221.6221 26.8188 58.5903 0.0001 -27.5934 -0.0001
# 2 26.8188 53.3932 16.2534 0.0005 -1.2396 0.0000
# 3 58.5903 16.2534 123.7612 0.0009 -17.5739 -0.0001
# 4 0.0001 0.0005 0.0009 107.7581 0.0005 -37.6520
# 5 -27.5934 -1.2396 -17.5739 0.0005 34.7172 -0.0001
# 6 -0.0001 0.0000 -0.0001 -37.6520 -0.0001 2.4328
#
#
#
# Elastic Compliance Matrix: (Units=1/GPa)
#
#
# Indices 1 2 3 4 5 6 
#
# 1 0.005723 -0.002208 -0.001923 0.000000 0.003497 0.000000
# 2 -0.002208 0.020374 -0.001914 0.000000 -0.001996 0.000000
# 3 -0.001923 -0.001914 0.009713 0.000000 0.003320 0.000000
# 4 0.000000 0.000000 0.000000 -0.002105 0.000000 -0.032585
# 5 0.003497 -0.001996 0.003320 0.000000 0.033193 0.000000
# 6 0.000000 0.000000 0.000000 -0.032585 0.000000 -0.093255
#
#
# Mechanical properties :
#
#
# Convention : Reuss Voigt Hill
#
# Bulk Modulus (GPa) = 42.15692 66.90016 54.52854
# Shear Modulus (GPa) = -786.05997 48.78924 -368.63537
#
# Velocity S-wave (km/s) = -17.81201 4.43759 -12.19786
# Velocity P-wave (km/s) = 20.14964 7.29783 13.28062
#
# Compressibility (1/GPa) = 0.02372090
#
# Stress axis : x y z
#
# Youngs Moduli (GPa) = 174.73070 49.08132 102.95263
#
# Poissons Ratio (x) = 0.10838 0.19797
# Poissons Ratio (y) = 0.38583 0.19704
# Poissons Ratio (z) = 0.33599 0.09393
#
# Static dielectric constant tensor:
#      x y z
#    x 2.059800 0.000000 -0.013370 
#    y 0.000000 2.076940 0.000000 
#    z -0.013370 0.000000 1.921470 
# 
# From -- ./inp_files/211449.got.cif
#   From: 2010.05.17/outbox.cif.g08.bks.cpg/sg15_106_cif.got.tgz:211449.got - 2010.06.03 18:47:42.
