data_PCOD9281228
_publ_section_title
;
Structure prediction by ZEFSAII (Michael W. Deem and Ramdas Pophale) SiO2 
 PCOD9281228
Probable space group: C 2/C
;
_chemical_formula_sum "Si O2"
_cell_formula_units_Z 56
_cell_length_a 13.482265
_cell_length_b 18.554237
_cell_length_c 16.953593
_cell_angle_alpha 90.000000
_cell_angle_beta 136.948082
_cell_angle_gamma 90.000000
_cell_volume 2895.160668
_symmetry_space_group_name_H-M "C 2/C"
_symmetry_group_IT_number 15
_symmetry_cell_setting 'monoclinic'
loop_
_space_group_symop_operation_xyz
x,y,z
-x,y,1/2-z
-x,-y,-z
x,-y,1/2+z
1/2+x,1/2+y,z
1/2-x,1/2+y,1/2-z
1/2-x,1/2-y,-z
1/2+x,1/2-y,1/2+z
loop_
_atom_site_type_symbol
_atom_site_label
_atom_site_fract_x
_atom_site_fract_y
_atom_site_fract_z
Si Si1 0.010015 0.884565 0.427126
Si Si2 0.210746 0.680183 0.708505
Si Si3 0.478514 0.103253 0.329054
Si Si4 0.073447 0.981826 0.707662
Si Si5 0.765407 0.176624 0.557654
Si Si6 0.099363 0.469758 0.127060
Si Si7 0.663717 0.659487 0.179102
O O1 0.091872 0.858604 0.395786
O O2 0.102684 0.859752 0.556354
O O3 0.851214 0.847580 0.338565
O O4 0.998672 0.970204 0.403943
O O5 0.267021 0.689776 0.651298
O O6 0.095116 0.615031 0.640796
O O7 0.145526 0.757504 0.692250
O O8 0.500000 0.119027 0.250000
O O9 0.624705 0.127594 0.457557
O O10 0.337141 0.144945 0.278663
O O11 0.441494 0.019534 0.322503
O O12 0.088192 0.898749 0.691696
O O13 0.000000 0.990087 0.750000
O O14 0.235975 0.013926 0.803841
O O15 0.750000 0.250000 0.500000
O O16 0.000000 0.500000 0.000000
#
# Coordination Sequence:
#
# PCOD9281228 Si02
#       7
#     8   8   8   8   8   8   8
#     4  11  21  37  60  87 120 153 195 244 298 362
#     4  11  22  37  57  87 118 158 198 239 298 353
#     4  11  21  36  57  87 119 151 190 237 306 354
#     4  10  23  40  61  86 117 161 208 241 288 355
#     4  12  20  33  58  88 122 150 184 241 307 364
#     4  10  21  38  60  84 114 158 197 240 289 355
#     4  11  23  38  60  87 123 155 194 252 296 351
#
# _framework density 19.342624000000001
#
# number of rings (size 3 to 8) (size 9 to 14) (size 15 to 20)
#    0.000    1.143    4.286    3.429    0.000    0.000 
#    0.000    0.714    0.000    1.714    0.000    0.000 
#    0.000    0.000    0.000    0.000    0.000    0.000 
#
# Total GULP energy -156343.195007 kJ/mol
# GULP energy per Si atom -5583.685536 kJ/mol
# Density = 1.929860 g / cm^3
# Si number density = 19.342624 Si / 1000 Ang^3
#
#
#
# Elastic Constant Matrix: (Units=GPa)
#
#
# Indices 1 2 3 4 5 6 
#
# 1 33.9069 17.7150 -3.4392 0.0000 2.3794 0.0000
# 2 17.7150 176.7876 9.3865 0.0000 12.4507 0.0000
# 3 -3.4392 9.3865 44.8726 0.0000 8.5413 0.0000
# 4 0.0000 0.0000 0.0000 21.2067 0.0000 -3.9979
# 5 2.3794 12.4507 8.5413 0.0000 21.7275 0.0000
# 6 0.0000 0.0000 0.0000 -3.9979 0.0000 17.1550
#
#
#
# Elastic Compliance Matrix: (Units=1/GPa)
#
#
# Indices 1 2 3 4 5 6 
#
# 1 0.031734 -0.003156 0.003685 0.000000 -0.003115 0.000000
# 2 -0.003156 0.006225 -0.001006 0.000000 -0.002826 0.000000
# 3 0.003685 -0.001006 0.024585 0.000000 -0.009492 0.000000
# 4 0.000000 0.000000 0.000000 0.049322 0.000000 0.011494
# 5 -0.003115 -0.002826 -0.009492 0.000000 0.051716 0.000000
# 6 0.000000 0.000000 0.000000 0.011494 0.000000 0.060971
#
#
# Mechanical properties :
#
#
# Convention : Reuss Voigt Hill
#
# Bulk Modulus (GPa) = 16.23638 33.65465 24.94552
# Shear Modulus (GPa) = 20.32217 27.47817 23.90017
#
# Velocity S-wave (km/s) = 3.24488 3.77318 3.51895
# Velocity P-wave (km/s) = 4.73828 6.03485 5.42544
#
# Compressibility (1/GPa) = 0.06159009
#
# Stress axis : x y z
#
# Youngs Moduli (GPa) = 31.51207 160.63661 40.67535
#
# Poissons Ratio (x) = 0.50700 -0.14990
# Poissons Ratio (y) = 0.09946 0.04093
# Poissons Ratio (z) = -0.11613 0.16163
#
# Static dielectric constant tensor:
#      x y z
#    x 1.636270 0.000000 0.001990 
#    y 0.000000 1.751160 0.000000 
#    z 0.001990 0.000000 1.705040 
# 
# From -- ./inp_files/206271.got.cif
#   From: 2010.05.17/outbox.cif.g08.bks.cpg/sg15_104_cif.got.tgz:206271.got - 2010.06.03 18:47:42.
