data_PCOD9281368
_publ_section_title
;
Structure prediction by ZEFSAII (Michael W. Deem and Ramdas Pophale) SiO2 
 PCOD9281368
Probable space group: C 2/C
;
_chemical_formula_sum "Si O2"
_cell_formula_units_Z 56
_cell_length_a 12.913940
_cell_length_b 9.014938
_cell_length_c 20.439443
_cell_angle_alpha 90.000000
_cell_angle_beta 112.127495
_cell_angle_gamma 90.000000
_cell_volume 2204.269670
_symmetry_space_group_name_H-M "C 2/C"
_symmetry_group_IT_number 15
_symmetry_cell_setting 'monoclinic'
loop_
_space_group_symop_operation_xyz
x,y,z
-x,y,1/2-z
-x,-y,-z
x,-y,1/2+z
1/2+x,1/2+y,z
1/2-x,1/2+y,1/2-z
1/2-x,1/2-y,-z
1/2+x,1/2-y,1/2+z
loop_
_atom_site_type_symbol
_atom_site_label
_atom_site_fract_x
_atom_site_fract_y
_atom_site_fract_z
Si Si1 0.936645 0.032073 0.558157
Si Si2 0.358390 0.440907 0.305602
Si Si3 0.087575 0.716309 0.007074
Si Si4 0.843362 0.605462 0.277422
Si Si5 0.950987 0.555033 0.091754
Si Si6 0.698649 0.353616 0.870738
Si Si7 0.500000 0.665327 0.250000
Si Si8 0.750000 0.750000 0.000000
O O1 0.951378 0.877543 0.524469
O O2 0.857822 0.987394 0.602436
O O3 0.854517 0.144832 0.503212
O O4 0.056311 0.085817 0.614125
O O5 0.236536 0.512051 0.289652
O O6 0.343571 0.282685 0.266242
O O7 0.428286 0.560005 0.280561
O O8 0.075225 0.607217 0.942269
O O9 0.215069 0.726008 0.061633
O O10 0.021743 0.631816 0.049166
O O11 0.774656 0.585994 0.329579
O O12 0.969197 0.558029 0.325567
O O13 0.838746 0.651153 0.067097
O O14 0.597019 0.260442 0.815316
#
# Coordination Sequence:
#
# PCOD9281368 Si02
#       8
#     8   8   8   8   8   8   4   4
#     4  11  22  38  62  90 122 162 199 245 312 365
#     4  10  21  39  61  85 115 157 203 246 303 358
#     4  10  21  38  61  88 119 164 200 239 303 380
#     4  10  21  39  62  86 118 156 202 251 296 362
#     4  10  22  39  60  88 126 155 202 252 306 360
#     4   9  18  36  59  84 115 156 196 236 298 363
#     4   8  18  36  62  78 114 158 192 242 298 360
#     4  12  22  38  56  90 122 154 190 258 300 350
#
# _framework density 25.405242000000001
#
# number of rings (size 3 to 8) (size 9 to 14) (size 15 to 20)
#    0.000    2.000    2.857    0.429    2.000    0.571 
#    0.000    0.000    3.143    0.000    0.000    0.000 
#    0.000    0.000    0.000    0.000    0.000    0.000 
#
# Total GULP energy -155907.691012 kJ/mol
# GULP energy per Si atom -5568.131822 kJ/mol
# Density = 2.534742 g / cm^3
# Si number density = 25.405242 Si / 1000 Ang^3
#
#
#
# Elastic Constant Matrix: (Units=GPa)
#
#
# Indices 1 2 3 4 5 6 
#
# 1 78.6447 28.7180 57.0170 0.0000 32.3912 0.0000
# 2 28.7180 125.9318 50.3279 0.0000 40.5977 0.0000
# 3 57.0170 50.3279 150.5890 0.0000 75.1244 0.0000
# 4 0.0000 0.0000 0.0000 23.1757 0.0000 9.5889
# 5 32.3912 40.5977 75.1244 0.0000 72.6916 0.0000
# 6 0.0000 0.0000 0.0000 9.5889 0.0000 39.8472
#
#
#
# Elastic Compliance Matrix: (Units=1/GPa)
#
#
# Indices 1 2 3 4 5 6 
#
# 1 0.017857 -0.001384 -0.005604 0.000000 -0.001393 0.000000
# 2 -0.001384 0.009883 -0.000688 0.000000 -0.004192 0.000000
# 3 -0.005604 -0.000688 0.015595 0.000000 -0.013236 0.000000
# 4 0.000000 0.000000 0.000000 0.047920 0.000000 -0.011531
# 5 -0.001393 -0.004192 -0.013236 0.000000 0.030398 0.000000
# 6 0.000000 0.000000 0.000000 -0.011531 0.000000 0.027871
#
#
# Mechanical properties :
#
#
# Convention : Reuss Voigt Hill
#
# Bulk Modulus (GPa) = 35.73357 69.69904 52.71630
# Shear Modulus (GPa) = 28.70231 41.74972 35.22602
#
# Velocity S-wave (km/s) = 3.36487 4.05822 3.72770
# Velocity P-wave (km/s) = 5.40300 7.03231 6.27080
#
# Compressibility (1/GPa) = 0.02798489
#
# Stress axis : x y z
#
# Youngs Moduli (GPa) = 55.99993 101.18785 64.12191
#
# Poissons Ratio (x) = 0.14000 0.35933
# Poissons Ratio (y) = 0.07748 0.04409
# Poissons Ratio (z) = 0.31382 0.06957
#
# Static dielectric constant tensor:
#      x y z
#    x 2.087260 0.000000 -0.082170 
#    y 0.000000 2.008430 0.000000 
#    z -0.082170 0.000000 2.101880 
# 
# From -- ./inp_files/312974.got.cif
#   From: 2010.05.17/outbox.cif.g08.bks.cpg/sg15_157_cif.got.tgz:312974.got - 2010.06.03 18:47:42.
