data_PCOD9281785
_publ_section_title
;
Structure prediction by ZEFSAII (Michael W. Deem and Ramdas Pophale) SiO2 
 PCOD9281785
Probable space group: C 2/C
;
_chemical_formula_sum "Si O2"
_cell_formula_units_Z 44
_cell_length_a 20.384221
_cell_length_b 15.519397
_cell_length_c 13.805819
_cell_angle_alpha 90.000000
_cell_angle_beta 152.714770
_cell_angle_gamma 90.000000
_cell_volume 2002.143201
_symmetry_space_group_name_H-M "C 2/C"
_symmetry_group_IT_number 15
_symmetry_cell_setting 'monoclinic'
loop_
_space_group_symop_operation_xyz
x,y,z
-x,y,1/2-z
-x,-y,-z
x,-y,1/2+z
1/2+x,1/2+y,z
1/2-x,1/2+y,1/2-z
1/2-x,1/2-y,-z
1/2+x,1/2-y,1/2+z
loop_
_atom_site_type_symbol
_atom_site_label
_atom_site_fract_x
_atom_site_fract_y
_atom_site_fract_z
Si Si1 0.500000 0.169849 0.750000
Si Si2 0.332046 0.312180 0.414010
Si Si3 0.467725 0.599401 0.465918
Si Si4 0.626762 0.317087 0.355879
Si Si5 0.229526 0.341352 0.777760
Si Si6 0.562732 0.911644 0.129353
O O1 0.380521 0.238011 0.553417
O O2 0.448715 0.107988 0.770388
O O3 0.474947 0.352951 0.554715
O O4 0.247125 0.258354 0.219701
O O5 0.221219 0.383787 0.305773
O O6 0.500000 0.500000 0.500000
O O7 0.561666 0.638726 0.677198
O O8 0.303712 0.610431 0.284881
O O9 0.500000 0.273463 0.250000
O O10 0.750000 0.250000 0.500000
O O11 0.695881 0.378611 0.528519
O O12 0.060172 0.346261 0.568926
O O13 0.500000 0.000000 0.000000
#
# Coordination Sequence:
#
# PCOD9281785 Si02
#       6
#     4   8   8   8   8   8
#     4  10  24  46  72  98 136 186 232 270 342 426
#     4  11  22  43  72  96 131 184 229 273 335 421
#     4  11  23  41  63  98 140 174 223 289 342 393
#     4  10  21  38  64  94 128 176 229 271 333 406
#     4  10  21  41  64  93 135 177 229 271 336 413
#     4  11  24  44  67 103 138 170 228 292 343 390
#
# _framework density 21.976448999999999
#
# number of rings (size 3 to 8) (size 9 to 14) (size 15 to 20)
#    0.000    1.455    1.818    3.818    2.545    1.455 
#   18.000    0.000    0.000    0.000    0.000    0.000 
#    0.000    0.000    0.000    0.000    0.000    0.000 
#
# Total GULP energy -122506.523630 kJ/mol
# GULP energy per Si atom -5568.478347 kJ/mol
# Density = 2.192643 g / cm^3
# Si number density = 21.976449 Si / 1000 Ang^3
#
#
#
# Elastic Constant Matrix: (Units=GPa)
#
#
# Indices 1 2 3 4 5 6 
#
# 1 113.2625 44.0592 31.6492 0.0000 3.8478 0.0000
# 2 44.0592 108.7312 7.3874 0.0000 -2.7723 0.0000
# 3 31.6492 7.3874 85.1457 0.0000 -4.7745 0.0000
# 4 0.0000 0.0000 0.0000 31.3710 0.0000 -1.3170
# 5 3.8478 -2.7723 -4.7745 0.0000 39.0113 0.0000
# 6 0.0000 0.0000 0.0000 -1.3170 0.0000 28.5900
#
#
#
# Elastic Compliance Matrix: (Units=1/GPa)
#
#
# Indices 1 2 3 4 5 6 
#
# 1 0.011819 -0.004561 -0.004109 0.000000 -0.001993 0.000000
# 2 -0.004561 0.011024 0.000814 0.000000 0.001333 0.000000
# 3 -0.004109 0.000814 0.013319 0.000000 0.002093 0.000000
# 4 0.000000 0.000000 0.000000 0.031938 0.000000 0.001471
# 5 -0.001993 0.001333 0.002093 0.000000 0.026181 0.000000
# 6 0.000000 0.000000 0.000000 0.001471 0.000000 0.035045
#
#
# Mechanical properties :
#
#
# Convention : Reuss Voigt Hill
#
# Bulk Modulus (GPa) = 48.90298 52.59231 50.74764
# Shear Modulus (GPa) = 32.92598 34.73069 33.82833
#
# Velocity S-wave (km/s) = 3.87491 3.97969 3.92765
# Velocity P-wave (km/s) = 6.50543 6.71568 6.61139
#
# Compressibility (1/GPa) = 0.02044865
#
# Stress axis : x y z
#
# Youngs Moduli (GPa) = 84.60801 90.71256 75.08174
#
# Poissons Ratio (x) = 0.41373 0.30853
# Poissons Ratio (y) = 0.38589 -0.06109
# Poissons Ratio (z) = 0.34768 -0.07380
#
# Static dielectric constant tensor:
#      x y z
#    x 1.898230 0.000000 -0.036690 
#    y 0.000000 1.820730 0.000000 
#    z -0.036690 0.000000 1.937430 
# 
# From -- ./inp_files/168539.got.cif
#   From: 2010.05.17/outbox.cif.g08.bks.cpg/sg15_85_cif.got.tgz:168539.got - 2010.06.03 18:47:42.
