data_PCOD9281994
_publ_section_title
;
Structure prediction by ZEFSAII (Michael W. Deem and Ramdas Pophale) SiO2 
 PCOD9281994
Probable space group: C 2/C
;
_chemical_formula_sum "Si O2"
_cell_formula_units_Z 52
_cell_length_a 25.758188
_cell_length_b 7.203685
_cell_length_c 15.299809
_cell_angle_alpha 90.000000
_cell_angle_beta 133.320684
_cell_angle_gamma 90.000000
_cell_volume 2065.399318
_symmetry_space_group_name_H-M "C 2/C"
_symmetry_group_IT_number 15
_symmetry_cell_setting 'monoclinic'
loop_
_space_group_symop_operation_xyz
x,y,z
-x,y,1/2-z
-x,-y,-z
x,-y,1/2+z
1/2+x,1/2+y,z
1/2-x,1/2+y,1/2-z
1/2-x,1/2-y,-z
1/2+x,1/2-y,1/2+z
loop_
_atom_site_type_symbol
_atom_site_label
_atom_site_fract_x
_atom_site_fract_y
_atom_site_fract_z
Si Si1 0.561511 0.042302 0.001163
Si Si2 0.790775 0.920856 0.229066
Si Si3 0.191499 0.484497 0.266570
Si Si4 0.925692 0.023230 0.961045
Si Si5 0.421041 0.548956 0.649698
Si Si6 0.000000 0.391054 0.750000
Si Si7 0.758767 0.974758 0.014361
O O1 0.534275 0.992418 0.872518
O O2 0.627256 0.940771 0.126194
O O3 0.579747 0.260161 0.020286
O O4 0.500000 0.000000 0.000000
O O5 0.805884 0.707968 0.225412
O O6 0.865381 0.025320 0.321752
O O7 0.744112 0.012849 0.099365
O O8 0.759324 0.925494 0.288814
O O9 0.205655 0.430250 0.383561
O O10 0.916529 0.915600 0.040671
O O11 0.000000 0.000000 0.000000
O O12 0.500000 0.447478 0.750000
O O13 0.439258 0.747379 0.715338
O O14 0.342861 0.484130 0.589901
O O15 0.750000 0.750000 0.000000
#
# Coordination Sequence:
#
# PCOD9281994 Si02
#       7
#     8   8   8   8   8   4   8
#     4  11  26  42  63  98 139 173 219 278 343 401
#     4  10  22  39  64  93 126 169 219 269 332 388
#     4  10  23  40  64  93 130 171 220 267 331 402
#     4  11  22  41  66  98 132 173 225 277 329 402
#     4  10  22  39  69  96 128 172 236 266 331 397
#     4  10  26  40  68  92 132 172 222 264 348 378
#     4  10  21  38  67  92 130 174 222 266 325 398
#
# _framework density 25.176729000000002
#
# number of rings (size 3 to 8) (size 9 to 14) (size 15 to 20)
#    0.462    1.231    1.538    1.846   11.846    1.231 
#    0.000    0.769    0.000    0.000    0.000    0.000 
#    0.000    0.000    0.000    0.000    0.000    0.000 
#
# Total GULP energy -145060.790108 kJ/mol
# GULP energy per Si atom -5579.261158 kJ/mol
# Density = 2.511943 g / cm^3
# Si number density = 25.176729 Si / 1000 Ang^3
#
#
#
# Elastic Constant Matrix: (Units=GPa)
#
#
# Indices 1 2 3 4 5 6 
#
# 1 65.6309 -10.8560 22.8810 0.0000 0.2793 0.0000
# 2 -10.8560 76.4682 28.7114 0.0000 -2.6716 0.0000
# 3 22.8810 28.7114 209.4131 0.0000 -25.5358 0.0000
# 4 0.0000 0.0000 0.0000 27.9950 0.0000 -6.8249
# 5 0.2793 -2.6716 -25.5358 0.0000 45.5591 0.0000
# 6 0.0000 0.0000 0.0000 -6.8249 0.0000 22.0115
#
#
#
# Elastic Compliance Matrix: (Units=1/GPa)
#
#
# Indices 1 2 3 4 5 6 
#
# 1 0.016615 0.003220 -0.002411 0.000000 -0.001264 0.000000
# 2 0.003220 0.014414 -0.002391 0.000000 -0.000515 0.000000
# 3 -0.002411 -0.002391 0.005744 0.000000 0.003094 0.000000
# 4 0.000000 0.000000 0.000000 0.038642 0.000000 0.011981
# 5 -0.001264 -0.000515 0.003094 0.000000 0.023661 0.000000
# 6 0.000000 0.000000 0.000000 0.011981 0.000000 0.049146
#
#
# Mechanical properties :
#
#
# Convention : Reuss Voigt Hill
#
# Bulk Modulus (GPa) = 29.75367 48.10944 38.93155
# Shear Modulus (GPa) = 30.75248 39.83151 35.29199
#
# Velocity S-wave (km/s) = 3.49874 3.98185 3.74808
# Velocity P-wave (km/s) = 5.30708 6.34747 5.85045
#
# Compressibility (1/GPa) = 0.03360930
#
# Stress axis : x y z
#
# Youngs Moduli (GPa) = 60.18550 69.37631 174.10213
#
# Poissons Ratio (x) = -0.22339 0.41977
# Poissons Ratio (y) = -0.19379 0.41624
# Poissons Ratio (z) = 0.14511 0.16586
#
# Static dielectric constant tensor:
#      x y z
#    x 1.793220 0.000000 -0.008450 
#    y 0.000000 2.110940 0.000000 
#    z -0.008450 0.000000 2.055090 
# 
# From -- ./inp_files/176727.got.cif
#   From: 2010.05.17/outbox.cif.g08.bks.cpg/sg15_89_cif.got.tgz:176727.got - 2010.06.03 18:47:42.
