data_PCOD9281112
_publ_section_title
;
Structure prediction by ZEFSAII (Michael W. Deem and Ramdas Pophale) SiO2 
 PCOD9281112
Probable space group: C 2/C
;
_chemical_formula_sum "Si O2"
_cell_formula_units_Z 56
_cell_length_a 27.819097
_cell_length_b 9.137800
_cell_length_c 15.884277
_cell_angle_alpha 90.000000
_cell_angle_beta 144.901620
_cell_angle_gamma 90.000000
_cell_volume 2321.701962
_symmetry_space_group_name_H-M "C 2/C"
_symmetry_group_IT_number 15
_symmetry_cell_setting 'monoclinic'
loop_
_space_group_symop_operation_xyz
x,y,z
-x,y,1/2-z
-x,-y,-z
x,-y,1/2+z
1/2+x,1/2+y,z
1/2-x,1/2+y,1/2-z
1/2-x,1/2-y,-z
1/2+x,1/2-y,1/2+z
loop_
_atom_site_type_symbol
_atom_site_label
_atom_site_fract_x
_atom_site_fract_y
_atom_site_fract_z
Si Si1 0.196299 0.327564 0.226938
Si Si2 0.562997 0.908279 0.761343
Si Si3 0.097385 0.061295 0.061265
Si Si4 0.344537 0.807063 0.143700
Si Si5 0.415862 0.072727 0.478220
Si Si6 0.416922 0.311061 0.336902
Si Si7 0.390627 0.335279 0.556595
O O1 0.169357 0.177419 0.144965
O O2 0.144952 0.324869 0.241802
O O3 0.162162 0.464142 0.126079
O O4 0.292988 0.335967 0.388396
O O5 0.500000 0.886383 0.750000
O O6 0.602207 0.757862 0.781950
O O7 0.632848 0.036081 0.865672
O O8 0.497921 0.973163 0.598841
O O9 0.124289 0.950480 0.175233
O O10 0.074254 0.971420 0.944126
O O11 0.013904 0.143249 0.970849
O O12 0.250000 0.750000 0.000000
O O13 0.395221 0.684593 0.163398
O O14 0.402326 0.177527 0.379836
O O15 0.426786 0.187089 0.569273
#
# Coordination Sequence:
#
# PCOD9281112 Si02
#       7
#     8   8   8   8   8   8   8
#     4  11  20  38  64  86 123 165 215 260 315 383
#     4  12  21  37  63  92 123 162 211 263 308 382
#     4  10  21  38  59  87 123 155 209 261 314 372
#     4  10  22  39  61  89 125 164 209 260 325 379
#     4  11  20  36  65  89 117 165 221 256 311 379
#     4  10  21  38  58  86 121 158 201 261 314 369
#     4  10  22  38  58  91 123 164 208 266 318 378
#
# _framework density 24.120236999999999
#
# number of rings (size 3 to 8) (size 9 to 14) (size 15 to 20)
#    0.000    1.429    4.286    2.143    0.000    0.000 
#    2.571    0.000    0.000    1.714    0.000    0.000 
#    0.000    0.000    0.000    0.000    0.000    0.000 
#
# Total GULP energy -156343.133396 kJ/mol
# GULP energy per Si atom -5583.683336 kJ/mol
# Density = 2.406534 g / cm^3
# Si number density = 24.120237 Si / 1000 Ang^3
#
#
#
# Elastic Constant Matrix: (Units=GPa)
#
#
# Indices 1 2 3 4 5 6 
#
# 1 81.2004 25.0907 2.0922 0.0000 -9.2510 0.0000
# 2 25.0907 115.1733 16.2372 0.0000 11.4608 0.0000
# 3 2.0922 16.2372 51.8679 0.0000 20.5971 0.0000
# 4 0.0000 0.0000 0.0000 22.1378 0.0000 -7.8706
# 5 -9.2510 11.4608 20.5971 0.0000 32.6103 0.0000
# 6 0.0000 0.0000 0.0000 -7.8706 0.0000 15.0482
#
#
#
# Elastic Compliance Matrix: (Units=1/GPa)
#
#
# Indices 1 2 3 4 5 6 
#
# 1 0.014181 -0.003446 -0.002098 0.000000 0.006559 0.000000
# 2 -0.003446 0.010007 -0.001613 0.000000 -0.003475 0.000000
# 3 -0.002098 -0.001613 0.026536 0.000000 -0.016789 0.000000
# 4 0.000000 0.000000 0.000000 0.055490 0.000000 0.029023
# 5 0.006559 -0.003475 -0.016789 0.000000 0.044351 0.000000
# 6 0.000000 0.000000 0.000000 0.029023 0.000000 0.081633
#
#
# Mechanical properties :
#
#
# Convention : Reuss Voigt Hill
#
# Bulk Modulus (GPa) = 27.46568 37.23130 32.34849
# Shear Modulus (GPa) = 19.33109 27.61404 23.47257
#
# Velocity S-wave (km/s) = 2.83406 3.38723 3.12292
# Velocity P-wave (km/s) = 4.70328 5.54680 5.14237
#
# Compressibility (1/GPa) = 0.03640908
#
# Stress axis : x y z
#
# Youngs Moduli (GPa) = 70.51453 99.93333 37.68406
#
# Poissons Ratio (x) = 0.34441 0.07906
# Poissons Ratio (y) = 0.24302 0.06080
# Poissons Ratio (z) = 0.14793 0.16124
#
# Static dielectric constant tensor:
#      x y z
#    x 2.012910 0.000000 -0.046050 
#    y 0.000000 1.934910 0.000000 
#    z -0.046050 0.000000 1.901950 
# 
# From -- ./inp_files/214029.got.cif
#   From: 2010.05.17/outbox.cif.g08.bks.cpg/sg15_108_cif.got.tgz:214029.got - 2010.06.03 18:47:42.
