data_PCOD9281221
_publ_section_title
;
Structure prediction by ZEFSAII (Michael W. Deem and Ramdas Pophale) SiO2 
 PCOD9281221
Probable space group: C 2/C
;
_chemical_formula_sum "Si O2"
_cell_formula_units_Z 52
_cell_length_a 8.350838
_cell_length_b 19.098654
_cell_length_c 17.737792
_cell_angle_alpha 90.000000
_cell_angle_beta 50.772242
_cell_angle_gamma 90.000000
_cell_volume 2191.448591
_symmetry_space_group_name_H-M "C 2/C"
_symmetry_group_IT_number 15
_symmetry_cell_setting 'monoclinic'
loop_
_space_group_symop_operation_xyz
x,y,z
-x,y,1/2-z
-x,-y,-z
x,-y,1/2+z
1/2+x,1/2+y,z
1/2-x,1/2+y,1/2-z
1/2-x,1/2-y,-z
1/2+x,1/2-y,1/2+z
loop_
_atom_site_type_symbol
_atom_site_label
_atom_site_fract_x
_atom_site_fract_y
_atom_site_fract_z
Si Si1 0.172150 0.171962 0.510197
Si Si2 0.228383 0.785428 0.426442
Si Si3 0.951708 0.068939 0.676410
Si Si4 0.274080 0.358708 0.848769
Si Si5 0.700758 0.030832 0.486120
Si Si6 0.525743 0.941315 0.653848
Si Si7 0.500000 0.885858 0.250000
O O1 0.250000 0.250000 0.500000
O O2 0.339239 0.120594 0.424245
O O3 0.980268 0.170626 0.510909
O O4 0.075945 0.138983 0.614488
O O5 0.250000 0.750000 0.500000
O O6 0.191399 0.720504 0.379122
O O7 0.411648 0.833759 0.341370
O O8 0.710883 0.077094 0.722250
O O9 0.000000 0.058354 0.750000
O O10 0.084051 0.009233 0.593931
O O11 0.500000 0.348113 0.750000
O O12 0.234575 0.392587 0.942840
O O13 0.190288 0.420234 0.819165
O O14 0.630507 0.012406 0.591766
O O15 0.500000 0.000000 0.500000
O O16 0.500000 0.937865 0.750000
#
# Coordination Sequence:
#
# PCOD9281221 Si02
#       7
#     8   8   8   8   8   8   4
#     4  10  21  38  60 102 132 175 232 274 344 426
#     4  11  24  39  65  95 141 180 225 292 348 416
#     4  10  22  41  72  98 138 185 224 293 355 415
#     4  11  22  41  68  96 133 183 226 278 351 427
#     4   9  21  43  73  98 133 182 241 279 352 429
#     4  10  22  40  69  99 135 176 232 290 342 416
#     4  10  24  42  62 112 138 174 248 282 348 444
#
# _framework density 23.728597000000001
#
# number of rings (size 3 to 8) (size 9 to 14) (size 15 to 20)
#    0.000    1.846    2.308    0.462    4.308    0.615 
#    0.000    0.769   30.462    0.000    0.000    0.000 
#    0.000    0.000    0.000    0.000    0.000    0.000 
#
# Total GULP energy -145168.309164 kJ/mol
# GULP energy per Si atom -5583.396506 kJ/mol
# Density = 2.367459 g / cm^3
# Si number density = 23.728597 Si / 1000 Ang^3
#
#
#
# Elastic Constant Matrix: (Units=GPa)
#
#
# Indices 1 2 3 4 5 6 
#
# 1 97.2096 19.5572 59.8003 0.0000 -4.8456 0.0000
# 2 19.5572 108.4418 21.3193 0.0000 -14.3353 0.0000
# 3 59.8003 21.3193 123.6786 0.0000 -2.9328 0.0000
# 4 0.0000 0.0000 0.0000 27.8849 0.0000 -4.1884
# 5 -4.8456 -14.3353 -2.9328 0.0000 48.5036 0.0000
# 6 0.0000 0.0000 0.0000 -4.1884 0.0000 36.1907
#
#
#
# Elastic Compliance Matrix: (Units=1/GPa)
#
#
# Indices 1 2 3 4 5 6 
#
# 1 0.014842 -0.001218 -0.006950 0.000000 0.000703 0.000000
# 2 -0.001218 0.010019 -0.001073 0.000000 0.002775 0.000000
# 3 -0.006950 -0.001073 0.011623 0.000000 -0.000308 0.000000
# 4 0.000000 0.000000 0.000000 0.036496 0.000000 0.004224
# 5 0.000703 0.002775 -0.000308 0.000000 0.021489 0.000000
# 6 0.000000 0.000000 0.000000 0.004224 0.000000 0.028120
#
#
# Mechanical properties :
#
#
# Convention : Reuss Voigt Hill
#
# Bulk Modulus (GPa) = 55.54152 58.96486 57.25319
# Shear Modulus (GPa) = 33.99714 37.75939 35.87827
#
# Velocity S-wave (km/s) = 3.78927 3.99344 3.89270
# Velocity P-wave (km/s) = 6.52707 6.79464 6.66220
#
# Compressibility (1/GPa) = 0.01800455
#
# Stress axis : x y z
#
# Youngs Moduli (GPa) = 67.37441 99.81288 86.03305
#
# Poissons Ratio (x) = 0.12153 0.59793
# Poissons Ratio (y) = 0.08203 0.09227
# Poissons Ratio (z) = 0.46825 0.10705
#
# Static dielectric constant tensor:
#      x y z
#    x 2.043840 0.000000 0.030820 
#    y 0.000000 1.941530 0.000000 
#    z 0.030820 0.000000 1.953280 
# 
# From -- ./inp_files/192484.got.cif
#   From: 2010.05.17/outbox.cif.g08.bks.cpg/sg15_97_cif.got.tgz:192484.got - 2010.06.03 18:47:42.
