data_PCOD9281117
_publ_section_title
;
Structure prediction by ZEFSAII (Michael W. Deem and Ramdas Pophale) SiO2 
 PCOD9281117
Probable space group: C 2/C
;
_chemical_formula_sum "Si O2"
_cell_formula_units_Z 60
_cell_length_a 16.094018
_cell_length_b 17.670299
_cell_length_c 30.983571
_cell_angle_alpha 90.000000
_cell_angle_beta 160.281055
_cell_angle_gamma 90.000000
_cell_volume 2972.989311
_symmetry_space_group_name_H-M "C 2/C"
_symmetry_group_IT_number 15
_symmetry_cell_setting 'monoclinic'
loop_
_space_group_symop_operation_xyz
x,y,z
-x,y,1/2-z
-x,-y,-z
x,-y,1/2+z
1/2+x,1/2+y,z
1/2-x,1/2+y,1/2-z
1/2-x,1/2-y,-z
1/2+x,1/2-y,1/2+z
loop_
_atom_site_type_symbol
_atom_site_label
_atom_site_fract_x
_atom_site_fract_y
_atom_site_fract_z
Si Si1 0.529993 0.208953 0.182683
Si Si2 0.266152 0.783527 0.892348
Si Si3 0.239378 0.357728 0.439649
Si Si4 0.038940 0.220008 0.599543
Si Si5 0.500000 0.036582 0.750000
Si Si6 0.733642 0.655784 0.834495
Si Si7 0.247254 0.557869 0.301626
Si Si8 0.712145 0.089971 0.730724
O O1 0.624356 0.225402 0.180327
O O2 0.680962 0.259641 0.289993
O O3 0.537424 0.121056 0.196113
O O4 0.248654 0.235539 0.047582
O O5 0.247896 0.726929 0.924551
O O6 0.330549 0.732510 0.881907
O O7 0.000000 0.817873 0.750000
O O8 0.497600 0.839268 0.012268
O O9 0.503554 0.393691 0.579106
O O10 0.125857 0.410605 0.346808
O O11 0.048451 0.369889 0.385312
O O12 0.091583 0.137260 0.644639
O O13 0.298030 0.985901 0.675799
O O14 0.500000 0.637125 0.750000
O O15 0.736002 0.602170 0.793943
O O16 0.221007 0.495583 0.251509
#
# Coordination Sequence:
#
# PCOD9281117 Si02
#       8
#     8   8   8   8   4   8   8   8
#     4  10  22  37  61  91 116 160 213 262 301 365
#     4  12  21  36  62  93 130 158 200 260 318 374
#     4  11  21  37  55  89 126 165 192 246 327 382
#     4  10  21  38  58  87 125 161 205 255 310 362
#     4  10  22  34  52  90 124 164 194 244 316 382
#     4  11  23  42  66  93 119 167 220 263 307 368
#     4  11  23  36  60  89 127 162 209 252 307 384
#     4  10  24  41  59  87 129 170 203 255 315 380
#
# _framework density 20.181706999999999
#
# number of rings (size 3 to 8) (size 9 to 14) (size 15 to 20)
#    0.000    1.333    4.667    1.200    6.533    1.600 
#    0.000    0.000    0.000    4.000    0.000    0.000 
#    0.000    0.000    0.000    0.000    0.000    0.000 
#
# Total GULP energy -167517.565101 kJ/mol
# GULP energy per Si atom -5583.918837 kJ/mol
# Density = 2.013577 g / cm^3
# Si number density = 20.181707 Si / 1000 Ang^3
#
#
#
# Elastic Constant Matrix: (Units=GPa)
#
#
# Indices 1 2 3 4 5 6 
#
# 1 112.4870 10.8302 24.5160 -0.0054 12.1436 -0.0003
# 2 10.8302 23.7817 -9.5992 0.0023 1.5771 -0.0011
# 3 24.5160 -9.5992 103.7704 -0.0429 10.4887 -0.0008
# 4 -0.0054 0.0023 -0.0429 11.8300 0.0092 9.4900
# 5 12.1436 1.5771 10.4887 0.0092 21.6972 -0.0018
# 6 -0.0003 -0.0011 -0.0008 9.4900 -0.0018 11.3061
#
#
#
# Elastic Compliance Matrix: (Units=1/GPa)
#
#
# Indices 1 2 3 4 5 6 
#
# 1 0.010428 -0.005498 -0.002547 0.000002 -0.004206 -0.000003
# 2 -0.005498 0.047187 0.005992 0.000027 -0.003249 -0.000019
# 3 -0.002547 0.005992 0.011242 0.000126 -0.004444 -0.000106
# 4 0.000002 0.000027 0.000126 0.258776 -0.000192 -0.217209
# 5 -0.004206 -0.003249 -0.004444 -0.000192 0.050828 0.000169
# 6 -0.000003 -0.000019 -0.000106 -0.217209 0.000169 0.270767
#
#
# Mechanical properties :
#
#
# Convention : Reuss Voigt Hill
#
# Bulk Modulus (GPa) = 15.44367 32.39255 23.91811
# Shear Modulus (GPa) = 7.40830 23.25279 15.33054
#
# Velocity S-wave (km/s) = 1.91801 3.39805 2.75912
# Velocity P-wave (km/s) = 3.54598 5.61079 4.69334
#
# Compressibility (1/GPa) = 0.06475145
#
# Stress axis : x y z
#
# Youngs Moduli (GPa) = 95.89110 21.19214 88.95158
#
# Poissons Ratio (x) = 0.11652 0.22659
# Poissons Ratio (y) = 0.52725 -0.53304
# Poissons Ratio (z) = 0.24426 -0.12699
#
# Static dielectric constant tensor:
#      x y z
#    x 1.744500 0.000000 0.026670 
#    y 0.000000 1.686870 -0.000010 
#    z 0.026670 -0.000010 1.767430 
# 
# From -- ./inp_files/314472.got.cif
#   From: 2010.05.17/outbox.cif.g08.bks.cpg/sg15_158_cif.got.tgz:314472.got - 2010.06.03 18:47:42.
