data_PCOD9281152
_publ_section_title
;
Structure prediction by ZEFSAII (Michael W. Deem and Ramdas Pophale) SiO2 
 PCOD9281152
Probable space group: C 2/C
;
_chemical_formula_sum "Si O2"
_cell_formula_units_Z 48
_cell_length_a 16.503561
_cell_length_b 26.824523
_cell_length_c 8.695780
_cell_angle_alpha 90.000000
_cell_angle_beta 32.639702
_cell_angle_gamma 90.000000
_cell_volume 2076.311235
_symmetry_space_group_name_H-M "C 2/C"
_symmetry_group_IT_number 15
_symmetry_cell_setting 'monoclinic'
loop_
_space_group_symop_operation_xyz
x,y,z
-x,y,1/2-z
-x,-y,-z
x,-y,1/2+z
1/2+x,1/2+y,z
1/2-x,1/2+y,1/2-z
1/2-x,1/2-y,-z
1/2+x,1/2-y,1/2+z
loop_
_atom_site_type_symbol
_atom_site_label
_atom_site_fract_x
_atom_site_fract_y
_atom_site_fract_z
Si Si1 0.500000 0.512136 0.250000
Si Si2 0.564737 0.787827 0.477220
Si Si3 0.000000 0.458738 0.250000
Si Si4 0.644508 0.764099 0.920384
Si Si5 0.455733 0.898065 0.642795
Si Si6 0.312583 0.547487 0.293387
Si Si7 0.676552 0.363332 0.937081
O O1 0.375113 0.544449 0.363900
O O2 0.429572 0.476316 0.489074
O O3 0.452312 0.748800 0.573033
O O4 0.740628 0.774827 0.189296
O O5 0.534959 0.844978 0.477510
O O6 0.500000 0.786762 0.750000
O O7 0.991059 0.431637 0.434389
O O8 0.839430 0.483943 0.487197
O O9 0.752773 0.809423 0.703962
O O10 0.500000 0.780516 0.250000
O O11 0.500000 0.911005 0.750000
O O12 0.275791 0.888095 0.915159
O O13 0.288798 0.603039 0.268753
O O14 0.500000 0.362184 0.250000
#
# Coordination Sequence:
#
# PCOD9281152 Si02
#       7
#     4   8   4   8   8   8   8
#     4  10  22  44  66  93 130 158 204 255 312 388
#     4  10  21  38  59  83 119 165 213 259 309 365
#     4  10  22  42  68  97 134 168 208 261 316 372
#     4  11  23  38  60  86 121 162 209 264 311 360
#     4   9  21  39  64  92 129 168 218 264 312 367
#     4  10  22  41  67  94 128 164 202 256 316 382
#     4  10  21  38  64  89 122 167 208 252 318 376
#
# _framework density 23.117920999999999
#
# number of rings (size 3 to 8) (size 9 to 14) (size 15 to 20)
#    0.000    2.000    0.833    1.500   10.500    4.667 
#    3.000    0.000    0.000    0.000    0.000    0.000 
#    0.000    0.000    0.000    0.000    0.000    0.000 
#
# Total GULP energy -133751.630418 kJ/mol
# GULP energy per Si atom -5572.984601 kJ/mol
# Density = 2.306530 g / cm^3
# Si number density = 23.117921 Si / 1000 Ang^3
#
#
#
# Elastic Constant Matrix: (Units=GPa)
#
#
# Indices 1 2 3 4 5 6 
#
# 1 133.3223 15.5002 13.8379 0.0000 -8.6657 0.0000
# 2 15.5002 14.7776 0.8504 0.0000 -1.0793 0.0000
# 3 13.8379 0.8504 89.1809 0.0000 -17.4823 0.0000
# 4 0.0000 0.0000 0.0000 0.3249 0.0000 -30.5485
# 5 -8.6657 -1.0793 -17.4823 0.0000 44.2090 0.0000
# 6 0.0000 0.0000 0.0000 -30.5485 0.0000 11.8870
#
#
#
# Elastic Compliance Matrix: (Units=1/GPa)
#
#
# Indices 1 2 3 4 5 6 
#
# 1 0.008728 -0.009016 -0.001058 0.000000 0.001072 0.000000
# 2 -0.009016 0.077114 0.000744 0.000000 0.000410 0.000000
# 3 -0.001058 0.000744 0.012286 0.000000 0.004669 0.000000
# 4 0.000000 0.000000 0.000000 -0.012791 0.000000 -0.032871
# 5 0.001072 0.000410 0.004669 0.000000 0.024686 0.000000
# 6 0.000000 0.000000 0.000000 -0.032871 0.000000 -0.000350
#
#
# Mechanical properties :
#
#
# Convention : Reuss Voigt Hill
#
# Bulk Modulus (GPa) = 12.58376 33.07308 22.82842
# Shear Modulus (GPa) = 32.29483 25.09034 28.69259
#
# Velocity S-wave (km/s) = 3.74165 3.29799 3.52680
# Velocity P-wave (km/s) = 4.91138 5.37026 5.14594
#
# Compressibility (1/GPa) = 0.07946753
#
# Stress axis : x y z
#
# Youngs Moduli (GPa) = 114.56919 12.96782 81.39653
#
# Poissons Ratio (x) = 0.11692 0.08613
# Poissons Ratio (y) = 1.03295 -0.06055
# Poissons Ratio (z) = 0.12123 -0.00965
#
# Static dielectric constant tensor:
#      x y z
#    x 2.209270 0.000000 0.117920 
#    y 0.000000 1.953610 0.000000 
#    z 0.117920 0.000000 1.981320 
# 
# From -- ./inp_files/52751.got.cif
#   From: 2010.05.17/outbox.cif.g08.bks.cpg/sg15_27_cif.got.tgz:52751.got - 2010.06.03 18:47:42.
