data_PCOD9281836
_publ_section_title
;
Structure prediction by ZEFSAII (Michael W. Deem and Ramdas Pophale) SiO2 
 PCOD9281836
Probable space group: C 2/C
;
_chemical_formula_sum "Si O2"
_cell_formula_units_Z 56
_cell_length_a 9.489677
_cell_length_b 27.232228
_cell_length_c 13.770322
_cell_angle_alpha 90.000000
_cell_angle_beta 53.879425
_cell_angle_gamma 90.000000
_cell_volume 2874.556548
_symmetry_space_group_name_H-M "C 2/C"
_symmetry_group_IT_number 15
_symmetry_cell_setting 'monoclinic'
loop_
_space_group_symop_operation_xyz
x,y,z
-x,y,1/2-z
-x,-y,-z
x,-y,1/2+z
1/2+x,1/2+y,z
1/2-x,1/2+y,1/2-z
1/2-x,1/2-y,-z
1/2+x,1/2-y,1/2+z
loop_
_atom_site_type_symbol
_atom_site_label
_atom_site_fract_x
_atom_site_fract_y
_atom_site_fract_z
Si Si1 0.943652 0.601590 0.066564
Si Si2 0.196651 0.687177 0.923767
Si Si3 0.651025 0.610463 0.347909
Si Si4 0.948471 0.204878 0.995504
Si Si5 0.198477 0.338681 0.200244
Si Si6 0.851494 0.469306 0.890401
Si Si7 0.730394 0.577092 0.970099
O O1 0.778563 0.607530 0.204647
O O2 0.065788 0.648898 0.027413
O O3 0.051486 0.553915 0.056584
O O4 0.878134 0.595668 0.983909
O O5 0.106978 0.740473 0.954311
O O6 0.366092 0.693413 0.922734
O O7 0.224830 0.666852 0.804350
O O8 0.634475 0.665067 0.397746
O O9 0.731990 0.573686 0.394961
O O10 0.455697 0.591672 0.409820
O O11 0.155682 0.196173 0.908050
O O12 0.243463 0.392878 0.140401
O O13 0.000000 0.326954 0.250000
O O14 0.748597 0.519043 0.951302
O O15 0.000000 0.480150 0.750000
#
# Coordination Sequence:
#
# PCOD9281836 Si02
#       7
#     8   8   8   8   8   8   8
#     4  11  22  39  64  94 124 165 211 258 311 377
#     4  11  23  42  66  93 124 167 212 258 316 369
#     4  10  22  41  61  94 125 162 213 257 313 375
#     4  10  24  42  66  91 125 166 209 265 307 373
#     4  11  23  42  62  95 129 160 208 254 319 375
#     4  10  21  38  65  90 122 169 212 253 314 370
#     4  11  22  41  63  89 133 164 201 265 311 375
#
# _framework density 19.481265
#
# number of rings (size 3 to 8) (size 9 to 14) (size 15 to 20)
#    0.000    1.429    2.857    2.143    2.000    0.571 
#    0.000    0.000    3.143    0.000    0.000    0.000 
#    0.000    0.000    0.000    0.000    0.000    0.000 
#
# Total GULP energy -156418.133846 kJ/mol
# GULP energy per Si atom -5586.361923 kJ/mol
# Density = 1.943692 g / cm^3
# Si number density = 19.481265 Si / 1000 Ang^3
#
#
#
# Elastic Constant Matrix: (Units=GPa)
#
#
# Indices 1 2 3 4 5 6 
#
# 1 48.1792 25.2313 26.7159 0.0000 -2.8229 0.0000
# 2 25.2313 135.8376 50.0132 0.0000 -4.4594 0.0000
# 3 26.7159 50.0132 67.5798 0.0000 4.7792 0.0000
# 4 0.0000 0.0000 0.0000 15.6947 0.0000 -0.3752
# 5 -2.8229 -4.4594 4.7792 0.0000 30.8454 0.0000
# 6 0.0000 0.0000 0.0000 -0.3752 0.0000 -67.5335
#
#
#
# Elastic Compliance Matrix: (Units=1/GPa)
#
#
# Indices 1 2 3 4 5 6 
#
# 1 0.027244 -0.001190 -0.010165 0.000000 0.003896 0.000000
# 2 -0.001190 0.010390 -0.007399 0.000000 0.002540 0.000000
# 3 -0.010165 -0.007399 0.024703 0.000000 -0.005827 0.000000
# 4 0.000000 0.000000 0.000000 0.063707 0.000000 -0.000354
# 5 0.003896 0.002540 -0.005827 0.000000 0.034046 0.000000
# 6 0.000000 0.000000 0.000000 -0.000354 0.000000 -0.014806
#
#
# Mechanical properties :
#
#
# Convention : Reuss Voigt Hill
#
# Bulk Modulus (GPa) = 40.27342 50.61305 45.44324
# Shear Modulus (GPa) = 26.16845 5.77705 15.97275
#
# Velocity S-wave (km/s) = 3.66903 1.72391 2.86650
# Velocity P-wave (km/s) = 6.21827 5.47716 5.85944
#
# Compressibility (1/GPa) = 0.02483027
#
# Stress axis : x y z
#
# Youngs Moduli (GPa) = 36.70536 96.24498 40.48035
#
# Poissons Ratio (x) = 0.11452 0.41149
# Poissons Ratio (y) = 0.04368 0.29950
# Poissons Ratio (z) = 0.37312 0.71207
#
# Static dielectric constant tensor:
#      x y z
#    x 1.689750 0.000000 0.000230 
#    y 0.000000 1.645180 0.000000 
#    z 0.000230 0.000000 1.669340 
# 
# From -- ./inp_files/82471.got.cif
#   From: 2010.05.17/outbox.cif.g08.bks.cpg/sg15_42_cif.got.tgz:82471.got - 2010.06.03 18:47:42.
