data_PCOD9281015
_publ_section_title
;
Structure prediction by ZEFSAII (Michael W. Deem and Ramdas Pophale) SiO2 
 PCOD9281015
Probable space group: C 2/C
;
_chemical_formula_sum "Si O2"
_cell_formula_units_Z 64
_cell_length_a 7.933395
_cell_length_b 15.841939
_cell_length_c 23.743637
_cell_angle_alpha 90.000000
_cell_angle_beta 88.593443
_cell_angle_gamma 90.000000
_cell_volume 2983.209687
_symmetry_space_group_name_H-M "C 2/C"
_symmetry_group_IT_number 15
_symmetry_cell_setting 'monoclinic'
loop_
_space_group_symop_operation_xyz
x,y,z
-x,y,1/2-z
-x,-y,-z
x,-y,1/2+z
1/2+x,1/2+y,z
1/2-x,1/2+y,1/2-z
1/2-x,1/2-y,-z
1/2+x,1/2-y,1/2+z
loop_
_atom_site_type_symbol
_atom_site_label
_atom_site_fract_x
_atom_site_fract_y
_atom_site_fract_z
Si Si1 0.348331 0.457777 0.285137
Si Si2 0.900645 0.350539 0.903527
Si Si3 0.041963 0.826427 0.356623
Si Si4 0.017023 0.393037 0.029532
Si Si5 0.882155 0.639267 0.796720
Si Si6 0.599413 0.717576 0.459041
Si Si7 0.407861 0.420659 0.029342
Si Si8 0.584319 0.989335 0.370478
O O1 0.500000 0.500703 0.250000
O O2 0.423372 0.370838 0.311157
O O3 0.210416 0.432160 0.240217
O O4 0.257842 0.505953 0.336688
O O5 0.701097 0.335127 0.911727
O O6 0.975149 0.262225 0.880818
O O7 0.963584 0.429944 0.867612
O O8 0.968257 0.374893 0.965510
O O9 0.228534 0.814882 0.329200
O O10 0.045185 0.894666 0.407381
O O11 0.206192 0.426917 0.031428
O O12 0.995282 0.301568 0.058669
O O13 0.898459 0.456631 0.065429
O O14 0.000000 0.686670 0.750000
O O15 0.996351 0.589472 0.840197
O O16 0.750000 0.750000 0.500000
O O17 0.469039 0.659065 0.492311
O O18 0.500000 0.500000 0.000000
#
# Coordination Sequence:
#
# PCOD9281015 Si02
#       8
#     8   8   8   8   8   8   8   8
#     4   9  21  40  65  84 113 156 209 263 314 369
#     4  11  24  38  59  97 127 162 206 251 302 388
#     4  11  21  41  62  88 124 164 204 248 322 368
#     4  11  22  38  60  89 134 169 202 247 310 379
#     4   9  20  41  63  87 110 152 213 261 307 369
#     4  10  21  38  56  81 133 163 199 240 295 363
#     4  12  24  36  58  92 128 165 207 251 298 380
#     4  11  21  37  66  90 119 163 205 255 317 366
#
# _framework density 21.453403999999999
#
# number of rings (size 3 to 8) (size 9 to 14) (size 15 to 20)
#    0.000    1.500    3.750    2.250    3.500    0.000 
#    0.000    6.250    0.000    0.000    0.000    0.000 
#    0.000    0.000    0.000    0.000    0.000    0.000 
#
# Total GULP energy -178592.342513 kJ/mol
# GULP energy per Si atom -5581.010704 kJ/mol
# Density = 2.140458 g / cm^3
# Si number density = 21.453404 Si / 1000 Ang^3
#
#
#
# Elastic Constant Matrix: (Units=GPa)
#
#
# Indices 1 2 3 4 5 6 
#
# 1 66.0709 4.0466 40.8616 0.0000 -33.2477 0.0000
# 2 4.0466 68.5148 38.2530 0.0000 -10.9133 0.0000
# 3 40.8616 38.2530 99.7385 0.0000 -26.6798 0.0000
# 4 0.0000 0.0000 0.0000 4.7064 0.0000 -4.6979
# 5 -33.2477 -10.9133 -26.6798 0.0000 53.2833 0.0000
# 6 0.0000 0.0000 0.0000 -4.6979 0.0000 27.5820
#
#
#
# Elastic Compliance Matrix: (Units=1/GPa)
#
#
# Indices 1 2 3 4 5 6 
#
# 1 0.027869 0.006189 -0.010161 0.000000 0.013569 0.000000
# 2 0.006189 0.019950 -0.009308 0.000000 0.003287 0.000000
# 3 -0.010161 -0.009308 0.017958 0.000000 0.000745 0.000000
# 4 0.000000 0.000000 0.000000 0.256002 0.000000 0.043603
# 5 0.013569 0.003287 0.000745 0.000000 0.028281 0.000000
# 6 0.000000 0.000000 0.000000 0.043603 0.000000 0.043682
#
#
# Mechanical properties :
#
#
# Convention : Reuss Voigt Hill
#
# Bulk Modulus (GPa) = 25.49952 44.51628 35.00790
# Shear Modulus (GPa) = 11.53736 27.19187 19.36462
#
# Velocity S-wave (km/s) = 2.32154 3.56404 3.00765
# Velocity P-wave (km/s) = 4.37011 6.14262 5.33055
#
# Compressibility (1/GPa) = 0.03921643
#
# Stress axis : x y z
#
# Youngs Moduli (GPa) = 35.88271 50.12517 55.68471
#
# Poissons Ratio (x) = -0.31020 0.56583
# Poissons Ratio (y) = -0.22206 0.51829
# Poissons Ratio (z) = 0.36461 0.46654
#
# Static dielectric constant tensor:
#      x y z
#    x 1.812330 0.000000 -0.035890 
#    y 0.000000 1.752300 0.000000 
#    z -0.035890 0.000000 1.861750 
# 
# From -- ./inp_files/288767.got.cif
#   From: 2010.05.17/outbox.cif.g08.bks.cpg/sg15_145_cif.got.tgz:288767.got - 2010.06.03 18:47:42.
