data_PCOD9281986
_publ_section_title
;
Structure prediction by ZEFSAII (Michael W. Deem and Ramdas Pophale) SiO2 
 PCOD9281986
Probable space group: C 2/C
;
_chemical_formula_sum "Si O2"
_cell_formula_units_Z 60
_cell_length_a 22.815440
_cell_length_b 25.514418
_cell_length_c 7.908197
_cell_angle_alpha 90.000000
_cell_angle_beta 143.548130
_cell_angle_gamma 90.000000
_cell_volume 2735.181394
_symmetry_space_group_name_H-M "C 2/C"
_symmetry_group_IT_number 15
_symmetry_cell_setting 'monoclinic'
loop_
_space_group_symop_operation_xyz
x,y,z
-x,y,1/2-z
-x,-y,-z
x,-y,1/2+z
1/2+x,1/2+y,z
1/2-x,1/2+y,1/2-z
1/2-x,1/2-y,-z
1/2+x,1/2-y,1/2+z
loop_
_atom_site_type_symbol
_atom_site_label
_atom_site_fract_x
_atom_site_fract_y
_atom_site_fract_z
Si Si1 0.043542 0.928280 0.586093
Si Si2 0.632913 0.475008 0.134800
Si Si3 0.387566 0.150225 0.433089
Si Si4 0.931012 0.723873 0.229736
Si Si5 0.859382 0.544137 0.221724
Si Si6 0.943985 0.814129 0.792583
Si Si7 0.270591 0.244768 0.252202
Si Si8 0.500000 0.964806 0.750000
O O1 0.059489 0.866381 0.602907
O O2 0.930109 0.942834 0.369780
O O3 0.090118 0.966266 0.554075
O O4 0.102821 0.947179 0.891140
O O5 0.750559 0.475028 0.421807
O O6 0.392925 0.179546 0.266083
O O7 0.343920 0.093318 0.309055
O O8 0.325669 0.189791 0.405200
O O9 0.500000 0.145617 0.750000
O O10 0.000000 0.699720 0.250000
O O11 0.991395 0.767869 0.473431
O O12 0.837983 0.751442 0.924899
O O13 0.928675 0.561793 0.223987
O O14 0.923299 0.500659 0.466733
O O15 0.840818 0.789675 0.489592
O O16 0.000000 0.830224 0.750000
O O17 0.250000 0.250000 0.000000
#
# Coordination Sequence:
#
# PCOD9281986 Si02
#       8
#     8   8   8   8   8   8   8   4
#     4  10  23  38  64  92 125 164 203 268 308 377
#     4  10  21  40  60  90 123 160 213 252 314 366
#     4  11  21  41  66  90 121 166 211 254 314 378
#     4  11  25  41  60  95 131 160 206 269 307 373
#     4  11  23  40  66  88 123 168 204 268 309 374
#     4  12  20  42  64  92 129 167 210 256 314 382
#     4  10  21  38  67  90 119 169 212 241 310 391
#     4  10  24  44  56  90 128 154 218 256 312 368
#
# _framework density 21.936388000000001
#
# number of rings (size 3 to 8) (size 9 to 14) (size 15 to 20)
#    0.000    1.333    6.000    0.800    6.533    0.533 
#    4.800    1.333    0.000    0.000    0.000    0.000 
#    0.000    0.000    0.000    0.000    0.000    0.000 
#
# Total GULP energy -167505.612902 kJ/mol
# GULP energy per Si atom -5583.520430 kJ/mol
# Density = 2.188646 g / cm^3
# Si number density = 21.936388 Si / 1000 Ang^3
#
#
#
# Elastic Constant Matrix: (Units=GPa)
#
#
# Indices 1 2 3 4 5 6 
#
# 1 35.4808 -11.9762 26.6458 0.0000 18.1970 0.0000
# 2 -11.9762 76.0776 19.5500 0.0000 6.8899 0.0000
# 3 26.6458 19.5500 131.4293 0.0000 28.2968 0.0000
# 4 0.0000 0.0000 0.0000 32.4317 0.0000 -59.7038
# 5 18.1970 6.8899 28.2968 0.0000 27.9546 0.0000
# 6 0.0000 0.0000 0.0000 -59.7038 0.0000 202.3017
#
#
#
# Elastic Compliance Matrix: (Units=1/GPa)
#
#
# Indices 1 2 3 4 5 6 
#
# 1 0.053224 0.012763 -0.005821 0.000000 -0.031900 0.000000
# 2 0.012763 0.016789 -0.003076 0.000000 -0.009333 0.000000
# 3 -0.005821 -0.003076 0.010571 0.000000 -0.006153 0.000000
# 4 0.000000 0.000000 0.000000 0.067514 0.000000 0.019925
# 5 -0.031900 -0.009333 -0.006153 0.000000 0.065066 0.000000
# 6 0.000000 0.000000 0.000000 0.019925 0.000000 0.010823
#
#
# Mechanical properties :
#
#
# Convention : Reuss Voigt Hill
#
# Bulk Modulus (GPa) = 11.32269 34.60300 22.96285
# Shear Modulus (GPa) = 20.35052 66.45550 43.40301
#
# Velocity S-wave (km/s) = 3.04913 5.51003 4.45295
# Velocity P-wave (km/s) = 4.19155 7.50260 6.07693
#
# Compressibility (1/GPa) = 0.08831824
#
# Stress axis : x y z
#
# Youngs Moduli (GPa) = 18.78836 59.56172 94.59749
#
# Poissons Ratio (x) = -0.76022 0.55067
# Poissons Ratio (y) = -0.23981 0.29095
# Poissons Ratio (z) = 0.10937 0.18319
#
# Static dielectric constant tensor:
#      x y z
#    x 1.861340 0.000000 0.016860 
#    y 0.000000 1.821830 0.000000 
#    z 0.016860 0.000000 1.729210 
# 
# From -- ./inp_files/64115.got.cif
#   From: 2010.05.17/outbox.cif.g08.bks.cpg/sg15_33_cif.got.tgz:64115.got - 2010.06.03 18:47:42.
