data_PCOD9281170
_publ_section_title
;
Structure prediction by ZEFSAII (Michael W. Deem and Ramdas Pophale) SiO2 
 PCOD9281170
Probable space group: C 2/C
;
_chemical_formula_sum "Si O2"
_cell_formula_units_Z 40
_cell_length_a 10.653482
_cell_length_b 7.705703
_cell_length_c 22.732412
_cell_angle_alpha 90.000000
_cell_angle_beta 90.803526
_cell_angle_gamma 90.000000
_cell_volume 1865.978570
_symmetry_space_group_name_H-M "C 2/C"
_symmetry_group_IT_number 15
_symmetry_cell_setting 'monoclinic'
loop_
_space_group_symop_operation_xyz
x,y,z
-x,y,1/2-z
-x,-y,-z
x,-y,1/2+z
1/2+x,1/2+y,z
1/2-x,1/2+y,1/2-z
1/2-x,1/2-y,-z
1/2+x,1/2-y,1/2+z
loop_
_atom_site_type_symbol
_atom_site_label
_atom_site_fract_x
_atom_site_fract_y
_atom_site_fract_z
Si Si1 0.376621 0.895193 0.519961
Si Si2 0.798930 0.459420 0.396030
Si Si3 0.966499 0.454824 0.183594
Si Si4 0.957640 0.826247 0.129989
Si Si5 0.271961 0.365768 0.390645
O O1 0.433236 0.751943 0.564275
O O2 0.500000 0.000000 0.500000
O O3 0.310297 0.855720 0.457450
O O4 0.285714 0.019753 0.557438
O O5 0.670445 0.427470 0.360405
O O6 0.795067 0.665610 0.408575
O O7 0.919119 0.406097 0.358799
O O8 0.961498 0.663485 0.174038
O O9 0.834604 0.379614 0.160130
O O10 0.000000 0.409461 0.250000
O O11 0.089980 0.924861 0.129945
#
# Coordination Sequence:
#
# PCOD9281170 Si02
#       5
#     8   8   8   8   8
#     4  11  19  38  60  86 125 155 182 229 291 346
#     4  11  22  37  60  89 118 153 192 234 284 344
#     4  10  23  43  61  79 115 156 194 243 292 334
#     4  10  23  38  60  89 117 150 192 237 284 346
#     4  10  21  38  59  86 118 151 190 238 285 341
#
# _framework density 21.436471000000001
#
# number of rings (size 3 to 8) (size 9 to 14) (size 15 to 20)
#    0.000    1.600    6.000    1.200    0.000    7.200 
#    0.000    1.000    0.000    0.000    0.000    0.000 
#    0.000    0.000    0.000    0.000    0.000    0.000 
#
# Total GULP energy -111621.313011 kJ/mol
# GULP energy per Si atom -5581.065651 kJ/mol
# Density = 2.138768 g / cm^3
# Si number density = 21.436471 Si / 1000 Ang^3
#
#
#
# Elastic Constant Matrix: (Units=GPa)
#
#
# Indices 1 2 3 4 5 6 
#
# 1 189.8158 20.7516 35.8623 0.0000 24.0312 0.0000
# 2 20.7516 30.7042 11.8403 0.0000 0.8883 0.0000
# 3 35.8623 11.8403 126.0682 0.0000 25.7880 0.0000
# 4 0.0000 0.0000 0.0000 11.6230 0.0000 11.2567
# 5 24.0312 0.8883 25.7880 0.0000 15.8457 0.0000
# 6 0.0000 0.0000 0.0000 11.2567 0.0000 34.9649
#
#
#
# Elastic Compliance Matrix: (Units=1/GPa)
#
#
# Indices 1 2 3 4 5 6 
#
# 1 0.007149 -0.004821 0.000872 0.000000 -0.011990 0.000000
# 2 -0.004821 0.037300 -0.004796 0.000000 0.013026 0.000000
# 3 0.000872 -0.004796 0.012517 0.000000 -0.021424 0.000000
# 4 0.000000 0.000000 0.000000 0.125016 0.000000 -0.040248
# 5 -0.011990 0.013026 -0.021424 0.000000 0.115429 0.000000
# 6 0.000000 0.000000 0.000000 -0.040248 0.000000 0.041558
#
#
# Mechanical properties :
#
#
# Convention : Reuss Voigt Hill
#
# Bulk Modulus (GPa) = 25.33248 53.72184 39.52716
# Shear Modulus (GPa) = 13.52753 31.02897 22.27825
#
# Velocity S-wave (km/s) = 2.51480 3.80871 3.22727
# Velocity P-wave (km/s) = 4.50282 6.66761 5.68913
#
# Compressibility (1/GPa) = 0.03947501
#
# Stress axis : x y z
#
# Youngs Moduli (GPa) = 139.88910 26.80994 79.89023
#
# Poissons Ratio (x) = 0.12924 -0.06965
# Poissons Ratio (y) = 0.67436 0.38318
# Poissons Ratio (z) = -0.12196 0.12859
#
# Static dielectric constant tensor:
#      x y z
#    x 1.853870 0.000000 0.014660 
#    y 0.000000 1.851160 0.000000 
#    z 0.014660 0.000000 1.750970 
# 
# From -- ./inp_files/235824.got.cif
#   From: 2010.05.17/outbox.cif.g08.bks.cpg/sg15_118_cif.got.tgz:235824.got - 2010.06.03 18:47:42.
