data_PCOD9281034
_publ_section_title
;
Structure prediction by ZEFSAII (Michael W. Deem and Ramdas Pophale) SiO2 
 PCOD9281034
Probable space group: C 2/C
;
_chemical_formula_sum "Si O2"
_cell_formula_units_Z 32
_cell_length_a 11.853582
_cell_length_b 17.655946
_cell_length_c 14.485564
_cell_angle_alpha 90.000000
_cell_angle_beta 151.729041
_cell_angle_gamma 90.000000
_cell_volume 1435.906281
_symmetry_space_group_name_H-M "C 2/C"
_symmetry_group_IT_number 15
_symmetry_cell_setting 'monoclinic'
loop_
_space_group_symop_operation_xyz
x,y,z
-x,y,1/2-z
-x,-y,-z
x,-y,1/2+z
1/2+x,1/2+y,z
1/2-x,1/2+y,1/2-z
1/2-x,1/2-y,-z
1/2+x,1/2-y,1/2+z
loop_
_atom_site_type_symbol
_atom_site_label
_atom_site_fract_x
_atom_site_fract_y
_atom_site_fract_z
Si Si1 0.500000 0.445464 0.250000
Si Si2 0.500000 0.810657 0.250000
Si Si3 0.914832 0.917445 0.397783
Si Si4 0.108407 0.445239 0.498975
Si Si5 0.967665 0.170096 0.354393
O O1 0.443619 0.407647 0.308096
O O2 0.724703 0.498506 0.437734
O O3 0.428319 0.752174 0.282242
O O4 0.751497 0.845970 0.463886
O O5 0.632470 0.912770 0.217206
O O6 0.049481 0.851393 0.550454
O O7 0.000000 0.000000 0.500000
O O8 0.282841 0.385983 0.673265
O O9 0.000000 0.500000 0.500000
#
# Coordination Sequence:
#
# PCOD9281034 Si02
#       5
#     4   4   8   8   8
#     4  10  21  38  56  96 128 169 210 258 364 384
#     4  10  27  42  66  96 130 199 212 274 330 382
#     4  11  23  38  64  95 134 175 211 284 337 393
#     4  10  21  39  60  98 132 166 215 273 340 401
#     4  11  23  43  60  96 135 168 232 265 328 403
#
# _framework density 22.285578000000001
#
# number of rings (size 3 to 8) (size 9 to 14) (size 15 to 20)
#    0.000    1.500    5.000    0.750   10.500    1.000 
#    0.000    0.000    0.000    1.500    0.000    0.000 
#    0.000    0.000    0.000    0.000    0.000    0.000 
#
# Total GULP energy -89216.693864 kJ/mol
# GULP energy per Si atom -5576.043366 kJ/mol
# Density = 2.223486 g / cm^3
# Si number density = 22.285578 Si / 1000 Ang^3
#
#
#
# Elastic Constant Matrix: (Units=GPa)
#
#
# Indices 1 2 3 4 5 6 
#
# 1 88.3240 13.4823 40.3844 -0.0015 -20.4896 -0.0003
# 2 13.4823 68.1612 44.5562 -0.0007 -5.8457 -0.0004
# 3 40.3844 44.5562 167.6474 -0.0021 1.7705 -0.0010
# 4 -0.0015 -0.0007 -0.0021 55.7945 -0.0009 -0.2691
# 5 -20.4896 -5.8457 1.7705 -0.0009 60.1455 -0.0004
# 6 -0.0003 -0.0004 -0.0010 -0.2691 -0.0004 22.4607
#
#
#
# Elastic Compliance Matrix: (Units=1/GPa)
#
#
# Indices 1 2 3 4 5 6 
#
# 1 0.014022 -0.000139 -0.003392 0.000000 0.004863 0.000000
# 2 -0.000139 0.017969 -0.004762 0.000000 0.001839 0.000000
# 3 -0.003392 -0.004762 0.008067 0.000000 -0.001856 0.000000
# 4 0.000000 0.000000 0.000000 0.017924 0.000000 0.000215
# 5 0.004863 0.001839 -0.001856 0.000000 0.018516 0.000000
# 6 0.000000 0.000000 0.000000 0.000215 0.000000 0.044525
#
#
# Mechanical properties :
#
#
# Convention : Reuss Voigt Hill
#
# Bulk Modulus (GPa) = 42.60270 57.88652 50.24461
# Shear Modulus (GPa) = 34.37993 42.72747 38.55370
#
# Velocity S-wave (km/s) = 3.93198 4.38341 4.16382
# Velocity P-wave (km/s) = 6.30652 7.18682 6.76101
#
# Compressibility (1/GPa) = 0.02347269
#
# Stress axis : x y z
#
# Youngs Moduli (GPa) = 71.31440 55.65158 123.95943
#
# Poissons Ratio (x) = 0.00774 0.42050
# Poissons Ratio (y) = 0.00992 0.59024
# Poissons Ratio (z) = 0.24192 0.26499
#
# Static dielectric constant tensor:
#      x y z
#    x 1.927720 0.000000 -0.036460 
#    y 0.000000 2.000370 0.000000 
#    z -0.036460 0.000000 1.867290 
# 
# From -- ./inp_files/146218.got.cif
#   From: 2010.05.17/outbox.cif.g08.bks.cpg/sg15_74_cif.got.tgz:146218.got - 2010.06.03 18:47:42.
