data_PCOD9281017
_publ_section_title
;
Structure prediction by ZEFSAII (Michael W. Deem and Ramdas Pophale) SiO2 
 PCOD9281017
Probable space group: C 2/C
;
_chemical_formula_sum "Si O2"
_cell_formula_units_Z 48
_cell_length_a 17.757275
_cell_length_b 8.466448
_cell_length_c 25.783870
_cell_angle_alpha 90.000000
_cell_angle_beta 45.719998
_cell_angle_gamma 90.000000
_cell_volume 2775.237453
_symmetry_space_group_name_H-M "C 2/C"
_symmetry_group_IT_number 15
_symmetry_cell_setting 'monoclinic'
loop_
_space_group_symop_operation_xyz
x,y,z
-x,y,1/2-z
-x,-y,-z
x,-y,1/2+z
1/2+x,1/2+y,z
1/2-x,1/2+y,1/2-z
1/2-x,1/2-y,-z
1/2+x,1/2-y,1/2+z
loop_
_atom_site_type_symbol
_atom_site_label
_atom_site_fract_x
_atom_site_fract_y
_atom_site_fract_z
Si Si1 0.887244 0.084410 0.561990
Si Si2 0.466629 0.117818 0.968197
Si Si3 0.348119 0.778569 0.681704
Si Si4 0.263862 0.698480 0.077363
Si Si5 0.200576 0.624434 0.837837
Si Si6 0.588164 0.847943 0.578582
O O1 0.895539 0.242771 0.523738
O O2 0.864491 0.144850 0.630498
O O3 0.798288 0.962683 0.588056
O O4 0.000000 0.000000 0.500000
O O5 0.579235 0.181912 0.894890
O O6 0.412295 0.019064 0.948835
O O7 0.500000 0.000000 0.000000
O O8 0.271354 0.718030 0.763082
O O9 0.465853 0.811406 0.645760
O O10 0.305936 0.939846 0.674989
O O11 0.260229 0.834481 0.122938
O O12 0.157901 0.674002 0.095907
O O13 0.356513 0.739370 0.991831
#
# Coordination Sequence:
#
# PCOD9281017 Si02
#       6
#     8   8   8   8   8   8
#     4  12  19  34  62  89 110 149 197 243 275 345
#     4  11  18  38  59  83 115 150 189 243 284 334
#     4  11  22  37  60  83 113 153 197 236 288 342
#     4  11  21  35  59  85 115 147 193 231 287 343
#     4  11  21  36  57  86 112 152 192 239 284 342
#     4  10  21  38  56  83 116 154 183 232 292 340
#
# _framework density 17.295817
#
# number of rings (size 3 to 8) (size 9 to 14) (size 15 to 20)
#    0.000    1.000    8.333    1.000    0.000    1.333 
#    0.000    0.000    0.000    4.000    0.000    0.000 
#    0.000    0.000    0.000    0.000    0.000    0.000 
#
# Total GULP energy -133900.188626 kJ/mol
# GULP energy per Si atom -5579.174526 kJ/mol
# Density = 1.725645 g / cm^3
# Si number density = 17.295817 Si / 1000 Ang^3
#
#
#
# Elastic Constant Matrix: (Units=GPa)
#
#
# Indices 1 2 3 4 5 6 
#
# 1 118.8543 53.9698 40.7099 0.0000 7.1081 0.0003
# 2 53.9698 74.8569 28.5572 0.0001 -0.3075 0.0006
# 3 40.7099 28.5572 102.1239 0.0000 -5.3717 0.0000
# 4 0.0000 0.0001 0.0000 38.6267 0.0000 3.9434
# 5 7.1081 -0.3075 -5.3717 0.0000 18.5633 0.0000
# 6 0.0003 0.0006 0.0000 3.9434 0.0000 26.8452
#
#
#
# Elastic Compliance Matrix: (Units=1/GPa)
#
#
# Indices 1 2 3 4 5 6 
#
# 1 0.013974 -0.008783 -0.003456 0.000000 -0.006497 0.000000
# 2 -0.008783 0.020492 -0.002066 0.000000 0.003105 0.000000
# 3 -0.003456 -0.002066 0.011998 0.000000 0.004761 0.000000
# 4 0.000000 0.000000 0.000000 0.026283 0.000000 -0.003861
# 5 -0.006497 0.003105 0.004761 0.000000 0.057787 0.000000
# 6 0.000000 0.000000 0.000000 -0.003861 0.000000 0.037818
#
#
# Mechanical properties :
#
#
# Convention : Reuss Voigt Hill
#
# Bulk Modulus (GPa) = 56.01004 60.25655 58.13330
# Shear Modulus (GPa) = 24.64105 28.31357 26.47731
#
# Velocity S-wave (km/s) = 3.77859 4.05040 3.91685
# Velocity P-wave (km/s) = 7.17572 7.53583 7.35798
#
# Compressibility (1/GPa) = 0.01785394
#
# Stress axis : x y z
#
# Youngs Moduli (GPa) = 71.55953 48.79929 83.34818
#
# Poissons Ratio (x) = 0.42862 0.28807
# Poissons Ratio (y) = 0.62853 0.17217
# Poissons Ratio (z) = 0.24733 0.10080
#
# Static dielectric constant tensor:
#      x y z
#    x 1.568850 0.000000 0.004440 
#    y 0.000000 1.615140 0.000000 
#    z 0.004440 0.000000 1.593040 
# 
# From -- ./inp_files/208613.got.cif
#   From: 2010.05.17/outbox.cif.g08.bks.cpg/sg15_105_cif.got.tgz:208613.got - 2010.06.03 18:47:42.
