data_PCOD9281062
_publ_section_title
;
Structure prediction by ZEFSAII (Michael W. Deem and Ramdas Pophale) SiO2 
 PCOD9281062
Probable space group: C 2/C
;
_chemical_formula_sum "Si O2"
_cell_formula_units_Z 40
_cell_length_a 13.158086
_cell_length_b 15.298014
_cell_length_c 9.322796
_cell_angle_alpha 90.000000
_cell_angle_beta 119.540475
_cell_angle_gamma 90.000000
_cell_volume 1632.664735
_symmetry_space_group_name_H-M "C 2/C"
_symmetry_group_IT_number 15
_symmetry_cell_setting 'monoclinic'
loop_
_space_group_symop_operation_xyz
x,y,z
-x,y,1/2-z
-x,-y,-z
x,-y,1/2+z
1/2+x,1/2+y,z
1/2-x,1/2+y,1/2-z
1/2-x,1/2-y,-z
1/2+x,1/2-y,1/2+z
loop_
_atom_site_type_symbol
_atom_site_label
_atom_site_fract_x
_atom_site_fract_y
_atom_site_fract_z
Si Si1 0.591568 0.422255 0.561302
Si Si2 0.200653 0.831857 0.375405
Si Si3 0.330651 0.015065 0.826680
Si Si4 0.849218 0.616704 0.562296
Si Si5 0.893709 0.188431 0.015176
O O1 0.500000 0.500000 0.500000
O O2 0.612467 0.380850 0.420325
O O3 0.711442 0.464909 0.696554
O O4 0.524448 0.349109 0.606897
O O5 0.250000 0.750000 0.500000
O O6 0.147777 0.806952 0.182711
O O7 0.298051 0.905159 0.409434
O O8 0.381745 0.061574 0.724119
O O9 0.391456 0.937930 0.955052
O O10 0.889488 0.715576 0.577415
O O11 0.706728 0.628459 0.480827
#
# Coordination Sequence:
#
# PCOD9281062 Si02
#       5
#     8   8   8   8   8
#     4  12  21  37  63  98 122 160 212 269 315 362
#     4  11  22  37  58  94 128 169 206 260 321 380
#     4  11  21  38  64  91 130 166 215 260 320 382
#     4  10  21  38  57  93 126 173 200 262 322 386
#     4  10  22  36  58  90 136 160 210 263 325 375
#
# _framework density 24.499824
#
# number of rings (size 3 to 8) (size 9 to 14) (size 15 to 20)
#    0.000    1.200    6.000    1.800    0.000    2.400 
#    0.000    0.000    0.000    1.200    5.200    0.000 
#    0.000    0.000    0.000    0.000    0.000    0.000 
#
# Total GULP energy -111957.336787 kJ/mol
# GULP energy per Si atom -5597.866839 kJ/mol
# Density = 2.444406 g / cm^3
# Si number density = 24.499824 Si / 1000 Ang^3
#
#
#
# Elastic Constant Matrix: (Units=GPa)
#
#
# Indices 1 2 3 4 5 6 
#
# 1 89.2089 48.4307 30.8559 0.0000 -16.9512 0.0000
# 2 48.4307 142.9709 61.0929 0.0000 -14.8754 0.0000
# 3 30.8559 61.0929 103.6388 0.0000 -2.6465 0.0000
# 4 0.0000 0.0000 0.0000 52.1215 0.0000 -21.9501
# 5 -16.9512 -14.8754 -2.6465 0.0000 46.2458 0.0000
# 6 0.0000 0.0000 0.0000 -21.9501 0.0000 40.5512
#
#
#
# Elastic Compliance Matrix: (Units=1/GPa)
#
#
# Indices 1 2 3 4 5 6 
#
# 1 0.014702 -0.003647 -0.002123 0.000000 0.004094 0.000000
# 2 -0.003647 0.010602 -0.005119 0.000000 0.001781 0.000000
# 3 -0.002123 -0.005119 0.013256 0.000000 -0.001666 0.000000
# 4 0.000000 0.000000 0.000000 0.024851 0.000000 0.013452
# 5 0.004094 0.001781 -0.001666 0.000000 0.023602 0.000000
# 6 0.000000 0.000000 0.000000 0.013452 0.000000 0.031942
#
#
# Mechanical properties :
#
#
# Convention : Reuss Voigt Hill
#
# Bulk Modulus (GPa) = 59.58379 68.50863 64.04621
# Shear Modulus (GPa) = 34.17054 40.81297 37.49176
#
# Velocity S-wave (km/s) = 3.73865 4.08591 3.91613
# Velocity P-wave (km/s) = 6.55817 7.09106 6.82981
#
# Compressibility (1/GPa) = 0.01678309
#
# Stress axis : x y z
#
# Youngs Moduli (GPa) = 68.01889 94.31874 75.43990
#
# Poissons Ratio (x) = 0.34399 0.16013
# Poissons Ratio (y) = 0.24808 0.38614
# Poissons Ratio (z) = 0.14438 0.48277
#
# Static dielectric constant tensor:
#      x y z
#    x 1.987110 0.000000 0.047700 
#    y 0.000000 1.927180 0.000000 
#    z 0.047700 0.000000 2.055710 
# 
# From -- ./inp_files/37820.got.cif
#   From: 2010.05.17/outbox.cif.g08.bks.cpg/sg15_19_cif.got.tgz:37820.got - 2010.06.03 18:47:42.
