data_PCOD9281502
_publ_section_title
;
Structure prediction by ZEFSAII (Michael W. Deem and Ramdas Pophale) SiO2 
 PCOD9281502
Probable space group: C 2/C
;
_chemical_formula_sum "Si O2"
_cell_formula_units_Z 64
_cell_length_a 16.799889
_cell_length_b 8.865948
_cell_length_c 22.248906
_cell_angle_alpha 90.000000
_cell_angle_beta 97.812480
_cell_angle_gamma 90.000000
_cell_volume 3283.147685
_symmetry_space_group_name_H-M "C 2/C"
_symmetry_group_IT_number 15
_symmetry_cell_setting 'monoclinic'
loop_
_space_group_symop_operation_xyz
x,y,z
-x,y,1/2-z
-x,-y,-z
x,-y,1/2+z
1/2+x,1/2+y,z
1/2-x,1/2+y,1/2-z
1/2-x,1/2-y,-z
1/2+x,1/2-y,1/2+z
loop_
_atom_site_type_symbol
_atom_site_label
_atom_site_fract_x
_atom_site_fract_y
_atom_site_fract_z
Si Si1 0.418628 0.370305 0.764829
Si Si2 0.186105 0.307340 0.153112
Si Si3 0.738885 0.386185 0.545767
Si Si4 0.600333 0.081975 0.956558
Si Si5 0.933097 0.564887 0.405111
Si Si6 0.990682 0.186820 0.817761
Si Si7 0.816251 0.133454 0.034035
Si Si8 0.840629 0.041550 0.653600
O O1 0.500000 0.293469 0.750000
O O2 0.364647 0.273314 0.801803
O O3 0.445401 0.527297 0.800405
O O4 0.370606 0.412712 0.700466
O O5 0.208309 0.189557 0.102969
O O6 0.131870 0.446382 0.125428
O O7 0.273001 0.366322 0.181704
O O8 0.750000 0.250000 0.500000
O O9 0.823719 0.477182 0.554389
O O10 0.673850 0.508415 0.516192
O O11 0.520113 0.013011 0.921078
O O12 0.613447 0.254968 0.938907
O O13 0.592857 0.096107 0.028443
O O14 0.945885 0.705099 0.360629
O O15 0.000000 0.251429 0.750000
O O16 0.080266 0.143154 0.850997
O O17 0.799616 0.030652 0.090547
O O18 0.750000 0.250000 0.000000
#
# Coordination Sequence:
#
# PCOD9281502 Si02
#       8
#     8   8   8   8   8   8   8   8
#     4   9  24  45  64  90 123 168 212 256 312 373
#     4  12  23  39  66  95 121 163 210 257 309 368
#     4  11  20  40  62  89 126 160 202 253 311 373
#     4  10  23  39  56  95 128 165 204 253 320 373
#     4  11  23  38  61  92 131 159 211 262 308 373
#     4   9  22  44  65  86 124 171 210 256 317 370
#     4  10  21  38  62  90 123 165 203 254 312 367
#     4  10  21  43  66  87 128 162 210 258 313 371
#
# _framework density 19.493489
#
# number of rings (size 3 to 8) (size 9 to 14) (size 15 to 20)
#    0.000    2.000    2.500    1.500    5.250    2.500 
#    4.500    1.250    0.000    0.000    0.000    0.000 
#    0.000    0.000    0.000    0.000    0.000    0.000 
#
# Total GULP energy -178323.956729 kJ/mol
# GULP energy per Si atom -5572.623648 kJ/mol
# Density = 1.944912 g / cm^3
# Si number density = 19.493489 Si / 1000 Ang^3
#
#
#
# Elastic Constant Matrix: (Units=GPa)
#
#
# Indices 1 2 3 4 5 6 
#
# 1 88.0037 26.6311 29.8095 0.0000 -9.4173 0.0000
# 2 26.6311 52.9301 6.3809 0.0000 -5.1646 0.0000
# 3 29.8095 6.3809 59.7982 0.0000 -9.0724 0.0000
# 4 0.0000 0.0000 0.0000 27.5988 0.0000 -17.8112
# 5 -9.4173 -5.1646 -9.0724 0.0000 30.1543 0.0000
# 6 0.0000 0.0000 0.0000 -17.8112 0.0000 23.8501
#
#
#
# Elastic Compliance Matrix: (Units=1/GPa)
#
#
# Indices 1 2 3 4 5 6 
#
# 1 0.016051 -0.007068 -0.006990 0.000000 0.001699 0.000000
# 2 -0.007068 0.022478 0.001440 0.000000 0.002076 0.000000
# 3 -0.006990 0.001440 0.020705 0.000000 0.004293 0.000000
# 4 0.000000 0.000000 0.000000 0.069943 0.000000 0.052233
# 5 0.001699 0.002076 0.004293 0.000000 0.035341 0.000000
# 6 0.000000 0.000000 0.000000 0.052233 0.000000 0.080937
#
#
# Mechanical properties :
#
#
# Convention : Reuss Voigt Hill
#
# Bulk Modulus (GPa) = 29.41273 36.26388 32.83830
# Shear Modulus (GPa) = 17.72907 25.51466 21.62186
#
# Velocity S-wave (km/s) = 3.01904 3.62177 3.33405
# Velocity P-wave (km/s) = 5.22246 6.01108 5.63059
#
# Compressibility (1/GPa) = 0.03399888
#
# Stress axis : x y z
#
# Youngs Moduli (GPa) = 62.29997 44.48830 48.29756
#
# Poissons Ratio (x) = 0.31443 0.33758
# Poissons Ratio (y) = 0.44031 -0.06953
# Poissons Ratio (z) = 0.43545 -0.06405
#
# Static dielectric constant tensor:
#      x y z
#    x 1.725190 0.000000 0.015410 
#    y 0.000000 1.714010 0.000000 
#    z 0.015410 0.000000 1.728700 
# 
# From -- ./inp_files/247475.got.cif
#   From: 2010.05.17/outbox.cif.g08.bks.cpg/sg15_124_cif.got.tgz:247475.got - 2010.06.03 18:47:42.
