data_PCOD9281987
_publ_section_title
;
Structure prediction by ZEFSAII (Michael W. Deem and Ramdas Pophale) SiO2 
 PCOD9281987
Probable space group: C 2/C
;
_chemical_formula_sum "Si O2"
_cell_formula_units_Z 60
_cell_length_a 15.585727
_cell_length_b 12.543468
_cell_length_c 14.851054
_cell_angle_alpha 90.000000
_cell_angle_beta 58.770747
_cell_angle_gamma 90.000000
_cell_volume 2482.668330
_symmetry_space_group_name_H-M "C 2/C"
_symmetry_group_IT_number 15
_symmetry_cell_setting 'monoclinic'
loop_
_space_group_symop_operation_xyz
x,y,z
-x,y,1/2-z
-x,-y,-z
x,-y,1/2+z
1/2+x,1/2+y,z
1/2-x,1/2+y,1/2-z
1/2-x,1/2-y,-z
1/2+x,1/2-y,1/2+z
loop_
_atom_site_type_symbol
_atom_site_label
_atom_site_fract_x
_atom_site_fract_y
_atom_site_fract_z
Si Si1 0.801318 0.947819 0.092732
Si Si2 0.089842 0.768123 0.105643
Si Si3 0.135884 0.746739 0.347452
Si Si4 0.000000 0.418208 0.750000
Si Si5 0.125729 0.496157 0.828367
Si Si6 0.576912 0.412871 0.840091
Si Si7 0.367131 0.505445 0.375717
Si Si8 0.168584 0.715300 0.876418
O O1 0.834118 0.825523 0.088348
O O2 0.707788 0.976919 0.206597
O O3 0.888394 0.019167 0.092358
O O4 0.785503 0.974972 0.997230
O O5 0.976350 0.773915 0.125645
O O6 0.086347 0.665296 0.172079
O O7 0.111780 0.879795 0.140927
O O8 0.162457 0.753828 0.981627
O O9 0.138310 0.620697 0.363421
O O10 0.222832 0.771776 0.227369
O O11 0.025997 0.486381 0.822651
O O12 0.131585 0.594126 0.892310
O O13 0.644782 0.447992 0.717241
O O14 0.466152 0.440633 0.866482
O O15 0.596530 0.291318 0.856144
#
# Coordination Sequence:
#
# PCOD9281987 Si02
#       8
#     8   8   8   4   8   8   8   8
#     4  11  20  41  64  91 128 160 205 271 317 374
#     4  11  21  41  65  92 127 164 215 263 319 368
#     4  10  21  38  67  90 120 170 214 256 309 377
#     4  10  24  40  58  92 128 168 214 266 296 388
#     4  10  23  43  62  88 128 168 212 258 311 374
#     4  11  21  37  62  95 129 157 201 264 319 381
#     4  11  22  36  64 102 122 160 209 267 334 361
#     4  11  23  42  66  90 127 175 209 253 322 385
#
# _framework density 24.167545
#
# number of rings (size 3 to 8) (size 9 to 14) (size 15 to 20)
#    0.000    1.333    4.000    2.000    1.867    3.200 
#    4.800    8.667    0.000    0.000    0.000    0.000 
#    0.000    0.000    0.000    0.000    0.000    0.000 
#
# Total GULP energy -167971.586314 kJ/mol
# GULP energy per Si atom -5599.052877 kJ/mol
# Density = 2.411254 g / cm^3
# Si number density = 24.167545 Si / 1000 Ang^3
#
#
#
# Elastic Constant Matrix: (Units=GPa)
#
#
# Indices 1 2 3 4 5 6 
#
# 1 53.0799 24.8203 -7.6703 0.0000 6.0180 0.0000
# 2 24.8203 173.6301 12.0910 0.0000 20.1536 0.0000
# 3 -7.6703 12.0910 108.6144 0.0000 11.5971 0.0000
# 4 0.0000 0.0000 0.0000 22.4926 0.0000 -1.7428
# 5 6.0180 20.1536 11.5971 0.0000 24.9449 0.0000
# 6 0.0000 0.0000 0.0000 -1.7428 0.0000 29.7299
#
#
#
# Elastic Compliance Matrix: (Units=1/GPa)
#
#
# Indices 1 2 3 4 5 6 
#
# 1 0.020849 -0.002682 0.002185 0.000000 -0.003879 0.000000
# 2 -0.002682 0.006703 -0.000449 0.000000 -0.004560 0.000000
# 3 0.002185 -0.000449 0.009921 0.000000 -0.004777 0.000000
# 4 0.000000 0.000000 0.000000 0.044662 0.000000 0.002618
# 5 -0.003879 -0.004560 -0.004777 0.000000 0.046929 0.000000
# 6 0.000000 0.000000 0.000000 0.002618 0.000000 0.033790
#
#
# Mechanical properties :
#
#
# Convention : Reuss Voigt Hill
#
# Bulk Modulus (GPa) = 28.10420 43.75626 35.93023
# Shear Modulus (GPa) = 28.31140 35.83905 32.07523
#
# Velocity S-wave (km/s) = 3.42638 3.85508 3.64703
# Velocity P-wave (km/s) = 5.22566 6.16118 5.71261
#
# Compressibility (1/GPa) = 0.03558187
#
# Stress axis : x y z
#
# Youngs Moduli (GPa) = 47.96324 149.17903 100.79416
#
# Poissons Ratio (x) = 0.40015 -0.22025
# Poissons Ratio (y) = 0.12865 0.04523
# Poissons Ratio (z) = -0.10480 0.06694
#
# Static dielectric constant tensor:
#      x y z
#    x 1.962830 0.000000 -0.055850 
#    y 0.000000 1.891580 0.000000 
#    z -0.055850 0.000000 1.966910 
# 
# From -- ./inp_files/167587.got.cif
#   From: 2010.05.17/outbox.cif.g08.bks.cpg/sg15_84_cif.got.tgz:167587.got - 2010.06.03 18:47:42.
