data_PCOD9281269
_publ_section_title
;
Structure prediction by ZEFSAII (Michael W. Deem and Ramdas Pophale) SiO2 
 PCOD9281269
Probable space group: C 2/C
;
_chemical_formula_sum "Si O2"
_cell_formula_units_Z 48
_cell_length_a 24.837601
_cell_length_b 21.336215
_cell_length_c 14.222787
_cell_angle_alpha 90.000000
_cell_angle_beta 161.958462
_cell_angle_gamma 90.000000
_cell_volume 2334.328210
_symmetry_space_group_name_H-M "C 2/C"
_symmetry_group_IT_number 15
_symmetry_cell_setting 'monoclinic'
loop_
_space_group_symop_operation_xyz
x,y,z
-x,y,1/2-z
-x,-y,-z
x,-y,1/2+z
1/2+x,1/2+y,z
1/2-x,1/2+y,1/2-z
1/2-x,1/2-y,-z
1/2+x,1/2-y,1/2+z
loop_
_atom_site_type_symbol
_atom_site_label
_atom_site_fract_x
_atom_site_fract_y
_atom_site_fract_z
Si Si1 0.163625 0.872821 0.574689
Si Si2 0.974882 0.186864 0.934992
Si Si3 0.749490 0.008012 0.177922
Si Si4 0.623910 0.822611 0.742554
Si Si5 0.890753 0.933223 0.727171
Si Si6 0.594082 0.052980 0.591669
O O1 0.268228 0.834133 0.673069
O O2 0.081939 0.831226 0.520103
O O3 0.271576 0.927387 0.800366
O O4 0.000000 0.903856 0.250000
O O5 0.768808 0.181925 0.566373
O O6 0.992018 0.261631 0.972097
O O7 0.041691 0.134759 0.121045
O O8 0.622269 0.965255 0.029397
O O9 0.938713 0.975716 0.501637
O O10 0.764535 0.032274 0.095078
O O11 0.515825 0.884132 0.583998
O O12 0.779695 0.932517 0.448254
O O13 0.500000 0.000000 0.500000
#
# Coordination Sequence:
#
# PCOD9281269 Si02
#       6
#     8   8   8   8   8   8
#     4   9  16  33  58  79 116 164 194 239 301 365
#     4   9  21  40  60  83 118 169 208 235 306 375
#     4  10  21  39  62  86 127 161 201 242 314 374
#     4  10  21  38  60  89 122 155 208 261 294 356
#     4  10  23  40  63  88 119 172 205 242 308 380
#     4  12  24  37  61  96 125 150 202 267 307 347
#
# _framework density 20.562660000000001
#
# number of rings (size 3 to 8) (size 9 to 14) (size 15 to 20)
#    0.000    2.000    1.667    1.500    7.000    2.667 
#    0.000    1.667    0.000    0.000    0.000    0.000 
#    0.000    0.000    0.000    0.000    0.000    0.000 
#
# Total GULP energy -133703.096750 kJ/mol
# GULP energy per Si atom -5570.962365 kJ/mol
# Density = 2.051586 g / cm^3
# Si number density = 20.562660 Si / 1000 Ang^3
#
#
#
# Elastic Constant Matrix: (Units=GPa)
#
#
# Indices 1 2 3 4 5 6 
#
# 1 69.0753 25.9016 17.8733 0.0000 -13.1184 0.0000
# 2 25.9016 127.6043 31.8167 0.0000 -2.5111 0.0000
# 3 17.8733 31.8167 46.2998 0.0000 -9.0066 0.0000
# 4 0.0000 0.0000 0.0000 -10.3640 0.0000 16.6633
# 5 -13.1184 -2.5111 -9.0066 0.0000 22.3462 0.0000
# 6 0.0000 0.0000 0.0000 16.6633 0.0000 -14.3779
#
#
#
# Elastic Compliance Matrix: (Units=1/GPa)
#
#
# Indices 1 2 3 4 5 6 
#
# 1 0.018043 -0.002634 -0.003420 0.000000 0.008918 0.000000
# 2 -0.002634 0.009901 -0.006371 0.000000 -0.003002 0.000000
# 3 -0.003420 -0.006371 0.029044 0.000000 0.008982 0.000000
# 4 0.000000 0.000000 0.000000 0.111757 0.000000 0.129522
# 5 0.008918 -0.003002 0.008982 0.000000 0.053268 0.000000
# 6 0.000000 0.000000 0.000000 0.129522 0.000000 0.080558
#
#
# Mechanical properties :
#
#
# Convention : Reuss Voigt Hill
#
# Bulk Modulus (GPa) = 31.11630 43.79585 37.45607
# Shear Modulus (GPa) = 14.78699 10.68006 12.73352
#
# Velocity S-wave (km/s) = 2.68455 2.28149 2.49118
# Velocity P-wave (km/s) = 4.97738 5.31838 5.15071
#
# Compressibility (1/GPa) = 0.03213750
#
# Stress axis : x y z
#
# Youngs Moduli (GPa) = 55.42203 101.00170 34.43060
#
# Poissons Ratio (x) = 0.26606 0.11777
# Poissons Ratio (y) = 0.14599 0.21935
# Poissons Ratio (z) = 0.18957 0.64345
#
# Static dielectric constant tensor:
#      x y z
#    x 1.729060 0.000000 0.001160 
#    y 0.000000 1.776310 0.000000 
#    z 0.001160 0.000000 1.756490 
# 
# From -- ./inp_files/174530.got.cif
#   From: 2010.05.17/outbox.cif.g08.bks.cpg/sg15_88_cif.got.tgz:174530.got - 2010.06.03 18:47:42.
