data_PCOD9281469
_publ_section_title
;
Structure prediction by ZEFSAII (Michael W. Deem and Ramdas Pophale) SiO2 
 PCOD9281469
Probable space group: C 2/C
;
_chemical_formula_sum "Si O2"
_cell_formula_units_Z 56
_cell_length_a 11.237598
_cell_length_b 34.028152
_cell_length_c 8.404504
_cell_angle_alpha 90.000000
_cell_angle_beta 114.747389
_cell_angle_gamma 90.000000
_cell_volume 2918.686105
_symmetry_space_group_name_H-M "C 2/C"
_symmetry_group_IT_number 15
_symmetry_cell_setting 'monoclinic'
loop_
_space_group_symop_operation_xyz
x,y,z
-x,y,1/2-z
-x,-y,-z
x,-y,1/2+z
1/2+x,1/2+y,z
1/2-x,1/2+y,1/2-z
1/2-x,1/2-y,-z
1/2+x,1/2-y,1/2+z
loop_
_atom_site_type_symbol
_atom_site_label
_atom_site_fract_x
_atom_site_fract_y
_atom_site_fract_z
Si Si1 0.357557 0.897550 0.337537
Si Si2 0.637793 0.556354 0.870672
Si Si3 0.107578 0.688528 0.540308
Si Si4 0.866341 0.027851 0.272099
Si Si5 0.317523 0.173096 0.280956
Si Si6 0.153598 0.757888 0.796599
Si Si7 0.841988 0.589200 0.462828
O O1 0.255549 0.914058 0.407585
O O2 0.371031 0.850702 0.346652
O O3 0.500606 0.915010 0.457734
O O4 0.313970 0.907245 0.134846
O O5 0.500000 0.575995 0.750000
O O6 0.656935 0.518363 0.768389
O O7 0.622560 0.538816 0.037566
O O8 0.162911 0.677884 0.397065
O O9 0.170018 0.725498 0.665279
O O10 0.950397 0.692044 0.430290
O O11 0.000000 0.037633 0.250000
O O12 0.743484 0.053028 0.143883
O O13 0.194393 0.199099 0.260407
O O14 0.309780 0.128781 0.344170
O O15 0.000000 0.756074 0.750000
O O16 0.250000 0.750000 0.000000
#
# Coordination Sequence:
#
# PCOD9281469 Si02
#       7
#     8   8   8   8   8   8   8
#     4  10  21  38  62  88 118 160 200 248 301 360
#     4  11  22  39  61  87 120 157 202 246 302 359
#     4  10  21  39  62  85 120 156 201 249 306 359
#     4  11  22  38  61  86 121 160 197 249 303 356
#     4  10  21  39  61  88 119 159 198 249 303 365
#     4  12  23  39  62  88 120 158 203 250 305 365
#     4  10  21  38  62  89 121 157 202 245 302 361
#
# _framework density 19.186716000000001
#
# number of rings (size 3 to 8) (size 9 to 14) (size 15 to 20)
#    0.000    1.429    1.429    5.571    2.000    2.857 
#    0.000    4.286    0.000    0.000    0.000    0.000 
#    0.000    0.000    0.000    0.000    0.000    0.000 
#
# Total GULP energy -156319.806681 kJ/mol
# GULP energy per Si atom -5582.850239 kJ/mol
# Density = 1.914305 g / cm^3
# Si number density = 19.186716 Si / 1000 Ang^3
#
#
#
# Elastic Constant Matrix: (Units=GPa)
#
#
# Indices 1 2 3 4 5 6 
#
# 1 67.6414 22.5110 15.4836 0.0000 -6.1179 0.0000
# 2 22.5110 45.3655 15.9317 0.0000 9.0434 0.0000
# 3 15.4836 15.9317 80.8221 0.0000 1.5970 0.0000
# 4 0.0000 0.0000 0.0000 14.5152 0.0000 -13.4159
# 5 -6.1179 9.0434 1.5970 0.0000 21.7500 0.0000
# 6 0.0000 0.0000 0.0000 -13.4159 0.0000 28.6801
#
#
#
# Elastic Compliance Matrix: (Units=1/GPa)
#
#
# Indices 1 2 3 4 5 6 
#
# 1 0.019909 -0.011334 -0.001786 0.000000 0.010444 0.000000
# 2 -0.011334 0.032281 -0.003869 0.000000 -0.016326 0.000000
# 3 -0.001786 -0.003869 0.013475 0.000000 0.000117 0.000000
# 4 0.000000 0.000000 0.000000 0.121366 0.000000 0.056772
# 5 0.010444 -0.016326 0.000117 0.000000 0.055694 0.000000
# 6 0.000000 0.000000 0.000000 0.056772 0.000000 0.061424
#
#
# Mechanical properties :
#
#
# Convention : Reuss Voigt Hill
#
# Bulk Modulus (GPa) = 31.55938 33.52016 32.53977
# Shear Modulus (GPa) = 14.33936 22.31590 18.32763
#
# Velocity S-wave (km/s) = 2.73675 3.41411 3.09402
# Velocity P-wave (km/s) = 5.14497 5.74891 5.45530
#
# Compressibility (1/GPa) = 0.03168630
#
# Stress axis : x y z
#
# Youngs Moduli (GPa) = 50.22783 30.97841 74.20890
#
# Poissons Ratio (x) = 0.35111 0.13256
# Poissons Ratio (y) = 0.56928 0.28713
# Poissons Ratio (z) = 0.08973 0.11986
#
# Static dielectric constant tensor:
#      x y z
#    x 1.670890 0.000000 -0.019950 
#    y 0.000000 1.643510 0.000000 
#    z -0.019950 0.000000 1.696850 
# 
# From -- ./inp_files/35768.got.cif
#   From: 2010.05.17/outbox.cif.g08.bks.cpg/sg15_18_cif.got.tgz:35768.got - 2010.06.03 18:47:42.
