data_PCOD9281952
_publ_section_title
;
Structure prediction by ZEFSAII (Michael W. Deem and Ramdas Pophale) SiO2 
 PCOD9281952
Probable space group: C 2/C
;
_chemical_formula_sum "Si O2"
_cell_formula_units_Z 48
_cell_length_a 18.077641
_cell_length_b 12.116043
_cell_length_c 23.607755
_cell_angle_alpha 90.000000
_cell_angle_beta 154.188487
_cell_angle_gamma 90.000000
_cell_volume 2251.425846
_symmetry_space_group_name_H-M "C 2/C"
_symmetry_group_IT_number 15
_symmetry_cell_setting 'monoclinic'
loop_
_space_group_symop_operation_xyz
x,y,z
-x,y,1/2-z
-x,-y,-z
x,-y,1/2+z
1/2+x,1/2+y,z
1/2-x,1/2+y,1/2-z
1/2-x,1/2-y,-z
1/2+x,1/2-y,1/2+z
loop_
_atom_site_type_symbol
_atom_site_label
_atom_site_fract_x
_atom_site_fract_y
_atom_site_fract_z
Si Si1 0.680274 0.045261 0.144431
Si Si2 0.186471 0.433221 0.887487
Si Si3 0.608482 0.709776 0.564260
Si Si4 0.270154 0.860407 0.701555
Si Si5 0.555986 0.358240 0.158580
Si Si6 0.321631 0.823327 0.100956
O O1 0.689392 0.168316 0.125600
O O2 0.676934 0.067984 0.208847
O O3 0.833311 0.959280 0.240041
O O4 0.500000 0.000000 0.000000
O O5 0.243225 0.440169 0.860907
O O6 0.153992 0.547614 0.898172
O O7 0.000000 0.380849 0.750000
O O8 0.354707 0.376302 0.027872
O O9 0.408918 0.701396 0.412933
O O10 0.611317 0.655824 0.629624
O O11 0.695694 0.666873 0.567466
O O12 0.397108 0.758531 0.782013
O O13 0.500000 0.781876 0.250000
O O14 0.250000 0.750000 0.000000
#
# Coordination Sequence:
#
# PCOD9281952 Si02
#       6
#     8   8   8   8   8   8
#     4  11  21  34  62  94 126 155 208 266 315 368
#     4  10  23  43  64  87 126 170 211 258 316 385
#     4  10  22  40  64  92 126 165 208 265 313 382
#     4  10  21  39  66  93 123 164 211 261 319 373
#     4  10  21  38  66  95 125 163 213 260 319 374
#     4  11  26  41  63  92 130 172 214 258 326 387
#
# _framework density 21.319823
#
# number of rings (size 3 to 8) (size 9 to 14) (size 15 to 20)
#    0.000    1.667    1.667    2.000    7.000    6.000 
#    0.000    0.000    3.667    0.000    0.000    0.000 
#    0.000    0.000    0.000    0.000    0.000    0.000 
#
# Total GULP energy -133664.297709 kJ/mol
# GULP energy per Si atom -5569.345738 kJ/mol
# Density = 2.127130 g / cm^3
# Si number density = 21.319823 Si / 1000 Ang^3
#
#
#
# Elastic Constant Matrix: (Units=GPa)
#
#
# Indices 1 2 3 4 5 6 
#
# 1 42.7990 24.3717 23.8492 0.0050 2.4425 0.0003
# 2 24.3717 98.3809 64.1868 0.0094 -4.4362 0.0001
# 3 23.8492 64.1868 157.2654 0.0151 4.8162 0.0004
# 4 0.0050 0.0094 0.0151 -18.6163 -0.0005 0.7646
# 5 2.4425 -4.4362 4.8162 -0.0005 29.1799 -0.0004
# 6 0.0003 0.0001 0.0004 0.7646 -0.0004 16.5908
#
#
#
# Elastic Compliance Matrix: (Units=1/GPa)
#
#
# Indices 1 2 3 4 5 6 
#
# 1 0.027859 -0.005911 -0.001722 0.000003 -0.002946 -0.000001
# 2 -0.005911 0.015384 -0.005497 0.000002 0.003741 0.000000
# 3 -0.001722 -0.005497 0.008930 0.000004 -0.002165 0.000000
# 4 0.000003 0.000002 0.000004 -0.053615 -0.000002 0.002471
# 5 -0.002946 0.003741 -0.002165 -0.000002 0.035443 0.000001
# 6 -0.000001 0.000000 0.000000 0.002471 0.000001 0.060160
#
#
# Mechanical properties :
#
#
# Convention : Reuss Voigt Hill
#
# Bulk Modulus (GPa) = 38.59123 58.14008 48.36566
# Shear Modulus (GPa) = 38.74231 17.83338 28.28785
#
# Velocity S-wave (km/s) = 4.26748 2.89532 3.64652
# Velocity P-wave (km/s) = 6.51324 6.20538 6.36117
#
# Compressibility (1/GPa) = 0.02591262
#
# Stress axis : x y z
#
# Youngs Moduli (GPa) = 35.89556 65.00285 111.98529
#
# Poissons Ratio (x) = 0.38421 0.19285
# Poissons Ratio (y) = 0.21217 0.61559
# Poissons Ratio (z) = 0.06182 0.35733
#
# Static dielectric constant tensor:
#      x y z
#    x 1.781020 0.000000 0.006940 
#    y 0.000000 1.824270 0.000000 
#    z 0.006940 0.000000 1.778290 
# 
# From -- ./inp_files/300962.got.cif
#   From: 2010.05.17/outbox.cif.g08.bks.cpg/sg15_151_cif.got.tgz:300962.got - 2010.06.03 18:47:42.
