data_PCOD9281539
_publ_section_title
;
Structure prediction by ZEFSAII (Michael W. Deem and Ramdas Pophale) SiO2 
 PCOD9281539
Probable space group: C 2/C
;
_chemical_formula_sum "Si O2"
_cell_formula_units_Z 56
_cell_length_a 22.121175
_cell_length_b 11.147249
_cell_length_c 16.152414
_cell_angle_alpha 90.000000
_cell_angle_beta 40.654792
_cell_angle_gamma 90.000000
_cell_volume 2594.942618
_symmetry_space_group_name_H-M "C 2/C"
_symmetry_group_IT_number 15
_symmetry_cell_setting 'monoclinic'
loop_
_space_group_symop_operation_xyz
x,y,z
-x,y,1/2-z
-x,-y,-z
x,-y,1/2+z
1/2+x,1/2+y,z
1/2-x,1/2+y,1/2-z
1/2-x,1/2-y,-z
1/2+x,1/2-y,1/2+z
loop_
_atom_site_type_symbol
_atom_site_label
_atom_site_fract_x
_atom_site_fract_y
_atom_site_fract_z
Si Si1 0.912480 0.210802 0.025161
Si Si2 0.766368 0.971777 0.685998
Si Si3 0.335759 0.170460 0.438900
Si Si4 0.412912 0.159964 0.183350
Si Si5 0.498018 0.072376 0.656821
Si Si6 0.823421 0.704608 0.788948
Si Si7 0.707573 0.933120 0.928522
O O1 0.869038 0.078294 0.061876
O O2 0.859390 0.260538 0.160245
O O3 0.881881 0.283140 0.975169
O O4 0.021738 0.237949 0.922704
O O5 0.689804 0.867607 0.744091
O O6 0.749304 0.992103 0.801461
O O7 0.739436 0.086945 0.659907
O O8 0.250000 0.250000 0.500000
O O9 0.402232 0.183374 0.291722
O O10 0.300425 0.035467 0.493637
O O11 0.466271 0.032412 0.127207
O O12 0.500000 0.029833 0.750000
O O13 0.417005 0.170081 0.739390
O O14 0.601374 0.108294 0.523945
O O15 0.768971 0.816856 0.883060
#
# Coordination Sequence:
#
# PCOD9281539 Si02
#       7
#     8   8   8   8   8   8   8
#     4  11  20  37  62  91 123 161 209 262 314 363
#     4  10  21  38  62  93 126 162 211 260 314 378
#     4  12  22  38  61  94 127 160 209 263 317 364
#     4  11  20  36  63  93 120 163 215 265 305 366
#     4  11  20  37  60  89 119 164 217 259 304 372
#     4  10  23  39  62  93 124 168 211 254 317 382
#     4  11  22  40  63  90 130 164 208 264 312 370
#
# _framework density 21.580438999999998
#
# number of rings (size 3 to 8) (size 9 to 14) (size 15 to 20)
#    0.000    1.143    5.714    1.286    0.000    2.857 
#    0.000    1.429    0.000    5.143    0.000    0.000 
#    0.000    0.000    0.000    0.000    0.000    0.000 
#
# Total GULP energy -156407.450999 kJ/mol
# GULP energy per Si atom -5585.980393 kJ/mol
# Density = 2.153132 g / cm^3
# Si number density = 21.580439 Si / 1000 Ang^3
#
#
#
# Elastic Constant Matrix: (Units=GPa)
#
#
# Indices 1 2 3 4 5 6 
#
# 1 38.3251 7.3181 -2.7889 0.0000 -9.5452 0.0000
# 2 7.3181 80.2431 38.6144 0.0000 -24.5297 0.0000
# 3 -2.7889 38.6144 88.8105 0.0000 -9.1880 0.0000
# 4 0.0000 0.0000 0.0000 30.9970 0.0000 -11.3930
# 5 -9.5452 -24.5297 -9.1880 0.0000 37.3104 0.0000
# 6 0.0000 0.0000 0.0000 -11.3930 0.0000 31.9411
#
#
#
# Elastic Compliance Matrix: (Units=1/GPa)
#
#
# Indices 1 2 3 4 5 6 
#
# 1 0.028243 -0.001621 0.002287 0.000000 0.006723 0.000000
# 2 -0.001621 0.019377 -0.007389 0.000000 0.010505 0.000000
# 3 0.002287 -0.007389 0.014471 0.000000 -0.000709 0.000000
# 4 0.000000 0.000000 0.000000 0.037129 0.000000 0.013243
# 5 0.006723 0.010505 -0.000709 0.000000 0.035254 0.000000
# 6 0.000000 0.000000 0.000000 0.013243 0.000000 0.036031
#
#
# Mechanical properties :
#
#
# Convention : Reuss Voigt Hill
#
# Bulk Modulus (GPa) = 20.55712 32.62955 26.59333
# Shear Modulus (GPa) = 24.97918 30.99870 27.98894
#
# Velocity S-wave (km/s) = 3.40588 3.79413 3.60524
# Velocity P-wave (km/s) = 5.00132 5.86061 5.44793
#
# Compressibility (1/GPa) = 0.04864495
#
# Stress axis : x y z
#
# Youngs Moduli (GPa) = 35.40704 51.60733 69.10294
#
# Poissons Ratio (x) = 0.08367 -0.15806
# Poissons Ratio (y) = 0.05741 0.51061
# Poissons Ratio (z) = -0.08099 0.38134
#
# Static dielectric constant tensor:
#      x y z
#    x 1.830470 0.000000 0.000500 
#    y 0.000000 1.819360 0.000000 
#    z 0.000500 0.000000 1.806890 
# 
# From -- ./inp_files/219069.got.cif
#   From: 2010.05.17/outbox.cif.g08.bks.cpg/sg15_110_cif.got.tgz:219069.got - 2010.06.03 18:47:42.
