data_PCOD9281344
_publ_section_title
;
Structure prediction by ZEFSAII (Michael W. Deem and Ramdas Pophale) SiO2 
 PCOD9281344
Probable space group: C 2/C
;
_chemical_formula_sum "Si O2"
_cell_formula_units_Z 48
_cell_length_a 12.913221
_cell_length_b 12.888811
_cell_length_c 16.876675
_cell_angle_alpha 90.000000
_cell_angle_beta 112.296928
_cell_angle_gamma 90.000000
_cell_volume 2598.867041
_symmetry_space_group_name_H-M "C 2/C"
_symmetry_group_IT_number 15
_symmetry_cell_setting 'monoclinic'
loop_
_space_group_symop_operation_xyz
x,y,z
-x,y,1/2-z
-x,-y,-z
x,-y,1/2+z
1/2+x,1/2+y,z
1/2-x,1/2+y,1/2-z
1/2-x,1/2-y,-z
1/2+x,1/2-y,1/2+z
loop_
_atom_site_type_symbol
_atom_site_label
_atom_site_fract_x
_atom_site_fract_y
_atom_site_fract_z
Si Si1 0.074406 0.206802 0.410035
Si Si2 0.500000 0.448277 0.750000
Si Si3 0.252266 0.620491 0.913666
Si Si4 0.325752 0.110284 0.079457
Si Si5 0.845111 0.712665 0.916947
Si Si6 0.332327 0.374811 0.256970
Si Si7 0.000000 0.701078 0.250000
O O1 0.041586 0.123563 0.333777
O O2 0.155462 0.294143 0.396947
O O3 0.143808 0.153551 0.501070
O O4 0.962201 0.257488 0.412101
O O5 0.599678 0.523375 0.749698
O O6 0.208849 0.508631 0.928150
O O7 0.288775 0.615158 0.833117
O O8 0.222831 0.183200 0.078263
O O9 0.426592 0.133782 0.168904
O O10 0.358098 0.147328 0.001059
O O11 0.767703 0.650305 0.832735
O O12 0.417675 0.277849 0.274167
#
# Coordination Sequence:
#
# PCOD9281344 Si02
#       7
#     8   4   8   8   8   8   4
#     4  11  24  40  58  85 121 155 191 238 288 342
#     4  11  22  39  64  88 114 151 194 237 286 344
#     4  11  24  39  57  84 118 156 195 235 286 343
#     4  10  21  38  61  87 114 152 197 239 287 343
#     4  10  21  39  62  87 117 150 193 243 289 342
#     4  10  21  38  61  87 115 149 191 239 290 344
#     4   9  20  37  58  86 116 147 188 241 294 342
#
# _framework density 18.469586
#
# number of rings (size 3 to 8) (size 9 to 14) (size 15 to 20)
#    0.000    1.667    0.000    4.000    0.000    9.333 
#    0.000    0.000    0.000    0.000    0.000    0.000 
#    0.000    0.000    0.000    0.000    0.000    0.000 
#
# Total GULP energy -134184.853081 kJ/mol
# GULP energy per Si atom -5591.035545 kJ/mol
# Density = 1.842755 g / cm^3
# Si number density = 18.469586 Si / 1000 Ang^3
#
#
#
# Elastic Constant Matrix: (Units=GPa)
#
#
# Indices 1 2 3 4 5 6 
#
# 1 147.1805 73.2780 96.3330 0.0000 -0.0748 0.0000
# 2 73.2780 140.3774 89.3917 0.0000 3.5968 0.0000
# 3 96.3330 89.3917 134.3842 0.0000 -6.5281 0.0000
# 4 0.0000 0.0000 0.0000 -24.7638 0.0000 1.5466
# 5 -0.0748 3.5968 -6.5281 0.0000 33.8107 0.0000
# 6 0.0000 0.0000 0.0000 1.5466 0.0000 10.7991
#
#
#
# Elastic Compliance Matrix: (Units=1/GPa)
#
#
# Indices 1 2 3 4 5 6 
#
# 1 0.013045 -0.001338 -0.008533 0.000000 -0.001476 0.000000
# 2 -0.001338 0.012790 -0.007687 0.000000 -0.002848 0.000000
# 3 -0.008533 -0.007687 0.018888 0.000000 0.004446 0.000000
# 4 0.000000 0.000000 0.000000 -0.040024 0.000000 0.005732
# 5 -0.001476 -0.002848 0.004446 0.000000 0.030735 0.000000
# 6 0.000000 0.000000 0.000000 0.005732 0.000000 0.091779
#
#
# Mechanical properties :
#
#
# Convention : Reuss Voigt Hill
#
# Bulk Modulus (GPa) = 104.09597 104.43863 104.26730
# Shear Modulus (GPa) = 30.20585 14.83182 22.51883
#
# Velocity S-wave (km/s) = 4.04844 2.83687 3.49555
# Velocity P-wave (km/s) = 8.85078 8.20972 8.53627
#
# Compressibility (1/GPa) = 0.00960652
#
# Stress axis : x y z
#
# Youngs Moduli (GPa) = 76.65985 78.18454 52.94501
#
# Poissons Ratio (x) = 0.10461 0.45177
# Poissons Ratio (y) = 0.10257 0.40700
# Poissons Ratio (z) = 0.65412 0.60102
#
# Static dielectric constant tensor:
#      x y z
#    x 1.612490 0.000000 0.007250 
#    y 0.000000 1.604750 0.000000 
#    z 0.007250 0.000000 1.604140 
# 
# From -- ./inp_files/151899.got.cif
#   From: 2010.05.17/outbox.cif.g08.bks.cpg/sg15_76_cif.got.tgz:151899.got - 2010.06.03 18:47:42.
