data_PCOD9281372
_publ_section_title
;
Structure prediction by ZEFSAII (Michael W. Deem and Ramdas Pophale) SiO2 
 PCOD9281372
Probable space group: C 2/C
;
_chemical_formula_sum "Si O2"
_cell_formula_units_Z 40
_cell_length_a 21.297822
_cell_length_b 11.839175
_cell_length_c 12.178823
_cell_angle_alpha 90.000000
_cell_angle_beta 139.860003
_cell_angle_gamma 90.000000
_cell_volume 1979.661590
_symmetry_space_group_name_H-M "C 2/C"
_symmetry_group_IT_number 15
_symmetry_cell_setting 'monoclinic'
loop_
_space_group_symop_operation_xyz
x,y,z
-x,y,1/2-z
-x,-y,-z
x,-y,1/2+z
1/2+x,1/2+y,z
1/2-x,1/2+y,1/2-z
1/2-x,1/2-y,-z
1/2+x,1/2-y,1/2+z
loop_
_atom_site_type_symbol
_atom_site_label
_atom_site_fract_x
_atom_site_fract_y
_atom_site_fract_z
Si Si1 0.157893 0.146951 0.449732
Si Si2 0.895015 0.032410 0.905772
Si Si3 0.334226 0.711057 0.270578
Si Si4 0.770141 0.088999 0.541558
Si Si5 0.888267 0.275812 0.570758
O O1 0.096595 0.091108 0.465435
O O2 0.229510 0.237759 0.600609
O O3 0.114007 0.200680 0.279805
O O4 0.218210 0.038793 0.484117
O O5 0.836812 0.106428 0.739561
O O6 0.835961 0.914603 0.823756
O O7 0.000000 0.000000 0.000000
O O8 0.380139 0.785933 0.428340
O O9 0.818606 0.173753 0.519137
O O10 0.660985 0.120070 0.430800
O O11 0.000000 0.254289 0.750000
#
# Coordination Sequence:
#
# PCOD9281372 Si02
#       5
#     8   8   8   8   8
#     4  10  21  39  63  89 125 164 207 262 331 373
#     4  11  21  37  65  93 128 163 210 267 322 385
#     4  10  21  38  61  88 124 162 204 263 313 391
#     4  10  22  36  61  89 121 164 210 268 320 381
#     4  11  21  38  61  90 122 164 212 261 326 387
#
# _framework density 20.205472
#
# number of rings (size 3 to 8) (size 9 to 14) (size 15 to 20)
#    0.000    1.600    4.000    1.200    0.000    2.400 
#    0.000    1.000   13.200    0.000    0.000    0.000 
#    0.000    0.000    0.000    0.000    0.000    0.000 
#
# Total GULP energy -111443.966456 kJ/mol
# GULP energy per Si atom -5572.198323 kJ/mol
# Density = 2.015948 g / cm^3
# Si number density = 20.205472 Si / 1000 Ang^3
#
#
#
# Elastic Constant Matrix: (Units=GPa)
#
#
# Indices 1 2 3 4 5 6 
#
# 1 143.4604 38.3288 59.8089 0.0000 -21.9325 0.0000
# 2 38.3288 52.1822 5.9276 0.0000 7.4395 0.0000
# 3 59.8089 5.9276 81.3131 0.0000 -17.5919 0.0000
# 4 0.0000 0.0000 0.0000 27.1603 0.0000 -13.1579
# 5 -21.9325 7.4395 -17.5919 0.0000 35.3882 0.0000
# 6 0.0000 0.0000 0.0000 -13.1579 0.0000 17.3274
#
#
#
# Elastic Compliance Matrix: (Units=1/GPa)
#
#
# Indices 1 2 3 4 5 6 
#
# 1 0.014290 -0.010557 -0.008230 0.000000 0.006985 0.000000
# 2 -0.010557 0.028066 0.003392 0.000000 -0.010757 0.000000
# 3 -0.008230 0.003392 0.018877 0.000000 0.003570 0.000000
# 4 0.000000 0.000000 0.000000 0.058246 0.000000 0.044230
# 5 0.006985 -0.010757 0.003570 0.000000 0.036623 0.000000
# 6 0.000000 0.000000 0.000000 0.044230 0.000000 0.091299
#
#
# Mechanical properties :
#
#
# Convention : Reuss Voigt Hill
#
# Bulk Modulus (GPa) = 32.84887 53.89848 43.37367
# Shear Modulus (GPa) = 17.34064 27.50121 22.42092
#
# Velocity S-wave (km/s) = 2.93271 3.69328 3.33475
# Velocity P-wave (km/s) = 5.26882 6.70225 6.02829
#
# Compressibility (1/GPa) = 0.03044245
#
# Stress axis : x y z
#
# Youngs Moduli (GPa) = 69.97775 35.62969 52.97474
#
# Poissons Ratio (x) = 0.37615 0.43600
# Poissons Ratio (y) = 0.73878 -0.17969
# Poissons Ratio (z) = 0.57594 -0.12086
#
# Static dielectric constant tensor:
#      x y z
#    x 1.781340 0.000000 -0.052290 
#    y 0.000000 1.752100 0.000000 
#    z -0.052290 0.000000 1.726180 
# 
# From -- ./inp_files/95522.got.cif
#   From: 2010.05.17/outbox.cif.g08.bks.cpg/sg15_48_cif.got.tgz:95522.got - 2010.06.03 18:47:42.
