data_PCOD9281842
_publ_section_title
;
Structure prediction by ZEFSAII (Michael W. Deem and Ramdas Pophale) SiO2 
 PCOD9281842
Probable space group: C 2/C
;
_chemical_formula_sum "Si O2"
_cell_formula_units_Z 56
_cell_length_a 16.202582
_cell_length_b 8.734654
_cell_length_c 18.431396
_cell_angle_alpha 90.000000
_cell_angle_beta 111.138674
_cell_angle_gamma 90.000000
_cell_volume 2432.959897
_symmetry_space_group_name_H-M "C 2/C"
_symmetry_group_IT_number 15
_symmetry_cell_setting 'monoclinic'
loop_
_space_group_symop_operation_xyz
x,y,z
-x,y,1/2-z
-x,-y,-z
x,-y,1/2+z
1/2+x,1/2+y,z
1/2-x,1/2+y,1/2-z
1/2-x,1/2-y,-z
1/2+x,1/2-y,1/2+z
loop_
_atom_site_type_symbol
_atom_site_label
_atom_site_fract_x
_atom_site_fract_y
_atom_site_fract_z
Si Si1 0.375954 0.335517 0.952497
Si Si2 0.812620 0.539233 0.777074
Si Si3 0.927135 0.590028 0.430054
Si Si4 0.419169 0.659700 0.035356
Si Si5 0.908285 0.667996 0.676547
Si Si6 0.915673 0.664141 0.101574
Si Si7 0.301607 0.741698 0.686973
O O1 0.473165 0.333171 0.944067
O O2 0.288912 0.313827 0.876304
O O3 0.380647 0.498486 0.996263
O O4 0.366224 0.205453 0.011670
O O5 0.874621 0.534680 0.867564
O O6 0.837641 0.652152 0.719187
O O7 0.718660 0.586089 0.778286
O O8 0.825346 0.371457 0.751144
O O9 0.880740 0.706825 0.470040
O O10 0.000000 0.500000 0.500000
O O11 0.983488 0.688473 0.389801
O O12 0.399991 0.703285 0.112506
O O13 0.907164 0.507286 0.630782
O O14 0.000000 0.677378 0.750000
O O15 0.876375 0.770676 0.150798
#
# Coordination Sequence:
#
# PCOD9281842 Si02
#       7
#     8   8   8   8   8   8   8
#     4  10  22  41  59  95 130 163 208 271 326 386
#     4  11  25  40  64  93 134 170 215 266 342 380
#     4  11  19  39  70  93 119 168 226 265 308 393
#     4  10  22  37  68  93 123 166 221 264 321 385
#     4  11  19  38  63  94 118 159 222 271 308 384
#     4  10  21  38  65  91 118 167 217 260 313 387
#     4  11  25  41  61  91 135 170 206 272 331 396
#
# _framework density 23.017232
#
# number of rings (size 3 to 8) (size 9 to 14) (size 15 to 20)
#    0.000    1.429    2.857    3.000    2.000    1.143 
#    0.000    3.571    0.000    0.000    0.000    0.000 
#    0.000    0.000    0.000    0.000    0.000    0.000 
#
# Total GULP energy -156271.372996 kJ/mol
# GULP energy per Si atom -5581.120464 kJ/mol
# Density = 2.296484 g / cm^3
# Si number density = 23.017232 Si / 1000 Ang^3
#
#
#
# Elastic Constant Matrix: (Units=GPa)
#
#
# Indices 1 2 3 4 5 6 
#
# 1 44.0426 -4.0742 28.9916 0.0000 -22.8349 0.0000
# 2 -4.0742 43.8968 42.4903 0.0000 -1.8303 0.0000
# 3 28.9916 42.4903 124.2761 0.0000 -15.5911 0.0000
# 4 0.0000 0.0000 0.0000 28.1449 0.0000 -6.8003
# 5 -22.8349 -1.8303 -15.5911 0.0000 33.5317 0.0000
# 6 0.0000 0.0000 0.0000 -6.8003 0.0000 30.6730
#
#
#
# Elastic Compliance Matrix: (Units=1/GPa)
#
#
# Indices 1 2 3 4 5 6 
#
# 1 0.048181 0.019714 -0.014579 0.000000 0.027108 0.000000
# 2 0.019714 0.042572 -0.018243 0.000000 0.007267 0.000000
# 3 -0.014579 -0.018243 0.017325 0.000000 -0.002869 0.000000
# 4 0.000000 0.000000 0.000000 0.037541 0.000000 0.008323
# 5 0.027108 0.007267 -0.002869 0.000000 0.047346 0.000000
# 6 0.000000 0.000000 0.000000 0.008323 0.000000 0.034447
#
#
# Mechanical properties :
#
#
# Convention : Reuss Voigt Hill
#
# Bulk Modulus (GPa) = 12.21569 38.55900 25.38735
# Shear Modulus (GPa) = 17.79900 28.12378 22.96139
#
# Velocity S-wave (km/s) = 2.78383 3.49930 3.16187
# Velocity P-wave (km/s) = 3.95621 5.75460 4.93797
#
# Compressibility (1/GPa) = 0.08186192
#
# Stress axis : x y z
#
# Youngs Moduli (GPa) = 20.75513 23.48989 57.71996
#
# Poissons Ratio (x) = -0.46308 0.84152
# Poissons Ratio (y) = -0.40917 1.05297
# Poissons Ratio (z) = 0.30260 0.42852
#
# Static dielectric constant tensor:
#      x y z
#    x 1.921100 0.000000 -0.019840 
#    y 0.000000 1.912270 0.000000 
#    z -0.019840 0.000000 1.882920 
# 
# From -- ./inp_files/209658.got.cif
#   From: 2010.05.17/outbox.cif.g08.bks.cpg/sg15_105_cif.got.tgz:209658.got - 2010.06.03 18:47:42.
