data_PCOD9281779
_publ_section_title
;
Structure prediction by ZEFSAII (Michael W. Deem and Ramdas Pophale) SiO2 
 PCOD9281779
Probable space group: C 2/C
;
_chemical_formula_sum "Si O2"
_cell_formula_units_Z 40
_cell_length_a 7.657266
_cell_length_b 28.922192
_cell_length_c 13.284154
_cell_angle_alpha 90.000000
_cell_angle_beta 41.508134
_cell_angle_gamma 90.000000
_cell_volume 1949.723787
_symmetry_space_group_name_H-M "C 2/C"
_symmetry_group_IT_number 15
_symmetry_cell_setting 'monoclinic'
loop_
_space_group_symop_operation_xyz
x,y,z
-x,y,1/2-z
-x,-y,-z
x,-y,1/2+z
1/2+x,1/2+y,z
1/2-x,1/2+y,1/2-z
1/2-x,1/2-y,-z
1/2+x,1/2-y,1/2+z
loop_
_atom_site_type_symbol
_atom_site_label
_atom_site_fract_x
_atom_site_fract_y
_atom_site_fract_z
Si Si1 0.339090 0.386574 0.417130
Si Si2 0.783991 0.038520 0.114069
Si Si3 0.700546 0.694321 0.852853
Si Si4 0.883838 0.217259 0.185386
Si Si5 0.259756 0.879644 0.704600
O O1 0.500000 0.400458 0.250000
O O2 0.312149 0.427732 0.507464
O O3 0.503754 0.344855 0.397095
O O4 0.031855 0.377278 0.525222
O O5 0.500000 0.014782 0.250000
O O6 0.779891 0.075248 0.208512
O O7 0.000000 0.000000 0.000000
O O8 0.723354 0.735112 0.760049
O O9 0.000000 0.677747 0.750000
O O10 0.587574 0.715724 0.005485
O O11 0.732963 0.168702 0.238080
O O12 0.000000 0.216114 0.250000
O O13 0.000000 0.878966 0.750000
#
# Coordination Sequence:
#
# PCOD9281779 Si02
#       5
#     8   8   8   8   8
#     4  11  26  41  63 100 133 167 222 263 320 393
#     4  10  23  46  69  97 127 166 212 270 329 390
#     4  11  23  39  63  96 135 176 222 266 319 381
#     4  10  21  38  64  93 133 175 221 261 322 377
#     4  10  23  44  66  91 135 172 211 271 325 376
#
# _framework density 20.515726000000001
#
# number of rings (size 3 to 8) (size 9 to 14) (size 15 to 20)
#    0.000    1.600    2.000    2.400    8.400    4.000 
#    0.000    4.000    0.000    0.000    0.000    0.000 
#    0.000    0.000    0.000    0.000    0.000    0.000 
#
# Total GULP energy -111450.568303 kJ/mol
# GULP energy per Si atom -5572.528415 kJ/mol
# Density = 2.046903 g / cm^3
# Si number density = 20.515726 Si / 1000 Ang^3
#
#
#
# Elastic Constant Matrix: (Units=GPa)
#
#
# Indices 1 2 3 4 5 6 
#
# 1 68.4455 21.4988 56.5509 0.0000 -18.4440 0.0000
# 2 21.4988 88.1316 48.8139 0.0000 -30.1779 0.0000
# 3 56.5509 48.8139 206.0186 0.0000 -20.2516 0.0000
# 4 0.0000 0.0000 0.0000 28.5762 0.0000 -4.3362
# 5 -18.4440 -30.1779 -20.2516 0.0000 37.6428 0.0000
# 6 0.0000 0.0000 0.0000 -4.3362 0.0000 7.0438
#
#
#
# Elastic Compliance Matrix: (Units=1/GPa)
#
#
# Indices 1 2 3 4 5 6 
#
# 1 0.020727 0.000380 -0.005017 0.000000 0.007762 0.000000
# 2 0.000380 0.017101 -0.002946 0.000000 0.012311 0.000000
# 3 -0.005017 -0.002946 0.006816 0.000000 -0.001153 0.000000
# 4 0.000000 0.000000 0.000000 0.038600 0.000000 0.023762
# 5 0.007762 0.012311 -0.001153 0.000000 0.039618 0.000000
# 6 0.000000 0.000000 0.000000 0.023762 0.000000 0.156597
#
#
# Mechanical properties :
#
#
# Convention : Reuss Voigt Hill
#
# Bulk Modulus (GPa) = 33.92262 68.48033 51.20147
# Shear Modulus (GPa) = 16.42303 30.36802 23.39553
#
# Velocity S-wave (km/s) = 2.83240 3.85155 3.38060
# Velocity P-wave (km/s) = 5.22183 7.29597 6.34423
#
# Compressibility (1/GPa) = 0.02947886
#
# Stress axis : x y z
#
# Youngs Moduli (GPa) = 48.24606 58.47509 146.72109
#
# Poissons Ratio (x) = -0.02223 0.73604
# Poissons Ratio (y) = -0.01834 0.43226
# Poissons Ratio (z) = 0.24203 0.17227
#
# Static dielectric constant tensor:
#      x y z
#    x 1.785450 0.000000 -0.048570 
#    y 0.000000 1.782630 0.000000 
#    z -0.048570 0.000000 1.753260 
# 
# From -- ./inp_files/25340.got.cif
#   From: 2010.05.17/outbox.cif.g08.bks.cpg/sg15_13_cif.got.tgz:25340.got - 2010.06.03 18:47:42.
