data_PCOD9281758
_publ_section_title
;
Structure prediction by ZEFSAII (Michael W. Deem and Ramdas Pophale) SiO2 
 PCOD9281758
Probable space group: C 2/C
;
_chemical_formula_sum "Si O2"
_cell_formula_units_Z 44
_cell_length_a 6.651226
_cell_length_b 14.399187
_cell_length_c 25.675112
_cell_angle_alpha 90.000000
_cell_angle_beta 126.160051
_cell_angle_gamma 90.000000
_cell_volume 1985.297791
_symmetry_space_group_name_H-M "C 2/C"
_symmetry_group_IT_number 15
_symmetry_cell_setting 'monoclinic'
loop_
_space_group_symop_operation_xyz
x,y,z
-x,y,1/2-z
-x,-y,-z
x,-y,1/2+z
1/2+x,1/2+y,z
1/2-x,1/2+y,1/2-z
1/2-x,1/2-y,-z
1/2+x,1/2-y,1/2+z
loop_
_atom_site_type_symbol
_atom_site_label
_atom_site_fract_x
_atom_site_fract_y
_atom_site_fract_z
Si Si1 0.437574 0.229853 0.800266
Si Si2 0.206574 0.517705 0.700877
Si Si3 0.396823 0.534910 0.038701
Si Si4 0.042156 0.232835 0.423721
Si Si5 0.500000 0.874297 0.750000
Si Si6 0.157750 0.418031 0.080367
O O1 0.500000 0.251133 0.750000
O O2 0.348020 0.122813 0.787945
O O3 0.631453 0.243969 0.878229
O O4 0.230435 0.303672 0.786282
O O5 0.500000 0.498354 0.750000
O O6 0.148069 0.520648 0.630826
O O7 0.051038 0.443432 0.709583
O O8 0.532622 0.626283 0.080249
O O9 0.380318 0.453086 0.078269
O O10 0.500000 0.500000 0.000000
O O11 0.109824 0.566663 0.987255
O O12 0.250000 0.250000 0.500000
O O13 0.830645 0.309940 0.402630
#
# Coordination Sequence:
#
# PCOD9281758 Si02
#       6
#     8   8   8   8   4   8
#     4  11  24  46  69 102 136 175 232 281 336 414
#     4  11  24  44  65  95 139 174 224 276 338 401
#     4  10  21  38  64  92 121 165 217 263 330 395
#     4   9  21  43  64  91 132 170 210 275 338 386
#     4  12  26  40  70  98 128 188 218 278 348 392
#     4   9  22  41  59  89 127 163 212 272 321 395
#
# _framework density 22.162921000000001
#
# number of rings (size 3 to 8) (size 9 to 14) (size 15 to 20)
#    0.000    1.818    1.818    0.545    7.636    0.727 
#    3.273    0.000    0.000    0.000    0.000    0.000 
#    0.000    0.000    0.000    0.000    0.000    0.000 
#
# Total GULP energy -122765.706674 kJ/mol
# GULP energy per Si atom -5580.259394 kJ/mol
# Density = 2.211248 g / cm^3
# Si number density = 22.162921 Si / 1000 Ang^3
#
#
#
# Elastic Constant Matrix: (Units=GPa)
#
#
# Indices 1 2 3 4 5 6 
#
# 1 99.4199 62.8939 32.3714 0.0000 -39.1163 0.0000
# 2 62.8939 144.9810 22.7670 0.0000 -17.2424 0.0000
# 3 32.3714 22.7670 93.7489 0.0000 -25.3376 0.0000
# 4 0.0000 0.0000 0.0000 19.6570 0.0000 -15.0290
# 5 -39.1163 -17.2424 -25.3376 0.0000 39.1205 0.0000
# 6 0.0000 0.0000 0.0000 -15.0290 0.0000 27.8720
#
#
#
# Elastic Compliance Matrix: (Units=1/GPa)
#
#
# Indices 1 2 3 4 5 6 
#
# 1 0.022220 -0.007306 -0.000926 0.000000 0.018398 0.000000
# 2 -0.007306 0.009774 -0.000801 0.000000 -0.003516 0.000000
# 3 -0.000926 -0.000801 0.013135 0.000000 0.007228 0.000000
# 4 0.000000 0.000000 0.000000 0.086557 0.000000 0.046673
# 5 0.018398 -0.003516 0.007228 0.000000 0.047090 0.000000
# 6 0.000000 0.000000 0.000000 0.046673 0.000000 0.061045
#
#
# Mechanical properties :
#
#
# Convention : Reuss Voigt Hill
#
# Bulk Modulus (GPa) = 36.95053 63.80159 50.37606
# Shear Modulus (GPa) = 18.73303 32.00439 25.36871
#
# Velocity S-wave (km/s) = 2.91046 3.80419 3.38693
# Velocity P-wave (km/s) = 5.29177 6.93872 6.17044
#
# Compressibility (1/GPa) = 0.02706321
#
# Stress axis : x y z
#
# Youngs Moduli (GPa) = 45.00412 102.30732 76.13457
#
# Poissons Ratio (x) = 0.74744 0.07049
# Poissons Ratio (y) = 0.32879 0.06101
# Poissons Ratio (z) = 0.04167 0.08198
#
# Static dielectric constant tensor:
#      x y z
#    x 1.778550 0.000000 -0.001910 
#    y 0.000000 1.859650 0.000000 
#    z -0.001910 0.000000 1.893400 
# 
# From -- ./inp_files/285632.got.cif
#   From: 2010.05.17/outbox.cif.g08.bks.cpg/sg15_143_cif.got.tgz:285632.got - 2010.06.03 18:47:42.
