data_PCOD9281295
_publ_section_title
;
Structure prediction by ZEFSAII (Michael W. Deem and Ramdas Pophale) SiO2 
 PCOD9281295
Probable space group: C 2/C
;
_chemical_formula_sum "Si O2"
_cell_formula_units_Z 40
_cell_length_a 29.042290
_cell_length_b 5.148793
_cell_length_c 13.571219
_cell_angle_alpha 90.000000
_cell_angle_beta 77.084511
_cell_angle_gamma 90.000000
_cell_volume 1978.000850
_symmetry_space_group_name_H-M "C 2/C"
_symmetry_group_IT_number 15
_symmetry_cell_setting 'monoclinic'
loop_
_space_group_symop_operation_xyz
x,y,z
-x,y,1/2-z
-x,-y,-z
x,-y,1/2+z
1/2+x,1/2+y,z
1/2-x,1/2+y,1/2-z
1/2-x,1/2-y,-z
1/2+x,1/2-y,1/2+z
loop_
_atom_site_type_symbol
_atom_site_label
_atom_site_fract_x
_atom_site_fract_y
_atom_site_fract_z
Si Si1 0.719326 0.234629 0.264926
Si Si2 0.451913 0.565309 0.831453
Si Si3 0.047536 0.436790 0.034931
Si Si4 0.152555 0.090769 0.618910
Si Si5 0.347649 0.094309 0.021899
O O1 0.750709 0.482372 0.281956
O O2 0.688276 0.342120 0.189048
O O3 0.688006 0.134642 0.371468
O O4 0.500000 0.604002 0.750000
O O5 0.459578 0.310387 0.892618
O O6 0.400029 0.553613 0.807729
O O7 0.445737 0.811370 0.902974
O O8 0.098527 0.390573 0.960708
O O9 0.000000 0.500000 0.000000
O O10 0.156337 0.325246 0.537072
O O11 0.159808 0.826111 0.553675
#
# Coordination Sequence:
#
# PCOD9281295 Si02
#       5
#     8   8   8   8   8
#     4  12  26  42  66  97 119 169 223 258 321 374
#     4  10  21  38  60  92 124 164 204 247 316 371
#     4  10  21  38  60  92 124 164 204 248 314 373
#     4  10  23  43  63  91 132 163 206 266 314 375
#     4  10  23  43  63  92 131 164 206 263 318 372
#
# _framework density 20.222439000000001
#
# number of rings (size 3 to 8) (size 9 to 14) (size 15 to 20)
#    0.000    1.600    0.000    3.600    2.800    4.800 
#    3.600    0.000    0.000    0.000    0.000    0.000 
#    0.000    0.000    0.000    0.000    0.000    0.000 
#
# Total GULP energy -111558.631253 kJ/mol
# GULP energy per Si atom -5577.931563 kJ/mol
# Density = 2.017641 g / cm^3
# Si number density = 20.222439 Si / 1000 Ang^3
#
#
#
# Elastic Constant Matrix: (Units=GPa)
#
#
# Indices 1 2 3 4 5 6 
#
# 1 132.1311 27.1266 53.7856 0.0000 -8.7410 0.0000
# 2 27.1266 137.7802 15.5047 0.0000 -6.0841 0.0000
# 3 53.7856 15.5047 51.6984 0.0000 -13.9827 0.0000
# 4 0.0000 0.0000 0.0000 20.3364 0.0000 -0.6693
# 5 -8.7410 -6.0841 -13.9827 0.0000 32.5547 0.0000
# 6 0.0000 0.0000 0.0000 -0.6693 0.0000 36.0137
#
#
#
# Elastic Compliance Matrix: (Units=1/GPa)
#
#
# Indices 1 2 3 4 5 6 
#
# 1 0.013508 -0.001156 -0.014465 0.000000 -0.002802 0.000000
# 2 -0.001156 0.007617 -0.000884 0.000000 0.000734 0.000000
# 3 -0.014465 -0.000884 0.037973 0.000000 0.012261 0.000000
# 4 0.000000 0.000000 0.000000 0.049203 0.000000 0.000914
# 5 -0.002802 0.000734 0.012261 0.000000 0.035369 0.000000
# 6 0.000000 0.000000 0.000000 0.000914 0.000000 0.027784
#
#
# Mechanical properties :
#
#
# Convention : Reuss Voigt Hill
#
# Bulk Modulus (GPa) = 38.32869 57.16038 47.74454
# Shear Modulus (GPa) = 23.45661 32.79381 28.12521
#
# Velocity S-wave (km/s) = 3.40947 4.03135 3.73338
# Velocity P-wave (km/s) = 5.87316 7.07080 6.49962
#
# Compressibility (1/GPa) = 0.02609011
#
# Stress axis : x y z
#
# Youngs Moduli (GPa) = 74.02911 131.28015 26.33447
#
# Poissons Ratio (x) = 0.15169 0.38092
# Poissons Ratio (y) = 0.08554 0.02328
# Poissons Ratio (z) = 1.07082 0.11604
#
# Static dielectric constant tensor:
#      x y z
#    x 2.296090 0.000000 0.688550 
#    y 0.000000 1.676940 0.000000 
#    z 0.688550 0.000000 2.835220 
# 
# From -- ./inp_files/120716.got.cif
#   From: 2010.05.17/outbox.cif.g08.bks.cpg/sg15_61_cif.got.tgz:120716.got - 2010.06.03 18:47:42.
