data_PCOD9281579
_publ_section_title
;
Structure prediction by ZEFSAII (Michael W. Deem and Ramdas Pophale) SiO2 
 PCOD9281579
Probable space group: C 2/C
;
_chemical_formula_sum "Si O2"
_cell_formula_units_Z 52
_cell_length_a 8.077536
_cell_length_b 32.689253
_cell_length_c 13.919175
_cell_angle_alpha 90.000000
_cell_angle_beta 37.223367
_cell_angle_gamma 90.000000
_cell_volume 2223.300406
_symmetry_space_group_name_H-M "C 2/C"
_symmetry_group_IT_number 15
_symmetry_cell_setting 'monoclinic'
loop_
_space_group_symop_operation_xyz
x,y,z
-x,y,1/2-z
-x,-y,-z
x,-y,1/2+z
1/2+x,1/2+y,z
1/2-x,1/2+y,1/2-z
1/2-x,1/2-y,-z
1/2+x,1/2-y,1/2+z
loop_
_atom_site_type_symbol
_atom_site_label
_atom_site_fract_x
_atom_site_fract_y
_atom_site_fract_z
Si Si1 0.567504 0.779648 0.331917
Si Si2 0.500000 0.475279 0.250000
Si Si3 0.231953 0.489160 0.067498
Si Si4 0.790943 0.807479 0.666572
Si Si5 0.437570 0.153297 0.041761
Si Si6 0.444902 0.085615 0.635507
Si Si7 0.015789 0.156234 0.881608
O O1 0.500000 0.779217 0.250000
O O2 0.558841 0.735273 0.383053
O O3 0.413755 0.812776 0.469043
O O4 0.872369 0.798668 0.195673
O O5 0.314234 0.497486 0.419185
O O6 0.277376 0.447068 0.299084
O O7 0.000000 0.506812 0.250000
O O8 0.158315 0.441240 0.095866
O O9 0.500000 0.500000 0.000000
O O10 0.500000 0.797592 0.750000
O O11 0.933324 0.838986 0.529608
O O12 0.736112 0.829996 0.791046
O O13 0.382611 0.108707 0.026291
O O14 0.750901 0.148964 0.938175
O O15 0.255691 0.122622 0.763355
#
# Coordination Sequence:
#
# PCOD9281579 Si02
#       7
#     8   4   8   8   8   8   8
#     4  11  22  36  60  89 142 197 252 311 364 430
#     4  12  24  52  82 112 148 194 242 316 382 464
#     4  12  28  51  81 118 151 197 249 302 384 474
#     4  10  21  38  63 100 137 189 252 305 365 442
#     4  10  21  41  67 100 138 190 248 309 377 438
#     4  11  22  45  74 106 150 186 239 307 380 453
#     4  10  21  41  67 100 138 192 246 306 382 435
#
# _framework density 23.388650999999999
#
# number of rings (size 3 to 8) (size 9 to 14) (size 15 to 20)
#    0.000    1.231    3.077    3.692    0.000    7.385 
#    5.538    0.000    0.000    0.000    0.000    0.000 
#    0.000    0.000    0.000    0.000    0.000    2.462 
#
# Total GULP energy -145171.022816 kJ/mol
# GULP energy per Si atom -5583.500878 kJ/mol
# Density = 2.333542 g / cm^3
# Si number density = 23.388651 Si / 1000 Ang^3
#
#
#
# Elastic Constant Matrix: (Units=GPa)
#
#
# Indices 1 2 3 4 5 6 
#
# 1 111.3457 59.5119 47.3801 0.0000 10.7854 0.0000
# 2 59.5119 127.9258 56.5490 0.0000 9.6036 0.0000
# 3 47.3801 56.5490 144.9233 0.0000 30.4626 0.0000
# 4 0.0000 0.0000 0.0000 -1.9631 0.0000 -0.8335
# 5 10.7854 9.6036 30.4626 0.0000 49.8689 0.0000
# 6 0.0000 0.0000 0.0000 -0.8335 0.0000 40.1383
#
#
#
# Elastic Compliance Matrix: (Units=1/GPa)
#
#
# Indices 1 2 3 4 5 6 
#
# 1 0.012517 -0.004861 -0.002092 0.000000 -0.000493 0.000000
# 2 -0.004861 0.011345 -0.002982 0.000000 0.000688 0.000000
# 3 -0.002092 -0.002982 0.009789 0.000000 -0.004953 0.000000
# 4 0.000000 0.000000 0.000000 -0.504945 0.000000 -0.010486
# 5 -0.000493 0.000688 -0.004953 0.000000 0.023052 0.000000
# 6 0.000000 0.000000 0.000000 -0.010486 0.000000 0.024696
#
#
# Mechanical properties :
#
#
# Convention : Reuss Voigt Hill
#
# Bulk Modulus (GPa) = 72.56607 79.00854 75.78730
# Shear Modulus (GPa) = -12.52876 32.32574 9.89849
#
# Velocity S-wave (km/s) = -2.31698 3.72171 2.05946
# Velocity P-wave (km/s) = 4.89241 7.23341 6.17486
#
# Compressibility (1/GPa) = 0.01378055
#
# Stress axis : x y z
#
# Youngs Moduli (GPa) = 79.89001 88.14292 102.15798
#
# Poissons Ratio (x) = 0.42850 0.21368
# Poissons Ratio (y) = 0.38838 0.30466
# Poissons Ratio (z) = 0.16710 0.26286
#
# Static dielectric constant tensor:
#      x y z
#    x 1.937850 0.000000 0.013110 
#    y 0.000000 1.811170 0.000000 
#    z 0.013110 0.000000 2.005900 
# 
# From -- ./inp_files/139738.got.cif
#   From: 2010.05.17/outbox.cif.g08.bks.cpg/sg15_70_cif.got.tgz:139738.got - 2010.06.03 18:47:42.
