data_PCOD9281167
_publ_section_title
;
Structure prediction by ZEFSAII (Michael W. Deem and Ramdas Pophale) SiO2 
 PCOD9281167
Probable space group: C 2/C
;
_chemical_formula_sum "Si O2"
_cell_formula_units_Z 44
_cell_length_a 14.155584
_cell_length_b 7.039241
_cell_length_c 24.907045
_cell_angle_alpha 90.000000
_cell_angle_beta 133.390819
_cell_angle_gamma 90.000000
_cell_volume 1803.523821
_symmetry_space_group_name_H-M "C 2/C"
_symmetry_group_IT_number 15
_symmetry_cell_setting 'monoclinic'
loop_
_space_group_symop_operation_xyz
x,y,z
-x,y,1/2-z
-x,-y,-z
x,-y,1/2+z
1/2+x,1/2+y,z
1/2-x,1/2+y,1/2-z
1/2-x,1/2-y,-z
1/2+x,1/2-y,1/2+z
loop_
_atom_site_type_symbol
_atom_site_label
_atom_site_fract_x
_atom_site_fract_y
_atom_site_fract_z
Si Si1 0.656463 0.115407 0.028012
Si Si2 0.155782 0.495035 0.749124
Si Si3 0.000000 0.817661 0.250000
Si Si4 0.867089 0.823491 0.097269
Si Si5 0.906110 0.377282 0.112311
Si Si6 0.110418 0.251351 0.626822
O O1 0.780286 0.255936 0.075516
O O2 0.598251 0.151414 0.063866
O O3 0.725811 0.914525 0.040832
O O4 0.569260 0.156373 0.941716
O O5 0.108693 0.317488 0.765951
O O6 0.158430 0.407625 0.689811
O O7 0.281074 0.589356 0.823563
O O8 0.036639 0.644438 0.697612
O O9 0.934143 0.921747 0.175151
O O10 0.866835 0.597618 0.106611
O O11 0.972744 0.840007 0.091208
#
# Coordination Sequence:
#
# PCOD9281167 Si02
#       6
#     8   8   4   8   8   8
#     4  11  22  40  67  85 122 171 202 254 325 374
#     4  10  21  38  59  85 127 149 202 267 298 375
#     4   8  18  36  56  84 120 150 200 260 304 358
#     4  10  22  38  61  90 123 158 210 258 314 378
#     4   9  22  42  58  90 124 158 209 255 309 381
#     4  10  23  37  61  97 116 161 215 256 314 385
#
# _framework density 24.396682999999999
#
# number of rings (size 3 to 8) (size 9 to 14) (size 15 to 20)
#    0.000    2.545    0.000    2.727    7.636    2.909 
#    0.000    3.636    0.000    0.000    0.000    0.000 
#    0.000    0.000    0.000    0.000    0.000    0.000 
#
# Total GULP energy -122854.128117 kJ/mol
# GULP energy per Si atom -5584.278551 kJ/mol
# Density = 2.434116 g / cm^3
# Si number density = 24.396683 Si / 1000 Ang^3
#
#
#
# Elastic Constant Matrix: (Units=GPa)
#
#
# Indices 1 2 3 4 5 6 
#
# 1 99.8320 4.7193 50.8540 0.0000 -23.4000 0.0000
# 2 4.7193 51.1552 -19.7916 0.0000 8.3921 0.0000
# 3 50.8540 -19.7916 78.3095 0.0000 -19.8712 0.0000
# 4 0.0000 0.0000 0.0000 21.0190 0.0000 14.7099
# 5 -23.4000 8.3921 -19.8712 0.0000 49.1861 0.0000
# 6 0.0000 0.0000 0.0000 14.7099 0.0000 18.1708
#
#
#
# Elastic Compliance Matrix: (Units=1/GPa)
#
#
# Indices 1 2 3 4 5 6 
#
# 1 0.017557 -0.007028 -0.011982 0.000000 0.004711 0.000000
# 2 -0.007028 0.024602 0.009881 0.000000 -0.003549 0.000000
# 3 -0.011982 0.009881 0.023593 0.000000 0.002145 0.000000
# 4 0.000000 0.000000 0.000000 0.109759 0.000000 -0.088854
# 5 0.004711 -0.003549 0.002145 0.000000 0.024044 0.000000
# 6 0.000000 0.000000 0.000000 -0.088854 0.000000 0.126964
#
#
# Mechanical properties :
#
#
# Convention : Reuss Voigt Hill
#
# Bulk Modulus (GPa) = 21.05566 33.42890 27.24228
# Shear Modulus (GPa) = 13.86540 30.57620 22.22080
#
# Velocity S-wave (km/s) = 2.38656 3.54403 3.02124
# Velocity P-wave (km/s) = 4.03032 5.52076 4.83334
#
# Compressibility (1/GPa) = 0.04749316
#
# Stress axis : x y z
#
# Youngs Moduli (GPa) = 56.95691 40.64696 42.38557
#
# Poissons Ratio (x) = 0.28569 0.50788
# Poissons Ratio (y) = 0.40032 -0.41883
# Poissons Ratio (z) = 0.68249 -0.40165
#
# Static dielectric constant tensor:
#      x y z
#    x 2.013180 0.000000 -0.025530 
#    y 0.000000 1.974080 0.000000 
#    z -0.025530 0.000000 1.999970 
# 
# From -- ./inp_files/236183.got.cif
#   From: 2010.05.17/outbox.cif.g08.bks.cpg/sg15_119_cif.got.tgz:236183.got - 2010.06.03 18:47:42.
