data_PCOD9281393
_publ_section_title
;
Structure prediction by ZEFSAII (Michael W. Deem and Ramdas Pophale) SiO2 
 PCOD9281393
Probable space group: C 2/C
;
_chemical_formula_sum "Si O2"
_cell_formula_units_Z 60
_cell_length_a 20.333118
_cell_length_b 16.821135
_cell_length_c 9.545938
_cell_angle_alpha 90.000000
_cell_angle_beta 110.999588
_cell_angle_gamma 90.000000
_cell_volume 3048.111315
_symmetry_space_group_name_H-M "C 2/C"
_symmetry_group_IT_number 15
_symmetry_cell_setting 'monoclinic'
loop_
_space_group_symop_operation_xyz
x,y,z
-x,y,1/2-z
-x,-y,-z
x,-y,1/2+z
1/2+x,1/2+y,z
1/2-x,1/2+y,1/2-z
1/2-x,1/2-y,-z
1/2+x,1/2-y,1/2+z
loop_
_atom_site_type_symbol
_atom_site_label
_atom_site_fract_x
_atom_site_fract_y
_atom_site_fract_z
Si Si1 0.282607 0.178274 0.932673
Si Si2 0.702598 0.178191 0.017775
Si Si3 0.939171 0.069601 0.954958
Si Si4 0.386010 0.305526 0.933180
Si Si5 0.000000 0.151355 0.750000
Si Si6 0.275593 0.572452 0.846150
Si Si7 0.746316 0.899981 0.830418
Si Si8 0.571647 0.718332 0.344902
O O1 0.350080 0.218818 0.915092
O O2 0.232780 0.140707 0.777145
O O3 0.250000 0.250000 0.000000
O O4 0.296115 0.111313 0.058499
O O5 0.732129 0.105498 0.946110
O O6 0.625642 0.216523 0.943210
O O7 0.750000 0.250000 0.000000
O O8 0.717889 0.157762 0.189329
O O9 0.857956 0.050838 0.929334
O O10 0.945718 0.100539 0.801246
O O11 0.948326 0.145625 0.066104
O O12 0.000000 0.000000 0.000000
O O13 0.326568 0.371371 0.923847
O O14 0.400752 0.318581 0.780095
O O15 0.450678 0.308219 0.092632
O O16 0.242655 0.489382 0.775071
O O17 0.500000 0.761514 0.250000
#
# Coordination Sequence:
#
# PCOD9281393 Si02
#       8
#     8   8   8   8   4   8   8   8
#     4  10  21  38  61  90 127 171 226 292 327 385
#     4  12  22  42  71  96 128 190 247 278 336 423
#     4  12  27  39  62  95 146 187 220 265 346 428
#     4  11  22  42  63  93 132 178 233 276 333 413
#     4  12  26  38  60  94 134 184 222 264 348 404
#     4  12  23  41  65  99 137 181 230 289 344 404
#     4  11  23  37  64  99 133 164 223 300 350 391
#     4  12  25  44  66  94 133 183 232 284 336 418
#
# _framework density 19.68432
#
# number of rings (size 3 to 8) (size 9 to 14) (size 15 to 20)
#    0.000    0.533    5.333    4.000    2.800    1.067 
#    0.000    0.000    0.000    0.800    3.467    0.000 
#    0.000    0.000    0.000    0.000    0.000    0.000 
#
# Total GULP energy -167134.703258 kJ/mol
# GULP energy per Si atom -5571.156775 kJ/mol
# Density = 1.963952 g / cm^3
# Si number density = 19.684320 Si / 1000 Ang^3
#
#
#
# Elastic Constant Matrix: (Units=GPa)
#
#
# Indices 1 2 3 4 5 6 
#
# 1 87.7523 40.7610 37.8017 0.0000 9.1592 0.0000
# 2 40.7610 86.5939 32.0044 0.0000 12.6537 0.0000
# 3 37.8017 32.0044 109.7864 0.0000 1.4092 0.0000
# 4 0.0000 0.0000 0.0000 27.3175 0.0000 -1.1627
# 5 9.1592 12.6537 1.4092 0.0000 43.6693 0.0000
# 6 0.0000 0.0000 0.0000 -1.1627 0.0000 35.5858
#
#
#
# Elastic Compliance Matrix: (Units=1/GPa)
#
#
# Indices 1 2 3 4 5 6 
#
# 1 0.015895 -0.005879 -0.003740 0.000000 -0.001510 0.000000
# 2 -0.005879 0.015719 -0.002516 0.000000 -0.003240 0.000000
# 3 -0.003740 -0.002516 0.011115 0.000000 0.001155 0.000000
# 4 0.000000 0.000000 0.000000 0.036657 0.000000 0.001198
# 5 -0.001510 -0.003240 0.001155 0.000000 0.024118 0.000000
# 6 0.000000 0.000000 0.000000 0.001198 0.000000 0.028140
#
#
# Mechanical properties :
#
#
# Convention : Reuss Voigt Hill
#
# Bulk Modulus (GPa) = 54.17578 56.14077 55.15827
# Shear Modulus (GPa) = 30.85109 32.88555 31.86832
#
# Velocity S-wave (km/s) = 3.96320 4.09179 4.02801
# Velocity P-wave (km/s) = 6.96596 7.13485 7.05091
#
# Compressibility (1/GPa) = 0.01845843
#
# Stress axis : x y z
#
# Youngs Moduli (GPa) = 62.91188 63.61632 89.96832
#
# Poissons Ratio (x) = 0.37402 0.33646
# Poissons Ratio (y) = 0.36988 0.22640
# Poissons Ratio (z) = 0.23528 0.16009
#
# Static dielectric constant tensor:
#      x y z
#    x 1.710330 0.000000 -0.029730 
#    y 0.000000 1.751800 0.000000 
#    z -0.029730 0.000000 1.732890 
# 
# From -- ./inp_files/56690.got.cif
#   From: 2010.05.17/outbox.cif.g08.bks.cpg/sg15_29_cif.got.tgz:56690.got - 2010.06.03 18:47:42.
