data_PCOD9281438
_publ_section_title
;
Structure prediction by ZEFSAII (Michael W. Deem and Ramdas Pophale) SiO2 
 PCOD9281438
Probable space group: C 2/C
;
_chemical_formula_sum "Si O2"
_cell_formula_units_Z 36
_cell_length_a 12.181177
_cell_length_b 25.828028
_cell_length_c 5.786464
_cell_angle_alpha 90.000000
_cell_angle_beta 128.396363
_cell_angle_gamma 90.000000
_cell_volume 1426.795818
_symmetry_space_group_name_H-M "C 2/C"
_symmetry_group_IT_number 15
_symmetry_cell_setting 'monoclinic'
loop_
_space_group_symop_operation_xyz
x,y,z
-x,y,1/2-z
-x,-y,-z
x,-y,1/2+z
1/2+x,1/2+y,z
1/2-x,1/2+y,1/2-z
1/2-x,1/2-y,-z
1/2+x,1/2-y,1/2+z
loop_
_atom_site_type_symbol
_atom_site_label
_atom_site_fract_x
_atom_site_fract_y
_atom_site_fract_z
Si Si1 0.717584 0.487318 0.903827
Si Si2 0.500000 0.055198 0.250000
Si Si3 0.684079 0.881259 0.336389
Si Si4 0.334860 0.219988 0.414132
Si Si5 0.877641 0.819879 0.246137
O O1 0.651763 0.494136 0.075007
O O2 0.751739 0.426753 0.925705
O O3 0.865650 0.518988 0.126784
O O4 0.559510 0.092350 0.527722
O O5 0.632851 0.832318 0.409653
O O6 0.807655 0.859473 0.331858
O O7 0.250000 0.250000 0.500000
O O8 0.431269 0.265791 0.433662
O O9 0.245074 0.198953 0.082810
O O10 0.000000 0.842793 0.250000
#
# Coordination Sequence:
#
# PCOD9281438 Si02
#       5
#     8   4   8   8   8
#     4  10  21  38  61  95 139 172 210 275 337 396
#     4  10  22  42  60 102 142 168 218 280 336 404
#     4  10  21  38  64  92 127 177 214 264 339 403
#     4   9  21  42  60  91 120 168 220 270 329 393
#     4  10  22  44  61  90 128 165 221 280 328 396
#
# _framework density 25.231362000000001
#
# number of rings (size 3 to 8) (size 9 to 14) (size 15 to 20)
#    0.000    2.222    0.000    2.667    6.222    3.556 
#   22.000    0.000    0.000    5.333    0.000    0.000 
#    0.000    0.000    0.000    0.000    0.000    0.000 
#
# Total GULP energy -100589.164235 kJ/mol
# GULP energy per Si atom -5588.286902 kJ/mol
# Density = 2.517393 g / cm^3
# Si number density = 25.231362 Si / 1000 Ang^3
#
#
#
# Elastic Constant Matrix: (Units=GPa)
#
#
# Indices 1 2 3 4 5 6 
#
# 1 101.0219 43.0727 30.1223 0.0000 -19.0613 0.0000
# 2 43.0727 186.2443 41.5539 0.0000 -16.6519 0.0000
# 3 30.1223 41.5539 82.5930 0.0000 -21.4253 0.0000
# 4 0.0000 0.0000 0.0000 37.0780 0.0000 -5.1055
# 5 -19.0613 -16.6519 -21.4253 0.0000 31.1102 0.0000
# 6 0.0000 0.0000 0.0000 -5.1055 0.0000 14.0276
#
#
#
# Elastic Compliance Matrix: (Units=1/GPa)
#
#
# Indices 1 2 3 4 5 6 
#
# 1 0.012320 -0.001903 -0.002242 0.000000 0.004985 0.000000
# 2 -0.001903 0.006392 -0.002358 0.000000 0.000631 0.000000
# 3 -0.002242 -0.002358 0.016349 0.000000 0.008623 0.000000
# 4 0.000000 0.000000 0.000000 0.028393 0.000000 0.010334
# 5 0.004985 0.000631 0.008623 0.000000 0.041475 0.000000
# 6 0.000000 0.000000 0.000000 0.010334 0.000000 0.075049
#
#
# Mechanical properties :
#
#
# Convention : Reuss Voigt Hill
#
# Bulk Modulus (GPa) = 45.34494 66.59524 55.97009
# Shear Modulus (GPa) = 24.95813 33.45051 29.20432
#
# Velocity S-wave (km/s) = 3.14852 3.64504 3.40584
# Velocity P-wave (km/s) = 5.58822 6.64576 6.13981
#
# Compressibility (1/GPa) = 0.02205318
#
# Stress axis : x y z
#
# Youngs Moduli (GPa) = 81.17191 156.44578 61.16715
#
# Poissons Ratio (x) = 0.29773 0.13716
# Poissons Ratio (y) = 0.15448 0.14424
# Poissons Ratio (z) = 0.18201 0.36891
#
# Static dielectric constant tensor:
#      x y z
#    x 2.014710 0.000000 -0.055150 
#    y 0.000000 1.940640 0.000000 
#    z -0.055150 0.000000 2.479410 
# 
# From -- ./inp_files/5122.got.cif
#   From: 2010.05.17/outbox.cif.g08.bks.cpg/sg15_3_cif.got.tgz:5122.got - 2010.06.03 18:47:42.
