data_PCOD9281718
_publ_section_title
;
Structure prediction by ZEFSAII (Michael W. Deem and Ramdas Pophale) SiO2 
 PCOD9281718
Probable space group: C 2/C
;
_chemical_formula_sum "Si O2"
_cell_formula_units_Z 48
_cell_length_a 15.288488
_cell_length_b 15.147161
_cell_length_c 10.945823
_cell_angle_alpha 90.000000
_cell_angle_beta 74.835034
_cell_angle_gamma 90.000000
_cell_volume 2446.532548
_symmetry_space_group_name_H-M "C 2/C"
_symmetry_group_IT_number 15
_symmetry_cell_setting 'monoclinic'
loop_
_space_group_symop_operation_xyz
x,y,z
-x,y,1/2-z
-x,-y,-z
x,-y,1/2+z
1/2+x,1/2+y,z
1/2-x,1/2+y,1/2-z
1/2-x,1/2-y,-z
1/2+x,1/2-y,1/2+z
loop_
_atom_site_type_symbol
_atom_site_label
_atom_site_fract_x
_atom_site_fract_y
_atom_site_fract_z
Si Si1 0.500000 0.791045 0.250000
Si Si2 0.192783 0.149243 0.930278
Si Si3 0.660272 0.844004 0.840286
Si Si4 0.146341 0.146974 0.234187
Si Si5 0.949979 0.971674 0.144432
Si Si6 0.617016 0.067625 0.588399
Si Si7 0.000000 0.588664 0.250000
O O1 0.579914 0.729973 0.273273
O O2 0.457535 0.855635 0.366056
O O3 0.179827 0.253001 0.906122
O O4 0.123786 0.098970 0.869124
O O5 0.292398 0.104854 0.876948
O O6 0.165163 0.138455 0.082038
O O7 0.755931 0.851823 0.736015
O O8 0.568705 0.848774 0.798260
O O9 0.647244 0.927281 0.936743
O O10 0.095211 0.061660 0.295840
O O11 0.000000 0.939352 0.250000
O O12 0.000000 0.000000 0.000000
O O13 0.568175 0.978292 0.650972
#
# Coordination Sequence:
#
# PCOD9281718 Si02
#       7
#     4   8   8   8   8   8   4
#     4  11  16  34  61  92 104 152 223 258 290 371
#     4  11  21  40  62  93 125 171 218 267 330 382
#     4  11  22  40  63  91 126 165 216 271 326 386
#     4  11  20  39  65  90 121 168 220 260 310 400
#     4  12  24  39  64  95 132 171 212 272 328 393
#     4  10  21  38  64  85 119 167 217 261 314 398
#     4  11  24  38  59  96 128 164 203 282 342 375
#
# _framework density 19.619603000000001
#
# number of rings (size 3 to 8) (size 9 to 14) (size 15 to 20)
#    0.000    1.000    5.833    2.500    1.167    0.000 
#    0.000    0.000    0.000    2.000    0.000    0.000 
#    0.000    0.000    0.000    0.000    0.000    0.000 
#
# Total GULP energy -133698.160307 kJ/mol
# GULP energy per Si atom -5570.756679 kJ/mol
# Density = 1.957495 g / cm^3
# Si number density = 19.619603 Si / 1000 Ang^3
#
#
#
# Elastic Constant Matrix: (Units=GPa)
#
#
# Indices 1 2 3 4 5 6 
#
# 1 151.6437 15.7182 51.7916 0.0000 10.2526 0.0000
# 2 15.7182 46.3481 21.1462 0.0000 -6.2415 0.0000
# 3 51.7916 21.1462 51.0572 0.0000 1.5053 0.0000
# 4 0.0000 0.0000 0.0000 19.1340 0.0000 -0.5343
# 5 10.2526 -6.2415 1.5053 0.0000 34.3667 0.0000
# 6 0.0000 0.0000 0.0000 -0.5343 0.0000 36.1079
#
#
#
# Elastic Compliance Matrix: (Units=1/GPa)
#
#
# Indices 1 2 3 4 5 6 
#
# 1 0.010368 0.001141 -0.010919 0.000000 -0.002408 0.000000
# 2 0.001141 0.027737 -0.012801 0.000000 0.005258 0.000000
# 3 -0.010919 -0.012801 0.035982 0.000000 -0.000643 0.000000
# 4 0.000000 0.000000 0.000000 0.052285 0.000000 0.000774
# 5 -0.002408 0.005258 -0.000643 0.000000 0.030799 0.000000
# 6 0.000000 0.000000 0.000000 0.000774 0.000000 0.027706
#
#
# Mechanical properties :
#
#
# Convention : Reuss Voigt Hill
#
# Bulk Modulus (GPa) = 34.56470 47.37346 40.96908
# Shear Modulus (GPa) = 20.86136 28.61459 24.73797
#
# Velocity S-wave (km/s) = 3.26435 3.82313 3.55474
# Velocity P-wave (km/s) = 5.64479 6.60960 6.14616
#
# Compressibility (1/GPa) = 0.02893125
#
# Stress axis : x y z
#
# Youngs Moduli (GPa) = 96.44985 36.05288 27.79135
#
# Poissons Ratio (x) = -0.04115 0.30345
# Poissons Ratio (y) = -0.11008 0.35574
# Poissons Ratio (z) = 1.05313 0.46150
#
# Static dielectric constant tensor:
#      x y z
#    x 1.723080 0.000000 0.015770 
#    y 0.000000 1.641220 0.000000 
#    z 0.015770 0.000000 1.805400 
# 
# From -- ./inp_files/96337.got.cif
#   From: 2010.05.17/outbox.cif.g08.bks.cpg/sg15_49_cif.got.tgz:96337.got - 2010.06.03 18:47:42.
