data_PCOD9281384
_publ_section_title
;
Structure prediction by ZEFSAII (Michael W. Deem and Ramdas Pophale) SiO2 
 PCOD9281384
Probable space group: C 2/C
;
_chemical_formula_sum "Si O2"
_cell_formula_units_Z 56
_cell_length_a 23.463611
_cell_length_b 22.085124
_cell_length_c 18.053275
_cell_angle_alpha 90.000000
_cell_angle_beta 17.519539
_cell_angle_gamma 90.000000
_cell_volume 2816.189906
_symmetry_space_group_name_H-M "C 2/C"
_symmetry_group_IT_number 15
_symmetry_cell_setting 'monoclinic'
loop_
_space_group_symop_operation_xyz
x,y,z
-x,y,1/2-z
-x,-y,-z
x,-y,1/2+z
1/2+x,1/2+y,z
1/2-x,1/2+y,1/2-z
1/2-x,1/2-y,-z
1/2+x,1/2-y,1/2+z
loop_
_atom_site_type_symbol
_atom_site_label
_atom_site_fract_x
_atom_site_fract_y
_atom_site_fract_z
Si Si1 0.806217 0.176859 0.772521
Si Si2 0.462444 0.729480 0.720535
Si Si3 0.082563 0.210513 0.026806
Si Si4 0.945491 0.548969 0.902277
Si Si5 0.318060 0.411117 0.028614
Si Si6 0.306498 0.830632 0.533276
Si Si7 0.325302 0.458625 0.188145
O O1 0.947689 0.191255 0.664488
O O2 0.888173 0.205207 0.596465
O O3 0.803094 0.105792 0.758054
O O4 0.607796 0.213593 0.032374
O O5 0.500000 0.693482 0.750000
O O6 0.250000 0.750000 0.000000
O O7 0.864248 0.190531 0.307244
O O8 0.196173 0.159509 0.930569
O O9 0.148215 0.275986 0.968694
O O10 0.000000 0.530972 0.750000
O O11 0.133021 0.571606 0.711628
O O12 0.788030 0.603294 0.092353
O O13 0.858362 0.496128 0.059431
O O14 0.336305 0.445111 0.085901
O O15 0.500000 0.420789 0.750000
O O16 0.500000 0.838532 0.250000
O O17 0.500000 0.500000 0.000000
#
# Coordination Sequence:
#
# PCOD9281384 Si02
#       7
#     8   8   8   8   8   8   8
#     4  10  21  38  61  90 120 155 198 252 313 374
#     4   9  19  38  62  89 120 153 198 258 319 376
#     4  11  21  35  59  89 121 156 200 255 314 375
#     4  11  23  40  61  87 122 165 209 255 307 375
#     4  11  22  41  63  88 121 161 208 262 317 376
#     4  11  21  35  56  87 122 160 200 249 307 372
#     4  11  24  43  64  90 126 168 212 261 315 382
#
# _framework density 19.885021999999999
#
# number of rings (size 3 to 8) (size 9 to 14) (size 15 to 20)
#    0.000    1.429    0.000    7.286    0.000    2.857 
#    0.000    7.857    0.000    0.000    0.000    0.000 
#    0.000    0.000    0.000    0.000    0.000    0.000 
#
# Total GULP energy -156162.835022 kJ/mol
# GULP energy per Si atom -5577.244108 kJ/mol
# Density = 1.983976 g / cm^3
# Si number density = 19.885022 Si / 1000 Ang^3
#
#
#
# Elastic Constant Matrix: (Units=GPa)
#
#
# Indices 1 2 3 4 5 6 
#
# 1 152.0177 53.6680 35.0013 -0.0394 16.1840 -0.0202
# 2 53.6680 110.0670 24.2837 0.0214 17.1351 0.0303
# 3 35.0013 24.2837 71.8039 -0.0111 6.2272 0.0580
# 4 -0.0394 0.0214 -0.0111 31.9137 0.0413 7.1896
# 5 16.1840 17.1351 6.2272 0.0413 36.4981 -0.0169
# 6 -0.0202 0.0303 0.0580 7.1896 -0.0169 34.1392
#
#
#
# Elastic Compliance Matrix: (Units=1/GPa)
#
#
# Indices 1 2 3 4 5 6 
#
# 1 0.008596 -0.003268 -0.002931 0.000012 -0.001777 0.000010
# 2 -0.003268 0.011706 -0.002045 -0.000006 -0.003698 -0.000009
# 3 -0.002931 -0.002045 0.016089 0.000011 -0.000485 -0.000030
# 4 0.000012 -0.000006 0.000011 0.032895 -0.000045 -0.006928
# 5 -0.001777 -0.003698 -0.000485 -0.000045 0.030006 0.000027
# 6 0.000010 -0.000009 -0.000030 -0.006928 0.000027 0.030751
#
#
# Mechanical properties :
#
#
# Convention : Reuss Voigt Hill
#
# Bulk Modulus (GPa) = 50.24369 62.19941 56.22155
# Shear Modulus (GPa) = 32.64460 35.23924 33.94192
#
# Velocity S-wave (km/s) = 4.05615 4.21426 4.13596
# Velocity P-wave (km/s) = 6.87447 7.41805 7.15143
#
# Compressibility (1/GPa) = 0.01990299
#
# Stress axis : x y z
#
# Youngs Moduli (GPa) = 116.33402 85.42858 62.15339
#
# Poissons Ratio (x) = 0.27918 0.18216
# Poissons Ratio (y) = 0.38018 0.12711
# Poissons Ratio (z) = 0.34095 0.17471
#
# Static dielectric constant tensor:
#      x y z
#    x 1.817500 -0.000120 -0.037200 
#    y -0.000120 1.879580 0.000040 
#    z -0.037200 0.000040 1.774730 
# 
# From -- ./inp_files/220175.got.cif
#   From: 2010.05.17/outbox.cif.g08.bks.cpg/sg15_111_cif.got.tgz:220175.got - 2010.06.03 18:47:42.
