data_PCOD9281802
_publ_section_title
;
Structure prediction by ZEFSAII (Michael W. Deem and Ramdas Pophale) SiO2 
 PCOD9281802
Probable space group: C 2/C
;
_chemical_formula_sum "Si O2"
_cell_formula_units_Z 44
_cell_length_a 25.142016
_cell_length_b 9.841686
_cell_length_c 8.429595
_cell_angle_alpha 90.000000
_cell_angle_beta 64.551203
_cell_angle_gamma 90.000000
_cell_volume 1883.429933
_symmetry_space_group_name_H-M "C 2/C"
_symmetry_group_IT_number 15
_symmetry_cell_setting 'monoclinic'
loop_
_space_group_symop_operation_xyz
x,y,z
-x,y,1/2-z
-x,-y,-z
x,-y,1/2+z
1/2+x,1/2+y,z
1/2-x,1/2+y,1/2-z
1/2-x,1/2-y,-z
1/2+x,1/2-y,1/2+z
loop_
_atom_site_type_symbol
_atom_site_label
_atom_site_fract_x
_atom_site_fract_y
_atom_site_fract_z
Si Si1 0.500000 0.317762 0.250000
Si Si2 0.460628 0.941251 0.626205
Si Si3 0.201073 0.685983 0.791523
Si Si4 0.374421 0.586232 0.959454
Si Si5 0.850368 0.437149 0.443070
Si Si6 0.337377 0.687960 0.658807
O O1 0.528471 0.213298 0.340942
O O2 0.554912 0.402214 0.113937
O O3 0.474265 0.987642 0.427281
O O4 0.321030 0.064736 0.566551
O O5 0.402671 0.010464 0.763665
O O6 0.195106 0.634426 0.619589
O O7 0.267885 0.718502 0.750191
O O8 0.158206 0.812682 0.877243
O O9 0.356825 0.639105 0.807525
O O10 0.352000 0.435698 0.022471
O O11 0.867049 0.323811 0.552201
#
# Coordination Sequence:
#
# PCOD9281802 Si02
#       6
#     4   8   8   8   8   8
#     4  10  24  42  68  90 140 176 228 276 338 408
#     4  10  21  38  64  96 129 167 223 275 329 392
#     4  12  23  45  70 102 140 179 231 290 342 416
#     4  12  25  47  67  97 142 185 229 286 348 412
#     4  12  23  41  71 104 134 179 229 283 344 403
#     4  12  27  43  69 103 138 184 232 282 355 409
#
# _framework density 23.361633999999999
#
# number of rings (size 3 to 8) (size 9 to 14) (size 15 to 20)
#    0.545    0.000    1.818    7.636    2.545    0.727 
#    1.636    0.000    0.000    0.000    0.000    0.000 
#    0.000    0.000    0.000    0.000    0.000    0.000 
#
# Total GULP energy -122974.905038 kJ/mol
# GULP energy per Si atom -5589.768411 kJ/mol
# Density = 2.330846 g / cm^3
# Si number density = 23.361634 Si / 1000 Ang^3
#
#
#
# Elastic Constant Matrix: (Units=GPa)
#
#
# Indices 1 2 3 4 5 6 
#
# 1 84.4916 3.2911 14.7885 0.0000 -15.6609 0.0000
# 2 3.2911 102.9077 44.4737 0.0000 -26.2796 0.0000
# 3 14.7885 44.4737 86.1594 0.0000 -18.0478 0.0000
# 4 0.0000 0.0000 0.0000 40.4700 0.0000 1.1868
# 5 -15.6609 -26.2796 -18.0478 0.0000 48.6876 0.0000
# 6 0.0000 0.0000 0.0000 1.1868 0.0000 36.0556
#
#
#
# Elastic Compliance Matrix: (Units=1/GPa)
#
#
# Indices 1 2 3 4 5 6 
#
# 1 0.012934 0.001598 -0.002161 0.000000 0.004222 0.000000
# 2 0.001598 0.013795 -0.006210 0.000000 0.005658 0.000000
# 3 -0.002161 -0.006210 0.015542 0.000000 0.001714 0.000000
# 4 0.000000 0.000000 0.000000 0.024734 0.000000 -0.000814
# 5 0.004222 0.005658 0.001714 0.000000 0.025587 0.000000
# 6 0.000000 0.000000 0.000000 -0.000814 0.000000 0.027762
#
#
# Mechanical properties :
#
#
# Convention : Reuss Voigt Hill
#
# Bulk Modulus (GPa) = 34.81104 44.29616 39.55360
# Shear Modulus (GPa) = 34.84991 39.10966 36.97978
#
# Velocity S-wave (km/s) = 3.86652 4.09601 3.98292
# Velocity P-wave (km/s) = 5.90479 6.43211 6.17408
#
# Compressibility (1/GPa) = 0.02872652
#
# Stress axis : x y z
#
# Youngs Moduli (GPa) = 77.31557 72.49029 64.34304
#
# Poissons Ratio (x) = -0.11586 0.13902
# Poissons Ratio (y) = -0.12358 0.39956
# Poissons Ratio (z) = 0.16705 0.45015
#
# Static dielectric constant tensor:
#      x y z
#    x 1.927570 0.000000 0.078390 
#    y 0.000000 1.838230 0.000000 
#    z 0.078390 0.000000 1.902280 
# 
# From -- ./inp_files/60483.got.cif
#   From: 2010.05.17/outbox.cif.g08.bks.cpg/sg15_31_cif.got.tgz:60483.got - 2010.06.03 18:47:42.
