data_PCOD9281354
_publ_section_title
;
Structure prediction by ZEFSAII (Michael W. Deem and Ramdas Pophale) SiO2 
 PCOD9281354
Probable space group: C 2/C
;
_chemical_formula_sum "Si O2"
_cell_formula_units_Z 56
_cell_length_a 5.141049
_cell_length_b 30.008372
_cell_length_c 19.177868
_cell_angle_alpha 90.000000
_cell_angle_beta 112.913281
_cell_angle_gamma 90.000000
_cell_volume 2725.203979
_symmetry_space_group_name_H-M "C 2/C"
_symmetry_group_IT_number 15
_symmetry_cell_setting 'monoclinic'
loop_
_space_group_symop_operation_xyz
x,y,z
-x,y,1/2-z
-x,-y,-z
x,-y,1/2+z
1/2+x,1/2+y,z
1/2-x,1/2+y,1/2-z
1/2-x,1/2-y,-z
1/2+x,1/2-y,1/2+z
loop_
_atom_site_type_symbol
_atom_site_label
_atom_site_fract_x
_atom_site_fract_y
_atom_site_fract_z
Si Si1 0.283522 0.867565 0.076761
Si Si2 0.435161 0.731266 0.956910
Si Si3 0.012403 0.070000 0.052263
Si Si4 0.888653 0.898987 0.159881
Si Si5 0.714858 0.517842 0.936421
Si Si6 0.619012 0.144674 0.340977
Si Si7 0.122614 0.200188 0.339669
O O1 0.117200 0.821275 0.050207
O O2 0.620621 0.865971 0.122268
O O3 0.138294 0.888165 0.131035
O O4 0.232205 0.897095 0.001597
O O5 0.282221 0.754717 0.875833
O O6 0.250000 0.750000 0.000000
O O7 0.750000 0.750000 0.000000
O O8 0.246388 0.101086 0.111096
O O9 0.091431 0.046174 0.987855
O O10 0.945710 0.028385 0.095217
O O11 0.773473 0.948237 0.126504
O O12 0.000000 0.897613 0.250000
O O13 0.000000 0.500000 0.000000
O O14 0.500000 0.137175 0.250000
O O15 0.363974 0.162533 0.361247
O O16 0.864474 0.182394 0.359841
O O17 0.000000 0.204713 0.250000
#
# Coordination Sequence:
#
# PCOD9281354 Si02
#       7
#     8   8   8   8   8   8   8
#     4  11  23  40  65  90 125 167 204 257 315 364
#     4  12  24  40  64  98 123 159 215 259 301 365
#     4  10  21  38  61  87 121 157 203 252 309 374
#     4  11  24  43  62  91 126 166 211 258 310 375
#     4  10  21  40  61  87 120 163 202 253 318 362
#     4  10  22  40  62  91 120 159 200 249 308 366
#     4  10  22  40  60  85 127 162 194 247 315 365
#
# _framework density 20.548919000000001
#
# number of rings (size 3 to 8) (size 9 to 14) (size 15 to 20)
#    0.000    1.429    1.429    3.857    2.000    2.286 
#    2.571    1.429    0.000    0.000    0.000    0.000 
#    0.000    0.000    0.000    0.000    0.000    0.000 
#
# Total GULP energy -156243.893791 kJ/mol
# GULP energy per Si atom -5580.139064 kJ/mol
# Density = 2.050215 g / cm^3
# Si number density = 20.548919 Si / 1000 Ang^3
#
#
#
# Elastic Constant Matrix: (Units=GPa)
#
#
# Indices 1 2 3 4 5 6 
#
# 1 80.9635 -6.1753 12.8350 0.0000 11.8130 0.0000
# 2 -6.1753 84.4150 23.2014 0.0000 7.5021 0.0000
# 3 12.8350 23.2014 63.0532 0.0000 11.2419 0.0000
# 4 0.0000 0.0000 0.0000 34.3943 0.0000 9.9402
# 5 11.8130 7.5021 11.2419 0.0000 30.3137 0.0000
# 6 0.0000 0.0000 0.0000 9.9402 0.0000 27.7865
#
#
#
# Elastic Compliance Matrix: (Units=1/GPa)
#
#
# Indices 1 2 3 4 5 6 
#
# 1 0.013656 0.002177 -0.002715 0.000000 -0.004853 0.000000
# 2 0.002177 0.013596 -0.005027 0.000000 -0.002349 0.000000
# 3 -0.002715 -0.005027 0.019116 0.000000 -0.004787 0.000000
# 4 0.000000 0.000000 0.000000 0.032427 0.000000 -0.011600
# 5 -0.004853 -0.002349 -0.004787 0.000000 0.037236 0.000000
# 6 0.000000 0.000000 0.000000 -0.011600 0.000000 0.040139
#
#
# Mechanical properties :
#
#
# Convention : Reuss Voigt Hill
#
# Bulk Modulus (GPa) = 28.38044 32.01709 30.19876
# Shear Modulus (GPa) = 27.92575 31.73693 29.83134
#
# Velocity S-wave (km/s) = 3.69045 3.93422 3.81428
# Velocity P-wave (km/s) = 5.65688 6.02098 5.84177
#
# Compressibility (1/GPa) = 0.03523554
#
# Stress axis : x y z
#
# Youngs Moduli (GPa) = 73.22874 73.55158 52.31325
#
# Poissons Ratio (x) = -0.16009 0.14205
# Poissons Ratio (y) = -0.15939 0.26299
# Poissons Ratio (z) = 0.19884 0.36975
#
# Static dielectric constant tensor:
#      x y z
#    x 1.783890 0.000000 0.056320 
#    y 0.000000 1.927420 0.000000 
#    z 0.056320 0.000000 1.616540 
# 
# From -- ./inp_files/228543.got.cif
#   From: 2010.05.17/outbox.cif.g08.bks.cpg/sg15_115_cif.got.tgz:228543.got - 2010.06.03 18:47:42.
