data_PCOD9281290
_publ_section_title
;
Structure prediction by ZEFSAII (Michael W. Deem and Ramdas Pophale) SiO2 
 PCOD9281290
Probable space group: C 2/C
;
_chemical_formula_sum "Si O2"
_cell_formula_units_Z 56
_cell_length_a 12.695110
_cell_length_b 23.981569
_cell_length_c 9.576091
_cell_angle_alpha 90.000000
_cell_angle_beta 70.381804
_cell_angle_gamma 90.000000
_cell_volume 2746.189985
_symmetry_space_group_name_H-M "C 2/C"
_symmetry_group_IT_number 15
_symmetry_cell_setting 'monoclinic'
loop_
_space_group_symop_operation_xyz
x,y,z
-x,y,1/2-z
-x,-y,-z
x,-y,1/2+z
1/2+x,1/2+y,z
1/2-x,1/2+y,1/2-z
1/2-x,1/2-y,-z
1/2+x,1/2-y,1/2+z
loop_
_atom_site_type_symbol
_atom_site_label
_atom_site_fract_x
_atom_site_fract_y
_atom_site_fract_z
Si Si1 0.069708 0.844578 0.358571
Si Si2 0.500000 0.021456 0.250000
Si Si3 0.201734 0.052812 0.228257
Si Si4 0.445914 0.923729 0.501879
Si Si5 0.908265 0.832536 0.666853
Si Si6 0.000000 0.333419 0.250000
Si Si7 0.726438 0.235221 0.672089
Si Si8 0.384534 0.466784 0.035885
O O1 0.175378 0.802993 0.307927
O O2 0.107992 0.903809 0.409231
O O3 0.000000 0.856109 0.250000
O O4 0.978859 0.816981 0.500956
O O5 0.488400 0.067514 0.382812
O O6 0.461403 0.972921 0.381199
O O7 0.320326 0.072567 0.117955
O O8 0.135340 0.104302 0.323364
O O9 0.207099 0.002285 0.336007
O O10 0.139272 0.033464 0.117063
O O11 0.474275 0.869697 0.399374
O O12 0.802735 0.793200 0.739982
O O13 0.000000 0.829738 0.750000
O O14 0.110024 0.297765 0.229281
O O15 0.750000 0.250000 0.500000
O O16 0.500000 0.500000 0.000000
#
# Coordination Sequence:
#
# PCOD9281290 Si02
#       8
#     8   4   8   8   8   4   8   8
#     4  12  26  43  66 102 139 171 218 280 342 398
#     4   9  20  40  58  84 134 172 212 279 314 390
#     4  12  23  38  67  98 130 179 217 269 338 405
#     4  10  21  38  60  91 128 170 223 265 327 393
#     4  12  22  44  68  95 129 171 228 271 330 404
#     4  11  22  40  68  96 120 168 232 271 326 398
#     4  12  23  44  75  94 127 177 228 279 331 404
#     4  12  22  39  62  97 138 172 213 269 331 408
#
# _framework density 20.39189
#
# number of rings (size 3 to 8) (size 9 to 14) (size 15 to 20)
#    0.000    0.571    5.000    3.857    0.000    2.857 
#    2.571    0.000    7.857    0.000    0.000    0.000 
#    0.000    0.000    0.000    0.000    0.000    0.000 
#
# Total GULP energy -155934.939326 kJ/mol
# GULP energy per Si atom -5569.104976 kJ/mol
# Density = 2.034548 g / cm^3
# Si number density = 20.391890 Si / 1000 Ang^3
#
#
#
# Elastic Constant Matrix: (Units=GPa)
#
#
# Indices 1 2 3 4 5 6 
#
# 1 84.3253 15.6475 -2.6648 0.0000 -20.6172 0.0000
# 2 15.6475 88.2716 12.9087 0.0000 -5.3584 0.0000
# 3 -2.6648 12.9087 86.5047 0.0000 -10.1566 0.0000
# 4 0.0000 0.0000 0.0000 35.4471 0.0000 -14.9531
# 5 -20.6172 -5.3584 -10.1566 0.0000 37.4810 0.0000
# 6 0.0000 0.0000 0.0000 -14.9531 0.0000 12.8658
#
#
#
# Elastic Compliance Matrix: (Units=1/GPa)
#
#
# Indices 1 2 3 4 5 6 
#
# 1 0.014297 -0.002301 0.001723 0.000000 0.008002 0.000000
# 2 -0.002301 0.012006 -0.001869 0.000000 -0.000055 0.000000
# 3 0.001723 -0.001869 0.012365 0.000000 0.004031 0.000000
# 4 0.000000 0.000000 0.000000 0.055346 0.000000 0.064325
# 5 0.008002 -0.000055 0.004031 0.000000 0.032167 0.000000
# 6 0.000000 0.000000 0.000000 0.064325 0.000000 0.152487
#
#
# Mechanical properties :
#
#
# Convention : Reuss Voigt Hill
#
# Bulk Modulus (GPa) = 29.60691 34.54270 32.07481
# Shear Modulus (GPa) = 16.95955 32.70613 24.83284
#
# Velocity S-wave (km/s) = 2.88702 4.00919 3.49346
# Velocity P-wave (km/s) = 5.06593 6.19739 5.66001
#
# Compressibility (1/GPa) = 0.03377590
#
# Stress axis : x y z
#
# Youngs Moduli (GPa) = 69.94612 83.28869 80.87084
#
# Poissons Ratio (x) = 0.19161 -0.13936
# Poissons Ratio (y) = 0.16091 0.15115
# Poissons Ratio (z) = -0.12054 0.15567
#
# Static dielectric constant tensor:
#      x y z
#    x 1.754430 0.000000 0.036250 
#    y 0.000000 1.769890 0.000000 
#    z 0.036250 0.000000 1.792510 
# 
# From -- ./inp_files/34254.got.cif
#   From: 2010.05.17/outbox.cif.g08.bks.cpg/sg15_18_cif.got.tgz:34254.got - 2010.06.03 18:47:42.
