data_PCOD9281831
_publ_section_title
;
Structure prediction by ZEFSAII (Michael W. Deem and Ramdas Pophale) SiO2 
 PCOD9281831
Probable space group: C 2/C
;
_chemical_formula_sum "Si O2"
_cell_formula_units_Z 48
_cell_length_a 16.780584
_cell_length_b 30.137271
_cell_length_c 9.176233
_cell_angle_alpha 90.000000
_cell_angle_beta 149.752813
_cell_angle_gamma 90.000000
_cell_volume 2337.623653
_symmetry_space_group_name_H-M "C 2/C"
_symmetry_group_IT_number 15
_symmetry_cell_setting 'monoclinic'
loop_
_space_group_symop_operation_xyz
x,y,z
-x,y,1/2-z
-x,-y,-z
x,-y,1/2+z
1/2+x,1/2+y,z
1/2-x,1/2+y,1/2-z
1/2-x,1/2-y,-z
1/2+x,1/2-y,1/2+z
loop_
_atom_site_type_symbol
_atom_site_label
_atom_site_fract_x
_atom_site_fract_y
_atom_site_fract_z
Si Si1 0.455421 0.714126 0.350227
Si Si2 0.351696 0.099413 0.619587
Si Si3 0.479773 0.374392 0.045192
Si Si4 0.141694 0.034149 0.756850
Si Si5 0.410818 0.191962 0.761789
Si Si6 0.324460 0.986001 0.265784
O O1 0.500000 0.713329 0.250000
O O2 0.528654 0.672576 0.550439
O O3 0.483627 0.764333 0.453272
O O4 0.268384 0.705206 0.057020
O O5 0.500000 0.087113 0.750000
O O6 0.404134 0.141249 0.804596
O O7 0.295458 0.058695 0.628145
O O8 0.202053 0.115030 0.286792
O O9 0.500000 0.371644 0.250000
O O10 0.581733 0.415826 0.148763
O O11 0.282260 0.023384 0.865642
O O12 0.000000 0.000000 0.500000
O O13 0.206554 0.023708 0.019848
O O14 0.500000 0.187423 0.750000
O O15 0.500000 0.000000 0.500000
#
# Coordination Sequence:
#
# PCOD9281831 Si02
#       6
#     8   8   8   8   8   8
#     4   9  18  33  62  90 117 154 209 251 295 358
#     4  10  21  38  65  89 121 165 211 248 303 369
#     4  11  24  38  61  93 129 162 199 257 316 365
#     4  12  25  41  63  89 125 158 203 256 307 366
#     4   8  16  33  58  89 114 154 203 250 288 356
#     4  12  26  43  63  90 120 164 208 252 307 370
#
# _framework density 20.533674000000001
#
# number of rings (size 3 to 8) (size 9 to 14) (size 15 to 20)
#    0.000    1.667    1.667    3.000    7.000    0.000 
#    0.000    0.000    0.000   38.000    0.000    0.000 
#    0.000    0.000    0.000    0.000    0.000    0.000 
#
# Total GULP energy -133865.845687 kJ/mol
# GULP energy per Si atom -5577.743570 kJ/mol
# Density = 2.048694 g / cm^3
# Si number density = 20.533674 Si / 1000 Ang^3
#
#
#
# Elastic Constant Matrix: (Units=GPa)
#
#
# Indices 1 2 3 4 5 6 
#
# 1 79.0096 13.7627 14.5016 0.0000 6.6182 0.0000
# 2 13.7627 148.0884 20.0318 0.0000 -7.4170 0.0000
# 3 14.5016 20.0318 47.0915 0.0000 -1.5658 0.0000
# 4 0.0000 0.0000 0.0000 19.2996 0.0000 11.7886
# 5 6.6182 -7.4170 -1.5658 0.0000 28.7212 0.0000
# 6 0.0000 0.0000 0.0000 11.7886 0.0000 17.6811
#
#
#
# Elastic Compliance Matrix: (Units=1/GPa)
#
#
# Indices 1 2 3 4 5 6 
#
# 1 0.013858 -0.000931 -0.003993 0.000000 -0.003651 0.000000
# 2 -0.000931 0.007310 -0.002758 0.000000 0.001952 0.000000
# 3 -0.003993 -0.002758 0.023688 0.000000 0.001499 0.000000
# 4 0.000000 0.000000 0.000000 0.087414 0.000000 -0.058282
# 5 -0.003651 0.001952 0.001499 0.000000 0.036245 0.000000
# 6 0.000000 0.000000 0.000000 -0.058282 0.000000 0.095416
#
#
# Mechanical properties :
#
#
# Convention : Reuss Voigt Hill
#
# Bulk Modulus (GPa) = 33.90711 41.19797 37.55254
# Shear Modulus (GPa) = 17.29361 28.19993 22.74677
#
# Velocity S-wave (km/s) = 2.90523 3.70989 3.33194
# Velocity P-wave (km/s) = 5.27282 6.20147 5.75590
#
# Compressibility (1/GPa) = 0.02949234
#
# Stress axis : x y z
#
# Youngs Moduli (GPa) = 72.16305 136.79795 42.21557
#
# Poissons Ratio (x) = 0.12731 0.16856
# Poissons Ratio (y) = 0.06716 0.11643
# Poissons Ratio (z) = 0.28814 0.37730
#
# Static dielectric constant tensor:
#      x y z
#    x 1.731510 0.000000 -0.019650 
#    y 0.000000 1.831900 0.000000 
#    z -0.019650 0.000000 1.739150 
# 
# From -- ./inp_files/52887.got.cif
#   From: 2010.05.17/outbox.cif.g08.bks.cpg/sg15_27_cif.got.tgz:52887.got - 2010.06.03 18:47:42.
