data_PCOD9281436
_publ_section_title
;
Structure prediction by ZEFSAII (Michael W. Deem and Ramdas Pophale) SiO2 
 PCOD9281436
Probable space group: C 2/C
;
_chemical_formula_sum "Si O2"
_cell_formula_units_Z 40
_cell_length_a 14.330505
_cell_length_b 24.006995
_cell_length_c 11.445400
_cell_angle_alpha 90.000000
_cell_angle_beta 29.413195
_cell_angle_gamma 90.000000
_cell_volume 1933.766702
_symmetry_space_group_name_H-M "C 2/C"
_symmetry_group_IT_number 15
_symmetry_cell_setting 'monoclinic'
loop_
_space_group_symop_operation_xyz
x,y,z
-x,y,1/2-z
-x,-y,-z
x,-y,1/2+z
1/2+x,1/2+y,z
1/2-x,1/2+y,1/2-z
1/2-x,1/2-y,-z
1/2+x,1/2-y,1/2+z
loop_
_atom_site_type_symbol
_atom_site_label
_atom_site_fract_x
_atom_site_fract_y
_atom_site_fract_z
Si Si1 0.780352 0.983990 0.247220
Si Si2 0.283642 0.607837 0.934164
Si Si3 0.640288 0.168357 0.310720
Si Si4 0.040803 0.208110 0.844436
Si Si5 0.483381 0.922786 0.130099
O O1 0.739801 0.946046 0.405915
O O2 0.707859 0.949252 0.214361
O O3 0.653303 0.039008 0.393949
O O4 0.000000 0.000000 0.000000
O O5 0.500000 0.600357 0.750000
O O6 0.293289 0.662209 0.839048
O O7 0.152003 0.627220 0.184922
O O8 0.577928 0.231053 0.351023
O O9 0.519508 0.138413 0.540435
O O10 0.862462 0.178200 0.098843
O O11 0.000000 0.216235 0.750000
O O12 0.500000 0.924438 0.250000
#
# Coordination Sequence:
#
# PCOD9281436 Si02
#       5
#     8   8   8   8   8
#     4  11  25  44  70  93 127 177 216 270 330 396
#     4   9  19  35  67  99 125 158 214 276 338 381
#     4  10  21  38  61  95 128 167 212 275 327 383
#     4   9  18  34  61  98 125 157 211 272 337 384
#     4  11  28  44  61  95 134 174 222 269 321 390
#
# _framework density 20.685020000000002
#
# number of rings (size 3 to 8) (size 9 to 14) (size 15 to 20)
#    0.000    2.400    0.000    4.800   14.000    0.000 
#    0.000    1.000    0.000    0.000    0.000    0.000 
#    0.000    0.000    0.000    0.000    0.000    0.000 
#
# Total GULP energy -111733.139097 kJ/mol
# GULP energy per Si atom -5586.656955 kJ/mol
# Density = 2.063794 g / cm^3
# Si number density = 20.685020 Si / 1000 Ang^3
#
#
#
# Elastic Constant Matrix: (Units=GPa)
#
#
# Indices 1 2 3 4 5 6 
#
# 1 79.8334 21.8657 26.9297 0.0006 1.3143 -0.0001
# 2 21.8657 100.9104 14.3394 -0.0003 2.0367 0.0003
# 3 26.9297 14.3394 70.2552 -0.0017 -12.1724 0.0025
# 4 0.0006 -0.0003 -0.0017 25.2658 0.0000 -1.5780
# 5 1.3143 2.0367 -12.1724 0.0000 26.5839 -0.0005
# 6 -0.0001 0.0003 0.0025 -1.5780 -0.0005 25.3809
#
#
#
# Elastic Compliance Matrix: (Units=1/GPa)
#
#
# Indices 1 2 3 4 5 6 
#
# 1 0.015232 -0.002393 -0.005918 -0.000001 -0.003280 0.000001
# 2 -0.002393 0.010670 -0.001500 0.000000 -0.001386 0.000000
# 3 -0.005918 -0.001500 0.018334 0.000001 0.008802 -0.000002
# 4 -0.000001 0.000000 0.000001 0.039734 0.000001 0.002470
# 5 -0.003280 -0.001386 0.008802 0.000001 0.041915 0.000000
# 6 0.000001 0.000000 -0.000002 0.002470 0.000000 0.039553
#
#
# Mechanical properties :
#
#
# Convention : Reuss Voigt Hill
#
# Bulk Modulus (GPa) = 40.63229 41.91875 41.27552
# Shear Modulus (GPa) = 25.87113 27.97039 26.92076
#
# Velocity S-wave (km/s) = 3.54039 3.68122 3.61149
# Velocity P-wave (km/s) = 6.03311 6.19498 6.11458
#
# Compressibility (1/GPa) = 0.02461097
#
# Stress axis : x y z
#
# Youngs Moduli (GPa) = 65.65128 93.72446 54.54429
#
# Poissons Ratio (x) = 0.22431 0.32281
# Poissons Ratio (y) = 0.15713 0.08184
# Poissons Ratio (z) = 0.38855 0.14063
#
# Static dielectric constant tensor:
#      x y z
#    x 1.779750 0.000000 -0.069220 
#    y 0.000000 1.738190 0.000000 
#    z -0.069220 0.000000 1.773080 
# 
# From -- ./inp_files/100576.got.cif
#   From: 2010.05.17/outbox.cif.g08.bks.cpg/sg15_51_cif.got.tgz:100576.got - 2010.06.03 18:47:42.
