data_PCOD9281506
_publ_section_title
;
Structure prediction by ZEFSAII (Michael W. Deem and Ramdas Pophale) SiO2 
 PCOD9281506
Probable space group: C 2/C
;
_chemical_formula_sum "Si O2"
_cell_formula_units_Z 56
_cell_length_a 11.578231
_cell_length_b 11.389641
_cell_length_c 17.291491
_cell_angle_alpha 90.000000
_cell_angle_beta 113.068701
_cell_angle_gamma 90.000000
_cell_volume 2097.922108
_symmetry_space_group_name_H-M "C 2/C"
_symmetry_group_IT_number 15
_symmetry_cell_setting 'monoclinic'
loop_
_space_group_symop_operation_xyz
x,y,z
-x,y,1/2-z
-x,-y,-z
x,-y,1/2+z
1/2+x,1/2+y,z
1/2-x,1/2+y,1/2-z
1/2-x,1/2-y,-z
1/2+x,1/2-y,1/2+z
loop_
_atom_site_type_symbol
_atom_site_label
_atom_site_fract_x
_atom_site_fract_y
_atom_site_fract_z
Si Si1 0.755851 0.762206 0.872991
Si Si2 0.256741 0.714599 0.187688
Si Si3 0.110594 0.001838 0.617875
Si Si4 0.108667 0.129198 0.462791
Si Si5 0.511071 0.882574 0.847036
Si Si6 0.354788 0.461336 0.204071
Si Si7 0.377663 0.867688 0.085513
O O1 0.765617 0.767695 0.781817
O O2 0.739119 0.619417 0.871373
O O3 0.833831 0.884347 0.908084
O O4 0.630097 0.798186 0.886834
O O5 0.337740 0.599788 0.187854
O O6 0.320648 0.814477 0.150688
O O7 0.111062 0.671900 0.144342
O O8 0.094143 0.098307 0.548710
O O9 0.182422 0.040928 0.712920
O O10 0.969580 0.967121 0.602991
O O11 0.258886 0.122504 0.496179
O O12 0.050212 0.255884 0.428984
O O13 0.500000 0.890251 0.750000
O O14 0.547660 0.013200 0.884706
O O15 0.500000 0.415708 0.250000
#
# Coordination Sequence:
#
# PCOD9281506 Si02
#       7
#     8   8   8   8   8   8   8
#     4  10  21  38  62  90 126 163 200 267 339 383
#     4  10  23  37  64  97 125 160 214 276 329 383
#     4  10  21  40  63  89 127 167 212 252 323 396
#     4  10  22  38  63  89 124 178 214 253 310 392
#     4  10  22  40  63  98 127 166 215 275 341 390
#     4  11  22  38  64  97 126 156 206 277 332 386
#     4  11  22  41  65  90 130 172 218 268 316 390
#
# _framework density 26.693079999999998
#
# number of rings (size 3 to 8) (size 9 to 14) (size 15 to 20)
#    0.000    1.714    1.429    3.000    6.000    1.714 
#    0.000    2.857    6.286    3.429    0.000    0.000 
#    0.000    0.000    0.000    0.000    0.000    0.000 
#
# Total GULP energy -156053.164536 kJ/mol
# GULP energy per Si atom -5573.327305 kJ/mol
# Density = 2.663233 g / cm^3
# Si number density = 26.693080 Si / 1000 Ang^3
#
#
#
# Elastic Constant Matrix: (Units=GPa)
#
#
# Indices 1 2 3 4 5 6 
#
# 1 81.0792 6.4946 -10.2207 0.0000 -13.0620 0.0000
# 2 6.4946 99.5861 7.6235 0.0000 2.8076 0.0000
# 3 -10.2207 7.6235 40.6524 0.0000 -3.1184 0.0000
# 4 0.0000 0.0000 0.0000 1238.5760 0.0000 24.3104
# 5 -13.0620 2.8076 -3.1184 0.0000 22.2556 0.0000
# 6 0.0000 0.0000 0.0000 24.3104 0.0000 49.3747
#
#
#
# Elastic Compliance Matrix: (Units=1/GPa)
#
#
# Indices 1 2 3 4 5 6 
#
# 1 0.014564 -0.001573 0.004678 0.000000 0.009402 0.000000
# 2 -0.001573 0.010412 -0.002547 0.000000 -0.002594 0.000000
# 3 0.004678 -0.002547 0.026776 0.000000 0.006818 0.000000
# 4 0.000000 0.000000 0.000000 0.000815 0.000000 -0.000401
# 5 0.009402 -0.002594 0.006818 0.000000 0.051733 0.000000
# 6 0.000000 0.000000 0.000000 -0.000401 0.000000 0.020451
#
#
# Mechanical properties :
#
#
# Convention : Reuss Voigt Hill
#
# Bulk Modulus (GPa) = 18.91528 25.45694 22.18611
# Shear Modulus (GPa) = 35.39635 276.53595 155.96615
#
# Velocity S-wave (km/s) = 3.64545 10.18937 7.65221
# Velocity P-wave (km/s) = 4.98203 12.16506 9.29541
#
# Compressibility (1/GPa) = 0.05286731
#
# Stress axis : x y z
#
# Youngs Moduli (GPa) = 68.66300 96.04082 37.34748
#
# Poissons Ratio (x) = 0.15107 -0.17470
# Poissons Ratio (y) = 0.10800 0.09512
# Poissons Ratio (z) = -0.32119 0.24462
#
# Static dielectric constant tensor:
#      x y z
#    x 2.241730 0.000000 -0.032980 
#    y 0.000000 2.196600 0.000000 
#    z -0.032980 0.000000 2.186210 
# 
# From -- ./inp_files/237656.got.cif
#   From: 2010.05.17/outbox.cif.g08.bks.cpg/sg15_119_cif.got.tgz:237656.got - 2010.06.03 18:47:42.
