data_PCOD9281888
_publ_section_title
;
Structure prediction by ZEFSAII (Michael W. Deem and Ramdas Pophale) SiO2 
 PCOD9281888
Probable space group: C 2/C
;
_chemical_formula_sum "Si O2"
_cell_formula_units_Z 32
_cell_length_a 10.042976
_cell_length_b 9.448598
_cell_length_c 21.748819
_cell_angle_alpha 90.000000
_cell_angle_beta 35.704225
_cell_angle_gamma 90.000000
_cell_volume 1204.430022
_symmetry_space_group_name_H-M "C 2/C"
_symmetry_group_IT_number 15
_symmetry_cell_setting 'monoclinic'
loop_
_space_group_symop_operation_xyz
x,y,z
-x,y,1/2-z
-x,-y,-z
x,-y,1/2+z
1/2+x,1/2+y,z
1/2-x,1/2+y,1/2-z
1/2-x,1/2-y,-z
1/2+x,1/2-y,1/2+z
loop_
_atom_site_type_symbol
_atom_site_label
_atom_site_fract_x
_atom_site_fract_y
_atom_site_fract_z
Si Si1 0.405933 0.689082 0.388801
Si Si2 0.151174 0.585351 0.303386
Si Si3 0.500000 0.879640 0.250000
Si Si4 0.500000 0.386672 0.250000
Si Si5 0.314117 0.902236 0.033931
O O1 0.250000 0.750000 0.500000
O O2 0.679404 0.704887 0.286750
O O3 0.341565 0.769126 0.348956
O O4 0.366249 0.523305 0.415686
O O5 0.076645 0.485016 0.275558
O O6 0.317496 0.492075 0.285347
O O7 0.947130 0.643152 0.423018
O O8 0.668507 0.310536 0.137714
O O9 0.500000 0.000000 0.000000
#
# Coordination Sequence:
#
# PCOD9281888 Si02
#       5
#     8   8   4   4   8
#     4  11  22  40  64  96 132 176 218 270 341 403
#     4  10  21  38  65  97 131 177 223 277 333 392
#     4  12  23  40  69 100 132 174 229 278 333 392
#     4   8  17  34  61  88 124 174 211 252 335 392
#     4   9  16  35  62  88 121 170 219 263 323 393
#
# _framework density 26.568584000000001
#
# number of rings (size 3 to 8) (size 9 to 14) (size 15 to 20)
#    0.000    2.000    2.500    4.500    0.000    1.000 
#    0.000    1.250    0.000   19.500    0.000    0.000 
#    0.000    0.000    0.000    0.000    0.000    0.000 
#
# Total GULP energy -89121.241510 kJ/mol
# GULP energy per Si atom -5570.077594 kJ/mol
# Density = 2.650811 g / cm^3
# Si number density = 26.568584 Si / 1000 Ang^3
#
#
#
# Elastic Constant Matrix: (Units=GPa)
#
#
# Indices 1 2 3 4 5 6 
#
# 1 112.8728 26.3568 66.3720 0.0000 30.8835 0.0000
# 2 26.3568 67.1013 44.3676 0.0000 13.1094 0.0000
# 3 66.3720 44.3676 354.8145 0.0001 44.3224 0.0000
# 4 0.0000 0.0000 0.0001 39.1138 0.0000 10.6247
# 5 30.8835 13.1094 44.3224 0.0000 45.0044 0.0000
# 6 0.0000 0.0000 0.0000 10.6247 0.0000 48.4755
#
#
#
# Elastic Compliance Matrix: (Units=1/GPa)
#
#
# Indices 1 2 3 4 5 6 
#
# 1 0.011850 -0.002706 -0.001096 0.000000 -0.006264 0.000000
# 2 -0.002706 0.017256 -0.001432 0.000000 -0.001759 0.000000
# 3 -0.001096 -0.001432 0.003485 0.000000 -0.002263 0.000000
# 4 0.000000 0.000000 0.000000 0.027185 0.000000 -0.005958
# 5 -0.006264 -0.001759 -0.002263 0.000000 0.029260 0.000000
# 6 0.000000 0.000000 0.000000 -0.005958 0.000000 0.021935
#
#
# Mechanical properties :
#
#
# Convention : Reuss Voigt Hill
#
# Bulk Modulus (GPa) = 45.20029 89.88683 67.54356
# Shear Modulus (GPa) = 38.81592 53.03155 45.92373
#
# Velocity S-wave (km/s) = 3.82641 4.47254 4.16203
# Velocity P-wave (km/s) = 6.04744 7.78312 6.96952
#
# Compressibility (1/GPa) = 0.02212375
#
# Stress axis : x y z
#
# Youngs Moduli (GPa) = 84.39002 57.95007 286.93538
#
# Poissons Ratio (x) = 0.15682 0.31440
# Poissons Ratio (y) = 0.22837 0.41083
# Poissons Ratio (z) = 0.09247 0.08297
#
# Static dielectric constant tensor:
#      x y z
#    x 1.848090 0.000000 0.274380 
#    y 0.000000 -0.136380 0.000000 
#    z 0.274380 0.000000 2.197400 
# 
# From -- ./inp_files/84565.got.cif
#   From: 2010.05.17/outbox.cif.g08.bks.cpg/sg15_43_cif.got.tgz:84565.got - 2010.06.03 18:47:42.
