data_PCOD9281680
_publ_section_title
;
Structure prediction by ZEFSAII (Michael W. Deem and Ramdas Pophale) SiO2 
 PCOD9281680
Probable space group: C 2/C
;
_chemical_formula_sum "Si O2"
_cell_formula_units_Z 44
_cell_length_a 16.662123
_cell_length_b 13.606681
_cell_length_c 10.985087
_cell_angle_alpha 90.000000
_cell_angle_beta 48.808094
_cell_angle_gamma 90.000000
_cell_volume 1874.118872
_symmetry_space_group_name_H-M "C 2/C"
_symmetry_group_IT_number 15
_symmetry_cell_setting 'monoclinic'
loop_
_space_group_symop_operation_xyz
x,y,z
-x,y,1/2-z
-x,-y,-z
x,-y,1/2+z
1/2+x,1/2+y,z
1/2-x,1/2+y,1/2-z
1/2-x,1/2-y,-z
1/2+x,1/2-y,1/2+z
loop_
_atom_site_type_symbol
_atom_site_label
_atom_site_fract_x
_atom_site_fract_y
_atom_site_fract_z
Si Si1 0.257235 0.696386 0.121538
Si Si2 0.500000 0.193321 0.750000
Si Si3 0.326467 0.362136 0.906267
Si Si4 0.273145 0.883716 0.226481
Si Si5 0.870378 0.592184 0.074714
Si Si6 0.113010 0.073764 0.667942
O O1 0.316930 0.776099 0.145389
O O2 0.146393 0.659474 0.289592
O O3 0.250000 0.750000 0.000000
O O4 0.318498 0.597921 0.021596
O O5 0.399981 0.266161 0.829222
O O6 0.529260 0.123484 0.606707
O O7 0.231796 0.373437 0.903529
O O8 0.396544 0.457636 0.809900
O O9 0.272945 0.375442 0.092386
O O10 0.173964 0.894381 0.229805
O O11 0.349945 0.977180 0.124459
O O12 0.000000 0.121148 0.750000
#
# Coordination Sequence:
#
# PCOD9281680 Si02
#       6
#     8   4   8   8   8   8
#     4  10  21  41  64  89 130 176 216 268 337 395
#     4  12  24  40  64 100 132 170 232 270 338 404
#     4  11  22  40  67  96 126 171 217 278 338 386
#     4  10  22  41  64  88 133 175 214 270 342 394
#     4  11  24  43  67  93 136 175 216 282 341 397
#     4  10  21  38  63  96 124 166 225 276 323 395
#
# _framework density 23.477701
#
# number of rings (size 3 to 8) (size 9 to 14) (size 15 to 20)
#    0.000    1.455    4.545    0.545    0.000    2.182 
#    1.636    0.909    0.000    0.000    0.000    0.000 
#    0.000    0.000    0.000    0.000    0.000    0.000 
#
# Total GULP energy -122768.897369 kJ/mol
# GULP energy per Si atom -5580.404426 kJ/mol
# Density = 2.342426 g / cm^3
# Si number density = 23.477701 Si / 1000 Ang^3
#
#
#
# Elastic Constant Matrix: (Units=GPa)
#
#
# Indices 1 2 3 4 5 6 
#
# 1 62.6164 33.8711 12.5872 0.0000 15.3435 0.0000
# 2 33.8711 104.2338 22.7517 0.0000 -3.1696 0.0000
# 3 12.5872 22.7517 118.0462 0.0000 13.3947 0.0000
# 4 0.0000 0.0000 0.0000 27.5896 0.0000 -7.3439
# 5 15.3435 -3.1696 13.3947 0.0000 25.4767 0.0000
# 6 0.0000 0.0000 0.0000 -7.3439 0.0000 26.1355
#
#
#
# Elastic Compliance Matrix: (Units=1/GPa)
#
#
# Indices 1 2 3 4 5 6 
#
# 1 0.024448 -0.008637 0.000904 0.000000 -0.016274 0.000000
# 2 -0.008637 0.013207 -0.002553 0.000000 0.008187 0.000000
# 3 0.000904 -0.002553 0.009534 0.000000 -0.005875 0.000000
# 4 0.000000 0.000000 0.000000 0.039176 0.000000 0.011008
# 5 -0.016274 0.008187 -0.005875 0.000000 0.053160 0.000000
# 6 0.000000 0.000000 0.000000 0.011008 0.000000 0.041355
#
#
# Mechanical properties :
#
#
# Convention : Reuss Voigt Hill
#
# Bulk Modulus (GPa) = 37.57057 47.03516 42.30286
# Shear Modulus (GPa) = 23.77295 30.21946 26.99621
#
# Velocity S-wave (km/s) = 3.18555 3.59159 3.39465
# Velocity P-wave (km/s) = 5.43762 6.10547 5.78120
#
# Compressibility (1/GPa) = 0.02661658
#
# Stress axis : x y z
#
# Youngs Moduli (GPa) = 40.90302 75.71938 104.89245
#
# Poissons Ratio (x) = 0.65397 -0.09486
# Poissons Ratio (y) = 0.35327 0.26784
# Poissons Ratio (z) = -0.03699 0.19335
#
# Static dielectric constant tensor:
#      x y z
#    x 1.930340 0.000000 -0.008990 
#    y 0.000000 1.977820 0.000000 
#    z -0.008990 0.000000 1.927400 
# 
# From -- ./inp_files/96127.got.cif
#   From: 2010.05.17/outbox.cif.g08.bks.cpg/sg15_49_cif.got.tgz:96127.got - 2010.06.03 18:47:42.
