data_PCOD9281787
_publ_section_title
;
Structure prediction by ZEFSAII (Michael W. Deem and Ramdas Pophale) SiO2 
 PCOD9281787
Probable space group: C 2/C
;
_chemical_formula_sum "Si O2"
_cell_formula_units_Z 48
_cell_length_a 13.949247
_cell_length_b 16.787952
_cell_length_c 9.430670
_cell_angle_alpha 90.000000
_cell_angle_beta 81.288182
_cell_angle_gamma 90.000000
_cell_volume 2182.987768
_symmetry_space_group_name_H-M "C 2/C"
_symmetry_group_IT_number 15
_symmetry_cell_setting 'monoclinic'
loop_
_space_group_symop_operation_xyz
x,y,z
-x,y,1/2-z
-x,-y,-z
x,-y,1/2+z
1/2+x,1/2+y,z
1/2-x,1/2+y,1/2-z
1/2-x,1/2-y,-z
1/2+x,1/2-y,1/2+z
loop_
_atom_site_type_symbol
_atom_site_label
_atom_site_fract_x
_atom_site_fract_y
_atom_site_fract_z
Si Si1 0.752324 0.883093 0.863485
Si Si2 0.584702 0.625992 0.969005
Si Si3 0.500000 0.020436 0.750000
Si Si4 0.000000 0.231785 0.750000
Si Si5 0.317678 0.811006 0.901700
Si Si6 0.076160 0.041326 0.346862
Si Si7 0.630108 0.036536 0.969501
O O1 0.706747 0.824326 0.758695
O O2 0.829167 0.932652 0.754163
O O3 0.676906 0.949067 0.938232
O O4 0.822182 0.843923 0.965465
O O5 0.566648 0.675365 0.832455
O O6 0.603100 0.531629 0.940777
O O7 0.481167 0.616789 0.073956
O O8 0.555062 0.970693 0.617139
O O9 0.579847 0.062451 0.832221
O O10 0.070230 0.282645 0.631515
O O11 0.250000 0.750000 0.000000
O O12 0.301805 0.893809 0.989592
O O13 0.000000 0.007120 0.250000
#
# Coordination Sequence:
#
# PCOD9281787 Si02
#       7
#     8   8   4   4   8   8   8
#     4  11  23  40  72  98 132 176 242 281 334 411
#     4  10  21  38  64  94 134 178 219 279 346 421
#     4  10  23  42  76  98 135 178 252 278 333 388
#     4  12  27  44  62  90 151 180 218 280 367 406
#     4  12  28  46  67 103 145 179 224 288 359 410
#     4   9  18  36  64  99 126 165 228 278 338 401
#     4  11  23  46  72 103 134 182 233 293 332 409
#
# _framework density 21.988212000000001
#
# number of rings (size 3 to 8) (size 9 to 14) (size 15 to 20)
#    0.000    1.333    2.500    2.500    4.667    0.667 
#    3.000    0.000    0.000    0.000    0.000    0.000 
#    0.000    0.000    0.000    0.000    0.000    0.000 
#
# Total GULP energy -133858.020790 kJ/mol
# GULP energy per Si atom -5577.417533 kJ/mol
# Density = 2.193817 g / cm^3
# Si number density = 21.988212 Si / 1000 Ang^3
#
#
#
# Elastic Constant Matrix: (Units=GPa)
#
#
# Indices 1 2 3 4 5 6 
#
# 1 66.6504 22.2505 26.8707 0.0000 2.9283 0.0000
# 2 22.2505 66.6796 35.5128 0.0000 5.6880 0.0000
# 3 26.8707 35.5128 107.4839 0.0000 23.0631 0.0000
# 4 0.0000 0.0000 0.0000 30.2723 0.0000 -6.7717
# 5 2.9283 5.6880 23.0631 0.0000 60.2912 0.0000
# 6 0.0000 0.0000 0.0000 -6.7717 0.0000 12.8916
#
#
#
# Elastic Compliance Matrix: (Units=1/GPa)
#
#
# Indices 1 2 3 4 5 6 
#
# 1 0.017675 -0.004275 -0.003169 0.000000 0.000757 0.000000
# 2 -0.004275 0.019256 -0.005391 0.000000 0.000453 0.000000
# 3 -0.003169 -0.005391 0.012784 0.000000 -0.004228 0.000000
# 4 0.000000 0.000000 0.000000 0.037432 0.000000 0.019662
# 5 0.000757 0.000453 -0.004228 0.000000 0.018124 0.000000
# 6 0.000000 0.000000 0.000000 0.019662 0.000000 0.087898
#
#
# Mechanical properties :
#
#
# Convention : Reuss Voigt Hill
#
# Bulk Modulus (GPa) = 41.58613 45.56464 43.57539
# Shear Modulus (GPa) = 22.04064 31.10301 26.57183
#
# Velocity S-wave (km/s) = 3.16948 3.76511 3.48006
# Velocity P-wave (km/s) = 5.68754 6.29831 6.00070
#
# Compressibility (1/GPa) = 0.02404648
#
# Stress axis : x y z
#
# Youngs Moduli (GPa) = 56.57699 51.93192 78.22191
#
# Poissons Ratio (x) = 0.22201 0.24786
# Poissons Ratio (y) = 0.24187 0.42167
# Poissons Ratio (z) = 0.17927 0.27995
#
# Static dielectric constant tensor:
#      x y z
#    x 1.900690 0.000000 0.034910 
#    y 0.000000 1.830740 0.000000 
#    z 0.034910 0.000000 1.882920 
# 
# From -- ./inp_files/39670.got.cif
#   From: 2010.05.17/outbox.cif.g08.bks.cpg/sg15_20_cif.got.tgz:39670.got - 2010.06.03 18:47:42.
