data_PCOD9281752
_publ_section_title
;
Structure prediction by ZEFSAII (Michael W. Deem and Ramdas Pophale) SiO2 
 PCOD9281752
Probable space group: C 2/C
;
_chemical_formula_sum "Si O2"
_cell_formula_units_Z 52
_cell_length_a 18.091026
_cell_length_b 5.245786
_cell_length_c 21.891913
_cell_angle_alpha 90.000000
_cell_angle_beta 71.959296
_cell_angle_gamma 90.000000
_cell_volume 1975.438154
_symmetry_space_group_name_H-M "C 2/C"
_symmetry_group_IT_number 15
_symmetry_cell_setting 'monoclinic'
loop_
_space_group_symop_operation_xyz
x,y,z
-x,y,1/2-z
-x,-y,-z
x,-y,1/2+z
1/2+x,1/2+y,z
1/2-x,1/2+y,1/2-z
1/2-x,1/2-y,-z
1/2+x,1/2-y,1/2+z
loop_
_atom_site_type_symbol
_atom_site_label
_atom_site_fract_x
_atom_site_fract_y
_atom_site_fract_z
Si Si1 0.167919 0.783252 0.226670
Si Si2 0.995505 0.937426 0.632159
Si Si3 0.857581 0.345292 0.417910
Si Si4 0.162973 0.704677 0.805808
Si Si5 0.000000 0.256386 0.750000
Si Si6 0.705494 0.552364 0.466450
Si Si7 0.554062 0.788901 0.517226
O O1 0.169136 0.584779 0.282243
O O2 0.256252 0.758488 0.177806
O O3 0.091572 0.674014 0.210621
O O4 0.164138 0.076916 0.251644
O O5 0.978559 0.129643 0.691056
O O6 0.006716 0.064531 0.563108
O O7 0.076845 0.813603 0.632778
O O8 0.924506 0.741825 0.647691
O O9 0.775263 0.422569 0.410927
O O10 0.904572 0.577054 0.435212
O O11 0.831929 0.168105 0.481881
O O12 0.750000 0.750000 0.500000
O O13 0.629602 0.693028 0.460497
O O14 0.500000 0.000000 0.500000
#
# Coordination Sequence:
#
# PCOD9281752 Si02
#       7
#     8   8   8   8   4   8   8
#     4   9  19  37  63  89 127 173 220 267 338 394
#     4  10  22  37  63 100 127 172 230 274 351 408
#     4   9  18  35  65  86 124 169 208 273 334 401
#     4   9  19  37  63  89 126 173 215 278 329 407
#     4  10  22  40  66  98 130 170 218 286 332 416
#     4   8  16  34  61  89 121 168 203 270 334 394
#     4  10  21  38  64  91 128 172 225 277 336 407
#
# _framework density 26.323276
#
# number of rings (size 3 to 8) (size 9 to 14) (size 15 to 20)
#    0.000    2.769    0.000    0.000    4.308    4.923 
#    0.000    0.000   37.231    5.538    0.000    0.000 
#    0.000    0.000    0.000    0.000    0.000    0.000 
#
# Total GULP energy -144811.711970 kJ/mol
# GULP energy per Si atom -5569.681230 kJ/mol
# Density = 2.626336 g / cm^3
# Si number density = 26.323276 Si / 1000 Ang^3
#
#
#
# Elastic Constant Matrix: (Units=GPa)
#
#
# Indices 1 2 3 4 5 6 
#
# 1 202.0452 22.7051 36.8093 0.0140 -53.2240 0.0152
# 2 22.7051 69.4499 16.1827 0.0280 -19.9560 0.0156
# 3 36.8093 16.1827 62.8663 0.0062 -22.6169 0.0047
# 4 0.0140 0.0280 0.0062 25.3142 0.0026 -6.1470
# 5 -53.2240 -19.9560 -22.6169 0.0026 59.5446 0.0054
# 6 0.0152 0.0156 0.0047 -6.1470 0.0054 59.6138
#
#
#
# Elastic Compliance Matrix: (Units=1/GPa)
#
#
# Indices 1 2 3 4 5 6 
#
# 1 0.006697 -0.000244 -0.002009 -0.000004 0.005141 -0.000002
# 2 -0.000244 0.016296 -0.002508 -0.000019 0.004291 -0.000006
# 3 -0.002009 -0.002508 0.019436 -0.000002 0.004746 -0.000001
# 4 -0.000004 -0.000019 -0.000002 0.040518 -0.000013 0.004178
# 5 0.005141 0.004291 0.004746 -0.000013 0.024631 -0.000006
# 6 -0.000002 -0.000006 -0.000001 0.004178 -0.000006 0.017205
#
#
# Mechanical properties :
#
#
# Convention : Reuss Voigt Hill
#
# Bulk Modulus (GPa) = 30.38865 53.97285 42.18075
# Shear Modulus (GPa) = 34.41752 46.13881 40.27816
#
# Velocity S-wave (km/s) = 3.61985 4.19116 3.91594
# Velocity P-wave (km/s) = 5.38893 6.63095 6.04194
#
# Compressibility (1/GPa) = 0.03290702
#
# Stress axis : x y z
#
# Youngs Moduli (GPa) = 149.31651 61.36460 51.45047
#
# Poissons Ratio (x) = 0.01498 0.10335
# Poissons Ratio (y) = 0.03644 0.12906
# Poissons Ratio (z) = 0.29995 0.15392
#
# Static dielectric constant tensor:
#      x y z
#    x 2.154460 0.000010 -0.095080 
#    y 0.000010 2.166620 -0.000020 
#    z -0.095080 -0.000020 2.206810 
# 
# From -- ./inp_files/297442.got.cif
#   From: 2010.05.17/outbox.cif.g08.bks.cpg/sg15_149_cif.got.tgz:297442.got - 2010.06.03 18:47:42.
