data_PCOD9281216
_publ_section_title
;
Structure prediction by ZEFSAII (Michael W. Deem and Ramdas Pophale) SiO2 
 PCOD9281216
Probable space group: C 2/C
;
_chemical_formula_sum "Si O2"
_cell_formula_units_Z 56
_cell_length_a 28.229551
_cell_length_b 17.596803
_cell_length_c 9.255385
_cell_angle_alpha 90.000000
_cell_angle_beta 35.959504
_cell_angle_gamma 90.000000
_cell_volume 2699.778387
_symmetry_space_group_name_H-M "C 2/C"
_symmetry_group_IT_number 15
_symmetry_cell_setting 'monoclinic'
loop_
_space_group_symop_operation_xyz
x,y,z
-x,y,1/2-z
-x,-y,-z
x,-y,1/2+z
1/2+x,1/2+y,z
1/2-x,1/2+y,1/2-z
1/2-x,1/2-y,-z
1/2+x,1/2-y,1/2+z
loop_
_atom_site_type_symbol
_atom_site_label
_atom_site_fract_x
_atom_site_fract_y
_atom_site_fract_z
Si Si1 0.449885 0.170965 0.022295
Si Si2 0.300790 0.193123 0.777187
Si Si3 0.416288 0.080960 0.662794
Si Si4 0.149371 0.550107 0.356756
Si Si5 0.907884 0.043347 0.946428
Si Si6 0.305215 0.448572 0.988262
Si Si7 0.569799 0.709531 0.700966
O O1 0.500000 0.172342 0.750000
O O2 0.496419 0.114870 0.018313
O O3 0.366310 0.130080 0.184981
O O4 0.452150 0.252304 0.093032
O O5 0.363657 0.147218 0.721164
O O6 0.352604 0.242388 0.539298
O O7 0.250000 0.250000 0.000000
O O8 0.242227 0.128636 0.858296
O O9 0.411436 0.010124 0.567377
O O10 0.373903 0.058459 0.918264
O O11 0.237039 0.512690 0.126055
O O12 0.911296 0.120430 0.843336
O O13 0.000000 0.021597 0.750000
O O14 0.860847 0.978465 0.978399
O O15 0.859635 0.062818 0.211821
O O16 0.500000 0.718842 0.750000
#
# Coordination Sequence:
#
# PCOD9281216 Si02
#       7
#     8   8   8   8   8   8   8
#     4  10  22  40  61  96 139 174 216 268 333 402
#     4  11  22  40  68  98 129 169 220 281 329 387
#     4  10  21  38  59  94 133 174 215 257 333 408
#     4  10  22  35  62  94 133 172 210 270 329 404
#     4  11  25  46  68  94 125 178 231 277 322 398
#     4  11  23  43  66  97 132 167 225 276 332 387
#     4  11  23  42  69  96 131 178 229 266 332 403
#
# _framework density 20.742443999999999
#
# number of rings (size 3 to 8) (size 9 to 14) (size 15 to 20)
#    0.000    1.429    2.857    2.571    6.000    0.000 
#    0.000    7.143    0.000    0.000    0.000    0.000 
#    0.000    0.000    0.000    0.000    0.000    0.000 
#
# Total GULP energy -156525.750578 kJ/mol
# GULP energy per Si atom -5590.205378 kJ/mol
# Density = 2.069523 g / cm^3
# Si number density = 20.742444 Si / 1000 Ang^3
#
#
#
# Elastic Constant Matrix: (Units=GPa)
#
#
# Indices 1 2 3 4 5 6 
#
# 1 68.7153 37.5532 4.1947 0.0000 -13.9793 0.0000
# 2 37.5532 69.6137 2.4018 0.0000 -18.4417 0.0000
# 3 4.1947 2.4018 32.7266 0.0000 -22.9774 0.0000
# 4 0.0000 0.0000 0.0000 37.6823 0.0000 1.5439
# 5 -13.9793 -18.4417 -22.9774 0.0000 28.7177 0.0000
# 6 0.0000 0.0000 0.0000 1.5439 0.0000 18.5262
#
#
#
# Elastic Compliance Matrix: (Units=1/GPa)
#
#
# Indices 1 2 3 4 5 6 
#
# 1 0.020960 -0.010031 0.001576 0.000000 0.005023 0.000000
# 2 -0.010031 0.026018 0.017522 0.000000 0.025845 0.000000
# 3 0.001576 0.017522 0.085585 0.000000 0.080497 0.000000
# 4 0.000000 0.000000 0.000000 0.026629 0.000000 -0.002219
# 5 0.005023 0.025845 0.080497 0.000000 0.118270 0.000000
# 6 0.000000 0.000000 0.000000 -0.002219 0.000000 0.054163
#
#
# Mechanical properties :
#
#
# Convention : Reuss Voigt Hill
#
# Bulk Modulus (GPa) = 6.63582 28.81723 17.72653
# Shear Modulus (GPa) = 13.74672 25.44563 19.59617
#
# Velocity S-wave (km/s) = 2.57715 3.50629 3.07699
# Velocity P-wave (km/s) = 3.47300 5.50592 4.60309
#
# Compressibility (1/GPa) = 0.15069717
#
# Stress axis : x y z
#
# Youngs Moduli (GPa) = 47.70931 38.43463 11.68429
#
# Poissons Ratio (x) = 0.38553 -0.01841
# Poissons Ratio (y) = 0.47856 -0.20473
# Poissons Ratio (z) = -0.07519 -0.67344
#
# Static dielectric constant tensor:
#      x y z
#    x 1.752420 0.000000 -0.005510 
#    y 0.000000 1.740850 0.000000 
#    z -0.005510 0.000000 1.778770 
# 
# From -- ./inp_files/62677.got.cif
#   From: 2010.05.17/outbox.cif.g08.bks.cpg/sg15_32_cif.got.tgz:62677.got - 2010.06.03 18:47:42.
