data_PCOD9281104
_publ_section_title
;
Structure prediction by ZEFSAII (Michael W. Deem and Ramdas Pophale) SiO2 
 PCOD9281104
Probable space group: C 2/C
;
_chemical_formula_sum "Si O2"
_cell_formula_units_Z 60
_cell_length_a 22.489230
_cell_length_b 13.944735
_cell_length_c 23.833457
_cell_angle_alpha 90.000000
_cell_angle_beta 160.266456
_cell_angle_gamma 90.000000
_cell_volume 2523.678337
_symmetry_space_group_name_H-M "C 2/C"
_symmetry_group_IT_number 15
_symmetry_cell_setting 'monoclinic'
loop_
_space_group_symop_operation_xyz
x,y,z
-x,y,1/2-z
-x,-y,-z
x,-y,1/2+z
1/2+x,1/2+y,z
1/2-x,1/2+y,1/2-z
1/2-x,1/2-y,-z
1/2+x,1/2-y,1/2+z
loop_
_atom_site_type_symbol
_atom_site_label
_atom_site_fract_x
_atom_site_fract_y
_atom_site_fract_z
Si Si1 0.500000 0.603415 0.250000
Si Si2 0.901635 0.805454 0.770637
Si Si3 0.494630 0.520009 0.077255
Si Si4 0.190454 0.130382 0.021471
Si Si5 0.478114 0.105820 0.596650
Si Si6 0.006549 0.322078 0.620355
Si Si7 0.196591 0.468299 0.721298
Si Si8 0.812116 0.545037 0.014915
O O1 0.480940 0.671976 0.179632
O O2 0.657322 0.530755 0.378864
O O3 0.709338 0.848077 0.586125
O O4 0.897528 0.694295 0.779437
O O5 0.991562 0.866605 0.900127
O O6 0.421354 0.465931 0.066386
O O7 0.695918 0.501096 0.238123
O O8 0.354842 0.482490 0.907514
O O9 0.056911 0.214805 0.922996
O O10 0.357883 0.149576 0.209820
O O11 0.274597 0.115045 0.034323
O O12 0.552134 0.045482 0.610477
O O13 0.469941 0.032116 0.642464
O O14 0.106501 0.363812 0.653700
O O15 0.834251 0.386359 0.480830
#
# Coordination Sequence:
#
# PCOD9281104 Si02
#       8
#     4   8   8   8   8   8   8   8
#     4  10  22  38  60  90 122 160 206 250 310 360
#     4  11  22  40  61  92 121 168 203 254 309 366
#     4  10  21  40  67  87 125 161 204 256 310 364
#     4  11  22  39  60  90 116 159 199 245 306 359
#     4  10  23  40  61  90 126 161 209 250 308 368
#     4  10  23  37  60  88 118 155 200 247 302 361
#     4   9  21  43  61  92 122 160 206 258 305 367
#     4  10  21  38  58  85 122 157 193 249 299 360
#
# _framework density 23.774820999999999
#
# number of rings (size 3 to 8) (size 9 to 14) (size 15 to 20)
#    0.000    1.867    1.333    1.600    1.867    4.800 
#    9.600    2.667    0.000    0.000    0.000    0.000 
#    0.000    0.000    0.000    0.000    0.000    0.000 
#
# Total GULP energy -167118.775700 kJ/mol
# GULP energy per Si atom -5570.625857 kJ/mol
# Density = 2.372071 g / cm^3
# Si number density = 23.774821 Si / 1000 Ang^3
#
#
#
# Elastic Constant Matrix: (Units=GPa)
#
#
# Indices 1 2 3 4 5 6 
#
# 1 39.8310 -6.2626 22.2427 0.0575 20.3888 0.0318
# 2 -6.2626 108.6127 30.4669 0.1111 12.9208 0.0551
# 3 22.2427 30.4669 86.1286 0.0545 20.3116 0.0220
# 4 0.0575 0.1111 0.0545 58.1333 0.0417 25.0498
# 5 20.3888 12.9208 20.3116 0.0417 28.1004 0.0216
# 6 0.0318 0.0551 0.0220 25.0498 0.0216 35.4071
#
#
#
# Elastic Compliance Matrix: (Units=1/GPa)
#
#
# Indices 1 2 3 4 5 6 
#
# 1 0.047751 0.008843 -0.007631 -0.000028 -0.033196 -0.000012
# 2 0.008843 0.012009 -0.004480 -0.000019 -0.008700 -0.000005
# 3 -0.007631 -0.004480 0.016123 0.000002 -0.004057 0.000005
# 4 -0.000028 -0.000019 0.000002 0.024746 0.000005 -0.017507
# 5 -0.033196 -0.008700 -0.004057 0.000005 0.066606 0.000002
# 6 -0.000012 -0.000005 0.000005 -0.017507 0.000002 0.040629
#
#
# Mechanical properties :
#
#
# Convention : Reuss Voigt Hill
#
# Bulk Modulus (GPa) = 14.42044 36.38514 25.40279
# Shear Modulus (GPa) = 21.05146 36.86985 28.96065
#
# Velocity S-wave (km/s) = 2.97888 3.94228 3.49395
# Velocity P-wave (km/s) = 4.23205 6.00495 5.19469
#
# Compressibility (1/GPa) = 0.06934599
#
# Stress axis : x y z
#
# Youngs Moduli (GPa) = 20.94218 83.27421 62.02401
#
# Poissons Ratio (x) = -0.73639 0.47330
# Poissons Ratio (y) = -0.18519 0.27786
# Poissons Ratio (z) = 0.15981 0.37306
#
# Static dielectric constant tensor:
#      x y z
#    x 2.007780 -0.000010 0.006600 
#    y -0.000010 1.894750 -0.000010 
#    z 0.006600 -0.000010 1.974170 
# 
# From -- ./inp_files/302358.got.cif
#   From: 2010.05.17/outbox.cif.g08.bks.cpg/sg15_152_cif.got.tgz:302358.got - 2010.06.03 18:47:42.
