data_PCOD9281380
_publ_section_title
;
Structure prediction by ZEFSAII (Michael W. Deem and Ramdas Pophale) SiO2 
 PCOD9281380
Probable space group: C 2/C
;
_chemical_formula_sum "Si O2"
_cell_formula_units_Z 40
_cell_length_a 23.344768
_cell_length_b 6.227878
_cell_length_c 17.795835
_cell_angle_alpha 90.000000
_cell_angle_beta 142.478737
_cell_angle_gamma 90.000000
_cell_volume 1575.814593
_symmetry_space_group_name_H-M "C 2/C"
_symmetry_group_IT_number 15
_symmetry_cell_setting 'monoclinic'
loop_
_space_group_symop_operation_xyz
x,y,z
-x,y,1/2-z
-x,-y,-z
x,-y,1/2+z
1/2+x,1/2+y,z
1/2-x,1/2+y,1/2-z
1/2-x,1/2-y,-z
1/2+x,1/2-y,1/2+z
loop_
_atom_site_type_symbol
_atom_site_label
_atom_site_fract_x
_atom_site_fract_y
_atom_site_fract_z
Si Si1 0.359109 0.411725 0.083716
Si Si2 0.396906 0.683192 0.398471
Si Si3 0.773433 0.865695 0.369021
Si Si4 0.536750 0.630458 0.186917
Si Si5 0.085473 0.484260 0.943943
O O1 0.448366 0.509919 0.131515
O O2 0.373363 0.520299 0.179611
O O3 0.375436 0.162325 0.083308
O O4 0.271610 0.498799 0.944734
O O5 0.326067 0.819498 0.271026
O O6 0.331653 0.506173 0.369761
O O7 0.464008 0.596891 0.402647
O O8 0.433746 0.837818 0.502620
O O9 0.832325 0.650340 0.447413
O O10 0.507566 0.877296 0.170762
#
# Coordination Sequence:
#
# PCOD9281380 Si02
#       5
#     8   8   8   8   8
#     4   9  22  40  57  89 126 159 208 254 302 367
#     4  11  21  38  64  94 125 161 206 253 308 371
#     4  10  21  38  61  89 127 162 205 252 302 366
#     4  10  22  39  63  93 124 160 208 252 310 369
#     4  10  21  40  64  88 126 165 201 258 311 360
#
# _framework density 25.383694999999999
#
# number of rings (size 3 to 8) (size 9 to 14) (size 15 to 20)
#    0.000    2.000    2.000    0.600    0.000   16.000 
#    0.000    1.000    0.000    0.000    0.000    0.000 
#    0.000    0.000    0.000    0.000    0.000    0.000 
#
# Total GULP energy -111803.447748 kJ/mol
# GULP energy per Si atom -5590.172387 kJ/mol
# Density = 2.532592 g / cm^3
# Si number density = 25.383695 Si / 1000 Ang^3
#
#
#
# Elastic Constant Matrix: (Units=GPa)
#
#
# Indices 1 2 3 4 5 6 
#
# 1 81.6717 17.8324 18.7359 0.0000 -28.5858 0.0000
# 2 17.8324 132.1464 50.4587 0.0002 -24.6593 0.0002
# 3 18.7359 50.4587 134.9389 0.0000 -36.7683 0.0001
# 4 0.0000 0.0002 0.0000 31.7480 0.0000 -8.5947
# 5 -28.5858 -24.6593 -36.7683 0.0000 41.5387 0.0000
# 6 0.0000 0.0002 0.0001 -8.5947 0.0000 7.1884
#
#
#
# Elastic Compliance Matrix: (Units=1/GPa)
#
#
# Indices 1 2 3 4 5 6 
#
# 1 0.016257 -0.000401 0.001155 0.000000 0.011972 0.000000
# 2 -0.000401 0.009142 -0.002582 0.000000 0.002866 0.000000
# 3 0.001155 -0.002582 0.010562 0.000000 0.008611 0.000000
# 4 0.000000 0.000000 0.000000 0.046573 0.000000 0.055684
# 5 0.011972 0.002866 0.008611 0.000000 0.041636 -0.000001
# 6 0.000000 0.000000 0.000000 0.055684 -0.000001 0.205691
#
#
# Mechanical properties :
#
#
# Convention : Reuss Voigt Hill
#
# Bulk Modulus (GPa) = 30.95454 58.09010 44.52232
# Shear Modulus (GPa) = 14.52279 33.54369 24.03324
#
# Velocity S-wave (km/s) = 2.39452 3.63914 3.08035
# Velocity P-wave (km/s) = 4.45714 6.37121 5.49811
#
# Compressibility (1/GPa) = 0.03230543
#
# Stress axis : x y z
#
# Youngs Moduli (GPa) = 61.51198 109.38331 94.67611
#
# Poissons Ratio (x) = 0.04383 -0.10932
# Poissons Ratio (y) = 0.02465 0.24446
# Poissons Ratio (z) = -0.07103 0.28243
#
# Static dielectric constant tensor:
#      x y z
#    x 2.090730 0.000000 0.022680 
#    y 0.000000 2.069880 0.000000 
#    z 0.022680 0.000000 2.132340 
# 
# From -- ./inp_files/223737.got.cif
#   From: 2010.05.17/outbox.cif.g08.bks.cpg/sg15_112_cif.got.tgz:223737.got - 2010.06.03 18:47:42.
