data_PCOD9281938
_publ_section_title
;
Structure prediction by ZEFSAII (Michael W. Deem and Ramdas Pophale) SiO2 
 PCOD9281938
Probable space group: C 2/C
;
_chemical_formula_sum "Si O2"
_cell_formula_units_Z 44
_cell_length_a 14.534834
_cell_length_b 22.097951
_cell_length_c 10.347217
_cell_angle_alpha 90.000000
_cell_angle_beta 145.034600
_cell_angle_gamma 90.000000
_cell_volume 1904.592847
_symmetry_space_group_name_H-M "C 2/C"
_symmetry_group_IT_number 15
_symmetry_cell_setting 'monoclinic'
loop_
_space_group_symop_operation_xyz
x,y,z
-x,y,1/2-z
-x,-y,-z
x,-y,1/2+z
1/2+x,1/2+y,z
1/2-x,1/2+y,1/2-z
1/2-x,1/2-y,-z
1/2+x,1/2-y,1/2+z
loop_
_atom_site_type_symbol
_atom_site_label
_atom_site_fract_x
_atom_site_fract_y
_atom_site_fract_z
Si Si1 0.916141 0.414355 0.870413
Si Si2 0.603476 0.553926 0.185433
Si Si3 0.586167 0.327127 0.073431
Si Si4 0.142253 0.528296 0.823876
Si Si5 0.573310 0.210395 0.549056
Si Si6 0.000000 0.206438 0.750000
O O1 0.759327 0.428229 0.777235
O O2 0.876928 0.456044 0.703940
O O3 0.946072 0.343569 0.885426
O O4 0.082721 0.443259 0.120034
O O5 0.685558 0.539503 0.417313
O O6 0.500000 0.500000 0.000000
O O7 0.498678 0.613757 0.073352
O O8 0.493749 0.264132 0.939803
O O9 0.581845 0.330411 0.227678
O O10 0.762081 0.319255 0.219936
O O11 0.000000 0.553838 0.750000
O O12 0.109960 0.252762 0.958653
#
# Coordination Sequence:
#
# PCOD9281938 Si02
#       6
#     8   8   8   8   8   4
#     4  10  22  42  67  92 127 174 223 270 326 382
#     4  11  25  41  62  95 138 172 217 271 330 396
#     4  10  22  38  60  97 129 166 216 272 333 396
#     4   9  22  41  62  90 127 173 220 263 318 395
#     4  10  21  38  66  93 129 165 220 273 336 391
#     4   8  22  36  62  94 130 166 214 272 334 382
#
# _framework density 23.102049999999998
#
# number of rings (size 3 to 8) (size 9 to 14) (size 15 to 20)
#    1.091    1.091    0.000    1.636    8.909    2.182 
#    0.000    0.909    0.000    0.000    0.000    0.000 
#    0.000    0.000    0.000    0.000    0.000    0.000 
#
# Total GULP energy -122609.564385 kJ/mol
# GULP energy per Si atom -5573.162017 kJ/mol
# Density = 2.304947 g / cm^3
# Si number density = 23.102050 Si / 1000 Ang^3
#
#
#
# Elastic Constant Matrix: (Units=GPa)
#
#
# Indices 1 2 3 4 5 6 
#
# 1 36.9668 18.1400 17.7906 0.0000 13.4869 0.0000
# 2 18.1400 184.5585 84.7418 0.0000 7.8656 0.0000
# 3 17.7906 84.7418 149.4714 0.0000 13.4720 0.0000
# 4 0.0000 0.0000 0.0000 45.4227 0.0000 0.8412
# 5 13.4869 7.8656 13.4720 0.0000 29.3165 0.0000
# 6 0.0000 0.0000 0.0000 0.8412 0.0000 11.2487
#
#
#
# Elastic Compliance Matrix: (Units=1/GPa)
#
#
# Indices 1 2 3 4 5 6 
#
# 1 0.034059 -0.001985 -0.001632 0.000000 -0.014386 0.000000
# 2 -0.001985 0.007441 -0.004053 0.000000 0.000779 0.000000
# 3 -0.001632 -0.004053 0.009406 0.000000 -0.002484 0.000000
# 4 0.000000 0.000000 0.000000 0.022046 0.000000 -0.001649
# 5 -0.014386 0.000779 -0.002484 0.000000 0.041662 0.000000
# 6 0.000000 0.000000 0.000000 -0.001649 0.000000 0.089023
#
#
# Mechanical properties :
#
#
# Convention : Reuss Voigt Hill
#
# Bulk Modulus (GPa) = 28.11568 68.03796 48.07682
# Shear Modulus (GPa) = 21.66080 33.88584 27.77332
#
# Velocity S-wave (km/s) = 3.06537 3.83402 3.47104
# Velocity P-wave (km/s) = 4.97245 7.00818 6.07618
#
# Compressibility (1/GPa) = 0.03556734
#
# Stress axis : x y z
#
# Youngs Moduli (GPa) = 29.36040 134.38972 106.31567
#
# Poissons Ratio (x) = 0.26681 0.17347
# Poissons Ratio (y) = 0.05829 0.43085
# Poissons Ratio (z) = 0.04791 0.54462
#
# Static dielectric constant tensor:
#      x y z
#    x 2.008730 0.000000 -0.051150 
#    y 0.000000 1.864510 0.000000 
#    z -0.051150 0.000000 1.888690 
# 
# From -- ./inp_files/101182.got.cif
#   From: 2010.05.17/outbox.cif.g08.bks.cpg/sg15_51_cif.got.tgz:101182.got - 2010.06.03 18:47:42.
