data_PCOD9281760
_publ_section_title
;
Structure prediction by ZEFSAII (Michael W. Deem and Ramdas Pophale) SiO2 
 PCOD9281760
Probable space group: C 2/C
;
_chemical_formula_sum "Si O2"
_cell_formula_units_Z 36
_cell_length_a 12.515016
_cell_length_b 8.101692
_cell_length_c 15.047926
_cell_angle_alpha 90.000000
_cell_angle_beta 79.818599
_cell_angle_gamma 90.000000
_cell_volume 1501.725480
_symmetry_space_group_name_H-M "C 2/C"
_symmetry_group_IT_number 15
_symmetry_cell_setting 'monoclinic'
loop_
_space_group_symop_operation_xyz
x,y,z
-x,y,1/2-z
-x,-y,-z
x,-y,1/2+z
1/2+x,1/2+y,z
1/2-x,1/2+y,1/2-z
1/2-x,1/2-y,-z
1/2+x,1/2-y,1/2+z
loop_
_atom_site_type_symbol
_atom_site_label
_atom_site_fract_x
_atom_site_fract_y
_atom_site_fract_z
Si Si1 0.453990 0.044089 0.912183
Si Si2 0.845320 0.869251 0.950528
Si Si3 0.713286 0.613282 0.696600
Si Si4 0.780755 0.062797 0.115736
Si Si5 0.000000 0.332121 0.750000
O O1 0.335554 0.958430 0.916231
O O2 0.437661 0.240519 0.908017
O O3 0.474552 0.045349 0.172652
O O4 0.500000 0.000000 0.000000
O O5 0.865225 0.990795 0.031418
O O6 0.750000 0.750000 0.000000
O O7 0.803360 0.969381 0.872119
O O8 0.796106 0.749565 0.645448
O O9 0.730803 0.545073 0.792918
O O10 0.601081 0.714886 0.718060
#
# Coordination Sequence:
#
# PCOD9281760 Si02
#       5
#     8   8   8   8   4
#     4  10  21  39  62  90 126 166 207 256 312 371
#     4  10  21  39  63  92 122 164 210 258 310 368
#     4  11  22  42  66  95 127 165 212 261 317 375
#     4  10  21  38  64  92 122 164 212 261 309 372
#     4  10  24  42  60  94 132 168 210 262 316 378
#
# _framework density 23.972425000000001
#
# number of rings (size 3 to 8) (size 9 to 14) (size 15 to 20)
#    0.000    1.778    0.000    4.667    0.000    6.222 
#    0.000   18.889    0.000    0.000    0.000    0.000 
#    0.000    0.000    0.000    0.000    0.000    0.000 
#
# Total GULP energy -100724.928621 kJ/mol
# GULP energy per Si atom -5595.829368 kJ/mol
# Density = 2.391786 g / cm^3
# Si number density = 23.972425 Si / 1000 Ang^3
#
#
#
# Elastic Constant Matrix: (Units=GPa)
#
#
# Indices 1 2 3 4 5 6 
#
# 1 61.3530 34.4331 30.2764 0.0000 -2.0764 0.0000
# 2 34.4331 104.6310 50.0203 0.0000 23.3606 0.0000
# 3 30.2764 50.0203 187.8147 0.0000 32.9622 0.0000
# 4 0.0000 0.0000 0.0000 65.0124 0.0000 -8.0552
# 5 -2.0764 23.3606 32.9622 0.0000 30.2290 0.0000
# 6 0.0000 0.0000 0.0000 -8.0552 0.0000 24.8928
#
#
#
# Elastic Compliance Matrix: (Units=1/GPa)
#
#
# Indices 1 2 3 4 5 6 
#
# 1 0.023380 -0.008711 -0.003602 0.000000 0.012265 0.000000
# 2 -0.008711 0.015350 -0.000615 0.000000 -0.011791 0.000000
# 3 -0.003602 -0.000615 0.007456 0.000000 -0.007902 0.000000
# 4 0.000000 0.000000 0.000000 0.016024 0.000000 0.005185
# 5 0.012265 -0.011791 -0.007902 0.000000 0.051651 0.000000
# 6 0.000000 0.000000 0.000000 0.005185 0.000000 0.041850
#
#
# Mechanical properties :
#
#
# Convention : Reuss Voigt Hill
#
# Bulk Modulus (GPa) = 49.18353 64.80648 56.99501
# Shear Modulus (GPa) = 26.54727 39.96476 33.25602
#
# Velocity S-wave (km/s) = 3.33139 4.08746 3.72864
# Velocity P-wave (km/s) = 5.94632 7.02630 6.50875
#
# Compressibility (1/GPa) = 0.02033201
#
# Stress axis : x y z
#
# Youngs Moduli (GPa) = 42.77118 65.14509 134.12851
#
# Poissons Ratio (x) = 0.56746 0.48307
# Poissons Ratio (y) = 0.37257 0.08245
# Poissons Ratio (z) = 0.15404 0.04005
#
# Static dielectric constant tensor:
#      x y z
#    x 2.039390 0.000000 -0.079190 
#    y 0.000000 1.945950 0.000000 
#    z -0.079190 0.000000 1.891890 
# 
# From -- ./inp_files/102516.got.cif
#   From: 2010.05.17/outbox.cif.g08.bks.cpg/sg15_52_cif.got.tgz:102516.got - 2010.06.03 18:47:42.
