data_PCOD9281989
_publ_section_title
;
Structure prediction by ZEFSAII (Michael W. Deem and Ramdas Pophale) SiO2 
 PCOD9281989
Probable space group: C 2/C
;
_chemical_formula_sum "Si O2"
_cell_formula_units_Z 60
_cell_length_a 31.116063
_cell_length_b 7.161583
_cell_length_c 10.298083
_cell_angle_alpha 90.000000
_cell_angle_beta 104.862404
_cell_angle_gamma 90.000000
_cell_volume 2218.053188
_symmetry_space_group_name_H-M "C 2/C"
_symmetry_group_IT_number 15
_symmetry_cell_setting 'monoclinic'
loop_
_space_group_symop_operation_xyz
x,y,z
-x,y,1/2-z
-x,-y,-z
x,-y,1/2+z
1/2+x,1/2+y,z
1/2-x,1/2+y,1/2-z
1/2-x,1/2-y,-z
1/2+x,1/2-y,1/2+z
loop_
_atom_site_type_symbol
_atom_site_label
_atom_site_fract_x
_atom_site_fract_y
_atom_site_fract_z
Si Si1 0.000000 0.636545 0.250000
Si Si2 0.427645 0.821978 0.160221
Si Si3 0.064588 0.765811 0.100167
Si Si4 0.330992 0.220105 0.532128
Si Si5 0.795384 0.198709 0.731453
Si Si6 0.870889 0.868754 0.127168
Si Si7 0.900887 0.662378 0.909786
Si Si8 0.800266 0.758720 0.771634
O O1 0.961560 0.492491 0.178548
O O2 0.980611 0.753495 0.354214
O O3 0.376600 0.889696 0.096977
O O4 0.426533 0.746528 0.306188
O O5 0.439897 0.680430 0.053926
O O6 0.101602 0.865064 0.216504
O O7 0.082168 0.550157 0.096073
O O8 0.310935 0.196909 0.374584
O O9 0.351272 0.431817 0.565648
O O10 0.295349 0.190465 0.618322
O O11 0.826189 0.245021 0.632907
O O12 0.742808 0.217833 0.677401
O O13 0.804010 0.981442 0.768130
O O14 0.902779 0.777645 0.044467
O O15 0.847838 0.679269 0.847167
#
# Coordination Sequence:
#
# PCOD9281989 Si02
#       8
#     4   8   8   8   8   8   8   8
#     4  10  22  40  66 104 134 158 216 278 330 390
#     4  10  21  38  67  90 127 172 207 266 328 395
#     4  11  22  41  68  98 131 174 217 268 334 401
#     4  10  21  43  62  89 130 175 225 266 332 394
#     4  11  22  41  59  93 130 179 225 279 325 389
#     4  11  23  40  66  93 130 177 222 271 327 394
#     4  10  21  39  59  93 129 171 216 267 323 384
#     4  10  23  37  61  89 131 174 223 281 324 383
#
# _framework density 27.050749
#
# number of rings (size 3 to 8) (size 9 to 14) (size 15 to 20)
#    0.000    1.600    2.667    2.400    1.867    1.600 
#    0.000    0.667    0.000    4.800    0.000    0.000 
#    0.000    0.000    0.000    0.000    0.000    0.000 
#
# Total GULP energy -167833.278853 kJ/mol
# GULP energy per Si atom -5594.442628 kJ/mol
# Density = 2.698918 g / cm^3
# Si number density = 27.050749 Si / 1000 Ang^3
#
#
#
# Elastic Constant Matrix: (Units=GPa)
#
#
# Indices 1 2 3 4 5 6 
#
# 1 164.9922 13.0630 29.9581 0.0000 -33.1115 0.0000
# 2 13.0630 85.5389 -0.1221 0.0000 -3.0709 0.0000
# 3 29.9581 -0.1221 108.0186 0.0000 -24.2134 0.0000
# 4 0.0000 0.0000 0.0000 14.3405 0.0000 4.3600
# 5 -33.1115 -3.0709 -24.2134 0.0000 55.2901 0.0000
# 6 0.0000 0.0000 0.0000 4.3600 0.0000 31.1530
#
#
#
# Elastic Compliance Matrix: (Units=1/GPa)
#
#
# Indices 1 2 3 4 5 6 
#
# 1 0.007084 -0.000951 -0.001138 0.000000 0.003691 0.000000
# 2 -0.000951 0.011845 0.000329 0.000000 0.000233 0.000000
# 3 -0.001138 0.000329 0.010451 0.000000 0.003913 0.000000
# 4 0.000000 0.000000 0.000000 0.072832 0.000000 -0.010193
# 5 0.003691 0.000233 0.003913 0.000000 0.022023 0.000000
# 6 0.000000 0.000000 0.000000 -0.010193 0.000000 0.033526
#
#
# Mechanical properties :
#
#
# Convention : Reuss Voigt Hill
#
# Bulk Modulus (GPa) = 38.67090 49.37196 44.02143
# Shear Modulus (GPa) = 29.42904 41.20009 35.31457
#
# Velocity S-wave (km/s) = 3.30194 3.90688 3.61708
# Velocity P-wave (km/s) = 5.37250 6.21634 5.80976
#
# Compressibility (1/GPa) = 0.02585924
#
# Stress axis : x y z
#
# Youngs Moduli (GPa) = 141.17202 84.42652 95.68496
#
# Poissons Ratio (x) = 0.08028 0.10892
# Poissons Ratio (y) = 0.13424 -0.03150
# Poissons Ratio (z) = 0.16070 -0.02780
#
# Static dielectric constant tensor:
#      x y z
#    x 2.068470 0.000000 -0.032850 
#    y 0.000000 2.174980 0.000000 
#    z -0.032850 0.000000 2.326060 
# 
# From -- ./inp_files/125611.got.cif
#   From: 2010.05.17/outbox.cif.g08.bks.cpg/sg15_63_cif.got.tgz:125611.got - 2010.06.03 18:47:42.
