data_PCOD9281723
_publ_section_title
;
Structure prediction by ZEFSAII (Michael W. Deem and Ramdas Pophale) SiO2 
 PCOD9281723
Probable space group: C 2/C
;
_chemical_formula_sum "Si O2"
_cell_formula_units_Z 60
_cell_length_a 18.391839
_cell_length_b 21.562890
_cell_length_c 9.297348
_cell_angle_alpha 90.000000
_cell_angle_beta 139.118801
_cell_angle_gamma 90.000000
_cell_volume 2413.215205
_symmetry_space_group_name_H-M "C 2/C"
_symmetry_group_IT_number 15
_symmetry_cell_setting 'monoclinic'
loop_
_space_group_symop_operation_xyz
x,y,z
-x,y,1/2-z
-x,-y,-z
x,-y,1/2+z
1/2+x,1/2+y,z
1/2-x,1/2+y,1/2-z
1/2-x,1/2-y,-z
1/2+x,1/2-y,1/2+z
loop_
_atom_site_type_symbol
_atom_site_label
_atom_site_fract_x
_atom_site_fract_y
_atom_site_fract_z
Si Si1 0.568483 0.221675 0.479811
Si Si2 0.678042 0.499369 0.641895
Si Si3 0.125221 0.347831 0.697771
Si Si4 0.841602 0.911353 0.130621
Si Si5 0.500000 0.892388 0.250000
Si Si6 0.322194 0.292218 0.277350
Si Si7 0.213945 0.574808 0.954561
Si Si8 0.349376 0.701099 0.139966
O O1 0.500000 0.253221 0.250000
O O2 0.507955 0.162506 0.099688
O O3 0.690921 0.198691 0.619927
O O4 0.573595 0.268958 0.621770
O O5 0.618660 0.445966 0.456259
O O6 0.624802 0.544174 0.684205
O O7 0.736585 0.542002 0.611407
O O8 0.764977 0.465039 0.872313
O O9 0.175152 0.278339 0.773051
O O10 0.091518 0.357125 0.481203
O O11 0.209801 0.398025 0.890178
O O12 0.865431 0.843249 0.229842
O O13 0.419307 0.922215 0.247331
O O14 0.382963 0.299933 0.522737
O O15 0.291419 0.635702 0.087353
O O16 0.250000 0.750000 0.000000
#
# Coordination Sequence:
#
# PCOD9281723 Si02
#       8
#     8   8   8   8   4   8   8   8
#     4  11  23  36  60  98 131 167 207 264 336 385
#     4  10  24  41  60  88 124 176 227 256 309 381
#     4  12  24  39  65  95 135 169 211 267 333 391
#     4  11  22  42  64  90 128 169 220 265 312 385
#     4  12  22  36  60  92 136 172 208 268 318 394
#     4  11  22  42  65  93 129 173 214 269 331 389
#     4  11  22  42  59  90 128 173 219 265 318 380
#     4  10  21  38  64  87 127 165 210 266 326 379
#
# _framework density 24.863095999999999
#
# number of rings (size 3 to 8) (size 9 to 14) (size 15 to 20)
#    0.000    1.067    4.000    4.400    0.000    0.533 
#    0.000    0.000    0.000    0.000    0.000   10.267 
#    0.000    0.000    0.000    0.000    0.000    0.000 
#
# Total GULP energy -167284.025531 kJ/mol
# GULP energy per Si atom -5576.134184 kJ/mol
# Density = 2.480651 g / cm^3
# Si number density = 24.863096 Si / 1000 Ang^3
#
#
#
# Elastic Constant Matrix: (Units=GPa)
#
#
# Indices 1 2 3 4 5 6 
#
# 1 43.8564 -5.2642 35.0630 0.0000 -7.2353 0.0000
# 2 -5.2642 88.3105 38.7180 0.0000 -6.4231 0.0000
# 3 35.0630 38.7180 170.2432 0.0000 -28.6933 0.0000
# 4 0.0000 0.0000 0.0000 53.1136 0.0000 -21.2947
# 5 -7.2353 -6.4231 -28.6933 0.0000 44.6561 0.0000
# 6 0.0000 0.0000 0.0000 -21.2947 0.0000 15.9106
#
#
#
# Elastic Compliance Matrix: (Units=1/GPa)
#
#
# Indices 1 2 3 4 5 6 
#
# 1 0.029080 0.004841 -0.006929 0.000000 0.000956 0.000000
# 2 0.004841 0.013384 -0.004020 0.000000 0.000127 0.000000
# 3 -0.006929 -0.004020 0.008891 0.000000 0.004012 0.000000
# 4 0.000000 0.000000 0.000000 0.040629 0.000000 0.054378
# 5 0.000956 0.000127 0.004012 0.000000 0.025144 0.000000
# 6 0.000000 0.000000 0.000000 0.054378 0.000000 0.135630
#
#
# Mechanical properties :
#
#
# Convention : Reuss Voigt Hill
#
# Bulk Modulus (GPa) = 25.54930 48.82706 37.18818
# Shear Modulus (GPa) = 17.98419 38.32893 28.15656
#
# Velocity S-wave (km/s) = 2.69240 3.93058 3.36886
# Velocity P-wave (km/s) = 4.46807 6.34667 5.48835
#
# Compressibility (1/GPa) = 0.03914002
#
# Stress axis : x y z
#
# Youngs Moduli (GPa) = 34.38750 74.71748 112.46733
#
# Poissons Ratio (x) = -0.36171 0.77931
# Poissons Ratio (y) = -0.16647 0.45206
# Poissons Ratio (z) = 0.23828 0.30033
#
# Static dielectric constant tensor:
#      x y z
#    x 1.474060 0.000000 -0.495870 
#    y 0.000000 -1.025310 0.000000 
#    z -0.495870 0.000000 1.726010 
# 
# From -- ./inp_files/63533.got.cif
#   From: 2010.05.17/outbox.cif.g08.bks.cpg/sg15_32_cif.got.tgz:63533.got - 2010.06.03 18:47:42.
