data_PCOD9281366
_publ_section_title
;
Structure prediction by ZEFSAII (Michael W. Deem and Ramdas Pophale) SiO2 
 PCOD9281366
Probable space group: C 2/C
;
_chemical_formula_sum "Si O2"
_cell_formula_units_Z 48
_cell_length_a 11.883360
_cell_length_b 22.932526
_cell_length_c 8.620096
_cell_angle_alpha 90.000000
_cell_angle_beta 100.514352
_cell_angle_gamma 90.000000
_cell_volume 2309.666086
_symmetry_space_group_name_H-M "C 2/C"
_symmetry_group_IT_number 15
_symmetry_cell_setting 'monoclinic'
loop_
_space_group_symop_operation_xyz
x,y,z
-x,y,1/2-z
-x,-y,-z
x,-y,1/2+z
1/2+x,1/2+y,z
1/2-x,1/2+y,1/2-z
1/2-x,1/2-y,-z
1/2+x,1/2-y,1/2+z
loop_
_atom_site_type_symbol
_atom_site_label
_atom_site_fract_x
_atom_site_fract_y
_atom_site_fract_z
Si Si1 0.746365 0.049033 0.250400
Si Si2 0.038811 0.382145 0.577907
Si Si3 0.117127 0.835269 0.326159
Si Si4 0.613472 0.343106 0.687772
Si Si5 0.175812 0.727089 0.124138
Si Si6 0.308435 0.072895 0.902975
O O1 0.650981 0.077623 0.113443
O O2 0.860495 0.088544 0.266837
O O3 0.715342 0.057869 0.422824
O O4 0.736355 0.981340 0.207847
O O5 0.075617 0.316593 0.545380
O O6 0.000000 0.379799 0.750000
O O7 0.941907 0.409268 0.443113
O O8 0.100748 0.827542 0.504972
O O9 0.129263 0.777697 0.224354
O O10 0.231858 0.872298 0.335090
O O11 0.000000 0.867581 0.250000
O O12 0.500000 0.324417 0.750000
O O13 0.731762 0.311771 0.761400
O O14 0.250000 0.750000 0.000000
#
# Coordination Sequence:
#
# PCOD9281366 Si02
#       6
#     8   8   8   8   8   8
#     4   9  20  37  60  88 119 153 196 246 299 362
#     4   9  19  38  60  85 117 154 194 246 305 358
#     4  11  24  40  58  85 121 162 204 250 299 356
#     4  10  22  40  62  88 120 161 203 246 302 362
#     4  11  23  39  61  90 120 155 203 255 305 362
#     4  10  21  38  61  88 119 159 198 243 305 360
#
# _framework density 20.782223999999999
#
# number of rings (size 3 to 8) (size 9 to 14) (size 15 to 20)
#    0.000    2.000    0.000    3.500    0.000    7.333 
#    0.000    5.000    0.000    0.000    0.000    0.000 
#    0.000    0.000    0.000    0.000    0.000    0.000 
#
# Total GULP energy -133864.454808 kJ/mol
# GULP energy per Si atom -5577.685617 kJ/mol
# Density = 2.073492 g / cm^3
# Si number density = 20.782224 Si / 1000 Ang^3
#
#
#
# Elastic Constant Matrix: (Units=GPa)
#
#
# Indices 1 2 3 4 5 6 
#
# 1 62.2422 10.5401 11.6572 0.0000 5.5013 0.0000
# 2 10.5401 86.2898 18.4081 0.0000 -5.2075 0.0000
# 3 11.6572 18.4081 57.3858 0.0000 12.1574 0.0000
# 4 0.0000 0.0000 0.0000 20.0110 0.0000 7.3706
# 5 5.5013 -5.2075 12.1574 0.0000 23.7123 0.0000
# 6 0.0000 0.0000 0.0000 7.3706 0.0000 20.3054
#
#
#
# Elastic Compliance Matrix: (Units=1/GPa)
#
#
# Indices 1 2 3 4 5 6 
#
# 1 0.017071 -0.001810 -0.002203 0.000000 -0.003228 0.000000
# 2 -0.001810 0.013271 -0.005156 0.000000 0.005978 0.000000
# 3 -0.002203 -0.005156 0.022054 0.000000 -0.011929 0.000000
# 4 0.000000 0.000000 0.000000 0.057685 0.000000 -0.020939
# 5 -0.003228 0.005978 -0.011929 0.000000 0.050350 0.000000
# 6 0.000000 0.000000 0.000000 -0.020939 0.000000 0.056848
#
#
# Mechanical properties :
#
#
# Convention : Reuss Voigt Hill
#
# Bulk Modulus (GPa) = 29.36152 31.90317 30.63235
# Shear Modulus (GPa) = 20.24545 23.82657 22.03601
#
# Velocity S-wave (km/s) = 3.12456 3.38966 3.25980
# Velocity P-wave (km/s) = 5.21306 5.54114 5.37960
#
# Compressibility (1/GPa) = 0.03405818
#
# Stress axis : x y z
#
# Youngs Moduli (GPa) = 58.57982 75.35496 45.34243
#
# Poissons Ratio (x) = 0.13639 0.09990
# Poissons Ratio (y) = 0.10603 0.23377
# Poissons Ratio (z) = 0.12906 0.38850
#
# Static dielectric constant tensor:
#      x y z
#    x 1.713170 0.000000 -0.060470 
#    y 0.000000 1.804020 0.000000 
#    z -0.060470 0.000000 1.583070 
# 
# From -- ./inp_files/32631.got.cif
#   From: 2010.05.17/outbox.cif.g08.bks.cpg/sg15_17_cif.got.tgz:32631.got - 2010.06.03 18:47:42.
