data_PCOD9281581
_publ_section_title
;
Structure prediction by ZEFSAII (Michael W. Deem and Ramdas Pophale) SiO2 
 PCOD9281581
Probable space group: C 2/C
;
_chemical_formula_sum "Si O2"
_cell_formula_units_Z 56
_cell_length_a 17.604294
_cell_length_b 5.441197
_cell_length_c 26.639378
_cell_angle_alpha 90.000000
_cell_angle_beta 71.757967
_cell_angle_gamma 90.000000
_cell_volume 2423.500369
_symmetry_space_group_name_H-M "C 2/C"
_symmetry_group_IT_number 15
_symmetry_cell_setting 'monoclinic'
loop_
_space_group_symop_operation_xyz
x,y,z
-x,y,1/2-z
-x,-y,-z
x,-y,1/2+z
1/2+x,1/2+y,z
1/2-x,1/2+y,1/2-z
1/2-x,1/2-y,-z
1/2+x,1/2-y,1/2+z
loop_
_atom_site_type_symbol
_atom_site_label
_atom_site_fract_x
_atom_site_fract_y
_atom_site_fract_z
Si Si1 0.853668 0.396481 0.018020
Si Si2 0.696816 0.185402 0.380541
Si Si3 0.500000 0.651509 0.750000
Si Si4 0.550669 0.202839 0.345248
Si Si5 0.362525 0.484319 0.346314
Si Si6 0.701289 0.076461 0.079546
Si Si7 0.967675 0.791008 0.901528
Si Si8 0.500000 0.500000 0.000000
O O1 0.861401 0.583384 0.063197
O O2 0.766375 0.282168 0.048789
O O3 0.923381 0.194842 0.005015
O O4 0.840176 0.498793 0.964539
O O5 0.641727 0.226508 0.344384
O O6 0.741554 0.407746 0.398683
O O7 0.771838 0.020705 0.348481
O O8 0.463297 0.801853 0.711351
O O9 0.572256 0.498117 0.710532
O O10 0.513382 0.457445 0.374177
O O11 0.513910 0.954895 0.376277
O O12 0.362525 0.217180 0.372353
O O13 0.387194 0.675377 0.385026
O O14 0.968710 0.824265 0.960626
#
# Coordination Sequence:
#
# PCOD9281581 Si02
#       8
#     8   8   4   8   8   8   8   4
#     4  10  21  38  63 100 144 195 239 291 361 441
#     4  11  23  42  70 103 141 190 239 306 362 455
#     4  10  26  54  72 104 134 188 240 314 370 440
#     4  11  26  49  73 100 146 184 245 304 370 428
#     4  10  24  45  70  98 138 182 243 298 372 426
#     4  10  21  41  61  99 145 188 232 297 362 440
#     4  11  25  45  70 107 145 191 235 303 356 445
#     4  12  20  40  68 104 146 194 250 284 366 442
#
# _framework density 23.107074000000001
#
# number of rings (size 3 to 8) (size 9 to 14) (size 15 to 20)
#    0.000    1.429    2.857    1.286    6.000    2.857 
#    7.714    0.000    0.000    0.000    0.000    0.000 
#    0.000    0.000    0.000    0.000    0.000    0.000 
#
# Total GULP energy -155904.177415 kJ/mol
# GULP energy per Si atom -5568.006336 kJ/mol
# Density = 2.305448 g / cm^3
# Si number density = 23.107074 Si / 1000 Ang^3
#
#
#
# Elastic Constant Matrix: (Units=GPa)
#
#
# Indices 1 2 3 4 5 6 
#
# 1 166.4312 25.4018 50.8799 0.0003 25.0263 0.0034
# 2 25.4018 80.2255 20.7295 0.0020 -3.2787 0.0083
# 3 50.8799 20.7295 107.5704 0.0009 -0.4091 0.0011
# 4 0.0003 0.0020 0.0009 19.5681 -0.0006 0.9905
# 5 25.0263 -3.2787 -0.4091 -0.0006 37.2557 0.0016
# 6 0.0034 0.0083 0.0011 0.9905 0.0016 31.8089
#
#
#
# Elastic Compliance Matrix: (Units=1/GPa)
#
#
# Indices 1 2 3 4 5 6 
#
# 1 0.008255 -0.001931 -0.003554 0.000000 -0.005754 0.000000
# 2 -0.001931 0.013617 -0.001702 -0.000001 0.002476 -0.000003
# 3 -0.003554 -0.001702 0.011314 0.000000 0.002362 0.000000
# 4 0.000000 -0.000001 0.000000 0.051184 0.000001 -0.001594
# 5 -0.005754 0.002476 0.002362 0.000001 0.030951 -0.000002
# 6 0.000000 -0.000003 0.000000 -0.001594 -0.000002 0.031487
#
#
# Mechanical properties :
#
#
# Convention : Reuss Voigt Hill
#
# Bulk Modulus (GPa) = 53.15364 60.91660 57.03512
# Shear Modulus (GPa) = 29.85916 34.87426 32.36671
#
# Velocity S-wave (km/s) = 3.59863 3.88912 3.74669
# Velocity P-wave (km/s) = 6.34980 6.82546 6.59192
#
# Compressibility (1/GPa) = 0.01881339
#
# Stress axis : x y z
#
# Youngs Moduli (GPa) = 121.13838 73.43762 88.38348
#
# Poissons Ratio (x) = 0.14177 0.31415
# Poissons Ratio (y) = 0.23386 0.15039
# Poissons Ratio (z) = 0.43058 0.12496
#
# Static dielectric constant tensor:
#      x y z
#    x 1.912250 0.000000 -0.019580 
#    y 0.000000 1.932640 0.000000 
#    z -0.019580 0.000000 1.898860 
# 
# From -- ./inp_files/297749.got.cif
#   From: 2010.05.17/outbox.cif.g08.bks.cpg/sg15_149_cif.got.tgz:297749.got - 2010.06.03 18:47:42.
