data_PCOD9281475
_publ_section_title
;
Structure prediction by ZEFSAII (Michael W. Deem and Ramdas Pophale) SiO2 
 PCOD9281475
Probable space group: C 2/C
;
_chemical_formula_sum "Si O2"
_cell_formula_units_Z 40
_cell_length_a 7.877284
_cell_length_b 28.989139
_cell_length_c 8.105060
_cell_angle_alpha 90.000000
_cell_angle_beta 91.449864
_cell_angle_gamma 90.000000
_cell_volume 1850.243946
_symmetry_space_group_name_H-M "C 2/C"
_symmetry_group_IT_number 15
_symmetry_cell_setting 'monoclinic'
loop_
_space_group_symop_operation_xyz
x,y,z
-x,y,1/2-z
-x,-y,-z
x,-y,1/2+z
1/2+x,1/2+y,z
1/2-x,1/2+y,1/2-z
1/2-x,1/2-y,-z
1/2+x,1/2-y,1/2+z
loop_
_atom_site_type_symbol
_atom_site_label
_atom_site_fract_x
_atom_site_fract_y
_atom_site_fract_z
Si Si1 0.000000 0.723667 0.250000
Si Si2 0.679832 0.427375 0.802361
Si Si3 0.000000 0.577044 0.750000
Si Si4 0.091492 0.643762 0.015877
Si Si5 0.690670 0.223424 0.829810
Si Si6 0.826689 0.020223 0.849127
O O1 0.993409 0.687473 0.400979
O O2 0.836844 0.755998 0.217806
O O3 0.500000 0.405918 0.750000
O O4 0.809337 0.387073 0.849076
O O5 0.718413 0.465816 0.664819
O O6 0.657717 0.458538 0.967731
O O7 0.166505 0.546583 0.771442
O O8 0.020916 0.608903 0.590011
O O9 0.206461 0.669566 0.879811
O O10 0.500000 0.231133 0.750000
O O11 0.750000 0.250000 0.000000
O O12 0.000000 0.027852 0.750000
#
# Coordination Sequence:
#
# PCOD9281475 Si02
#       6
#     4   8   4   8   8   8
#     4  10  24  41  70  92 122 176 208 259 338 378
#     4  10  21  38  62  93 128 161 213 258 299 377
#     4  10  22  41  58  90 134 154 208 263 304 370
#     4  10  22  40  62  94 127 162 210 266 305 382
#     4  10  22  44  65  93 130 161 214 270 321 388
#     4  10  21  38  62  88 124 173 201 251 315 362
#
# _framework density 21.618770999999999
#
# number of rings (size 3 to 8) (size 9 to 14) (size 15 to 20)
#    0.000    2.000    1.000    2.400    0.000   13.600 
#    7.200    2.000    0.000    0.000    0.000    0.000 
#    0.000    0.000    0.000    0.000    0.000    0.000 
#
# Total GULP energy -111443.672715 kJ/mol
# GULP energy per Si atom -5572.183636 kJ/mol
# Density = 2.156957 g / cm^3
# Si number density = 21.618771 Si / 1000 Ang^3
#
#
#
# Elastic Constant Matrix: (Units=GPa)
#
#
# Indices 1 2 3 4 5 6 
#
# 1 105.5134 50.2725 39.5673 0.0000 26.3852 0.0000
# 2 50.2725 81.7807 13.4645 0.0000 5.7792 0.0000
# 3 39.5673 13.4645 53.1280 0.0000 25.8063 0.0000
# 4 0.0000 0.0000 0.0000 12.0824 0.0000 -1.0167
# 5 26.3852 5.7792 25.8063 0.0000 40.1004 0.0000
# 6 0.0000 0.0000 0.0000 -1.0167 0.0000 23.1958
#
#
#
# Elastic Compliance Matrix: (Units=1/GPa)
#
#
# Indices 1 2 3 4 5 6 
#
# 1 0.018760 -0.009684 -0.009018 0.000000 -0.005144 0.000000
# 2 -0.009684 0.017762 0.001249 0.000000 0.003008 0.000000
# 3 -0.009018 0.001249 0.032626 0.000000 -0.015242 0.000000
# 4 0.000000 0.000000 0.000000 0.083071 0.000000 0.003641
# 5 -0.005144 0.003008 -0.015242 0.000000 0.037698 0.000000
# 6 0.000000 0.000000 0.000000 0.003641 0.000000 0.043271
#
#
# Mechanical properties :
#
#
# Convention : Reuss Voigt Hill
#
# Bulk Modulus (GPa) = 29.20335 49.67007 39.43671
# Shear Modulus (GPa) = 17.88863 24.21691 21.05277
#
# Velocity S-wave (km/s) = 2.87968 3.35054 3.12399
# Velocity P-wave (km/s) = 4.95927 6.16388 5.59410
#
# Compressibility (1/GPa) = 0.03424264
#
# Stress axis : x y z
#
# Youngs Moduli (GPa) = 53.30627 56.29893 30.65028
#
# Poissons Ratio (x) = 0.54518 0.27642
# Poissons Ratio (y) = 0.51620 -0.03829
# Poissons Ratio (z) = 0.48074 -0.07034
#
# Static dielectric constant tensor:
#      x y z
#    x 1.851270 0.000000 -0.118380 
#    y 0.000000 1.779160 0.000000 
#    z -0.118380 0.000000 1.993520 
# 
# From -- ./inp_files/24605.got.cif
#   From: 2010.05.17/outbox.cif.g08.bks.cpg/sg15_13_cif.got.tgz:24605.got - 2010.06.03 18:47:42.
