data_PCOD9281189
_publ_section_title
;
Structure prediction by ZEFSAII (Michael W. Deem and Ramdas Pophale) SiO2 
 PCOD9281189
Probable space group: C 2/C
;
_chemical_formula_sum "Si O2"
_cell_formula_units_Z 64
_cell_length_a 31.357404
_cell_length_b 12.706545
_cell_length_c 8.660158
_cell_angle_alpha 90.000000
_cell_angle_beta 65.089160
_cell_angle_gamma 90.000000
_cell_volume 3129.562347
_symmetry_space_group_name_H-M "C 2/C"
_symmetry_group_IT_number 15
_symmetry_cell_setting 'monoclinic'
loop_
_space_group_symop_operation_xyz
x,y,z
-x,y,1/2-z
-x,-y,-z
x,-y,1/2+z
1/2+x,1/2+y,z
1/2-x,1/2+y,1/2-z
1/2-x,1/2-y,-z
1/2+x,1/2-y,1/2+z
loop_
_atom_site_type_symbol
_atom_site_label
_atom_site_fract_x
_atom_site_fract_y
_atom_site_fract_z
Si Si1 0.390553 0.023920 0.430125
Si Si2 0.292609 0.217523 0.324360
Si Si3 0.527865 0.096999 0.858137
Si Si4 0.864131 0.864141 0.394679
Si Si5 0.182722 0.964136 0.737316
Si Si6 0.446669 0.231086 0.388774
Si Si7 0.236272 0.128482 0.867805
Si Si8 0.175509 0.513034 0.713072
O O1 0.415086 0.135825 0.368518
O O2 0.339298 0.999747 0.440886
O O3 0.427977 0.946534 0.303805
O O4 0.375767 0.012341 0.629735
O O5 0.250000 0.250000 0.500000
O O6 0.338172 0.271326 0.336148
O O7 0.281098 0.262351 0.173534
O O8 0.296570 0.093689 0.302086
O O9 0.500000 0.137683 0.750000
O O10 0.544543 0.188254 0.949663
O O11 0.500000 0.000000 0.000000
O O12 0.836574 0.892386 0.594898
O O13 0.915558 0.830062 0.378809
O O14 0.856906 0.966298 0.293890
O O15 0.210923 0.900968 0.564912
O O16 0.217260 0.047625 0.766264
O O17 0.500000 0.238590 0.250000
O O18 0.291917 0.111509 0.799162
#
# Coordination Sequence:
#
# PCOD9281189 Si02
#       8
#     8   8   8   8   8   8   8   8
#     4  12  22  37  59  86 127 166 202 260 306 368
#     4  11  22  37  62  87 127 172 214 261 310 375
#     4  12  21  38  60  84 122 169 201 244 313 377
#     4  10  22  40  67  92 118 164 214 260 321 381
#     4   9  19  42  63  84 123 163 204 261 321 370
#     4  12  24  41  64  93 124 165 214 259 321 390
#     4  10  21  38  59  88 126 169 205 254 316 372
#     4  12  23  37  57  93 127 167 215 258 307 364
#
# _framework density 20.450143000000001
#
# number of rings (size 3 to 8) (size 9 to 14) (size 15 to 20)
#    0.000    1.000    5.000    3.750    0.000    1.000 
#    0.000    6.250    0.000    0.000    0.000    0.000 
#    0.000    0.000    0.000    0.000    0.000    0.000 
#
# Total GULP energy -178278.056740 kJ/mol
# GULP energy per Si atom -5571.189273 kJ/mol
# Density = 2.040360 g / cm^3
# Si number density = 20.450143 Si / 1000 Ang^3
#
#
#
# Elastic Constant Matrix: (Units=GPa)
#
#
# Indices 1 2 3 4 5 6 
#
# 1 117.4011 23.8518 20.7720 0.0000 13.2338 0.0000
# 2 23.8518 23.6624 9.0547 0.0000 3.2394 0.0000
# 3 20.7720 9.0547 64.6151 0.0000 0.6537 0.0000
# 4 0.0000 0.0000 0.0000 20.3911 0.0000 3.8792
# 5 13.2338 3.2394 0.6537 0.0000 37.4422 0.0000
# 6 0.0000 0.0000 0.0000 3.8792 0.0000 31.0862
#
#
#
# Elastic Compliance Matrix: (Units=1/GPa)
#
#
# Indices 1 2 3 4 5 6 
#
# 1 0.011313 -0.010146 -0.002184 0.000000 -0.003083 0.000000
# 2 -0.010146 0.054289 -0.004336 0.000000 -0.001035 0.000000
# 3 -0.002184 -0.004336 0.016777 0.000000 0.000854 0.000000
# 4 0.000000 0.000000 0.000000 0.050234 0.000000 -0.006268
# 5 -0.003083 -0.001035 0.000854 0.000000 0.027872 0.000000
# 6 0.000000 0.000000 0.000000 -0.006268 0.000000 0.032951
#
#
# Mechanical properties :
#
#
# Convention : Reuss Voigt Hill
#
# Bulk Modulus (GPa) = 20.38792 34.78172 27.58482
# Shear Modulus (GPa) = 20.56634 27.91723 24.24178
#
# Velocity S-wave (km/s) = 3.17469 3.69878 3.44671
# Velocity P-wave (km/s) = 4.84039 5.94023 5.41829
#
# Compressibility (1/GPa) = 0.04904865
#
# Stress axis : x y z
#
# Youngs Moduli (GPa) = 88.39423 18.41994 59.60457
#
# Poissons Ratio (x) = 0.18689 0.13017
# Poissons Ratio (y) = 0.89683 0.25842
# Poissons Ratio (z) = 0.19304 0.07986
#
# Static dielectric constant tensor:
#      x y z
#    x 1.917800 0.000000 -0.018580 
#    y 0.000000 1.235610 0.000000 
#    z -0.018580 0.000000 1.748870 
# 
# From -- ./inp_files/66204.got.cif
#   From: 2010.05.17/outbox.cif.g08.bks.cpg/sg15_34_cif.got.tgz:66204.got - 2010.06.03 18:47:42.
