data_PCOD9281171
_publ_section_title
;
Structure prediction by ZEFSAII (Michael W. Deem and Ramdas Pophale) SiO2 
 PCOD9281171
Probable space group: C 2/C
;
_chemical_formula_sum "Si O2"
_cell_formula_units_Z 64
_cell_length_a 24.881132
_cell_length_b 13.864743
_cell_length_c 10.325919
_cell_angle_alpha 90.000000
_cell_angle_beta 73.671783
_cell_angle_gamma 90.000000
_cell_volume 3418.465591
_symmetry_space_group_name_H-M "C 2/C"
_symmetry_group_IT_number 15
_symmetry_cell_setting 'monoclinic'
loop_
_space_group_symop_operation_xyz
x,y,z
-x,y,1/2-z
-x,-y,-z
x,-y,1/2+z
1/2+x,1/2+y,z
1/2-x,1/2+y,1/2-z
1/2-x,1/2-y,-z
1/2+x,1/2-y,1/2+z
loop_
_atom_site_type_symbol
_atom_site_label
_atom_site_fract_x
_atom_site_fract_y
_atom_site_fract_z
Si Si1 0.717943 0.244240 0.156353
Si Si2 0.952799 0.746803 0.887997
Si Si3 0.366622 0.928863 0.498580
Si Si4 0.884113 0.592356 0.277937
Si Si5 0.754908 0.162063 0.398455
Si Si6 0.629306 0.571696 0.085855
Si Si7 0.862313 0.908831 0.215784
Si Si8 0.038274 0.241246 0.834164
O O1 0.666934 0.168436 0.174985
O O2 0.753003 0.202515 0.253432
O O3 0.694054 0.349986 0.210891
O O4 0.750000 0.250000 0.000000
O O5 0.904876 0.664431 0.936922
O O6 0.919090 0.846142 0.879498
O O7 0.000000 0.726506 0.750000
O O8 0.984623 0.749800 0.005357
O O9 0.379452 0.954385 0.638855
O O10 0.300871 0.901481 0.540747
O O11 0.380763 0.014176 0.391662
O O12 0.939629 0.657372 0.236346
O O13 0.750000 0.250000 0.500000
O O14 0.812706 0.111480 0.394464
O O15 0.618150 0.481390 0.186026
O O16 0.639801 0.546830 0.927113
O O17 0.908000 0.824773 0.178754
O O18 0.000000 0.196541 0.750000
#
# Coordination Sequence:
#
# PCOD9281171 Si02
#       8
#     8   8   8   8   8   8   8   8
#     4  10  22  39  55  86 123 155 193 239 285 343
#     4  10  22  41  60  84 117 151 195 245 291 351
#     4  10  21  38  59  86 119 153 192 236 292 346
#     4   9  21  38  57  86 118 151 191 239 287 347
#     4  11  20  39  62  80 120 162 188 233 290 347
#     4  11  23  40  60  89 118 157 198 238 294 348
#     4  10  23  39  59  85 121 151 196 244 288 349
#     4   9  20  42  62  79 115 156 192 243 296 341
#
# _framework density 18.72185
#
# number of rings (size 3 to 8) (size 9 to 14) (size 15 to 20)
#    0.000    2.000    2.500    1.500    3.500    5.000 
#    2.250    5.000    0.000    0.000    0.000    0.000 
#    0.000    0.000    0.000    0.000    0.000    0.000 
#
# Total GULP energy -178434.389583 kJ/mol
# GULP energy per Si atom -5576.074674 kJ/mol
# Density = 1.867924 g / cm^3
# Si number density = 18.721850 Si / 1000 Ang^3
#
#
#
# Elastic Constant Matrix: (Units=GPa)
#
#
# Indices 1 2 3 4 5 6 
#
# 1 55.5147 -8.0348 34.7717 0.0000 9.1562 0.0000
# 2 -8.0348 65.1348 47.1612 0.0000 10.7538 0.0000
# 3 34.7717 47.1612 175.6911 0.0000 6.0570 0.0000
# 4 0.0000 0.0000 0.0000 33.6215 0.0000 12.0569
# 5 9.1562 10.7538 6.0570 0.0000 21.7079 0.0000
# 6 0.0000 0.0000 0.0000 12.0569 0.0000 8.1931
#
#
#
# Elastic Compliance Matrix: (Units=1/GPa)
#
#
# Indices 1 2 3 4 5 6 
#
# 1 0.027151 0.011591 -0.007969 0.000000 -0.014971 0.000000
# 2 0.011591 0.025524 -0.008624 0.000000 -0.015127 0.000000
# 3 -0.007969 -0.008624 0.009411 0.000000 0.005007 0.000000
# 4 0.000000 0.000000 0.000000 0.062978 0.000000 -0.092678
# 5 -0.014971 -0.015127 0.005007 0.000000 0.058477 0.000000
# 6 0.000000 0.000000 0.000000 -0.092678 0.000000 0.258438
#
#
# Mechanical properties :
#
#
# Convention : Reuss Voigt Hill
#
# Bulk Modulus (GPa) = 19.20016 49.34853 34.27435
# Shear Modulus (GPa) = 10.65313 27.53398 19.09356
#
# Velocity S-wave (km/s) = 2.38800 3.83911 3.19698
# Velocity P-wave (km/s) = 4.22861 6.78732 5.65460
#
# Compressibility (1/GPa) = 0.05208289
#
# Stress axis : x y z
#
# Youngs Moduli (GPa) = 36.83063 39.17819 106.25516
#
# Poissons Ratio (x) = -0.45411 0.84673
# Poissons Ratio (y) = -0.42690 0.91635
# Poissons Ratio (z) = 0.29350 0.33788
#
# Static dielectric constant tensor:
#      x y z
#    x 1.605950 0.000000 0.060790 
#    y 0.000000 1.580290 0.000000 
#    z 0.060790 0.000000 1.602170 
# 
# From -- ./inp_files/66189.got.cif
#   From: 2010.05.17/outbox.cif.g08.bks.cpg/sg15_34_cif.got.tgz:66189.got - 2010.06.03 18:47:42.
