data_PCOD9281865
_publ_section_title
;
Structure prediction by ZEFSAII (Michael W. Deem and Ramdas Pophale) SiO2 
 PCOD9281865
Probable space group: C 2/C
;
_chemical_formula_sum "Si O2"
_cell_formula_units_Z 48
_cell_length_a 7.939438
_cell_length_b 30.915354
_cell_length_c 8.172993
_cell_angle_alpha 90.000000
_cell_angle_beta 93.722875
_cell_angle_gamma 90.000000
_cell_volume 2001.832265
_symmetry_space_group_name_H-M "C 2/C"
_symmetry_group_IT_number 15
_symmetry_cell_setting 'monoclinic'
loop_
_space_group_symop_operation_xyz
x,y,z
-x,y,1/2-z
-x,-y,-z
x,-y,1/2+z
1/2+x,1/2+y,z
1/2-x,1/2+y,1/2-z
1/2-x,1/2-y,-z
1/2+x,1/2-y,1/2+z
loop_
_atom_site_type_symbol
_atom_site_label
_atom_site_fract_x
_atom_site_fract_y
_atom_site_fract_z
Si Si1 0.302518 0.731659 0.685965
Si Si2 0.613309 0.607147 0.422331
Si Si3 0.655185 0.950350 0.136745
Si Si4 0.697502 0.359984 0.423954
Si Si5 0.315640 0.517100 0.947355
Si Si6 0.699556 0.819933 0.725961
O O1 0.500000 0.730612 0.750000
O O2 0.250000 0.750000 0.500000
O O3 0.258874 0.680969 0.688168
O O4 0.234858 0.770830 0.795246
O O5 0.500000 0.601493 0.250000
O O6 0.490270 0.619655 0.565466
O O7 0.708469 0.562231 0.457927
O O8 0.741464 0.646704 0.406411
O O9 0.500000 0.954218 0.250000
O O10 0.683159 0.900611 0.096000
O O11 0.803088 0.969348 0.259379
O O12 0.677219 0.980511 0.980408
O O13 0.721079 0.338908 0.603967
O O14 0.500000 0.500000 0.000000
O O15 0.500000 0.819630 0.750000
#
# Coordination Sequence:
#
# PCOD9281865 Si02
#       6
#     8   8   8   8   8   8
#     4   9  19  38  63  94 135 176 221 280 333 405
#     4  10  21  38  65  94 125 172 222 270 322 400
#     4  12  28  45  64  99 134 173 217 281 343 396
#     4  10  22  40  65  94 134 173 224 271 333 399
#     4  12  25  44  69  94 131 171 226 269 332 405
#     4   9  20  39  64  96 131 174 220 273 340 395
#
# _framework density 23.978031000000001
#
# number of rings (size 3 to 8) (size 9 to 14) (size 15 to 20)
#    0.000    1.667    1.667    2.000    7.000    0.667 
#    0.000    9.167    0.000    0.000    0.000    0.000 
#    0.000    0.000    0.000    0.000    0.000    0.000 
#
# Total GULP energy -133884.817437 kJ/mol
# GULP energy per Si atom -5578.534060 kJ/mol
# Density = 2.392346 g / cm^3
# Si number density = 23.978031 Si / 1000 Ang^3
#
#
#
# Elastic Constant Matrix: (Units=GPa)
#
#
# Indices 1 2 3 4 5 6 
#
# 1 50.4683 20.4365 -4.4297 0.0000 -14.1111 0.0000
# 2 20.4365 237.8098 30.0964 0.0000 -23.8567 0.0000
# 3 -4.4297 30.0964 53.6987 0.0000 -2.2730 0.0000
# 4 0.0000 0.0000 0.0000 -55.8434 0.0000 57.5295
# 5 -14.1111 -23.8567 -2.2730 0.0000 32.9326 0.0000
# 6 0.0000 0.0000 0.0000 57.5295 0.0000 -23.3259
#
#
#
# Elastic Compliance Matrix: (Units=1/GPa)
#
#
# Indices 1 2 3 4 5 6 
#
# 1 0.023233 -0.001480 0.003131 0.000000 0.009099 0.000000
# 2 -0.001480 0.004963 -0.002786 0.000000 0.002768 0.000000
# 3 0.003131 -0.002786 0.020473 0.000000 0.000736 0.000000
# 4 0.000000 0.000000 0.000000 0.011622 0.000000 0.028664
# 5 0.009099 0.002768 0.000736 0.000000 0.036320 0.000000
# 6 0.000000 0.000000 0.000000 0.028664 0.000000 0.027824
#
#
# Mechanical properties :
#
#
# Convention : Reuss Voigt Hill
#
# Bulk Modulus (GPa) = 21.55247 48.24257 34.89752
# Shear Modulus (GPa) = 35.16895 10.47756 22.82326
#
# Velocity S-wave (km/s) = 3.83393 2.09264 3.08854
# Velocity P-wave (km/s) = 5.34851 5.09922 5.22535
#
# Compressibility (1/GPa) = 0.04639840
#
# Stress axis : x y z
#
# Youngs Moduli (GPa) = 43.04291 201.50826 48.84364
#
# Poissons Ratio (x) = 0.29823 -0.15294
# Poissons Ratio (y) = 0.06370 0.13609
# Poissons Ratio (z) = -0.13477 0.56145
#
# Static dielectric constant tensor:
#      x y z
#    x 1.948420 0.000000 0.021240 
#    y 0.000000 1.960790 0.000000 
#    z 0.021240 0.000000 2.046320 
# 
# From -- ./inp_files/26099.got.cif
#   From: 2010.05.17/outbox.cif.g08.bks.cpg/sg15_14_cif.got.tgz:26099.got - 2010.06.03 18:47:42.
