data_PCOD9281451
_publ_section_title
;
Structure prediction by ZEFSAII (Michael W. Deem and Ramdas Pophale) SiO2 
 PCOD9281451
Probable space group: C 2/C
;
_chemical_formula_sum "Si O2"
_cell_formula_units_Z 56
_cell_length_a 9.525304
_cell_length_b 15.540922
_cell_length_c 17.506970
_cell_angle_alpha 90.000000
_cell_angle_beta 69.810088
_cell_angle_gamma 90.000000
_cell_volume 2432.348434
_symmetry_space_group_name_H-M "C 2/C"
_symmetry_group_IT_number 15
_symmetry_cell_setting 'monoclinic'
loop_
_space_group_symop_operation_xyz
x,y,z
-x,y,1/2-z
-x,-y,-z
x,-y,1/2+z
1/2+x,1/2+y,z
1/2-x,1/2+y,1/2-z
1/2-x,1/2-y,-z
1/2+x,1/2-y,1/2+z
loop_
_atom_site_type_symbol
_atom_site_label
_atom_site_fract_x
_atom_site_fract_y
_atom_site_fract_z
Si Si1 0.985926 0.188643 0.091285
Si Si2 0.853353 0.942111 0.737169
Si Si3 0.842357 0.407575 0.240759
Si Si4 0.195718 0.353891 0.907953
Si Si5 0.166685 0.158256 0.530662
Si Si6 0.068293 0.780616 0.315719
Si Si7 0.563343 0.889044 0.440339
O O1 0.905183 0.138043 0.175330
O O2 0.943514 0.288313 0.087115
O O3 0.161993 0.184177 0.074327
O O4 0.933570 0.140972 0.024073
O O5 0.762563 0.905859 0.825327
O O6 0.000000 0.983369 0.750000
O O7 0.751429 0.010285 0.711510
O O8 0.722374 0.330221 0.268734
O O9 0.891995 0.433232 0.146115
O O10 0.000000 0.386073 0.250000
O O11 0.098068 0.282440 0.881579
O O12 0.090905 0.402881 0.987223
O O13 0.250000 0.250000 0.500000
O O14 0.304665 0.097591 0.523720
O O15 0.062512 0.159986 0.624954
O O16 0.000000 0.742022 0.250000
#
# Coordination Sequence:
#
# PCOD9281451 Si02
#       7
#     8   8   8   8   8   8   8
#     4  10  21  42  67  96 131 164 216 267 326 381
#     4  10  25  46  62  90 131 177 215 262 328 389
#     4  12  27  43  65  93 129 174 222 267 319 390
#     4  11  23  39  70  98 128 167 211 275 322 382
#     4  10  21  38  62 102 128 162 208 263 325 380
#     4  12  23  40  68  98 132 172 212 266 328 379
#     4  11  22  40  66 100 128 161 215 272 321 385
#
# _framework density 23.023015999999998
#
# number of rings (size 3 to 8) (size 9 to 14) (size 15 to 20)
#    0.000    1.143    4.286    2.571    4.000    3.429 
#    0.000    0.714    0.000    0.000    0.000    0.000 
#    0.000    0.000    0.000    0.000    0.000    0.000 
#
# Total GULP energy -156398.672722 kJ/mol
# GULP energy per Si atom -5585.666883 kJ/mol
# Density = 2.297061 g / cm^3
# Si number density = 23.023016 Si / 1000 Ang^3
#
#
#
# Elastic Constant Matrix: (Units=GPa)
#
#
# Indices 1 2 3 4 5 6 
#
# 1 142.8350 27.0461 29.4250 0.0000 4.4294 0.0000
# 2 27.0461 32.8693 9.9319 0.0000 -2.2269 0.0000
# 3 29.4250 9.9319 123.5449 0.0000 -12.9595 0.0000
# 4 0.0000 0.0000 0.0000 -162.2638 0.0000 -128.8677
# 5 4.4294 -2.2269 -12.9595 0.0000 48.6475 0.0000
# 6 0.0000 0.0000 0.0000 -128.8677 0.0000 -71.2431
#
#
#
# Elastic Compliance Matrix: (Units=1/GPa)
#
#
# Indices 1 2 3 4 5 6 
#
# 1 0.008671 -0.006730 -0.001686 0.000000 -0.001547 0.000000
# 2 -0.006730 0.036433 -0.001118 0.000000 0.001983 0.000000
# 3 -0.001686 -0.001118 0.008844 0.000000 0.002458 0.000000
# 4 0.000000 0.000000 0.000000 0.014117 0.000000 -0.025535
# 5 -0.001547 0.001983 0.002458 0.000000 0.021443 0.000000
# 6 0.000000 0.000000 0.000000 -0.025535 0.000000 0.032152
#
#
# Mechanical properties :
#
#
# Convention : Reuss Voigt Hill
#
# Bulk Modulus (GPa) = 28.67048 48.00613 38.33831
# Shear Modulus (GPa) = 32.81826 -21.44879 5.68474
#
# Velocity S-wave (km/s) = 3.77962 -3.05556 1.57306
# Velocity P-wave (km/s) = 5.61492 2.90655 4.47076
#
# Compressibility (1/GPa) = 0.03487908
#
# Stress axis : x y z
#
# Youngs Moduli (GPa) = 115.33002 27.44743 113.07586
#
# Poissons Ratio (x) = 0.18472 0.19069
# Poissons Ratio (y) = 0.77616 0.12643
# Poissons Ratio (z) = 0.19449 0.03069
#
# Static dielectric constant tensor:
#      x y z
#    x 1.918680 0.000000 -0.013890 
#    y 0.000000 1.916860 0.000000 
#    z -0.013890 0.000000 1.850070 
# 
# From -- ./inp_files/190888.got.cif
#   From: 2010.05.17/outbox.cif.g08.bks.cpg/sg15_96_cif.got.tgz:190888.got - 2010.06.03 18:47:42.
