data_PCOD9281738
_publ_section_title
;
Structure prediction by ZEFSAII (Michael W. Deem and Ramdas Pophale) SiO2 
 PCOD9281738
Probable space group: C 2/C
;
_chemical_formula_sum "Si O2"
_cell_formula_units_Z 40
_cell_length_a 6.895221
_cell_length_b 29.394254
_cell_length_c 10.391700
_cell_angle_alpha 90.000000
_cell_angle_beta 64.401158
_cell_angle_gamma 90.000000
_cell_volume 1899.447673
_symmetry_space_group_name_H-M "C 2/C"
_symmetry_group_IT_number 15
_symmetry_cell_setting 'monoclinic'
loop_
_space_group_symop_operation_xyz
x,y,z
-x,y,1/2-z
-x,-y,-z
x,-y,1/2+z
1/2+x,1/2+y,z
1/2-x,1/2+y,1/2-z
1/2-x,1/2-y,-z
1/2+x,1/2-y,1/2+z
loop_
_atom_site_type_symbol
_atom_site_label
_atom_site_fract_x
_atom_site_fract_y
_atom_site_fract_z
Si Si1 0.251012 0.651064 0.701685
Si Si2 0.963169 0.945330 0.123832
Si Si3 0.101513 0.722296 0.945909
Si Si4 0.640147 0.986642 0.584373
Si Si5 0.358500 0.306184 0.898612
O O1 0.365154 0.603209 0.685083
O O2 0.346401 0.672294 0.543793
O O3 0.000000 0.641696 0.750000
O O4 0.759106 0.686396 0.676584
O O5 0.000000 0.970669 0.250000
O O6 0.796829 0.971758 0.080603
O O7 0.197964 0.945498 0.993689
O O8 0.983634 0.758576 0.886424
O O9 0.250000 0.750000 0.000000
O O10 0.890518 0.699653 0.071865
O O11 0.500000 0.976990 0.750000
O O12 0.500000 0.000000 0.500000
O O13 0.500000 0.331081 0.750000
#
# Coordination Sequence:
#
# PCOD9281738 Si02
#       5
#     8   8   8   8   8
#     4  10  23  42  64  95 138 177 232 290 344 414
#     4  11  24  41  71 103 136 186 228 281 356 426
#     4  10  21  38  64  89 120 176 226 283 340 410
#     4  11  23  46  72 104 139 180 230 280 352 430
#     4  10  21  39  57  89 127 171 229 287 343 397
#
# _framework density 21.058752999999999
#
# number of rings (size 3 to 8) (size 9 to 14) (size 15 to 20)
#    0.000    1.600    2.000    3.600    2.800    2.400 
#    3.600    0.000    0.000    0.000    0.000    0.000 
#    0.000    0.000    0.000    0.000    0.000    0.000 
#
# Total GULP energy -111653.972053 kJ/mol
# GULP energy per Si atom -5582.698603 kJ/mol
# Density = 2.101082 g / cm^3
# Si number density = 21.058753 Si / 1000 Ang^3
#
#
#
# Elastic Constant Matrix: (Units=GPa)
#
#
# Indices 1 2 3 4 5 6 
#
# 1 142.5351 43.1733 80.5589 0.0000 9.6936 0.0000
# 2 43.1733 70.7984 32.4309 0.0000 1.1821 0.0000
# 3 80.5589 32.4309 178.5639 0.0000 -17.7778 0.0000
# 4 0.0000 0.0000 0.0000 32.0547 0.0000 -11.0038
# 5 9.6936 1.1821 -17.7778 0.0000 36.0421 0.0000
# 6 0.0000 0.0000 0.0000 -11.0038 0.0000 27.3292
#
#
#
# Elastic Compliance Matrix: (Units=1/GPa)
#
#
# Indices 1 2 3 4 5 6 
#
# 1 0.011585 -0.004729 -0.004903 0.000000 -0.005379 0.000000
# 2 -0.004729 0.017472 -0.001020 0.000000 0.000195 0.000000
# 3 -0.004903 -0.001020 0.008552 0.000000 0.005571 0.000000
# 4 0.000000 0.000000 0.000000 0.036200 0.000000 0.014576
# 5 -0.005379 0.000195 0.005571 0.000000 0.031933 0.000000
# 6 0.000000 0.000000 0.000000 0.014576 0.000000 0.042460
#
#
# Mechanical properties :
#
#
# Convention : Reuss Voigt Hill
#
# Bulk Modulus (GPa) = 61.33219 78.24707 69.78963
# Shear Modulus (GPa) = 28.58056 34.80082 31.69069
#
# Velocity S-wave (km/s) = 3.68799 4.06958 3.88347
# Velocity P-wave (km/s) = 6.87914 7.70189 7.30211
#
# Compressibility (1/GPa) = 0.01630465
#
# Stress axis : x y z
#
# Youngs Moduli (GPa) = 86.31577 57.23283 116.92655
#
# Poissons Ratio (x) = 0.27065 0.57334
# Poissons Ratio (y) = 0.40818 0.11932
# Poissons Ratio (z) = 0.42324 0.05841
#
# Static dielectric constant tensor:
#      x y z
#    x 1.797210 0.000000 0.010030 
#    y 0.000000 1.782110 0.000000 
#    z 0.010030 0.000000 1.838770 
# 
# From -- ./inp_files/73781.got.cif
#   From: 2010.05.17/outbox.cif.g08.bks.cpg/sg15_37_cif.got.tgz:73781.got - 2010.06.03 18:47:42.
