data_PCOD9281164
_publ_section_title
;
Structure prediction by ZEFSAII (Michael W. Deem and Ramdas Pophale) SiO2 
 PCOD9281164
Probable space group: C 2/C
;
_chemical_formula_sum "Si O2"
_cell_formula_units_Z 56
_cell_length_a 14.339225
_cell_length_b 19.650970
_cell_length_c 13.427587
_cell_angle_alpha 90.000000
_cell_angle_beta 45.025887
_cell_angle_gamma 90.000000
_cell_volume 2676.632708
_symmetry_space_group_name_H-M "C 2/C"
_symmetry_group_IT_number 15
_symmetry_cell_setting 'monoclinic'
loop_
_space_group_symop_operation_xyz
x,y,z
-x,y,1/2-z
-x,-y,-z
x,-y,1/2+z
1/2+x,1/2+y,z
1/2-x,1/2+y,1/2-z
1/2-x,1/2-y,-z
1/2+x,1/2-y,1/2+z
loop_
_atom_site_type_symbol
_atom_site_label
_atom_site_fract_x
_atom_site_fract_y
_atom_site_fract_z
Si Si1 0.218788 0.974293 0.335129
Si Si2 0.484166 0.525731 0.874633
Si Si3 0.920903 0.870547 0.719212
Si Si4 0.575613 0.866856 0.292111
Si Si5 0.140044 0.583418 0.402354
Si Si6 0.575537 0.800413 0.794485
Si Si7 0.128442 0.758250 0.901343
O O1 0.299181 0.914147 0.324961
O O2 0.156227 0.026496 0.463482
O O3 0.096873 0.946049 0.361784
O O4 0.308747 0.014770 0.187695
O O5 0.500000 0.551785 0.750000
O O6 0.515069 0.444458 0.846395
O O7 0.768313 0.884340 0.858763
O O8 0.916413 0.824414 0.625864
O O9 0.000000 0.837552 0.750000
O O10 0.500000 0.844159 0.250000
O O11 0.475366 0.914545 0.430725
O O12 0.617318 0.804583 0.331769
O O13 0.097282 0.632497 0.344661
O O14 0.500000 0.816111 0.750000
O O15 0.721196 0.767631 0.675185
O O16 0.475300 0.753909 0.932991
#
# Coordination Sequence:
#
# PCOD9281164 Si02
#       7
#     8   8   8   8   8   8   8
#     4  10  21  38  59  85 118 153 197 242 285 353
#     4   9  20  38  62  87 114 151 201 244 289 339
#     4   9  18  34  64  82 115 153 183 239 297 338
#     4  11  24  36  58  88 122 154 190 238 297 356
#     4   9  21  40  54  85 118 150 197 242 291 346
#     4  10  21  40  61  81 115 159 197 241 289 344
#     4  10  22  38  58  90 121 148 199 241 285 353
#
# _framework density 20.921809
#
# number of rings (size 3 to 8) (size 9 to 14) (size 15 to 20)
#    0.000    2.286    0.000    1.286    8.000    0.571 
#    5.143    5.000    0.000    0.000    0.000    0.000 
#    0.000    0.000    0.000    0.000    0.000    0.000 
#
# Total GULP energy -156276.439617 kJ/mol
# GULP energy per Si atom -5581.301415 kJ/mol
# Density = 2.087419 g / cm^3
# Si number density = 20.921809 Si / 1000 Ang^3
#
#
#
# Elastic Constant Matrix: (Units=GPa)
#
#
# Indices 1 2 3 4 5 6 
#
# 1 143.9947 13.2259 33.6118 -0.0001 0.2429 0.0000
# 2 13.2259 17.9627 1.2058 -0.0001 -12.8830 0.0001
# 3 33.6118 1.2058 62.8569 -0.0003 -3.5351 0.0002
# 4 -0.0001 -0.0001 -0.0003 8.6628 0.0002 -2.6809
# 5 0.2429 -12.8830 -3.5351 0.0002 23.8562 -0.0001
# 6 0.0000 0.0001 0.0002 -2.6809 -0.0001 12.2856
#
#
#
# Elastic Compliance Matrix: (Units=1/GPa)
#
#
# Indices 1 2 3 4 5 6 
#
# 1 0.009202 -0.011494 -0.005097 0.000000 -0.007056 0.000000
# 2 -0.011494 0.105285 0.007392 0.000000 0.058069 0.000000
# 3 -0.005097 0.007392 0.018878 0.000001 0.006841 0.000000
# 4 0.000000 0.000000 0.000001 0.123797 -0.000001 0.027014
# 5 -0.007056 0.058069 0.006841 -0.000001 0.074362 0.000000
# 6 0.000000 0.000000 0.000000 0.027014 0.000000 0.087291
#
#
# Mechanical properties :
#
#
# Convention : Reuss Voigt Hill
#
# Bulk Modulus (GPa) = 8.69811 35.65568 22.17689
# Shear Modulus (GPa) = 10.51449 20.74564 15.63007
#
# Velocity S-wave (km/s) = 2.24422 3.15235 2.73622
# Velocity P-wave (km/s) = 3.29876 5.50719 4.53932
#
# Compressibility (1/GPa) = 0.11496756
#
# Stress axis : x y z
#
# Youngs Moduli (GPa) = 108.67119 9.49803 52.97266
#
# Poissons Ratio (x) = 0.10917 0.27000
# Poissons Ratio (y) = 1.24905 -0.39159
# Poissons Ratio (z) = 0.55390 -0.07021
#
# Static dielectric constant tensor:
#      x y z
#    x 1.744540 0.000000 0.000030 
#    y 0.000000 1.749300 0.000000 
#    z 0.000030 0.000000 1.819160 
# 
# From -- ./inp_files/91965.got.cif
#   From: 2010.05.17/outbox.cif.g08.bks.cpg/sg15_46_cif.got.tgz:91965.got - 2010.06.03 18:47:42.
