data_PCOD9281788
_publ_section_title
;
Structure prediction by ZEFSAII (Michael W. Deem and Ramdas Pophale) SiO2 
 PCOD9281788
Probable space group: C 2/C
;
_chemical_formula_sum "Si O2"
_cell_formula_units_Z 40
_cell_length_a 23.473384
_cell_length_b 9.167625
_cell_length_c 15.563871
_cell_angle_alpha 90.000000
_cell_angle_beta 31.708693
_cell_angle_gamma 90.000000
_cell_volume 1760.378789
_symmetry_space_group_name_H-M "C 2/C"
_symmetry_group_IT_number 15
_symmetry_cell_setting 'monoclinic'
loop_
_space_group_symop_operation_xyz
x,y,z
-x,y,1/2-z
-x,-y,-z
x,-y,1/2+z
1/2+x,1/2+y,z
1/2-x,1/2+y,1/2-z
1/2-x,1/2-y,-z
1/2+x,1/2-y,1/2+z
loop_
_atom_site_type_symbol
_atom_site_label
_atom_site_fract_x
_atom_site_fract_y
_atom_site_fract_z
Si Si1 0.225722 0.589137 0.002394
Si Si2 0.891683 0.849831 0.837810
Si Si3 0.109674 0.715386 0.848879
Si Si4 0.474199 0.956195 0.637831
Si Si5 0.686088 0.882614 0.923600
O O1 0.098875 0.569559 0.186194
O O2 0.250000 0.750000 0.000000
O O3 0.307357 0.481460 0.946876
O O4 0.237789 0.535274 0.889066
O O5 0.912393 0.804289 0.711604
O O6 0.000000 0.887981 0.750000
O O7 0.841257 0.714783 0.956398
O O8 0.221450 0.785165 0.739886
O O9 0.108033 0.546789 0.818440
O O10 0.018934 0.693548 0.038790
O O11 0.573230 0.068076 0.527666
#
# Coordination Sequence:
#
# PCOD9281788 Si02
#       5
#     8   8   8   8   8
#     4  11  23  40  64  94 132 170 214 270 324 387
#     4  11  19  39  67  94 123 171 226 256 313 394
#     4  10  21  38  64  95 123 160 214 265 315 383
#     4  11  21  40  66  92 132 164 209 272 327 372
#     4  11  20  42  67  93 123 176 221 254 326 392
#
# _framework density 22.722383000000001
#
# number of rings (size 3 to 8) (size 9 to 14) (size 15 to 20)
#    0.000    1.200    6.000    1.800    0.000    1.600 
#    7.200    6.000    0.000    0.000    0.000    0.000 
#    0.000    0.000    0.000    0.000    0.000    0.000 
#
# Total GULP energy -111393.652160 kJ/mol
# GULP energy per Si atom -5569.682608 kJ/mol
# Density = 2.267067 g / cm^3
# Si number density = 22.722383 Si / 1000 Ang^3
#
#
#
# Elastic Constant Matrix: (Units=GPa)
#
#
# Indices 1 2 3 4 5 6 
#
# 1 56.9678 48.8244 40.6565 -0.0001 -24.3603 0.0001
# 2 48.8244 136.8332 69.5479 0.0007 -14.0379 -0.0002
# 3 40.6565 69.5479 117.2419 0.0002 -23.8550 -0.0001
# 4 -0.0001 0.0007 0.0002 45.1354 0.0000 -6.1897
# 5 -24.3603 -14.0379 -23.8550 0.0000 34.7877 0.0000
# 6 0.0001 -0.0002 -0.0001 -6.1897 0.0000 28.4750
#
#
#
# Elastic Compliance Matrix: (Units=1/GPa)
#
#
# Indices 1 2 3 4 5 6 
#
# 1 0.035966 -0.009320 -0.003003 0.000000 0.019365 0.000000
# 2 -0.009320 0.012878 -0.005436 0.000000 -0.005058 0.000000
# 3 -0.003003 -0.005436 0.013854 0.000000 0.005204 0.000000
# 4 0.000000 0.000000 0.000000 0.022836 0.000000 0.004964
# 5 0.019365 -0.005058 0.005204 0.000000 0.043834 0.000000
# 6 0.000000 0.000000 0.000000 0.004964 0.000000 0.036198
#
#
# Mechanical properties :
#
#
# Convention : Reuss Voigt Hill
#
# Bulk Modulus (GPa) = 36.79330 69.90007 53.34669
# Shear Modulus (GPa) = 23.79321 31.81388 27.80355
#
# Velocity S-wave (km/s) = 3.23944 3.74587 3.50182
# Velocity P-wave (km/s) = 5.49724 7.03833 6.31497
#
# Compressibility (1/GPa) = 0.02717886
#
# Stress axis : x y z
#
# Youngs Moduli (GPa) = 27.80438 77.65215 72.17924
#
# Poissons Ratio (x) = 0.72372 0.21677
# Poissons Ratio (y) = 0.25914 0.39239
# Poissons Ratio (z) = 0.08350 0.42214
#
# Static dielectric constant tensor:
#      x y z
#    x 1.954540 0.000000 0.018200 
#    y 0.000000 1.855500 0.000000 
#    z 0.018200 0.000000 1.956790 
# 
# From -- ./inp_files/221791.got.cif
#   From: 2010.05.17/outbox.cif.g08.bks.cpg/sg15_111_cif.got.tgz:221791.got - 2010.06.03 18:47:42.
