data_PCOD9281636
_publ_section_title
;
Structure prediction by ZEFSAII (Michael W. Deem and Ramdas Pophale) SiO2 
 PCOD9281636
Probable space group: C 2/C
;
_chemical_formula_sum "Si O2"
_cell_formula_units_Z 40
_cell_length_a 12.875126
_cell_length_b 15.731952
_cell_length_c 7.595979
_cell_angle_alpha 90.000000
_cell_angle_beta 64.326303
_cell_angle_gamma 90.000000
_cell_volume 1386.678130
_symmetry_space_group_name_H-M "C 2/C"
_symmetry_group_IT_number 15
_symmetry_cell_setting 'monoclinic'
loop_
_space_group_symop_operation_xyz
x,y,z
-x,y,1/2-z
-x,-y,-z
x,-y,1/2+z
1/2+x,1/2+y,z
1/2-x,1/2+y,1/2-z
1/2-x,1/2-y,-z
1/2+x,1/2-y,1/2+z
loop_
_atom_site_type_symbol
_atom_site_label
_atom_site_fract_x
_atom_site_fract_y
_atom_site_fract_z
Si Si1 0.944254 0.722334 0.492326
Si Si2 0.160939 0.877540 0.103769
Si Si3 0.645903 0.088196 0.309236
Si Si4 0.635100 0.896489 0.199853
Si Si5 0.029317 0.897499 0.529849
O O1 0.030292 0.644415 0.390893
O O2 0.015698 0.794760 0.542097
O O3 0.885233 0.780821 0.384930
O O4 0.844326 0.683812 0.690001
O O5 0.279146 0.887106 0.914376
O O6 0.073889 0.925288 0.028332
O O7 0.860018 0.909721 0.181685
O O8 0.699962 0.102690 0.464401
O O9 0.631915 0.987460 0.297729
O O10 0.500000 0.885406 0.250000
O O11 0.000000 0.923276 0.750000
#
# Coordination Sequence:
#
# PCOD9281636 Si02
#       5
#     8   8   8   8   8
#     4   9  19  38  61  95 133 164 202 264 322 369
#     4   9  22  38  64  98 129 159 217 263 315 380
#     4  11  22  40  62  97 128 168 216 256 323 384
#     4  10  21  38  63  91 134 171 202 264 326 379
#     4   9  18  40  63  92 131 163 201 270 321 366
#
# _framework density 28.845915999999999
#
# number of rings (size 3 to 8) (size 9 to 14) (size 15 to 20)
#    1.200    1.200    0.000    4.200    0.000    6.400 
#    3.600    0.000    0.000    4.800    0.000    0.000 
#    0.000    0.000    0.000    0.000    0.000    0.000 
#
# Total GULP energy -111779.674798 kJ/mol
# GULP energy per Si atom -5588.983740 kJ/mol
# Density = 2.878026 g / cm^3
# Si number density = 28.845916 Si / 1000 Ang^3
#
#
#
# Elastic Constant Matrix: (Units=GPa)
#
#
# Indices 1 2 3 4 5 6 
#
# 1 51.0276 16.7283 62.9305 0.0000 4.4990 0.0000
# 2 16.7283 159.2226 90.3095 0.0000 12.1006 0.0000
# 3 62.9305 90.3095 313.4901 0.0000 41.5084 0.0000
# 4 0.0000 0.0000 0.0000 62.5175 0.0000 6.2111
# 5 4.4990 12.1006 41.5084 0.0000 73.8329 0.0000
# 6 0.0000 0.0000 0.0000 6.2111 0.0000 18.4971
#
#
#
# Elastic Compliance Matrix: (Units=1/GPa)
#
#
# Indices 1 2 3 4 5 6 
#
# 1 0.026202 0.000274 -0.005533 0.000000 0.001469 0.000000
# 2 0.000274 0.007510 -0.002218 0.000000 0.000000 0.000000
# 3 -0.005533 -0.002218 0.005237 0.000000 -0.002243 0.000000
# 4 0.000000 0.000000 0.000000 0.016548 0.000000 -0.005557
# 5 0.001469 0.000000 -0.002243 0.000000 0.014716 0.000000
# 6 0.000000 0.000000 0.000000 -0.005557 0.000000 0.055928
#
#
# Mechanical properties :
#
#
# Convention : Reuss Voigt Hill
#
# Bulk Modulus (GPa) = 41.67859 95.96412 68.82136
# Shear Modulus (GPa) = 33.53598 54.55430 44.04514
#
# Velocity S-wave (km/s) = 3.41338 4.35355 3.91181
# Velocity P-wave (km/s) = 5.47859 7.65580 6.65681
#
# Compressibility (1/GPa) = 0.02399313
#
# Stress axis : x y z
#
# Youngs Moduli (GPa) = 38.16526 133.15528 190.95792
#
# Poissons Ratio (x) = -0.03647 1.05662
# Poissons Ratio (y) = -0.01045 0.42362
# Poissons Ratio (z) = 0.21118 0.29539
#
# Static dielectric constant tensor:
#      x y z
#    x 2.599530 0.000000 0.066840 
#    y 0.000000 2.222120 0.000000 
#    z 0.066840 0.000000 2.469260 
# 
# From -- ./inp_files/48301.got.cif
#   From: 2010.05.17/outbox.cif.g08.bks.cpg/sg15_25_cif.got.tgz:48301.got - 2010.06.03 18:47:42.
