data_PCOD9281878
_publ_section_title
;
Structure prediction by ZEFSAII (Michael W. Deem and Ramdas Pophale) SiO2 
 PCOD9281878
Probable space group: C 2/C
;
_chemical_formula_sum "Si O2"
_cell_formula_units_Z 52
_cell_length_a 15.764300
_cell_length_b 14.398037
_cell_length_c 13.378672
_cell_angle_alpha 90.000000
_cell_angle_beta 118.367848
_cell_angle_gamma 90.000000
_cell_volume 2671.971793
_symmetry_space_group_name_H-M "C 2/C"
_symmetry_group_IT_number 15
_symmetry_cell_setting 'monoclinic'
loop_
_space_group_symop_operation_xyz
x,y,z
-x,y,1/2-z
-x,-y,-z
x,-y,1/2+z
1/2+x,1/2+y,z
1/2-x,1/2+y,1/2-z
1/2-x,1/2-y,-z
1/2+x,1/2-y,1/2+z
loop_
_atom_site_type_symbol
_atom_site_label
_atom_site_fract_x
_atom_site_fract_y
_atom_site_fract_z
Si Si1 0.089537 0.757870 0.458056
Si Si2 0.499625 0.101667 0.551796
Si Si3 0.500000 0.385699 0.250000
Si Si4 0.284681 0.854341 0.007321
Si Si5 0.274520 0.135913 0.093644
Si Si6 0.296291 0.478227 0.138805
Si Si7 0.676101 0.956287 0.269114
O O1 0.041612 0.679438 0.499910
O O2 0.015206 0.824425 0.358858
O O3 0.172808 0.815393 0.564149
O O4 0.148897 0.711473 0.399604
O O5 0.393606 0.131199 0.527975
O O6 0.572196 0.085386 0.684581
O O7 0.500000 0.000000 0.500000
O O8 0.405806 0.448054 0.208076
O O9 0.280125 0.901103 0.113788
O O10 0.250000 0.750000 0.000000
O O11 0.218667 0.914097 0.895249
O O12 0.320757 0.064807 0.197729
O O13 0.250132 0.077127 0.980253
O O14 0.239191 0.449169 0.205123
#
# Coordination Sequence:
#
# PCOD9281878 Si02
#       7
#     8   8   4   8   8   8   8
#     4  10  21  38  65  96 125 155 221 267 316 394
#     4  12  23  42  65  99 130 171 221 270 333 402
#     4  10  24  38  68  94 124 172 214 270 324 382
#     4  11  26  44  65  97 136 171 222 277 328 406
#     4   9  20  41  63  95 126 160 212 280 312 380
#     4  10  21  46  61  93 131 168 216 267 326 400
#     4  11  22  42  69  87 133 174 208 267 345 372
#
# _framework density 19.461283999999999
#
# number of rings (size 3 to 8) (size 9 to 14) (size 15 to 20)
#    0.000    1.538    3.077    1.385    4.308    1.231 
#    5.538    2.308    0.000    0.000    0.000    0.000 
#    0.000    0.000    0.000    0.000    0.000    0.000 
#
# Total GULP energy -145210.695354 kJ/mol
# GULP energy per Si atom -5585.026744 kJ/mol
# Density = 1.941699 g / cm^3
# Si number density = 19.461284 Si / 1000 Ang^3
#
#
#
# Elastic Constant Matrix: (Units=GPa)
#
#
# Indices 1 2 3 4 5 6 
#
# 1 109.4297 67.8336 54.7446 0.0000 5.0202 0.0000
# 2 67.8336 132.1003 42.7213 0.0000 5.9589 0.0000
# 3 54.7446 42.7213 74.7299 0.0000 8.6750 0.0000
# 4 0.0000 0.0000 0.0000 20.4785 0.0000 -1.5711
# 5 5.0202 5.9589 8.6750 0.0000 30.2866 0.0000
# 6 0.0000 0.0000 0.0000 -1.5711 0.0000 31.3928
#
#
#
# Elastic Compliance Matrix: (Units=1/GPa)
#
#
# Indices 1 2 3 4 5 6 
#
# 1 0.017596 -0.005980 -0.009588 0.000000 0.001006 0.000000
# 2 -0.005980 0.011322 -0.002015 0.000000 -0.000659 0.000000
# 3 -0.009588 -0.002015 0.022061 0.000000 -0.004333 0.000000
# 4 0.000000 0.000000 0.000000 0.049020 0.000000 0.002453
# 5 0.001006 -0.000659 -0.004333 0.000000 0.034222 0.000000
# 6 0.000000 0.000000 0.000000 0.002453 0.000000 0.031977
#
#
# Mechanical properties :
#
#
# Convention : Reuss Voigt Hill
#
# Bulk Modulus (GPa) = 63.24540 71.87320 67.55930
# Shear Modulus (GPa) = 24.19718 26.49560 25.34639
#
# Velocity S-wave (km/s) = 3.52994 3.69379 3.61279
# Velocity P-wave (km/s) = 7.01303 7.42992 7.22448
#
# Compressibility (1/GPa) = 0.01581143
#
# Stress axis : x y z
#
# Youngs Moduli (GPa) = 56.83192 88.32175 45.32940
#
# Poissons Ratio (x) = 0.52816 0.43463
# Poissons Ratio (y) = 0.33985 0.09136
# Poissons Ratio (z) = 0.54492 0.17800
#
# Static dielectric constant tensor:
#      x y z
#    x 1.502050 0.000000 0.033440 
#    y 0.000000 1.727630 0.000000 
#    z 0.033440 0.000000 1.690260 
# 
# From -- ./inp_files/97137.got.cif
#   From: 2010.05.17/outbox.cif.g08.bks.cpg/sg15_49_cif.got.tgz:97137.got - 2010.06.03 18:47:42.
