data_PCOD9281673
_publ_section_title
;
Structure prediction by ZEFSAII (Michael W. Deem and Ramdas Pophale) SiO2 
 PCOD9281673
Probable space group: C 2/C
;
_chemical_formula_sum "Si O2"
_cell_formula_units_Z 48
_cell_length_a 9.689687
_cell_length_b 17.525940
_cell_length_c 18.824735
_cell_angle_alpha 90.000000
_cell_angle_beta 45.548747
_cell_angle_gamma 90.000000
_cell_volume 2282.048068
_symmetry_space_group_name_H-M "C 2/C"
_symmetry_group_IT_number 15
_symmetry_cell_setting 'monoclinic'
loop_
_space_group_symop_operation_xyz
x,y,z
-x,y,1/2-z
-x,-y,-z
x,-y,1/2+z
1/2+x,1/2+y,z
1/2-x,1/2+y,1/2-z
1/2-x,1/2-y,-z
1/2+x,1/2-y,1/2+z
loop_
_atom_site_type_symbol
_atom_site_label
_atom_site_fract_x
_atom_site_fract_y
_atom_site_fract_z
Si Si1 0.724423 0.431798 0.145843
Si Si2 0.678923 0.397534 0.629929
Si Si3 0.532506 0.295763 0.891566
Si Si4 0.565735 0.803104 0.514321
Si Si5 0.421664 0.246765 0.201823
Si Si6 0.593439 0.145572 0.790647
O O1 0.500000 0.429195 0.250000
O O2 0.747752 0.515406 0.104590
O O3 0.783254 0.364350 0.070901
O O4 0.863370 0.416899 0.164295
O O5 0.500000 0.389937 0.750000
O O6 0.601494 0.364606 0.583226
O O7 0.857308 0.345167 0.587429
O O8 0.750132 0.311765 0.784848
O O9 0.804312 0.185256 0.705802
O O10 0.544290 0.267094 0.967445
O O11 0.582424 0.782094 0.590660
O O12 0.477890 0.782177 0.367039
O O13 0.500000 0.269725 0.250000
O O14 0.500000 0.122470 0.750000
#
# Coordination Sequence:
#
# PCOD9281673 Si02
#       6
#     8   8   8   8   8   8
#     4  10  23  39  62  94 135 175 216 259 335 398
#     4  11  19  38  64  92 131 176 210 264 325 405
#     4   9  20  35  63  98 122 160 223 272 321 380
#     4  11  21  37  66  93 126 170 217 278 323 384
#     4  10  21  38  63  95 130 161 213 276 333 372
#     4   9  18  37  61  92 126 159 221 273 312 373
#
# _framework density 21.033738
#
# number of rings (size 3 to 8) (size 9 to 14) (size 15 to 20)
#    1.000    1.000    1.667    3.000    0.000    2.000 
#    0.000    0.833    0.000    1.000    0.000    0.000 
#    0.000    0.000    0.000    0.000    0.000    0.000 
#
# Total GULP energy -133829.351588 kJ/mol
# GULP energy per Si atom -5576.222983 kJ/mol
# Density = 2.098586 g / cm^3
# Si number density = 21.033738 Si / 1000 Ang^3
#
#
#
# Elastic Constant Matrix: (Units=GPa)
#
#
# Indices 1 2 3 4 5 6 
#
# 1 105.9411 59.1305 45.0848 -0.0001 23.9505 0.0001
# 2 59.1305 94.1975 44.2903 -0.0002 28.2266 0.0004
# 3 45.0848 44.2903 139.9903 0.0004 15.7868 -0.0001
# 4 -0.0001 -0.0002 0.0004 24.4427 -0.0001 0.6184
# 5 23.9505 28.2266 15.7868 -0.0001 40.1696 -0.0001
# 6 0.0001 0.0004 -0.0001 0.6184 -0.0001 31.9318
#
#
#
# Elastic Compliance Matrix: (Units=1/GPa)
#
#
# Indices 1 2 3 4 5 6 
#
# 1 0.015331 -0.007755 -0.002163 0.000000 -0.002841 0.000000
# 2 -0.007755 0.019045 -0.002658 0.000000 -0.007715 0.000000
# 3 -0.002163 -0.002658 0.008711 0.000000 -0.000266 0.000000
# 4 0.000000 0.000000 0.000000 0.040932 0.000000 -0.000793
# 5 -0.002841 -0.007715 -0.000266 0.000000 0.032114 0.000000
# 6 0.000000 0.000000 0.000000 -0.000793 0.000000 0.031332
#
#
# Mechanical properties :
#
#
# Convention : Reuss Voigt Hill
#
# Bulk Modulus (GPa) = 55.75936 70.79335 63.27635
# Shear Modulus (GPa) = 27.99615 32.08369 30.03992
#
# Velocity S-wave (km/s) = 3.65226 3.90980 3.78322
# Velocity P-wave (km/s) = 6.65976 7.35610 7.01657
#
# Compressibility (1/GPa) = 0.01793421
#
# Stress axis : x y z
#
# Youngs Moduli (GPa) = 65.22933 52.50593 114.79682
#
# Poissons Ratio (x) = 0.40718 0.24835
# Poissons Ratio (y) = 0.50584 0.30515
# Poissons Ratio (z) = 0.14112 0.13957
#
# Static dielectric constant tensor:
#      x y z
#    x 1.817960 0.000000 -0.038300 
#    y 0.000000 1.767930 0.000000 
#    z -0.038300 0.000000 1.805690 
# 
# From -- ./inp_files/198666.got.cif
#   From: 2010.05.17/outbox.cif.g08.bks.cpg/sg15_100_cif.got.tgz:198666.got - 2010.06.03 18:47:42.
