data_PCOD9281519
_publ_section_title
;
Structure prediction by ZEFSAII (Michael W. Deem and Ramdas Pophale) SiO2 
 PCOD9281519
Probable space group: C 2/C
;
_chemical_formula_sum "Si O2"
_cell_formula_units_Z 60
_cell_length_a 8.799502
_cell_length_b 10.921462
_cell_length_c 27.427505
_cell_angle_alpha 90.000000
_cell_angle_beta 85.603130
_cell_angle_gamma 90.000000
_cell_volume 2628.119677
_symmetry_space_group_name_H-M "C 2/C"
_symmetry_group_IT_number 15
_symmetry_cell_setting 'monoclinic'
loop_
_space_group_symop_operation_xyz
x,y,z
-x,y,1/2-z
-x,-y,-z
x,-y,1/2+z
1/2+x,1/2+y,z
1/2-x,1/2+y,1/2-z
1/2-x,1/2-y,-z
1/2+x,1/2-y,1/2+z
loop_
_atom_site_type_symbol
_atom_site_label
_atom_site_fract_x
_atom_site_fract_y
_atom_site_fract_z
Si Si1 0.547567 0.789997 0.054449
Si Si2 0.478016 0.125410 0.099117
Si Si3 0.000000 0.768908 0.250000
Si Si4 0.745662 0.204096 0.314686
Si Si5 0.686186 0.431317 0.171540
Si Si6 0.304303 0.328684 0.438883
Si Si7 0.963904 0.393674 0.341104
Si Si8 0.750590 0.436987 0.519667
O O1 0.369867 0.792378 0.047040
O O2 0.633248 0.671187 0.033128
O O3 0.549194 0.802473 0.112455
O O4 0.646204 0.901214 0.028864
O O5 0.367669 0.206645 0.135922
O O6 0.589918 0.211156 0.066491
O O7 0.558454 0.027996 0.133595
O O8 0.368497 0.060422 0.062620
O O9 0.135927 0.692251 0.270668
O O10 0.071251 0.854056 0.206569
O O11 0.835961 0.076720 0.320018
O O12 0.844302 0.328470 0.308458
O O13 0.674930 0.389886 0.115467
O O14 0.862211 0.400722 0.181178
O O15 0.335768 0.434926 0.476965
#
# Coordination Sequence:
#
# PCOD9281519 Si02
#       8
#     8   8   4   8   8   8   8   8
#     4  10  21  38  62  91 127 168 207 253 301 361
#     4  11  22  38  65  91 122 168 204 250 307 362
#     4  12  26  42  66  96 120 152 202 264 306 366
#     4  11  23  45  65  90 127 157 201 256 309 369
#     4  10  23  42  64  94 119 161 202 245 315 367
#     4  11  21  40  62  90 127 164 205 253 307 364
#     4  10  21  42  64  88 126 168 200 247 310 365
#     4  11  21  40  61  91 130 164 209 256 298 361
#
# _framework density 22.830010000000001
#
# number of rings (size 3 to 8) (size 9 to 14) (size 15 to 20)
#    0.000    1.333    6.667    0.400    0.000    5.333 
#    4.800    1.333    0.000    0.000    0.000    0.000 
#    0.000    0.000    0.000    0.000    0.000    0.000 
#
# Total GULP energy -167681.526129 kJ/mol
# GULP energy per Si atom -5589.384204 kJ/mol
# Density = 2.277805 g / cm^3
# Si number density = 22.830010 Si / 1000 Ang^3
#
#
#
# Elastic Constant Matrix: (Units=GPa)
#
#
# Indices 1 2 3 4 5 6 
#
# 1 35.3148 39.1628 2.3831 0.0000 -3.0849 0.0000
# 2 39.1628 110.1316 18.9965 0.0000 -11.3539 0.0000
# 3 2.3831 18.9965 59.6739 0.0000 -10.5394 0.0000
# 4 0.0000 0.0000 0.0000 26.2898 0.0000 -7.1372
# 5 -3.0849 -11.3539 -10.5394 0.0000 38.8746 0.0000
# 6 0.0000 0.0000 0.0000 -7.1372 0.0000 40.6060
#
#
#
# Elastic Compliance Matrix: (Units=1/GPa)
#
#
# Indices 1 2 3 4 5 6 
#
# 1 0.047512 -0.017559 0.003626 0.000000 -0.000375 0.000000
# 2 -0.017559 0.016259 -0.004077 0.000000 0.002250 0.000000
# 3 0.003626 -0.004077 0.018644 0.000000 0.004152 0.000000
# 4 0.000000 0.000000 0.000000 0.039944 0.000000 0.007021
# 5 -0.000375 0.002250 0.004152 0.000000 0.027477 0.000000
# 6 0.000000 0.000000 0.000000 0.007021 0.000000 0.025861
#
#
# Mechanical properties :
#
#
# Convention : Reuss Voigt Hill
#
# Bulk Modulus (GPa) = 21.55437 36.24502 28.89969
# Shear Modulus (GPa) = 22.00872 30.79262 26.40067
#
# Velocity S-wave (km/s) = 3.10825 3.67656 3.40428
# Velocity P-wave (km/s) = 4.72687 5.82523 5.30455
#
# Compressibility (1/GPa) = 0.04639431
#
# Stress axis : x y z
#
# Youngs Moduli (GPa) = 21.04732 61.50278 53.63613
#
# Poissons Ratio (x) = 1.07995 -0.19449
# Poissons Ratio (y) = 0.36958 0.21869
# Poissons Ratio (z) = -0.07632 0.25077
#
# Static dielectric constant tensor:
#      x y z
#    x 1.870400 0.000000 0.055520 
#    y 0.000000 1.889290 0.000000 
#    z 0.055520 0.000000 1.847170 
# 
# From -- ./inp_files/307458.got.cif
#   From: 2010.05.17/outbox.cif.g08.bks.cpg/sg15_154_cif.got.tgz:307458.got - 2010.06.03 18:47:42.
