data_PCOD9281449
_publ_section_title
;
Structure prediction by ZEFSAII (Michael W. Deem and Ramdas Pophale) SiO2 
 PCOD9281449
Probable space group: C 2/C
;
_chemical_formula_sum "Si O2"
_cell_formula_units_Z 52
_cell_length_a 15.577148
_cell_length_b 12.551884
_cell_length_c 12.083741
_cell_angle_alpha 90.000000
_cell_angle_beta 67.173798
_cell_angle_gamma 90.000000
_cell_volume 2177.615438
_symmetry_space_group_name_H-M "C 2/C"
_symmetry_group_IT_number 15
_symmetry_cell_setting 'monoclinic'
loop_
_space_group_symop_operation_xyz
x,y,z
-x,y,1/2-z
-x,-y,-z
x,-y,1/2+z
1/2+x,1/2+y,z
1/2-x,1/2+y,1/2-z
1/2-x,1/2-y,-z
1/2+x,1/2-y,1/2+z
loop_
_atom_site_type_symbol
_atom_site_label
_atom_site_fract_x
_atom_site_fract_y
_atom_site_fract_z
Si Si1 0.768732 0.137163 0.186470
Si Si2 0.000000 0.757930 0.750000
Si Si3 0.087820 0.349834 0.631427
Si Si4 0.602336 0.613444 0.689447
Si Si5 0.710742 0.590270 0.840624
Si Si6 0.314056 0.391318 0.899549
Si Si7 0.386540 0.849901 0.125006
O O1 0.682179 0.125084 0.148934
O O2 0.748858 0.138986 0.328502
O O3 0.826305 0.242557 0.132194
O O4 0.828977 0.030138 0.139200
O O5 0.089387 0.829716 0.674270
O O6 0.028829 0.685498 0.839870
O O7 0.089007 0.220135 0.625970
O O8 0.086794 0.394607 0.507867
O O9 0.000000 0.381791 0.750000
O O10 0.500000 0.565121 0.750000
O O11 0.643446 0.649703 0.787971
O O12 0.668739 0.519254 0.614821
O O13 0.812689 0.584067 0.734402
O O14 0.717282 0.633467 0.960749
#
# Coordination Sequence:
#
# PCOD9281449 Si02
#       7
#     8   4   8   8   8   8   8
#     4  10  23  42  64  94 125 165 211 260 300 378
#     4  10  24  40  62  96 130 162 204 264 306 374
#     4  11  24  41  66  90 127 166 210 257 311 370
#     4  10  21  38  62 101 123 164 200 257 319 371
#     4  11  24  39  67  91 126 174 204 256 315 367
#     4  10  22  40  63  95 130 160 209 254 320 369
#     4  11  24  43  64  93 129 164 210 258 311 371
#
# _framework density 23.879332000000002
#
# number of rings (size 3 to 8) (size 9 to 14) (size 15 to 20)
#    0.000    1.538    2.308    1.385    8.615    4.308 
#    1.385    0.769    0.000    0.000    0.000    0.000 
#    0.000    0.000    0.000    0.000    0.000    0.000 
#
# Total GULP energy -145369.407823 kJ/mol
# GULP energy per Si atom -5591.131070 kJ/mol
# Density = 2.382498 g / cm^3
# Si number density = 23.879332 Si / 1000 Ang^3
#
#
#
# Elastic Constant Matrix: (Units=GPa)
#
#
# Indices 1 2 3 4 5 6 
#
# 1 111.7704 -9.2425 51.8759 0.0000 29.0197 0.0000
# 2 -9.2425 35.9405 4.1999 0.0000 -5.7260 0.0000
# 3 51.8759 4.1999 205.1464 0.0000 34.0937 0.0000
# 4 0.0000 0.0000 0.0000 22.3273 0.0000 2.7930
# 5 29.0197 -5.7260 34.0937 0.0000 31.5067 0.0000
# 6 0.0000 0.0000 0.0000 2.7930 0.0000 30.1869
#
#
#
# Elastic Compliance Matrix: (Units=1/GPa)
#
#
# Indices 1 2 3 4 5 6 
#
# 1 0.012232 0.001869 -0.001604 0.000000 -0.009192 0.000000
# 2 0.001869 0.029476 -0.002049 0.000000 0.005853 0.000000
# 3 -0.001604 -0.002049 0.006265 0.000000 -0.005675 0.000000
# 4 0.000000 0.000000 0.000000 0.045313 0.000000 -0.004192
# 5 -0.009192 0.005853 -0.005675 0.000000 0.047410 0.000000
# 6 0.000000 0.000000 0.000000 -0.004192 0.000000 0.033515
#
#
# Mechanical properties :
#
#
# Convention : Reuss Voigt Hill
#
# Bulk Modulus (GPa) = 22.51950 49.61376 36.06663
# Shear Modulus (GPa) = 25.96316 37.20576 31.58446
#
# Velocity S-wave (km/s) = 3.30095 3.95153 3.64080
# Velocity P-wave (km/s) = 4.89687 6.45301 5.72803
#
# Compressibility (1/GPa) = 0.04440597
#
# Stress axis : x y z
#
# Youngs Moduli (GPa) = 81.75062 33.92568 159.61246
#
# Poissons Ratio (x) = -0.06340 0.25601
# Poissons Ratio (y) = -0.15277 0.32699
# Poissons Ratio (z) = 0.13112 0.06950
#
# Static dielectric constant tensor:
#      x y z
#    x 1.886420 0.000000 -0.004720 
#    y 0.000000 1.969940 0.000000 
#    z -0.004720 0.000000 1.964550 
# 
# From -- ./inp_files/96940.got.cif
#   From: 2010.05.17/outbox.cif.g08.bks.cpg/sg15_49_cif.got.tgz:96940.got - 2010.06.03 18:47:42.
