data_PCOD9281908
_publ_section_title
;
Structure prediction by ZEFSAII (Michael W. Deem and Ramdas Pophale) SiO2 
 PCOD9281908
Probable space group: C 2/C
;
_chemical_formula_sum "Si O2"
_cell_formula_units_Z 40
_cell_length_a 15.870810
_cell_length_b 18.876611
_cell_length_c 10.259559
_cell_angle_alpha 90.000000
_cell_angle_beta 145.147170
_cell_angle_gamma 90.000000
_cell_volume 1756.489698
_symmetry_space_group_name_H-M "C 2/C"
_symmetry_group_IT_number 15
_symmetry_cell_setting 'monoclinic'
loop_
_space_group_symop_operation_xyz
x,y,z
-x,y,1/2-z
-x,-y,-z
x,-y,1/2+z
1/2+x,1/2+y,z
1/2-x,1/2+y,1/2-z
1/2-x,1/2-y,-z
1/2+x,1/2-y,1/2+z
loop_
_atom_site_type_symbol
_atom_site_label
_atom_site_fract_x
_atom_site_fract_y
_atom_site_fract_z
Si Si1 0.153180 0.976118 0.313446
Si Si2 0.874526 0.423999 0.981115
Si Si3 0.000000 0.245276 0.750000
Si Si4 0.932323 0.860262 0.932200
Si Si5 0.000000 0.103871 0.250000
Si Si6 0.391790 0.883514 0.722804
O O1 0.233559 0.918078 0.503465
O O2 0.274461 0.004590 0.364264
O O3 0.121844 0.045760 0.360542
O O4 0.010884 0.934326 0.078446
O O5 0.741367 0.366666 0.818810
O O6 0.946308 0.407076 0.932947
O O7 0.000000 0.421451 0.250000
O O8 0.110546 0.301112 0.819187
O O9 0.948818 0.196649 0.566149
O O10 0.016344 0.849332 0.900514
O O11 0.500000 0.913300 0.750000
#
# Coordination Sequence:
#
# PCOD9281908 Si02
#       6
#     8   8   4   8   4   8
#     4  11  21  40  74 101 133 165 221 283 335 390
#     4  11  24  42  67 102 139 166 214 281 348 386
#     4  10  25  48  66  94 129 186 236 258 314 400
#     4  11  23  42  70  99 134 179 222 273 324 399
#     4  10  21  38  66 110 127 162 212 278 350 374
#     4  10  24  43  66  99 129 180 221 266 326 397
#
# _framework density 22.772691999999999
#
# number of rings (size 3 to 8) (size 9 to 14) (size 15 to 20)
#    0.600    0.800    0.000    7.200    0.000    9.600 
#    1.800    1.000    0.000    0.000    0.000    0.000 
#    0.000    0.000    0.000    0.000    0.000    0.000 
#
# Total GULP energy -111398.967788 kJ/mol
# GULP energy per Si atom -5569.948389 kJ/mol
# Density = 2.272086 g / cm^3
# Si number density = 22.772692 Si / 1000 Ang^3
#
#
#
# Elastic Constant Matrix: (Units=GPa)
#
#
# Indices 1 2 3 4 5 6 
#
# 1 182.8500 54.4851 62.1969 0.0000 -30.9483 0.0000
# 2 54.4851 103.2898 38.8786 0.0000 -14.9925 0.0000
# 3 62.1969 38.8786 151.5221 0.0000 -20.5798 0.0000
# 4 0.0000 0.0000 0.0000 17.5912 0.0000 -0.3218
# 5 -30.9483 -14.9925 -20.5798 0.0000 33.4180 0.0000
# 6 0.0000 0.0000 0.0000 -0.3218 0.0000 34.8115
#
#
#
# Elastic Compliance Matrix: (Units=1/GPa)
#
#
# Indices 1 2 3 4 5 6 
#
# 1 0.007700 -0.002679 -0.001820 0.000000 0.004808 0.000000
# 2 -0.002679 0.012014 -0.001733 0.000000 0.001842 0.000000
# 3 -0.001820 -0.001733 0.008138 0.000000 0.002548 0.000000
# 4 0.000000 0.000000 0.000000 0.056856 0.000000 0.000526
# 5 0.004808 0.001842 0.002548 0.000000 0.036773 0.000000
# 6 0.000000 0.000000 0.000000 0.000526 0.000000 0.028731
#
#
# Mechanical properties :
#
#
# Convention : Reuss Voigt Hill
#
# Bulk Modulus (GPa) = 64.98586 83.19811 74.09199
# Shear Modulus (GPa) = 29.79648 35.97091 32.88370
#
# Velocity S-wave (km/s) = 3.62115 3.97868 3.80412
# Velocity P-wave (km/s) = 6.78840 7.59737 7.20425
#
# Compressibility (1/GPa) = 0.01538796
#
# Stress axis : x y z
#
# Youngs Moduli (GPa) = 129.86678 83.23515 122.88535
#
# Poissons Ratio (x) = 0.22296 0.22370
# Poissons Ratio (y) = 0.34787 0.21295
# Poissons Ratio (z) = 0.23641 0.14424
#
# Static dielectric constant tensor:
#      x y z
#    x 2.001780 0.000000 0.017210 
#    y 0.000000 1.882260 0.000000 
#    z 0.017210 0.000000 1.921730 
# 
# From -- ./inp_files/107584.got.cif
#   From: 2010.05.17/outbox.cif.g08.bks.cpg/sg15_54_cif.got.tgz:107584.got - 2010.06.03 18:47:42.
