data_PCOD9281747
_publ_section_title
;
Structure prediction by ZEFSAII (Michael W. Deem and Ramdas Pophale) SiO2 
 PCOD9281747
Probable space group: C 2/C
;
_chemical_formula_sum "Si O2"
_cell_formula_units_Z 44
_cell_length_a 12.541422
_cell_length_b 6.491781
_cell_length_c 23.085277
_cell_angle_alpha 90.000000
_cell_angle_beta 70.352731
_cell_angle_gamma 90.000000
_cell_volume 1770.090099
_symmetry_space_group_name_H-M "C 2/C"
_symmetry_group_IT_number 15
_symmetry_cell_setting 'monoclinic'
loop_
_space_group_symop_operation_xyz
x,y,z
-x,y,1/2-z
-x,-y,-z
x,-y,1/2+z
1/2+x,1/2+y,z
1/2-x,1/2+y,1/2-z
1/2-x,1/2-y,-z
1/2+x,1/2-y,1/2+z
loop_
_atom_site_type_symbol
_atom_site_label
_atom_site_fract_x
_atom_site_fract_y
_atom_site_fract_z
Si Si1 0.364870 0.512666 0.855204
Si Si2 0.236759 0.491520 0.994545
Si Si3 0.169456 0.796011 0.835583
Si Si4 0.087016 0.814514 0.967601
Si Si5 0.500000 0.765525 0.750000
Si Si6 0.829300 0.629931 0.791091
O O1 0.330151 0.537264 0.927507
O O2 0.260492 0.621673 0.839750
O O3 0.474784 0.627474 0.810583
O O4 0.371467 0.276263 0.834371
O O5 0.117417 0.597724 0.996618
O O6 0.250000 0.250000 0.000000
O O7 0.288111 0.586618 0.043557
O O8 0.072989 0.770879 0.901899
O O9 0.156142 0.755007 0.770412
O O10 0.209778 0.033868 0.830581
O O11 0.000000 0.000000 0.000000
O O12 0.397098 0.922339 0.765218
#
# Coordination Sequence:
#
# PCOD9281747 Si02
#       6
#     8   8   8   8   4   8
#     4  10  21  40  61  91 129 165 209 262 324 391
#     4  10  22  44  67  90 128 179 223 278 340 400
#     4  10  21  38  64  91 124 165 210 261 324 384
#     4  10  23  42  63  95 130 171 223 277 337 410
#     4  10  24  36  58  92 128 164 200 258 328 388
#     4  11  20  39  62  92 121 165 207 262 321 388
#
# _framework density 24.857493000000002
#
# number of rings (size 3 to 8) (size 9 to 14) (size 15 to 20)
#    0.000    1.818    1.818    1.636    0.000    5.091 
#    0.000    0.000    0.000    0.000    0.000    0.000 
#    0.000    0.000    0.000    0.000    0.000    0.000 
#
# Total GULP energy -122613.834314 kJ/mol
# GULP energy per Si atom -5573.356105 kJ/mol
# Density = 2.480092 g / cm^3
# Si number density = 24.857493 Si / 1000 Ang^3
#
#
#
# Elastic Constant Matrix: (Units=GPa)
#
#
# Indices 1 2 3 4 5 6 
#
# 1 73.0427 27.9287 15.4158 0.0000 -4.6451 0.0000
# 2 27.9287 161.7252 35.7991 0.0000 -12.0984 -0.0001
# 3 15.4158 35.7991 118.7190 0.0000 2.3056 0.0000
# 4 0.0000 0.0000 0.0000 34.6675 0.0000 -3.5951
# 5 -4.6451 -12.0984 2.3056 0.0000 30.2732 0.0000
# 6 0.0000 -0.0001 0.0000 -3.5951 0.0000 37.7705
#
#
#
# Elastic Compliance Matrix: (Units=1/GPa)
#
#
# Indices 1 2 3 4 5 6 
#
# 1 0.014893 -0.002168 -0.001309 0.000000 0.001518 0.000000
# 2 -0.002168 0.007188 -0.001938 0.000000 0.002687 0.000000
# 3 -0.001309 -0.001938 0.009210 0.000000 -0.001677 0.000000
# 4 0.000000 0.000000 0.000000 0.029133 0.000000 0.002773
# 5 0.001518 0.002687 -0.001677 0.000000 0.034467 0.000000
# 6 0.000000 0.000000 0.000000 0.002773 0.000000 0.026740
#
#
# Mechanical properties :
#
#
# Convention : Reuss Voigt Hill
#
# Bulk Modulus (GPa) = 48.87847 56.86379 52.87113
# Shear Modulus (GPa) = 35.89834 38.83178 37.36506
#
# Velocity S-wave (km/s) = 3.80434 3.95673 3.88128
# Velocity P-wave (km/s) = 6.24528 6.61814 6.43441
#
# Compressibility (1/GPa) = 0.02045890
#
# Stress axis : x y z
#
# Youngs Moduli (GPa) = 67.14721 139.12368 108.57452
#
# Poissons Ratio (x) = 0.30168 0.14217
# Poissons Ratio (y) = 0.14560 0.21043
# Poissons Ratio (z) = 0.08792 0.26963
#
# Static dielectric constant tensor:
#      x y z
#    x 2.240110 0.000000 -0.178310 
#    y 0.000000 2.064790 0.000000 
#    z -0.178310 0.000000 2.058560 
# 
# From -- ./inp_files/294207.got.cif
#   From: 2010.05.17/outbox.cif.g08.bks.cpg/sg15_148_cif.got.tgz:294207.got - 2010.06.03 18:47:42.
