data_PCOD9281414
_publ_section_title
;
Structure prediction by ZEFSAII (Michael W. Deem and Ramdas Pophale) SiO2 
 PCOD9281414
Probable space group: C 2/C
;
_chemical_formula_sum "Si O2"
_cell_formula_units_Z 32
_cell_length_a 8.997874
_cell_length_b 18.129237
_cell_length_c 8.016656
_cell_angle_alpha 90.000000
_cell_angle_beta 114.853312
_cell_angle_gamma 90.000000
_cell_volume 1186.602170
_symmetry_space_group_name_H-M "C 2/C"
_symmetry_group_IT_number 15
_symmetry_cell_setting 'monoclinic'
loop_
_space_group_symop_operation_xyz
x,y,z
-x,y,1/2-z
-x,-y,-z
x,-y,1/2+z
1/2+x,1/2+y,z
1/2-x,1/2+y,1/2-z
1/2-x,1/2-y,-z
1/2+x,1/2-y,1/2+z
loop_
_atom_site_type_symbol
_atom_site_label
_atom_site_fract_x
_atom_site_fract_y
_atom_site_fract_z
Si Si1 0.004793 0.626019 0.454614
Si Si2 0.169911 0.073774 0.718634
Si Si3 0.003351 0.793050 0.450241
Si Si4 0.332135 0.412715 0.774169
O O1 0.002358 0.710726 0.516869
O O2 0.830037 0.590853 0.413178
O O3 0.000000 0.621207 0.250000
O O4 0.162832 0.586344 0.602756
O O5 0.143665 0.148647 0.600458
O O6 0.000000 0.072783 0.750000
O O7 0.175045 0.992688 0.641074
O O8 0.000000 0.780736 0.250000
O O9 0.152852 0.840175 0.600072
O O10 0.500000 0.411579 0.750000
#
# Coordination Sequence:
#
# PCOD9281414 Si02
#       4
#     8   8   8   8
#     4  11  22  40  67  94 122 163 213 258 303 365
#     4  10  21  38  61  92 126 161 204 255 309 366
#     4  10  21  40  66  93 123 162 209 258 305 363
#     4  11  24  41  61  92 131 165 201 253 315 371
#
# _framework density 26.967756999999999
#
# number of rings (size 3 to 8) (size 9 to 14) (size 15 to 20)
#    0.000    1.500    0.000    6.000    0.000   10.000 
#    0.000    1.250    0.000    0.000    0.000    0.000 
#    0.000    0.000    0.000    0.000    0.000    0.000 
#
# Total GULP energy -89405.010987 kJ/mol
# GULP energy per Si atom -5587.813187 kJ/mol
# Density = 2.690638 g / cm^3
# Si number density = 26.967757 Si / 1000 Ang^3
#
#
#
# Elastic Constant Matrix: (Units=GPa)
#
#
# Indices 1 2 3 4 5 6 
#
# 1 110.3192 30.8833 47.2493 0.0000 36.6170 0.0000
# 2 30.8833 214.5989 60.3296 0.0000 22.2229 0.0000
# 3 47.2493 60.3296 191.9008 0.0000 70.3094 0.0000
# 4 0.0000 0.0000 0.0000 37.4033 0.0000 -1.2253
# 5 36.6170 22.2229 70.3094 0.0000 53.0786 0.0000
# 6 0.0000 0.0000 0.0000 -1.2253 0.0000 4.0546
#
#
#
# Elastic Compliance Matrix: (Units=1/GPa)
#
#
# Indices 1 2 3 4 5 6 
#
# 1 0.011941 -0.000973 0.000456 0.000000 -0.008435 0.000000
# 2 -0.000973 0.005191 -0.001636 0.000000 0.000665 0.000000
# 3 0.000456 -0.001636 0.010642 0.000000 -0.013727 0.000000
# 4 0.000000 0.000000 0.000000 0.027003 0.000000 0.008160
# 5 -0.008435 0.000665 -0.013727 0.000000 0.042563 0.000000
# 6 0.000000 0.000000 0.000000 0.008160 0.000000 0.249099
#
#
# Mechanical properties :
#
#
# Convention : Reuss Voigt Hill
#
# Bulk Modulus (GPa) = 42.61062 88.19370 65.40216
# Shear Modulus (GPa) = 13.94433 44.13107 29.03770
#
# Velocity S-wave (km/s) = 2.27639 4.04968 3.28496
# Velocity P-wave (km/s) = 4.76909 7.39195 6.22033
#
# Compressibility (1/GPa) = 0.02346833
#
# Stress axis : x y z
#
# Youngs Moduli (GPa) = 83.74287 192.64241 93.96408
#
# Poissons Ratio (x) = 0.18749 -0.04286
# Poissons Ratio (y) = 0.08150 0.15373
# Poissons Ratio (z) = -0.03820 0.31516
#
# Static dielectric constant tensor:
#      x y z
#    x 2.258760 0.000000 -0.098560 
#    y 0.000000 2.065720 0.000000 
#    z -0.098560 0.000000 2.191260 
# 
# From -- ./inp_files/28339.got.cif
#   From: 2010.05.17/outbox.cif.g08.bks.cpg/sg15_15_cif.got.tgz:28339.got - 2010.06.03 18:47:42.
