data_PCOD9281596
_publ_section_title
;
Structure prediction by ZEFSAII (Michael W. Deem and Ramdas Pophale) SiO2 
 PCOD9281596
Probable space group: C 2/C
;
_chemical_formula_sum "Si O2"
_cell_formula_units_Z 44
_cell_length_a 13.330872
_cell_length_b 21.686344
_cell_length_c 7.905910
_cell_angle_alpha 90.000000
_cell_angle_beta 73.133961
_cell_angle_gamma 90.000000
_cell_volume 2187.269144
_symmetry_space_group_name_H-M "C 2/C"
_symmetry_group_IT_number 15
_symmetry_cell_setting 'monoclinic'
loop_
_space_group_symop_operation_xyz
x,y,z
-x,y,1/2-z
-x,-y,-z
x,-y,1/2+z
1/2+x,1/2+y,z
1/2-x,1/2+y,1/2-z
1/2-x,1/2-y,-z
1/2+x,1/2-y,1/2+z
loop_
_atom_site_type_symbol
_atom_site_label
_atom_site_fract_x
_atom_site_fract_y
_atom_site_fract_z
Si Si1 0.396213 0.582118 0.603145
Si Si2 0.000000 0.015817 0.250000
Si Si3 0.126369 0.428216 0.659430
Si Si4 0.420408 0.805115 0.942304
Si Si5 0.000000 0.190327 0.750000
Si Si6 0.316660 0.938005 0.487138
Si Si7 0.000000 0.353068 0.250000
O O1 0.476579 0.557822 0.421565
O O2 0.405662 0.530838 0.747241
O O3 0.434722 0.646742 0.657381
O O4 0.286301 0.581685 0.563281
O O5 0.153431 0.364962 0.544945
O O6 0.163539 0.489370 0.546257
O O7 0.000000 0.438634 0.750000
O O8 0.181299 0.424415 0.814644
O O9 0.500000 0.821565 0.750000
O O10 0.415213 0.733141 0.894098
O O11 0.464673 0.812098 0.108178
O O12 0.409852 0.898048 0.361104
#
# Coordination Sequence:
#
# PCOD9281596 Si02
#       7
#     8   4   8   8   4   8   4
#     4  10  21  38  63  88 119 157 207 256 307 356
#     4   9  20  41  58  85 120 155 202 270 310 343
#     4  11  19  35  52  85 129 156 194 245 296 361
#     4   9  20  38  58  82 120 171 197 244 298 358
#     4   9  20  43  62  79 124 153 212 266 282 357
#     4  12  21  32  59  94 118 163 201 249 310 369
#     4  12  20  36  60  86 130 162 198 244 312 358
#
# _framework density 20.116408
#
# number of rings (size 3 to 8) (size 9 to 14) (size 15 to 20)
#    0.545    1.091    4.545    2.727    0.000    0.727 
#    0.000    6.364    0.000    0.000    0.000    0.000 
#    0.000    0.000    0.000    0.000    0.000    0.000 
#
# Total GULP energy -122490.883299 kJ/mol
# GULP energy per Si atom -5567.767423 kJ/mol
# Density = 2.007062 g / cm^3
# Si number density = 20.116408 Si / 1000 Ang^3
#
#
#
# Elastic Constant Matrix: (Units=GPa)
#
#
# Indices 1 2 3 4 5 6 
#
# 1 79.0278 45.1494 17.9431 0.0000 36.9950 0.0000
# 2 45.1494 164.4351 55.2618 0.0000 26.0577 0.0000
# 3 17.9431 55.2618 99.5059 0.0000 42.8462 0.0000
# 4 0.0000 0.0000 0.0000 16.3311 0.0000 -27.5383
# 5 36.9950 26.0577 42.8462 0.0000 38.1794 0.0000
# 6 0.0000 0.0000 0.0000 -27.5383 0.0000 12.7854
#
#
#
# Elastic Compliance Matrix: (Units=1/GPa)
#
#
# Indices 1 2 3 4 5 6 
#
# 1 0.040348 -0.009621 0.023365 0.000000 -0.058752 0.000000
# 2 -0.009621 0.009785 -0.009362 0.000000 0.013150 0.000000
# 3 0.023365 -0.009362 0.034895 0.000000 -0.055411 0.000000
# 4 0.000000 0.000000 0.000000 -0.023265 0.000000 -0.050110
# 5 -0.058752 0.013150 -0.055411 0.000000 0.136331 0.000000
# 6 0.000000 0.000000 0.000000 -0.050110 0.000000 -0.029717
#
#
# Mechanical properties :
#
#
# Convention : Reuss Voigt Hill
#
# Bulk Modulus (GPa) = 10.66165 64.40862 37.53514
# Shear Modulus (GPa) = 26.19483 28.43347 27.31415
#
# Velocity S-wave (km/s) = 3.61246 3.76366 3.68884
# Velocity P-wave (km/s) = 4.76564 7.13963 6.06983
#
# Compressibility (1/GPa) = 0.09379408
#
# Stress axis : x y z
#
# Youngs Moduli (GPa) = 24.78419 102.19307 28.65741
#
# Poissons Ratio (x) = 0.98316 -0.66958
# Poissons Ratio (y) = 0.23844 0.26828
# Poissons Ratio (z) = -0.57908 0.95670
#
# Static dielectric constant tensor:
#      x y z
#    x 1.749980 0.000000 -0.019540 
#    y 0.000000 1.788770 0.000000 
#    z -0.019540 0.000000 1.718950 
# 
# From -- ./inp_files/30882.got.cif
#   From: 2010.05.17/outbox.cif.g08.bks.cpg/sg15_16_cif.got.tgz:30882.got - 2010.06.03 18:47:42.
