data_PCOD9281582
_publ_section_title
;
Structure prediction by ZEFSAII (Michael W. Deem and Ramdas Pophale) SiO2 
 PCOD9281582
Probable space group: C 2/C
;
_chemical_formula_sum "Si O2"
_cell_formula_units_Z 60
_cell_length_a 5.851783
_cell_length_b 22.012388
_cell_length_c 24.712101
_cell_angle_alpha 90.000000
_cell_angle_beta 55.846663
_cell_angle_gamma 90.000000
_cell_volume 2634.225967
_symmetry_space_group_name_H-M "C 2/C"
_symmetry_group_IT_number 15
_symmetry_cell_setting 'monoclinic'
loop_
_space_group_symop_operation_xyz
x,y,z
-x,y,1/2-z
-x,-y,-z
x,-y,1/2+z
1/2+x,1/2+y,z
1/2-x,1/2+y,1/2-z
1/2-x,1/2-y,-z
1/2+x,1/2-y,1/2+z
loop_
_atom_site_type_symbol
_atom_site_label
_atom_site_fract_x
_atom_site_fract_y
_atom_site_fract_z
Si Si1 0.000000 0.995265 0.750000
Si Si2 0.528297 0.910971 0.689431
Si Si3 0.454950 0.803631 0.621674
Si Si4 0.570063 0.629780 0.580894
Si Si5 0.184398 0.615940 0.451742
Si Si6 0.050746 0.197661 0.003913
Si Si7 0.539999 0.499167 0.124055
Si Si8 0.168771 0.806083 0.286213
O O1 0.050696 0.025396 0.684756
O O2 0.261462 0.952248 0.720704
O O3 0.500000 0.876682 0.750000
O O4 0.541757 0.864437 0.640346
O O5 0.782316 0.956042 0.655917
O O6 0.260512 0.831906 0.601086
O O7 0.337016 0.759078 0.682419
O O8 0.739742 0.780525 0.557294
O O9 0.406828 0.676349 0.563421
O O10 0.494127 0.558508 0.592025
O O11 0.517100 0.653673 0.648235
O O12 0.880772 0.628037 0.516307
O O13 0.388025 0.634919 0.472486
O O14 0.219888 0.547276 0.424837
O O15 0.250000 0.250000 0.000000
O O16 0.500000 0.825431 0.250000
O O17 0.000000 0.805284 0.250000
#
# Coordination Sequence:
#
# PCOD9281582 Si02
#       8
#     4   8   8   8   8   8   8   8
#     4  10  22  38  66  98 142 182 232 296 374 444
#     4  10  21  38  63 101 136 183 233 300 372 441
#     4  11  23  43  71 106 138 182 249 313 377 451
#     4  11  28  47  70 107 148 196 256 306 382 469
#     4  11  23  43  74 108 141 193 243 315 384 457
#     4  11  24  44  74  99 145 190 240 312 380 449
#     4  11  23  43  71 105 144 193 246 307 380 464
#     4  12  31  50  77 110 152 207 259 318 387 467
#
# _framework density 22.777090999999999
#
# number of rings (size 3 to 8) (size 9 to 14) (size 15 to 20)
#    0.000    1.067    2.667    2.400    7.467    5.333 
#    0.000    0.000    0.000    0.000    0.000    0.000 
#    0.000    0.000    0.000    0.000    0.000    0.000 
#
# Total GULP energy -167245.793205 kJ/mol
# GULP energy per Si atom -5574.859774 kJ/mol
# Density = 2.272525 g / cm^3
# Si number density = 22.777091 Si / 1000 Ang^3
#
#
#
# Elastic Constant Matrix: (Units=GPa)
#
#
# Indices 1 2 3 4 5 6 
#
# 1 59.3449 14.4471 47.3182 0.0000 19.4511 0.0000
# 2 14.4471 105.8416 41.3547 0.0000 17.4185 0.0000
# 3 47.3182 41.3547 114.3851 0.0000 17.3130 0.0000
# 4 0.0000 0.0000 0.0000 7.7305 0.0000 9.2318
# 5 19.4511 17.4185 17.3130 0.0000 42.9404 0.0000
# 6 0.0000 0.0000 0.0000 9.2318 0.0000 22.8340
#
#
#
# Elastic Compliance Matrix: (Units=1/GPa)
#
#
# Indices 1 2 3 4 5 6 
#
# 1 0.028085 0.001939 -0.010942 0.000000 -0.009097 0.000000
# 2 0.001939 0.011523 -0.004396 0.000000 -0.003780 0.000000
# 3 -0.010942 -0.004396 0.014737 0.000000 0.000798 0.000000
# 4 0.000000 0.000000 0.000000 0.250121 0.000000 -0.101124
# 5 -0.009097 -0.003780 0.000798 0.000000 0.028620 0.000000
# 6 0.000000 0.000000 0.000000 -0.101124 0.000000 0.084679
#
#
# Mechanical properties :
#
#
# Convention : Reuss Voigt Hill
#
# Bulk Modulus (GPa) = 36.30165 53.97906 45.14036
# Shear Modulus (GPa) = 11.01937 26.46442 18.74190
#
# Velocity S-wave (km/s) = 2.20191 3.41235 2.87163
# Velocity P-wave (km/s) = 4.73677 6.26704 5.55485
#
# Compressibility (1/GPa) = 0.02754695
#
# Stress axis : x y z
#
# Youngs Moduli (GPa) = 35.60642 86.78188 67.85442
#
# Poissons Ratio (x) = -0.16826 0.74247
# Poissons Ratio (y) = -0.06904 0.29829
# Poissons Ratio (z) = 0.38961 0.38149
#
# Static dielectric constant tensor:
#      x y z
#    x 1.901550 0.000000 0.077210 
#    y 0.000000 1.840830 0.000000 
#    z 0.077210 0.000000 1.920860 
# 
# From -- ./inp_files/286498.got.cif
#   From: 2010.05.17/outbox.cif.g08.bks.cpg/sg15_144_cif.got.tgz:286498.got - 2010.06.03 18:47:42.
