data_PCOD9281854
_publ_section_title
;
Structure prediction by ZEFSAII (Michael W. Deem and Ramdas Pophale) SiO2 
 PCOD9281854
Probable space group: C 2/C
;
_chemical_formula_sum "Si O2"
_cell_formula_units_Z 32
_cell_length_a 10.676617
_cell_length_b 10.011617
_cell_length_c 13.420486
_cell_angle_alpha 90.000000
_cell_angle_beta 104.080308
_cell_angle_gamma 90.000000
_cell_volume 1391.419314
_symmetry_space_group_name_H-M "C 2/C"
_symmetry_group_IT_number 15
_symmetry_cell_setting 'monoclinic'
loop_
_space_group_symop_operation_xyz
x,y,z
-x,y,1/2-z
-x,-y,-z
x,-y,1/2+z
1/2+x,1/2+y,z
1/2-x,1/2+y,1/2-z
1/2-x,1/2-y,-z
1/2+x,1/2-y,1/2+z
loop_
_atom_site_type_symbol
_atom_site_label
_atom_site_fract_x
_atom_site_fract_y
_atom_site_fract_z
Si Si1 0.427371 0.139555 0.561585
Si Si2 0.852979 0.987096 0.729469
Si Si3 0.307625 0.881249 0.462900
Si Si4 0.289485 0.253359 0.341139
O O1 0.581072 0.150806 0.596990
O O2 0.385337 0.203701 0.446955
O O3 0.343506 0.209587 0.628884
O O4 0.381150 0.985321 0.549121
O O5 0.805536 0.036875 0.611990
O O6 0.843295 0.116712 0.797500
O O7 0.000000 0.942459 0.750000
O O8 0.751213 0.870540 0.736814
O O9 0.250000 0.750000 0.500000
#
# Coordination Sequence:
#
# PCOD9281854 Si02
#       4
#     8   8   8   8
#     4   9  21  41  62  89 126 165 208 252 311 370
#     4  11  25  40  61  96 125 162 210 256 316 365
#     4  10  21  38  65  93 120 167 208 252 312 371
#     4  10  23  42  62  91 128 163 208 262 306 374
#
# _framework density 22.998100000000001
#
# number of rings (size 3 to 8) (size 9 to 14) (size 15 to 20)
#    0.000    2.000    0.000    1.500    7.000    0.000 
#    0.000    7.500    0.000    0.000    0.000    0.000 
#    0.000    0.000    0.000    0.000    0.000    0.000 
#
# Total GULP energy -89467.752084 kJ/mol
# GULP energy per Si atom -5591.734505 kJ/mol
# Density = 2.294576 g / cm^3
# Si number density = 22.998100 Si / 1000 Ang^3
#
#
#
# Elastic Constant Matrix: (Units=GPa)
#
#
# Indices 1 2 3 4 5 6 
#
# 1 77.5936 5.5479 10.9746 0.0000 19.6921 0.0000
# 2 5.5479 103.4115 19.5657 0.0000 -10.7891 0.0000
# 3 10.9746 19.5657 28.1912 0.0000 5.5048 0.0000
# 4 0.0000 0.0000 0.0000 33.0007 0.0000 -8.0127
# 5 19.6921 -10.7891 5.5048 0.0000 20.7647 0.0000
# 6 0.0000 0.0000 0.0000 -8.0127 0.0000 45.9573
#
#
#
# Elastic Compliance Matrix: (Units=1/GPa)
#
#
# Indices 1 2 3 4 5 6 
#
# 1 0.017806 -0.002469 -0.001762 0.000000 -0.017702 0.000000
# 2 -0.002469 0.013002 -0.010376 0.000000 0.011848 0.000000
# 3 -0.001762 -0.010376 0.046492 0.000000 -0.016046 0.000000
# 4 0.000000 0.000000 0.000000 0.031642 0.000000 0.005517
# 5 -0.017702 0.011848 -0.016046 0.000000 0.075355 0.000000
# 6 0.000000 0.000000 0.000000 0.005517 0.000000 0.022721
#
#
# Mechanical properties :
#
#
# Convention : Reuss Voigt Hill
#
# Bulk Modulus (GPa) = 20.79564 31.26361 26.02962
# Shear Modulus (GPa) = 19.82078 31.48509 25.65294
#
# Velocity S-wave (km/s) = 2.93890 3.70405 3.34344
# Velocity P-wave (km/s) = 4.53632 5.64950 5.12323
#
# Compressibility (1/GPa) = 0.04808701
#
# Stress axis : x y z
#
# Youngs Moduli (GPa) = 56.16152 76.91252 21.50890
#
# Poissons Ratio (x) = 0.18988 0.03789
# Poissons Ratio (y) = 0.13865 0.22318
# Poissons Ratio (z) = 0.09894 0.79805
#
# Static dielectric constant tensor:
#      x y z
#    x 1.820080 0.000000 -0.007630 
#    y 0.000000 1.942890 0.000000 
#    z -0.007630 0.000000 1.875140 
# 
# From -- ./inp_files/140713.got.cif
#   From: 2010.05.17/outbox.cif.g08.bks.cpg/sg15_71_cif.got.tgz:140713.got - 2010.06.03 18:47:42.
