data_PCOD9281421
_publ_section_title
;
Structure prediction by ZEFSAII (Michael W. Deem and Ramdas Pophale) SiO2 
 PCOD9281421
Probable space group: C 2/C
;
_chemical_formula_sum "Si O2"
_cell_formula_units_Z 48
_cell_length_a 5.565486
_cell_length_b 25.690986
_cell_length_c 18.125564
_cell_angle_alpha 90.000000
_cell_angle_beta 86.112246
_cell_angle_gamma 90.000000
_cell_volume 2585.680398
_symmetry_space_group_name_H-M "C 2/C"
_symmetry_group_IT_number 15
_symmetry_cell_setting 'monoclinic'
loop_
_space_group_symop_operation_xyz
x,y,z
-x,y,1/2-z
-x,-y,-z
x,-y,1/2+z
1/2+x,1/2+y,z
1/2-x,1/2+y,1/2-z
1/2-x,1/2-y,-z
1/2+x,1/2-y,1/2+z
loop_
_atom_site_type_symbol
_atom_site_label
_atom_site_fract_x
_atom_site_fract_y
_atom_site_fract_z
Si Si1 0.699026 0.302279 0.955805
Si Si2 0.699136 0.161079 0.415416
Si Si3 0.699714 0.522876 0.441822
Si Si4 0.092199 0.392457 0.464728
Si Si5 0.953111 0.539103 0.665010
Si Si6 0.373341 0.564865 0.330840
O O1 0.708746 0.351410 0.012109
O O2 0.750000 0.250000 0.000000
O O3 0.445592 0.306211 0.918042
O O4 0.947018 0.309902 0.904524
O O5 0.645976 0.135183 0.497684
O O6 0.718493 0.114774 0.355821
O O7 0.500000 0.500000 0.500000
O O8 0.885090 0.554489 0.488204
O O9 0.574260 0.563381 0.389884
O O10 0.813570 0.480599 0.385099
O O11 0.121655 0.410362 0.380299
O O12 0.771386 0.489752 0.663588
O O13 0.000000 0.548676 0.750000
O O14 0.500000 0.569553 0.250000
#
# Coordination Sequence:
#
# PCOD9281421 Si02
#       6
#     8   8   8   8   8   8
#     4  10  21  39  65  92 113 145 208 267 316 353
#     4  10  21  38  61  93 114 158 200 254 308 359
#     4  12  21  35  58  81 126 160 211 238 296 352
#     4  10  22  34  60  85 118 154 206 249 301 354
#     4  12  23  35  51  88 122 166 199 239 294 365
#     4  12  22  36  54  86 126 168 197 246 293 369
#
# _framework density 18.563779
#
# number of rings (size 3 to 8) (size 9 to 14) (size 15 to 20)
#    1.000    0.000    6.667    2.000    0.000    0.000 
#    0.000    0.000    0.000    1.000    4.333    0.000 
#    0.000    0.000    0.000    0.000    0.000    0.000 
#
# Total GULP energy -133659.825777 kJ/mol
# GULP energy per Si atom -5569.159407 kJ/mol
# Density = 1.852153 g / cm^3
# Si number density = 18.563779 Si / 1000 Ang^3
#
#
#
# Elastic Constant Matrix: (Units=GPa)
#
#
# Indices 1 2 3 4 5 6 
#
# 1 98.6248 5.4539 18.2177 0.0000 -11.5261 0.0000
# 2 5.4539 31.8514 5.1833 0.0000 -5.2760 0.0000
# 3 18.2177 5.1833 107.3667 0.0000 -8.7215 0.0000
# 4 0.0000 0.0000 0.0000 13.3013 0.0000 -0.9628
# 5 -11.5261 -5.2760 -8.7215 0.0000 24.6311 0.0000
# 6 0.0000 0.0000 0.0000 -0.9628 0.0000 25.6554
#
#
#
# Elastic Compliance Matrix: (Units=1/GPa)
#
#
# Indices 1 2 3 4 5 6 
#
# 1 0.010976 -0.000909 -0.001459 0.000000 0.004425 0.000000
# 2 -0.000909 0.032738 -0.000918 0.000000 0.006262 0.000000
# 3 -0.001459 -0.000918 0.009817 0.000000 0.002597 0.000000
# 4 0.000000 0.000000 0.000000 0.075385 0.000000 0.002829
# 5 0.004425 0.006262 0.002597 0.000000 0.044931 0.000000
# 6 0.000000 0.000000 0.000000 0.002829 0.000000 0.039084
#
#
# Mechanical properties :
#
#
# Convention : Reuss Voigt Hill
#
# Bulk Modulus (GPa) = 21.29486 32.83919 27.06702
# Shear Modulus (GPa) = 21.26248 26.65010 23.95629
#
# Velocity S-wave (km/s) = 3.38801 3.79304 3.59623
# Velocity P-wave (km/s) = 5.17696 6.07546 5.64412
#
# Compressibility (1/GPa) = 0.04695970
#
# Stress axis : x y z
#
# Youngs Moduli (GPa) = 91.10476 30.54546 101.86751
#
# Poissons Ratio (x) = 0.02777 0.14864
# Poissons Ratio (y) = 0.08282 0.09347
# Poissons Ratio (z) = 0.13293 0.02803
#
# Static dielectric constant tensor:
#      x y z
#    x 1.719460 0.000000 0.017210 
#    y 0.000000 1.676730 0.000000 
#    z 0.017210 0.000000 1.619230 
# 
# From -- ./inp_files/185351.got.cif
#   From: 2010.05.17/outbox.cif.g08.bks.cpg/sg15_93_cif.got.tgz:185351.got - 2010.06.03 18:47:42.
