data_PCOD9281048
_publ_section_title
;
Structure prediction by ZEFSAII (Michael W. Deem and Ramdas Pophale) SiO2 
 PCOD9281048
Probable space group: C 2/C
;
_chemical_formula_sum "Si O2"
_cell_formula_units_Z 56
_cell_length_a 18.131978
_cell_length_b 14.713692
_cell_length_c 11.376428
_cell_angle_alpha 90.000000
_cell_angle_beta 59.823340
_cell_angle_gamma 90.000000
_cell_volume 2623.780719
_symmetry_space_group_name_H-M "C 2/C"
_symmetry_group_IT_number 15
_symmetry_cell_setting 'monoclinic'
loop_
_space_group_symop_operation_xyz
x,y,z
-x,y,1/2-z
-x,-y,-z
x,-y,1/2+z
1/2+x,1/2+y,z
1/2-x,1/2+y,1/2-z
1/2-x,1/2-y,-z
1/2+x,1/2-y,1/2+z
loop_
_atom_site_type_symbol
_atom_site_label
_atom_site_fract_x
_atom_site_fract_y
_atom_site_fract_z
Si Si1 0.710722 0.259333 0.733918
Si Si2 0.726360 0.464058 0.778471
Si Si3 0.325264 0.811405 0.994131
Si Si4 0.500000 0.183667 0.250000
Si Si5 0.249852 0.494405 0.985773
Si Si6 0.500000 0.119347 0.750000
Si Si7 0.427361 0.026536 0.150698
Si Si8 0.850046 0.696878 0.964424
O O1 0.699643 0.358835 0.797990
O O2 0.683904 0.191063 0.857322
O O3 0.808402 0.253032 0.608581
O O4 0.661244 0.247757 0.650912
O O5 0.696282 0.505705 0.678211
O O6 0.830414 0.468038 0.686801
O O7 0.705634 0.505742 0.922240
O O8 0.311084 0.916053 0.964711
O O9 0.250000 0.750000 0.000000
O O10 0.416463 0.773468 0.877323
O O11 0.458659 0.119249 0.183736
O O12 0.204583 0.396493 0.005575
O O13 0.449332 0.174529 0.888909
O O14 0.566844 0.053250 0.758185
O O15 0.500000 0.000000 0.000000
#
# Coordination Sequence:
#
# PCOD9281048 Si02
#       8
#     8   8   8   4   8   4   8   8
#     4  10  22  38  54  79 124 158 203 247 290 355
#     4  11  20  36  56  84 122 161 193 239 296 368
#     4  12  22  38  55  84 124 154 199 252 300 369
#     4  11  22  34  52  84 113 166 190 232 309 358
#     4  11  20  36  58  84 118 159 199 233 310 371
#     4  11  20  32  54  88 121 158 198 236 305 384
#     4  11  20  31  51  85 125 150 189 233 295 393
#     4  10  21  38  57  85 119 162 200 242 301 381
#
# _framework density 21.343247000000002
#
# number of rings (size 3 to 8) (size 9 to 14) (size 15 to 20)
#    0.000    1.143    4.286    4.286    2.000    0.000 
#    0.000    0.000    0.000    0.000    0.000   13.000 
#    0.000    0.000    0.000    0.000    0.000    0.000 
#
# Total GULP energy -156210.091761 kJ/mol
# GULP energy per Si atom -5578.931849 kJ/mol
# Density = 2.129467 g / cm^3
# Si number density = 21.343247 Si / 1000 Ang^3
#
#
#
# Elastic Constant Matrix: (Units=GPa)
#
#
# Indices 1 2 3 4 5 6 
#
# 1 51.1253 17.1062 34.4525 0.0000 9.6581 0.0000
# 2 17.1062 51.2674 17.6157 0.0000 -4.7667 0.0000
# 3 34.4525 17.6157 144.5460 0.0000 23.1376 0.0000
# 4 0.0000 0.0000 0.0000 33.2727 0.0000 7.4117
# 5 9.6581 -4.7667 23.1376 0.0000 44.6330 0.0000
# 6 0.0000 0.0000 0.0000 7.4117 0.0000 28.8920
#
#
#
# Elastic Compliance Matrix: (Units=1/GPa)
#
#
# Indices 1 2 3 4 5 6 
#
# 1 0.025924 -0.007430 -0.004633 0.000000 -0.004001 0.000000
# 2 -0.007430 0.023088 -0.001848 0.000000 0.005031 0.000000
# 3 -0.004633 -0.001848 0.008853 0.000000 -0.003784 0.000000
# 4 0.000000 0.000000 0.000000 0.031876 0.000000 -0.008177
# 5 -0.004001 0.005031 -0.003784 0.000000 0.025770 0.000000
# 6 0.000000 0.000000 0.000000 -0.008177 0.000000 0.036709
#
#
# Mechanical properties :
#
#
# Convention : Reuss Voigt Hill
#
# Bulk Modulus (GPa) = 33.28597 42.80971 38.04784
# Shear Modulus (GPa) = 26.30794 33.21050 29.75922
#
# Velocity S-wave (km/s) = 3.51467 3.94892 3.73810
# Velocity P-wave (km/s) = 5.66568 6.39478 6.04124
#
# Compressibility (1/GPa) = 0.03004269
#
# Stress axis : x y z
#
# Youngs Moduli (GPa) = 38.57458 43.31339 112.94999
#
# Poissons Ratio (x) = 0.32182 0.52329
# Poissons Ratio (y) = 0.28661 0.20874
# Poissons Ratio (z) = 0.17871 0.08005
#
# Static dielectric constant tensor:
#      x y z
#    x 1.812120 0.000000 0.050310 
#    y 0.000000 1.816170 0.000000 
#    z 0.050310 0.000000 1.894910 
# 
# From -- ./inp_files/106656.got.cif
#   From: 2010.05.17/outbox.cif.g08.bks.cpg/sg15_54_cif.got.tgz:106656.got - 2010.06.03 18:47:42.
