data_PCOD9281843
_publ_section_title
;
Structure prediction by ZEFSAII (Michael W. Deem and Ramdas Pophale) SiO2 
 PCOD9281843
Probable space group: C 2/C
;
_chemical_formula_sum "Si O2"
_cell_formula_units_Z 40
_cell_length_a 9.399128
_cell_length_b 17.553513
_cell_length_c 11.927082
_cell_angle_alpha 90.000000
_cell_angle_beta 99.138870
_cell_angle_gamma 90.000000
_cell_volume 1942.843038
_symmetry_space_group_name_H-M "C 2/C"
_symmetry_group_IT_number 15
_symmetry_cell_setting 'monoclinic'
loop_
_space_group_symop_operation_xyz
x,y,z
-x,y,1/2-z
-x,-y,-z
x,-y,1/2+z
1/2+x,1/2+y,z
1/2-x,1/2+y,1/2-z
1/2-x,1/2-y,-z
1/2+x,1/2-y,1/2+z
loop_
_atom_site_type_symbol
_atom_site_label
_atom_site_fract_x
_atom_site_fract_y
_atom_site_fract_z
Si Si1 0.585437 0.806188 0.860177
Si Si2 0.031117 0.259352 0.418995
Si Si3 0.912825 0.952875 0.342705
Si Si4 0.877745 0.110962 0.451045
Si Si5 0.227522 0.687401 0.756881
O O1 0.500000 0.849832 0.750000
O O2 0.721349 0.850132 0.931334
O O3 0.656430 0.737057 0.797685
O O4 0.487098 0.779456 0.951952
O O5 0.176708 0.275578 0.369051
O O6 0.977553 0.172044 0.397385
O O7 0.911900 0.310429 0.340075
O O8 0.789185 0.895376 0.290007
O O9 0.000000 0.985734 0.250000
O O10 0.030345 0.903461 0.425637
O O11 0.859162 0.026006 0.402448
#
# Coordination Sequence:
#
# PCOD9281843 Si02
#       5
#     8   8   8   8   8
#     4  11  22  39  63  90 122 161 206 259 304 363
#     4  10  21  40  66  91 123 159 216 254 298 369
#     4  11  22  39  62  87 126 161 201 256 314 361
#     4  10  23  39  59  92 119 163 205 254 305 370
#     4  10  21  38  65  91 119 164 207 251 311 356
#
# _framework density 20.588384999999999
#
# number of rings (size 3 to 8) (size 9 to 14) (size 15 to 20)
#    0.000    1.600    0.000    6.600    5.600    3.200 
#    7.200    1.000    0.000    0.000    0.000    0.000 
#    0.000    0.000    0.000    0.000    0.000    0.000 
#
# Total GULP energy -111554.326965 kJ/mol
# GULP energy per Si atom -5577.716348 kJ/mol
# Density = 2.054153 g / cm^3
# Si number density = 20.588385 Si / 1000 Ang^3
#
#
#
# Elastic Constant Matrix: (Units=GPa)
#
#
# Indices 1 2 3 4 5 6 
#
# 1 90.7933 25.4400 38.6992 0.0000 -15.1098 0.0000
# 2 25.4400 79.8226 30.5930 0.0000 6.1926 0.0000
# 3 38.6992 30.5930 113.7244 0.0000 -19.1008 0.0000
# 4 0.0000 0.0000 0.0000 21.7669 0.0000 -2.6252
# 5 -15.1098 6.1926 -19.1008 0.0000 40.9779 0.0000
# 6 0.0000 0.0000 0.0000 -2.6252 0.0000 0.9108
#
#
#
# Elastic Compliance Matrix: (Units=1/GPa)
#
#
# Indices 1 2 3 4 5 6 
#
# 1 0.014062 -0.003632 -0.003087 0.000000 0.004295 0.000000
# 2 -0.003632 0.015602 -0.003886 0.000000 -0.005509 0.000000
# 3 -0.003087 -0.003886 0.011714 0.000000 0.004909 0.000000
# 4 0.000000 0.000000 0.000000 0.070421 0.000000 0.202976
# 5 0.004295 -0.005509 0.004909 0.000000 0.029108 0.000000
# 6 0.000000 0.000000 0.000000 0.202976 0.000000 1.682998
#
#
# Mechanical properties :
#
#
# Convention : Reuss Voigt Hill
#
# Bulk Modulus (GPa) = 49.58422 52.64496 51.11459
# Shear Modulus (GPa) = 2.70002 25.37165 14.03584
#
# Velocity S-wave (km/s) = 1.14642 3.51426 2.61384
# Velocity P-wave (km/s) = 5.08805 6.48787 5.83012
#
# Compressibility (1/GPa) = 0.02016771
#
# Stress axis : x y z
#
# Youngs Moduli (GPa) = 71.11285 64.09366 85.37069
#
# Poissons Ratio (x) = 0.23278 0.26352
# Poissons Ratio (y) = 0.25827 0.33179
# Poissons Ratio (z) = 0.21951 0.24910
#
# Static dielectric constant tensor:
#      x y z
#    x 1.768660 0.000000 0.025230 
#    y 0.000000 1.704450 0.000000 
#    z 0.025230 0.000000 1.810500 
# 
# From -- ./inp_files/76907.got.cif
#   From: 2010.05.17/outbox.cif.g08.bks.cpg/sg15_39_cif.got.tgz:76907.got - 2010.06.03 18:47:42.
