data_PCOD9281082
_publ_section_title
;
Structure prediction by ZEFSAII (Michael W. Deem and Ramdas Pophale) SiO2 
 PCOD9281082
Probable space group: C 2/C
;
_chemical_formula_sum "Si O2"
_cell_formula_units_Z 64
_cell_length_a 5.505238
_cell_length_b 28.735729
_cell_length_c 27.248771
_cell_angle_alpha 90.000000
_cell_angle_beta 134.250267
_cell_angle_gamma 90.000000
_cell_volume 3087.730554
_symmetry_space_group_name_H-M "C 2/C"
_symmetry_group_IT_number 15
_symmetry_cell_setting 'monoclinic'
loop_
_space_group_symop_operation_xyz
x,y,z
-x,y,1/2-z
-x,-y,-z
x,-y,1/2+z
1/2+x,1/2+y,z
1/2-x,1/2+y,1/2-z
1/2-x,1/2-y,-z
1/2+x,1/2-y,1/2+z
loop_
_atom_site_type_symbol
_atom_site_label
_atom_site_fract_x
_atom_site_fract_y
_atom_site_fract_z
Si Si1 0.793465 0.721797 0.071570
Si Si2 0.825762 0.699091 0.463684
Si Si3 0.805939 0.965539 0.933981
Si Si4 0.096065 0.518531 0.708385
Si Si5 0.674689 0.124148 0.579751
Si Si6 0.465561 0.946083 0.979598
Si Si7 0.239680 0.694648 0.829611
Si Si8 0.120262 0.384536 0.176661
O O1 0.578398 0.702852 0.087379
O O2 0.990937 0.687698 0.062177
O O3 0.070528 0.759475 0.127000
O O4 0.502667 0.751041 0.001183
O O5 0.938035 0.662208 0.520485
O O6 0.535225 0.941254 0.931925
O O7 0.094335 0.933905 0.948933
O O8 0.614534 0.991777 0.863112
O O9 0.000000 0.000000 0.000000
O O10 0.500000 0.516122 0.750000
O O11 0.986253 0.572922 0.690535
O O12 0.000000 0.502134 0.750000
O O13 0.731451 0.085650 0.546415
O O14 0.557908 0.098904 0.612381
O O15 0.985548 0.154861 0.642822
O O16 0.500000 0.000000 0.000000
O O17 0.000000 0.703001 0.750000
O O18 0.033893 0.667117 0.842220
O O19 0.500000 0.379920 0.250000
#
# Coordination Sequence:
#
# PCOD9281082 Si02
#       8
#     8   8   8   8   8   8   8   8
#     4   9  20  36  56  78 113 147 196 236 284 346
#     4   9  20  36  56  81 107 153 192 243 289 335
#     4  10  21  38  58  82 116 158 209 257 305 357
#     4  11  24  40  61  85 121 167 212 255 307 380
#     4  11  24  36  58  86 125 161 202 252 305 370
#     4  10  22  36  57  84 116 161 202 254 305 352
#     4  11  23  36  56  86 125 163 194 237 301 384
#     4  11  23  34  51  83 126 168 198 232 296 382
#
# _framework density 20.727198000000001
#
# number of rings (size 3 to 8) (size 9 to 14) (size 15 to 20)
#    0.000    1.750    1.250    2.625   15.750    0.000 
#    0.000    0.000    0.000    0.000    0.000    8.750 
#    0.000    0.000    0.000    0.000    0.000    0.000 
#
# Total GULP energy -178264.615465 kJ/mol
# GULP energy per Si atom -5570.769233 kJ/mol
# Density = 2.068002 g / cm^3
# Si number density = 20.727198 Si / 1000 Ang^3
#
#
#
# Elastic Constant Matrix: (Units=GPa)
#
#
# Indices 1 2 3 4 5 6 
#
# 1 157.6993 18.5459 51.4379 0.0000 -11.5722 0.0000
# 2 18.5459 28.6874 31.6198 0.0000 -8.4834 0.0000
# 3 51.4379 31.6198 112.4205 0.0000 -10.8423 0.0000
# 4 0.0000 0.0000 0.0000 44.1774 0.0000 -8.9089
# 5 -11.5722 -8.4834 -10.8423 0.0000 35.1304 0.0000
# 6 0.0000 0.0000 0.0000 -8.9089 0.0000 22.3471
#
#
#
# Elastic Compliance Matrix: (Units=1/GPa)
#
#
# Indices 1 2 3 4 5 6 
#
# 1 0.007553 -0.001207 -0.002994 0.000000 0.001273 0.000000
# 2 -0.001207 0.053026 -0.013569 0.000000 0.008219 0.000000
# 3 -0.002994 -0.013569 0.014090 0.000000 0.000086 0.000000
# 4 0.000000 0.000000 0.000000 0.024615 0.000000 0.009813
# 5 0.001273 0.008219 0.000086 0.000000 0.030896 0.000000
# 6 0.000000 0.000000 0.000000 0.009813 0.000000 0.048661
#
#
# Mechanical properties :
#
#
# Convention : Reuss Voigt Hill
#
# Bulk Modulus (GPa) = 25.55664 55.77936 40.66800
# Shear Modulus (GPa) = 21.98554 33.47790 27.73172
#
# Velocity S-wave (km/s) = 3.26039 4.02327 3.66175
# Velocity P-wave (km/s) = 5.15075 6.96792 6.12708
#
# Compressibility (1/GPa) = 0.03912877
#
# Stress axis : x y z
#
# Youngs Moduli (GPa) = 132.39838 18.85879 70.97372
#
# Poissons Ratio (x) = 0.02276 0.21247
# Poissons Ratio (y) = 0.15978 0.96306
# Poissons Ratio (z) = 0.39636 0.25590
#
# Static dielectric constant tensor:
#      x y z
#    x 2.031310 0.000000 0.116460 
#    y 0.000000 1.720380 0.000000 
#    z 0.116460 0.000000 1.855420 
# 
# From -- ./inp_files/306110.got.cif
#   From: 2010.05.17/outbox.cif.g08.bks.cpg/sg15_154_cif.got.tgz:306110.got - 2010.06.03 18:47:42.
