data_PCOD9281132
_publ_section_title
;
Structure prediction by ZEFSAII (Michael W. Deem and Ramdas Pophale) SiO2 
 PCOD9281132
Probable space group: C 2/C
;
_chemical_formula_sum "Si O2"
_cell_formula_units_Z 64
_cell_length_a 13.162328
_cell_length_b 16.432182
_cell_length_c 28.585840
_cell_angle_alpha 90.000000
_cell_angle_beta 150.514063
_cell_angle_gamma 90.000000
_cell_volume 3043.191390
_symmetry_space_group_name_H-M "C 2/C"
_symmetry_group_IT_number 15
_symmetry_cell_setting 'monoclinic'
loop_
_space_group_symop_operation_xyz
x,y,z
-x,y,1/2-z
-x,-y,-z
x,-y,1/2+z
1/2+x,1/2+y,z
1/2-x,1/2+y,1/2-z
1/2-x,1/2-y,-z
1/2+x,1/2-y,1/2+z
loop_
_atom_site_type_symbol
_atom_site_label
_atom_site_fract_x
_atom_site_fract_y
_atom_site_fract_z
Si Si1 0.318543 0.958984 0.983372
Si Si2 0.796438 0.527881 0.145969
Si Si3 0.230279 0.001019 0.340249
Si Si4 0.330453 0.676000 0.221537
Si Si5 0.601644 0.540769 0.972934
Si Si6 0.780731 0.718197 0.146440
Si Si7 0.943404 0.195075 0.091659
Si Si8 0.082879 0.232179 0.972468
O O1 0.276758 0.965692 0.911359
O O2 0.173329 0.890247 0.946978
O O3 0.232542 0.036152 0.977877
O O4 0.564741 0.949784 0.089800
O O5 0.612229 0.507931 0.107856
O O6 0.829772 0.624353 0.152525
O O7 0.000000 0.491037 0.250000
O O8 0.734058 0.501775 0.068783
O O9 0.214497 0.078665 0.299028
O O10 0.000000 0.963421 0.250000
O O11 0.500000 0.690517 0.250000
O O12 0.429055 0.706288 0.309275
O O13 0.124083 0.722200 0.124640
O O14 0.548357 0.634885 0.961365
O O15 0.613095 0.708184 0.119748
O O16 0.000000 0.754815 0.250000
O O17 0.674683 0.759467 0.059289
O O18 0.750000 0.250000 0.000000
O O19 0.250000 0.250000 0.000000
#
# Coordination Sequence:
#
# PCOD9281132 Si02
#       8
#     8   8   8   8   8   8   8   8
#     4  11  22  41  67  94 130 164 222 274 328 391
#     4   9  19  36  59  87 122 162 205 256 323 377
#     4  10  22  42  68  95 123 174 218 272 328 393
#     4  11  22  43  67  92 129 177 219 263 335 401
#     4  10  21  38  58  93 125 160 211 271 315 379
#     4  10  21  39  66  92 127 170 217 268 320 392
#     4  12  24  43  66  96 132 175 219 272 336 395
#     4  11  23  40  64  93 131 175 217 262 325 398
#
# _framework density 21.030553999999999
#
# number of rings (size 3 to 8) (size 9 to 14) (size 15 to 20)
#    0.000    1.500    3.750    2.250    0.000    3.500 
#    4.500    0.625    0.000    0.000    0.000    0.000 
#    0.000    0.000    0.000    0.000    0.000    0.000 
#
# Total GULP energy -178529.868031 kJ/mol
# GULP energy per Si atom -5579.058376 kJ/mol
# Density = 2.098269 g / cm^3
# Si number density = 21.030554 Si / 1000 Ang^3
#
#
#
# Elastic Constant Matrix: (Units=GPa)
#
#
# Indices 1 2 3 4 5 6 
#
# 1 97.3091 3.7846 60.7655 0.0001 -4.6568 0.0000
# 2 3.7846 24.9005 27.2301 -0.0001 3.5724 0.0000
# 3 60.7655 27.2301 208.0221 0.0000 14.4302 0.0000
# 4 0.0001 -0.0001 0.0000 25.5789 0.0000 4.5707
# 5 -4.6568 3.5724 14.4302 0.0000 35.6969 0.0000
# 6 0.0000 0.0000 0.0000 4.5707 0.0000 22.0272
#
#
#
# Elastic Compliance Matrix: (Units=1/GPa)
#
#
# Indices 1 2 3 4 5 6 
#
# 1 0.013049 0.002296 -0.004336 0.000000 0.003225 0.000000
# 2 0.002296 0.047453 -0.006763 0.000000 -0.001715 0.000000
# 3 -0.004336 -0.006763 0.007152 0.000000 -0.002780 0.000000
# 4 0.000000 0.000000 0.000000 0.040600 0.000000 -0.008425
# 5 0.003225 -0.001715 -0.002780 0.000000 0.029730 0.000000
# 6 0.000000 0.000000 0.000000 -0.008425 0.000000 0.047146
#
#
# Mechanical properties :
#
#
# Convention : Reuss Voigt Hill
#
# Bulk Modulus (GPa) = 19.98120 57.08804 38.53462
# Shear Modulus (GPa) = 22.78732 32.55738 27.67235
#
# Velocity S-wave (km/s) = 3.29528 3.93886 3.63135
# Velocity P-wave (km/s) = 4.89899 6.92029 5.99544
#
# Compressibility (1/GPa) = 0.05004704
#
# Stress axis : x y z
#
# Youngs Moduli (GPa) = 76.63239 21.07345 139.82207
#
# Poissons Ratio (x) = -0.04838 0.60628
# Poissons Ratio (y) = -0.17592 0.94564
# Poissons Ratio (z) = 0.33229 0.14252
#
# Static dielectric constant tensor:
#      x y z
#    x 1.762710 0.000000 -0.021680 
#    y 0.000000 1.836810 0.000000 
#    z -0.021680 0.000000 1.755710 
# 
# From -- ./inp_files/293773.got.cif
#   From: 2010.05.17/outbox.cif.g08.bks.cpg/sg15_147_cif.got.tgz:293773.got - 2010.06.03 18:47:42.
