data_PCOD9281071
_publ_section_title
;
Structure prediction by ZEFSAII (Michael W. Deem and Ramdas Pophale) SiO2 
 PCOD9281071
Probable space group: C 2/C
;
_chemical_formula_sum "Si O2"
_cell_formula_units_Z 36
_cell_length_a 13.721539
_cell_length_b 8.710023
_cell_length_c 21.505717
_cell_angle_alpha 90.000000
_cell_angle_beta 136.276523
_cell_angle_gamma 90.000000
_cell_volume 1776.504571
_symmetry_space_group_name_H-M "C 2/C"
_symmetry_group_IT_number 15
_symmetry_cell_setting 'monoclinic'
loop_
_space_group_symop_operation_xyz
x,y,z
-x,y,1/2-z
-x,-y,-z
x,-y,1/2+z
1/2+x,1/2+y,z
1/2-x,1/2+y,1/2-z
1/2-x,1/2-y,-z
1/2+x,1/2-y,1/2+z
loop_
_atom_site_type_symbol
_atom_site_label
_atom_site_fract_x
_atom_site_fract_y
_atom_site_fract_z
Si Si1 0.776425 0.318578 0.604945
Si Si2 0.989007 0.661608 0.461411
Si Si3 0.000000 0.655652 0.750000
Si Si4 0.266166 0.321253 0.439471
Si Si5 0.083488 0.366234 0.709123
O O1 0.648211 0.217447 0.522629
O O2 0.748295 0.494208 0.570530
O O3 0.792994 0.310864 0.687975
O O4 0.934772 0.281188 0.655462
O O5 0.909428 0.775094 0.471537
O O6 0.901682 0.646723 0.357246
O O7 0.000000 0.500000 0.500000
O O8 0.866347 0.742497 0.661648
O O9 0.945193 0.539996 0.779217
O O10 0.250000 0.250000 0.500000
#
# Coordination Sequence:
#
# PCOD9281071 Si02
#       5
#     8   8   4   8   8
#     4   9  20  39  57  78 112 148 180 227 284 334
#     4  12  22  33  56  87 111 143 189 231 273 335
#     4   8  18  40  56  74 112 148 176 224 282 330
#     4  10  21  38  58  80 109 150 187 228 279 332
#     4   8  18  36  58  78 107 145 180 228 283 326
#
# _framework density 20.264513999999998
#
# number of rings (size 3 to 8) (size 9 to 14) (size 15 to 20)
#    0.000    3.111    0.000    4.000    0.000    5.333 
#    0.000    4.444    0.000    0.000    0.000    0.000 
#    0.000    0.000    0.000    0.000    0.000    0.000 
#
# Total GULP energy -100311.788900 kJ/mol
# GULP energy per Si atom -5572.877161 kJ/mol
# Density = 2.021839 g / cm^3
# Si number density = 20.264514 Si / 1000 Ang^3
#
#
#
# Elastic Constant Matrix: (Units=GPa)
#
#
# Indices 1 2 3 4 5 6 
#
# 1 50.3181 4.5437 23.8399 0.0000 -19.7863 0.0000
# 2 4.5437 43.2133 22.2213 0.0000 -4.6691 0.0000
# 3 23.8399 22.2213 128.0784 0.0000 -20.2324 0.0000
# 4 0.0000 0.0000 0.0000 29.2645 0.0000 3.5516
# 5 -19.7863 -4.6691 -20.2324 0.0000 43.2255 0.0000
# 6 0.0000 0.0000 0.0000 3.5516 0.0000 6.7709
#
#
#
# Elastic Compliance Matrix: (Units=1/GPa)
#
#
# Indices 1 2 3 4 5 6 
#
# 1 0.025336 0.000036 -0.003120 0.000000 0.010141 0.000000
# 2 0.000036 0.025430 -0.004300 0.000000 0.000751 0.000000
# 3 -0.003120 -0.004300 0.009541 0.000000 0.002573 0.000000
# 4 0.000000 0.000000 0.000000 0.036494 0.000000 -0.019143
# 5 0.010141 0.000751 0.002573 0.000000 0.029062 0.000000
# 6 0.000000 0.000000 0.000000 -0.019143 0.000000 0.157731
#
#
# Mechanical properties :
#
#
# Convention : Reuss Voigt Hill
#
# Bulk Modulus (GPa) = 21.95942 35.86883 28.91412
# Shear Modulus (GPa) = 15.94682 27.25253 21.59968
#
# Velocity S-wave (km/s) = 2.80828 3.67118 3.26833
# Velocity P-wave (km/s) = 4.62333 5.97569 5.34247
#
# Compressibility (1/GPa) = 0.04553854
#
# Stress axis : x y z
#
# Youngs Moduli (GPa) = 39.46907 39.32433 104.81048
#
# Poissons Ratio (x) = -0.00143 0.32704
# Poissons Ratio (y) = -0.00143 0.45070
# Poissons Ratio (z) = 0.12316 0.16910
#
# Static dielectric constant tensor:
#      x y z
#    x 1.767440 0.000000 -0.060470 
#    y 0.000000 1.711540 0.000000 
#    z -0.060470 0.000000 1.412490 
# 
# From -- ./inp_files/242868.got.cif
#   From: 2010.05.17/outbox.cif.g08.bks.cpg/sg15_122_cif.got.tgz:242868.got - 2010.06.03 18:47:42.
