data_PCOD9281313
_publ_section_title
;
Structure prediction by ZEFSAII (Michael W. Deem and Ramdas Pophale) SiO2 
 PCOD9281313
Probable space group: C 2/C
;
_chemical_formula_sum "Si O2"
_cell_formula_units_Z 44
_cell_length_a 5.294079
_cell_length_b 29.258297
_cell_length_c 13.471402
_cell_angle_alpha 90.000000
_cell_angle_beta 97.356258
_cell_angle_gamma 90.000000
_cell_volume 2069.487823
_symmetry_space_group_name_H-M "C 2/C"
_symmetry_group_IT_number 15
_symmetry_cell_setting 'monoclinic'
loop_
_space_group_symop_operation_xyz
x,y,z
-x,y,1/2-z
-x,-y,-z
x,-y,1/2+z
1/2+x,1/2+y,z
1/2-x,1/2+y,1/2-z
1/2-x,1/2-y,-z
1/2+x,1/2-y,1/2+z
loop_
_atom_site_type_symbol
_atom_site_label
_atom_site_fract_x
_atom_site_fract_y
_atom_site_fract_z
Si Si1 0.225170 0.484304 0.939630
Si Si2 0.500000 0.042819 0.750000
Si Si3 0.539647 0.213381 0.460020
Si Si4 0.795136 0.882183 0.352713
Si Si5 0.168094 0.613685 0.509038
Si Si6 0.712025 0.220700 0.838185
O O1 0.135979 0.508530 0.834413
O O2 0.500000 0.500000 0.000000
O O3 0.197804 0.429597 0.938383
O O4 0.000000 0.500000 0.000000
O O5 0.273353 0.081159 0.735492
O O6 0.750000 0.250000 0.500000
O O7 0.639799 0.162219 0.452411
O O8 0.371672 0.211596 0.552021
O O9 0.404137 0.237450 0.360864
O O10 0.574024 0.890399 0.426995
O O11 0.785665 0.830610 0.310534
O O12 0.067242 0.886495 0.417821
O O13 0.500000 0.235240 0.750000
#
# Coordination Sequence:
#
# PCOD9281313 Si02
#       6
#     8   4   8   8   8   8
#     4  12  25  43  65  94 130 171 212 269 328 378
#     4  12  24  42  68 100 126 168 222 272 322 392
#     4  10  21  38  63  89 128 165 209 252 321 387
#     4  11  22  38  68  96 126 161 217 269 324 371
#     4  11  22  43  64  92 131 170 206 265 327 382
#     4  10  21  38  60  95 124 165 209 268 314 378
#
# _framework density 21.261301
#
# number of rings (size 3 to 8) (size 9 to 14) (size 15 to 20)
#    0.000    1.091    6.364    0.000    0.000    3.636 
#    0.000    1.818    0.000    0.000    0.000    0.000 
#    0.000    0.000    0.000    0.000    0.000    0.000 
#
# Total GULP energy -122514.535849 kJ/mol
# GULP energy per Si atom -5568.842539 kJ/mol
# Density = 2.121291 g / cm^3
# Si number density = 21.261301 Si / 1000 Ang^3
#
#
#
# Elastic Constant Matrix: (Units=GPa)
#
#
# Indices 1 2 3 4 5 6 
#
# 1 116.6169 45.7466 47.1187 0.0000 26.7304 0.0000
# 2 45.7466 243.9956 93.4739 0.0000 32.8859 0.0000
# 3 47.1187 93.4739 144.2784 0.0000 51.9652 0.0000
# 4 0.0000 0.0000 0.0000 38.0436 0.0000 23.7962
# 5 26.7304 32.8859 51.9652 0.0000 35.4883 0.0000
# 6 0.0000 0.0000 0.0000 23.7962 0.0000 4.5630
#
#
#
# Elastic Compliance Matrix: (Units=1/GPa)
#
#
# Indices 1 2 3 4 5 6 
#
# 1 0.010615 -0.000907 -0.000639 0.000000 -0.006219 0.000000
# 2 -0.000907 0.005530 -0.003569 0.000000 0.000785 0.000000
# 3 -0.000639 -0.003569 0.017113 0.000000 -0.021269 0.000000
# 4 0.000000 0.000000 0.000000 -0.011621 0.000000 0.060602
# 5 -0.006219 0.000785 -0.021269 0.000000 0.063279 0.000000
# 6 0.000000 0.000000 0.000000 0.060602 0.000000 -0.096886
#
#
# Mechanical properties :
#
#
# Convention : Reuss Voigt Hill
#
# Bulk Modulus (GPa) = 43.42819 97.50770 70.46795
# Shear Modulus (GPa) = 842.25788 36.85576 439.55682
#
# Velocity S-wave (km/s) = 19.92501 4.16801 14.39407
# Velocity P-wave (km/s) = 23.44806 8.31410 17.59170
#
# Compressibility (1/GPa) = 0.02302652
#
# Stress axis : x y z
#
# Youngs Moduli (GPa) = 94.21021 180.82904 58.43562
#
# Poissons Ratio (x) = 0.16404 0.03734
# Poissons Ratio (y) = 0.08546 0.20858
# Poissons Ratio (z) = 0.06020 0.64545
#
# Static dielectric constant tensor:
#      x y z
#    x 1.770230 0.000000 -0.085600 
#    y 0.000000 1.920330 0.000000 
#    z -0.085600 0.000000 1.647060 
# 
# From -- ./inp_files/130217.got.cif
#   From: 2010.05.17/outbox.cif.g08.bks.cpg/sg15_66_cif.got.tgz:130217.got - 2010.06.03 18:47:42.
